=
 OpenBabel11122411053D

 31 35  0  0  1  0  0  0  0  0999 V2000
  190.0780  176.0110  142.8690 C   0  0  0  0  0  0  0  0  0  0  0  0
  186.5390  177.1440  143.3840 C   0  0  2  0  0  3  0  0  0  0  0  0
  186.5540  177.8730  144.7200 C   0  0  0  0  0  0  0  0  0  0  0  0
  187.5680  178.2130  146.9090 C   0  0  0  0  0  0  0  0  0  0  0  0
  187.9160  177.0040  142.7720 C   0  0  0  0  0  0  0  0  0  0  0  0
  190.4990  176.7580  141.7680 C   0  0  0  0  0  3  0  0  0  0  0  0
  187.5770  177.6160  145.6470 C   0  0  0  0  0  3  0  0  0  0  0  0
  186.0940  178.9880  141.7110 C   0  0  2  0  0  3  0  0  0  0  0  0
  190.9330  175.1510  143.4710 F   0  0  0  0  0  0  0  0  0  0  0  0
  184.3480  179.0360  144.1800 C   0  0  0  0  0  2  0  0  0  0  0  0
  188.8670  177.8920  148.0360 Cl  0  0  0  0  0  0  0  0  0  0  0  0
  187.3360  178.6300  140.8970 C   0  0  0  0  0  2  0  0  0  0  0  0
  185.5250  177.7290  142.3820 C   0  0  2  0  0  3  0  0  0  0  0  0
  188.8100  176.1470  143.3400 N   0  0  0  0  0  0  0  0  0  0  0  0
  186.5220  179.0610  147.2710 C   0  0  0  0  0  3  0  0  0  0  0  0
  188.3080  177.7750  141.6560 C   0  0  0  0  0  0  0  0  0  0  0  0
  189.6040  177.6350  141.1580 C   0  0  0  0  0  3  0  0  0  0  0  0
  184.1900  177.9900  143.0800 C   0  0  0  0  0  2  0  0  0  0  0  0
  185.4750  178.7040  145.1130 C   0  0  0  0  0  0  0  0  0  0  0  0
  185.4800  179.3060  146.3750 C   0  0  0  0  0  3  0  0  0  0  0  0
  184.7150  177.6370  139.6030 O   0  0  0  0  0  0  0  0  0  0  0  0
  184.4400  178.8510  139.7960 C   0  0  0  0  0  0  0  0  0  0  0  0
  185.0980  179.5850  140.8330 N   0  0  0  0  0  2  0  0  0  0  0  0
  180.7090  178.4520  139.3170 C   0  0  1  0  0  3  0  0  0  0  0  0
  182.3800  180.2800  139.7260 C   0  0  0  0  0  2  0  0  0  0  0  0
  183.7690  177.8030  137.0690 C   0  0  0  0  0  1  0  0  0  0  0  0
  179.8120  177.5810  139.9320 O   0  0  0  0  0  1  0  0  0  0  0  0
  181.3790  179.3230  140.3750 C   0  0  0  0  0  2  0  0  0  0  0  0
  182.7580  178.5860  137.8880 C   0  0  2  0  0  3  0  0  0  0  0  0
  183.4320  179.5240  138.9070 C   0  0  2  0  0  3  0  0  0  0  0  0
  181.7540  177.6450  138.5520 C   0  0  0  0  0  2  0  0  0  0  0  0
  1 14  1  0  0  0  0
  1  9  1  0  0  0  0
  2  5  1  6  0  0  0
  2  3  1  0  0  0  0
  3 19  2  0  0  0  0
  3  7  1  0  0  0  0
  4 15  1  0  0  0  0
  4 11  1  0  0  0  0
  5 14  2  0  0  0  0
  6  1  2  0  0  0  0
  7  4  2  0  0  0  0
  8 23  1  6  0  0  0
  8 13  1  0  0  0  0
 10 19  1  0  0  0  0
 12 16  1  0  0  0  0
 12  8  1  0  0  0  0
 13 18  1  1  0  0  0
 13  2  1  0  0  0  0
 16  5  1  0  0  0  0
 17 16  2  0  0  0  0
 17  6  1  0  0  0  0
 18 10  1  0  0  0  0
 19 20  1  0  0  0  0
 20 15  2  0  0  0  0
 21 22  2  0  0  0  0
 22 23  1  0  0  0  0
 24 27  1  1  0  0  0
 24 28  1  0  0  0  0
 25 28  1  0  0  0  0
 29 26  1  1  0  0  0
 29 31  1  0  0  0  0
 29 30  1  0  0  0  0
 30 25  1  0  0  0  0
 30 22  1  1  0  0  0
 31 24  1  0  0  0  0
M  END
>  <MODEL>
1

>  <REMARK>
 VINA RESULT:      -9.4      0.000      0.000
  Name = 
  2 active torsions:
  status: ('A' for Active; 'I' for Inactive)
    1  A    between atoms: C_5  and  C_30
    2  A    between atoms: C_10  and  N_16
                            x       y       z     vdW  Elec       q    Type
                         _______ _______ _______ _____ _____    ______ ____

>  <TORSDO>
F 2

$$$$
=
 OpenBabel11122411053D

 31 35  0  0  1  0  0  0  0  0999 V2000
  191.0980  176.4270  143.8770 C   0  0  0  0  0  0  0  0  0  0  0  0
  187.4020  177.0580  143.7770 C   0  0  2  0  0  3  0  0  0  0  0  0
  187.0960  177.7960  145.0730 C   0  0  0  0  0  0  0  0  0  0  0  0
  187.6810  178.2950  147.3840 C   0  0  0  0  0  0  0  0  0  0  0  0
  188.8660  177.1060  143.3990 C   0  0  0  0  0  0  0  0  0  0  0  0
  191.5890  177.2140  142.8350 C   0  0  0  0  0  3  0  0  0  0  0  0
  187.9790  177.6930  146.1600 C   0  0  0  0  0  3  0  0  0  0  0  0
  186.9900  178.8050  141.9940 C   0  0  2  0  0  3  0  0  0  0  0  0
  191.9510  175.7000  144.6370 F   0  0  0  0  0  0  0  0  0  0  0  0
  184.8720  178.6340  144.1460 C   0  0  0  0  0  2  0  0  0  0  0  0
  188.8080  178.1700  148.7170 Cl  0  0  0  0  0  0  0  0  0  0  0  0
  188.3870  178.6160  141.4030 C   0  0  0  0  0  2  0  0  0  0  0  0
  186.4960  177.4860  142.6050 C   0  0  2  0  0  3  0  0  0  0  0  0
  189.7630  176.3890  144.1320 N   0  0  0  0  0  0  0  0  0  0  0  0
  186.4840  178.9920  147.5450 C   0  0  0  0  0  3  0  0  0  0  0  0
  189.3270  177.9140  142.3370 C   0  0  0  0  0  0  0  0  0  0  0  0
  190.6950  177.9510  142.0590 C   0  0  0  0  0  3  0  0  0  0  0  0
  185.0420  177.5650  143.0690 C   0  0  0  0  0  2  0  0  0  0  0  0
  185.8650  178.4710  145.2590 C   0  0  0  0  0  0  0  0  0  0  0  0
  185.5800  179.0800  146.4850 C   0  0  0  0  0  3  0  0  0  0  0  0
  186.7720  177.6560  139.3860 O   0  0  0  0  0  0  0  0  0  0  0  0
  186.0170  178.6260  139.6620 C   0  0  0  0  0  0  0  0  0  0  0  0
  186.0810  179.2480  140.9480 N   0  0  0  0  0  2  0  0  0  0  0  0
  182.4450  177.7860  138.7410 C   0  0  1  0  0  3  0  0  0  0  0  0
  183.8460  179.8080  139.2430 C   0  0  0  0  0  2  0  0  0  0  0  0
  185.8270  177.3780  136.9420 C   0  0  0  0  0  1  0  0  0  0  0  0
  181.5720  176.8500  139.2920 O   0  0  0  0  0  1  0  0  0  0  0  0
  182.8740  178.7770  139.8200 C   0  0  0  0  0  2  0  0  0  0  0  0
  184.6400  178.0810  137.5770 C   0  0  2  0  0  3  0  0  0  0  0  0
  185.0700  179.1370  138.6120 C   0  0  2  0  0  3  0  0  0  0  0  0
  183.6620  177.0660  138.1660 C   0  0  0  0  0  2  0  0  0  0  0  0
  1 14  1  0  0  0  0
  1  9  1  0  0  0  0
  2  5  1  6  0  0  0
  2  3  1  0  0  0  0
  3 19  2  0  0  0  0
  3  7  1  0  0  0  0
  4 15  1  0  0  0  0
  4 11  1  0  0  0  0
  5 14  2  0  0  0  0
  6  1  2  0  0  0  0
  7  4  2  0  0  0  0
  8 23  1  6  0  0  0
  8 13  1  0  0  0  0
 10 19  1  0  0  0  0
 12  8  1  0  0  0  0
 12 16  1  0  0  0  0
 13 18  1  1  0  0  0
 13  2  1  0  0  0  0
 16  5  1  0  0  0  0
 17 16  2  0  0  0  0
 17  6  1  0  0  0  0
 18 10  1  0  0  0  0
 19 20  1  0  0  0  0
 20 15  2  0  0  0  0
 21 22  2  0  0  0  0
 22 23  1  0  0  0  0
 24 27  1  1  0  0  0
 24 28  1  0  0  0  0
 25 28  1  0  0  0  0
 29 26  1  1  0  0  0
 29 31  1  0  0  0  0
 29 30  1  0  0  0  0
 30 25  1  0  0  0  0
 30 22  1  1  0  0  0
 31 24  1  0  0  0  0
M  END
>  <MODEL>
2

>  <REMARK>
 VINA RESULT:      -9.3      1.187      1.370
  Name = 
  2 active torsions:
  status: ('A' for Active; 'I' for Inactive)
    1  A    between atoms: C_5  and  C_30
    2  A    between atoms: C_10  and  N_16
                            x       y       z     vdW  Elec       q    Type
                         _______ _______ _______ _____ _____    ______ ____

>  <TORSDO>
F 2

$$$$
=
 OpenBabel11122411053D

 31 35  0  0  1  0  0  0  0  0999 V2000
  191.2230  176.4480  144.6490 C   0  0  0  0  0  0  0  0  0  0  0  0
  187.5990  176.9860  143.8460 C   0  0  2  0  0  3  0  0  0  0  0  0
  187.0480  177.7650  145.0320 C   0  0  0  0  0  0  0  0  0  0  0  0
  187.1880  178.3680  147.3880 C   0  0  0  0  0  0  0  0  0  0  0  0
  189.1060  177.0550  143.7420 C   0  0  0  0  0  0  0  0  0  0  0  0
  191.8840  177.2060  143.6820 C   0  0  0  0  0  3  0  0  0  0  0  0
  187.7160  177.7260  146.2660 C   0  0  0  0  0  3  0  0  0  0  0  0
  187.4930  178.6530  141.9450 C   0  0  2  0  0  3  0  0  0  0  0  0
  191.9340  175.7720  145.5820 F   0  0  0  0  0  0  0  0  0  0  0  0
  185.0190  178.5130  143.6780 C   0  0  0  0  0  2  0  0  0  0  0  0
  188.0530  178.3220  148.9080 Cl  0  0  0  0  0  0  0  0  0  0  0  0
  188.9780  178.4740  141.6290 C   0  0  0  0  0  2  0  0  0  0  0  0
  186.9170  177.3460  142.5110 C   0  0  2  0  0  3  0  0  0  0  0  0
  189.8650  176.3880  144.6560 N   0  0  0  0  0  0  0  0  0  0  0  0
  185.9710  179.0420  147.2970 C   0  0  0  0  0  3  0  0  0  0  0  0
  189.7420  177.8310  142.7490 C   0  0  0  0  0  0  0  0  0  0  0  0
  191.1360  177.8910  142.7250 C   0  0  0  0  0  3  0  0  0  0  0  0
  185.4010  177.4080  142.6970 C   0  0  0  0  0  2  0  0  0  0  0  0
  185.7920  178.4180  144.9600 C   0  0  0  0  0  0  0  0  0  0  0  0
  185.2760  179.0670  146.0870 C   0  0  0  0  0  3  0  0  0  0  0  0
  187.7160  177.3460  139.4130 O   0  0  0  0  0  0  0  0  0  0  0  0
  186.9370  178.3320  139.4950 C   0  0  0  0  0  0  0  0  0  0  0  0
  186.7850  179.0330  140.7320 N   0  0  0  0  0  2  0  0  0  0  0  0
  185.3870  176.5000  136.5710 C   0  0  1  0  0  3  0  0  0  0  0  0
  184.7560  178.2480  138.2590 C   0  0  0  0  0  2  0  0  0  0  0  0
  188.3380  178.9500  136.9170 C   0  0  0  0  0  1  0  0  0  0  0  0
  185.3440  175.1370  136.2850 O   0  0  0  0  0  1  0  0  0  0  0  0
  184.7120  176.7580  137.9150 C   0  0  0  0  0  2  0  0  0  0  0  0
  186.9030  178.4550  136.9400 C   0  0  2  0  0  3  0  0  0  0  0  0
  186.1930  178.7810  138.2680 C   0  0  2  0  0  3  0  0  0  0  0  0
  186.8390  176.9650  136.6070 C   0  0  0  0  0  2  0  0  0  0  0  0
  1 14  1  0  0  0  0
  1  9  1  0  0  0  0
  2  5  1  6  0  0  0
  2  3  1  0  0  0  0
  3  7  1  0  0  0  0
  4 11  1  0  0  0  0
  5 14  2  0  0  0  0
  6  1  2  0  0  0  0
  7  4  2  0  0  0  0
  8 23  1  6  0  0  0
  8 13  1  0  0  0  0
 10 19  1  0  0  0  0
 12  8  1  0  0  0  0
 12 16  1  0  0  0  0
 13 18  1  1  0  0  0
 13  2  1  0  0  0  0
 15  4  1  0  0  0  0
 16  5  1  0  0  0  0
 17 16  2  0  0  0  0
 17  6  1  0  0  0  0
 18 10  1  0  0  0  0
 19  3  2  0  0  0  0
 19 20  1  0  0  0  0
 20 15  2  0  0  0  0
 21 22  2  0  0  0  0
 22 23  1  0  0  0  0
 24 27  1  1  0  0  0
 24 31  1  0  0  0  0
 24 28  1  0  0  0  0
 25 30  1  0  0  0  0
 28 25  1  0  0  0  0
 29 26  1  1  0  0  0
 29 30  1  0  0  0  0
 30 22  1  1  0  0  0
 31 29  1  0  0  0  0
M  END
>  <MODEL>
3

>  <REMARK>
 VINA RESULT:      -9.2      2.267      2.905
  Name = 
  2 active torsions:
  status: ('A' for Active; 'I' for Inactive)
    1  A    between atoms: C_5  and  C_30
    2  A    between atoms: C_10  and  N_16
                            x       y       z     vdW  Elec       q    Type
                         _______ _______ _______ _____ _____    ______ ____

>  <TORSDO>
F 2

$$$$
=
 OpenBabel11122411053D

 31 35  0  0  1  0  0  0  0  0999 V2000
  189.8330  176.1070  142.6180 C   0  0  0  0  0  0  0  0  0  0  0  0
  186.7630  177.0030  144.5780 C   0  0  2  0  0  3  0  0  0  0  0  0
  187.2880  177.6230  145.8650 C   0  0  0  0  0  0  0  0  0  0  0  0
  189.0760  177.8420  147.5050 C   0  0  0  0  0  0  0  0  0  0  0  0
  187.7890  176.9860  143.4670 C   0  0  0  0  0  0  0  0  0  0  0  0
  189.7730  176.9600  141.5160 C   0  0  0  0  0  3  0  0  0  0  0  0
  188.5990  177.3490  146.2900 C   0  0  0  0  0  3  0  0  0  0  0  0
  185.6600  178.9470  143.3930 C   0  0  2  0  0  3  0  0  0  0  0  0
  190.8720  175.2490  142.7540 F   0  0  0  0  0  0  0  0  0  0  0  0
  185.0280  178.7050  146.3410 C   0  0  0  0  0  2  0  0  0  0  0  0
  190.7200  177.5040  148.0010 Cl  0  0  0  0  0  0  0  0  0  0  0  0
  186.4880  178.7220  142.1290 C   0  0  0  0  0  2  0  0  0  0  0  0
  185.4250  177.6100  144.1120 C   0  0  2  0  0  3  0  0  0  0  0  0
  188.8500  176.1370  143.5570 N   0  0  0  0  0  0  0  0  0  0  0  0
  188.2420  178.6010  148.3260 C   0  0  0  0  0  3  0  0  0  0  0  0
  187.6960  177.8640  142.3650 C   0  0  0  0  0  0  0  0  0  0  0  0
  188.6930  177.8340  141.3890 C   0  0  0  0  0  3  0  0  0  0  0  0
  184.4680  177.7430  145.2970 C   0  0  0  0  0  2  0  0  0  0  0  0
  186.4370  178.3610  146.7240 C   0  0  0  0  0  0  0  0  0  0  0  0
  186.9270  178.8600  147.9350 C   0  0  0  0  0  3  0  0  0  0  0  0
  183.6740  177.7750  141.7050 O   0  0  0  0  0  0  0  0  0  0  0  0
  183.4330  178.9140  142.1860 C   0  0  0  0  0  0  0  0  0  0  0  0
  184.3880  179.5570  143.0340 N   0  0  0  0  0  2  0  0  0  0  0  0
  179.9050  177.6840  141.5950 C   0  0  1  0  0  3  0  0  0  0  0  0
  181.1000  179.4320  142.9440 C   0  0  0  0  0  2  0  0  0  0  0  0
  182.5680  179.3200  139.3450 C   0  0  0  0  0  1  0  0  0  0  0  0
  179.3870  176.3900  141.6260 O   0  0  0  0  0  1  0  0  0  0  0  0
  180.5110  178.0200  142.9550 C   0  0  0  0  0  2  0  0  0  0  0  0
  181.5570  179.1880  140.4700 C   0  0  2  0  0  3  0  0  0  0  0  0
  182.1430  179.5990  141.8340 C   0  0  2  0  0  3  0  0  0  0  0  0
  180.9650  177.7800  140.5020 C   0  0  0  0  0  2  0  0  0  0  0  0
  1  9  1  0  0  0  0
  1 14  1  0  0  0  0
  2  5  1  6  0  0  0
  2  3  1  0  0  0  0
  3  7  2  0  0  0  0
  3 19  1  0  0  0  0
  4 11  1  0  0  0  0
  4 15  2  0  0  0  0
  5 14  2  0  0  0  0
  6  1  2  0  0  0  0
  7  4  1  0  0  0  0
  8 23  1  6  0  0  0
  8 13  1  0  0  0  0
 10 19  1  0  0  0  0
 12 16  1  0  0  0  0
 12  8  1  0  0  0  0
 13  2  1  0  0  0  0
 13 18  1  1  0  0  0
 16  5  1  0  0  0  0
 17  6  1  0  0  0  0
 17 16  2  0  0  0  0
 18 10  1  0  0  0  0
 19 20  2  0  0  0  0
 20 15  1  0  0  0  0
 21 22  2  0  0  0  0
 22 23  1  0  0  0  0
 24 27  1  1  0  0  0
 24 28  1  0  0  0  0
 25 28  1  0  0  0  0
 29 26  1  6  0  0  0
 29 31  1  0  0  0  0
 29 30  1  0  0  0  0
 30 22  1  1  0  0  0
 30 25  1  0  0  0  0
 31 24  1  0  0  0  0
M  END
>  <MODEL>
4

>  <REMARK>
 VINA RESULT:      -9.0      1.484      2.036
  Name = 
  2 active torsions:
  status: ('A' for Active; 'I' for Inactive)
    1  A    between atoms: C_5  and  C_30
    2  A    between atoms: C_10  and  N_16
                            x       y       z     vdW  Elec       q    Type
                         _______ _______ _______ _____ _____    ______ ____

>  <TORSDO>
F 2

$$$$
=
 OpenBabel11122411053D

 31 35  0  0  1  0  0  0  0  0999 V2000
  185.2760  178.5340  138.8470 C   0  0  0  0  0  0  0  0  0  0  0  0
  188.9730  178.0480  139.2580 C   0  0  2  0  0  3  0  0  0  0  0  0
  189.1330  177.4170  140.6340 C   0  0  0  0  0  0  0  0  0  0  0  0
  188.2740  177.0580  142.8840 C   0  0  0  0  0  0  0  0  0  0  0  0
  187.5710  177.9140  138.7050 C   0  0  0  0  0  0  0  0  0  0  0  0
  184.9480  177.6550  137.8140 C   0  0  0  0  0  3  0  0  0  0  0  0
  188.1160  177.5600  141.5910 C   0  0  0  0  0  3  0  0  0  0  0  0
  189.6640  176.1980  137.6770 C   0  0  2  0  0  3  0  0  0  0  0  0
  184.3100  179.2760  139.4370 F   0  0  0  0  0  0  0  0  0  0  0  0
  191.4830  176.6080  140.0580 C   0  0  0  0  0  2  0  0  0  0  0  0
  186.9820  177.2310  144.0530 Cl  0  0  0  0  0  0  0  0  0  0  0  0
  188.3490  176.2880  136.9040 C   0  0  0  0  0  2  0  0  0  0  0  0
  190.0340  177.5760  138.2440 C   0  0  2  0  0  3  0  0  0  0  0  0
  186.5660  178.6440  139.2630 N   0  0  0  0  0  0  0  0  0  0  0  0
  189.4620  176.4240  143.2460 C   0  0  0  0  0  3  0  0  0  0  0  0
  187.2750  177.0150  137.6570 C   0  0  0  0  0  0  0  0  0  0  0  0
  185.9560  176.9020  137.2140 C   0  0  0  0  0  3  0  0  0  0  0  0
  191.4190  177.5900  138.8910 C   0  0  0  0  0  2  0  0  0  0  0  0
  190.3510  176.8070  141.0230 C   0  0  0  0  0  0  0  0  0  0  0  0
  190.4960  176.2980  142.3170 C   0  0  0  0  0  3  0  0  0  0  0  0
  190.5370  173.4860  137.4460 O   0  0  0  0  0  0  0  0  0  0  0  0
  191.1010  174.3450  136.7180 C   0  0  0  0  0  0  0  0  0  0  0  0
  190.7130  175.7200  136.7890 N   0  0  0  0  0  2  0  0  0  0  0  0
  194.8740  174.5680  136.8780 C   0  0  1  0  0  3  0  0  0  0  0  0
  193.0950  172.8490  136.4490 C   0  0  0  0  0  2  0  0  0  0  0  0
  192.2050  176.1490  134.5950 C   0  0  0  0  0  1  0  0  0  0  0  0
  195.7000  175.1200  137.8550 O   0  0  0  0  0  1  0  0  0  0  0  0
  194.0230  173.4630  137.4980 C   0  0  0  0  0  2  0  0  0  0  0  0
  193.0550  175.0650  135.2340 C   0  0  2  0  0  3  0  0  0  0  0  0
  192.2040  173.9100  135.7950 C   0  0  2  0  0  3  0  0  0  0  0  0
  193.9830  175.6590  136.2930 C   0  0  0  0  0  2  0  0  0  0  0  0
  1 14  1  0  0  0  0
  1  9  1  0  0  0  0
  2  5  1  6  0  0  0
  2  3  1  0  0  0  0
  3 19  2  0  0  0  0
  3  7  1  0  0  0  0
  4 15  1  0  0  0  0
  4 11  1  0  0  0  0
  5 14  2  0  0  0  0
  6  1  2  0  0  0  0
  7  4  2  0  0  0  0
  8 23  1  6  0  0  0
  8 13  1  0  0  0  0
 10 19  1  0  0  0  0
 12 16  1  0  0  0  0
 12  8  1  0  0  0  0
 13 18  1  1  0  0  0
 13  2  1  0  0  0  0
 16  5  1  0  0  0  0
 17 16  2  0  0  0  0
 17  6  1  0  0  0  0
 18 10  1  0  0  0  0
 19 20  1  0  0  0  0
 20 15  2  0  0  0  0
 22 23  1  0  0  0  0
 22 21  2  0  0  0  0
 24 28  1  0  0  0  0
 24 27  1  1  0  0  0
 25 28  1  0  0  0  0
 29 26  1  1  0  0  0
 29 30  1  0  0  0  0
 29 31  1  0  0  0  0
 30 25  1  0  0  0  0
 30 22  1  1  0  0  0
 31 24  1  0  0  0  0
M  END
>  <MODEL>
5

>  <REMARK>
 VINA RESULT:      -8.3      5.054      8.565
  Name = 
  2 active torsions:
  status: ('A' for Active; 'I' for Inactive)
    1  A    between atoms: C_5  and  C_30
    2  A    between atoms: C_10  and  N_16
                            x       y       z     vdW  Elec       q    Type
                         _______ _______ _______ _____ _____    ______ ____

>  <TORSDO>
F 2

$$$$
=
 OpenBabel11122411053D

 31 35  0  0  1  0  0  0  0  0999 V2000
  188.7200  178.2400  142.5310 C   0  0  0  0  0  0  0  0  0  0  0  0
  185.9920  178.9880  140.0670 C   0  0  2  0  0  3  0  0  0  0  0  0
  186.2520  178.0480  138.8990 C   0  0  0  0  0  0  0  0  0  0  0  0
  187.8160  176.7050  137.6020 C   0  0  0  0  0  0  0  0  0  0  0  0
  186.6800  178.5520  141.3420 C   0  0  0  0  0  0  0  0  0  0  0  0
  188.0360  177.6850  143.6120 C   0  0  0  0  0  3  0  0  0  0  0  0
  187.5340  177.5050  138.7100 C   0  0  0  0  0  3  0  0  0  0  0  0
  183.8330  178.1160  141.0560 C   0  0  2  0  0  3  0  0  0  0  0  0
  190.0680  178.3610  142.5720 F   0  0  0  0  0  0  0  0  0  0  0  0
  183.8700  178.3520  138.0410 C   0  0  0  0  0  2  0  0  0  0  0  0
  189.4160  176.0240  137.4010 Cl  0  0  0  0  0  0  0  0  0  0  0  0
  184.4550  177.9780  142.4440 C   0  0  0  0  0  2  0  0  0  0  0  0
  184.4950  179.2740  140.2960 C   0  0  2  0  0  3  0  0  0  0  0  0
  188.0350  178.6590  141.4330 N   0  0  0  0  0  0  0  0  0  0  0  0
  186.8260  176.4510  136.6540 C   0  0  0  0  0  3  0  0  0  0  0  0
  185.9550  177.9960  142.4180 C   0  0  0  0  0  0  0  0  0  0  0  0
  186.6470  177.5720  143.5540 C   0  0  0  0  0  3  0  0  0  0  0  0
  183.8080  179.5680  138.9620 C   0  0  0  0  0  2  0  0  0  0  0  0
  185.2650  177.8170  137.9100 C   0  0  0  0  0  0  0  0  0  0  0  0
  185.5540  177.0050  136.8080 C   0  0  0  0  0  3  0  0  0  0  0  0
  181.7660  176.4450  140.0030 O   0  0  0  0  0  0  0  0  0  0  0  0
  181.4170  177.4720  140.6420 C   0  0  0  0  0  0  0  0  0  0  0  0
  182.4030  178.3520  141.1900 N   0  0  0  0  0  2  0  0  0  0  0  0
  179.3390  180.5970  140.1640 C   0  0  1  0  0  3  0  0  0  0  0  0
  179.3240  178.1870  139.4610 C   0  0  0  0  0  2  0  0  0  0  0  0
  180.2560  178.4490  143.2270 C   0  0  0  0  0  1  0  0  0  0  0  0
  179.7230  181.8830  139.7870 O   0  0  0  0  0  1  0  0  0  0  0  0
  179.7220  179.6100  139.0650 C   0  0  0  0  0  2  0  0  0  0  0  0
  179.6320  178.8100  141.8910 C   0  0  2  0  0  3  0  0  0  0  0  0
  179.9530  177.7760  140.7960 C   0  0  2  0  0  3  0  0  0  0  0  0
  180.0260  180.2270  141.4750 C   0  0  0  0  0  2  0  0  0  0  0  0
  1  9  1  0  0  0  0
  1  6  1  0  0  0  0
  2  3  1  6  0  0  0
  2 13  1  0  0  0  0
  2  5  1  0  0  0  0
  4  7  2  0  0  0  0
  5 14  1  0  0  0  0
  5 16  2  0  0  0  0
  7  3  1  0  0  0  0
  8 23  1  1  0  0  0
  8 12  1  0  0  0  0
 10 18  1  0  0  0  0
 11  4  1  0  0  0  0
 13 18  1  6  0  0  0
 13  8  1  0  0  0  0
 14  1  2  0  0  0  0
 15 20  2  0  0  0  0
 15  4  1  0  0  0  0
 16 12  1  0  0  0  0
 16 17  1  0  0  0  0
 17  6  2  0  0  0  0
 19 10  1  0  0  0  0
 19  3  2  0  0  0  0
 20 19  1  0  0  0  0
 21 22  2  0  0  0  0
 22 23  1  0  0  0  0
 24 27  1  6  0  0  0
 24 31  1  0  0  0  0
 25 30  1  0  0  0  0
 28 25  1  0  0  0  0
 28 24  1  0  0  0  0
 29 26  1  1  0  0  0
 30 22  1  6  0  0  0
 30 29  1  0  0  0  0
 31 29  1  0  0  0  0
M  END
>  <MODEL>
6

>  <REMARK>
 VINA RESULT:      -8.0      2.907      5.417
  Name = 
  2 active torsions:
  status: ('A' for Active; 'I' for Inactive)
    1  A    between atoms: C_5  and  C_30
    2  A    between atoms: C_10  and  N_16
                            x       y       z     vdW  Elec       q    Type
                         _______ _______ _______ _____ _____    ______ ____

>  <TORSDO>
F 2

$$$$
=
 OpenBabel11122411053D

 31 35  0  0  1  0  0  0  0  0999 V2000
  188.9630  178.0900  143.4040 C   0  0  0  0  0  0  0  0  0  0  0  0
  186.6010  178.9600  140.6240 C   0  0  2  0  0  3  0  0  0  0  0  0
  187.0130  178.0620  139.4660 C   0  0  0  0  0  0  0  0  0  0  0  0
  188.7320  176.7530  138.3420 C   0  0  0  0  0  0  0  0  0  0  0  0
  187.1060  178.4690  141.9630 C   0  0  0  0  0  0  0  0  0  0  0  0
  188.1340  177.5020  144.3600 C   0  0  0  0  0  3  0  0  0  0  0  0
  188.3060  177.5140  139.4320 C   0  0  0  0  0  3  0  0  0  0  0  0
  184.3220  178.0740  141.2740 C   0  0  2  0  0  3  0  0  0  0  0  0
  190.2930  178.1950  143.6340 F   0  0  0  0  0  0  0  0  0  0  0  0
  184.7710  178.4250  138.3040 C   0  0  0  0  0  2  0  0  0  0  0  0
  190.3410  176.0620  138.3350 Cl  0  0  0  0  0  0  0  0  0  0  0  0
  184.7490  177.8780  142.7280 C   0  0  0  0  0  2  0  0  0  0  0  0
  185.0880  179.2540  140.6580 C   0  0  2  0  0  3  0  0  0  0  0  0
  188.4370  178.5580  142.2410 N   0  0  0  0  0  0  0  0  0  0  0  0
  187.8790  176.5460  137.2590 C   0  0  0  0  0  3  0  0  0  0  0  0
  186.2380  177.8800  142.9070 C   0  0  0  0  0  0  0  0  0  0  0  0
  186.7660  177.4070  144.1090 C   0  0  0  0  0  3  0  0  0  0  0  0
  184.5910  179.6050  139.2550 C   0  0  0  0  0  2  0  0  0  0  0  0
  186.1680  177.8800  138.3430 C   0  0  0  0  0  0  0  0  0  0  0  0
  186.6010  177.1070  137.2610 C   0  0  0  0  0  3  0  0  0  0  0  0
  182.4130  176.4820  139.8640 O   0  0  0  0  0  0  0  0  0  0  0  0
  181.9840  177.4810  140.4990 C   0  0  0  0  0  0  0  0  0  0  0  0
  182.8890  178.3210  141.2220 N   0  0  0  0  0  2  0  0  0  0  0  0
  179.0500  176.0190  138.6110 C   0  0  1  0  0  3  0  0  0  0  0  0
  179.6790  176.6120  140.9680 C   0  0  0  0  0  2  0  0  0  0  0  0
  180.8170  179.4410  138.5540 C   0  0  0  0  0  1  0  0  0  0  0  0
  179.0070  174.9840  137.6790 O   0  0  0  0  0  1  0  0  0  0  0  0
  179.6080  175.4920  139.9300 C   0  0  0  0  0  2  0  0  0  0  0  0
  180.0010  178.2820  139.0970 C   0  0  2  0  0  3  0  0  0  0  0  0
  180.5140  177.7940  140.4650 C   0  0  2  0  0  3  0  0  0  0  0  0
  179.9270  177.1480  138.0760 C   0  0  0  0  0  2  0  0  0  0  0  0
  1  9  1  0  0  0  0
  1  6  1  0  0  0  0
  2  3  1  6  0  0  0
  2 13  1  0  0  0  0
  2  5  1  0  0  0  0
  4  7  2  0  0  0  0
  5 14  1  0  0  0  0
  5 16  2  0  0  0  0
  7  3  1  0  0  0  0
  8 23  1  1  0  0  0
  8 12  1  0  0  0  0
 10 19  1  0  0  0  0
 10 18  1  0  0  0  0
 11  4  1  0  0  0  0
 12 16  1  0  0  0  0
 13 18  1  6  0  0  0
 13  8  1  0  0  0  0
 14  1  2  0  0  0  0
 15 20  2  0  0  0  0
 15  4  1  0  0  0  0
 16 17  1  0  0  0  0
 17  6  2  0  0  0  0
 19  3  2  0  0  0  0
 20 19  1  0  0  0  0
 21 22  2  0  0  0  0
 22 23  1  0  0  0  0
 24 27  1  6  0  0  0
 24 28  1  0  0  0  0
 28 25  1  0  0  0  0
 29 26  1  6  0  0  0
 29 30  1  0  0  0  0
 30 22  1  6  0  0  0
 30 25  1  0  0  0  0
 31 24  1  0  0  0  0
 31 29  1  0  0  0  0
M  END
>  <MODEL>
7

>  <REMARK>
 VINA RESULT:      -7.9      2.813      4.944
  Name = 
  2 active torsions:
  status: ('A' for Active; 'I' for Inactive)
    1  A    between atoms: C_5  and  C_30
    2  A    between atoms: C_10  and  N_16
                            x       y       z     vdW  Elec       q    Type
                         _______ _______ _______ _____ _____    ______ ____

>  <TORSDO>
F 2

$$$$
=
 OpenBabel11122411053D

 31 35  0  0  1  0  0  0  0  0999 V2000
  188.8460  177.9650  143.4010 C   0  0  0  0  0  0  0  0  0  0  0  0
  186.5690  178.9430  140.5850 C   0  0  2  0  0  3  0  0  0  0  0  0
  186.9610  178.0310  139.4310 C   0  0  0  0  0  0  0  0  0  0  0  0
  188.6400  176.6520  138.3310 C   0  0  0  0  0  0  0  0  0  0  0  0
  187.0310  178.4270  141.9310 C   0  0  0  0  0  0  0  0  0  0  0  0
  187.9770  177.4100  144.3410 C   0  0  0  0  0  3  0  0  0  0  0  0
  188.2290  177.4280  139.4160 C   0  0  0  0  0  3  0  0  0  0  0  0
  184.2440  178.1550  141.1960 C   0  0  2  0  0  3  0  0  0  0  0  0
  190.1760  178.0110  143.6520 F   0  0  0  0  0  0  0  0  0  0  0  0
  184.7560  178.4930  138.2340 C   0  0  0  0  0  2  0  0  0  0  0  0
  190.2170  175.8930  138.3480 Cl  0  0  0  0  0  0  0  0  0  0  0  0
  184.6380  177.9360  142.6560 C   0  0  0  0  0  2  0  0  0  0  0  0
  185.0700  179.3020  140.5950 C   0  0  2  0  0  3  0  0  0  0  0  0
  188.3590  178.4580  142.2310 N   0  0  0  0  0  0  0  0  0  0  0  0
  187.7970  176.4850  137.2340 C   0  0  0  0  0  3  0  0  0  0  0  0
  186.1230  177.8740  142.8590 C   0  0  0  0  0  0  0  0  0  0  0  0
  186.6100  177.3750  144.0680 C   0  0  0  0  0  3  0  0  0  0  0  0
  184.6120  179.6780  139.1860 C   0  0  0  0  0  2  0  0  0  0  0  0
  186.1280  177.8890  138.2940 C   0  0  0  0  0  0  0  0  0  0  0  0
  186.5440  177.1010  137.2170 C   0  0  0  0  0  3  0  0  0  0  0  0
  182.3030  176.6910  139.6920 O   0  0  0  0  0  0  0  0  0  0  0  0
  181.9020  177.6860  140.3510 C   0  0  0  0  0  0  0  0  0  0  0  0
  182.8240  178.4630  141.1210 N   0  0  0  0  0  2  0  0  0  0  0  0
  179.4170  178.8780  142.9430 C   0  0  1  0  0  3  0  0  0  0  0  0
  180.2360  179.5350  140.6620 C   0  0  0  0  0  2  0  0  0  0  0  0
  179.7190  175.6840  140.8120 C   0  0  0  0  0  1  0  0  0  0  0  0
  179.5800  179.0980  144.3090 O   0  0  0  0  0  1  0  0  0  0  0  0
  180.3850  179.7670  142.1670 C   0  0  0  0  0  2  0  0  0  0  0  0
  179.5250  177.1550  141.1320 C   0  0  2  0  0  3  0  0  0  0  0  0
  180.4470  178.0620  140.2960 C   0  0  2  0  0  3  0  0  0  0  0  0
  179.6790  177.4080  142.6310 C   0  0  0  0  0  2  0  0  0  0  0  0
  1  9  1  0  0  0  0
  1  6  1  0  0  0  0
  2  3  1  6  0  0  0
  2 13  1  0  0  0  0
  2  5  1  0  0  0  0
  4 11  1  0  0  0  0
  4  7  2  0  0  0  0
  5 14  1  0  0  0  0
  5 16  2  0  0  0  0
  7  3  1  0  0  0  0
  8 23  1  1  0  0  0
  8 12  1  0  0  0  0
 10 19  1  0  0  0  0
 10 18  1  0  0  0  0
 12 16  1  0  0  0  0
 13 18  1  6  0  0  0
 13  8  1  0  0  0  0
 14  1  2  0  0  0  0
 15  4  1  0  0  0  0
 16 17  1  0  0  0  0
 17  6  2  0  0  0  0
 19  3  2  0  0  0  0
 20 15  2  0  0  0  0
 20 19  1  0  0  0  0
 21 22  2  0  0  0  0
 22 23  1  0  0  0  0
 24 27  1  1  0  0  0
 25 28  1  0  0  0  0
 28 24  1  0  0  0  0
 29 26  1  1  0  0  0
 29 31  1  0  0  0  0
 30 22  1  1  0  0  0
 30 25  1  0  0  0  0
 30 29  1  0  0  0  0
 31 24  1  0  0  0  0
M  END
>  <MODEL>
8

>  <REMARK>
 VINA RESULT:      -7.7      2.917      5.077
  Name = 
  2 active torsions:
  status: ('A' for Active; 'I' for Inactive)
    1  A    between atoms: C_5  and  C_30
    2  A    between atoms: C_10  and  N_16
                            x       y       z     vdW  Elec       q    Type
                         _______ _______ _______ _____ _____    ______ ____

>  <TORSDO>
F 2

$$$$
=
 OpenBabel11122411053D

 31 35  0  0  1  0  0  0  0  0999 V2000
  190.5710  176.7370  146.1520 C   0  0  0  0  0  0  0  0  0  0  0  0
  187.9920  177.0340  143.4450 C   0  0  2  0  0  3  0  0  0  0  0  0
  186.9160  177.9410  144.0280 C   0  0  0  0  0  0  0  0  0  0  0  0
  185.7780  178.8490  145.9810 C   0  0  0  0  0  0  0  0  0  0  0  0
  189.3150  177.1440  144.1700 C   0  0  0  0  0  0  0  0  0  0  0  0
  191.6820  177.3870  145.6120 C   0  0  0  0  0  3  0  0  0  0  0  0
  186.8040  178.0870  145.4210 C   0  0  0  0  0  3  0  0  0  0  0  0
  189.0040  178.4350  141.5980 C   0  0  2  0  0  3  0  0  0  0  0  0
  190.6330  176.2150  147.4000 F   0  0  0  0  0  0  0  0  0  0  0  0
  185.9820  178.4320  141.7060 C   0  0  0  0  0  2  0  0  0  0  0  0
  185.6740  179.0320  147.7180 Cl  0  0  0  0  0  0  0  0  0  0  0  0
  190.4130  178.2710  142.1660 C   0  0  0  0  0  2  0  0  0  0  0  0
  188.1610  177.1930  141.9210 C   0  0  2  0  0  3  0  0  0  0  0  0
  189.4260  176.6290  145.4270 N   0  0  0  0  0  0  0  0  0  0  0  0
  184.8340  179.4600  145.1560 C   0  0  0  0  0  3  0  0  0  0  0  0
  190.4190  177.8070  143.5920 C   0  0  0  0  0  0  0  0  0  0  0  0
  191.6030  177.9140  144.3240 C   0  0  0  0  0  3  0  0  0  0  0  0
  186.7910  177.2230  141.2430 C   0  0  0  0  0  2  0  0  0  0  0  0
  185.9290  178.5320  143.2020 C   0  0  0  0  0  0  0  0  0  0  0  0
  184.9110  179.3030  143.7720 C   0  0  0  0  0  3  0  0  0  0  0  0
  190.2800  176.6630  139.7530 O   0  0  0  0  0  0  0  0  0  0  0  0
  189.7360  177.6990  139.2870 C   0  0  0  0  0  0  0  0  0  0  0  0
  189.0850  178.6280  140.1570 N   0  0  0  0  0  2  0  0  0  0  0  0
  187.4480  176.8820  136.3870 C   0  0  1  0  0  3  0  0  0  0  0  0
  188.6580  178.8630  137.3450 C   0  0  0  0  0  2  0  0  0  0  0  0
  190.9930  175.7540  137.3830 C   0  0  0  0  0  1  0  0  0  0  0  0
  186.2320  176.2020  136.3660 O   0  0  0  0  0  1  0  0  0  0  0  0
  187.3300  178.1050  137.2930 C   0  0  0  0  0  2  0  0  0  0  0  0
  189.8800  176.6870  136.9420 C   0  0  2  0  0  3  0  0  0  0  0  0
  189.8050  177.9590  137.8080 C   0  0  2  0  0  3  0  0  0  0  0  0
  188.5430  175.9480  136.8930 C   0  0  0  0  0  2  0  0  0  0  0  0
  1  9  1  0  0  0  0
  2  3  1  1  0  0  0
  2  5  1  0  0  0  0
  3  7  1  0  0  0  0
  4 11  1  0  0  0  0
  5 14  1  0  0  0  0
  6  1  1  0  0  0  0
  7  4  2  0  0  0  0
  8 23  1  6  0  0  0
  8 13  1  0  0  0  0
  8 12  1  0  0  0  0
 10 19  1  0  0  0  0
 12 16  1  0  0  0  0
 13 18  1  6  0  0  0
 13  2  1  0  0  0  0
 14  1  2  0  0  0  0
 15  4  1  0  0  0  0
 16  5  2  0  0  0  0
 16 17  1  0  0  0  0
 17  6  2  0  0  0  0
 18 10  1  0  0  0  0
 19 20  1  0  0  0  0
 19  3  2  0  0  0  0
 20 15  2  0  0  0  0
 22 21  2  0  0  0  0
 22 23  1  0  0  0  0
 24 27  1  1  0  0  0
 24 31  1  0  0  0  0
 24 28  1  0  0  0  0
 25 30  1  0  0  0  0
 28 25  1  0  0  0  0
 29 26  1  1  0  0  0
 29 30  1  0  0  0  0
 30 22  1  1  0  0  0
 31 29  1  0  0  0  0
M  END
>  <MODEL>
9

>  <REMARK>
 VINA RESULT:      -7.7      3.150      4.592
  Name = 
  2 active torsions:
  status: ('A' for Active; 'I' for Inactive)
    1  A    between atoms: C_5  and  C_30
    2  A    between atoms: C_10  and  N_16
                            x       y       z     vdW  Elec       q    Type
                         _______ _______ _______ _____ _____    ______ ____

>  <TORSDO>
F 2

$$$$
