=
 OpenBabel11122411403D

 37 43  0  0  1  0  0  0  0  0999 V2000
  188.2370  176.4570  138.0790 C   0  0  0  0  0  2  0  0  0  0  0  0
  190.3510  177.1170  143.0380 C   0  0  0  0  0  0  0  0  0  0  0  0
  186.5320  178.1340  141.7390 C   0  0  0  0  0  0  0  0  0  0  0  0
  189.1830  176.1640  137.0030 N   0  0  0  0  0  0  0  0  0  0  0  0
  185.9440  179.2880  138.3070 O   0  0  0  0  0  0  0  0  0  0  0  0
  188.0380  177.8390  143.6060 C   0  0  0  0  0  0  0  0  0  0  0  0
  186.6190  178.1800  140.3810 N   0  0  0  0  0  0  0  0  0  0  0  0
  188.3420  178.0730  135.7130 C   0  0  0  0  0  0  0  0  0  0  0  0
  187.7580  177.9090  142.2690 C   0  0  0  0  0  0  0  0  0  0  0  0
  185.5820  178.5700  139.4440 C   0  0  0  0  0  0  0  0  0  0  0  0
  186.9730  178.0170  144.5040 C   0  0  0  0  0  3  0  0  0  0  0  0
  189.4910  177.1390  135.9570 C   0  0  0  0  0  2  0  0  0  0  0  0
  188.6620  177.7850  141.2870 C   0  0  0  0  0  0  0  0  0  0  0  0
  190.3160  175.6000  143.0220 C   0  0  0  0  0  1  0  0  0  0  0  0
  184.0290  178.4160  142.0990 C   0  0  0  0  0  2  0  0  0  0  0  0
  185.6650  178.2260  143.9940 C   0  0  0  0  0  3  0  0  0  0  0  0
  190.1260  177.6360  141.5850 C   0  0  0  0  0  2  0  0  0  0  0  0
  187.7890  178.9340  136.8200 C   0  0  1  0  0  3  0  0  0  0  0  0
  186.3310  178.6150  137.1240 C   0  0  0  0  0  2  0  0  0  0  0  0
  185.4250  178.2730  142.5990 C   0  0  0  0  0  0  0  0  0  0  0  0
  187.9520  177.9680  140.1070 C   0  0  0  0  0  0  0  0  0  0  0  0
  189.3660  177.6000  143.9840 O   0  0  0  0  0  0  0  0  0  0  0  0
  184.2700  178.2990  139.6600 C   0  0  0  0  0  0  0  0  0  0  0  0
  191.7260  177.5520  143.4990 C   0  0  0  0  0  1  0  0  0  0  0  0
  188.6180  178.9750  137.9730 O   0  0  0  0  0  0  0  0  0  0  0  0
  187.8610  178.1450  134.5940 O   0  0  0  0  0  0  0  0  0  0  0  0
  188.5870  177.7880  138.7600 C   0  0  2  0  0  3  0  0  0  0  0  0
  183.8300  177.5440  140.8750 C   0  0  0  0  0  2  0  0  0  0  0  0
  189.7290  174.0760  137.9070 O   0  0  0  0  0  0  0  0  0  0  0  0
  189.9160  174.9400  137.0090 C   0  0  0  0  0  3  0  0  0  0  0  0
  182.7190  177.8840  137.7420 C   0  0  0  0  0  3  0  0  0  0  0  0
  183.2000  178.7560  138.7330 C   0  0  0  0  0  0  0  0  0  0  0  0
  182.6170  180.0280  138.8530 C   0  0  0  0  0  3  0  0  0  0  0  0
  180.9930  181.7800  138.1250 C   0  0  0  0  0  1  0  0  0  0  0  0
  181.1330  179.5550  137.0010 C   0  0  0  0  0  3  0  0  0  0  0  0
  181.5940  180.4280  137.9900 C   0  0  0  0  0  0  0  0  0  0  0  0
  181.6940  178.2820  136.8790 C   0  0  0  0  0  3  0  0  0  0  0  0
  2 24  1  0  0  0  0
  2 22  1  0  0  0  0
  3  9  2  0  0  0  0
  3 20  1  0  0  0  0
  4 30  1  0  0  0  0
  4  1  1  0  0  0  0
  5 10  1  0  0  0  0
  6 22  1  0  0  0  0
  6 11  2  0  0  0  0
  7  3  1  0  0  0  0
  8 12  1  0  0  0  0
  8 18  1  0  0  0  0
  9  6  1  0  0  0  0
 10 23  2  0  0  0  0
 10  7  1  0  0  0  0
 12  4  1  0  0  0  0
 13 17  1  0  0  0  0
 13  9  1  0  0  0  0
 14  2  1  0  0  0  0
 15 20  1  0  0  0  0
 16 11  1  0  0  0  0
 17  2  1  0  0  0  0
 18 19  1  1  0  0  0
 18 25  1  0  0  0  0
 19  5  1  0  0  0  0
 20 16  2  0  0  0  0
 21  7  1  0  0  0  0
 21 13  2  0  0  0  0
 23 28  1  0  0  0  0
 25 27  1  0  0  0  0
 26  8  2  0  0  0  0
 27  1  1  6  0  0  0
 27 21  1  0  0  0  0
 28 15  1  0  0  0  0
 30 29  2  0  0  0  0
 31 32  1  0  0  0  0
 32 33  2  0  0  0  0
 32 23  1  0  0  0  0
 35 36  2  0  0  0  0
 36 34  1  0  0  0  0
 36 33  1  0  0  0  0
 37 35  1  0  0  0  0
 37 31  2  0  0  0  0
M  END
>  <MODEL>
1

>  <REMARK>
 VINA RESULT:      -9.7      0.000      0.000
  Name = 
  1 active torsions:
  status: ('A' for Active; 'I' for Inactive)
    1  A    between atoms: C_23  and  C_30
                            x       y       z     vdW  Elec       q    Type
                         _______ _______ _______ _____ _____    ______ ____

>  <TORSDO>
F 1

$$$$
=
 OpenBabel11122411403D

 37 43  0  0  1  0  0  0  0  0999 V2000
  184.4450  177.1670  138.8580 C   0  0  0  0  0  2  0  0  0  0  0  0
  189.0720  177.2340  136.0150 C   0  0  0  0  0  0  0  0  0  0  0  0
  188.6030  177.6300  140.1300 C   0  0  0  0  0  0  0  0  0  0  0  0
  183.2090  177.3200  138.0920 N   0  0  0  0  0  0  0  0  0  0  0  0
  185.6670  179.3110  141.5470 O   0  0  0  0  0  0  0  0  0  0  0  0
  190.1150  177.2940  138.2740 C   0  0  0  0  0  0  0  0  0  0  0  0
  187.2970  177.9740  140.3070 N   0  0  0  0  0  0  0  0  0  0  0  0
  182.5480  179.2200  139.4930 C   0  0  0  0  0  0  0  0  0  0  0  0
  188.8860  177.5760  138.8060 C   0  0  0  0  0  0  0  0  0  0  0  0
  186.6370  178.3110  141.5540 C   0  0  0  0  0  0  0  0  0  0  0  0
  191.1690  177.0420  139.1670 C   0  0  0  0  0  3  0  0  0  0  0  0
  182.3970  178.5330  138.1680 C   0  0  0  0  0  2  0  0  0  0  0  0
  187.7870  177.8610  138.0930 C   0  0  0  0  0  0  0  0  0  0  0  0
  188.6960  175.7840  135.7740 C   0  0  0  0  0  1  0  0  0  0  0  0
  189.3660  177.2710  142.5300 C   0  0  0  0  0  2  0  0  0  0  0  0
  190.9120  177.0590  140.5640 C   0  0  0  0  0  3  0  0  0  0  0  0
  187.8330  177.9800  136.5980 C   0  0  0  0  0  2  0  0  0  0  0  0
  183.8960  179.6890  139.9780 C   0  0  1  0  0  3  0  0  0  0  0  0
  184.3150  179.0010  141.2710 C   0  0  0  0  0  2  0  0  0  0  0  0
  189.6160  177.3390  141.0630 C   0  0  0  0  0  0  0  0  0  0  0  0
  186.7970  178.1230  139.0330 C   0  0  0  0  0  0  0  0  0  0  0  0
  190.2350  177.2810  136.8780 O   0  0  0  0  0  0  0  0  0  0  0  0
  186.9610  177.7190  142.7310 C   0  0  0  0  0  0  0  0  0  0  0  0
  189.4280  177.8570  134.6810 C   0  0  0  0  0  1  0  0  0  0  0  0
  184.8980  179.6720  138.9710 O   0  0  0  0  0  0  0  0  0  0  0  0
  181.5580  179.4150  140.1790 O   0  0  0  0  0  0  0  0  0  0  0  0
  185.3710  178.3710  138.6380 C   0  0  2  0  0  3  0  0  0  0  0  0
  188.0080  176.6510  142.7910 C   0  0  0  0  0  2  0  0  0  0  0  0
  183.4980  175.2620  137.0140 O   0  0  0  0  0  0  0  0  0  0  0  0
  182.8180  176.3130  137.1590 C   0  0  0  0  0  3  0  0  0  0  0  0
  184.9820  178.5010  144.0430 C   0  0  0  0  0  3  0  0  0  0  0  0
  186.3300  178.1100  144.0190 C   0  0  0  0  0  0  0  0  0  0  0  0
  187.0370  178.0510  145.2320 C   0  0  0  0  0  3  0  0  0  0  0  0
  187.1810  178.3350  147.7090 C   0  0  0  0  0  1  0  0  0  0  0  0
  185.0790  178.7940  146.4440 C   0  0  0  0  0  3  0  0  0  0  0  0
  186.4170  178.3960  146.4360 C   0  0  0  0  0  0  0  0  0  0  0  0
  184.3600  178.8450  145.2470 C   0  0  0  0  0  3  0  0  0  0  0  0
  2 17  1  0  0  0  0
  2 22  1  0  0  0  0
  3  7  1  0  0  0  0
  3 20  1  0  0  0  0
  4 12  1  0  0  0  0
  4  1  1  0  0  0  0
  5 10  1  0  0  0  0
  6  9  1  0  0  0  0
  6 11  2  0  0  0  0
  7 10  1  0  0  0  0
  8 18  1  0  0  0  0
  8 26  2  0  0  0  0
  9  3  2  0  0  0  0
 10 23  2  0  0  0  0
 11 16  1  0  0  0  0
 12  8  1  0  0  0  0
 13  9  1  0  0  0  0
 13 21  2  0  0  0  0
 14  2  1  0  0  0  0
 15 28  1  0  0  0  0
 16 20  2  0  0  0  0
 17 13  1  0  0  0  0
 18 19  1  1  0  0  0
 19  5  1  0  0  0  0
 20 15  1  0  0  0  0
 21  7  1  0  0  0  0
 22  6  1  0  0  0  0
 23 28  1  0  0  0  0
 23 32  1  0  0  0  0
 24  2  1  0  0  0  0
 25 18  1  0  0  0  0
 27  1  1  1  0  0  0
 27 25  1  0  0  0  0
 27 21  1  0  0  0  0
 29 30  2  0  0  0  0
 30  4  1  0  0  0  0
 31 37  1  0  0  0  0
 32 31  2  0  0  0  0
 32 33  1  0  0  0  0
 33 36  2  0  0  0  0
 36 35  1  0  0  0  0
 36 34  1  0  0  0  0
 37 35  2  0  0  0  0
M  END
>  <MODEL>
2

>  <REMARK>
 VINA RESULT:      -9.6      1.993      6.372
  Name = 
  1 active torsions:
  status: ('A' for Active; 'I' for Inactive)
    1  A    between atoms: C_23  and  C_30
                            x       y       z     vdW  Elec       q    Type
                         _______ _______ _______ _____ _____    ______ ____

>  <TORSDO>
F 1

$$$$
=
 OpenBabel11122411403D

 37 43  0  0  1  0  0  0  0  0999 V2000
  186.8670  175.9660  137.9180 C   0  0  0  0  0  2  0  0  0  0  0  0
  192.2790  176.4220  137.9060 C   0  0  0  0  0  0  0  0  0  0  0  0
  189.6360  177.5190  140.9260 C   0  0  0  0  0  0  0  0  0  0  0  0
  186.2340  175.7060  136.6260 N   0  0  0  0  0  0  0  0  0  0  0  0
  186.2920  178.8050  140.1400 O   0  0  0  0  0  0  0  0  0  0  0  0
  191.9290  177.1410  140.2630 C   0  0  0  0  0  0  0  0  0  0  0  0
  188.4210  177.6150  140.3170 N   0  0  0  0  0  0  0  0  0  0  0  0
  184.7920  177.6680  136.9130 C   0  0  0  0  0  0  0  0  0  0  0  0
  190.5920  177.2630  140.0000 C   0  0  0  0  0  0  0  0  0  0  0  0
  187.1700  178.0480  140.9110 C   0  0  0  0  0  0  0  0  0  0  0  0
  192.3480  177.2940  141.5950 C   0  0  0  0  0  3  0  0  0  0  0  0
  185.4280  176.7170  135.9430 C   0  0  0  0  0  2  0  0  0  0  0  0
  190.0360  177.1690  138.7840 C   0  0  0  0  0  0  0  0  0  0  0  0
  192.1940  174.9070  137.9220 C   0  0  0  0  0  1  0  0  0  0  0  0
  189.0040  177.8070  143.3730 C   0  0  0  0  0  2  0  0  0  0  0  0
  191.3780  177.5330  142.6030 C   0  0  0  0  0  3  0  0  0  0  0  0
  190.8740  176.9980  137.5520 C   0  0  0  0  0  2  0  0  0  0  0  0
  185.6280  178.4910  137.8590 C   0  0  1  0  0  3  0  0  0  0  0  0
  185.3280  178.1740  139.3180 C   0  0  0  0  0  2  0  0  0  0  0  0
  190.0020  177.6340  142.2810 C   0  0  0  0  0  0  0  0  0  0  0  0
  188.6800  177.4020  138.9810 C   0  0  0  0  0  0  0  0  0  0  0  0
  192.7850  176.8780  139.1850 O   0  0  0  0  0  0  0  0  0  0  0  0
  186.8480  177.7800  142.2010 C   0  0  0  0  0  0  0  0  0  0  0  0
  193.2550  176.8290  136.8220 C   0  0  0  0  0  1  0  0  0  0  0  0
  187.0130  178.4830  137.5440 O   0  0  0  0  0  0  0  0  0  0  0  0
  183.5770  177.7860  136.9210 O   0  0  0  0  0  0  0  0  0  0  0  0
  187.6800  177.2670  137.8710 C   0  0  2  0  0  3  0  0  0  0  0  0
  187.7670  176.9840  143.0740 C   0  0  0  0  0  2  0  0  0  0  0  0
  187.2000  173.5810  136.4610 O   0  0  0  0  0  0  0  0  0  0  0  0
  186.4790  174.4760  135.9450 C   0  0  0  0  0  3  0  0  0  0  0  0
  185.6350  178.8250  144.1220 C   0  0  0  0  0  3  0  0  0  0  0  0
  185.5960  178.2790  142.8290 C   0  0  0  0  0  0  0  0  0  0  0  0
  184.3720  178.2680  142.1390 C   0  0  0  0  0  3  0  0  0  0  0  0
  181.9250  178.7410  141.9950 C   0  0  0  0  0  1  0  0  0  0  0  0
  183.2630  179.2970  144.0270 C   0  0  0  0  0  3  0  0  0  0  0  0
  183.2120  178.7680  142.7350 C   0  0  0  0  0  0  0  0  0  0  0  0
  184.4760  179.3270  144.7200 C   0  0  0  0  0  3  0  0  0  0  0  0
  2 14  1  0  0  0  0
  2 22  1  0  0  0  0
  3 20  1  0  0  0  0
  4  1  1  0  0  0  0
  5 10  1  0  0  0  0
  6 11  2  0  0  0  0
  7 10  1  0  0  0  0
  7  3  1  0  0  0  0
  8 26  2  0  0  0  0
  8 18  1  0  0  0  0
  9  6  1  0  0  0  0
  9  3  2  0  0  0  0
 10 23  2  0  0  0  0
 11 16  1  0  0  0  0
 12  4  1  0  0  0  0
 12  8  1  0  0  0  0
 13 21  2  0  0  0  0
 13  9  1  0  0  0  0
 17  2  1  0  0  0  0
 17 13  1  0  0  0  0
 18 19  1  1  0  0  0
 19  5  1  0  0  0  0
 20 16  2  0  0  0  0
 20 15  1  0  0  0  0
 21  7  1  0  0  0  0
 22  6  1  0  0  0  0
 23 32  1  0  0  0  0
 23 28  1  0  0  0  0
 24  2  1  0  0  0  0
 25 18  1  0  0  0  0
 25 27  1  0  0  0  0
 27  1  1  1  0  0  0
 27 21  1  0  0  0  0
 28 15  1  0  0  0  0
 30 29  2  0  0  0  0
 30  4  1  0  0  0  0
 31 37  1  0  0  0  0
 32 31  2  0  0  0  0
 33 36  2  0  0  0  0
 33 32  1  0  0  0  0
 34 36  1  0  0  0  0
 35 37  2  0  0  0  0
 36 35  1  0  0  0  0
M  END
>  <MODEL>
3

>  <REMARK>
 VINA RESULT:      -8.7      2.296      4.536
  Name = 
  1 active torsions:
  status: ('A' for Active; 'I' for Inactive)
    1  A    between atoms: C_23  and  C_30
                            x       y       z     vdW  Elec       q    Type
                         _______ _______ _______ _____ _____    ______ ____

>  <TORSDO>
F 1

$$$$
=
 OpenBabel11122411403D

 37 43  0  0  1  0  0  0  0  0999 V2000
  184.6040  177.4330  141.2080 C   0  0  0  0  0  2  0  0  0  0  0  0
  187.3990  177.9330  136.5770 C   0  0  0  0  0  0  0  0  0  0  0  0
  188.9060  177.4820  140.4290 C   0  0  0  0  0  0  0  0  0  0  0  0
  183.1850  177.7830  141.1510 N   0  0  0  0  0  0  0  0  0  0  0  0
  187.1760  178.9310  143.3200 O   0  0  0  0  0  0  0  0  0  0  0  0
  189.3530  177.4880  138.0530 C   0  0  0  0  0  0  0  0  0  0  0  0
  187.8790  177.8260  141.2550 N   0  0  0  0  0  0  0  0  0  0  0  0
  183.4810  179.3720  142.9950 C   0  0  0  0  0  0  0  0  0  0  0  0
  188.5470  177.6950  139.1400 C   0  0  0  0  0  0  0  0  0  0  0  0
  187.9070  177.9190  142.7020 C   0  0  0  0  0  0  0  0  0  0  0  0
  190.6560  177.0210  138.2890 C   0  0  0  0  0  3  0  0  0  0  0  0
  182.6580  178.9810  141.8030 C   0  0  0  0  0  2  0  0  0  0  0  0
  187.2900  178.1580  139.0880 C   0  0  0  0  0  0  0  0  0  0  0  0
  186.7740  176.5780  136.3030 C   0  0  0  0  0  1  0  0  0  0  0  0
  190.6250  176.6080  142.0890 C   0  0  0  0  0  2  0  0  0  0  0  0
  191.0670  176.7560  139.6220 C   0  0  0  0  0  3  0  0  0  0  0  0
  186.6660  178.5830  137.7910 C   0  0  0  0  0  2  0  0  0  0  0  0
  184.9490  179.6850  142.8590 C   0  0  1  0  0  3  0  0  0  0  0  0
  185.8180  178.7300  143.6660 C   0  0  0  0  0  2  0  0  0  0  0  0
  190.1870  176.9710  140.7120 C   0  0  0  0  0  0  0  0  0  0  0  0
  186.8780  178.2530  140.4110 C   0  0  0  0  0  0  0  0  0  0  0  0
  188.8220  177.7610  136.7850 O   0  0  0  0  0  0  0  0  0  0  0  0
  188.6530  177.0850  143.4690 C   0  0  0  0  0  0  0  0  0  0  0  0
  187.1850  178.8060  135.3590 C   0  0  0  0  0  1  0  0  0  0  0  0
  185.3720  179.8440  141.5120 O   0  0  0  0  0  0  0  0  0  0  0  0
  182.9440  179.4540  144.0880 O   0  0  0  0  0  0  0  0  0  0  0  0
  185.4730  178.6250  140.7820 C   0  0  2  0  0  3  0  0  0  0  0  0
  189.4670  175.9930  142.8500 C   0  0  0  0  0  2  0  0  0  0  0  0
  182.6890  175.9850  139.7370 O   0  0  0  0  0  0  0  0  0  0  0  0
  182.2880  177.0050  140.3590 C   0  0  0  0  0  3  0  0  0  0  0  0
  189.9450  176.9620  145.6070 C   0  0  0  0  0  3  0  0  0  0  0  0
  188.7320  177.2220  144.9480 C   0  0  0  0  0  0  0  0  0  0  0  0
  187.6330  177.6570  145.7060 C   0  0  0  0  0  3  0  0  0  0  0  0
  186.5610  178.2590  147.8800 C   0  0  0  0  0  1  0  0  0  0  0  0
  188.9440  177.5320  147.7360 C   0  0  0  0  0  3  0  0  0  0  0  0
  187.7360  177.8060  147.0920 C   0  0  0  0  0  0  0  0  0  0  0  0
  190.0500  177.1120  146.9930 C   0  0  0  0  0  3  0  0  0  0  0  0
  2 22  1  0  0  0  0
  2 17  1  0  0  0  0
  3 20  1  0  0  0  0
  3  7  1  0  0  0  0
  4  1  1  0  0  0  0
  4 12  1  0  0  0  0
  5 19  1  0  0  0  0
  6 11  2  0  0  0  0
  6  9  1  0  0  0  0
  7 10  1  0  0  0  0
  8 26  2  0  0  0  0
  9  3  2  0  0  0  0
 10  5  1  0  0  0  0
 10 23  2  0  0  0  0
 11 16  1  0  0  0  0
 12  8  1  0  0  0  0
 13  9  1  0  0  0  0
 13 21  2  0  0  0  0
 14  2  1  0  0  0  0
 15 28  1  0  0  0  0
 16 20  2  0  0  0  0
 17 13  1  0  0  0  0
 18  8  1  0  0  0  0
 18 19  1  6  0  0  0
 20 15  1  0  0  0  0
 21 27  1  0  0  0  0
 21  7  1  0  0  0  0
 22  6  1  0  0  0  0
 23 32  1  0  0  0  0
 24  2  1  0  0  0  0
 25 18  1  0  0  0  0
 27  1  1  1  0  0  0
 27 25  1  0  0  0  0
 28 23  1  0  0  0  0
 29 30  2  0  0  0  0
 30  4  1  0  0  0  0
 31 37  1  0  0  0  0
 32 31  2  0  0  0  0
 32 33  1  0  0  0  0
 33 36  2  0  0  0  0
 36 35  1  0  0  0  0
 36 34  1  0  0  0  0
 37 35  2  0  0  0  0
M  END
>  <MODEL>
4

>  <REMARK>
 VINA RESULT:      -7.8      2.367      7.593
  Name = 
  1 active torsions:
  status: ('A' for Active; 'I' for Inactive)
    1  A    between atoms: C_23  and  C_30
                            x       y       z     vdW  Elec       q    Type
                         _______ _______ _______ _____ _____    ______ ____

>  <TORSDO>
F 1

$$$$
