=
 OpenBabel11122411263D

 37 42  0  0  1  0  0  0  0  0999 V2000
  187.9030  177.0900  136.1380 C   0  0  0  0  0  0  0  0  0  0  0  0
  191.3450  174.7210  137.0320 C   0  0  0  0  0  0  0  0  0  0  0  0
  193.5910  176.7270  137.1750 C   0  0  0  0  0  1  0  0  0  0  0  0
  189.5310  175.1800  135.5140 C   0  0  0  0  0  0  0  0  0  0  0  0
  191.8750  175.2540  138.3170 C   0  0  1  0  0  3  0  0  0  0  0  0
  190.1710  175.3410  136.7440 C   0  0  0  0  0  0  0  0  0  0  0  0
  193.3600  175.6490  138.2300 C   0  0  1  0  0  3  0  0  0  0  0  0
  190.0950  174.2800  134.5940 C   0  0  0  0  0  3  0  0  0  0  0  0
  189.8060  176.2720  137.8190 C   0  0  2  0  0  3  0  0  0  0  0  0
  186.9090  176.4320  137.0790 C   0  0  0  0  0  1  0  0  0  0  0  0
  193.3000  173.2370  136.3700 C   0  0  0  0  0  2  0  0  0  0  0  0
  191.2890  173.5990  134.9040 C   0  0  0  0  0  3  0  0  0  0  0  0
  189.2840  177.8530  137.0890 S   0  0  0  0  0  0  0  0  0  0  0  0
  191.9370  173.8220  136.1310 C   0  0  0  0  0  0  0  0  0  0  0  0
  191.0150  176.4120  138.6500 N   0  0  1  0  0  0  0  0  0  0  0  0
  188.3890  176.0670  135.0930 C   0  0  0  0  0  2  0  0  0  0  0  0
  194.2070  174.4730  137.9620 N   0  0  0  0  0  0  0  0  0  0  0  0
  187.1780  178.1960  135.4010 C   0  0  0  0  0  1  0  0  0  0  0  0
  193.6250  173.2600  137.7350 O   0  0  0  0  0  0  0  0  0  0  0  0
  191.3770  177.4180  140.9370 C   0  0  0  0  0  2  0  0  0  0  0  0
  191.2810  177.1100  142.4300 C   0  0  2  0  0  3  0  0  0  0  0  0
  188.7260  177.5830  142.3670 C   0  0  2  0  0  3  0  0  0  0  0  0
  189.8780  176.7060  142.8930 C   0  0  0  0  0  2  0  0  0  0  0  0
  188.5180  177.5840  140.9000 N   0  0  0  0  0  0  0  0  0  0  0  0
  189.0010  178.7250  140.3440 O   0  0  0  0  0  1  0  0  0  0  0  0
  189.0800  176.4120  140.2070 C   0  0  0  0  0  2  0  0  0  0  0  0
  188.7900  178.8790  142.8890 O   0  0  0  0  0  1  0  0  0  0  0  0
  190.6200  176.3940  140.0660 C   0  0  1  0  0  3  0  0  0  0  0  0
  191.7420  177.9610  144.6660 N   0  0  0  0  0  1  0  0  0  0  0  0
  191.8000  178.2790  143.2500 C   0  0  0  0  0  2  0  0  0  0  0  0
  196.4590  174.4200  136.9660 C   0  0  0  0  0  3  0  0  0  0  0  0
  195.6400  174.5450  138.0980 C   0  0  0  0  0  0  0  0  0  0  0  0
  196.2420  174.7220  139.3550 C   0  0  0  0  0  3  0  0  0  0  0  0
  198.2000  174.9520  140.6930 F   0  0  0  0  0  0  0  0  0  0  0  0
  198.4380  174.6580  138.3400 C   0  0  0  0  0  3  0  0  0  0  0  0
  197.6330  174.7800  139.4760 C   0  0  0  0  0  0  0  0  0  0  0  0
  197.8510  174.4780  137.0850 C   0  0  0  0  0  3  0  0  0  0  0  0
  1 10  1  0  0  0  0
  1 13  1  0  0  0  0
  4  6  2  0  0  0  0
  5  2  1  6  0  0  0
  5 15  1  0  0  0  0
  6  2  1  0  0  0  0
  7  3  1  6  0  0  0
  7  5  1  0  0  0  0
  8 12  2  0  0  0  0
  8  4  1  0  0  0  0
  9  6  1  6  0  0  0
  9 15  1  0  0  0  0
 11 19  1  0  0  0  0
 12 14  1  0  0  0  0
 13  9  1  0  0  0  0
 14 11  1  0  0  0  0
 14  2  2  0  0  0  0
 15 28  1  1  0  0  0
 16  4  1  0  0  0  0
 16  1  1  0  0  0  0
 17 32  1  0  0  0  0
 17  7  1  0  0  0  0
 18  1  1  0  0  0  0
 19 17  1  0  0  0  0
 20 21  1  0  0  0  0
 21 23  1  0  0  0  0
 21 30  1  1  0  0  0
 22 27  1  6  0  0  0
 22 23  1  0  0  0  0
 24 22  1  0  0  0  0
 25 24  1  0  0  0  0
 26 24  1  0  0  0  0
 28 26  1  6  0  0  0
 28 20  1  0  0  0  0
 30 29  1  0  0  0  0
 31 37  2  0  0  0  0
 31 32  1  0  0  0  0
 32 33  2  0  0  0  0
 33 36  1  0  0  0  0
 35 36  2  0  0  0  0
 36 34  1  0  0  0  0
 37 35  1  0  0  0  0
M  END
>  <MODEL>
1

>  <REMARK>
 VINA RESULT:      -6.3      0.000      0.000
  Name = 
  3 active torsions:
  status: ('A' for Active; 'I' for Inactive)
    1  A    between atoms: C_4  and  C_37
    2  A    between atoms: N_21  and  C_27
    3  A    between atoms: N_23  and  C_30
                            x       y       z     vdW  Elec       q    Type
                         _______ _______ _______ _____ _____    ______ ____

>  <TORSDO>
F 3

$$$$
=
 OpenBabel11122411263D

 37 42  0  0  1  0  0  0  0  0999 V2000
  180.1070  172.4940  136.1770 C   0  0  0  0  0  0  0  0  0  0  0  0
  184.1980  173.4400  136.9710 C   0  0  0  0  0  0  0  0  0  0  0  0
  184.8060  175.6930  135.0620 C   0  0  0  0  0  1  0  0  0  0  0  0
  182.5920  171.7850  136.2720 C   0  0  0  0  0  0  0  0  0  0  0  0
  184.2050  174.8710  137.3820 C   0  0  1  0  0  3  0  0  0  0  0  0
  182.9120  173.0260  136.8240 C   0  0  0  0  0  0  0  0  0  0  0  0
  185.1720  175.7260  136.5430 C   0  0  1  0  0  3  0  0  0  0  0  0
  183.6500  170.9220  135.9410 C   0  0  0  0  0  3  0  0  0  0  0  0
  181.9830  174.1080  137.1750 C   0  0  2  0  0  3  0  0  0  0  0  0
  179.6210  172.3180  137.6060 C   0  0  0  0  0  1  0  0  0  0  0  0
  186.6970  173.0910  136.6650 C   0  0  0  0  0  2  0  0  0  0  0  0
  184.9860  171.3270  136.1330 C   0  0  0  0  0  3  0  0  0  0  0  0
  180.6890  174.2200  135.9020 S   0  0  0  0  0  0  0  0  0  0  0  0
  185.2760  172.6040  136.6430 C   0  0  0  0  0  0  0  0  0  0  0  0
  182.8040  175.3290  137.2460 N   0  0  1  0  0  0  0  0  0  0  0  0
  181.1860  171.4400  135.8590 C   0  0  0  0  0  2  0  0  0  0  0  0
  186.5680  175.2970  136.7410 N   0  0  0  0  0  0  0  0  0  0  0  0
  178.9310  172.2460  135.2560 C   0  0  0  0  0  1  0  0  0  0  0  0
  186.8350  174.2020  137.5120 O   0  0  0  0  0  0  0  0  0  0  0  0
  183.4110  177.1750  138.8560 C   0  0  0  0  0  2  0  0  0  0  0  0
  183.1730  177.6750  140.2800 C   0  0  2  0  0  3  0  0  0  0  0  0
  180.9270  178.7460  139.5310 C   0  0  2  0  0  3  0  0  0  0  0  0
  181.7020  177.9570  140.6020 C   0  0  0  0  0  2  0  0  0  0  0  0
  180.7760  178.0900  138.2120 N   0  0  0  0  0  0  0  0  0  0  0  0
  181.6300  178.6290  137.3020 O   0  0  0  0  0  1  0  0  0  0  0  0
  180.9340  176.6260  138.2410 C   0  0  0  0  0  2  0  0  0  0  0  0
  181.4050  180.0560  139.4140 O   0  0  0  0  0  1  0  0  0  0  0  0
  182.3830  176.1140  138.4160 C   0  0  1  0  0  3  0  0  0  0  0  0
  184.8020  179.2540  139.3900 N   0  0  0  0  0  1  0  0  0  0  0  0
  184.0280  178.8980  140.5660 C   0  0  0  0  0  2  0  0  0  0  0  0
  188.4740  175.6490  135.2210 C   0  0  0  0  0  3  0  0  0  0  0  0
  187.6660  176.1050  136.2730 C   0  0  0  0  0  0  0  0  0  0  0  0
  187.9580  177.3450  136.8650 C   0  0  0  0  0  3  0  0  0  0  0  0
  189.3010  179.3090  136.9880 F   0  0  0  0  0  0  0  0  0  0  0  0
  189.8260  177.6520  135.3580 C   0  0  0  0  0  3  0  0  0  0  0  0
  189.0310  178.1150  136.4100 C   0  0  0  0  0  0  0  0  0  0  0  0
  189.5480  176.4180  134.7640 C   0  0  0  0  0  3  0  0  0  0  0  0
  1 10  1  0  0  0  0
  4  6  2  0  0  0  0
  5  2  1  6  0  0  0
  6  2  1  0  0  0  0
  6  9  1  0  0  0  0
  7  3  1  6  0  0  0
  7 17  1  0  0  0  0
  7  5  1  0  0  0  0
  8 12  2  0  0  0  0
  8  4  1  0  0  0  0
  9 13  1  6  0  0  0
  9 15  1  0  0  0  0
 11 19  1  0  0  0  0
 12 14  1  0  0  0  0
 13  1  1  0  0  0  0
 14 11  1  0  0  0  0
 14  2  2  0  0  0  0
 15  5  1  0  0  0  0
 15 28  1  1  0  0  0
 16  1  1  0  0  0  0
 16  4  1  0  0  0  0
 17 19  1  0  0  0  0
 18  1  1  0  0  0  0
 20 21  1  0  0  0  0
 21 30  1  6  0  0  0
 21 23  1  0  0  0  0
 22 27  1  6  0  0  0
 22 23  1  0  0  0  0
 24 26  1  0  0  0  0
 24 22  1  0  0  0  0
 25 24  1  0  0  0  0
 28 26  1  6  0  0  0
 28 20  1  0  0  0  0
 29 30  1  0  0  0  0
 31 32  1  0  0  0  0
 32 17  1  0  0  0  0
 32 33  2  0  0  0  0
 35 36  2  0  0  0  0
 36 33  1  0  0  0  0
 36 34  1  0  0  0  0
 37 31  2  0  0  0  0
 37 35  1  0  0  0  0
M  END
>  <MODEL>
2

>  <REMARK>
 VINA RESULT:      -5.9      5.963      8.384
  Name = 
  3 active torsions:
  status: ('A' for Active; 'I' for Inactive)
    1  A    between atoms: C_4  and  C_37
    2  A    between atoms: N_21  and  C_27
    3  A    between atoms: N_23  and  C_30
                            x       y       z     vdW  Elec       q    Type
                         _______ _______ _______ _____ _____    ______ ____

>  <TORSDO>
F 3

$$$$
=
 OpenBabel11122411263D

 37 42  0  0  1  0  0  0  0  0999 V2000
  181.9050  177.7900  139.9300 C   0  0  0  0  0  0  0  0  0  0  0  0
  184.6710  178.9120  142.9870 C   0  0  0  0  0  0  0  0  0  0  0  0
  186.1760  176.3660  143.5750 C   0  0  0  0  0  1  0  0  0  0  0  0
  182.3700  178.7170  142.2990 C   0  0  0  0  0  0  0  0  0  0  0  0
  186.0210  178.6220  142.4320 C   0  0  1  0  0  3  0  0  0  0  0  0
  183.7380  178.7010  142.0230 C   0  0  0  0  0  0  0  0  0  0  0  0
  186.8590  177.7120  143.3470 C   0  0  1  0  0  3  0  0  0  0  0  0
  181.9690  179.0440  143.6050 C   0  0  0  0  0  3  0  0  0  0  0  0
  184.3850  178.3190  140.7600 C   0  0  2  0  0  3  0  0  0  0  0  0
  182.0400  179.0050  139.0280 C   0  0  0  0  0  1  0  0  0  0  0  0
  185.3110  179.3320  145.4110 C   0  0  0  0  0  2  0  0  0  0  0  0
  182.9310  179.3090  144.6010 C   0  0  0  0  0  3  0  0  0  0  0  0
  183.5090  176.8930  140.0480 S   0  0  0  0  0  0  0  0  0  0  0  0
  184.3020  179.2340  144.3030 C   0  0  0  0  0  0  0  0  0  0  0  0
  185.7800  178.0010  141.1090 N   0  0  1  0  0  0  0  0  0  0  0  0
  181.3550  178.2190  141.3050 C   0  0  0  0  0  2  0  0  0  0  0  0
  187.1440  178.3720  144.6340 N   0  0  0  0  0  0  0  0  0  0  0  0
  180.8940  176.8560  139.2980 C   0  0  0  0  0  1  0  0  0  0  0  0
  186.5930  179.5910  144.9040 O   0  0  0  0  0  0  0  0  0  0  0  0
  187.9910  177.8020  139.9080 C   0  0  0  0  0  2  0  0  0  0  0  0
  189.0560  178.6170  139.1760 C   0  0  2  0  0  3  0  0  0  0  0  0
  187.6100  178.5710  137.0170 C   0  0  2  0  0  3  0  0  0  0  0  0
  188.5270  179.3780  137.9560 C   0  0  0  0  0  2  0  0  0  0  0  0
  186.3310  178.0980  137.5940 N   0  0  0  0  0  0  0  0  0  0  0  0
  186.3930  176.7720  137.8860 O   0  0  0  0  0  1  0  0  0  0  0  0
  185.8840  178.8510  138.7780 C   0  0  0  0  0  2  0  0  0  0  0  0
  188.3100  177.5430  136.3780 O   0  0  0  0  0  1  0  0  0  0  0  0
  186.6660  178.5700  140.0830 C   0  0  1  0  0  3  0  0  0  0  0  0
  190.1770  176.4820  139.5210 N   0  0  0  0  0  1  0  0  0  0  0  0
  190.2310  177.7360  138.7900 C   0  0  0  0  0  2  0  0  0  0  0  0
  187.7530  177.5020  146.8570 C   0  0  0  0  0  3  0  0  0  0  0  0
  188.1230  177.8320  145.5440 C   0  0  0  0  0  0  0  0  0  0  0  0
  189.4570  177.6430  145.1470 C   0  0  0  0  0  3  0  0  0  0  0  0
  191.6810  176.9500  145.6440 F   0  0  0  0  0  0  0  0  0  0  0  0
  190.0180  176.8000  147.3440 C   0  0  0  0  0  3  0  0  0  0  0  0
  190.3990  177.1290  146.0410 C   0  0  0  0  0  0  0  0  0  0  0  0
  188.6950  176.9870  147.7530 C   0  0  0  0  0  3  0  0  0  0  0  0
  1 13  1  0  0  0  0
  1 16  1  0  0  0  0
  2 14  1  0  0  0  0
  4  8  2  0  0  0  0
  5  2  1  1  0  0  0
  5  7  1  0  0  0  0
  6  4  1  0  0  0  0
  6  2  2  0  0  0  0
  7  3  1  1  0  0  0
  7 17  1  0  0  0  0
  8 12  1  0  0  0  0
  9 13  1  1  0  0  0
  9 15  1  0  0  0  0
  9  6  1  0  0  0  0
 10  1  1  0  0  0  0
 14 12  2  0  0  0  0
 14 11  1  0  0  0  0
 15 28  1  6  0  0  0
 15  5  1  0  0  0  0
 16  4  1  0  0  0  0
 17 19  1  0  0  0  0
 17 32  1  0  0  0  0
 18  1  1  0  0  0  0
 19 11  1  0  0  0  0
 20 28  1  0  0  0  0
 21 30  1  6  0  0  0
 21 20  1  0  0  0  0
 22 27  1  1  0  0  0
 22 24  1  0  0  0  0
 22 23  1  0  0  0  0
 23 21  1  0  0  0  0
 24 25  1  0  0  0  0
 24 26  1  0  0  0  0
 28 26  1  6  0  0  0
 30 29  1  0  0  0  0
 31 37  1  0  0  0  0
 32 31  2  0  0  0  0
 33 32  1  0  0  0  0
 33 36  2  0  0  0  0
 34 36  1  0  0  0  0
 35 37  2  0  0  0  0
 36 35  1  0  0  0  0
M  END
>  <MODEL>
3

>  <REMARK>
 VINA RESULT:      -5.8      4.829      9.033
  Name = 
  3 active torsions:
  status: ('A' for Active; 'I' for Inactive)
    1  A    between atoms: C_4  and  C_37
    2  A    between atoms: N_21  and  C_27
    3  A    between atoms: N_23  and  C_30
                            x       y       z     vdW  Elec       q    Type
                         _______ _______ _______ _____ _____    ______ ____

>  <TORSDO>
F 3

$$$$
=
 OpenBabel11122411263D

 37 42  0  0  1  0  0  0  0  0999 V2000
  180.4620  182.2760  137.6730 C   0  0  0  0  0  0  0  0  0  0  0  0
  181.3950  178.1640  136.9770 C   0  0  0  0  0  0  0  0  0  0  0  0
  184.2990  177.9360  137.7570 C   0  0  0  0  0  1  0  0  0  0  0  0
  180.6450  180.2620  136.0600 C   0  0  0  0  0  0  0  0  0  0  0  0
  181.8410  177.6270  138.2920 C   0  0  1  0  0  3  0  0  0  0  0  0
  180.9570  179.4390  137.1430 C   0  0  0  0  0  0  0  0  0  0  0  0
  183.2250  176.9570  138.2220 C   0  0  1  0  0  3  0  0  0  0  0  0
  180.7170  179.7060  134.7720 C   0  0  0  0  0  3  0  0  0  0  0  0
  181.0210  179.8220  138.5600 C   0  0  2  0  0  3  0  0  0  0  0  0
  179.0970  182.1050  138.3180 C   0  0  0  0  0  1  0  0  0  0  0  0
  182.0970  176.2280  135.4870 C   0  0  0  0  0  2  0  0  0  0  0  0
  181.1270  178.3700  134.5940 C   0  0  0  0  0  3  0  0  0  0  0  0
  181.7650  181.4750  138.6990 S   0  0  0  0  0  0  0  0  0  0  0  0
  181.4840  177.5820  135.7030 C   0  0  0  0  0  0  0  0  0  0  0  0
  181.8360  178.7850  139.2150 N   0  0  1  0  0  0  0  0  0  0  0  0
  180.4260  181.7430  136.2270 C   0  0  0  0  0  2  0  0  0  0  0  0
  183.1950  175.7690  137.3500 N   0  0  0  0  0  0  0  0  0  0  0  0
  180.7610  183.7590  137.6120 C   0  0  0  0  0  1  0  0  0  0  0  0
  182.0560  175.4640  136.6630 O   0  0  0  0  0  0  0  0  0  0  0  0
  181.9780  178.9810  141.7270 C   0  0  0  0  0  2  0  0  0  0  0  0
  181.5870  178.2780  143.0260 C   0  0  2  0  0  3  0  0  0  0  0  0
  179.1930  179.2740  142.8480 C   0  0  2  0  0  3  0  0  0  0  0  0
  180.0780  178.0610  143.1860 C   0  0  0  0  0  2  0  0  0  0  0  0
  179.2330  179.7470  141.4450 N   0  0  0  0  0  0  0  0  0  0  0  0
  179.9860  180.8730  141.3340 O   0  0  0  0  0  1  0  0  0  0  0  0
  179.6980  178.7370  140.4770 C   0  0  0  0  0  2  0  0  0  0  0  0
  179.3860  180.3180  143.7580 O   0  0  0  0  0  1  0  0  0  0  0  0
  181.2150  178.4380  140.5020 C   0  0  1  0  0  3  0  0  0  0  0  0
  183.5650  178.7260  144.3760 N   0  0  0  0  0  1  0  0  0  0  0  0
  182.1510  179.0210  144.2250 C   0  0  0  0  0  2  0  0  0  0  0  0
  184.0450  173.4630  137.5170 C   0  0  0  0  0  3  0  0  0  0  0  0
  184.2910  174.8320  137.3350 C   0  0  0  0  0  0  0  0  0  0  0  0
  185.6140  175.2660  137.1560 C   0  0  0  0  0  3  0  0  0  0  0  0
  187.9410  174.7810  136.9780 F   0  0  0  0  0  0  0  0  0  0  0  0
  186.4110  172.9880  137.3320 C   0  0  0  0  0  3  0  0  0  0  0  0
  186.6690  174.3490  137.1530 C   0  0  0  0  0  0  0  0  0  0  0  0
  185.0990  172.5440  137.5150 C   0  0  0  0  0  3  0  0  0  0  0  0
  1 10  1  0  0  0  0
  1 13  1  0  0  0  0
  2  6  1  0  0  0  0
  4 16  1  0  0  0  0
  4  6  2  0  0  0  0
  5  2  1  6  0  0  0
  5 15  1  0  0  0  0
  7  3  1  6  0  0  0
  7  5  1  0  0  0  0
  8  4  1  0  0  0  0
  9  6  1  6  0  0  0
  9 13  1  0  0  0  0
  9 15  1  0  0  0  0
 11 14  1  0  0  0  0
 11 19  1  0  0  0  0
 12  8  2  0  0  0  0
 12 14  1  0  0  0  0
 14  2  2  0  0  0  0
 15 28  1  1  0  0  0
 16  1  1  0  0  0  0
 17  7  1  0  0  0  0
 18  1  1  0  0  0  0
 19 17  1  0  0  0  0
 20 21  1  0  0  0  0
 21 23  1  0  0  0  0
 21 30  1  1  0  0  0
 22 23  1  0  0  0  0
 22 27  1  1  0  0  0
 24 22  1  0  0  0  0
 25 24  1  0  0  0  0
 26 24  1  0  0  0  0
 28 26  1  6  0  0  0
 28 20  1  0  0  0  0
 30 29  1  0  0  0  0
 32 17  1  0  0  0  0
 32 31  2  0  0  0  0
 33 32  1  0  0  0  0
 34 36  1  0  0  0  0
 35 37  2  0  0  0  0
 36 33  2  0  0  0  0
 36 35  1  0  0  0  0
 37 31  1  0  0  0  0
M  END
>  <MODEL>
4

>  <REMARK>
 VINA RESULT:      -5.7      7.554     10.330
  Name = 
  3 active torsions:
  status: ('A' for Active; 'I' for Inactive)
    1  A    between atoms: C_4  and  C_37
    2  A    between atoms: N_21  and  C_27
    3  A    between atoms: N_23  and  C_30
                            x       y       z     vdW  Elec       q    Type
                         _______ _______ _______ _____ _____    ______ ____

>  <TORSDO>
F 3

$$$$
=
 OpenBabel11122411263D

 37 42  0  0  1  0  0  0  0  0999 V2000
  188.4520  177.9190  137.0300 C   0  0  0  0  0  0  0  0  0  0  0  0
  185.1610  178.0490  139.7530 C   0  0  0  0  0  0  0  0  0  0  0  0
  183.4540  180.3110  138.7220 C   0  0  0  0  0  1  0  0  0  0  0  0
  187.5440  178.2120  139.4340 C   0  0  0  0  0  0  0  0  0  0  0  0
  183.9450  177.8330  138.9220 C   0  0  1  0  0  3  0  0  0  0  0  0
  186.2650  177.8940  138.9760 C   0  0  0  0  0  0  0  0  0  0  0  0
  182.8950  178.9430  139.1040 C   0  0  1  0  0  3  0  0  0  0  0  0
  187.6780  178.6260  140.7700 C   0  0  0  0  0  3  0  0  0  0  0  0
  185.8790  177.5130  137.6110 C   0  0  2  0  0  3  0  0  0  0  0  0
  188.5620  176.4130  136.8610 C   0  0  0  0  0  1  0  0  0  0  0  0
  184.0490  178.7810  141.9190 C   0  0  0  0  0  2  0  0  0  0  0  0
  186.5430  178.7470  141.5960 C   0  0  0  0  0  3  0  0  0  0  0  0
  186.8190  178.5170  136.4220 S   0  0  0  0  0  0  0  0  0  0  0  0
  185.2620  178.4680  141.0890 C   0  0  0  0  0  0  0  0  0  0  0  0
  184.4290  177.7560  137.5250 N   0  0  1  0  0  0  0  0  0  0  0  0
  188.7210  178.3000  138.4990 C   0  0  0  0  0  2  0  0  0  0  0  0
  182.3780  178.9630  140.4840 N   0  0  0  0  0  0  0  0  0  0  0  0
  189.5290  178.5580  136.1800 C   0  0  0  0  0  1  0  0  0  0  0  0
  182.9140  178.1250  141.4180 O   0  0  0  0  0  0  0  0  0  0  0  0
  184.3700  175.2550  137.1870 C   0  0  0  0  0  2  0  0  0  0  0  0
  184.0350  174.1740  136.1610 C   0  0  2  0  0  3  0  0  0  0  0  0
  181.5140  174.3910  136.7510 C   0  0  2  0  0  3  0  0  0  0  0  0
  182.5880  174.2180  135.6610 C   0  0  0  0  0  2  0  0  0  0  0  0
  181.5550  175.6560  137.5190 N   0  0  0  0  0  0  0  0  0  0  0  0
  182.0880  175.4570  138.7530 O   0  0  0  0  0  1  0  0  0  0  0  0
  182.2620  176.7560  136.8400 C   0  0  0  0  0  2  0  0  0  0  0  0
  181.4480  173.2710  137.5880 O   0  0  0  0  0  1  0  0  0  0  0  0
  183.8040  176.6370  136.8050 C   0  0  1  0  0  3  0  0  0  0  0  0
  185.0910  172.9200  137.9630 N   0  0  0  0  0  1  0  0  0  0  0  0
  184.3720  172.7970  136.7070 C   0  0  0  0  0  2  0  0  0  0  0  0
  180.5670  180.5080  139.8490 C   0  0  0  0  0  3  0  0  0  0  0  0
  181.2070  179.7320  140.8270 C   0  0  0  0  0  0  0  0  0  0  0  0
  180.6980  179.7340  142.1360 C   0  0  0  0  0  3  0  0  0  0  0  0
  179.0870  180.4820  143.7240 F   0  0  0  0  0  0  0  0  0  0  0  0
  178.9380  181.2560  141.4750 C   0  0  0  0  0  3  0  0  0  0  0  0
  179.5690  180.4900  142.4580 C   0  0  0  0  0  0  0  0  0  0  0  0
  179.4370  181.2660  140.1700 C   0  0  0  0  0  3  0  0  0  0  0  0
  1 16  1  0  0  0  0
  2 14  1  0  0  0  0
  4  8  2  0  0  0  0
  5  7  1  0  0  0  0
  5  2  1  1  0  0  0
  6  4  1  0  0  0  0
  6  2  2  0  0  0  0
  7  3  1  1  0  0  0
  7 17  1  0  0  0  0
  8 12  1  0  0  0  0
  9 13  1  6  0  0  0
  9  6  1  0  0  0  0
 10  1  1  0  0  0  0
 13  1  1  0  0  0  0
 14 12  2  0  0  0  0
 14 11  1  0  0  0  0
 15 28  1  6  0  0  0
 15  9  1  0  0  0  0
 15  5  1  0  0  0  0
 16  4  1  0  0  0  0
 17 32  1  0  0  0  0
 17 19  1  0  0  0  0
 18  1  1  0  0  0  0
 19 11  1  0  0  0  0
 21 30  1  1  0  0  0
 21 20  1  0  0  0  0
 22 24  1  0  0  0  0
 22 27  1  1  0  0  0
 23 21  1  0  0  0  0
 23 22  1  0  0  0  0
 24 25  1  0  0  0  0
 26 24  1  0  0  0  0
 28 26  1  1  0  0  0
 28 20  1  0  0  0  0
 30 29  1  0  0  0  0
 31 37  2  0  0  0  0
 31 32  1  0  0  0  0
 32 33  2  0  0  0  0
 33 36  1  0  0  0  0
 35 36  2  0  0  0  0
 36 34  1  0  0  0  0
 37 35  1  0  0  0  0
M  END
>  <MODEL>
5

>  <REMARK>
 VINA RESULT:      -5.3      6.621     11.171
  Name = 
  3 active torsions:
  status: ('A' for Active; 'I' for Inactive)
    1  A    between atoms: C_4  and  C_37
    2  A    between atoms: N_21  and  C_27
    3  A    between atoms: N_23  and  C_30
                            x       y       z     vdW  Elec       q    Type
                         _______ _______ _______ _____ _____    ______ ____

>  <TORSDO>
F 3

$$$$
=
 OpenBabel11122411263D

 37 42  0  0  1  0  0  0  0  0999 V2000
  184.6350  176.8250  136.8350 C   0  0  0  0  0  0  0  0  0  0  0  0
  188.4790  175.0060  137.2530 C   0  0  0  0  0  0  0  0  0  0  0  0
  190.2820  176.7200  135.5500 C   0  0  0  0  0  1  0  0  0  0  0  0
  186.1820  174.7710  136.5630 C   0  0  0  0  0  0  0  0  0  0  0  0
  189.3620  176.0630  137.8170 C   0  0  1  0  0  3  0  0  0  0  0  0
  187.2030  175.4700  137.2100 C   0  0  0  0  0  0  0  0  0  0  0  0
  190.6290  176.2930  136.9740 C   0  0  1  0  0  3  0  0  0  0  0  0
  186.4920  173.5130  136.0180 C   0  0  0  0  0  3  0  0  0  0  0  0
  187.1290  176.8200  137.7840 C   0  0  2  0  0  3  0  0  0  0  0  0
  184.1760  176.7490  138.2820 C   0  0  0  0  0  1  0  0  0  0  0  0
  190.2460  173.2910  136.6240 C   0  0  0  0  0  2  0  0  0  0  0  0
  187.8040  173.0050  136.0990 C   0  0  0  0  0  3  0  0  0  0  0  0
  186.1370  177.8810  136.6900 S   0  0  0  0  0  0  0  0  0  0  0  0
  188.8210  173.7570  136.7110 C   0  0  0  0  0  0  0  0  0  0  0  0
  188.5230  177.2800  137.8960 N   0  0  1  0  0  0  0  0  0  0  0  0
  184.8450  175.4030  136.2790 C   0  0  0  0  0  2  0  0  0  0  0  0
  191.4830  175.0930  136.9600 N   0  0  0  0  0  0  0  0  0  0  0  0
  183.5270  177.4760  136.0340 C   0  0  0  0  0  1  0  0  0  0  0  0
  191.0500  173.9490  137.5670 O   0  0  0  0  0  0  0  0  0  0  0  0
  187.6950  177.5080  140.2690 C   0  0  0  0  0  2  0  0  0  0  0  0
  187.5950  178.4920  141.4340 C   0  0  2  0  0  3  0  0  0  0  0  0
  190.0540  177.9670  142.0920 C   0  0  2  0  0  3  0  0  0  0  0  0
  188.9490  179.0250  141.9160 C   0  0  0  0  0  2  0  0  0  0  0  0
  190.4840  177.2550  140.8660 N   0  0  0  0  0  0  0  0  0  0  0  0
  189.9600  176.0030  140.8240 O   0  0  0  0  0  1  0  0  0  0  0  0
  190.1810  177.9670  139.6130 C   0  0  0  0  0  2  0  0  0  0  0  0
  189.7560  177.0830  143.1340 O   0  0  0  0  0  1  0  0  0  0  0  0
  188.6940  177.9640  139.1860 C   0  0  1  0  0  3  0  0  0  0  0  0
  185.4780  178.4310  142.6380 N   0  0  0  0  0  1  0  0  0  0  0  0
  186.8200  177.8770  142.5870 C   0  0  0  0  0  2  0  0  0  0  0  0
  193.5590  173.9640  136.2650 C   0  0  0  0  0  3  0  0  0  0  0  0
  192.8340  175.1490  136.4620 C   0  0  0  0  0  0  0  0  0  0  0  0
  193.4540  176.3780  136.1810 C   0  0  0  0  0  3  0  0  0  0  0  0
  195.3520  177.6120  135.4400 F   0  0  0  0  0  0  0  0  0  0  0  0
  195.4780  175.2330  135.5130 C   0  0  0  0  0  3  0  0  0  0  0  0
  194.7680  176.4200  135.7080 C   0  0  0  0  0  0  0  0  0  0  0  0
  194.8740  174.0040  135.7920 C   0  0  0  0  0  3  0  0  0  0  0  0
  1 10  1  0  0  0  0
  4  6  2  0  0  0  0
  5  2  1  6  0  0  0
  5 15  1  0  0  0  0
  6  2  1  0  0  0  0
  6  9  1  0  0  0  0
  7  3  1  6  0  0  0
  7  5  1  0  0  0  0
  8 12  2  0  0  0  0
  8  4  1  0  0  0  0
  9 13  1  6  0  0  0
  9 15  1  0  0  0  0
 11 14  1  0  0  0  0
 11 19  1  0  0  0  0
 12 14  1  0  0  0  0
 13  1  1  0  0  0  0
 14  2  2  0  0  0  0
 15 28  1  1  0  0  0
 16  4  1  0  0  0  0
 16  1  1  0  0  0  0
 17  7  1  0  0  0  0
 17 19  1  0  0  0  0
 18  1  1  0  0  0  0
 20 21  1  0  0  0  0
 21 23  1  0  0  0  0
 21 30  1  1  0  0  0
 22 27  1  1  0  0  0
 23 22  1  0  0  0  0
 24 22  1  0  0  0  0
 25 24  1  0  0  0  0
 26 24  1  0  0  0  0
 28 26  1  1  0  0  0
 28 20  1  0  0  0  0
 30 29  1  0  0  0  0
 31 32  1  0  0  0  0
 32 17  1  0  0  0  0
 33 32  2  0  0  0  0
 34 36  1  0  0  0  0
 35 36  2  0  0  0  0
 35 37  1  0  0  0  0
 36 33  1  0  0  0  0
 37 31  2  0  0  0  0
M  END
>  <MODEL>
6

>  <REMARK>
 VINA RESULT:      -5.3      2.564      3.571
  Name = 
  3 active torsions:
  status: ('A' for Active; 'I' for Inactive)
    1  A    between atoms: C_4  and  C_37
    2  A    between atoms: N_21  and  C_27
    3  A    between atoms: N_23  and  C_30
                            x       y       z     vdW  Elec       q    Type
                         _______ _______ _______ _____ _____    ______ ____

>  <TORSDO>
F 3

$$$$
=
 OpenBabel11122411263D

 37 42  0  0  1  0  0  0  0  0999 V2000
  185.2690  178.6710  143.7640 C   0  0  0  0  0  0  0  0  0  0  0  0
  182.4010  178.6050  140.5970 C   0  0  0  0  0  0  0  0  0  0  0  0
  182.9600  181.1360  139.0570 C   0  0  0  0  0  1  0  0  0  0  0  0
  182.8070  178.6280  142.9720 C   0  0  0  0  0  0  0  0  0  0  0  0
  183.1940  178.6290  139.3370 C   0  0  1  0  0  3  0  0  0  0  0  0
  183.2470  178.4950  141.6540 C   0  0  0  0  0  0  0  0  0  0  0  0
  182.7800  179.7730  138.3950 C   0  0  1  0  0  3  0  0  0  0  0  0
  181.4300  178.8000  143.1890 C   0  0  0  0  0  3  0  0  0  0  0  0
  184.6350  178.3800  141.1880 C   0  0  2  0  0  3  0  0  0  0  0  0
  185.6880  177.2110  143.7370 C   0  0  0  0  0  1  0  0  0  0  0  0
  180.0920  179.0480  139.6310 C   0  0  0  0  0  2  0  0  0  0  0  0
  180.5390  178.8700  142.0990 C   0  0  0  0  0  3  0  0  0  0  0  0
  185.6880  179.4920  142.1690 S   0  0  0  0  0  0  0  0  0  0  0  0
  181.0210  178.7840  140.7810 C   0  0  0  0  0  0  0  0  0  0  0  0
  184.6080  178.7490  139.7630 N   0  0  1  0  0  0  0  0  0  0  0  0
  183.7720  178.7780  144.1180 C   0  0  0  0  0  2  0  0  0  0  0  0
  181.3920  179.6020  137.9310 N   0  0  0  0  0  0  0  0  0  0  0  0
  186.0540  179.3570  144.8620 C   0  0  0  0  0  1  0  0  0  0  0  0
  180.6360  178.5790  138.4260 O   0  0  0  0  0  0  0  0  0  0  0  0
  184.9660  177.5090  137.5930 C   0  0  0  0  0  2  0  0  0  0  0  0
  185.6050  176.2550  137.0000 C   0  0  2  0  0  3  0  0  0  0  0  0
  187.9170  177.4410  136.9780 C   0  0  2  0  0  3  0  0  0  0  0  0
  187.1150  176.1530  137.2410 C   0  0  0  0  0  2  0  0  0  0  0  0
  187.6010  178.6010  137.8420 N   0  0  0  0  0  0  0  0  0  0  0  0
  186.8430  179.5100  137.1750 O   0  0  0  0  0  1  0  0  0  0  0  0
  186.9530  178.2490  139.1180 C   0  0  0  0  0  2  0  0  0  0  0  0
  187.9100  177.7810  135.6210 O   0  0  0  0  0  1  0  0  0  0  0  0
  185.4700  177.8210  139.0170 C   0  0  1  0  0  3  0  0  0  0  0  0
  184.1840  177.0220  135.1760 N   0  0  0  0  0  1  0  0  0  0  0  0
  185.2900  176.1450  135.5180 C   0  0  0  0  0  2  0  0  0  0  0  0
  180.4560  179.7690  135.6590 C   0  0  0  0  0  3  0  0  0  0  0  0
  180.8700  180.3930  136.8450 C   0  0  0  0  0  0  0  0  0  0  0  0
  180.7810  181.7910  136.9430 C   0  0  0  0  0  3  0  0  0  0  0  0
  180.2000  183.8960  135.9880 F   0  0  0  0  0  0  0  0  0  0  0  0
  179.8690  181.9150  134.7050 C   0  0  0  0  0  3  0  0  0  0  0  0
  180.2820  182.5490  135.8800 C   0  0  0  0  0  0  0  0  0  0  0  0
  179.9570  180.5250  134.5940 C   0  0  0  0  0  3  0  0  0  0  0  0
  1 16  1  0  0  0  0
  1 18  1  0  0  0  0
  2 14  2  0  0  0  0
  2  6  1  0  0  0  0
  4  8  1  0  0  0  0
  4 16  1  0  0  0  0
  5 15  1  0  0  0  0
  5  2  1  1  0  0  0
  6  4  2  0  0  0  0
  7  3  1  1  0  0  0
  7  5  1  0  0  0  0
  9  6  1  1  0  0  0
  9 13  1  0  0  0  0
 10  1  1  0  0  0  0
 11 14  1  0  0  0  0
 12  8  2  0  0  0  0
 13  1  1  0  0  0  0
 14 12  1  0  0  0  0
 15 28  1  6  0  0  0
 15  9  1  0  0  0  0
 17  7  1  0  0  0  0
 17 19  1  0  0  0  0
 19 11  1  0  0  0  0
 21 30  1  6  0  0  0
 21 23  1  0  0  0  0
 21 20  1  0  0  0  0
 22 27  1  6  0  0  0
 22 23  1  0  0  0  0
 22 24  1  0  0  0  0
 24 26  1  0  0  0  0
 25 24  1  0  0  0  0
 28 20  1  6  0  0  0
 28 26  1  0  0  0  0
 29 30  1  0  0  0  0
 31 32  1  0  0  0  0
 32 33  2  0  0  0  0
 32 17  1  0  0  0  0
 35 36  2  0  0  0  0
 36 34  1  0  0  0  0
 36 33  1  0  0  0  0
 37 35  1  0  0  0  0
 37 31  2  0  0  0  0
M  END
>  <MODEL>
7

>  <REMARK>
 VINA RESULT:      -5.2      6.812     11.865
  Name = 
  3 active torsions:
  status: ('A' for Active; 'I' for Inactive)
    1  A    between atoms: C_4  and  C_37
    2  A    between atoms: N_21  and  C_27
    3  A    between atoms: N_23  and  C_30
                            x       y       z     vdW  Elec       q    Type
                         _______ _______ _______ _____ _____    ______ ____

>  <TORSDO>
F 3

$$$$
=
 OpenBabel11122411263D

 37 42  0  0  1  0  0  0  0  0999 V2000
  185.7840  172.5490  135.6880 C   0  0  0  0  0  0  0  0  0  0  0  0
  183.3130  176.0180  136.0360 C   0  0  0  0  0  0  0  0  0  0  0  0
  182.9600  176.3630  139.0110 C   0  0  0  0  0  1  0  0  0  0  0  0
  183.5610  173.7750  135.1930 C   0  0  0  0  0  0  0  0  0  0  0  0
  184.1020  176.9930  136.8380 C   0  0  1  0  0  3  0  0  0  0  0  0
  184.0840  174.9320  135.7720 C   0  0  0  0  0  0  0  0  0  0  0  0
  183.3380  177.5050  138.0720 C   0  0  1  0  0  3  0  0  0  0  0  0
  182.2100  173.7880  134.8060 C   0  0  0  0  0  3  0  0  0  0  0  0
  185.4360  175.1190  136.3150 C   0  0  2  0  0  3  0  0  0  0  0  0
  186.7200  173.0320  134.5940 C   0  0  0  0  0  1  0  0  0  0  0  0
  181.0580  177.1900  136.0760 C   0  0  0  0  0  2  0  0  0  0  0  0
  181.4150  174.9290  135.0360 C   0  0  0  0  0  3  0  0  0  0  0  0
  185.9450  173.6070  137.1870 S   0  0  0  0  0  0  0  0  0  0  0  0
  181.9590  176.0600  135.6680 C   0  0  0  0  0  0  0  0  0  0  0  0
  185.3440  176.2810  137.2160 N   0  0  1  0  0  0  0  0  0  0  0  0
  184.3410  172.4870  135.1510 C   0  0  0  0  0  2  0  0  0  0  0  0
  182.1400  178.2660  137.6750 N   0  0  0  0  0  0  0  0  0  0  0  0
  186.1990  171.1420  136.0630 C   0  0  0  0  0  1  0  0  0  0  0  0
  181.7980  178.3480  136.3560 O   0  0  0  0  0  0  0  0  0  0  0  0
  187.3340  177.3880  138.3050 C   0  0  0  0  0  2  0  0  0  0  0  0
  188.2810  178.5810  138.1820 C   0  0  2  0  0  3  0  0  0  0  0  0
  189.6720  177.2940  136.4030 C   0  0  2  0  0  3  0  0  0  0  0  0
  189.0520  178.6280  136.8580 C   0  0  0  0  0  2  0  0  0  0  0  0
  188.7250  176.1960  136.1050 N   0  0  0  0  0  0  0  0  0  0  0  0
  188.7020  175.2880  137.1150 O   0  0  0  0  0  1  0  0  0  0  0  0
  187.3540  176.6420  135.8030 C   0  0  0  0  0  2  0  0  0  0  0  0
  190.6950  176.8850  137.2660 O   0  0  0  0  0  1  0  0  0  0  0  0
  186.5280  177.1300  137.0160 C   0  0  1  0  0  3  0  0  0  0  0  0
  188.9740  177.5180  140.2620 N   0  0  0  0  0  1  0  0  0  0  0  0
  189.2380  178.6270  139.3610 C   0  0  0  0  0  2  0  0  0  0  0  0
  181.4230  180.4610  138.5330 C   0  0  0  0  0  3  0  0  0  0  0  0
  181.4150  179.0620  138.6340 C   0  0  0  0  0  0  0  0  0  0  0  0
  180.7070  178.4610  139.6880 C   0  0  0  0  0  3  0  0  0  0  0  0
  179.3350  178.6510  141.6270 F   0  0  0  0  0  0  0  0  0  0  0  0
  180.0280  180.6360  140.5040 C   0  0  0  0  0  3  0  0  0  0  0  0
  180.0150  179.2430  140.6170 C   0  0  0  0  0  0  0  0  0  0  0  0
  180.7320  181.2460  139.4620 C   0  0  0  0  0  3  0  0  0  0  0  0
  1 18  1  0  0  0  0
  1 13  1  0  0  0  0
  4  6  2  0  0  0  0
  5  2  1  1  0  0  0
  5 15  1  0  0  0  0
  5  7  1  0  0  0  0
  6  2  1  0  0  0  0
  7  3  1  1  0  0  0
  8 12  2  0  0  0  0
  8  4  1  0  0  0  0
  9  6  1  1  0  0  0
  9 13  1  0  0  0  0
  9 15  1  0  0  0  0
 10  1  1  0  0  0  0
 11 19  1  0  0  0  0
 12 14  1  0  0  0  0
 14  2  2  0  0  0  0
 14 11  1  0  0  0  0
 15 28  1  6  0  0  0
 16  4  1  0  0  0  0
 16  1  1  0  0  0  0
 17  7  1  0  0  0  0
 17 32  1  0  0  0  0
 19 17  1  0  0  0  0
 21 20  1  0  0  0  0
 21 30  1  1  0  0  0
 22 23  1  0  0  0  0
 22 27  1  1  0  0  0
 23 21  1  0  0  0  0
 24 22  1  0  0  0  0
 24 25  1  0  0  0  0
 26 24  1  0  0  0  0
 28 26  1  6  0  0  0
 28 20  1  0  0  0  0
 30 29  1  0  0  0  0
 31 32  2  0  0  0  0
 31 37  1  0  0  0  0
 32 33  1  0  0  0  0
 33 36  2  0  0  0  0
 35 36  1  0  0  0  0
 36 34  1  0  0  0  0
 37 35  2  0  0  0  0
M  END
>  <MODEL>
8

>  <REMARK>
 VINA RESULT:      -5.2      5.879     10.244
  Name = 
  3 active torsions:
  status: ('A' for Active; 'I' for Inactive)
    1  A    between atoms: C_4  and  C_37
    2  A    between atoms: N_21  and  C_27
    3  A    between atoms: N_23  and  C_30
                            x       y       z     vdW  Elec       q    Type
                         _______ _______ _______ _____ _____    ______ ____

>  <TORSDO>
F 3

$$$$
=
 OpenBabel11122411263D

 37 42  0  0  1  0  0  0  0  0999 V2000
  186.6240  176.4570  136.6610 C   0  0  0  0  0  0  0  0  0  0  0  0
  188.3510  178.0490  140.2310 C   0  0  0  0  0  0  0  0  0  0  0  0
  189.0350  175.6040  141.8580 C   0  0  0  0  0  1  0  0  0  0  0  0
  186.4300  177.9250  138.7820 C   0  0  0  0  0  0  0  0  0  0  0  0
  189.7250  177.4790  140.2990 C   0  0  1  0  0  3  0  0  0  0  0  0
  187.7790  177.6900  139.0520 C   0  0  0  0  0  0  0  0  0  0  0  0
  190.0050  176.7600  141.6310 C   0  0  1  0  0  3  0  0  0  0  0  0
  185.6820  178.6280  139.7400 C   0  0  0  0  0  3  0  0  0  0  0  0
  188.7270  176.9200  138.2360 C   0  0  2  0  0  3  0  0  0  0  0  0
  187.2930  177.3680  135.6450 C   0  0  0  0  0  1  0  0  0  0  0  0
  188.1990  179.0260  142.5720 C   0  0  0  0  0  2  0  0  0  0  0  0
  186.2800  179.0430  140.9470 C   0  0  0  0  0  3  0  0  0  0  0  0
  187.8830  175.4580  137.5590 S   0  0  0  0  0  0  0  0  0  0  0  0
  187.6280  178.7460  141.2110 C   0  0  0  0  0  0  0  0  0  0  0  0
  189.8300  176.5590  139.1430 N   0  0  1  0  0  0  0  0  0  0  0  0
  185.7360  177.2920  137.6040 C   0  0  0  0  0  2  0  0  0  0  0  0
  189.9600  177.7040  142.7620 N   0  0  0  0  0  0  0  0  0  0  0  0
  185.7250  175.5030  135.9030 C   0  0  0  0  0  1  0  0  0  0  0  0
  189.6020  179.0020  142.5440 O   0  0  0  0  0  0  0  0  0  0  0  0
  192.1370  175.6280  138.7180 C   0  0  0  0  0  2  0  0  0  0  0  0
  193.5600  176.0310  138.3350 C   0  0  2  0  0  3  0  0  0  0  0  0
  192.8690  176.1010  135.8310 C   0  0  2  0  0  3  0  0  0  0  0  0
  193.6610  176.7450  136.9830 C   0  0  0  0  0  2  0  0  0  0  0  0
  191.3970  176.0620  135.9860 N   0  0  0  0  0  0  0  0  0  0  0  0
  190.9780  174.8160  136.3300 O   0  0  0  0  0  1  0  0  0  0  0  0
  190.8610  177.0510  136.9380 C   0  0  0  0  0  2  0  0  0  0  0  0
  193.3930  174.8510  135.4850 O   0  0  0  0  0  1  0  0  0  0  0  0
  191.1050  176.7370  138.4340 C   0  0  1  0  0  3  0  0  0  0  0  0
  195.5880  175.0730  139.2880 N   0  0  0  0  0  1  0  0  0  0  0  0
  194.4850  174.8260  138.3750 C   0  0  0  0  0  2  0  0  0  0  0  0
  191.5810  176.5070  144.1800 C   0  0  0  0  0  3  0  0  0  0  0  0
  190.4460  177.3230  144.0650 C   0  0  0  0  0  0  0  0  0  0  0  0
  189.7900  177.7430  145.2340 C   0  0  0  0  0  3  0  0  0  0  0  0
  189.6240  177.7730  147.6110 F   0  0  0  0  0  0  0  0  0  0  0  0
  191.3980  176.5500  146.5930 C   0  0  0  0  0  3  0  0  0  0  0  0
  190.2640  177.3600  146.4920 C   0  0  0  0  0  0  0  0  0  0  0  0
  192.0560  176.1220  145.4370 C   0  0  0  0  0  3  0  0  0  0  0  0
  1 13  1  0  0  0  0
  1 16  1  0  0  0  0
  2 14  1  0  0  0  0
  4  6  1  0  0  0  0
  4  8  2  0  0  0  0
  5  2  1  1  0  0  0
  5  7  1  0  0  0  0
  6  2  2  0  0  0  0
  7  3  1  1  0  0  0
  7 17  1  0  0  0  0
  8 12  1  0  0  0  0
  9 13  1  1  0  0  0
  9  6  1  0  0  0  0
  9 15  1  0  0  0  0
 10  1  1  0  0  0  0
 12 14  2  0  0  0  0
 14 11  1  0  0  0  0
 15 28  1  6  0  0  0
 15  5  1  0  0  0  0
 16  4  1  0  0  0  0
 17 32  1  0  0  0  0
 18  1  1  0  0  0  0
 19 11  1  0  0  0  0
 19 17  1  0  0  0  0
 21 30  1  6  0  0  0
 21 20  1  0  0  0  0
 22 27  1  1  0  0  0
 22 24  1  0  0  0  0
 22 23  1  0  0  0  0
 23 21  1  0  0  0  0
 24 25  1  0  0  0  0
 24 26  1  0  0  0  0
 28 26  1  6  0  0  0
 28 20  1  0  0  0  0
 30 29  1  0  0  0  0
 31 37  1  0  0  0  0
 32 31  2  0  0  0  0
 32 33  1  0  0  0  0
 33 36  2  0  0  0  0
 36 35  1  0  0  0  0
 36 34  1  0  0  0  0
 37 35  2  0  0  0  0
M  END
>  <MODEL>
9

>  <REMARK>
 VINA RESULT:      -4.9      2.826      6.905
  Name = 
  3 active torsions:
  status: ('A' for Active; 'I' for Inactive)
    1  A    between atoms: C_4  and  C_37
    2  A    between atoms: N_21  and  C_27
    3  A    between atoms: N_23  and  C_30
                            x       y       z     vdW  Elec       q    Type
                         _______ _______ _______ _____ _____    ______ ____

>  <TORSDO>
F 3

$$$$
