=
 OpenBabel11122412193D

 34 40  0  0  1  0  0  0  0  0999 V2000
  189.0850  177.6140  146.9960 C   0  0  1  0  0  3  0  0  0  0  0  0
  190.9970  176.0510  147.3480 N   0  0  0  0  0  2  0  0  0  0  0  0
  184.0830  178.0450  142.7180 C   0  0  2  0  0  3  0  0  0  0  0  0
  186.6930  178.1770  146.2440 C   0  0  1  0  0  3  0  0  0  0  0  0
  186.2610  178.1110  143.7830 C   0  0  1  0  0  3  0  0  0  0  0  0
  185.6190  178.1780  141.2530 C   0  0  0  0  0  2  0  0  0  0  0  0
  184.1500  177.7630  141.2350 C   0  0  0  0  0  2  0  0  0  0  0  0
  183.4630  179.5910  144.6130 C   0  0  0  0  0  2  0  0  0  0  0  0
  190.7300  177.1060  145.2650 C   0  0  2  0  0  3  0  0  0  0  0  0
  187.6280  178.3210  143.5210 O   0  0  0  0  0  0  0  0  0  0  0  0
  184.3440  178.6410  145.4500 C   0  0  0  0  0  2  0  0  0  0  0  0
  189.8250  177.3510  144.0520 C   0  0  1  0  0  3  0  0  0  0  0  0
  192.0990  175.6110  146.4850 C   0  0  0  0  0  2  0  0  0  0  0  0
  185.8490  178.7900  145.1240 C   0  0  1  0  0  3  0  0  0  0  0  0
  183.0550  179.0380  143.2280 C   0  0  0  0  0  2  0  0  0  0  0  0
  188.1820  178.2290  145.8810 C   0  0  2  0  0  3  0  0  0  0  0  0
  185.4310  178.7060  142.6620 C   0  0  1  0  0  3  0  0  0  0  0  0
  188.3510  177.5850  144.4800 C   0  0  1  0  0  3  0  0  0  0  0  0
  187.3350  178.2060  148.7100 C   0  0  0  0  0  2  0  0  0  0  0  0
  186.4700  178.8380  147.6040 C   0  0  0  0  0  2  0  0  0  0  0  0
  191.8380  176.1160  145.0680 C   0  0  0  0  0  2  0  0  0  0  0  0
  188.2840  177.1130  148.2010 C   0  0  0  0  0  2  0  0  0  0  0  0
  189.9810  176.5230  146.4240 C   0  0  2  0  0  3  0  0  0  0  0  0
  190.3670  178.5330  143.2470 C   0  0  0  0  0  2  0  0  0  0  0  0
  190.3900  177.3540  141.0900 C   0  0  0  0  0  3  0  0  0  0  0  0
  191.0470  178.0760  141.9960 C   0  0  0  0  0  3  0  0  0  0  0  0
  191.0860  176.9020  139.8550 C   0  0  0  0  0  2  0  0  0  0  0  0
  190.0560  176.5270  138.8060 C   0  0  0  0  0  2  0  0  0  0  0  0
  189.2280  177.7390  138.4130 C   0  0  0  0  0  2  0  0  0  0  0  0
  185.9220  176.1720  136.8530 C   0  0  0  0  0  3  0  0  0  0  0  0
  186.7630  178.1270  137.8540 C   0  0  0  0  0  3  0  0  0  0  0  0
  187.8920  177.3260  137.8980 C   0  0  0  0  0  0  0  0  0  0  0  0
  185.6640  177.4760  137.2740 C   0  0  0  0  0  3  0  0  0  0  0  0
  187.5330  175.8410  137.2120 S   0  0  0  0  0  0  0  0  0  0  0  0
  1 22  1  1  0  0  0
  3  7  1  6  0  0  0
  3 15  1  0  0  0  0
  4 20  1  1  0  0  0
  5 10  1  6  0  0  0
  5 14  1  0  0  0  0
  6 17  1  0  0  0  0
  7  6  1  0  0  0  0
  8 11  1  0  0  0  0
  9 21  1  6  0  0  0
  9 23  1  0  0  0  0
 10 18  1  0  0  0  0
 12 24  1  1  0  0  0
 12 18  1  0  0  0  0
 12  9  1  0  0  0  0
 13  2  1  0  0  0  0
 14 11  1  1  0  0  0
 14  4  1  0  0  0  0
 15  8  1  0  0  0  0
 16  4  1  0  0  0  0
 16  1  1  0  0  0  0
 17  3  1  0  0  0  0
 17  5  1  0  0  0  0
 18 16  1  0  0  0  0
 20 19  1  0  0  0  0
 21 13  1  0  0  0  0
 22 19  1  0  0  0  0
 23  1  1  0  0  0  0
 23  2  1  0  0  0  0
 25 26  2  0  0  0  0
 26 24  1  0  0  0  0
 27 25  1  0  0  0  0
 28 27  1  0  0  0  0
 29 28  1  0  0  0  0
 30 34  1  0  0  0  0
 30 33  2  0  0  0  0
 31 32  2  0  0  0  0
 32 29  1  0  0  0  0
 33 31  1  0  0  0  0
 34 32  1  0  0  0  0
M  END
>  <MODEL>
1

>  <REMARK>
 VINA RESULT:      -9.3      0.000      0.000
  Name = 
  6 active torsions:
  status: ('A' for Active; 'I' for Inactive)
    1  A    between atoms: C_10  and  C_17
    2  A    between atoms: C_13  and  C_24
    3  A    between atoms: C_17  and  C_28
    4  A    between atoms: C_22  and  C_24
    5  A    between atoms: C_28  and  C_29
    6  A    between atoms: C_29  and  C_32
                            x       y       z     vdW  Elec       q    Type
                         _______ _______ _______ _____ _____    ______ ____

>  <TORSDO>
F 6

$$$$
=
 OpenBabel11122412193D

 34 40  0  0  1  0  0  0  0  0999 V2000
  188.1860  177.8670  145.0740 C   0  0  1  0  0  3  0  0  0  0  0  0
  190.2210  176.4230  145.0620 N   0  0  0  0  0  2  0  0  0  0  0  0
  182.4550  177.9530  141.8110 C   0  0  2  0  0  3  0  0  0  0  0  0
  185.6660  178.2800  144.7840 C   0  0  1  0  0  3  0  0  0  0  0  0
  184.7860  178.1580  142.4480 C   0  0  1  0  0  3  0  0  0  0  0  0
  183.6780  178.1570  140.0840 C   0  0  0  0  0  2  0  0  0  0  0  0
  182.2590  177.6570  140.3420 C   0  0  0  0  0  2  0  0  0  0  0  0
  182.1100  179.4830  143.7870 C   0  0  0  0  0  2  0  0  0  0  0  0
  189.5050  177.4350  143.0660 C   0  0  2  0  0  3  0  0  0  0  0  0
  186.0650  178.4460  141.9340 O   0  0  0  0  0  0  0  0  0  0  0  0
  183.1870  178.5960  144.4450 C   0  0  0  0  0  2  0  0  0  0  0  0
  188.3760  177.6120  142.0440 C   0  0  1  0  0  3  0  0  0  0  0  0
  191.1660  176.0380  144.0090 C   0  0  0  0  0  2  0  0  0  0  0  0
  184.5930  178.8290  143.8420 C   0  0  1  0  0  3  0  0  0  0  0  0
  181.4830  178.8900  142.5040 C   0  0  0  0  0  2  0  0  0  0  0  0
  187.0550  178.4140  144.1480 C   0  0  2  0  0  3  0  0  0  0  0  0
  183.7270  178.6910  141.5030 C   0  0  1  0  0  3  0  0  0  0  0  0
  186.9970  177.7650  142.7410 C   0  0  1  0  0  3  0  0  0  0  0  0
  186.7560  178.3760  147.0860 C   0  0  0  0  0  2  0  0  0  0  0  0
  185.6630  178.9430  146.1610 C   0  0  0  0  0  2  0  0  0  0  0  0
  190.6140  176.5090  142.6660 C   0  0  0  0  0  2  0  0  0  0  0  0
  187.6560  177.3340  146.4080 C   0  0  0  0  0  2  0  0  0  0  0  0
  189.0230  176.8230  144.3450 C   0  0  2  0  0  3  0  0  0  0  0  0
  188.6860  178.8130  141.1510 C   0  0  0  0  0  2  0  0  0  0  0  0
  189.8310  177.8210  139.2150 C   0  0  0  0  0  3  0  0  0  0  0  0
  188.7500  178.4200  139.7100 C   0  0  0  0  0  3  0  0  0  0  0  0
  189.8790  177.4440  137.7770 C   0  0  0  0  0  2  0  0  0  0  0  0
  189.1290  178.4780  136.9590 C   0  0  0  0  0  2  0  0  0  0  0  0
  188.4040  177.8160  135.7980 C   0  0  0  0  0  2  0  0  0  0  0  0
  185.5520  175.2440  136.8320 C   0  0  0  0  0  3  0  0  0  0  0  0
  186.1080  177.5280  136.8870 C   0  0  0  0  0  3  0  0  0  0  0  0
  187.2440  177.0150  136.2840 C   0  0  0  0  0  0  0  0  0  0  0  0
  185.1680  176.5330  137.1950 C   0  0  0  0  0  3  0  0  0  0  0  0
  187.0740  175.3570  136.1220 S   0  0  0  0  0  0  0  0  0  0  0  0
  1 22  1  1  0  0  0
  3  7  1  6  0  0  0
  3 15  1  0  0  0  0
  4 20  1  1  0  0  0
  5 10  1  6  0  0  0
  5 14  1  0  0  0  0
  6  7  1  0  0  0  0
  6 17  1  0  0  0  0
  8 11  1  0  0  0  0
  9 21  1  6  0  0  0
  9 23  1  0  0  0  0
 10 18  1  0  0  0  0
 12 24  1  1  0  0  0
 12 18  1  0  0  0  0
 12  9  1  0  0  0  0
 13  2  1  0  0  0  0
 14 11  1  1  0  0  0
 14  4  1  0  0  0  0
 15  8  1  0  0  0  0
 16  4  1  0  0  0  0
 16  1  1  0  0  0  0
 17  3  1  0  0  0  0
 17  5  1  0  0  0  0
 18 16  1  0  0  0  0
 20 19  1  0  0  0  0
 21 13  1  0  0  0  0
 22 19  1  0  0  0  0
 23  2  1  0  0  0  0
 23  1  1  0  0  0  0
 25 26  2  0  0  0  0
 26 24  1  0  0  0  0
 27 25  1  0  0  0  0
 28 27  1  0  0  0  0
 29 32  1  0  0  0  0
 29 28  1  0  0  0  0
 30 33  2  0  0  0  0
 31 33  1  0  0  0  0
 32 31  2  0  0  0  0
 34 32  1  0  0  0  0
 34 30  1  0  0  0  0
M  END
>  <MODEL>
2

>  <REMARK>
 VINA RESULT:      -9.2      1.464      2.131
  Name = 
  6 active torsions:
  status: ('A' for Active; 'I' for Inactive)
    1  A    between atoms: C_10  and  C_17
    2  A    between atoms: C_13  and  C_24
    3  A    between atoms: C_17  and  C_28
    4  A    between atoms: C_22  and  C_24
    5  A    between atoms: C_28  and  C_29
    6  A    between atoms: C_29  and  C_32
                            x       y       z     vdW  Elec       q    Type
                         _______ _______ _______ _____ _____    ______ ____

>  <TORSDO>
F 6

$$$$
=
 OpenBabel11122412193D

 34 40  0  0  1  0  0  0  0  0999 V2000
  188.0260  177.9460  145.0350 C   0  0  1  0  0  3  0  0  0  0  0  0
  190.0730  176.5210  145.1070 N   0  0  0  0  0  2  0  0  0  0  0  0
  182.3570  177.8760  141.6650 C   0  0  2  0  0  3  0  0  0  0  0  0
  185.5090  178.3260  144.6850 C   0  0  1  0  0  3  0  0  0  0  0  0
  184.6730  178.1230  142.3380 C   0  0  1  0  0  3  0  0  0  0  0  0
  183.6110  178.0380  139.9550 C   0  0  0  0  0  2  0  0  0  0  0  0
  182.1920  177.5330  140.2030 C   0  0  0  0  0  2  0  0  0  0  0  0
  181.9610  179.4640  143.5850 C   0  0  0  0  0  2  0  0  0  0  0  0
  189.3870  177.4630  143.0670 C   0  0  2  0  0  3  0  0  0  0  0  0
  185.9600  178.4060  141.8390 O   0  0  0  0  0  0  0  0  0  0  0  0
  183.0340  178.6090  144.2910 C   0  0  0  0  0  2  0  0  0  0  0  0
  188.2750  177.5980  142.0190 C   0  0  1  0  0  3  0  0  0  0  0  0
  191.0410  176.1120  144.0840 C   0  0  0  0  0  2  0  0  0  0  0  0
  184.4480  178.8350  143.7070 C   0  0  1  0  0  3  0  0  0  0  0  0
  181.3640  178.8250  142.3100 C   0  0  0  0  0  2  0  0  0  0  0  0
  186.9080  178.4530  144.0710 C   0  0  2  0  0  3  0  0  0  0  0  0
  183.6280  178.6160  141.3570 C   0  0  1  0  0  3  0  0  0  0  0  0
  186.8820  177.7590  142.6850 C   0  0  1  0  0  3  0  0  0  0  0  0
  186.5550  178.5050  147.0030 C   0  0  0  0  0  2  0  0  0  0  0  0
  185.4740  179.0320  146.0410 C   0  0  0  0  0  2  0  0  0  0  0  0
  190.5110  176.5350  142.7170 C   0  0  0  0  0  2  0  0  0  0  0  0
  187.4760  177.4510  146.3760 C   0  0  0  0  0  2  0  0  0  0  0  0
  188.8860  176.8870  144.3550 C   0  0  2  0  0  3  0  0  0  0  0  0
  188.5920  178.7730  141.0940 C   0  0  0  0  0  2  0  0  0  0  0  0
  187.6550  178.1320  138.9140 C   0  0  0  0  0  3  0  0  0  0  0  0
  188.7310  178.3290  139.6730 C   0  0  0  0  0  3  0  0  0  0  0  0
  187.8130  177.6820  137.5050 C   0  0  0  0  0  2  0  0  0  0  0  0
  189.2660  177.8170  137.0910 C   0  0  0  0  0  2  0  0  0  0  0  0
  189.8100  176.4810  136.6110 C   0  0  0  0  0  2  0  0  0  0  0  0
  193.7010  175.8300  137.1130 C   0  0  0  0  0  3  0  0  0  0  0  0
  191.7720  176.5490  138.2490 C   0  0  0  0  0  3  0  0  0  0  0  0
  191.2440  176.3250  136.9890 C   0  0  0  0  0  0  0  0  0  0  0  0
  193.1470  176.2760  138.3120 C   0  0  0  0  0  3  0  0  0  0  0  0
  192.4610  175.7790  135.9770 S   0  0  0  0  0  0  0  0  0  0  0  0
  1 22  1  1  0  0  0
  3  7  1  6  0  0  0
  3 15  1  0  0  0  0
  4 20  1  1  0  0  0
  5 10  1  6  0  0  0
  5 14  1  0  0  0  0
  6  7  1  0  0  0  0
  6 17  1  0  0  0  0
  8 11  1  0  0  0  0
  9 21  1  6  0  0  0
  9 23  1  0  0  0  0
 10 18  1  0  0  0  0
 12 24  1  1  0  0  0
 12 18  1  0  0  0  0
 12  9  1  0  0  0  0
 13  2  1  0  0  0  0
 14 11  1  1  0  0  0
 14  4  1  0  0  0  0
 15  8  1  0  0  0  0
 16  4  1  0  0  0  0
 16  1  1  0  0  0  0
 17  3  1  0  0  0  0
 17  5  1  0  0  0  0
 18 16  1  0  0  0  0
 20 19  1  0  0  0  0
 21 13  1  0  0  0  0
 22 19  1  0  0  0  0
 23  1  1  0  0  0  0
 23  2  1  0  0  0  0
 25 26  2  0  0  0  0
 26 24  1  0  0  0  0
 27 25  1  0  0  0  0
 28 27  1  0  0  0  0
 29 32  1  0  0  0  0
 29 28  1  0  0  0  0
 30 33  2  0  0  0  0
 31 33  1  0  0  0  0
 32 31  2  0  0  0  0
 34 32  1  0  0  0  0
 34 30  1  0  0  0  0
M  END
>  <MODEL>
3

>  <REMARK>
 VINA RESULT:      -8.9      1.895      3.248
  Name = 
  6 active torsions:
  status: ('A' for Active; 'I' for Inactive)
    1  A    between atoms: C_10  and  C_17
    2  A    between atoms: C_13  and  C_24
    3  A    between atoms: C_17  and  C_28
    4  A    between atoms: C_22  and  C_24
    5  A    between atoms: C_28  and  C_29
    6  A    between atoms: C_29  and  C_32
                            x       y       z     vdW  Elec       q    Type
                         _______ _______ _______ _____ _____    ______ ____

>  <TORSDO>
F 6

$$$$
=
 OpenBabel11122412193D

 34 40  0  0  1  0  0  0  0  0999 V2000
  182.5400  179.2190  143.5300 C   0  0  1  0  0  3  0  0  0  0  0  0
  183.7470  178.8960  145.6890 N   0  0  0  0  0  2  0  0  0  0  0  0
  181.9300  175.8050  137.9200 C   0  0  2  0  0  3  0  0  0  0  0  0
  181.3260  178.3660  141.4320 C   0  0  1  0  0  3  0  0  0  0  0  0
  182.7380  177.1990  139.7320 C   0  0  1  0  0  3  0  0  0  0  0  0
  184.0410  176.0250  137.7980 C   0  0  0  0  0  2  0  0  0  0  0  0
  183.0280  175.0440  137.2140 C   0  0  0  0  0  2  0  0  0  0  0  0
  180.0790  177.5180  137.8520 C   0  0  0  0  0  2  0  0  0  0  0  0
  184.9510  178.8610  143.6720 C   0  0  2  0  0  3  0  0  0  0  0  0
  183.8860  177.8630  140.2060 O   0  0  0  0  0  0  0  0  0  0  0  0
  180.1760  177.4350  139.3900 C   0  0  0  0  0  2  0  0  0  0  0  0
  185.1370  178.2150  142.2930 C   0  0  1  0  0  3  0  0  0  0  0  0
  185.1600  178.6860  146.0220 C   0  0  0  0  0  2  0  0  0  0  0  0
  181.4700  178.0830  139.9350 C   0  0  1  0  0  3  0  0  0  0  0  0
  180.7840  176.3670  137.0980 C   0  0  0  0  0  2  0  0  0  0  0  0
  182.6390  178.9140  142.0020 C   0  0  2  0  0  3  0  0  0  0  0  0
  182.8950  176.9080  138.2530 C   0  0  1  0  0  3  0  0  0  0  0  0
  183.7730  177.9320  141.6090 C   0  0  1  0  0  3  0  0  0  0  0  0
  180.0610  179.5950  143.2730 C   0  0  0  0  0  2  0  0  0  0  0  0
  180.1800  179.3230  141.7620 C   0  0  0  0  0  2  0  0  0  0  0  0
  185.9340  178.4530  144.7270 C   0  0  0  0  0  2  0  0  0  0  0  0
  181.1550  178.9160  144.1080 C   0  0  0  0  0  2  0  0  0  0  0  0
  183.6400  178.4960  144.2970 C   0  0  2  0  0  3  0  0  0  0  0  0
  186.0210  179.1150  141.4290 C   0  0  0  0  0  2  0  0  0  0  0  0
  188.2490  178.2480  141.9980 C   0  0  0  0  0  3  0  0  0  0  0  0
  187.3080  178.4410  141.0770 C   0  0  0  0  0  3  0  0  0  0  0  0
  189.5270  177.5820  141.6260 C   0  0  0  0  0  2  0  0  0  0  0  0
  189.7860  176.4250  142.5730 C   0  0  0  0  0  2  0  0  0  0  0  0
  191.0110  176.7020  143.4310 C   0  0  0  0  0  2  0  0  0  0  0  0
  190.4910  176.8890  147.3690 C   0  0  0  0  0  3  0  0  0  0  0  0
  189.3850  177.2520  145.3260 C   0  0  0  0  0  3  0  0  0  0  0  0
  190.6300  176.8620  144.8630 C   0  0  0  0  0  0  0  0  0  0  0  0
  189.3140  177.2700  146.7270 C   0  0  0  0  0  3  0  0  0  0  0  0
  191.6190  176.5290  146.1730 S   0  0  0  0  0  0  0  0  0  0  0  0
  1 22  1  1  0  0  0
  1 23  1  0  0  0  0
  2 13  1  0  0  0  0
  3 15  1  6  0  0  0
  3 17  1  0  0  0  0
  4 20  1  6  0  0  0
  4 16  1  0  0  0  0
  5 14  1  0  0  0  0
  5 10  1  6  0  0  0
  6 17  1  0  0  0  0
  7  6  1  0  0  0  0
  7  3  1  0  0  0  0
  8 11  1  0  0  0  0
  9 23  1  0  0  0  0
  9 21  1  1  0  0  0
 10 18  1  0  0  0  0
 12 24  1  6  0  0  0
 12  9  1  0  0  0  0
 14 11  1  1  0  0  0
 14  4  1  0  0  0  0
 15  8  1  0  0  0  0
 16  1  1  0  0  0  0
 17  5  1  0  0  0  0
 18 16  1  0  0  0  0
 18 12  1  0  0  0  0
 19 22  1  0  0  0  0
 20 19  1  0  0  0  0
 21 13  1  0  0  0  0
 23  2  1  0  0  0  0
 26 24  1  0  0  0  0
 26 25  2  0  0  0  0
 27 25  1  0  0  0  0
 27 28  1  0  0  0  0
 28 29  1  0  0  0  0
 29 32  1  0  0  0  0
 31 33  1  0  0  0  0
 32 31  2  0  0  0  0
 32 34  1  0  0  0  0
 33 30  2  0  0  0  0
 34 30  1  0  0  0  0
M  END
>  <MODEL>
4

>  <REMARK>
 VINA RESULT:      -8.9      3.299      6.878
  Name = 
  6 active torsions:
  status: ('A' for Active; 'I' for Inactive)
    1  A    between atoms: C_10  and  C_17
    2  A    between atoms: C_13  and  C_24
    3  A    between atoms: C_17  and  C_28
    4  A    between atoms: C_22  and  C_24
    5  A    between atoms: C_28  and  C_29
    6  A    between atoms: C_29  and  C_32
                            x       y       z     vdW  Elec       q    Type
                         _______ _______ _______ _____ _____    ______ ____

>  <TORSDO>
F 6

$$$$
=
 OpenBabel11122412193D

 34 40  0  0  1  0  0  0  0  0999 V2000
  190.8930  176.6840  137.7800 C   0  0  1  0  0  3  0  0  0  0  0  0
  190.1150  175.3550  135.8180 N   0  0  0  0  0  2  0  0  0  0  0  0
  189.1950  177.1280  144.1380 C   0  0  2  0  0  3  0  0  0  0  0  0
  191.3060  177.0370  140.2920 C   0  0  1  0  0  3  0  0  0  0  0  0
  189.2740  177.3110  141.7220 C   0  0  1  0  0  3  0  0  0  0  0  0
  187.2930  177.6990  143.3770 C   0  0  0  0  0  2  0  0  0  0  0  0
  187.7880  177.1010  144.6910 C   0  0  0  0  0  2  0  0  0  0  0  0
  191.4480  178.2520  143.9790 C   0  0  0  0  0  2  0  0  0  0  0  0
  188.5800  176.6860  136.9980 C   0  0  2  0  0  3  0  0  0  0  0  0
  188.5290  177.7420  140.6070 O   0  0  0  0  0  0  0  0  0  0  0  0
  191.6450  177.3050  142.7770 C   0  0  0  0  0  2  0  0  0  0  0  0
  187.9150  177.0010  138.3440 C   0  0  1  0  0  3  0  0  0  0  0  0
  188.8110  175.2110  135.1630 C   0  0  0  0  0  2  0  0  0  0  0  0
  190.7740  177.7040  141.5620 C   0  0  1  0  0  3  0  0  0  0  0  0
  190.2670  177.8790  144.9050 C   0  0  0  0  0  2  0  0  0  0  0  0
  190.3900  177.3450  139.1020 C   0  0  2  0  0  3  0  0  0  0  0  0
  188.7320  177.9630  142.9780 C   0  0  1  0  0  3  0  0  0  0  0  0
  188.9420  176.9640  139.5080 C   0  0  1  0  0  3  0  0  0  0  0  0
  193.2500  176.7530  138.6680 C   0  0  0  0  0  2  0  0  0  0  0  0
  192.7430  177.4340  139.9530 C   0  0  0  0  0  2  0  0  0  0  0  0
  187.7550  175.8970  136.0260 C   0  0  0  0  0  2  0  0  0  0  0  0
  192.1900  175.8930  137.9680 C   0  0  0  0  0  2  0  0  0  0  0  0
  189.7990  175.8290  137.1540 C   0  0  2  0  0  3  0  0  0  0  0  0
  187.2180  178.3580  138.2570 C   0  0  0  0  0  2  0  0  0  0  0  0
  184.8740  177.7590  137.8210 C   0  0  0  0  0  3  0  0  0  0  0  0
  185.7800  178.2600  138.6570 C   0  0  0  0  0  3  0  0  0  0  0  0
  183.4470  177.6760  138.2340 C   0  0  0  0  0  2  0  0  0  0  0  0
  183.1050  178.8660  139.1100 C   0  0  0  0  0  2  0  0  0  0  0  0
  181.9930  178.5090  140.0840 C   0  0  0  0  0  2  0  0  0  0  0  0
  182.7260  179.0030  143.9610 C   0  0  0  0  0  3  0  0  0  0  0  0
  183.7760  178.5040  141.9170 C   0  0  0  0  0  3  0  0  0  0  0  0
  182.4630  178.6280  141.4940 C   0  0  0  0  0  0  0  0  0  0  0  0
  183.9160  178.7100  143.2970 C   0  0  0  0  0  3  0  0  0  0  0  0
  181.4990  179.0030  142.8100 S   0  0  0  0  0  0  0  0  0  0  0  0
  1 22  1  1  0  0  0
  1 16  1  0  0  0  0
  2 23  1  0  0  0  0
  3  7  1  1  0  0  0
  3 15  1  0  0  0  0
  4 20  1  6  0  0  0
  4 14  1  0  0  0  0
  5 10  1  6  0  0  0
  5 17  1  0  0  0  0
  6  7  1  0  0  0  0
  8 15  1  0  0  0  0
  9 21  1  6  0  0  0
  9 23  1  0  0  0  0
  9 12  1  0  0  0  0
 11  8  1  0  0  0  0
 12 24  1  6  0  0  0
 12 18  1  0  0  0  0
 13  2  1  0  0  0  0
 13 21  1  0  0  0  0
 14  5  1  0  0  0  0
 14 11  1  1  0  0  0
 16 18  1  0  0  0  0
 16  4  1  0  0  0  0
 17  6  1  0  0  0  0
 17  3  1  0  0  0  0
 18 10  1  0  0  0  0
 19 20  1  0  0  0  0
 22 19  1  0  0  0  0
 23  1  1  0  0  0  0
 24 26  1  0  0  0  0
 25 27  1  0  0  0  0
 25 26  2  0  0  0  0
 27 28  1  0  0  0  0
 28 29  1  0  0  0  0
 29 32  1  0  0  0  0
 31 33  1  0  0  0  0
 32 31  2  0  0  0  0
 32 34  1  0  0  0  0
 33 30  2  0  0  0  0
 34 30  1  0  0  0  0
M  END
>  <MODEL>
5

>  <REMARK>
 VINA RESULT:      -8.4      3.143      7.697
  Name = 
  6 active torsions:
  status: ('A' for Active; 'I' for Inactive)
    1  A    between atoms: C_10  and  C_17
    2  A    between atoms: C_13  and  C_24
    3  A    between atoms: C_17  and  C_28
    4  A    between atoms: C_22  and  C_24
    5  A    between atoms: C_28  and  C_29
    6  A    between atoms: C_29  and  C_32
                            x       y       z     vdW  Elec       q    Type
                         _______ _______ _______ _____ _____    ______ ____

>  <TORSDO>
F 6

$$$$
=
 OpenBabel11122412193D

 34 40  0  0  1  0  0  0  0  0999 V2000
  189.8890  176.7340  145.8140 C   0  0  1  0  0  3  0  0  0  0  0  0
  189.3330  177.9260  147.9340 N   0  0  0  0  0  2  0  0  0  0  0  0
  189.6970  178.2160  139.3900 C   0  0  2  0  0  3  0  0  0  0  0  0
  190.6800  176.6510  143.3710 C   0  0  1  0  0  3  0  0  0  0  0  0
  189.1250  177.6180  141.6690 C   0  0  1  0  0  3  0  0  0  0  0  0
  187.6170  178.5000  139.7290 C   0  0  0  0  0  2  0  0  0  0  0  0
  188.6140  179.0000  138.6870 C   0  0  0  0  0  2  0  0  0  0  0  0
  191.1330  176.1480  139.5450 C   0  0  0  0  0  2  0  0  0  0  0  0
  187.6940  177.7020  146.2660 C   0  0  2  0  0  3  0  0  0  0  0  0
  188.0300  177.4150  142.5310 O   0  0  0  0  0  0  0  0  0  0  0  0
  191.4360  176.6720  140.9650 C   0  0  0  0  0  2  0  0  0  0  0  0
  187.2910  177.9700  144.8100 C   0  0  1  0  0  3  0  0  0  0  0  0
  188.1080  178.5620  148.4310 C   0  0  0  0  0  2  0  0  0  0  0  0
  190.2230  176.5390  141.9150 C   0  0  1  0  0  3  0  0  0  0  0  0
  190.4830  177.1850  138.6010 C   0  0  0  0  0  2  0  0  0  0  0  0
  189.4720  176.6230  144.3140 C   0  0  2  0  0  3  0  0  0  0  0  0
  188.6620  177.5210  140.2290 C   0  0  1  0  0  3  0  0  0  0  0  0
  188.4720  177.7080  143.8370 C   0  0  1  0  0  3  0  0  0  0  0  0
  192.1170  175.7020  145.2490 C   0  0  0  0  0  2  0  0  0  0  0  0
  191.6790  175.5690  143.7790 C   0  0  0  0  0  2  0  0  0  0  0  0
  187.0920  178.6140  147.2930 C   0  0  0  0  0  2  0  0  0  0  0  0
  191.4050  176.8320  146.0040 C   0  0  0  0  0  2  0  0  0  0  0  0
  189.1620  177.8890  146.4930 C   0  0  2  0  0  3  0  0  0  0  0  0
  186.0740  177.1150  144.4570 C   0  0  0  0  0  2  0  0  0  0  0  0
  184.3130  178.8030  144.7570 C   0  0  0  0  0  3  0  0  0  0  0  0
  184.9460  177.9540  143.9490 C   0  0  0  0  0  3  0  0  0  0  0  0
  183.1870  179.6250  144.2360 C   0  0  0  0  0  2  0  0  0  0  0  0
  182.0250  178.7180  143.8760 C   0  0  0  0  0  2  0  0  0  0  0  0
  181.3050  179.2390  142.6430 C   0  0  0  0  0  2  0  0  0  0  0  0
  181.7570  176.9470  139.4240 C   0  0  0  0  0  3  0  0  0  0  0  0
  182.9610  178.2610  140.9590 C   0  0  0  0  0  3  0  0  0  0  0  0
  181.6750  178.4440  141.4370 C   0  0  0  0  0  0  0  0  0  0  0  0
  183.0000  177.4270  139.8310 C   0  0  0  0  0  3  0  0  0  0  0  0
  180.6090  177.5720  140.4850 S   0  0  0  0  0  0  0  0  0  0  0  0
  1 22  1  6  0  0  0
  1 23  1  0  0  0  0
  2 13  1  0  0  0  0
  3 15  1  6  0  0  0
  3 17  1  0  0  0  0
  4 20  1  1  0  0  0
  4 16  1  0  0  0  0
  5 14  1  0  0  0  0
  5 10  1  1  0  0  0
  6 17  1  0  0  0  0
  7  3  1  0  0  0  0
  7  6  1  0  0  0  0
  8 11  1  0  0  0  0
  9 23  1  0  0  0  0
  9 21  1  1  0  0  0
 10 18  1  0  0  0  0
 12 24  1  6  0  0  0
 12  9  1  0  0  0  0
 14 11  1  6  0  0  0
 14  4  1  0  0  0  0
 15  8  1  0  0  0  0
 16  1  1  0  0  0  0
 17  5  1  0  0  0  0
 18 16  1  0  0  0  0
 18 12  1  0  0  0  0
 19 22  1  0  0  0  0
 20 19  1  0  0  0  0
 21 13  1  0  0  0  0
 23  2  1  0  0  0  0
 26 24  1  0  0  0  0
 26 25  2  0  0  0  0
 27 25  1  0  0  0  0
 28 27  1  0  0  0  0
 29 28  1  0  0  0  0
 30 33  2  0  0  0  0
 30 34  1  0  0  0  0
 31 32  2  0  0  0  0
 32 29  1  0  0  0  0
 33 31  1  0  0  0  0
 34 32  1  0  0  0  0
M  END
>  <MODEL>
6

>  <REMARK>
 VINA RESULT:      -8.4      2.072      5.910
  Name = 
  6 active torsions:
  status: ('A' for Active; 'I' for Inactive)
    1  A    between atoms: C_10  and  C_17
    2  A    between atoms: C_13  and  C_24
    3  A    between atoms: C_17  and  C_28
    4  A    between atoms: C_22  and  C_24
    5  A    between atoms: C_28  and  C_29
    6  A    between atoms: C_29  and  C_32
                            x       y       z     vdW  Elec       q    Type
                         _______ _______ _______ _____ _____    ______ ____

>  <TORSDO>
F 6

$$$$
=
 OpenBabel11122412193D

 34 40  0  0  1  0  0  0  0  0999 V2000
  182.1590  178.8890  140.6060 C   0  0  1  0  0  3  0  0  0  0  0  0
  180.3560  178.1680  142.1710 N   0  0  0  0  0  2  0  0  0  0  0  0
  188.4910  177.3010  139.6660 C   0  0  2  0  0  3  0  0  0  0  0  0
  184.2910  178.4940  139.2260 C   0  0  1  0  0  3  0  0  0  0  0  0
  186.4100  178.2060  140.5200 C   0  0  1  0  0  3  0  0  0  0  0  0
  188.7400  177.9620  141.6710 C   0  0  0  0  0  2  0  0  0  0  0  0
  189.5130  177.0260  140.7450 C   0  0  0  0  0  2  0  0  0  0  0  0
  187.8110  178.5510  137.5830 C   0  0  0  0  0  2  0  0  0  0  0  0
  182.3800  178.9900  143.0350 C   0  0  2  0  0  3  0  0  0  0  0  0
  185.8590  178.9080  141.6100 O   0  0  0  0  0  0  0  0  0  0  0  0
  186.4030  178.0230  137.9310 C   0  0  0  0  0  2  0  0  0  0  0  0
  183.9060  178.8460  143.1020 C   0  0  1  0  0  3  0  0  0  0  0  0
  180.2510  178.1500  143.6340 C   0  0  0  0  0  2  0  0  0  0  0  0
  185.8040  178.7170  139.1770 C   0  0  1  0  0  3  0  0  0  0  0  0
  188.9660  177.8490  138.3320 C   0  0  0  0  0  2  0  0  0  0  0  0
  183.7040  179.0910  140.5110 C   0  0  2  0  0  3  0  0  0  0  0  0
  187.9110  178.4180  140.4870 C   0  0  1  0  0  3  0  0  0  0  0  0
  184.5080  178.5220  141.7090 C   0  0  1  0  0  3  0  0  0  0  0  0
  182.0340  178.8270  138.0900 C   0  0  0  0  0  2  0  0  0  0  0  0
  183.5550  179.0590  138.0110 C   0  0  0  0  0  2  0  0  0  0  0  0
  181.6190  178.4830  144.2230 C   0  0  0  0  0  2  0  0  0  0  0  0
  181.5800  178.1560  139.3930 C   0  0  0  0  0  2  0  0  0  0  0  0
  181.7840  178.1990  141.9120 C   0  0  2  0  0  3  0  0  0  0  0  0
  184.5080  180.1230  143.6880 C   0  0  0  0  0  2  0  0  0  0  0  0
  185.3140  178.6840  145.5100 C   0  0  0  0  0  3  0  0  0  0  0  0
  185.0010  179.9050  145.0830 C   0  0  0  0  0  3  0  0  0  0  0  0
  185.7950  178.4850  146.9040 C   0  0  0  0  0  2  0  0  0  0  0  0
  186.9650  177.5190  146.9010 C   0  0  0  0  0  2  0  0  0  0  0  0
  187.8690  177.7790  145.7060 C   0  0  0  0  0  2  0  0  0  0  0  0
  191.6770  176.6510  145.9130 C   0  0  0  0  0  3  0  0  0  0  0  0
  189.7320  176.8870  147.2130 C   0  0  0  0  0  3  0  0  0  0  0  0
  189.2660  177.3430  145.9920 C   0  0  0  0  0  0  0  0  0  0  0  0
  191.0810  176.5060  147.1640 C   0  0  0  0  0  3  0  0  0  0  0  0
  190.5040  177.2570  144.8690 S   0  0  0  0  0  0  0  0  0  0  0  0
  1 22  1  6  0  0  0
  1 23  1  0  0  0  0
  2 13  1  0  0  0  0
  3 15  1  6  0  0  0
  3 17  1  0  0  0  0
  3  7  1  0  0  0  0
  4 20  1  6  0  0  0
  4 16  1  0  0  0  0
  5 10  1  1  0  0  0
  7  6  1  0  0  0  0
  8 11  1  0  0  0  0
  8 15  1  0  0  0  0
  9 12  1  0  0  0  0
  9 21  1  1  0  0  0
 10 18  1  0  0  0  0
 12 24  1  6  0  0  0
 13 21  1  0  0  0  0
 14 11  1  6  0  0  0
 14  4  1  0  0  0  0
 14  5  1  0  0  0  0
 16  1  1  0  0  0  0
 16 18  1  0  0  0  0
 17  5  1  0  0  0  0
 17  6  1  0  0  0  0
 18 12  1  0  0  0  0
 19 22  1  0  0  0  0
 20 19  1  0  0  0  0
 23  2  1  0  0  0  0
 23  9  1  0  0  0  0
 24 26  1  0  0  0  0
 25 27  1  0  0  0  0
 26 25  2  0  0  0  0
 28 27  1  0  0  0  0
 29 32  1  0  0  0  0
 29 28  1  0  0  0  0
 30 33  2  0  0  0  0
 32 31  2  0  0  0  0
 33 31  1  0  0  0  0
 34 30  1  0  0  0  0
 34 32  1  0  0  0  0
M  END
>  <MODEL>
7

>  <REMARK>
 VINA RESULT:      -8.3      3.046      8.310
  Name = 
  6 active torsions:
  status: ('A' for Active; 'I' for Inactive)
    1  A    between atoms: C_10  and  C_17
    2  A    between atoms: C_13  and  C_24
    3  A    between atoms: C_17  and  C_28
    4  A    between atoms: C_22  and  C_24
    5  A    between atoms: C_28  and  C_29
    6  A    between atoms: C_29  and  C_32
                            x       y       z     vdW  Elec       q    Type
                         _______ _______ _______ _____ _____    ______ ____

>  <TORSDO>
F 6

$$$$
=
 OpenBabel11122412193D

 34 40  0  0  1  0  0  0  0  0999 V2000
  190.8910  176.7000  137.7560 C   0  0  1  0  0  3  0  0  0  0  0  0
  190.2660  175.3720  135.7380 N   0  0  0  0  0  2  0  0  0  0  0  0
  188.6960  177.1530  143.9590 C   0  0  2  0  0  3  0  0  0  0  0  0
  191.1050  177.0520  140.2920 C   0  0  1  0  0  3  0  0  0  0  0  0
  188.9670  177.3350  141.5560 C   0  0  1  0  0  3  0  0  0  0  0  0
  186.8630  177.7310  143.0490 C   0  0  0  0  0  2  0  0  0  0  0  0
  187.2500  177.1310  144.3980 C   0  0  0  0  0  2  0  0  0  0  0  0
  190.9590  178.2680  143.9790 C   0  0  0  0  0  2  0  0  0  0  0  0
  188.6480  176.7100  136.7930 C   0  0  2  0  0  3  0  0  0  0  0  0
  188.3140  177.7680  140.3860 O   0  0  0  0  0  0  0  0  0  0  0  0
  191.2470  177.3210  142.7960 C   0  0  0  0  0  2  0  0  0  0  0  0
  187.8790  177.0280  138.0820 C   0  0  1  0  0  3  0  0  0  0  0  0
  189.0170  175.2320  134.9820 C   0  0  0  0  0  2  0  0  0  0  0  0
  190.4770  177.7220  141.5160 C   0  0  1  0  0  3  0  0  0  0  0  0
  189.7070  177.9010  144.8080 C   0  0  0  0  0  2  0  0  0  0  0  0
  190.2870  177.3630  139.0330 C   0  0  2  0  0  3  0  0  0  0  0  0
  188.3300  177.9900  142.7650 C   0  0  1  0  0  3  0  0  0  0  0  0
  188.8100  176.9870  139.3230 C   0  0  1  0  0  3  0  0  0  0  0  0
  193.1710  176.7600  138.8270 C   0  0  0  0  0  2  0  0  0  0  0  0
  192.5660  177.4440  140.0680 C   0  0  0  0  0  2  0  0  0  0  0  0
  187.8990  175.9230  135.7590 C   0  0  0  0  0  2  0  0  0  0  0  0
  192.1660  175.9040  138.0450 C   0  0  0  0  0  2  0  0  0  0  0  0
  189.8460  175.8480  137.0440 C   0  0  2  0  0  3  0  0  0  0  0  0
  187.1950  178.3880  137.9400 C   0  0  0  0  0  2  0  0  0  0  0  0
  184.8770  178.1220  138.7130 C   0  0  0  0  0  3  0  0  0  0  0  0
  185.7280  178.2380  137.6950 C   0  0  0  0  0  3  0  0  0  0  0  0
  183.4210  177.9670  138.4510 C   0  0  0  0  0  2  0  0  0  0  0  0
  183.0140  176.5270  138.7010 C   0  0  0  0  0  2  0  0  0  0  0  0
  182.6870  175.8290  137.3910 C   0  0  0  0  0  2  0  0  0  0  0  0
  184.1450  172.1490  137.0020 C   0  0  0  0  0  3  0  0  0  0  0  0
  184.7590  174.3430  137.5850 C   0  0  0  0  0  3  0  0  0  0  0  0
  183.4220  174.5370  137.2790 C   0  0  0  0  0  0  0  0  0  0  0  0
  185.1580  173.0080  137.4240 C   0  0  0  0  0  3  0  0  0  0  0  0
  182.7470  173.0710  136.8330 S   0  0  0  0  0  0  0  0  0  0  0  0
  1 22  1  1  0  0  0
  1 16  1  0  0  0  0
  2 23  1  0  0  0  0
  3  7  1  1  0  0  0
  3 15  1  0  0  0  0
  4 20  1  6  0  0  0
  4 14  1  0  0  0  0
  5 10  1  6  0  0  0
  5 17  1  0  0  0  0
  6  7  1  0  0  0  0
  8 15  1  0  0  0  0
  9 21  1  6  0  0  0
  9 23  1  0  0  0  0
  9 12  1  0  0  0  0
 11  8  1  0  0  0  0
 12 24  1  6  0  0  0
 12 18  1  0  0  0  0
 13  2  1  0  0  0  0
 13 21  1  0  0  0  0
 14  5  1  0  0  0  0
 14 11  1  1  0  0  0
 16 18  1  0  0  0  0
 16  4  1  0  0  0  0
 17  6  1  0  0  0  0
 17  3  1  0  0  0  0
 18 10  1  0  0  0  0
 19 20  1  0  0  0  0
 22 19  1  0  0  0  0
 23  1  1  0  0  0  0
 26 24  1  0  0  0  0
 26 25  2  0  0  0  0
 27 28  1  0  0  0  0
 27 25  1  0  0  0  0
 29 28  1  0  0  0  0
 30 33  2  0  0  0  0
 32 29  1  0  0  0  0
 32 31  2  0  0  0  0
 33 31  1  0  0  0  0
 34 30  1  0  0  0  0
 34 32  1  0  0  0  0
M  END
>  <MODEL>
8

>  <REMARK>
 VINA RESULT:      -7.9      3.219      7.347
  Name = 
  6 active torsions:
  status: ('A' for Active; 'I' for Inactive)
    1  A    between atoms: C_10  and  C_17
    2  A    between atoms: C_13  and  C_24
    3  A    between atoms: C_17  and  C_28
    4  A    between atoms: C_22  and  C_24
    5  A    between atoms: C_28  and  C_29
    6  A    between atoms: C_29  and  C_32
                            x       y       z     vdW  Elec       q    Type
                         _______ _______ _______ _____ _____    ______ ____

>  <TORSDO>
F 6

$$$$
=
 OpenBabel11122412193D

 34 40  0  0  1  0  0  0  0  0999 V2000
  190.8790  176.7180  137.7130 C   0  0  1  0  0  3  0  0  0  0  0  0
  190.2320  175.4080  135.6900 N   0  0  0  0  0  2  0  0  0  0  0  0
  188.7280  177.1420  143.9330 C   0  0  2  0  0  3  0  0  0  0  0  0
  191.1120  177.0520  140.2500 C   0  0  1  0  0  3  0  0  0  0  0  0
  188.9840  177.3390  141.5300 C   0  0  1  0  0  3  0  0  0  0  0  0
  186.8920  177.7370  143.0400 C   0  0  0  0  0  2  0  0  0  0  0  0
  187.2850  177.1260  144.3820 C   0  0  0  0  0  2  0  0  0  0  0  0
  190.9970  178.2440  143.9460 C   0  0  0  0  0  2  0  0  0  0  0  0
  188.6290  176.7480  136.7650 C   0  0  2  0  0  3  0  0  0  0  0  0
  188.3260  177.7840  140.3670 O   0  0  0  0  0  0  0  0  0  0  0  0
  191.2720  177.3020  142.7550 C   0  0  0  0  0  2  0  0  0  0  0  0
  187.8710  177.0620  138.0610 C   0  0  1  0  0  3  0  0  0  0  0  0
  188.9770  175.2810  134.9420 C   0  0  0  0  0  2  0  0  0  0  0  0
  190.4960  177.7170  141.4830 C   0  0  1  0  0  3  0  0  0  0  0  0
  189.7490  177.8780  144.7810 C   0  0  0  0  0  2  0  0  0  0  0  0
  190.2870  177.3760  138.9990 C   0  0  2  0  0  3  0  0  0  0  0  0
  188.3590  177.9890  142.7480 C   0  0  1  0  0  3  0  0  0  0  0  0
  188.8100  177.0080  139.2960 C   0  0  1  0  0  3  0  0  0  0  0  0
  193.1660  176.7580  138.7700 C   0  0  0  0  0  2  0  0  0  0  0  0
  192.5730  177.4360  140.0190 C   0  0  0  0  0  2  0  0  0  0  0  0
  187.8690  175.9740  135.7300 C   0  0  0  0  0  2  0  0  0  0  0  0
  192.1510  175.9130  137.9880 C   0  0  0  0  0  2  0  0  0  0  0  0
  189.8240  175.8780  137.0030 C   0  0  2  0  0  3  0  0  0  0  0  0
  187.1950  178.4270  137.9330 C   0  0  0  0  0  2  0  0  0  0  0  0
  184.9220  177.5070  137.7630 C   0  0  0  0  0  3  0  0  0  0  0  0
  185.7580  178.3650  138.3430 C   0  0  0  0  0  3  0  0  0  0  0  0
  183.4940  177.4660  138.1790 C   0  0  0  0  0  2  0  0  0  0  0  0
  183.3850  177.8360  139.6470 C   0  0  0  0  0  2  0  0  0  0  0  0
  182.0600  177.3590  140.2200 C   0  0  0  0  0  2  0  0  0  0  0  0
  180.0530  180.1280  142.2510 C   0  0  0  0  0  3  0  0  0  0  0  0
  180.6670  179.4980  140.0700 C   0  0  0  0  0  3  0  0  0  0  0  0
  181.2900  178.4980  140.7970 C   0  0  0  0  0  0  0  0  0  0  0  0
  179.9810  180.4090  140.8870 C   0  0  0  0  0  3  0  0  0  0  0  0
  180.9790  178.7330  142.4250 S   0  0  0  0  0  0  0  0  0  0  0  0
  1 22  1  1  0  0  0
  1 16  1  0  0  0  0
  2 23  1  0  0  0  0
  3  7  1  1  0  0  0
  3 15  1  0  0  0  0
  4 20  1  6  0  0  0
  4 14  1  0  0  0  0
  5 10  1  6  0  0  0
  5 17  1  0  0  0  0
  6  7  1  0  0  0  0
  8 15  1  0  0  0  0
  9 21  1  6  0  0  0
  9 23  1  0  0  0  0
  9 12  1  0  0  0  0
 11  8  1  0  0  0  0
 12 24  1  6  0  0  0
 12 18  1  0  0  0  0
 13  2  1  0  0  0  0
 13 21  1  0  0  0  0
 14  5  1  0  0  0  0
 14 11  1  1  0  0  0
 16 18  1  0  0  0  0
 16  4  1  0  0  0  0
 17  6  1  0  0  0  0
 17  3  1  0  0  0  0
 18 10  1  0  0  0  0
 19 20  1  0  0  0  0
 22 19  1  0  0  0  0
 23  1  1  0  0  0  0
 24 26  1  0  0  0  0
 25 27  1  0  0  0  0
 25 26  2  0  0  0  0
 27 28  1  0  0  0  0
 28 29  1  0  0  0  0
 29 32  1  0  0  0  0
 30 34  1  0  0  0  0
 31 32  2  0  0  0  0
 31 33  1  0  0  0  0
 32 34  1  0  0  0  0
 33 30  2  0  0  0  0
M  END
>  <MODEL>
9

>  <REMARK>
 VINA RESULT:      -7.7      3.389      7.751
  Name = 
  6 active torsions:
  status: ('A' for Active; 'I' for Inactive)
    1  A    between atoms: C_10  and  C_17
    2  A    between atoms: C_13  and  C_24
    3  A    between atoms: C_17  and  C_28
    4  A    between atoms: C_22  and  C_24
    5  A    between atoms: C_28  and  C_29
    6  A    between atoms: C_29  and  C_32
                            x       y       z     vdW  Elec       q    Type
                         _______ _______ _______ _____ _____    ______ ____

>  <TORSDO>
F 6

$$$$
