=
 OpenBabel11122411573D

 28 32  0  0  1  0  0  0  0  0999 V2000
  179.9320  179.3790  136.9760 C   0  0  0  0  0  0  0  0  0  0  0  0
  181.2060  174.7200  138.7710 O   0  0  0  0  0  1  0  0  0  0  0  0
  183.8710  180.5660  138.9530 O   0  0  0  0  0  0  0  0  0  0  0  0
  181.3740  179.6600  134.5940 C   0  0  0  0  0  3  0  0  0  0  0  0
  184.2250  178.2600  138.4240 C   0  0  0  0  0  0  0  0  0  0  0  0
  179.2610  179.2590  138.1930 O   0  0  0  0  0  0  0  0  0  0  0  0
  180.1360  174.3510  136.6910 C   0  0  0  0  0  1  0  0  0  0  0  0
  181.4310  174.7140  137.3910 C   0  0  1  0  0  0  0  0  0  0  0  0
  183.7940  174.0270  137.6610 C   0  0  1  0  0  3  0  0  0  0  0  0
  181.9020  176.1070  136.8820 C   0  0  2  0  0  3  0  0  0  0  0  0
  181.1500  181.5780  138.7190 F   0  0  0  0  0  0  0  0  0  0  0  0
  181.9740  177.5700  138.7930 C   0  0  1  0  0  3  0  0  0  0  0  0
  184.2650  175.3070  136.9920 C   0  0  0  0  0  2  0  0  0  0  0  0
  182.4570  173.6410  137.0650 C   0  0  0  0  0  2  0  0  0  0  0  0
  180.4690  180.8020  139.6400 C   0  0  2  0  0  3  0  0  0  0  0  0
  180.8670  178.3980  136.6130 C   0  0  0  0  0  0  0  0  0  0  0  0
  183.4320  179.3940  138.8060 C   0  0  0  0  0  0  0  0  0  0  0  0
  184.7990  172.9250  137.4050 C   0  0  0  0  0  1  0  0  0  0  0  0
  181.3270  179.6380  140.1450 C   0  0  0  0  0  2  0  0  0  0  0  0
  181.5950  178.5560  135.4200 C   0  0  0  0  0  3  0  0  0  0  0  0
  179.7170  180.4890  136.1470 C   0  0  0  0  0  3  0  0  0  0  0  0
  180.4330  180.6250  134.9560 C   0  0  0  0  0  3  0  0  0  0  0  0
  179.1150  180.3530  139.0880 C   0  0  0  0  0  2  0  0  0  0  0  0
  183.3880  177.0300  138.4680 C   0  0  1  0  0  3  0  0  0  0  0  0
  182.0960  179.0090  139.0710 N   0  0  0  0  0  0  0  0  0  0  0  0
  183.3190  176.4200  137.1440 N   0  0  2  0  0  0  0  0  0  0  0  0
  185.4500  178.2950  138.1360 O   0  0  0  0  0  0  0  0  0  0  0  0
  181.1190  177.2320  137.5540 C   0  0  1  0  0  3  0  0  0  0  0  0
  1  6  1  0  0  0  0
  4 22  2  0  0  0  0
  4 20  1  0  0  0  0
  5 24  1  0  0  0  0
  5 17  1  0  0  0  0
  6 23  1  0  0  0  0
  8  7  1  6  0  0  0
  8  2  1  0  0  0  0
  9 18  1  6  0  0  0
 10 26  1  0  0  0  0
 10  8  1  0  0  0  0
 10 28  1  0  0  0  0
 11 15  1  0  0  0  0
 12 25  1  0  0  0  0
 13 26  1  0  0  0  0
 13  9  1  0  0  0  0
 14  8  1  0  0  0  0
 14  9  1  0  0  0  0
 15 19  1  0  0  0  0
 16  1  1  0  0  0  0
 16 28  1  0  0  0  0
 17  3  2  0  0  0  0
 17 25  1  0  0  0  0
 20 16  2  0  0  0  0
 21  1  2  0  0  0  0
 22 21  1  0  0  0  0
 23 15  1  0  0  0  0
 24 12  1  0  0  0  0
 25 19  1  0  0  0  0
 26 24  1  0  0  0  0
 27  5  2  0  0  0  0
 28 12  1  0  0  0  0
M  END
>  <MODEL>
1

>  <REMARK>
 VINA RESULT:      -5.2      0.000      0.000
  Name = 
  0 active torsions:
  status: ('A' for Active; 'I' for Inactive)
                            x       y       z     vdW  Elec       q    Type
                         _______ _______ _______ _____ _____    ______ ____

>  <TORSDO>
F 0

$$$$
=
 OpenBabel11122411573D

 28 32  0  0  1  0  0  0  0  0999 V2000
  180.7750  177.8230  137.9480 C   0  0  0  0  0  0  0  0  0  0  0  0
  183.9430  173.7970  137.4010 O   0  0  0  0  0  1  0  0  0  0  0  0
  184.5980  179.8880  139.3430 O   0  0  0  0  0  0  0  0  0  0  0  0
  181.1350  179.3520  135.6310 C   0  0  0  0  0  3  0  0  0  0  0  0
  185.4250  178.1960  137.8690 C   0  0  0  0  0  0  0  0  0  0  0  0
  180.6410  177.0890  139.1260 O   0  0  0  0  0  0  0  0  0  0  0  0
  182.3800  173.6450  135.6290 C   0  0  0  0  0  1  0  0  0  0  0  0
  183.6630  174.2870  136.1200 C   0  0  1  0  0  0  0  0  0  0  0  0
  186.0600  174.5840  135.5810 C   0  0  1  0  0  3  0  0  0  0  0  0
  183.4800  175.8310  136.1270 C   0  0  2  0  0  3  0  0  0  0  0  0
  181.7970  179.7140  140.1230 F   0  0  0  0  0  0  0  0  0  0  0  0
  183.7690  176.5680  138.4010 C   0  0  1  0  0  3  0  0  0  0  0  0
  185.8560  176.0780  135.3980 C   0  0  0  0  0  2  0  0  0  0  0  0
  184.7830  173.8750  135.1800 C   0  0  0  0  0  2  0  0  0  0  0  0
  181.7510  178.4960  140.7770 C   0  0  2  0  0  3  0  0  0  0  0  0
  181.7740  177.4650  137.0300 C   0  0  0  0  0  0  0  0  0  0  0  0
  184.5120  178.7390  138.8350 C   0  0  0  0  0  0  0  0  0  0  0  0
  187.1950  174.1190  134.6950 C   0  0  0  0  0  1  0  0  0  0  0  0
  183.0410  177.6950  140.5740 C   0  0  0  0  0  2  0  0  0  0  0  0
  181.9540  178.2480  135.8760 C   0  0  0  0  0  3  0  0  0  0  0  0
  179.9580  178.9350  137.7010 C   0  0  0  0  0  3  0  0  0  0  0  0
  180.1340  179.6940  136.5430 C   0  0  0  0  0  3  0  0  0  0  0  0
  180.4930  177.7130  140.3950 C   0  0  0  0  0  2  0  0  0  0  0  0
  185.0730  176.7760  137.5930 C   0  0  1  0  0  3  0  0  0  0  0  0
  183.5380  177.7800  139.2020 N   0  0  0  0  0  0  0  0  0  0  0  0
  184.7330  176.6080  136.1840 N   0  0  2  0  0  0  0  0  0  0  0  0
  186.4010  178.8130  137.3660 O   0  0  0  0  0  0  0  0  0  0  0  0
  182.6800  176.2870  137.3450 C   0  0  1  0  0  3  0  0  0  0  0  0
  1  6  1  0  0  0  0
  4 20  2  0  0  0  0
  4 22  1  0  0  0  0
  5 17  1  0  0  0  0
  6 23  1  0  0  0  0
  8  7  1  6  0  0  0
  8 10  1  0  0  0  0
  8  2  1  0  0  0  0
  9 18  1  6  0  0  0
 10 26  1  0  0  0  0
 10 28  1  0  0  0  0
 11 15  1  0  0  0  0
 12 25  1  0  0  0  0
 13  9  1  0  0  0  0
 13 26  1  0  0  0  0
 14  9  1  0  0  0  0
 14  8  1  0  0  0  0
 16 28  1  0  0  0  0
 16  1  2  0  0  0  0
 17 25  1  0  0  0  0
 17  3  2  0  0  0  0
 19 15  1  0  0  0  0
 20 16  1  0  0  0  0
 21  1  1  0  0  0  0
 22 21  2  0  0  0  0
 23 15  1  0  0  0  0
 24  5  1  0  0  0  0
 24 12  1  0  0  0  0
 25 19  1  0  0  0  0
 26 24  1  0  0  0  0
 27  5  2  0  0  0  0
 28 12  1  0  0  0  0
M  END
>  <MODEL>
2

>  <REMARK>
 VINA RESULT:      -5.1      1.793      2.276
  Name = 
  0 active torsions:
  status: ('A' for Active; 'I' for Inactive)
                            x       y       z     vdW  Elec       q    Type
                         _______ _______ _______ _____ _____    ______ ____

>  <TORSDO>
F 0

$$$$
=
 OpenBabel11122411573D

 28 32  0  0  1  0  0  0  0  0999 V2000
  180.1670  179.5310  139.2160 C   0  0  0  0  0  0  0  0  0  0  0  0
  183.2800  175.7720  137.5660 O   0  0  0  0  0  1  0  0  0  0  0  0
  183.1210  179.6440  142.6930 O   0  0  0  0  0  0  0  0  0  0  0  0
  181.4260  181.9090  138.4440 C   0  0  0  0  0  3  0  0  0  0  0  0
  184.4640  178.8220  140.8920 C   0  0  0  0  0  0  0  0  0  0  0  0
  179.5730  178.3460  139.6500 O   0  0  0  0  0  0  0  0  0  0  0  0
  182.5540  176.9190  135.6260 C   0  0  0  0  0  1  0  0  0  0  0  0
  183.5350  176.9020  136.7820 C   0  0  1  0  0  0  0  0  0  0  0  0
  185.9500  176.8810  137.3270 C   0  0  1  0  0  3  0  0  0  0  0  0
  183.3690  178.2140  137.6000 C   0  0  2  0  0  3  0  0  0  0  0  0
  180.2420  179.7340  142.2670 F   0  0  0  0  0  0  0  0  0  0  0  0
  182.7280  177.5800  139.8320 C   0  0  1  0  0  3  0  0  0  0  0  0
  185.8390  178.2550  137.9660 C   0  0  0  0  0  2  0  0  0  0  0  0
  184.9370  176.7940  136.2050 C   0  0  0  0  0  2  0  0  0  0  0  0
  179.9350  178.4010  142.0580 C   0  0  2  0  0  3  0  0  0  0  0  0
  181.4490  179.4830  138.6460 C   0  0  0  0  0  0  0  0  0  0  0  0
  183.2430  178.9780  141.6300 C   0  0  0  0  0  0  0  0  0  0  0  0
  187.3430  176.6970  136.7660 C   0  0  0  0  0  1  0  0  0  0  0  0
  181.1970  177.5510  141.8750 C   0  0  0  0  0  2  0  0  0  0  0  0
  182.0770  180.6860  138.2750 C   0  0  0  0  0  3  0  0  0  0  0  0
  179.5200  180.7620  139.3900 C   0  0  0  0  0  3  0  0  0  0  0  0
  180.1460  181.9470  139.0000 C   0  0  0  0  0  3  0  0  0  0  0  0
  178.9320  178.2390  140.9140 C   0  0  0  0  0  2  0  0  0  0  0  0
  184.2470  177.8740  139.7650 C   0  0  1  0  0  3  0  0  0  0  0  0
  182.2000  178.2190  141.0470 N   0  0  0  0  0  0  0  0  0  0  0  0
  184.4970  178.5410  138.4920 N   0  0  2  0  0  0  0  0  0  0  0  0
  185.5610  179.3700  141.1800 O   0  0  0  0  0  0  0  0  0  0  0  0
  182.1510  178.1420  138.5160 C   0  0  1  0  0  3  0  0  0  0  0  0
  1 21  1  0  0  0  0
  1  6  1  0  0  0  0
  4 22  1  0  0  0  0
  5 27  2  0  0  0  0
  5 17  1  0  0  0  0
  6 23  1  0  0  0  0
  8  7  1  6  0  0  0
  8  2  1  0  0  0  0
  8 10  1  0  0  0  0
  9 18  1  6  0  0  0
  9 13  1  0  0  0  0
 10 26  1  0  0  0  0
 10 28  1  0  0  0  0
 12 25  1  0  0  0  0
 13 26  1  0  0  0  0
 14  8  1  0  0  0  0
 14  9  1  0  0  0  0
 15 11  1  0  0  0  0
 16  1  2  0  0  0  0
 17  3  2  0  0  0  0
 19 15  1  0  0  0  0
 20  4  2  0  0  0  0
 20 16  1  0  0  0  0
 22 21  2  0  0  0  0
 23 15  1  0  0  0  0
 24 12  1  0  0  0  0
 24  5  1  0  0  0  0
 25 17  1  0  0  0  0
 25 19  1  0  0  0  0
 26 24  1  0  0  0  0
 28 16  1  0  0  0  0
 28 12  1  0  0  0  0
M  END
>  <MODEL>
3

>  <REMARK>
 VINA RESULT:      -4.5      2.576      3.161
  Name = 
  0 active torsions:
  status: ('A' for Active; 'I' for Inactive)
                            x       y       z     vdW  Elec       q    Type
                         _______ _______ _______ _____ _____    ______ ____

>  <TORSDO>
F 0

$$$$
=
 OpenBabel11122411573D

 28 32  0  0  1  0  0  0  0  0999 V2000
  187.2210  177.6770  137.3490 C   0  0  0  0  0  0  0  0  0  0  0  0
  186.4590  172.6190  137.9680 O   0  0  0  0  0  1  0  0  0  0  0  0
  191.4210  176.3040  136.2090 O   0  0  0  0  0  0  0  0  0  0  0  0
  186.9320  178.1260  134.6010 C   0  0  0  0  0  3  0  0  0  0  0  0
  190.0780  174.4120  135.6320 C   0  0  0  0  0  0  0  0  0  0  0  0
  187.4220  177.4400  138.7090 O   0  0  0  0  0  0  0  0  0  0  0  0
  184.4260  173.4890  137.1190 C   0  0  0  0  0  1  0  0  0  0  0  0
  185.8200  172.9980  136.7820 C   0  0  1  0  0  0  0  0  0  0  0  0
  187.0590  171.3240  135.4430 C   0  0  1  0  0  3  0  0  0  0  0  0
  186.5920  174.1370  136.0560 C   0  0  2  0  0  3  0  0  0  0  0  0
  190.1610  178.3900  137.8030 F   0  0  0  0  0  0  0  0  0  0  0  0
  188.5120  174.6650  137.4100 C   0  0  1  0  0  3  0  0  0  0  0  0
  187.6780  172.4250  134.5990 C   0  0  0  0  0  2  0  0  0  0  0  0
  185.6840  171.7780  135.8860 C   0  0  0  0  0  2  0  0  0  0  0  0
  189.8300  177.7110  138.9630 C   0  0  2  0  0  3  0  0  0  0  0  0
  187.0580  176.5850  136.4820 C   0  0  0  0  0  0  0  0  0  0  0  0
  190.4240  175.5640  136.4150 C   0  0  0  0  0  0  0  0  0  0  0  0
  186.9320  170.0640  134.6140 C   0  0  0  0  0  1  0  0  0  0  0  0
  190.0050  176.1980  138.8030 C   0  0  0  0  0  2  0  0  0  0  0  0
  186.9270  176.8230  135.1020 C   0  0  0  0  0  3  0  0  0  0  0  0
  187.2320  178.9840  136.8410 C   0  0  0  0  0  3  0  0  0  0  0  0
  187.0820  179.2070  135.4710 C   0  0  0  0  0  3  0  0  0  0  0  0
  188.4340  178.1050  139.4520 C   0  0  0  0  0  2  0  0  0  0  0  0
  188.9090  173.7240  136.2460 C   0  0  1  0  0  3  0  0  0  0  0  0
  189.5330  175.7180  137.5050 N   0  0  0  0  0  0  0  0  0  0  0  0
  187.7880  173.7050  135.3110 N   0  0  2  0  0  0  0  0  0  0  0  0
  190.6950  174.0190  134.6070 O   0  0  0  0  0  0  0  0  0  0  0  0
  187.1020  175.1770  137.0500 C   0  0  1  0  0  3  0  0  0  0  0  0
  1  6  1  0  0  0  0
  3 17  2  0  0  0  0
  4 20  2  0  0  0  0
  4 22  1  0  0  0  0
  5 24  1  0  0  0  0
  5 17  1  0  0  0  0
  6 23  1  0  0  0  0
  8  7  1  1  0  0  0
  8  2  1  0  0  0  0
  9 18  1  6  0  0  0
  9 14  1  0  0  0  0
 10  8  1  0  0  0  0
 10 28  1  0  0  0  0
 11 15  1  0  0  0  0
 12 25  1  0  0  0  0
 13 26  1  0  0  0  0
 13  9  1  0  0  0  0
 14  8  1  0  0  0  0
 15 23  1  0  0  0  0
 16 28  1  0  0  0  0
 16  1  2  0  0  0  0
 17 25  1  0  0  0  0
 19 15  1  0  0  0  0
 20 16  1  0  0  0  0
 21  1  1  0  0  0  0
 22 21  2  0  0  0  0
 24 12  1  0  0  0  0
 25 19  1  0  0  0  0
 26 10  1  0  0  0  0
 26 24  1  0  0  0  0
 27  5  2  0  0  0  0
 28 12  1  0  0  0  0
M  END
>  <MODEL>
4

>  <REMARK>
 VINA RESULT:      -4.4      5.671      7.073
  Name = 
  0 active torsions:
  status: ('A' for Active; 'I' for Inactive)
                            x       y       z     vdW  Elec       q    Type
                         _______ _______ _______ _____ _____    ______ ____

>  <TORSDO>
F 0

$$$$
=
 OpenBabel11122411573D

 28 32  0  0  1  0  0  0  0  0999 V2000
  180.7600  178.7820  138.1860 C   0  0  0  0  0  0  0  0  0  0  0  0
  180.8150  173.6330  138.0070 O   0  0  0  0  0  1  0  0  0  0  0  0
  185.2910  178.2440  138.0760 O   0  0  0  0  0  0  0  0  0  0  0  0
  181.0810  179.6060  135.5300 C   0  0  0  0  0  3  0  0  0  0  0  0
  184.5040  176.2860  136.9500 C   0  0  0  0  0  0  0  0  0  0  0  0
  180.6590  178.3680  139.5140 O   0  0  0  0  0  0  0  0  0  0  0  0
  178.9310  174.3130  136.7440 C   0  0  0  0  0  1  0  0  0  0  0  0
  180.4310  174.0920  136.7430 C   0  0  1  0  0  0  0  0  0  0  0  0
  182.2480  172.8510  135.6100 C   0  0  1  0  0  3  0  0  0  0  0  0
  181.1330  175.4330  136.3850 C   0  0  2  0  0  3  0  0  0  0  0  0
  183.3140  179.8450  139.4930 F   0  0  0  0  0  0  0  0  0  0  0  0
  182.5290  176.0230  138.2560 C   0  0  1  0  0  3  0  0  0  0  0  0
  182.8420  174.1500  135.0930 C   0  0  0  0  0  2  0  0  0  0  0  0
  180.7470  173.0210  135.7140 C   0  0  0  0  0  2  0  0  0  0  0  0
  182.8370  178.9520  140.4370 C   0  0  2  0  0  3  0  0  0  0  0  0
  181.0200  177.8270  137.1910 C   0  0  0  0  0  0  0  0  0  0  0  0
  184.4270  177.3400  137.9210 C   0  0  0  0  0  0  0  0  0  0  0  0
  182.5650  171.7310  134.6430 C   0  0  0  0  0  1  0  0  0  0  0  0
  183.3220  177.5250  140.1630 C   0  0  0  0  0  2  0  0  0  0  0  0
  181.1920  178.2540  135.8620 C   0  0  0  0  0  3  0  0  0  0  0  0
  180.6550  180.1390  137.8490 C   0  0  0  0  0  3  0  0  0  0  0  0
  180.8100  180.5480  136.5230 C   0  0  0  0  0  3  0  0  0  0  0  0
  181.3160  179.0530  140.5730 C   0  0  0  0  0  2  0  0  0  0  0  0
  183.3670  175.3450  137.1450 C   0  0  1  0  0  3  0  0  0  0  0  0
  183.2830  177.1890  138.7400 N   0  0  0  0  0  0  0  0  0  0  0  0
  182.5360  175.3050  135.9470 N   0  0  2  0  0  0  0  0  0  0  0  0
  185.4170  176.1540  136.0920 O   0  0  0  0  0  0  0  0  0  0  0  0
  181.1810  176.3700  137.5890 C   0  0  1  0  0  3  0  0  0  0  0  0
  1  6  1  0  0  0  0
  4 20  2  0  0  0  0
  4 22  1  0  0  0  0
  5 24  1  0  0  0  0
  5 17  1  0  0  0  0
  6 23  1  0  0  0  0
  8  7  1  1  0  0  0
  8  2  1  0  0  0  0
  9 18  1  6  0  0  0
  9 14  1  0  0  0  0
 10  8  1  0  0  0  0
 10 28  1  0  0  0  0
 11 15  1  0  0  0  0
 12 25  1  0  0  0  0
 13  9  1  0  0  0  0
 13 26  1  0  0  0  0
 14  8  1  0  0  0  0
 15 23  1  0  0  0  0
 16 28  1  0  0  0  0
 16  1  2  0  0  0  0
 17  3  2  0  0  0  0
 17 25  1  0  0  0  0
 19 15  1  0  0  0  0
 20 16  1  0  0  0  0
 21  1  1  0  0  0  0
 22 21  2  0  0  0  0
 24 12  1  0  0  0  0
 25 19  1  0  0  0  0
 26 10  1  0  0  0  0
 26 24  1  0  0  0  0
 27  5  2  0  0  0  0
 28 12  1  0  0  0  0
M  END
>  <MODEL>
5

>  <REMARK>
 VINA RESULT:      -4.4      1.606      2.211
  Name = 
  0 active torsions:
  status: ('A' for Active; 'I' for Inactive)
                            x       y       z     vdW  Elec       q    Type
                         _______ _______ _______ _____ _____    ______ ____

>  <TORSDO>
F 0

$$$$
=
 OpenBabel11122411573D

 28 32  0  0  1  0  0  0  0  0999 V2000
  181.8050  179.3170  138.6930 C   0  0  0  0  0  0  0  0  0  0  0  0
  185.1640  177.0300  135.5260 O   0  0  0  0  0  1  0  0  0  0  0  0
  179.1720  175.7890  137.4900 O   0  0  0  0  0  0  0  0  0  0  0  0
  182.0410  177.9430  141.1200 C   0  0  0  0  0  3  0  0  0  0  0  0
  181.3790  174.9040  137.2360 C   0  0  0  0  0  0  0  0  0  0  0  0
  181.6470  179.9610  137.4660 O   0  0  0  0  0  0  0  0  0  0  0  0
  186.4490  177.9540  137.2870 C   0  0  0  0  0  1  0  0  0  0  0  0
  185.5910  176.7880  136.8360 C   0  0  1  0  0  0  0  0  0  0  0  0
  185.6010  174.3350  136.5050 C   0  0  1  0  0  3  0  0  0  0  0  0
  184.3880  176.6430  137.8110 C   0  0  2  0  0  3  0  0  0  0  0  0
  178.9310  178.6650  137.8720 F   0  0  0  0  0  0  0  0  0  0  0  0
  182.3830  176.9400  136.5110 C   0  0  1  0  0  3  0  0  0  0  0  0
  184.5570  174.1610  137.5940 C   0  0  0  0  0  2  0  0  0  0  0  0
  186.4540  175.5380  136.8480 C   0  0  0  0  0  2  0  0  0  0  0  0
  179.4760  179.1630  136.7020 C   0  0  2  0  0  3  0  0  0  0  0  0
  182.6170  178.1750  138.7660 C   0  0  0  0  0  0  0  0  0  0  0  0
  180.3890  175.9430  137.2060 C   0  0  0  0  0  0  0  0  0  0  0  0
  186.4720  173.0990  136.4400 C   0  0  0  0  0  1  0  0  0  0  0  0
  180.1770  178.0670  135.8930 C   0  0  0  0  0  2  0  0  0  0  0  0
  182.7180  177.4850  139.9880 C   0  0  0  0  0  3  0  0  0  0  0  0
  181.1220  179.7690  139.8310 C   0  0  0  0  0  3  0  0  0  0  0  0
  181.2450  179.0870  141.0430 C   0  0  0  0  0  3  0  0  0  0  0  0
  180.3750  180.3690  136.9820 C   0  0  0  0  0  2  0  0  0  0  0  0
  182.6740  175.4350  136.7270 C   0  0  1  0  0  3  0  0  0  0  0  0
  180.9470  177.1580  136.7410 N   0  0  0  0  0  0  0  0  0  0  0  0
  183.6980  175.3410  137.7630 N   0  0  2  0  0  0  0  0  0  0  0  0
  181.1730  173.7150  137.5980 O   0  0  0  0  0  0  0  0  0  0  0  0
  183.3050  177.6750  137.5070 C   0  0  1  0  0  3  0  0  0  0  0  0
  1 16  2  0  0  0  0
  1 21  1  0  0  0  0
  2  8  1  0  0  0  0
  5 27  2  0  0  0  0
  6  1  1  0  0  0  0
  8 14  1  0  0  0  0
  8  7  1  1  0  0  0
  8 10  1  0  0  0  0
  9 18  1  1  0  0  0
  9 14  1  0  0  0  0
  9 13  1  0  0  0  0
 12 24  1  0  0  0  0
 12 25  1  0  0  0  0
 12 28  1  0  0  0  0
 13 26  1  0  0  0  0
 15 23  1  0  0  0  0
 15 11  1  0  0  0  0
 16 20  1  0  0  0  0
 17  5  1  0  0  0  0
 17  3  2  0  0  0  0
 19 15  1  0  0  0  0
 19 25  1  0  0  0  0
 20  4  2  0  0  0  0
 21 22  2  0  0  0  0
 22  4  1  0  0  0  0
 23  6  1  0  0  0  0
 24  5  1  0  0  0  0
 24 26  1  0  0  0  0
 25 17  1  0  0  0  0
 26 10  1  0  0  0  0
 28 10  1  0  0  0  0
 28 16  1  0  0  0  0
M  END
>  <MODEL>
6

>  <REMARK>
 VINA RESULT:      -4.4      1.806      4.244
  Name = 
  0 active torsions:
  status: ('A' for Active; 'I' for Inactive)
                            x       y       z     vdW  Elec       q    Type
                         _______ _______ _______ _____ _____    ______ ____

>  <TORSDO>
F 0

$$$$
=
 OpenBabel11122411573D

 28 32  0  0  1  0  0  0  0  0999 V2000
  185.3870  174.9190  136.6790 C   0  0  0  0  0  0  0  0  0  0  0  0
  182.5930  177.5060  140.1490 O   0  0  0  0  0  1  0  0  0  0  0  0
  181.3250  174.4120  134.6620 O   0  0  0  0  0  0  0  0  0  0  0  0
  185.8620  176.7500  134.6150 C   0  0  0  0  0  3  0  0  0  0  0  0
  181.0560  176.4570  135.8710 C   0  0  0  0  0  0  0  0  0  0  0  0
  185.0990  173.9930  137.6810 O   0  0  0  0  0  0  0  0  0  0  0  0
  184.6750  178.6260  140.0180 C   0  0  0  0  0  1  0  0  0  0  0  0
  183.3040  178.4480  139.3970 C   0  0  1  0  0  0  0  0  0  0  0  0
  181.2460  179.6670  138.7600 C   0  0  1  0  0  3  0  0  0  0  0  0
  183.4780  177.9870  137.9220 C   0  0  2  0  0  3  0  0  0  0  0  0
  183.6770  172.8080  135.2730 F   0  0  0  0  0  0  0  0  0  0  0  0
  182.4180  175.8340  137.7240 C   0  0  1  0  0  3  0  0  0  0  0  0
  181.5050  179.3830  137.2910 C   0  0  0  0  0  2  0  0  0  0  0  0
  182.5790  179.7820  139.4680 C   0  0  0  0  0  2  0  0  0  0  0  0
  183.4890  172.5100  136.6110 C   0  0  2  0  0  3  0  0  0  0  0  0
  184.7680  176.1790  136.7140 C   0  0  0  0  0  0  0  0  0  0  0  0
  181.5780  175.1370  135.6600 C   0  0  0  0  0  0  0  0  0  0  0  0
  180.4880  180.9700  138.8950 C   0  0  0  0  0  1  0  0  0  0  0  0
  182.3470  173.3310  137.2190 C   0  0  0  0  0  2  0  0  0  0  0  0
  185.0040  177.0850  135.6650 C   0  0  0  0  0  3  0  0  0  0  0  0
  186.2420  174.5850  135.6190 C   0  0  0  0  0  3  0  0  0  0  0  0
  186.4830  175.5010  134.5940 C   0  0  0  0  0  3  0  0  0  0  0  0
  184.7980  172.6340  137.3930 C   0  0  0  0  0  2  0  0  0  0  0  0
  181.4780  176.9510  137.2100 C   0  0  1  0  0  3  0  0  0  0  0  0
  182.3600  174.7210  136.7640 N   0  0  0  0  0  0  0  0  0  0  0  0
  182.2870  178.1580  137.0700 N   0  0  2  0  0  0  0  0  0  0  0  0
  180.3190  177.0840  135.0650 O   0  0  0  0  0  0  0  0  0  0  0  0
  183.8060  176.4980  137.8450 C   0  0  1  0  0  3  0  0  0  0  0  0
  1 16  1  0  0  0  0
  1  6  1  0  0  0  0
  3 17  2  0  0  0  0
  4 20  1  0  0  0  0
  5 24  1  0  0  0  0
  8 14  1  0  0  0  0
  8  7  1  1  0  0  0
  8  2  1  0  0  0  0
  9 18  1  6  0  0  0
  9 14  1  0  0  0  0
 10  8  1  0  0  0  0
 11 15  1  0  0  0  0
 12 28  1  0  0  0  0
 13  9  1  0  0  0  0
 15 19  1  0  0  0  0
 15 23  1  0  0  0  0
 16 28  1  0  0  0  0
 17  5  1  0  0  0  0
 17 25  1  0  0  0  0
 20 16  2  0  0  0  0
 21  1  2  0  0  0  0
 22  4  2  0  0  0  0
 22 21  1  0  0  0  0
 23  6  1  0  0  0  0
 24 12  1  0  0  0  0
 25 19  1  0  0  0  0
 25 12  1  0  0  0  0
 26 24  1  0  0  0  0
 26 13  1  0  0  0  0
 26 10  1  0  0  0  0
 27  5  2  0  0  0  0
 28 10  1  0  0  0  0
M  END
>  <MODEL>
7

>  <REMARK>
 VINA RESULT:      -4.3      2.801      6.327
  Name = 
  0 active torsions:
  status: ('A' for Active; 'I' for Inactive)
                            x       y       z     vdW  Elec       q    Type
                         _______ _______ _______ _____ _____    ______ ____

>  <TORSDO>
F 0

$$$$
=
 OpenBabel11122411573D

 28 32  0  0  1  0  0  0  0  0999 V2000
  181.4850  177.0210  137.2170 C   0  0  0  0  0  0  0  0  0  0  0  0
  185.9060  175.5340  135.0280 O   0  0  0  0  0  1  0  0  0  0  0  0
  180.3610  172.6520  136.5280 O   0  0  0  0  0  0  0  0  0  0  0  0
  181.7030  176.2440  139.8980 C   0  0  0  0  0  3  0  0  0  0  0  0
  182.7420  172.5550  136.7250 C   0  0  0  0  0  0  0  0  0  0  0  0
  181.3570  177.3540  135.8690 O   0  0  0  0  0  0  0  0  0  0  0  0
  186.4950  177.1280  136.6780 C   0  0  0  0  0  1  0  0  0  0  0  0
  186.1450  175.6790  136.3990 C   0  0  1  0  0  0  0  0  0  0  0  0
  186.9870  173.3620  136.6170 C   0  0  1  0  0  3  0  0  0  0  0  0
  184.8940  175.2960  137.2410 C   0  0  2  0  0  3  0  0  0  0  0  0
  179.1600  175.2900  136.2410 F   0  0  0  0  0  0  0  0  0  0  0  0
  183.1660  174.6580  135.6900 C   0  0  1  0  0  3  0  0  0  0  0  0
  185.8730  173.0250  137.5930 C   0  0  0  0  0  2  0  0  0  0  0  0
  187.3410  174.8250  136.7830 C   0  0  0  0  0  2  0  0  0  0  0  0
  179.7220  175.7400  135.0590 C   0  0  2  0  0  3  0  0  0  0  0  0
  182.5890  176.2600  137.6300 C   0  0  0  0  0  0  0  0  0  0  0  0
  181.4980  173.1670  136.3570 C   0  0  0  0  0  0  0  0  0  0  0  0
  188.2000  172.5110  136.9240 C   0  0  0  0  0  1  0  0  0  0  0  0
  180.8660  174.8330  134.5940 C   0  0  0  0  0  2  0  0  0  0  0  0
  182.6810  175.8640  138.9770 C   0  0  0  0  0  3  0  0  0  0  0  0
  180.5020  177.3960  138.1440 C   0  0  0  0  0  3  0  0  0  0  0  0
  180.6140  177.0120  139.4820 C   0  0  0  0  0  3  0  0  0  0  0  0
  180.1290  177.2110  135.1670 C   0  0  0  0  0  2  0  0  0  0  0  0
  183.8730  173.4050  136.2620 C   0  0  1  0  0  3  0  0  0  0  0  0
  181.7180  174.4030  135.7020 N   0  0  0  0  0  0  0  0  0  0  0  0
  184.6700  173.8470  137.4010 N   0  0  2  0  0  0  0  0  0  0  0  0
  182.8600  171.4470  137.3130 O   0  0  0  0  0  0  0  0  0  0  0  0
  183.6140  175.8230  136.5980 C   0  0  1  0  0  3  0  0  0  0  0  0
  1 16  2  0  0  0  0
  1 21  1  0  0  0  0
  2  8  1  0  0  0  0
  5 27  2  0  0  0  0
  6  1  1  0  0  0  0
  8  7  1  1  0  0  0
  8 14  1  0  0  0  0
  8 10  1  0  0  0  0
  9 14  1  0  0  0  0
  9 18  1  1  0  0  0
  9 13  1  0  0  0  0
 10 26  1  0  0  0  0
 12 25  1  0  0  0  0
 12 24  1  0  0  0  0
 12 28  1  0  0  0  0
 15 23  1  0  0  0  0
 15 11  1  0  0  0  0
 16 20  1  0  0  0  0
 17  3  2  0  0  0  0
 17  5  1  0  0  0  0
 19 15  1  0  0  0  0
 19 25  1  0  0  0  0
 20  4  2  0  0  0  0
 21 22  2  0  0  0  0
 22  4  1  0  0  0  0
 23  6  1  0  0  0  0
 24  5  1  0  0  0  0
 24 26  1  0  0  0  0
 25 17  1  0  0  0  0
 26 13  1  0  0  0  0
 28 10  1  0  0  0  0
 28 16  1  0  0  0  0
M  END
>  <MODEL>
8

>  <REMARK>
 VINA RESULT:      -4.3      3.119      5.350
  Name = 
  0 active torsions:
  status: ('A' for Active; 'I' for Inactive)
                            x       y       z     vdW  Elec       q    Type
                         _______ _______ _______ _____ _____    ______ ____

>  <TORSDO>
F 0

$$$$
=
 OpenBabel11122411573D

 28 32  0  0  1  0  0  0  0  0999 V2000
  180.6410  179.1450  139.8920 C   0  0  0  0  0  0  0  0  0  0  0  0
  182.1680  174.6250  137.9460 O   0  0  0  0  0  1  0  0  0  0  0  0
  185.1180  179.6890  140.5840 O   0  0  0  0  0  0  0  0  0  0  0  0
  181.0260  180.9940  137.8270 C   0  0  0  0  0  3  0  0  0  0  0  0
  185.0550  178.2100  138.7050 C   0  0  0  0  0  0  0  0  0  0  0  0
  180.5050  178.2310  140.9380 O   0  0  0  0  0  0  0  0  0  0  0  0
  180.3310  175.3210  136.6240 C   0  0  0  0  0  1  0  0  0  0  0  0
  181.8220  175.4490  136.8700 C   0  0  1  0  0  0  0  0  0  0  0  0
  184.0360  175.1790  135.7980 C   0  0  1  0  0  3  0  0  0  0  0  0
  182.1540  176.9410  137.1630 C   0  0  2  0  0  3  0  0  0  0  0  0
  182.6170  180.1340  142.0070 F   0  0  0  0  0  0  0  0  0  0  0  0
  183.0950  177.0340  139.3770 C   0  0  1  0  0  3  0  0  0  0  0  0
  184.2960  176.6710  135.9070 C   0  0  0  0  0  2  0  0  0  0  0  0
  182.5470  174.9640  135.6260 C   0  0  0  0  0  2  0  0  0  0  0  0
  182.3040  178.8620  142.4540 C   0  0  2  0  0  3  0  0  0  0  0  0
  181.2750  178.7380  138.7080 C   0  0  0  0  0  0  0  0  0  0  0  0
  184.5700  178.7550  139.9410 C   0  0  0  0  0  0  0  0  0  0  0  0
  184.7680  174.6270  134.5940 C   0  0  0  0  0  1  0  0  0  0  0  0
  183.2010  177.8000  141.8110 C   0  0  0  0  0  2  0  0  0  0  0  0
  181.4750  179.6800  137.6820 C   0  0  0  0  0  3  0  0  0  0  0  0
  180.1970  180.4670  140.0350 C   0  0  0  0  0  3  0  0  0  0  0  0
  180.3840  181.3870  139.0020 C   0  0  0  0  0  3  0  0  0  0  0  0
  180.8120  178.5690  142.2830 C   0  0  0  0  0  2  0  0  0  0  0  0
  184.2160  177.0470  138.3090 C   0  0  1  0  0  3  0  0  0  0  0  0
  183.4270  178.0500  140.3880 N   0  0  0  0  0  0  0  0  0  0  0  0
  183.5770  177.3020  137.0220 N   0  0  2  0  0  0  0  0  0  0  0  0
  186.0630  178.6270  138.0740 O   0  0  0  0  0  0  0  0  0  0  0  0
  181.7930  177.3150  138.5980 C   0  0  1  0  0  3  0  0  0  0  0  0
  1 21  1  0  0  0  0
  1  6  1  0  0  0  0
  4 22  1  0  0  0  0
  5 17  1  0  0  0  0
  6 23  1  0  0  0  0
  8  7  1  6  0  0  0
  8 10  1  0  0  0  0
  8  2  1  0  0  0  0
  9 18  1  6  0  0  0
  9 13  1  0  0  0  0
 10 28  1  0  0  0  0
 11 15  1  0  0  0  0
 12 25  1  0  0  0  0
 13 26  1  0  0  0  0
 14  9  1  0  0  0  0
 14  8  1  0  0  0  0
 16  1  2  0  0  0  0
 17 25  1  0  0  0  0
 17  3  2  0  0  0  0
 19 15  1  0  0  0  0
 20  4  2  0  0  0  0
 20 16  1  0  0  0  0
 22 21  2  0  0  0  0
 23 15  1  0  0  0  0
 24  5  1  0  0  0  0
 24 12  1  0  0  0  0
 25 19  1  0  0  0  0
 26 10  1  0  0  0  0
 26 24  1  0  0  0  0
 27  5  2  0  0  0  0
 28 16  1  0  0  0  0
 28 12  1  0  0  0  0
M  END
>  <MODEL>
9

>  <REMARK>
 VINA RESULT:      -4.3      1.914      2.511
  Name = 
  0 active torsions:
  status: ('A' for Active; 'I' for Inactive)
                            x       y       z     vdW  Elec       q    Type
                         _______ _______ _______ _____ _____    ______ ____

>  <TORSDO>
F 0

$$$$
