=
 OpenBabel11122412013D

 28 32  0  0  1  0  0  0  0  0999 V2000
  181.9950  178.5100  140.2340 C   0  0  0  0  0  0  0  0  0  0  0  0
  181.8820  175.6300  139.2820 F   0  0  0  0  0  0  0  0  0  0  0  0
  187.1650  178.8680  136.7050 C   0  0  0  0  0  1  0  0  0  0  0  0
  179.7950  179.7300  138.9830 C   0  0  0  0  0  3  0  0  0  0  0  0
  185.9800  176.6990  137.0010 C   0  0  2  0  0  3  0  0  0  0  0  0
  183.1270  177.8840  140.9940 C   0  0  0  0  0  2  0  0  0  0  0  0
  180.1230  175.6940  137.7370 C   0  0  0  0  0  1  0  0  0  0  0  0
  181.6120  175.4760  137.9340 C   0  0  1  0  0  0  0  0  0  0  0  0
  182.3230  173.9960  136.2740 C   0  0  2  0  0  3  0  0  0  0  0  0
  182.3840  176.5550  137.0950 C   0  0  2  0  0  3  0  0  0  0  0  0
  186.3860  178.2660  140.9660 O   0  0  0  0  0  0  0  0  0  0  0  0
  184.2240  177.4480  138.3660 C   0  0  1  0  0  3  0  0  0  0  0  0
  183.7170  174.5810  136.1300 C   0  0  0  0  0  2  0  0  0  0  0  0
  181.9180  174.1240  137.6130 O   0  0  0  0  0  0  0  0  0  0  0  0
  185.3560  178.8760  140.5750 C   0  0  0  0  0  0  0  0  0  0  0  0
  181.8610  178.4490  138.8170 C   0  0  0  0  0  0  0  0  0  0  0  0
  186.4440  177.9690  137.6890 C   0  0  2  0  0  3  0  0  0  0  0  0
  182.3480  172.5930  135.9080 N   0  0  0  0  0  1  0  0  0  0  0  0
  185.3050  179.4210  139.2910 O   0  0  0  0  0  0  0  0  0  0  0  0
  180.7580  179.0710  138.2160 C   0  0  0  0  0  3  0  0  0  0  0  0
  181.0190  179.1730  140.9880 C   0  0  0  0  0  3  0  0  0  0  0  0
  179.9250  179.7800  140.3690 C   0  0  0  0  0  3  0  0  0  0  0  0
  184.1440  178.9280  141.4440 C   0  0  0  0  0  2  0  0  0  0  0  0
  184.7210  176.2860  137.6190 N   0  0  1  0  0  0  0  0  0  0  0  0
  185.1580  178.6130  138.1220 C   0  0  2  0  0  3  0  0  0  0  0  0
  183.7280  176.0460  136.5710 C   0  0  2  0  0  3  0  0  0  0  0  0
  187.0210  175.6090  137.1780 C   0  0  0  0  0  1  0  0  0  0  0  0
  182.8380  177.7820  137.8680 C   0  0  2  0  0  3  0  0  0  0  0  0
  1 21  1  0  0  0  0
  1  6  1  0  0  0  0
  3 17  1  0  0  0  0
  4 22  1  0  0  0  0
  5 27  1  1  0  0  0
  5 24  1  0  0  0  0
  5 17  1  0  0  0  0
  6 23  1  0  0  0  0
  8  7  1  6  0  0  0
  8  2  1  0  0  0  0
  9 18  1  1  0  0  0
  9 14  1  0  0  0  0
 10 28  1  0  0  0  0
 10  8  1  0  0  0  0
 13  9  1  0  0  0  0
 13 26  1  0  0  0  0
 14  8  1  0  0  0  0
 15 11  2  0  0  0  0
 15 23  1  0  0  0  0
 16  1  2  0  0  0  0
 17 25  1  0  0  0  0
 19 15  1  0  0  0  0
 20 16  1  0  0  0  0
 20  4  2  0  0  0  0
 22 21  2  0  0  0  0
 24 12  1  0  0  0  0
 25 12  1  0  0  0  0
 25 19  1  0  0  0  0
 26 10  1  0  0  0  0
 26 24  1  0  0  0  0
 28 12  1  0  0  0  0
 28 16  1  0  0  0  0
M  END
>  <MODEL>
1

>  <REMARK>
 VINA RESULT:      -5.7      0.000      0.000
  Name = 
  0 active torsions:
  status: ('A' for Active; 'I' for Inactive)
                            x       y       z     vdW  Elec       q    Type
                         _______ _______ _______ _____ _____    ______ ____

>  <TORSDO>
F 0

$$$$
=
 OpenBabel11122412013D

 28 32  0  0  1  0  0  0  0  0999 V2000
  191.5380  174.6270  137.0190 C   0  0  0  0  0  0  0  0  0  0  0  0
  190.3700  175.4450  139.6980 F   0  0  0  0  0  0  0  0  0  0  0  0
  186.7010  177.7950  134.5940 C   0  0  0  0  0  1  0  0  0  0  0  0
  193.9310  176.0890  136.8440 C   0  0  0  0  0  3  0  0  0  0  0  0
  186.9030  177.4790  137.0540 C   0  0  2  0  0  3  0  0  0  0  0  0
  190.3180  173.7600  137.1060 C   0  0  0  0  0  2  0  0  0  0  0  0
  191.8600  177.1120  140.3940 C   0  0  0  0  0  1  0  0  0  0  0  0
  190.4370  176.7990  139.9710 C   0  0  1  0  0  0  0  0  0  0  0  0
  189.0400  178.3320  141.0440 C   0  0  2  0  0  3  0  0  0  0  0  0
  190.1120  177.6330  138.6810 C   0  0  2  0  0  3  0  0  0  0  0  0
  187.5180  173.5750  135.4040 O   0  0  0  0  0  0  0  0  0  0  0  0
  188.9200  176.2790  137.0840 C   0  0  1  0  0  3  0  0  0  0  0  0
  188.0060  178.4040  139.9350 C   0  0  0  0  0  2  0  0  0  0  0  0
  189.5730  177.0330  141.0770 O   0  0  0  0  0  0  0  0  0  0  0  0
  188.6710  174.0670  135.2840 C   0  0  0  0  0  0  0  0  0  0  0  0
  191.5150  176.0460  137.1510 C   0  0  0  0  0  0  0  0  0  0  0  0
  187.0660  176.8210  135.6970 C   0  0  2  0  0  3  0  0  0  0  0  0
  188.4060  178.6270  142.3150 N   0  0  0  0  0  1  0  0  0  0  0  0
  188.8340  175.3760  134.8280 O   0  0  0  0  0  0  0  0  0  0  0  0
  192.7220  176.7530  137.0530 C   0  0  0  0  0  3  0  0  0  0  0  0
  192.7620  173.9770  136.8120 C   0  0  0  0  0  3  0  0  0  0  0  0
  193.9510  174.7010  136.7230 C   0  0  0  0  0  3  0  0  0  0  0  0
  189.8650  173.2890  135.7270 C   0  0  0  0  0  2  0  0  0  0  0  0
  187.9270  176.9330  137.9450 N   0  0  1  0  0  0  0  0  0  0  0  0
  188.5350  176.5120  135.6400 C   0  0  2  0  0  3  0  0  0  0  0  0
  188.6380  178.0350  138.5920 C   0  0  2  0  0  3  0  0  0  0  0  0
  185.5240  177.1760  137.6100 C   0  0  0  0  0  1  0  0  0  0  0  0
  190.2730  176.8900  137.3650 C   0  0  2  0  0  3  0  0  0  0  0  0
  1  6  1  0  0  0  0
  1 16  1  0  0  0  0
  2  8  1  0  0  0  0
  3 17  1  0  0  0  0
  4 20  1  0  0  0  0
  5 27  1  1  0  0  0
  5 24  1  0  0  0  0
  8  7  1  1  0  0  0
  8 14  1  0  0  0  0
  9 14  1  0  0  0  0
  9 18  1  1  0  0  0
 10  8  1  0  0  0  0
 12 28  1  0  0  0  0
 12 24  1  0  0  0  0
 13  9  1  0  0  0  0
 15 11  2  0  0  0  0
 15 23  1  0  0  0  0
 16 28  1  0  0  0  0
 17  5  1  0  0  0  0
 19 15  1  0  0  0  0
 19 25  1  0  0  0  0
 20 16  2  0  0  0  0
 21  1  2  0  0  0  0
 22 21  1  0  0  0  0
 22  4  2  0  0  0  0
 23  6  1  0  0  0  0
 24 26  1  0  0  0  0
 25 17  1  0  0  0  0
 25 12  1  0  0  0  0
 26 10  1  0  0  0  0
 26 13  1  0  0  0  0
 28 10  1  0  0  0  0
M  END
>  <MODEL>
2

>  <REMARK>
 VINA RESULT:      -5.6      4.624      8.880
  Name = 
  0 active torsions:
  status: ('A' for Active; 'I' for Inactive)
                            x       y       z     vdW  Elec       q    Type
                         _______ _______ _______ _____ _____    ______ ____

>  <TORSDO>
F 0

$$$$
=
 OpenBabel11122412013D

 28 32  0  0  1  0  0  0  0  0999 V2000
  190.2430  177.0740  138.1760 C   0  0  0  0  0  0  0  0  0  0  0  0
  189.3090  174.2450  137.5990 F   0  0  0  0  0  0  0  0  0  0  0  0
  195.2510  175.5040  134.7450 C   0  0  0  0  0  1  0  0  0  0  0  0
  188.4570  178.6910  136.7300 C   0  0  0  0  0  3  0  0  0  0  0  0
  193.5080  173.8130  135.2910 C   0  0  2  0  0  3  0  0  0  0  0  0
  191.1630  176.2590  139.0350 C   0  0  0  0  0  2  0  0  0  0  0  0
  187.6160  174.6000  136.0200 C   0  0  0  0  0  1  0  0  0  0  0  0
  188.9860  173.9990  136.2770 C   0  0  1  0  0  0  0  0  0  0  0  0
  189.2260  172.1780  134.8360 C   0  0  2  0  0  3  0  0  0  0  0  0
  190.0180  174.6990  135.3230 C   0  0  2  0  0  3  0  0  0  0  0  0
  194.3980  175.7020  139.0310 O   0  0  0  0  0  0  0  0  0  0  0  0
  192.0540  175.1960  136.5100 C   0  0  1  0  0  3  0  0  0  0  0  0
  190.7270  172.3230  134.6500 C   0  0  0  0  0  2  0  0  0  0  0  0
  188.8940  172.5860  136.1380 O   0  0  0  0  0  0  0  0  0  0  0  0
  193.5750  176.5210  138.5420 C   0  0  0  0  0  0  0  0  0  0  0  0
  190.0760  176.8710  136.7750 C   0  0  0  0  0  0  0  0  0  0  0  0
  194.3210  174.9800  135.8210 C   0  0  2  0  0  3  0  0  0  0  0  0
  188.8490  170.7890  134.6540 N   0  0  0  0  0  1  0  0  0  0  0  0
  193.6610  176.8870  137.1980 O   0  0  0  0  0  0  0  0  0  0  0  0
  189.1840  177.6950  136.0750 C   0  0  0  0  0  3  0  0  0  0  0  0
  189.5040  178.0770  138.8170 C   0  0  0  0  0  3  0  0  0  0  0  0
  188.6170  178.8820  138.1000 C   0  0  0  0  0  3  0  0  0  0  0  0
  192.4410  177.0240  139.3700 C   0  0  0  0  0  2  0  0  0  0  0  0
  192.1920  173.8550  135.9290 N   0  0  1  0  0  0  0  0  0  0  0  0
  193.2740  176.0090  136.1390 C   0  0  2  0  0  3  0  0  0  0  0  0
  191.1570  173.7690  134.8990 C   0  0  2  0  0  3  0  0  0  0  0  0
  194.2010  172.5070  135.6300 C   0  0  0  0  0  1  0  0  0  0  0  0
  190.8110  175.8390  135.9420 C   0  0  2  0  0  3  0  0  0  0  0  0
  1 21  1  0  0  0  0
  1  6  1  0  0  0  0
  3 17  1  0  0  0  0
  4 22  1  0  0  0  0
  5 27  1  1  0  0  0
  5 17  1  0  0  0  0
  5 24  1  0  0  0  0
  6 23  1  0  0  0  0
  8  7  1  6  0  0  0
  8  2  1  0  0  0  0
  9 18  1  1  0  0  0
  9 14  1  0  0  0  0
 10 28  1  0  0  0  0
 10  8  1  0  0  0  0
 13  9  1  0  0  0  0
 13 26  1  0  0  0  0
 14  8  1  0  0  0  0
 15 11  2  0  0  0  0
 15 23  1  0  0  0  0
 16  1  2  0  0  0  0
 17 25  1  0  0  0  0
 19 15  1  0  0  0  0
 20  4  2  0  0  0  0
 20 16  1  0  0  0  0
 22 21  2  0  0  0  0
 24 12  1  0  0  0  0
 25 12  1  0  0  0  0
 25 19  1  0  0  0  0
 26 10  1  0  0  0  0
 26 24  1  0  0  0  0
 28 12  1  0  0  0  0
 28 16  1  0  0  0  0
M  END
>  <MODEL>
3

>  <REMARK>
 VINA RESULT:      -5.5      6.262      8.308
  Name = 
  0 active torsions:
  status: ('A' for Active; 'I' for Inactive)
                            x       y       z     vdW  Elec       q    Type
                         _______ _______ _______ _____ _____    ______ ____

>  <TORSDO>
F 0

$$$$
=
 OpenBabel11122412013D

 28 32  0  0  1  0  0  0  0  0999 V2000
  187.9300  176.0700  136.4760 C   0  0  0  0  0  0  0  0  0  0  0  0
  189.0720  175.8560  139.2800 F   0  0  0  0  0  0  0  0  0  0  0  0
  183.8120  180.0180  139.0760 C   0  0  0  0  0  1  0  0  0  0  0  0
  189.9150  177.4380  135.0340 C   0  0  0  0  0  3  0  0  0  0  0  0
  185.4660  178.8040  140.4840 C   0  0  2  0  0  3  0  0  0  0  0  0
  186.8830  175.2590  137.1790 C   0  0  0  0  0  2  0  0  0  0  0  0
  191.0420  177.1100  139.1040 C   0  0  0  0  0  1  0  0  0  0  0  0
  189.6730  177.0090  139.7510 C   0  0  1  0  0  0  0  0  0  0  0  0
  189.8080  178.0610  141.8310 C   0  0  2  0  0  3  0  0  0  0  0  0
  188.8360  178.2700  139.3340 C   0  0  2  0  0  3  0  0  0  0  0  0
  183.7440  175.7840  137.9830 O   0  0  0  0  0  0  0  0  0  0  0  0
  186.5800  177.6350  138.7800 C   0  0  1  0  0  3  0  0  0  0  0  0
  188.3750  178.5650  141.8440 C   0  0  0  0  0  2  0  0  0  0  0  0
  189.8450  176.8320  141.1520 O   0  0  0  0  0  0  0  0  0  0  0  0
  184.6190  176.2590  137.2110 C   0  0  0  0  0  0  0  0  0  0  0  0
  188.3940  177.3380  136.9330 C   0  0  0  0  0  0  0  0  0  0  0  0
  184.5170  178.6960  139.3050 C   0  0  2  0  0  3  0  0  0  0  0  0
  190.2670  177.8760  143.1940 N   0  0  0  0  0  1  0  0  0  0  0  0
  184.8020  177.6400  137.1210 O   0  0  0  0  0  0  0  0  0  0  0  0
  189.3800  178.0030  136.1920 C   0  0  0  0  0  3  0  0  0  0  0  0
  188.4810  175.5170  135.3120 C   0  0  0  0  0  3  0  0  0  0  0  0
  189.4660  176.1950  134.5940 C   0  0  0  0  0  3  0  0  0  0  0  0
  185.5360  175.3470  136.4680 C   0  0  0  0  0  2  0  0  0  0  0  0
  186.6170  177.9430  140.2150 N   0  0  1  0  0  0  0  0  0  0  0  0
  185.4340  178.3980  138.1530 C   0  0  2  0  0  3  0  0  0  0  0  0
  187.8470  178.7080  140.4160 C   0  0  2  0  0  3  0  0  0  0  0  0
  184.7680  178.3460  141.7510 C   0  0  0  0  0  1  0  0  0  0  0  0
  187.8890  178.0680  138.1630 C   0  0  2  0  0  3  0  0  0  0  0  0
  1 16  1  0  0  0  0
  1  6  1  0  0  0  0
  2  8  1  0  0  0  0
  3 17  1  0  0  0  0
  4 20  1  0  0  0  0
  5 27  1  1  0  0  0
  8  7  1  6  0  0  0
  8 14  1  0  0  0  0
  9 13  1  0  0  0  0
  9 18  1  1  0  0  0
 10  8  1  0  0  0  0
 10 26  1  0  0  0  0
 12 24  1  0  0  0  0
 14  9  1  0  0  0  0
 15 11  2  0  0  0  0
 16 28  1  0  0  0  0
 17  5  1  0  0  0  0
 19 15  1  0  0  0  0
 19 25  1  0  0  0  0
 20 16  2  0  0  0  0
 21  1  2  0  0  0  0
 22  4  2  0  0  0  0
 22 21  1  0  0  0  0
 23  6  1  0  0  0  0
 23 15  1  0  0  0  0
 24 26  1  0  0  0  0
 24  5  1  0  0  0  0
 25 12  1  0  0  0  0
 25 17  1  0  0  0  0
 26 13  1  0  0  0  0
 28 12  1  0  0  0  0
 28 10  1  0  0  0  0
M  END
>  <MODEL>
4

>  <REMARK>
 VINA RESULT:      -5.5      3.274      7.373
  Name = 
  0 active torsions:
  status: ('A' for Active; 'I' for Inactive)
                            x       y       z     vdW  Elec       q    Type
                         _______ _______ _______ _____ _____    ______ ____

>  <TORSDO>
F 0

$$$$
=
 OpenBabel11122412013D

 28 32  0  0  1  0  0  0  0  0999 V2000
  183.2130  176.9420  137.1810 C   0  0  0  0  0  0  0  0  0  0  0  0
  184.5660  174.2320  137.3740 F   0  0  0  0  0  0  0  0  0  0  0  0
  189.0560  179.2170  137.2180 C   0  0  0  0  0  1  0  0  0  0  0  0
  182.1030  176.9690  134.6010 C   0  0  0  0  0  3  0  0  0  0  0  0
  188.6410  176.7830  137.5290 C   0  0  2  0  0  3  0  0  0  0  0  0
  183.7090  176.9390  138.5970 C   0  0  0  0  0  2  0  0  0  0  0  0
  184.2880  173.3910  135.2060 C   0  0  0  0  0  1  0  0  0  0  0  0
  185.2830  173.8600  136.2510 C   0  0  1  0  0  0  0  0  0  0  0  0
  187.2770  172.7040  135.8810 C   0  0  2  0  0  3  0  0  0  0  0  0
  186.0630  175.0930  135.6690 C   0  0  2  0  0  3  0  0  0  0  0  0
  185.9370  178.7000  140.2410 O   0  0  0  0  0  0  0  0  0  0  0  0
  186.3020  176.8040  137.3480 C   0  0  1  0  0  3  0  0  0  0  0  0
  188.1940  173.8240  136.3410 C   0  0  0  0  0  2  0  0  0  0  0  0
  186.0930  172.7560  136.6350 O   0  0  0  0  0  0  0  0  0  0  0  0
  185.2810  178.7640  139.1680 C   0  0  0  0  0  0  0  0  0  0  0  0
  184.0450  176.7080  136.0480 C   0  0  0  0  0  0  0  0  0  0  0  0
  188.1670  178.1810  137.8770 C   0  0  2  0  0  3  0  0  0  0  0  0
  187.9310  171.4270  136.0930 N   0  0  0  0  0  1  0  0  0  0  0  0
  185.9130  179.1210  137.9760 O   0  0  0  0  0  0  0  0  0  0  0  0
  183.4680  176.7330  134.7710 C   0  0  0  0  0  3  0  0  0  0  0  0
  181.8450  177.1740  136.9920 C   0  0  0  0  0  3  0  0  0  0  0  0
  181.2910  177.1880  135.7110 C   0  0  0  0  0  3  0  0  0  0  0  0
  183.8460  178.3570  139.1450 C   0  0  0  0  0  2  0  0  0  0  0  0
  187.4660  175.9160  137.4470 N   0  0  1  0  0  0  0  0  0  0  0  0
  186.7900  178.2340  137.2790 C   0  0  2  0  0  3  0  0  0  0  0  0
  187.5010  175.1780  136.1840 C   0  0  2  0  0  3  0  0  0  0  0  0
  189.5790  176.2750  138.6090 C   0  0  0  0  0  1  0  0  0  0  0  0
  185.5400  176.4560  136.0900 C   0  0  2  0  0  3  0  0  0  0  0  0
  1  6  1  0  0  0  0
  3 17  1  0  0  0  0
  4 20  2  0  0  0  0
  4 22  1  0  0  0  0
  5 17  1  0  0  0  0
  5 27  1  1  0  0  0
  6 23  1  0  0  0  0
  8  7  1  6  0  0  0
  8 14  1  0  0  0  0
  8  2  1  0  0  0  0
  9 18  1  1  0  0  0
  9 13  1  0  0  0  0
  9 14  1  0  0  0  0
 10 28  1  0  0  0  0
 10 26  1  0  0  0  0
 10  8  1  0  0  0  0
 12 24  1  0  0  0  0
 15 11  2  0  0  0  0
 16 28  1  0  0  0  0
 16  1  2  0  0  0  0
 19 15  1  0  0  0  0
 20 16  1  0  0  0  0
 21  1  1  0  0  0  0
 22 21  2  0  0  0  0
 23 15  1  0  0  0  0
 24  5  1  0  0  0  0
 25 12  1  0  0  0  0
 25 17  1  0  0  0  0
 25 19  1  0  0  0  0
 26 13  1  0  0  0  0
 26 24  1  0  0  0  0
 28 12  1  0  0  0  0
M  END
>  <MODEL>
5

>  <REMARK>
 VINA RESULT:      -5.5      2.489      3.781
  Name = 
  0 active torsions:
  status: ('A' for Active; 'I' for Inactive)
                            x       y       z     vdW  Elec       q    Type
                         _______ _______ _______ _____ _____    ______ ____

>  <TORSDO>
F 0

$$$$
=
 OpenBabel11122412013D

 28 32  0  0  1  0  0  0  0  0999 V2000
  180.4130  179.9240  140.2360 C   0  0  0  0  0  0  0  0  0  0  0  0
  183.3260  180.2010  139.4280 F   0  0  0  0  0  0  0  0  0  0  0  0
  180.1050  175.7790  135.5410 C   0  0  0  0  0  1  0  0  0  0  0  0
  180.5170  178.6540  142.7400 C   0  0  0  0  0  3  0  0  0  0  0  0
  182.1880  177.0780  135.9510 C   0  0  2  0  0  3  0  0  0  0  0  0
  180.3100  180.6830  138.9460 C   0  0  0  0  0  2  0  0  0  0  0  0
  184.4220  179.0470  141.1460 C   0  0  0  0  0  1  0  0  0  0  0  0
  184.1020  179.0810  139.6630 C   0  0  1  0  0  0  0  0  0  0  0  0
  185.8690  178.0400  138.5460 C   0  0  2  0  0  3  0  0  0  0  0  0
  183.3030  177.7780  139.3020 C   0  0  2  0  0  3  0  0  0  0  0  0
  179.0590  180.0030  135.9890 O   0  0  0  0  0  0  0  0  0  0  0  0
  181.4730  178.2980  137.8240 C   0  0  1  0  0  3  0  0  0  0  0  0
  185.0260  177.4660  137.4210 C   0  0  0  0  0  2  0  0  0  0  0  0
  185.3130  179.2690  138.9410 O   0  0  0  0  0  0  0  0  0  0  0  0
  178.9930  179.5700  137.1700 C   0  0  0  0  0  0  0  0  0  0  0  0
  181.0990  178.6820  140.3740 C   0  0  0  0  0  0  0  0  0  0  0  0
  180.6720  177.1360  135.9100 C   0  0  2  0  0  3  0  0  0  0  0  0
  187.2240  178.2520  138.0750 N   0  0  0  0  0  1  0  0  0  0  0  0
  179.0770  178.2000  137.4230 O   0  0  0  0  0  0  0  0  0  0  0  0
  181.1310  178.0660  141.6330 C   0  0  0  0  0  3  0  0  0  0  0  0
  179.8060  180.5020  141.3580 C   0  0  0  0  0  3  0  0  0  0  0  0
  179.8560  179.8720  142.6030 C   0  0  0  0  0  3  0  0  0  0  0  0
  178.9310  180.5260  138.3130 C   0  0  0  0  0  2  0  0  0  0  0  0
  182.6460  177.9960  136.9940 N   0  0  1  0  0  0  0  0  0  0  0  0
  180.3050  177.4770  137.3260 C   0  0  2  0  0  3  0  0  0  0  0  0
  183.5760  177.2930  137.8770 C   0  0  2  0  0  3  0  0  0  0  0  0
  182.7550  177.5030  134.6090 C   0  0  0  0  0  1  0  0  0  0  0  0
  181.7920  177.9300  139.2550 C   0  0  2  0  0  3  0  0  0  0  0  0
  1 16  2  0  0  0  0
  1 21  1  0  0  0  0
  2  8  1  0  0  0  0
  3 17  1  0  0  0  0
  5 27  1  6  0  0  0
  5 24  1  0  0  0  0
  6  1  1  0  0  0  0
  8  7  1  1  0  0  0
  9 18  1  6  0  0  0
  9 14  1  0  0  0  0
 10  8  1  0  0  0  0
 11 15  2  0  0  0  0
 12 28  1  0  0  0  0
 13 26  1  0  0  0  0
 13  9  1  0  0  0  0
 14  8  1  0  0  0  0
 15 19  1  0  0  0  0
 15 23  1  0  0  0  0
 16 20  1  0  0  0  0
 17  5  1  0  0  0  0
 17 25  1  0  0  0  0
 20  4  2  0  0  0  0
 21 22  2  0  0  0  0
 22  4  1  0  0  0  0
 23  6  1  0  0  0  0
 24 12  1  0  0  0  0
 24 26  1  0  0  0  0
 25 19  1  0  0  0  0
 25 12  1  0  0  0  0
 26 10  1  0  0  0  0
 28 10  1  0  0  0  0
 28 16  1  0  0  0  0
M  END
>  <MODEL>
6

>  <REMARK>
 VINA RESULT:      -5.4      2.398      5.041
  Name = 
  0 active torsions:
  status: ('A' for Active; 'I' for Inactive)
                            x       y       z     vdW  Elec       q    Type
                         _______ _______ _______ _____ _____    ______ ____

>  <TORSDO>
F 0

$$$$
=
 OpenBabel11122412013D

 28 32  0  0  1  0  0  0  0  0999 V2000
  183.1480  177.8310  137.5560 C   0  0  0  0  0  0  0  0  0  0  0  0
  182.9200  174.8370  138.0040 F   0  0  0  0  0  0  0  0  0  0  0  0
  188.6880  176.4390  134.9710 C   0  0  0  0  0  1  0  0  0  0  0  0
  181.2000  178.3800  135.6080 C   0  0  0  0  0  3  0  0  0  0  0  0
  187.3150  174.6690  136.0550 C   0  0  2  0  0  3  0  0  0  0  0  0
  184.1370  177.6030  138.6600 C   0  0  0  0  0  2  0  0  0  0  0  0
  181.3520  174.2170  136.3780 C   0  0  0  0  0  1  0  0  0  0  0  0
  182.7890  174.0870  136.8500 C   0  0  1  0  0  0  0  0  0  0  0  0
  183.5630  171.9990  136.1490 C   0  0  2  0  0  3  0  0  0  0  0  0
  183.7300  174.6470  135.7240 C   0  0  2  0  0  3  0  0  0  0  0  0
  187.4000  177.8710  138.8980 O   0  0  0  0  0  0  0  0  0  0  0  0
  185.4820  175.9910  136.6870 C   0  0  1  0  0  3  0  0  0  0  0  0
  185.0060  172.4270  135.9440 C   0  0  0  0  0  2  0  0  0  0  0  0
  183.0240  172.7330  137.2180 O   0  0  0  0  0  0  0  0  0  0  0  0
  186.4690  178.2520  138.1400 C   0  0  0  0  0  0  0  0  0  0  0  0
  183.1670  177.1290  136.3160 C   0  0  0  0  0  0  0  0  0  0  0  0
  187.7960  176.1050  136.1500 C   0  0  2  0  0  3  0  0  0  0  0  0
  183.5210  170.5830  136.4640 N   0  0  0  0  0  1  0  0  0  0  0  0
  186.6020  178.1490  136.7540 O   0  0  0  0  0  0  0  0  0  0  0  0
  182.1880  177.4260  135.3580 C   0  0  0  0  0  3  0  0  0  0  0  0
  182.1480  178.7830  137.7910 C   0  0  0  0  0  3  0  0  0  0  0  0
  181.1790  179.0580  136.8250 C   0  0  0  0  0  3  0  0  0  0  0  0
  185.1760  178.7190  138.7210 C   0  0  0  0  0  2  0  0  0  0  0  0
  185.9670  174.6070  136.6190 N   0  0  1  0  0  0  0  0  0  0  0  0
  186.5230  176.8980  136.0690 C   0  0  2  0  0  3  0  0  0  0  0  0
  185.0800  173.9310  135.6720 C   0  0  2  0  0  3  0  0  0  0  0  0
  188.2420  173.7620  136.8440 C   0  0  0  0  0  1  0  0  0  0  0  0
  184.1880  176.0840  135.9110 C   0  0  2  0  0  3  0  0  0  0  0  0
  1 21  1  0  0  0  0
  1  6  1  0  0  0  0
  3 17  1  0  0  0  0
  4 22  1  0  0  0  0
  5 17  1  0  0  0  0
  5 24  1  0  0  0  0
  5 27  1  1  0  0  0
  6 23  1  0  0  0  0
  8  7  1  6  0  0  0
  8 14  1  0  0  0  0
  8  2  1  0  0  0  0
  9 18  1  1  0  0  0
  9 14  1  0  0  0  0
 10 28  1  0  0  0  0
 10  8  1  0  0  0  0
 13  9  1  0  0  0  0
 15 23  1  0  0  0  0
 15 11  2  0  0  0  0
 16  1  2  0  0  0  0
 19 15  1  0  0  0  0
 20  4  2  0  0  0  0
 20 16  1  0  0  0  0
 22 21  2  0  0  0  0
 24 12  1  0  0  0  0
 25 17  1  0  0  0  0
 25 12  1  0  0  0  0
 25 19  1  0  0  0  0
 26 10  1  0  0  0  0
 26 13  1  0  0  0  0
 26 24  1  0  0  0  0
 28 16  1  0  0  0  0
 28 12  1  0  0  0  0
M  END
>  <MODEL>
7

>  <REMARK>
 VINA RESULT:      -5.1      1.969      2.802
  Name = 
  0 active torsions:
  status: ('A' for Active; 'I' for Inactive)
                            x       y       z     vdW  Elec       q    Type
                         _______ _______ _______ _____ _____    ______ ____

>  <TORSDO>
F 0

$$$$
=
 OpenBabel11122412013D

 28 32  0  0  1  0  0  0  0  0999 V2000
  190.3320  177.2110  142.5330 C   0  0  0  0  0  0  0  0  0  0  0  0
  187.3710  176.7340  142.9990 F   0  0  0  0  0  0  0  0  0  0  0  0
  188.5060  179.4640  136.9750 C   0  0  0  0  0  1  0  0  0  0  0  0
  190.9830  179.2710  144.3280 C   0  0  0  0  0  3  0  0  0  0  0  0
  186.8570  178.4340  138.5280 C   0  0  2  0  0  3  0  0  0  0  0  0
  190.0550  176.0500  141.6240 C   0  0  0  0  0  2  0  0  0  0  0  0
  186.8340  178.4360  144.5160 C   0  0  0  0  0  1  0  0  0  0  0  0
  186.6110  177.8830  143.1210 C   0  0  1  0  0  0  0  0  0  0  0  0
  184.4610  178.5100  142.4610 C   0  0  2  0  0  3  0  0  0  0  0  0
  187.0830  178.9630  142.0820 C   0  0  2  0  0  3  0  0  0  0  0  0
  190.0960  175.6360  138.3690 O   0  0  0  0  0  0  0  0  0  0  0  0
  188.3170  177.9230  140.2930 C   0  0  1  0  0  3  0  0  0  0  0  0
  184.7830  178.6410  140.9820 C   0  0  0  0  0  2  0  0  0  0  0  0
  185.2510  177.4830  143.0030 O   0  0  0  0  0  0  0  0  0  0  0  0
  190.5290  176.4490  139.2280 C   0  0  0  0  0  0  0  0  0  0  0  0
  189.6090  178.4380  142.4970 C   0  0  0  0  0  0  0  0  0  0  0  0
  188.2570  178.3320  137.9510 C   0  0  2  0  0  3  0  0  0  0  0  0
  183.0580  178.1780  142.6220 N   0  0  0  0  0  1  0  0  0  0  0  0
  190.3910  177.8240  139.0270 O   0  0  0  0  0  0  0  0  0  0  0  0
  189.9570  179.4530  143.3990 C   0  0  0  0  0  3  0  0  0  0  0  0
  191.3570  177.0450  143.4740 C   0  0  0  0  0  3  0  0  0  0  0  0
  191.6820  178.0670  144.3660 C   0  0  0  0  0  3  0  0  0  0  0  0
  191.0950  175.9480  140.5130 C   0  0  0  0  0  2  0  0  0  0  0  0
  186.9010  177.9440  139.9060 N   0  0  1  0  0  0  0  0  0  0  0  0
  189.1370  178.4950  139.1580 C   0  0  2  0  0  3  0  0  0  0  0  0
  186.2720  178.9300  140.7850 C   0  0  2  0  0  3  0  0  0  0  0  0
  185.9020  177.5820  137.7120 C   0  0  0  0  0  1  0  0  0  0  0  0
  188.4870  178.7710  141.5330 C   0  0  2  0  0  3  0  0  0  0  0  0
  1 21  1  0  0  0  0
  2  8  1  0  0  0  0
  3 17  1  0  0  0  0
  4 22  1  0  0  0  0
  5 27  1  6  0  0  0
  5 24  1  0  0  0  0
  6  1  1  0  0  0  0
  8  7  1  1  0  0  0
  9 18  1  6  0  0  0
  9 14  1  0  0  0  0
 10  8  1  0  0  0  0
 11 15  2  0  0  0  0
 12 28  1  0  0  0  0
 13  9  1  0  0  0  0
 14  8  1  0  0  0  0
 15 23  1  0  0  0  0
 16  1  2  0  0  0  0
 16 20  1  0  0  0  0
 17  5  1  0  0  0  0
 17 25  1  0  0  0  0
 19 25  1  0  0  0  0
 19 15  1  0  0  0  0
 20  4  2  0  0  0  0
 21 22  2  0  0  0  0
 23  6  1  0  0  0  0
 24 12  1  0  0  0  0
 24 26  1  0  0  0  0
 25 12  1  0  0  0  0
 26 13  1  0  0  0  0
 26 10  1  0  0  0  0
 28 10  1  0  0  0  0
 28 16  1  0  0  0  0
M  END
>  <MODEL>
8

>  <REMARK>
 VINA RESULT:      -4.9      4.307      7.377
  Name = 
  0 active torsions:
  status: ('A' for Active; 'I' for Inactive)
                            x       y       z     vdW  Elec       q    Type
                         _______ _______ _______ _____ _____    ______ ____

>  <TORSDO>
F 0

$$$$
=
 OpenBabel11122412013D

 28 32  0  0  1  0  0  0  0  0999 V2000
  186.1690  178.0000  143.7420 C   0  0  0  0  0  0  0  0  0  0  0  0
  184.0370  176.9740  141.8400 F   0  0  0  0  0  0  0  0  0  0  0  0
  189.3720  179.3280  138.5180 C   0  0  0  0  0  1  0  0  0  0  0  0
  185.0230  180.3020  144.8730 C   0  0  0  0  0  3  0  0  0  0  0  0
  187.1960  178.1260  138.3990 C   0  0  2  0  0  3  0  0  0  0  0  0
  186.7860  176.7300  143.2350 C   0  0  0  0  0  2  0  0  0  0  0  0
  182.4160  178.6590  141.9660 C   0  0  0  0  0  1  0  0  0  0  0  0
  183.4210  177.9500  141.0780 C   0  0  1  0  0  0  0  0  0  0  0  0
  182.6170  178.0640  138.8890 C   0  0  2  0  0  3  0  0  0  0  0  0
  184.4760  179.0050  140.5870 C   0  0  2  0  0  3  0  0  0  0  0  0
  189.4240  176.0440  141.4070 O   0  0  0  0  0  0  0  0  0  0  0  0
  186.6980  178.0840  140.6920 C   0  0  1  0  0  3  0  0  0  0  0  0
  183.9810  178.1250  138.2240 C   0  0  0  0  0  2  0  0  0  0  0  0
  182.7160  177.2720  140.0450 O   0  0  0  0  0  0  0  0  0  0  0  0
  188.9580  177.0020  142.0790 C   0  0  0  0  0  0  0  0  0  0  0  0
  185.6960  179.0460  142.8970 C   0  0  0  0  0  0  0  0  0  0  0  0
  188.5050  178.2610  139.1560 C   0  0  2  0  0  3  0  0  0  0  0  0
  181.6610  177.4690  137.9750 N   0  0  0  0  0  1  0  0  0  0  0  0
  188.9620  178.2960  141.5550 O   0  0  0  0  0  0  0  0  0  0  0  0
  185.1340  180.1870  143.4860 C   0  0  0  0  0  3  0  0  0  0  0  0
  186.0460  178.1310  145.1310 C   0  0  0  0  0  3  0  0  0  0  0  0
  185.4780  179.2740  145.6950 C   0  0  0  0  0  3  0  0  0  0  0  0
  188.3030  176.7430  143.3940 C   0  0  0  0  0  2  0  0  0  0  0  0
  186.1520  177.7810  139.3640 N   0  0  1  0  0  0  0  0  0  0  0  0
  188.0660  178.7060  140.5210 C   0  0  2  0  0  3  0  0  0  0  0  0
  185.0210  178.6920  139.1920 C   0  0  2  0  0  3  0  0  0  0  0  0
  187.3150  177.0280  137.3580 C   0  0  0  0  0  1  0  0  0  0  0  0
  185.7700  179.0550  141.3820 C   0  0  2  0  0  3  0  0  0  0  0  0
  1 21  1  0  0  0  0
  3 17  1  0  0  0  0
  4 22  1  0  0  0  0
  5 27  1  6  0  0  0
  5 17  1  0  0  0  0
  5 24  1  0  0  0  0
  6 23  1  0  0  0  0
  6  1  1  0  0  0  0
  8  2  1  0  0  0  0
  8  7  1  1  0  0  0
  9 18  1  6  0  0  0
  9 14  1  0  0  0  0
 10  8  1  0  0  0  0
 10 28  1  0  0  0  0
 11 15  2  0  0  0  0
 12 28  1  0  0  0  0
 13  9  1  0  0  0  0
 13 26  1  0  0  0  0
 14  8  1  0  0  0  0
 15 23  1  0  0  0  0
 16 20  1  0  0  0  0
 16  1  2  0  0  0  0
 17 25  1  0  0  0  0
 19 15  1  0  0  0  0
 20  4  2  0  0  0  0
 21 22  2  0  0  0  0
 24 12  1  0  0  0  0
 25 12  1  0  0  0  0
 25 19  1  0  0  0  0
 26 24  1  0  0  0  0
 26 10  1  0  0  0  0
 28 16  1  0  0  0  0
M  END
>  <MODEL>
9

>  <REMARK>
 VINA RESULT:      -4.9      2.838      4.781
  Name = 
  0 active torsions:
  status: ('A' for Active; 'I' for Inactive)
                            x       y       z     vdW  Elec       q    Type
                         _______ _______ _______ _____ _____    ______ ____

>  <TORSDO>
F 0

$$$$
