=
 OpenBabel11122411523D

 28 32  0  0  1  0  0  0  0  0999 V2000
  180.7040  177.5790  139.3910 C   0  0  0  0  0  0  0  0  0  0  0  0
  182.7730  179.1320  142.6230 F   0  0  0  0  0  0  0  0  0  0  0  0
  185.8900  176.0490  136.8580 O   0  0  0  0  0  0  0  0  0  0  0  0
  179.8740  180.2660  139.3940 C   0  0  0  0  0  3  0  0  0  0  0  0
  186.2400  178.1710  137.9650 C   0  0  2  0  0  3  0  0  0  0  0  0
  181.0330  176.1770  139.3780 N   0  0  0  0  0  2  0  0  0  0  0  0
  183.8390  177.2630  141.9600 F   0  0  0  0  0  0  0  0  0  0  0  0
  183.8870  178.6480  141.9640 C   0  0  0  0  0  0  0  0  0  0  0  0
  186.4060  178.9120  141.8510 C   0  0  1  0  0  3  0  0  0  0  0  0
  183.9100  179.2030  140.5230 C   0  0  1  0  0  3  0  0  0  0  0  0
  181.8810  174.2100  137.3230 C   0  0  0  0  0  1  0  0  0  0  0  0
  183.7950  178.5750  138.2100 C   0  0  1  0  0  3  0  0  0  0  0  0
  186.0860  178.4190  140.5720 O   0  0  0  0  0  0  0  0  0  0  0  0
  185.1460  179.0860  142.7150 C   0  0  0  0  0  2  0  0  0  0  0  0
  182.8230  175.2160  137.9580 C   0  0  1  0  0  3  0  0  0  0  0  0
  181.6650  178.6210  139.4920 C   0  0  0  0  0  0  0  0  0  0  0  0
  185.4150  177.0800  137.4040 C   0  0  0  0  0  0  0  0  0  0  0  0
  187.3600  177.9570  142.5360 C   0  0  0  0  0  1  0  0  0  0  0  0
  182.9660  176.4390  137.0610 C   0  0  0  0  0  2  0  0  0  0  0  0
  181.2310  179.9570  139.4770 C   0  0  0  0  0  3  0  0  0  0  0  0
  179.3470  177.9110  139.3130 C   0  0  0  0  0  3  0  0  0  0  0  0
  178.9310  179.2430  139.3150 C   0  0  0  0  0  3  0  0  0  0  0  0
  182.3640  175.5780  139.3740 C   0  0  0  0  0  2  0  0  0  0  0  0
  185.1840  179.1420  138.5400 C   0  0  1  0  0  3  0  0  0  0  0  0
  184.0280  177.3080  137.5490 N   0  0  0  0  0  0  0  0  0  0  0  0
  185.2800  179.3620  139.9980 N   0  0  1  0  0  0  0  0  0  0  0  0
  186.9390  178.8040  136.9380 O   0  0  0  0  0  1  0  0  0  0  0  0
  183.1380  178.3380  139.5450 C   0  0  2  0  0  3  0  0  0  0  0  0
  1 16  1  0  0  0  0
  3 17  2  0  0  0  0
  4 20  1  0  0  0  0
  5 27  1  6  0  0  0
  5 24  1  0  0  0  0
  6  1  1  0  0  0  0
  7  8  1  0  0  0  0
  8  2  1  0  0  0  0
  8 14  1  0  0  0  0
  9 18  1  1  0  0  0
  9 14  1  0  0  0  0
 10  8  1  1  0  0  0
 12 25  1  1  0  0  0
 12 24  1  0  0  0  0
 12 28  1  0  0  0  0
 13  9  1  0  0  0  0
 15 11  1  6  0  0  0
 15 23  1  0  0  0  0
 16 28  1  0  0  0  0
 17 25  1  0  0  0  0
 17  5  1  0  0  0  0
 19 25  1  0  0  0  0
 19 15  1  0  0  0  0
 20 16  2  0  0  0  0
 21 22  1  0  0  0  0
 21  1  2  0  0  0  0
 22  4  2  0  0  0  0
 23  6  1  0  0  0  0
 24 26  1  0  0  0  0
 26 10  1  0  0  0  0
 26 13  1  0  0  0  0
 28 10  1  0  0  0  0
M  END
>  <MODEL>
1

>  <REMARK>
 VINA RESULT:      -6.3      0.000      0.000
  Name = 
  0 active torsions:
  status: ('A' for Active; 'I' for Inactive)
                            x       y       z     vdW  Elec       q    Type
                         _______ _______ _______ _____ _____    ______ ____

>  <TORSDO>
F 0

$$$$
=
 OpenBabel11122411523D

 28 32  0  0  1  0  0  0  0  0999 V2000
  181.0500  180.0030  136.5090 C   0  0  0  0  0  0  0  0  0  0  0  0
  184.6320  178.5420  137.9810 F   0  0  0  0  0  0  0  0  0  0  0  0
  179.1420  180.8440  142.1040 O   0  0  0  0  0  0  0  0  0  0  0  0
  181.1280  177.4110  135.4200 C   0  0  0  0  0  3  0  0  0  0  0  0
  180.4320  178.7980  142.0940 C   0  0  2  0  0  3  0  0  0  0  0  0
  180.9840  181.3640  136.9760 N   0  0  0  0  0  2  0  0  0  0  0  0
  183.9910  180.2460  139.3050 F   0  0  0  0  0  0  0  0  0  0  0  0
  184.0990  178.8670  139.2130 C   0  0  0  0  0  0  0  0  0  0  0  0
  184.3470  178.3670  141.6860 C   0  0  1  0  0  3  0  0  0  0  0  0
  182.7160  178.1950  139.3650 C   0  0  1  0  0  3  0  0  0  0  0  0
  178.9310  183.0700  138.2740 C   0  0  0  0  0  1  0  0  0  0  0  0
  180.3710  178.6380  139.6100 C   0  0  1  0  0  3  0  0  0  0  0  0
  183.0040  178.7810  141.5840 O   0  0  0  0  0  0  0  0  0  0  0  0
  185.0420  178.3800  140.3140 C   0  0  0  0  0  2  0  0  0  0  0  0
  179.7560  182.0390  139.0210 C   0  0  1  0  0  3  0  0  0  0  0  0
  181.3530  178.8900  137.3400 C   0  0  0  0  0  0  0  0  0  0  0  0
  179.6900  179.9090  141.4620 C   0  0  0  0  0  0  0  0  0  0  0  0
  185.0860  179.2860  142.6360 C   0  0  0  0  0  1  0  0  0  0  0  0
  178.9740  180.7390  139.1550 C   0  0  0  0  0  2  0  0  0  0  0  0
  181.3720  177.6030  136.7790 C   0  0  0  0  0  3  0  0  0  0  0  0
  180.8120  179.7890  135.1470 C   0  0  0  0  0  3  0  0  0  0  0  0
  180.8510  178.5050  134.6020 C   0  0  0  0  0  3  0  0  0  0  0  0
  181.1180  181.8380  138.3500 C   0  0  0  0  0  2  0  0  0  0  0  0
  180.9240  177.9770  140.8810 C   0  0  1  0  0  3  0  0  0  0  0  0
  179.6610  179.8200  140.0520 N   0  0  0  0  0  0  0  0  0  0  0  0
  182.3940  177.8710  140.7680 N   0  0  1  0  0  0  0  0  0  0  0  0
  179.5560  178.0220  142.8530 O   0  0  0  0  0  1  0  0  0  0  0  0
  181.5850  179.0430  138.8150 C   0  0  2  0  0  3  0  0  0  0  0  0
  1  6  1  0  0  0  0
  1 16  1  0  0  0  0
  2  8  1  0  0  0  0
  4 20  1  0  0  0  0
  5 27  1  1  0  0  0
  6 23  1  0  0  0  0
  8  7  1  0  0  0  0
  8 14  1  0  0  0  0
  9 18  1  1  0  0  0
 10  8  1  1  0  0  0
 10 26  1  0  0  0  0
 12 25  1  1  0  0  0
 12 24  1  0  0  0  0
 13  9  1  0  0  0  0
 14  9  1  0  0  0  0
 15 11  1  6  0  0  0
 15 19  1  0  0  0  0
 16 28  1  0  0  0  0
 17  5  1  0  0  0  0
 17  3  2  0  0  0  0
 19 25  1  0  0  0  0
 20 16  2  0  0  0  0
 21  1  2  0  0  0  0
 22 21  1  0  0  0  0
 22  4  2  0  0  0  0
 23 15  1  0  0  0  0
 24  5  1  0  0  0  0
 25 17  1  0  0  0  0
 26 24  1  0  0  0  0
 26 13  1  0  0  0  0
 28 10  1  0  0  0  0
 28 12  1  0  0  0  0
M  END
>  <MODEL>
2

>  <REMARK>
 VINA RESULT:      -6.2      3.239      5.432
  Name = 
  0 active torsions:
  status: ('A' for Active; 'I' for Inactive)
                            x       y       z     vdW  Elec       q    Type
                         _______ _______ _______ _____ _____    ______ ____

>  <TORSDO>
F 0

$$$$
=
 OpenBabel11122411523D

 28 32  0  0  1  0  0  0  0  0999 V2000
  182.8080  175.3800  136.1840 C   0  0  0  0  0  0  0  0  0  0  0  0
  181.7000  177.7540  139.3880 F   0  0  0  0  0  0  0  0  0  0  0  0
  188.5340  176.0000  137.7590 O   0  0  0  0  0  0  0  0  0  0  0  0
  181.4570  177.4960  134.9170 C   0  0  0  0  0  3  0  0  0  0  0  0
  187.4480  178.1190  138.1840 C   0  0  2  0  0  3  0  0  0  0  0  0
  183.4480  174.2340  136.7750 N   0  0  0  0  0  2  0  0  0  0  0  0
  183.4140  176.4580  140.0570 F   0  0  0  0  0  0  0  0  0  0  0  0
  183.0490  177.7420  139.6850 C   0  0  0  0  0  0  0  0  0  0  0  0
  184.8110  179.0030  141.0010 C   0  0  1  0  0  3  0  0  0  0  0  0
  183.8490  178.2060  138.4490 C   0  0  1  0  0  3  0  0  0  0  0  0
  185.9490  172.7090  136.2930 C   0  0  0  0  0  1  0  0  0  0  0  0
  185.4610  177.5030  136.8160 C   0  0  1  0  0  3  0  0  0  0  0  0
  185.5650  178.3760  139.9910 O   0  0  0  0  0  0  0  0  0  0  0  0
  183.3130  178.6810  140.8640 C   0  0  0  0  0  2  0  0  0  0  0  0
  185.9050  174.0320  137.0330 C   0  0  1  0  0  3  0  0  0  0  0  0
  183.1180  176.7260  136.5220 C   0  0  0  0  0  0  0  0  0  0  0  0
  187.5500  176.7680  137.5930 C   0  0  0  0  0  0  0  0  0  0  0  0
  185.3050  178.5430  142.3570 C   0  0  0  0  0  1  0  0  0  0  0  0
  186.2430  175.1740  136.0830 C   0  0  0  0  0  2  0  0  0  0  0  0
  182.4420  177.7680  135.8660 C   0  0  0  0  0  3  0  0  0  0  0  0
  181.8150  175.1290  135.2320 C   0  0  0  0  0  3  0  0  0  0  0  0
  181.1410  176.1760  134.6010 C   0  0  0  0  0  3  0  0  0  0  0  0
  184.5540  174.2270  137.7270 C   0  0  0  0  0  2  0  0  0  0  0  0
  186.0560  178.5970  137.7160 C   0  0  1  0  0  3  0  0  0  0  0  0
  186.4190  176.4170  136.8230 N   0  0  0  0  0  0  0  0  0  0  0  0
  185.1070  178.8890  138.8100 N   0  0  1  0  0  0  0  0  0  0  0  0
  188.4290  178.9440  137.6340 O   0  0  0  0  0  1  0  0  0  0  0  0
  184.1950  177.0680  137.5090 C   0  0  2  0  0  3  0  0  0  0  0  0
  1 16  1  0  0  0  0
  1  6  1  0  0  0  0
  2  8  1  0  0  0  0
  4 20  1  0  0  0  0
  5 27  1  6  0  0  0
  6 23  1  0  0  0  0
  8  7  1  0  0  0  0
  8 14  1  0  0  0  0
  9 18  1  1  0  0  0
 10 26  1  0  0  0  0
 10  8  1  1  0  0  0
 12 25  1  1  0  0  0
 12 28  1  0  0  0  0
 12 24  1  0  0  0  0
 13  9  1  0  0  0  0
 14  9  1  0  0  0  0
 15 11  1  6  0  0  0
 15 23  1  0  0  0  0
 16 28  1  0  0  0  0
 17  3  2  0  0  0  0
 17  5  1  0  0  0  0
 19 25  1  0  0  0  0
 19 15  1  0  0  0  0
 20 16  2  0  0  0  0
 21  1  2  0  0  0  0
 22  4  2  0  0  0  0
 22 21  1  0  0  0  0
 24  5  1  0  0  0  0
 24 26  1  0  0  0  0
 25 17  1  0  0  0  0
 26 13  1  0  0  0  0
 28 10  1  0  0  0  0
M  END
>  <MODEL>
3

>  <REMARK>
 VINA RESULT:      -6.0      2.258      3.309
  Name = 
  0 active torsions:
  status: ('A' for Active; 'I' for Inactive)
                            x       y       z     vdW  Elec       q    Type
                         _______ _______ _______ _____ _____    ______ ____

>  <TORSDO>
F 0

$$$$
=
 OpenBabel11122411523D

 28 32  0  0  1  0  0  0  0  0999 V2000
  191.7350  176.0820  137.8800 C   0  0  0  0  0  0  0  0  0  0  0  0
  190.2240  172.8570  135.7710 F   0  0  0  0  0  0  0  0  0  0  0  0
  186.4040  178.7500  137.5390 O   0  0  0  0  0  0  0  0  0  0  0  0
  193.4180  176.0030  135.6280 C   0  0  0  0  0  3  0  0  0  0  0  0
  186.7580  177.6010  135.4400 C   0  0  2  0  0  3  0  0  0  0  0  0
  190.9550  176.1340  139.0890 N   0  0  0  0  0  2  0  0  0  0  0  0
  188.6100  173.5830  137.1620 F   0  0  0  0  0  0  0  0  0  0  0  0
  189.0300  173.5480  135.8420 C   0  0  0  0  0  0  0  0  0  0  0  0
  186.7500  173.7040  134.7450 C   0  0  1  0  0  3  0  0  0  0  0  0
  189.2310  174.9760  135.2900 C   0  0  1  0  0  3  0  0  0  0  0  0
  189.5490  178.2490  140.6250 C   0  0  0  0  0  1  0  0  0  0  0  0
  189.1890  177.3000  135.8850 C   0  0  1  0  0  3  0  0  0  0  0  0
  186.9180  174.9880  135.2980 O   0  0  0  0  0  0  0  0  0  0  0  0
  187.9720  172.8120  135.0170 C   0  0  0  0  0  2  0  0  0  0  0  0
  188.9830  177.6100  139.3720 C   0  0  1  0  0  3  0  0  0  0  0  0
  191.1770  175.9760  136.5760 C   0  0  0  0  0  0  0  0  0  0  0  0
  187.1830  178.1710  136.7360 C   0  0  0  0  0  0  0  0  0  0  0  0
  185.5120  173.0590  135.3340 C   0  0  0  0  0  1  0  0  0  0  0  0
  189.2820  178.4810  138.1580 C   0  0  0  0  0  2  0  0  0  0  0  0
  192.0350  175.9530  135.4650 C   0  0  0  0  0  3  0  0  0  0  0  0
  193.1260  176.1270  138.0220 C   0  0  0  0  0  3  0  0  0  0  0  0
  193.9650  176.0860  136.9070 C   0  0  0  0  0  3  0  0  0  0  0  0
  189.5010  176.1780  139.2060 C   0  0  0  0  0  2  0  0  0  0  0  0
  188.0630  176.9850  134.8890 C   0  0  1  0  0  3  0  0  0  0  0  0
  188.5610  177.9940  136.9900 N   0  0  0  0  0  0  0  0  0  0  0  0
  188.0080  175.5240  134.6720 N   0  0  1  0  0  0  0  0  0  0  0  0
  186.3380  178.6270  134.5940 O   0  0  0  0  0  1  0  0  0  0  0  0
  189.6930  175.9580  136.3490 C   0  0  2  0  0  3  0  0  0  0  0  0
  1 21  1  0  0  0  0
  1  6  1  0  0  0  0
  2  8  1  0  0  0  0
  4 22  1  0  0  0  0
  5 27  1  6  0  0  0
  5 17  1  0  0  0  0
  6 23  1  0  0  0  0
  8  7  1  0  0  0  0
  9 14  1  0  0  0  0
  9 13  1  0  0  0  0
  9 18  1  1  0  0  0
 10  8  1  1  0  0  0
 10 28  1  0  0  0  0
 12 28  1  0  0  0  0
 12 25  1  1  0  0  0
 14  8  1  0  0  0  0
 15 11  1  1  0  0  0
 16  1  2  0  0  0  0
 17 25  1  0  0  0  0
 17  3  2  0  0  0  0
 19 15  1  0  0  0  0
 20  4  2  0  0  0  0
 20 16  1  0  0  0  0
 22 21  2  0  0  0  0
 23 15  1  0  0  0  0
 24  5  1  0  0  0  0
 24 12  1  0  0  0  0
 25 19  1  0  0  0  0
 26 24  1  0  0  0  0
 26 10  1  0  0  0  0
 26 13  1  0  0  0  0
 28 16  1  0  0  0  0
M  END
>  <MODEL>
4

>  <REMARK>
 VINA RESULT:      -5.4      5.562      8.959
  Name = 
  0 active torsions:
  status: ('A' for Active; 'I' for Inactive)
                            x       y       z     vdW  Elec       q    Type
                         _______ _______ _______ _____ _____    ______ ____

>  <TORSDO>
F 0

$$$$
=
 OpenBabel11122411523D

 28 32  0  0  1  0  0  0  0  0999 V2000
  192.3280  176.4340  137.6710 C   0  0  0  0  0  0  0  0  0  0  0  0
  189.2740  179.2120  137.3750 F   0  0  0  0  0  0  0  0  0  0  0  0
  188.8400  172.3760  135.0220 O   0  0  0  0  0  0  0  0  0  0  0  0
  191.8920  177.1280  140.3620 C   0  0  0  0  0  3  0  0  0  0  0  0
  187.4180  173.7020  136.4620 C   0  0  2  0  0  3  0  0  0  0  0  0
  192.6500  176.0890  136.3110 N   0  0  0  0  0  2  0  0  0  0  0  0
  189.2570  177.9710  135.4960 F   0  0  0  0  0  0  0  0  0  0  0  0
  188.6110  178.2050  136.7000 C   0  0  0  0  0  0  0  0  0  0  0  0
  186.2890  177.4680  136.0000 C   0  0  1  0  0  3  0  0  0  0  0  0
  188.5940  176.9300  137.5710 C   0  0  1  0  0  3  0  0  0  0  0  0
  193.1050  173.5700  134.8060 C   0  0  0  0  0  1  0  0  0  0  0  0
  189.3630  174.6600  137.6880 C   0  0  1  0  0  3  0  0  0  0  0  0
  187.0030  176.2560  136.0330 O   0  0  0  0  0  0  0  0  0  0  0  0
  187.1800  178.6550  136.4020 C   0  0  0  0  0  2  0  0  0  0  0  0
  191.7270  174.0950  135.1610 C   0  0  1  0  0  3  0  0  0  0  0  0
  191.0070  176.4540  138.1970 C   0  0  0  0  0  0  0  0  0  0  0  0
  188.7180  173.2010  135.9660 C   0  0  0  0  0  0  0  0  0  0  0  0
  185.7440  177.6940  134.6050 C   0  0  0  0  0  1  0  0  0  0  0  0
  191.2200  173.4200  136.4300 C   0  0  0  0  0  2  0  0  0  0  0  0
  190.8130  176.7890  139.5470 C   0  0  0  0  0  3  0  0  0  0  0  0
  193.3960  176.7820  138.5050 C   0  0  0  0  0  3  0  0  0  0  0  0
  193.1840  177.1280  139.8410 C   0  0  0  0  0  3  0  0  0  0  0  0
  191.7350  175.6230  135.2730 C   0  0  0  0  0  2  0  0  0  0  0  0
  187.8320  174.6990  137.5680 C   0  0  1  0  0  3  0  0  0  0  0  0
  189.8200  173.7500  136.6590 N   0  0  0  0  0  0  0  0  0  0  0  0
  187.4030  176.0920  137.3300 N   0  0  1  0  0  0  0  0  0  0  0  0
  186.6990  172.6510  137.0320 O   0  0  0  0  0  1  0  0  0  0  0  0
  189.8190  176.0600  137.3680 C   0  0  2  0  0  3  0  0  0  0  0  0
  1 16  2  0  0  0  0
  1 21  1  0  0  0  0
  3 17  2  0  0  0  0
  5 27  1  1  0  0  0
  5 24  1  0  0  0  0
  6  1  1  0  0  0  0
  7  8  1  0  0  0  0
  8  2  1  0  0  0  0
  9 18  1  6  0  0  0
  9 13  1  0  0  0  0
  9 14  1  0  0  0  0
 10  8  1  6  0  0  0
 12 25  1  6  0  0  0
 13 26  1  0  0  0  0
 14  8  1  0  0  0  0
 15 11  1  1  0  0  0
 15 23  1  0  0  0  0
 15 19  1  0  0  0  0
 16 20  1  0  0  0  0
 17  5  1  0  0  0  0
 17 25  1  0  0  0  0
 19 25  1  0  0  0  0
 20  4  2  0  0  0  0
 21 22  2  0  0  0  0
 22  4  1  0  0  0  0
 23  6  1  0  0  0  0
 24 12  1  0  0  0  0
 26 24  1  0  0  0  0
 26 10  1  0  0  0  0
 28 10  1  0  0  0  0
 28 12  1  0  0  0  0
 28 16  1  0  0  0  0
M  END
>  <MODEL>
5

>  <REMARK>
 VINA RESULT:      -5.3      5.544      8.779
  Name = 
  0 active torsions:
  status: ('A' for Active; 'I' for Inactive)
                            x       y       z     vdW  Elec       q    Type
                         _______ _______ _______ _____ _____    ______ ____

>  <TORSDO>
F 0

$$$$
=
 OpenBabel11122411523D

 28 32  0  0  1  0  0  0  0  0999 V2000
  182.8560  173.9650  136.2570 C   0  0  0  0  0  0  0  0  0  0  0  0
  181.0850  176.3400  139.1470 F   0  0  0  0  0  0  0  0  0  0  0  0
  188.1750  176.2780  137.6740 O   0  0  0  0  0  0  0  0  0  0  0  0
  181.0200  175.4700  134.7480 C   0  0  0  0  0  3  0  0  0  0  0  0
  186.5560  178.0680  137.8400 C   0  0  2  0  0  3  0  0  0  0  0  0
  183.7640  173.1130  136.9800 N   0  0  0  0  0  2  0  0  0  0  0  0
  183.0670  175.6400  139.9550 F   0  0  0  0  0  0  0  0  0  0  0  0
  182.3820  176.7240  139.4280 C   0  0  0  0  0  0  0  0  0  0  0  0
  183.7160  178.5630  140.5530 C   0  0  1  0  0  3  0  0  0  0  0  0
  183.0580  177.2260  138.1330 C   0  0  1  0  0  3  0  0  0  0  0  0
  186.5900  172.2610  136.6660 C   0  0  0  0  0  1  0  0  0  0  0  0
  184.8350  176.7790  136.5850 C   0  0  1  0  0  3  0  0  0  0  0  0
  184.6320  178.0380  139.6210 O   0  0  0  0  0  0  0  0  0  0  0  0
  182.3610  177.8390  140.4750 C   0  0  0  0  0  2  0  0  0  0  0  0
  186.1800  173.6070  137.2330 C   0  0  1  0  0  3  0  0  0  0  0  0
  182.7890  175.3760  136.4170 C   0  0  0  0  0  0  0  0  0  0  0  0
  187.0260  176.7300  137.4240 C   0  0  0  0  0  0  0  0  0  0  0  0
  184.2830  178.4240  141.9510 C   0  0  0  0  0  1  0  0  0  0  0  0
  186.2240  174.6700  136.1430 C   0  0  0  0  0  2  0  0  0  0  0  0
  181.8760  176.1100  135.6430 C   0  0  0  0  0  3  0  0  0  0  0  0
  181.9860  173.3420  135.3550 C   0  0  0  0  0  3  0  0  0  0  0  0
  181.0730  174.0850  134.6050 C   0  0  0  0  0  3  0  0  0  0  0  0
  184.8100  173.5200  137.9130 C   0  0  0  0  0  2  0  0  0  0  0  0
  185.0970  178.0950  137.3310 C   0  0  1  0  0  3  0  0  0  0  0  0
  186.0460  175.9970  136.7170 N   0  0  0  0  0  0  0  0  0  0  0  0
  184.0810  178.2590  138.3900 N   0  0  1  0  0  0  0  0  0  0  0  0
  187.2950  179.0490  137.1790 O   0  0  0  0  0  1  0  0  0  0  0  0
  183.7150  176.1130  137.3410 C   0  0  2  0  0  3  0  0  0  0  0  0
  1 16  1  0  0  0  0
  1  6  1  0  0  0  0
  2  8  1  0  0  0  0
  4 20  1  0  0  0  0
  5 27  1  6  0  0  0
  6 23  1  0  0  0  0
  8  7  1  0  0  0  0
  8 14  1  0  0  0  0
  9 18  1  1  0  0  0
 10 26  1  0  0  0  0
 10  8  1  1  0  0  0
 12 25  1  1  0  0  0
 12 24  1  0  0  0  0
 12 28  1  0  0  0  0
 13  9  1  0  0  0  0
 14  9  1  0  0  0  0
 15 11  1  6  0  0  0
 15 23  1  0  0  0  0
 16 28  1  0  0  0  0
 17  3  2  0  0  0  0
 17  5  1  0  0  0  0
 19 25  1  0  0  0  0
 19 15  1  0  0  0  0
 20 16  2  0  0  0  0
 21  1  2  0  0  0  0
 22  4  2  0  0  0  0
 22 21  1  0  0  0  0
 24  5  1  0  0  0  0
 24 26  1  0  0  0  0
 25 17  1  0  0  0  0
 26 13  1  0  0  0  0
 28 10  1  0  0  0  0
M  END
>  <MODEL>
6

>  <REMARK>
 VINA RESULT:      -5.3      2.323      3.971
  Name = 
  0 active torsions:
  status: ('A' for Active; 'I' for Inactive)
                            x       y       z     vdW  Elec       q    Type
                         _______ _______ _______ _____ _____    ______ ____

>  <TORSDO>
F 0

$$$$
=
 OpenBabel11122411523D

 28 32  0  0  1  0  0  0  0  0999 V2000
  187.3310  174.2660  135.3860 C   0  0  0  0  0  0  0  0  0  0  0  0
  191.2710  173.0020  135.2930 F   0  0  0  0  0  0  0  0  0  0  0  0
  189.0550  179.3080  138.0790 O   0  0  0  0  0  0  0  0  0  0  0  0
  187.2180  171.8600  136.8370 C   0  0  0  0  0  3  0  0  0  0  0  0
  190.4320  177.5260  138.9620 C   0  0  2  0  0  3  0  0  0  0  0  0
  187.3070  175.4680  134.5940 N   0  0  0  0  0  2  0  0  0  0  0  0
  191.2520  175.2180  134.8950 F   0  0  0  0  0  0  0  0  0  0  0  0
  191.5370  174.2430  135.8380 C   0  0  0  0  0  0  0  0  0  0  0  0
  193.3090  175.5130  137.1320 C   0  0  1  0  0  3  0  0  0  0  0  0
  190.6790  174.4390  137.1080 C   0  0  1  0  0  3  0  0  0  0  0  0
  186.1750  178.1950  134.8970 C   0  0  0  0  0  1  0  0  0  0  0  0
  188.9210  175.7620  138.0650 C   0  0  1  0  0  3  0  0  0  0  0  0
  192.1280  176.2070  137.4570 O   0  0  0  0  0  0  0  0  0  0  0  0
  193.0230  174.3310  136.1920 C   0  0  0  0  0  2  0  0  0  0  0  0
  187.4570  177.7420  135.5690 C   0  0  1  0  0  3  0  0  0  0  0  0
  188.2730  174.0140  136.4210 C   0  0  0  0  0  0  0  0  0  0  0  0
  189.2690  178.0770  138.2350 C   0  0  0  0  0  0  0  0  0  0  0  0
  194.2840  176.4630  136.4670 C   0  0  0  0  0  1  0  0  0  0  0  0
  187.1710  177.3030  137.0000 C   0  0  0  0  0  2  0  0  0  0  0  0
  188.1890  172.8120  137.1430 C   0  0  0  0  0  3  0  0  0  0  0  0
  186.3670  173.2960  135.0930 C   0  0  0  0  0  3  0  0  0  0  0  0
  186.3080  172.1000  135.8100 C   0  0  0  0  0  3  0  0  0  0  0  0
  188.1490  176.6500  134.7480 C   0  0  0  0  0  2  0  0  0  0  0  0
  190.2380  176.0000  138.8180 C   0  0  1  0  0  3  0  0  0  0  0  0
  188.4160  177.0750  137.7220 N   0  0  0  0  0  0  0  0  0  0  0  0
  191.3320  175.3060  138.1070 N   0  0  1  0  0  0  0  0  0  0  0  0
  190.3520  177.8780  140.3090 O   0  0  0  0  0  1  0  0  0  0  0  0
  189.3120  175.0240  136.8110 C   0  0  2  0  0  3  0  0  0  0  0  0
  1 16  1  0  0  0  0
  2  8  1  0  0  0  0
  3 17  2  0  0  0  0
  4 20  1  0  0  0  0
  5 27  1  1  0  0  0
  6 23  1  0  0  0  0
  6  1  1  0  0  0  0
  7  8  1  0  0  0  0
  8 14  1  0  0  0  0
  9 18  1  6  0  0  0
  9 13  1  0  0  0  0
 10  8  1  6  0  0  0
 10 26  1  0  0  0  0
 12 25  1  6  0  0  0
 12 24  1  0  0  0  0
 13 26  1  0  0  0  0
 14  9  1  0  0  0  0
 15 11  1  6  0  0  0
 15 19  1  0  0  0  0
 16 28  1  0  0  0  0
 16 20  2  0  0  0  0
 17  5  1  0  0  0  0
 19 25  1  0  0  0  0
 21  1  2  0  0  0  0
 21 22  1  0  0  0  0
 22  4  2  0  0  0  0
 23 15  1  0  0  0  0
 24  5  1  0  0  0  0
 25 17  1  0  0  0  0
 26 24  1  0  0  0  0
 28 10  1  0  0  0  0
 28 12  1  0  0  0  0
M  END
>  <MODEL>
7

>  <REMARK>
 VINA RESULT:      -5.3      6.081      8.231
  Name = 
  0 active torsions:
  status: ('A' for Active; 'I' for Inactive)
                            x       y       z     vdW  Elec       q    Type
                         _______ _______ _______ _____ _____    ______ ____

>  <TORSDO>
F 0

$$$$
=
 OpenBabel11122411523D

 28 32  0  0  1  0  0  0  0  0999 V2000
  181.4360  179.7180  138.1600 C   0  0  0  0  0  0  0  0  0  0  0  0
  184.1500  177.5030  135.9550 F   0  0  0  0  0  0  0  0  0  0  0  0
  179.6700  174.7290  140.9230 O   0  0  0  0  0  0  0  0  0  0  0  0
  180.6180  180.2330  135.5190 C   0  0  0  0  0  3  0  0  0  0  0  0
  180.1200  174.1430  138.6200 C   0  0  2  0  0  3  0  0  0  0  0  0
  181.8480  179.5530  139.5300 N   0  0  0  0  0  2  0  0  0  0  0  0
  184.1060  176.6550  138.0410 F   0  0  0  0  0  0  0  0  0  0  0  0
  183.7070  176.4480  136.7300 C   0  0  0  0  0  0  0  0  0  0  0  0
  183.6210  173.9150  136.7850 C   0  0  1  0  0  3  0  0  0  0  0  0
  182.1680  176.3520  136.6320 C   0  0  1  0  0  3  0  0  0  0  0  0
  180.4940  178.9250  142.0970 C   0  0  0  0  0  1  0  0  0  0  0  0
  180.1390  176.5260  137.8990 C   0  0  1  0  0  3  0  0  0  0  0  0
  182.5310  174.2820  137.5970 O   0  0  0  0  0  0  0  0  0  0  0  0
  184.3450  175.1520  136.2280 C   0  0  0  0  0  2  0  0  0  0  0  0
  180.8440  177.8780  141.0570 C   0  0  1  0  0  3  0  0  0  0  0  0
  181.2650  178.6440  137.2450 C   0  0  0  0  0  0  0  0  0  0  0  0
  179.8710  175.0850  139.7320 C   0  0  0  0  0  0  0  0  0  0  0  0
  184.5930  173.0810  137.5940 C   0  0  0  0  0  1  0  0  0  0  0  0
  179.6340  177.5890  140.1770 C   0  0  0  0  0  2  0  0  0  0  0  0
  180.8420  178.9210  135.9350 C   0  0  0  0  0  3  0  0  0  0  0  0
  181.2100  181.0270  137.7210 C   0  0  0  0  0  3  0  0  0  0  0  0
  180.8050  181.2870  136.4110 C   0  0  0  0  0  3  0  0  0  0  0  0
  182.0720  178.3000  140.2450 C   0  0  0  0  0  2  0  0  0  0  0  0
  180.3420  175.0830  137.4140 C   0  0  1  0  0  3  0  0  0  0  0  0
  179.8880  176.4370  139.3230 N   0  0  0  0  0  0  0  0  0  0  0  0
  181.6740  174.9710  136.7850 N   0  0  1  0  0  0  0  0  0  0  0  0
  178.9800  173.3690  138.3990 O   0  0  0  0  0  1  0  0  0  0  0  0
  181.4570  177.2140  137.6580 C   0  0  2  0  0  3  0  0  0  0  0  0
  1  6  1  0  0  0  0
  2  8  1  0  0  0  0
  4 20  2  0  0  0  0
  4 22  1  0  0  0  0
  5 27  1  6  0  0  0
  5 17  1  0  0  0  0
  6 23  1  0  0  0  0
  8  7  1  0  0  0  0
  9 18  1  1  0  0  0
  9 13  1  0  0  0  0
 10  8  1  1  0  0  0
 10 26  1  0  0  0  0
 10 28  1  0  0  0  0
 12 25  1  1  0  0  0
 14  8  1  0  0  0  0
 14  9  1  0  0  0  0
 15 11  1  1  0  0  0
 16 28  1  0  0  0  0
 16  1  2  0  0  0  0
 17  3  2  0  0  0  0
 19 15  1  0  0  0  0
 20 16  1  0  0  0  0
 21  1  1  0  0  0  0
 22 21  2  0  0  0  0
 23 15  1  0  0  0  0
 24 12  1  0  0  0  0
 24  5  1  0  0  0  0
 25 17  1  0  0  0  0
 25 19  1  0  0  0  0
 26 24  1  0  0  0  0
 26 13  1  0  0  0  0
 28 12  1  0  0  0  0
M  END
>  <MODEL>
8

>  <REMARK>
 VINA RESULT:      -5.2      3.320      5.650
  Name = 
  0 active torsions:
  status: ('A' for Active; 'I' for Inactive)
                            x       y       z     vdW  Elec       q    Type
                         _______ _______ _______ _____ _____    ______ ____

>  <TORSDO>
F 0

$$$$
=
 OpenBabel11122411523D

 28 32  0  0  1  0  0  0  0  0999 V2000
  183.5750  179.0880  140.8880 C   0  0  0  0  0  0  0  0  0  0  0  0
  180.7570  181.8390  139.6150 F   0  0  0  0  0  0  0  0  0  0  0  0
  183.9510  176.9580  135.3230 O   0  0  0  0  0  0  0  0  0  0  0  0
  181.3550  178.4530  142.4940 C   0  0  0  0  0  3  0  0  0  0  0  0
  181.6310  177.5230  135.7110 C   0  0  2  0  0  3  0  0  0  0  0  0
  184.7680  179.4080  140.1490 N   0  0  0  0  0  2  0  0  0  0  0  0
  182.3000  181.6350  137.9880 F   0  0  0  0  0  0  0  0  0  0  0  0
  181.0070  181.3080  138.3640 C   0  0  0  0  0  0  0  0  0  0  0  0
  180.0040  181.1170  136.0440 C   0  0  1  0  0  3  0  0  0  0  0  0
  180.8190  179.7750  138.4120 C   0  0  1  0  0  3  0  0  0  0  0  0
  186.7890  177.8780  138.6040 C   0  0  0  0  0  1  0  0  0  0  0  0
  181.9650  177.6810  138.1740 C   0  0  1  0  0  3  0  0  0  0  0  0
  180.8530  179.9950  136.1100 O   0  0  0  0  0  0  0  0  0  0  0  0
  180.0380  181.9230  137.3530 C   0  0  0  0  0  2  0  0  0  0  0  0
  185.4230  178.2470  138.0590 C   0  0  1  0  0  3  0  0  0  0  0  0
  182.2910  178.9290  140.2980 C   0  0  0  0  0  0  0  0  0  0  0  0
  183.0230  177.2450  136.1250 C   0  0  0  0  0  0  0  0  0  0  0  0
  180.4310  182.0040  134.8920 C   0  0  0  0  0  1  0  0  0  0  0  0
  184.4570  177.0820  138.2330 C   0  0  0  0  0  2  0  0  0  0  0  0
  181.1990  178.5980  141.1170 C   0  0  0  0  0  3  0  0  0  0  0  0
  183.7090  178.9420  142.2730 C   0  0  0  0  0  3  0  0  0  0  0  0
  182.6100  178.6280  143.0740 C   0  0  0  0  0  3  0  0  0  0  0  0
  184.9070  179.5380  138.7010 C   0  0  0  0  0  2  0  0  0  0  0  0
  180.9330  177.8550  137.0490 C   0  0  1  0  0  3  0  0  0  0  0  0
  183.2120  177.3410  137.5210 N   0  0  0  0  0  0  0  0  0  0  0  0
  180.3660  179.2170  137.1230 N   0  0  1  0  0  0  0  0  0  0  0  0
  181.0660  176.3690  135.1690 O   0  0  0  0  0  1  0  0  0  0  0  0
  182.0810  179.0390  138.8160 C   0  0  2  0  0  3  0  0  0  0  0  0
  1 21  1  0  0  0  0
  3 17  2  0  0  0  0
  4 22  1  0  0  0  0
  5 27  1  1  0  0  0
  5 17  1  0  0  0  0
  5 24  1  0  0  0  0
  6  1  1  0  0  0  0
  7  8  1  0  0  0  0
  8  2  1  0  0  0  0
  9 18  1  6  0  0  0
  9 13  1  0  0  0  0
  9 14  1  0  0  0  0
 10  8  1  6  0  0  0
 10 28  1  0  0  0  0
 12 25  1  6  0  0  0
 12 28  1  0  0  0  0
 13 26  1  0  0  0  0
 14  8  1  0  0  0  0
 15 19  1  0  0  0  0
 15 11  1  1  0  0  0
 15 23  1  0  0  0  0
 16  1  2  0  0  0  0
 16 20  1  0  0  0  0
 17 25  1  0  0  0  0
 20  4  2  0  0  0  0
 21 22  2  0  0  0  0
 23  6  1  0  0  0  0
 24 26  1  0  0  0  0
 24 12  1  0  0  0  0
 25 19  1  0  0  0  0
 26 10  1  0  0  0  0
 28 16  1  0  0  0  0
M  END
>  <MODEL>
9

>  <REMARK>
 VINA RESULT:      -5.1      2.779      5.205
  Name = 
  0 active torsions:
  status: ('A' for Active; 'I' for Inactive)
                            x       y       z     vdW  Elec       q    Type
                         _______ _______ _______ _____ _____    ______ ____

>  <TORSDO>
F 0

$$$$
