=
 OpenBabel11122411183D

 31 35  0  0  1  0  0  0  0  0999 V2000
  191.4970  175.9860  143.8510 C   0  0  2  0  0  3  0  0  0  0  0  0
  187.7580  176.9520  144.1270 C   0  0  2  0  0  3  0  0  0  0  0  0
  186.9930  177.7600  145.1570 C   0  0  0  0  0  0  0  0  0  0  0  0
  186.7460  178.6230  147.4140 C   0  0  0  0  0  0  0  0  0  0  0  0
  189.2820  177.0670  144.2950 C   0  0  1  0  0  3  0  0  0  0  0  0
  192.0180  177.2830  143.2420 C   0  0  0  0  0  2  0  0  0  0  0  0
  187.4750  177.9010  146.4660 C   0  0  0  0  0  3  0  0  0  0  0  0
  187.8630  178.6190  142.1970 C   0  0  2  0  0  3  0  0  0  0  0  0
  192.1270  174.9010  143.2440 O   0  0  0  0  0  1  0  0  0  0  0  0
  185.2150  178.1480  143.5350 O   0  0  0  0  0  0  0  0  0  0  0  0
  187.2730  178.7790  148.7950 C   0  0  0  0  0  1  0  0  0  0  0  0
  189.3840  178.6470  142.3130 C   0  0  0  0  0  2  0  0  0  0  0  0
  187.3150  177.2670  142.6800 C   0  0  2  0  0  3  0  0  0  0  0  0
  189.9890  175.8760  143.6450 C   0  0  0  0  0  2  0  0  0  0  0  0
  185.5210  179.1960  147.0660 C   0  0  0  0  0  3  0  0  0  0  0  0
  189.8140  178.4110  143.7590 C   0  0  2  0  0  3  0  0  0  0  0  0
  191.3360  178.4870  143.8950 C   0  0  0  0  0  2  0  0  0  0  0  0
  185.7880  177.2340  142.6020 C   0  0  0  0  0  2  0  0  0  0  0  0
  185.7390  178.3100  144.8210 C   0  0  0  0  0  0  0  0  0  0  0  0
  185.0170  179.0390  145.7720 C   0  0  0  0  0  3  0  0  0  0  0  0
  188.8350  177.1520  139.9520 O   0  0  0  0  0  0  0  0  0  0  0  0
  187.9950  178.0680  139.7320 C   0  0  0  0  0  0  0  0  0  0  0  0
  187.4780  178.8480  140.8110 N   0  0  0  0  0  2  0  0  0  0  0  0
  188.8090  176.2820  136.8840 C   0  0  2  0  0  3  0  0  0  0  0  0
  186.7730  177.1920  137.7610 C   0  0  0  0  0  3  0  0  0  0  0  0
  189.1350  179.8540  137.4530 O   0  0  0  0  0  0  0  0  0  0  0  0
  189.1610  175.3560  135.8240 N   0  0  0  0  0  1  0  0  0  0  0  0
  187.3740  176.2660  137.0900 N   0  0  0  0  0  0  0  0  0  0  0  0
  188.6920  178.7170  137.4440 C   0  0  0  0  0  0  0  0  0  0  0  0
  187.5340  178.3570  138.3380 C   0  0  2  0  0  3  0  0  0  0  0  0
  189.3090  177.6870  136.5370 C   0  0  0  0  0  2  0  0  0  0  0  0
  1  9  1  6  0  0  0
  2  5  1  0  0  0  0
  2  3  1  1  0  0  0
  3  7  1  0  0  0  0
  4 11  1  0  0  0  0
  5 14  1  6  0  0  0
  6  1  1  0  0  0  0
  6 17  1  0  0  0  0
  7  4  2  0  0  0  0
  8 23  1  6  0  0  0
  8 12  1  0  0  0  0
  8 13  1  0  0  0  0
 10 19  1  0  0  0  0
 13 18  1  1  0  0  0
 13  2  1  0  0  0  0
 14  1  1  0  0  0  0
 15  4  1  0  0  0  0
 16 12  1  6  0  0  0
 16 17  1  0  0  0  0
 16  5  1  0  0  0  0
 18 10  1  0  0  0  0
 19  3  2  0  0  0  0
 19 20  1  0  0  0  0
 20 15  2  0  0  0  0
 22 21  2  0  0  0  0
 22 23  1  0  0  0  0
 24 27  1  6  0  0  0
 24 28  1  0  0  0  0
 25 30  1  0  0  0  0
 28 25  2  0  0  0  0
 29 26  2  0  0  0  0
 29 30  1  0  0  0  0
 30 22  1  1  0  0  0
 31 24  1  0  0  0  0
 31 29  1  0  0  0  0
M  END
>  <MODEL>
1

>  <REMARK>
 VINA RESULT:      -7.7      0.000      0.000
  Name = 
  2 active torsions:
  status: ('A' for Active; 'I' for Inactive)
    1  A    between atoms: C_5  and  C_30
    2  A    between atoms: C_10  and  N_16
                            x       y       z     vdW  Elec       q    Type
                         _______ _______ _______ _____ _____    ______ ____

>  <TORSDO>
F 2

$$$$
=
 OpenBabel11122411183D

 31 35  0  0  1  0  0  0  0  0999 V2000
  193.6770  176.0050  136.1520 C   0  0  2  0  0  3  0  0  0  0  0  0
  189.8680  176.5170  136.6240 C   0  0  2  0  0  3  0  0  0  0  0  0
  188.6930  175.5700  136.4850 C   0  0  0  0  0  0  0  0  0  0  0  0
  187.6820  173.5730  135.5380 C   0  0  0  0  0  0  0  0  0  0  0  0
  191.2230  175.7890  136.6030 C   0  0  1  0  0  3  0  0  0  0  0  0
  193.9900  175.3940  137.5120 C   0  0  0  0  0  2  0  0  0  0  0  0
  188.7820  174.4230  135.6830 C   0  0  0  0  0  3  0  0  0  0  0  0
  190.0290  176.7070  139.1640 C   0  0  2  0  0  3  0  0  0  0  0  0
  194.6900  176.8930  135.7970 O   0  0  0  0  0  1  0  0  0  0  0  0
  187.3380  177.0440  137.8730 O   0  0  0  0  0  0  0  0  0  0  0  0
  187.7920  172.3530  134.6980 C   0  0  0  0  0  1  0  0  0  0  0  0
  191.4150  176.0720  139.1170 C   0  0  0  0  0  2  0  0  0  0  0  0
  189.7360  177.4480  137.8500 C   0  0  2  0  0  3  0  0  0  0  0  0
  192.3450  176.7480  136.2020 C   0  0  0  0  0  2  0  0  0  0  0  0
  186.4800  173.8720  136.1830 C   0  0  0  0  0  3  0  0  0  0  0  0
  191.5160  175.0950  137.9480 C   0  0  2  0  0  3  0  0  0  0  0  0
  192.8870  174.4160  137.9210 C   0  0  0  0  0  2  0  0  0  0  0  0
  188.3360  178.0630  137.8670 C   0  0  0  0  0  2  0  0  0  0  0  0
  187.4660  175.8850  137.1030 C   0  0  0  0  0  0  0  0  0  0  0  0
  186.3710  175.0260  136.9620 C   0  0  0  0  0  3  0  0  0  0  0  0
  189.8220  175.9570  141.9090 O   0  0  0  0  0  0  0  0  0  0  0  0
  189.8670  177.1900  141.6410 C   0  0  0  0  0  0  0  0  0  0  0  0
  189.9570  177.6320  140.2870 N   0  0  0  0  0  2  0  0  0  0  0  0
  191.1860  176.8560  144.8210 C   0  0  2  0  0  3  0  0  0  0  0  0
  191.1990  178.6040  143.1810 C   0  0  0  0  0  3  0  0  0  0  0  0
  187.7980  177.7750  143.8910 O   0  0  0  0  0  0  0  0  0  0  0  0
  191.8940  176.5880  146.0590 N   0  0  0  0  0  1  0  0  0  0  0  0
  191.7970  177.9830  144.1420 N   0  0  0  0  0  0  0  0  0  0  0  0
  189.0160  177.7050  143.9110 C   0  0  0  0  0  0  0  0  0  0  0  0
  189.8150  178.2080  142.7370 C   0  0  2  0  0  3  0  0  0  0  0  0
  189.7060  177.1150  145.1120 C   0  0  0  0  0  2  0  0  0  0  0  0
  1  9  1  1  0  0  0
  1 14  1  0  0  0  0
  1  6  1  0  0  0  0
  2  3  1  1  0  0  0
  2 13  1  0  0  0  0
  3 19  1  0  0  0  0
  4  7  1  0  0  0  0
  4 15  2  0  0  0  0
  5 14  1  1  0  0  0
  5  2  1  0  0  0  0
  5 16  1  0  0  0  0
  6 17  1  0  0  0  0
  7  3  2  0  0  0  0
  8 23  1  1  0  0  0
 11  4  1  0  0  0  0
 12  8  1  0  0  0  0
 13 18  1  1  0  0  0
 13  8  1  0  0  0  0
 15 20  1  0  0  0  0
 16 17  1  6  0  0  0
 16 12  1  0  0  0  0
 18 10  1  0  0  0  0
 19 10  1  0  0  0  0
 20 19  2  0  0  0  0
 22 21  2  0  0  0  0
 23 22  1  0  0  0  0
 24 31  1  0  0  0  0
 24 27  1  1  0  0  0
 25 28  2  0  0  0  0
 26 29  2  0  0  0  0
 28 24  1  0  0  0  0
 29 31  1  0  0  0  0
 30 22  1  6  0  0  0
 30 25  1  0  0  0  0
 30 29  1  0  0  0  0
M  END
>  <MODEL>
2

>  <REMARK>
 VINA RESULT:      -7.6      3.292      8.121
  Name = 
  2 active torsions:
  status: ('A' for Active; 'I' for Inactive)
    1  A    between atoms: C_5  and  C_30
    2  A    between atoms: C_10  and  N_16
                            x       y       z     vdW  Elec       q    Type
                         _______ _______ _______ _____ _____    ______ ____

>  <TORSDO>
F 2

$$$$
=
 OpenBabel11122411183D

 31 35  0  0  1  0  0  0  0  0999 V2000
  187.4090  178.7090  136.9710 C   0  0  2  0  0  3  0  0  0  0  0  0
  189.7880  178.0010  139.9420 C   0  0  2  0  0  3  0  0  0  0  0  0
  189.5380  177.4540  141.3330 C   0  0  0  0  0  0  0  0  0  0  0  0
  188.0630  177.0760  143.2260 C   0  0  0  0  0  0  0  0  0  0  0  0
  188.5710  177.8480  139.0160 C   0  0  1  0  0  3  0  0  0  0  0  0
  187.3190  177.2930  136.4150 C   0  0  0  0  0  2  0  0  0  0  0  0
  188.2740  177.5560  141.9310 C   0  0  0  0  0  3  0  0  0  0  0  0
  190.8690  175.9770  138.8230 C   0  0  2  0  0  3  0  0  0  0  0  0
  187.4940  179.6180  135.9180 O   0  0  0  0  0  1  0  0  0  0  0  0
  191.8880  176.8350  141.5160 O   0  0  0  0  0  0  0  0  0  0  0  0
  186.7150  177.1750  143.8440 C   0  0  0  0  0  1  0  0  0  0  0  0
  189.6990  175.8990  137.8480 C   0  0  0  0  0  2  0  0  0  0  0  0
  191.0710  177.4230  139.3010 C   0  0  2  0  0  3  0  0  0  0  0  0
  188.6410  178.8480  137.8600 C   0  0  0  0  0  2  0  0  0  0  0  0
  189.1180  176.5040  143.9400 C   0  0  0  0  0  3  0  0  0  0  0  0
  188.4170  176.4000  138.5110 C   0  0  2  0  0  3  0  0  0  0  0  0
  187.2270  176.2790  137.5560 C   0  0  0  0  0  2  0  0  0  0  0  0
  192.2210  177.5140  140.3060 C   0  0  0  0  0  2  0  0  0  0  0  0
  190.6080  176.9100  142.0720 C   0  0  0  0  0  0  0  0  0  0  0  0
  190.3890  176.4220  143.3650 C   0  0  0  0  0  3  0  0  0  0  0  0
  191.1220  173.4840  137.4590 O   0  0  0  0  0  0  0  0  0  0  0  0
  192.1340  174.2370  137.4920 C   0  0  0  0  0  0  0  0  0  0  0  0
  192.0780  175.4930  138.1700 N   0  0  0  0  0  2  0  0  0  0  0  0
  194.4020  176.3190  135.9150 C   0  0  2  0  0  3  0  0  0  0  0  0
  194.5990  174.5020  137.4640 C   0  0  0  0  0  3  0  0  0  0  0  0
  192.8220  173.3260  134.5970 O   0  0  0  0  0  0  0  0  0  0  0  0
  195.2890  177.3460  135.4000 N   0  0  0  0  0  1  0  0  0  0  0  0
  195.0410  175.6310  137.0200 N   0  0  0  0  0  0  0  0  0  0  0  0
  193.3780  174.1070  135.3520 C   0  0  0  0  0  0  0  0  0  0  0  0
  193.4120  173.8230  136.8310 C   0  0  2  0  0  3  0  0  0  0  0  0
  194.0240  175.3470  134.7940 C   0  0  0  0  0  2  0  0  0  0  0  0
  1  9  1  6  0  0  0
  1 14  1  0  0  0  0
  2  3  1  1  0  0  0
  3  7  2  0  0  0  0
  3 19  1  0  0  0  0
  4 11  1  0  0  0  0
  4 15  2  0  0  0  0
  5 14  1  6  0  0  0
  5  2  1  0  0  0  0
  6  1  1  0  0  0  0
  6 17  1  0  0  0  0
  7  4  1  0  0  0  0
  8 23  1  6  0  0  0
  8 13  1  0  0  0  0
 10 19  1  0  0  0  0
 12 16  1  0  0  0  0
 12  8  1  0  0  0  0
 13  2  1  0  0  0  0
 13 18  1  1  0  0  0
 16 17  1  6  0  0  0
 16  5  1  0  0  0  0
 18 10  1  0  0  0  0
 19 20  2  0  0  0  0
 20 15  1  0  0  0  0
 21 22  2  0  0  0  0
 22 23  1  0  0  0  0
 24 27  1  6  0  0  0
 24 28  1  0  0  0  0
 26 29  2  0  0  0  0
 28 25  2  0  0  0  0
 29 30  1  0  0  0  0
 30 25  1  0  0  0  0
 30 22  1  1  0  0  0
 31 29  1  0  0  0  0
 31 24  1  0  0  0  0
M  END
>  <MODEL>
3

>  <REMARK>
 VINA RESULT:      -7.3      3.618      6.490
  Name = 
  2 active torsions:
  status: ('A' for Active; 'I' for Inactive)
    1  A    between atoms: C_5  and  C_30
    2  A    between atoms: C_10  and  N_16
                            x       y       z     vdW  Elec       q    Type
                         _______ _______ _______ _____ _____    ______ ____

>  <TORSDO>
F 2

$$$$
=
 OpenBabel11122411183D

 31 35  0  0  1  0  0  0  0  0999 V2000
  192.3690  175.5060  135.5410 C   0  0  2  0  0  3  0  0  0  0  0  0
  189.1870  177.3640  136.7290 C   0  0  2  0  0  3  0  0  0  0  0  0
  187.7160  177.0050  136.6570 C   0  0  0  0  0  0  0  0  0  0  0  0
  185.8780  175.8050  135.6140 C   0  0  0  0  0  0  0  0  0  0  0  0
  190.1050  176.1840  136.3700 C   0  0  1  0  0  3  0  0  0  0  0  0
  192.5270  174.5560  136.7230 C   0  0  0  0  0  2  0  0  0  0  0  0
  187.2410  176.1050  135.6910 C   0  0  0  0  0  3  0  0  0  0  0  0
  189.6560  176.9520  139.2040 C   0  0  2  0  0  3  0  0  0  0  0  0
  193.6210  175.9770  135.1520 O   0  0  0  0  0  1  0  0  0  0  0  0
  187.2410  178.5750  138.4580 O   0  0  0  0  0  0  0  0  0  0  0  0
  185.3870  174.8390  134.5980 C   0  0  0  0  0  1  0  0  0  0  0  0
  190.6390  175.8480  138.8270 C   0  0  0  0  0  2  0  0  0  0  0  0
  189.5750  178.0000  138.0840 C   0  0  2  0  0  3  0  0  0  0  0  0
  191.4810  176.6850  135.9280 C   0  0  0  0  0  2  0  0  0  0  0  0
  184.9780  176.4140  136.4920 C   0  0  0  0  0  3  0  0  0  0  0  0
  190.2090  175.1710  137.5270 C   0  0  2  0  0  3  0  0  0  0  0  0
  191.1620  174.0290  137.1670 C   0  0  0  0  0  2  0  0  0  0  0  0
  188.5680  179.0980  138.4310 C   0  0  0  0  0  2  0  0  0  0  0  0
  186.7990  177.6430  137.5150 C   0  0  0  0  0  0  0  0  0  0  0  0
  185.4370  177.3320  137.4400 C   0  0  0  0  0  3  0  0  0  0  0  0
  188.0240  177.3270  141.5140 O   0  0  0  0  0  0  0  0  0  0  0  0
  189.2200  177.7270  141.5720 C   0  0  0  0  0  0  0  0  0  0  0  0
  190.0850  177.5800  140.4460 N   0  0  0  0  0  2  0  0  0  0  0  0
  191.1590  176.2140  144.0030 C   0  0  2  0  0  3  0  0  0  0  0  0
  191.2520  178.3190  142.8620 C   0  0  0  0  0  3  0  0  0  0  0  0
  188.0580  178.0530  144.4410 O   0  0  0  0  0  0  0  0  0  0  0  0
  192.0530  175.4550  144.8580 N   0  0  0  0  0  1  0  0  0  0  0  0
  191.8720  177.3340  143.4220 N   0  0  0  0  0  0  0  0  0  0  0  0
  189.1660  177.7260  144.0500 C   0  0  0  0  0  0  0  0  0  0  0  0
  189.7460  178.3690  142.8170 C   0  0  2  0  0  3  0  0  0  0  0  0
  189.9420  176.6820  144.8070 C   0  0  0  0  0  2  0  0  0  0  0  0
  1  9  1  1  0  0  0
  1 14  1  0  0  0  0
  1  6  1  0  0  0  0
  2  3  1  1  0  0  0
  2 13  1  0  0  0  0
  3 19  1  0  0  0  0
  4  7  1  0  0  0  0
  4 15  2  0  0  0  0
  5 14  1  1  0  0  0
  5  2  1  0  0  0  0
  5 16  1  0  0  0  0
  6 17  1  0  0  0  0
  7  3  2  0  0  0  0
  8 23  1  1  0  0  0
 11  4  1  0  0  0  0
 12  8  1  0  0  0  0
 13 18  1  1  0  0  0
 13  8  1  0  0  0  0
 15 20  1  0  0  0  0
 16 17  1  6  0  0  0
 16 12  1  0  0  0  0
 18 10  1  0  0  0  0
 19 10  1  0  0  0  0
 20 19  2  0  0  0  0
 21 22  2  0  0  0  0
 23 22  1  0  0  0  0
 24 31  1  0  0  0  0
 24 27  1  1  0  0  0
 25 28  2  0  0  0  0
 28 24  1  0  0  0  0
 29 26  2  0  0  0  0
 29 31  1  0  0  0  0
 30 22  1  6  0  0  0
 30 25  1  0  0  0  0
 30 29  1  0  0  0  0
M  END
>  <MODEL>
4

>  <REMARK>
 VINA RESULT:      -7.2      2.879      7.793
  Name = 
  2 active torsions:
  status: ('A' for Active; 'I' for Inactive)
    1  A    between atoms: C_5  and  C_30
    2  A    between atoms: C_10  and  N_16
                            x       y       z     vdW  Elec       q    Type
                         _______ _______ _______ _____ _____    ______ ____

>  <TORSDO>
F 2

$$$$
=
 OpenBabel11122411183D

 31 35  0  0  1  0  0  0  0  0999 V2000
  187.0360  177.9340  136.1450 C   0  0  2  0  0  3  0  0  0  0  0  0
  189.5880  177.7860  139.0520 C   0  0  2  0  0  3  0  0  0  0  0  0
  189.4310  177.4640  140.5240 C   0  0  0  0  0  0  0  0  0  0  0  0
  188.0690  177.3500  142.5330 C   0  0  0  0  0  0  0  0  0  0  0  0
  188.3320  177.4490  138.2320 C   0  0  1  0  0  3  0  0  0  0  0  0
  186.9730  176.4450  135.8270 C   0  0  0  0  0  2  0  0  0  0  0  0
  188.1950  177.6210  141.1690 C   0  0  0  0  0  3  0  0  0  0  0  0
  190.6900  175.6430  138.2100 C   0  0  2  0  0  3  0  0  0  0  0  0
  187.0310  178.6640  134.9570 O   0  0  0  0  0  1  0  0  0  0  0  0
  191.8090  176.9550  140.6700 O   0  0  0  0  0  0  0  0  0  0  0  0
  186.7520  177.5060  143.2030 C   0  0  0  0  0  1  0  0  0  0  0  0
  189.4760  175.3730  137.3270 C   0  0  0  0  0  2  0  0  0  0  0  0
  190.8590  177.1540  138.4400 C   0  0  2  0  0  3  0  0  0  0  0  0
  188.3040  178.2520  136.9300 C   0  0  0  0  0  2  0  0  0  0  0  0
  189.1820  176.9330  143.2680 C   0  0  0  0  0  3  0  0  0  0  0  0
  188.2110  175.9350  137.9730 C   0  0  2  0  0  3  0  0  0  0  0  0
  186.9800  175.6260  137.1190 C   0  0  0  0  0  2  0  0  0  0  0  0
  192.0540  177.4400  139.3510 C   0  0  0  0  0  2  0  0  0  0  0  0
  190.5570  177.0780  141.2790 C   0  0  0  0  0  0  0  0  0  0  0  0
  190.4240  176.7990  142.6430 C   0  0  0  0  0  3  0  0  0  0  0  0
  191.5040  176.1470  135.5230 O   0  0  0  0  0  0  0  0  0  0  0  0
  192.2390  175.4000  136.2260 C   0  0  0  0  0  0  0  0  0  0  0  0
  191.8820  175.0980  137.5750 N   0  0  0  0  0  2  0  0  0  0  0  0
  194.5560  173.4650  137.9130 C   0  0  2  0  0  3  0  0  0  0  0  0
  193.4910  173.3090  135.7720 C   0  0  0  0  0  3  0  0  0  0  0  0
  195.1510  176.4670  135.9580 O   0  0  0  0  0  0  0  0  0  0  0  0
  195.3560  172.5820  138.7420 N   0  0  0  0  0  1  0  0  0  0  0  0
  193.9960  172.7180  136.8030 N   0  0  0  0  0  0  0  0  0  0  0  0
  194.7160  175.3860  136.3180 C   0  0  0  0  0  0  0  0  0  0  0  0
  193.4910  174.8120  135.6550 C   0  0  2  0  0  3  0  0  0  0  0  0
  195.4120  174.6370  137.4230 C   0  0  0  0  0  2  0  0  0  0  0  0
  1  9  1  6  0  0  0
  1 14  1  0  0  0  0
  2  3  1  1  0  0  0
  3  7  2  0  0  0  0
  3 19  1  0  0  0  0
  4 11  1  0  0  0  0
  4 15  2  0  0  0  0
  5 14  1  6  0  0  0
  5  2  1  0  0  0  0
  6  1  1  0  0  0  0
  6 17  1  0  0  0  0
  7  4  1  0  0  0  0
  8 23  1  6  0  0  0
  8 13  1  0  0  0  0
 10 19  1  0  0  0  0
 12 16  1  0  0  0  0
 12  8  1  0  0  0  0
 13  2  1  0  0  0  0
 13 18  1  1  0  0  0
 16 17  1  6  0  0  0
 16  5  1  0  0  0  0
 18 10  1  0  0  0  0
 19 20  2  0  0  0  0
 20 15  1  0  0  0  0
 21 22  2  0  0  0  0
 22 23  1  0  0  0  0
 24 27  1  6  0  0  0
 25 28  2  0  0  0  0
 26 29  2  0  0  0  0
 28 24  1  0  0  0  0
 29 31  1  0  0  0  0
 30 25  1  0  0  0  0
 30 22  1  1  0  0  0
 30 29  1  0  0  0  0
 31 24  1  0  0  0  0
M  END
>  <MODEL>
5

>  <REMARK>
 VINA RESULT:      -7.1      3.789      6.885
  Name = 
  2 active torsions:
  status: ('A' for Active; 'I' for Inactive)
    1  A    between atoms: C_5  and  C_30
    2  A    between atoms: C_10  and  N_16
                            x       y       z     vdW  Elec       q    Type
                         _______ _______ _______ _____ _____    ______ ____

>  <TORSDO>
F 2

$$$$
=
 OpenBabel11122411183D

 31 35  0  0  1  0  0  0  0  0999 V2000
  179.7160  179.3010  139.6240 C   0  0  2  0  0  3  0  0  0  0  0  0
  183.5430  179.2230  140.2060 C   0  0  2  0  0  3  0  0  0  0  0  0
  184.3770  178.8590  141.4180 C   0  0  0  0  0  0  0  0  0  0  0  0
  184.6290  178.6260  143.8230 C   0  0  0  0  0  0  0  0  0  0  0  0
  182.0630  178.8380  140.3660 C   0  0  1  0  0  3  0  0  0  0  0  0
  179.5040  177.8180  139.3430 C   0  0  0  0  0  2  0  0  0  0  0  0
  183.8410  178.9350  142.7110 C   0  0  0  0  0  3  0  0  0  0  0  0
  183.9020  177.1620  138.7440 C   0  0  2  0  0  3  0  0  0  0  0  0
  178.9310  180.0560  138.7550 O   0  0  0  0  0  1  0  0  0  0  0  0
  186.3060  178.4750  139.9790 O   0  0  0  0  0  0  0  0  0  0  0  0
  184.0460  178.6960  145.1880 C   0  0  0  0  0  1  0  0  0  0  0  0
  182.4120  176.8480  138.8320 C   0  0  0  0  0  2  0  0  0  0  0  0
  184.1390  178.6730  138.8900 C   0  0  2  0  0  3  0  0  0  0  0  0
  181.1840  179.6680  139.4280 C   0  0  0  0  0  2  0  0  0  0  0  0
  185.9640  178.2530  143.6510 C   0  0  0  0  0  3  0  0  0  0  0  0
  181.8440  177.3250  140.1670 C   0  0  2  0  0  3  0  0  0  0  0  0
  180.3600  176.9710  140.2850 C   0  0  0  0  0  2  0  0  0  0  0  0
  185.6320  179.0030  138.8370 C   0  0  0  0  0  2  0  0  0  0  0  0
  185.7350  178.5170  141.2540 C   0  0  0  0  0  0  0  0  0  0  0  0
  186.5170  178.2000  142.3690 C   0  0  0  0  0  3  0  0  0  0  0  0
  184.1720  174.4290  137.9690 O   0  0  0  0  0  0  0  0  0  0  0  0
  184.5190  175.3110  137.1350 C   0  0  0  0  0  0  0  0  0  0  0  0
  184.4210  176.6960  137.4650 N   0  0  0  0  0  2  0  0  0  0  0  0
  186.9750  172.9610  136.4990 C   0  0  2  0  0  3  0  0  0  0  0  0
  184.8390  173.4480  135.5300 C   0  0  0  0  0  3  0  0  0  0  0  0
  186.8320  176.4080  135.3650 O   0  0  0  0  0  0  0  0  0  0  0  0
  187.9310  171.8720  136.4130 N   0  0  0  0  0  1  0  0  0  0  0  0
  185.7380  172.5780  135.8480 N   0  0  0  0  0  0  0  0  0  0  0  0
  186.5060  175.2690  135.6540 C   0  0  0  0  0  0  0  0  0  0  0  0
  185.0470  174.9180  135.7910 C   0  0  2  0  0  3  0  0  0  0  0  0
  187.5690  174.2250  135.8710 C   0  0  0  0  0  2  0  0  0  0  0  0
  1  9  1  6  0  0  0
  2  5  1  0  0  0  0
  2  3  1  1  0  0  0
  3  7  1  0  0  0  0
  4 11  1  0  0  0  0
  5 14  1  6  0  0  0
  6  1  1  0  0  0  0
  6 17  1  0  0  0  0
  7  4  2  0  0  0  0
  8 23  1  6  0  0  0
  8 12  1  0  0  0  0
  8 13  1  0  0  0  0
 10 19  1  0  0  0  0
 13 18  1  1  0  0  0
 13  2  1  0  0  0  0
 14  1  1  0  0  0  0
 15  4  1  0  0  0  0
 16 12  1  6  0  0  0
 16 17  1  0  0  0  0
 16  5  1  0  0  0  0
 18 10  1  0  0  0  0
 19  3  2  0  0  0  0
 19 20  1  0  0  0  0
 20 15  2  0  0  0  0
 22 23  1  0  0  0  0
 22 21  2  0  0  0  0
 24 27  1  6  0  0  0
 25 30  1  0  0  0  0
 25 28  2  0  0  0  0
 26 29  2  0  0  0  0
 28 24  1  0  0  0  0
 29 30  1  0  0  0  0
 29 31  1  0  0  0  0
 30 22  1  1  0  0  0
 31 24  1  0  0  0  0
M  END
>  <MODEL>
6

>  <REMARK>
 VINA RESULT:      -6.7      4.173      6.980
  Name = 
  2 active torsions:
  status: ('A' for Active; 'I' for Inactive)
    1  A    between atoms: C_5  and  C_30
    2  A    between atoms: C_10  and  N_16
                            x       y       z     vdW  Elec       q    Type
                         _______ _______ _______ _____ _____    ______ ____

>  <TORSDO>
F 2

$$$$
=
 OpenBabel11122411183D

 31 35  0  0  1  0  0  0  0  0999 V2000
  191.4830  177.8970  143.0840 C   0  0  2  0  0  3  0  0  0  0  0  0
  190.8490  177.7990  139.2670 C   0  0  2  0  0  3  0  0  0  0  0  0
  191.1600  176.7550  138.2130 C   0  0  0  0  0  0  0  0  0  0  0  0
  192.4830  174.8790  137.4170 C   0  0  0  0  0  0  0  0  0  0  0  0
  191.0430  177.2750  140.6980 C   0  0  1  0  0  3  0  0  0  0  0  0
  190.2850  177.0670  143.5310 C   0  0  0  0  0  2  0  0  0  0  0  0
  192.1850  175.8170  138.4080 C   0  0  0  0  0  3  0  0  0  0  0  0
  188.3270  177.4870  139.5150 C   0  0  2  0  0  3  0  0  0  0  0  0
  191.6640  178.9640  143.9630 O   0  0  0  0  0  1  0  0  0  0  0  0
  189.4720  177.7260  136.7480 O   0  0  0  0  0  0  0  0  0  0  0  0
  193.5600  173.8800  137.6410 C   0  0  0  0  0  1  0  0  0  0  0  0
  188.5290  177.0620  140.9660 C   0  0  0  0  0  2  0  0  0  0  0  0
  189.4530  178.4360  139.0740 C   0  0  2  0  0  3  0  0  0  0  0  0
  191.2560  178.4340  141.6750 C   0  0  0  0  0  2  0  0  0  0  0  0
  191.7690  174.8800  136.2160 C   0  0  0  0  0  3  0  0  0  0  0  0
  189.8780  176.3650  141.1350 C   0  0  2  0  0  3  0  0  0  0  0  0
  190.0690  175.8910  142.5770 C   0  0  0  0  0  2  0  0  0  0  0  0
  189.2840  178.8470  137.6100 C   0  0  0  0  0  2  0  0  0  0  0  0
  190.4690  176.7750  136.9850 C   0  0  0  0  0  0  0  0  0  0  0  0
  190.7650  175.8270  135.9990 C   0  0  0  0  0  3  0  0  0  0  0  0
  186.3210  176.8070  137.6040 O   0  0  0  0  0  0  0  0  0  0  0  0
  186.0690  177.7490  138.4060 C   0  0  0  0  0  0  0  0  0  0  0  0
  187.0360  178.1470  139.3780 N   0  0  0  0  0  2  0  0  0  0  0  0
  183.8540  178.2150  141.0210 C   0  0  2  0  0  3  0  0  0  0  0  0
  184.7310  179.6340  139.3010 C   0  0  0  0  0  3  0  0  0  0  0  0
  183.1740  176.8250  137.7360 O   0  0  0  0  0  0  0  0  0  0  0  0
  183.1050  178.4110  142.2490 N   0  0  0  0  0  1  0  0  0  0  0  0
  184.3000  179.4970  140.5100 N   0  0  0  0  0  0  0  0  0  0  0  0
  183.6100  177.5370  138.6260 C   0  0  0  0  0  0  0  0  0  0  0  0
  184.7590  178.4690  138.3450 C   0  0  2  0  0  3  0  0  0  0  0  0
  182.9910  177.4740  139.9970 C   0  0  0  0  0  2  0  0  0  0  0  0
  1  6  1  0  0  0  0
  1  9  1  1  0  0  0
  2  3  1  6  0  0  0
  2  5  1  0  0  0  0
  3  7  1  0  0  0  0
  4 11  1  0  0  0  0
  4  7  2  0  0  0  0
  5 16  1  0  0  0  0
  5 14  1  1  0  0  0
  8 23  1  1  0  0  0
  8 12  1  0  0  0  0
 10 19  1  0  0  0  0
 10 18  1  0  0  0  0
 13 18  1  6  0  0  0
 13  2  1  0  0  0  0
 13  8  1  0  0  0  0
 14  1  1  0  0  0  0
 15  4  1  0  0  0  0
 16 12  1  1  0  0  0
 16 17  1  0  0  0  0
 17  6  1  0  0  0  0
 19  3  2  0  0  0  0
 20 15  2  0  0  0  0
 20 19  1  0  0  0  0
 21 22  2  0  0  0  0
 22 23  1  0  0  0  0
 24 27  1  1  0  0  0
 25 28  2  0  0  0  0
 26 29  2  0  0  0  0
 28 24  1  0  0  0  0
 29 31  1  0  0  0  0
 30 22  1  1  0  0  0
 30 29  1  0  0  0  0
 30 25  1  0  0  0  0
 31 24  1  0  0  0  0
M  END
>  <MODEL>
7

>  <REMARK>
 VINA RESULT:      -6.6      3.299      6.881
  Name = 
  2 active torsions:
  status: ('A' for Active; 'I' for Inactive)
    1  A    between atoms: C_5  and  C_30
    2  A    between atoms: C_10  and  N_16
                            x       y       z     vdW  Elec       q    Type
                         _______ _______ _______ _____ _____    ______ ____

>  <TORSDO>
F 2

$$$$
=
 OpenBabel11122411183D

 31 35  0  0  1  0  0  0  0  0999 V2000
  194.5080  175.7580  135.9040 C   0  0  2  0  0  3  0  0  0  0  0  0
  190.6440  175.5560  135.8100 C   0  0  2  0  0  3  0  0  0  0  0  0
  189.6910  174.3780  135.7450 C   0  0  0  0  0  0  0  0  0  0  0  0
  189.2100  172.0740  135.1440 C   0  0  0  0  0  0  0  0  0  0  0  0
  192.0920  175.1320  136.1050 C   0  0  1  0  0  3  0  0  0  0  0  0
  194.7090  175.4950  137.3920 C   0  0  0  0  0  2  0  0  0  0  0  0
  190.1060  173.1430  135.2270 C   0  0  0  0  0  3  0  0  0  0  0  0
  190.3700  176.2550  138.2490 C   0  0  2  0  0  3  0  0  0  0  0  0
  195.3910  176.7520  135.4850 O   0  0  0  0  0  1  0  0  0  0  0  0
  187.8960  175.7790  136.6130 O   0  0  0  0  0  0  0  0  0  0  0  0
  189.6650  170.7650  134.6070 C   0  0  0  0  0  1  0  0  0  0  0  0
  191.8370  175.9220  138.5020 C   0  0  0  0  0  2  0  0  0  0  0  0
  190.1590  176.6560  136.7810 C   0  0  2  0  0  3  0  0  0  0  0  0
  193.0750  176.2070  135.6380 C   0  0  0  0  0  2  0  0  0  0  0  0
  187.8880  172.2360  135.5640 C   0  0  0  0  0  3  0  0  0  0  0  0
  192.2910  174.7820  137.5930 C   0  0  2  0  0  3  0  0  0  0  0  0
  193.7470  174.4070  137.8730 C   0  0  0  0  0  2  0  0  0  0  0  0
  188.6860  176.9620  136.5010 C   0  0  0  0  0  2  0  0  0  0  0  0
  188.3460  174.5460  136.1330 C   0  0  0  0  0  0  0  0  0  0  0  0
  187.4560  173.4700  136.0560 C   0  0  0  0  0  3  0  0  0  0  0  0
  189.8050  176.0010  141.0340 O   0  0  0  0  0  0  0  0  0  0  0  0
  189.7050  177.1500  140.5190 C   0  0  0  0  0  0  0  0  0  0  0  0
  189.9610  177.3420  139.1280 N   0  0  0  0  0  2  0  0  0  0  0  0
  188.0620  177.0450  143.5610 C   0  0  2  0  0  3  0  0  0  0  0  0
  189.9430  178.2670  142.7190 C   0  0  0  0  0  3  0  0  0  0  0  0
  187.1510  178.9280  140.5910 O   0  0  0  0  0  0  0  0  0  0  0  0
  187.4770  176.8080  144.8680 N   0  0  0  0  0  1  0  0  0  0  0  0
  189.3510  177.6920  143.7120 N   0  0  0  0  0  0  0  0  0  0  0  0
  187.8070  178.4190  141.4850 C   0  0  0  0  0  0  0  0  0  0  0  0
  189.3050  178.3250  141.3550 C   0  0  2  0  0  3  0  0  0  0  0  0
  187.1090  177.8890  142.7090 C   0  0  0  0  0  2  0  0  0  0  0  0
  1  9  1  1  0  0  0
  1  6  1  0  0  0  0
  2  3  1  1  0  0  0
  2  5  1  0  0  0  0
  2 13  1  0  0  0  0
  3 19  1  0  0  0  0
  4  7  1  0  0  0  0
  4 15  2  0  0  0  0
  5 14  1  1  0  0  0
  5 16  1  0  0  0  0
  6 17  1  0  0  0  0
  7  3  2  0  0  0  0
  8 12  1  0  0  0  0
  8 23  1  1  0  0  0
 11  4  1  0  0  0  0
 13 18  1  1  0  0  0
 13  8  1  0  0  0  0
 14  1  1  0  0  0  0
 15 20  1  0  0  0  0
 16 17  1  6  0  0  0
 16 12  1  0  0  0  0
 18 10  1  0  0  0  0
 19 10  1  0  0  0  0
 20 19  2  0  0  0  0
 22 21  2  0  0  0  0
 23 22  1  0  0  0  0
 24 28  1  0  0  0  0
 24 27  1  1  0  0  0
 25 28  2  0  0  0  0
 26 29  2  0  0  0  0
 29 31  1  0  0  0  0
 30 22  1  6  0  0  0
 30 29  1  0  0  0  0
 30 25  1  0  0  0  0
 31 24  1  0  0  0  0
M  END
>  <MODEL>
8

>  <REMARK>
 VINA RESULT:      -6.5      3.604      8.456
  Name = 
  2 active torsions:
  status: ('A' for Active; 'I' for Inactive)
    1  A    between atoms: C_5  and  C_30
    2  A    between atoms: C_10  and  N_16
                            x       y       z     vdW  Elec       q    Type
                         _______ _______ _______ _____ _____    ______ ____

>  <TORSDO>
F 2

$$$$
=
 OpenBabel11122411183D

 31 35  0  0  1  0  0  0  0  0999 V2000
  179.3020  177.3950  137.1530 C   0  0  2  0  0  3  0  0  0  0  0  0
  182.0050  178.7370  139.5770 C   0  0  2  0  0  3  0  0  0  0  0  0
  182.1080  178.7230  141.0900 C   0  0  0  0  0  0  0  0  0  0  0  0
  181.0660  178.6330  143.2830 C   0  0  0  0  0  0  0  0  0  0  0  0
  180.8750  177.8380  139.0500 C   0  0  1  0  0  3  0  0  0  0  0  0
  179.7340  175.9340  137.1240 C   0  0  0  0  0  2  0  0  0  0  0  0
  180.9610  178.6150  141.8890 C   0  0  0  0  0  3  0  0  0  0  0  0
  183.7020  176.9310  138.9670 C   0  0  2  0  0  3  0  0  0  0  0  0
  178.9320  177.7960  135.8700 O   0  0  0  0  0  1  0  0  0  0  0  0
  184.5170  179.0530  140.9310 O   0  0  0  0  0  0  0  0  0  0  0  0
  179.8460  178.5040  144.1210 C   0  0  0  0  0  1  0  0  0  0  0  0
  182.5820  176.0930  138.3600 C   0  0  0  0  0  2  0  0  0  0  0  0
  183.3530  178.4260  138.8890 C   0  0  2  0  0  3  0  0  0  0  0  0
  180.4470  178.2730  137.6480 C   0  0  0  0  0  2  0  0  0  0  0  0
  182.3170  178.7740  143.8870 C   0  0  0  0  0  3  0  0  0  0  0  0
  181.2670  176.3470  139.0930 C   0  0  2  0  0  3  0  0  0  0  0  0
  180.1470  175.4740  138.5230 C   0  0  0  0  0  2  0  0  0  0  0  0
  184.4520  179.2800  139.5240 C   0  0  0  0  0  2  0  0  0  0  0  0
  183.3630  178.9010  141.7050 C   0  0  0  0  0  0  0  0  0  0  0  0
  183.4640  178.9090  143.1000 C   0  0  0  0  0  3  0  0  0  0  0  0
  184.1180  177.3460  136.1750 O   0  0  0  0  0  0  0  0  0  0  0  0
  185.0910  176.9110  136.8530 C   0  0  0  0  0  0  0  0  0  0  0  0
  184.9450  176.6710  138.2530 N   0  0  0  0  0  2  0  0  0  0  0  0
  188.1980  177.9400  137.9690 C   0  0  2  0  0  3  0  0  0  0  0  0
  187.3260  175.8750  137.1240 C   0  0  0  0  0  3  0  0  0  0  0  0
  186.7360  178.4110  134.6780 O   0  0  0  0  0  0  0  0  0  0  0  0
  189.4150  178.3570  138.6410 N   0  0  0  0  0  1  0  0  0  0  0  0
  188.1440  176.4930  137.9100 N   0  0  0  0  0  0  0  0  0  0  0  0
  187.0680  177.9050  135.7370 C   0  0  0  0  0  0  0  0  0  0  0  0
  186.4080  176.6320  136.2000 C   0  0  2  0  0  3  0  0  0  0  0  0
  188.1370  178.5600  136.5700 C   0  0  0  0  0  2  0  0  0  0  0  0
  1  9  1  6  0  0  0
  1 14  1  0  0  0  0
  2  3  1  1  0  0  0
  3 19  2  0  0  0  0
  3  7  1  0  0  0  0
  4 15  1  0  0  0  0
  4 11  1  0  0  0  0
  5 14  1  6  0  0  0
  5 16  1  0  0  0  0
  5  2  1  0  0  0  0
  6  1  1  0  0  0  0
  6 17  1  0  0  0  0
  7  4  2  0  0  0  0
  8 23  1  6  0  0  0
 10 19  1  0  0  0  0
 12  8  1  0  0  0  0
 13  8  1  0  0  0  0
 13 18  1  1  0  0  0
 13  2  1  0  0  0  0
 16 12  1  6  0  0  0
 17 16  1  0  0  0  0
 18 10  1  0  0  0  0
 19 20  1  0  0  0  0
 20 15  2  0  0  0  0
 21 22  2  0  0  0  0
 22 23  1  0  0  0  0
 24 27  1  6  0  0  0
 25 28  2  0  0  0  0
 26 29  2  0  0  0  0
 28 24  1  0  0  0  0
 29 30  1  0  0  0  0
 29 31  1  0  0  0  0
 30 22  1  1  0  0  0
 30 25  1  0  0  0  0
 31 24  1  0  0  0  0
M  END
>  <MODEL>
9

>  <REMARK>
 VINA RESULT:      -6.3      4.616      7.481
  Name = 
  2 active torsions:
  status: ('A' for Active; 'I' for Inactive)
    1  A    between atoms: C_5  and  C_30
    2  A    between atoms: C_10  and  N_16
                            x       y       z     vdW  Elec       q    Type
                         _______ _______ _______ _____ _____    ______ ____

>  <TORSDO>
F 2

$$$$
