=
 OpenBabel11122410223D

 30 35  0  0  1  0  0  0  0  0999 V2000
  186.3360  178.4100  144.8920 C   0  0  0  0  0  0  0  0  0  0  0  0
  186.5270  178.8450  147.3610 C   0  0  0  0  0  0  0  0  0  0  0  0
  190.1970  176.5770  144.7890 C   0  0  0  0  0  2  0  0  0  0  0  0
  186.9040  177.8440  143.7240 C   0  0  0  0  0  0  0  0  0  0  0  0
  185.0510  179.1840  144.7540 C   0  0  0  0  0  2  0  0  0  0  0  0
  183.8910  177.5900  141.6780 O   0  0  0  0  0  0  0  0  0  0  0  0
  188.2750  178.6200  141.2320 C   0  0  1  0  0  3  0  0  0  0  0  0
  184.6730  177.9850  142.5850 C   0  0  0  0  0  0  0  0  0  0  0  0
  188.7470  177.1900  141.3210 C   0  0  1  0  0  3  0  0  0  0  0  0
  190.2630  176.3470  143.2670 C   0  0  1  0  0  3  0  0  0  0  0  0
  184.1530  178.5650  143.7890 N   0  0  0  0  0  0  0  0  0  0  0  0
  186.1550  177.8150  142.4090 C   0  0  1  0  0  3  0  0  0  0  0  0
  187.2560  178.7330  148.5040 N   0  0  0  0  0  0  0  0  0  0  0  0
  190.0110  177.1800  140.4870 C   0  0  0  0  0  2  0  0  0  0  0  0
  188.8520  179.1530  139.9350 C   0  0  0  0  0  2  0  0  0  0  0  0
  185.4040  179.4110  147.4200 O   0  0  0  0  0  0  0  0  0  0  0  0
  188.8480  177.1770  144.9950 C   0  0  0  0  0  0  0  0  0  0  0  0
  188.4720  178.1310  148.5360 C   0  0  0  0  0  3  0  0  0  0  0  0
  187.0330  178.3250  146.1390 C   0  0  0  0  0  0  0  0  0  0  0  0
  188.1780  177.2600  143.8120 C   0  0  0  0  0  0  0  0  0  0  0  0
  190.4250  174.8650  142.9880 C   0  0  0  0  0  1  0  0  0  0  0  0
  188.9850  176.8190  142.7260 N   0  0  0  0  0  0  0  0  0  0  0  0
  189.8970  178.2350  139.4860 N   0  0  0  0  0  2  0  0  0  0  0  0
  186.1520  178.4570  140.0960 O   0  0  0  0  0  1  0  0  0  0  0  0
  189.0190  177.6000  147.3740 C   0  0  0  0  0  2  0  0  0  0  0  0
  188.3060  177.6880  146.1770 C   0  0  0  0  0  0  0  0  0  0  0  0
  186.7430  178.7460  141.3310 C   0  0  2  0  0  3  0  0  0  0  0  0
  182.7190  178.7270  143.9830 C   0  0  0  0  0  2  0  0  0  0  0  0
  180.9830  179.4610  142.8400 C   0  0  0  0  0  1  0  0  0  0  0  0
  182.2650  179.8220  143.2470 O   0  0  0  0  0  0  0  0  0  0  0  0
  1 19  1  0  0  0  0
  2 16  2  0  0  0  0
  2 13  1  0  0  0  0
  3 17  1  0  0  0  0
  4 20  1  0  0  0  0
  4  1  2  0  0  0  0
  5  1  1  0  0  0  0
  6  8  2  0  0  0  0
  7 15  1  6  0  0  0
  7  9  1  0  0  0  0
  7 27  1  0  0  0  0
  8 11  1  0  0  0  0
  9 14  1  6  0  0  0
  9 22  1  0  0  0  0
 10 21  1  1  0  0  0
 10  3  1  0  0  0  0
 11 28  1  0  0  0  0
 11  5  1  0  0  0  0
 12  8  1  1  0  0  0
 12  4  1  0  0  0  0
 13 18  2  0  0  0  0
 17 26  1  0  0  0  0
 19 26  2  0  0  0  0
 19  2  1  0  0  0  0
 20 17  2  0  0  0  0
 22 10  1  0  0  0  0
 22 20  1  0  0  0  0
 23 15  1  0  0  0  0
 23 14  1  0  0  0  0
 25 18  1  0  0  0  0
 26 25  1  0  0  0  0
 27 24  1  6  0  0  0
 27 12  1  0  0  0  0
 29 30  1  0  0  0  0
 30 28  1  0  0  0  0
M  END
>  <MODEL>
1

>  <REMARK>
 VINA RESULT:      -8.8      0.000      0.000
  Name = 
  2 active torsions:
  status: ('A' for Active; 'I' for Inactive)
    1  A    between atoms: N_11  and  C_28
    2  A    between atoms: C_28  and  O_30
                            x       y       z     vdW  Elec       q    Type
                         _______ _______ _______ _____ _____    ______ ____

>  <TORSDO>
F 2

$$$$
=
 OpenBabel11122410223D

 30 35  0  0  1  0  0  0  0  0999 V2000
  185.5630  178.1880  142.5160 C   0  0  0  0  0  0  0  0  0  0  0  0
  186.6620  178.1410  144.7770 C   0  0  0  0  0  0  0  0  0  0  0  0
  181.7380  178.9800  144.2540 C   0  0  0  0  0  2  0  0  0  0  0  0
  184.3850  178.3940  141.7570 C   0  0  0  0  0  0  0  0  0  0  0  0
  186.8060  177.7400  141.7920 C   0  0  0  0  0  2  0  0  0  0  0  0
  185.8990  179.0270  138.4960 O   0  0  0  0  0  0  0  0  0  0  0  0
  182.3220  176.9000  140.2720 C   0  0  1  0  0  3  0  0  0  0  0  0
  185.7750  178.6110  139.6800 C   0  0  0  0  0  0  0  0  0  0  0  0
  181.5460  178.1650  140.5390 C   0  0  1  0  0  3  0  0  0  0  0  0
  180.9180  178.9280  142.9510 C   0  0  1  0  0  3  0  0  0  0  0  0
  186.9340  178.3870  140.4940 N   0  0  0  0  0  0  0  0  0  0  0  0
  184.4020  178.3830  140.2430 C   0  0  1  0  0  3  0  0  0  0  0  0
  186.5420  178.2630  146.1270 N   0  0  0  0  0  0  0  0  0  0  0  0
  180.1010  177.7270  140.4260 C   0  0  0  0  0  2  0  0  0  0  0  0
  181.4010  176.0320  139.4380 C   0  0  0  0  0  2  0  0  0  0  0  0
  187.7980  177.8850  144.2980 O   0  0  0  0  0  0  0  0  0  0  0  0
  183.1410  178.7710  143.7940 C   0  0  0  0  0  0  0  0  0  0  0  0
  185.3600  178.5460  146.7290 C   0  0  0  0  0  3  0  0  0  0  0  0
  185.5250  178.3090  143.9420 C   0  0  0  0  0  0  0  0  0  0  0  0
  183.1850  178.6560  142.4370 C   0  0  0  0  0  0  0  0  0  0  0  0
  180.2170  180.2570  142.7430 C   0  0  0  0  0  1  0  0  0  0  0  0
  181.8810  178.6980  141.8700 N   0  0  0  0  0  0  0  0  0  0  0  0
  180.0490  176.5780  139.5280 N   0  0  0  0  0  2  0  0  0  0  0  0
  183.5340  177.3820  138.2420 O   0  0  0  0  0  1  0  0  0  0  0  0
  184.2120  178.7250  145.9660 C   0  0  0  0  0  2  0  0  0  0  0  0
  184.2870  178.6130  144.5760 C   0  0  0  0  0  0  0  0  0  0  0  0
  183.6890  177.1690  139.6160 C   0  0  2  0  0  3  0  0  0  0  0  0
  188.2730  178.6140  139.9700 C   0  0  0  0  0  2  0  0  0  0  0  0
  190.0920  177.3920  139.7330 C   0  0  0  0  0  1  0  0  0  0  0  0
  189.1970  177.8590  140.6930 O   0  0  0  0  0  0  0  0  0  0  0  0
  1 19  1  0  0  0  0
  2 13  1  0  0  0  0
  4 20  1  0  0  0  0
  4  1  2  0  0  0  0
  5  1  1  0  0  0  0
  6  8  2  0  0  0  0
  7 15  1  6  0  0  0
  7  9  1  0  0  0  0
  8 11  1  0  0  0  0
  9 14  1  1  0  0  0
  9 22  1  0  0  0  0
 10 21  1  6  0  0  0
 10  3  1  0  0  0  0
 11  5  1  0  0  0  0
 12  8  1  1  0  0  0
 12  4  1  0  0  0  0
 13 18  2  0  0  0  0
 15 23  1  0  0  0  0
 16  2  2  0  0  0  0
 17  3  1  0  0  0  0
 17 26  1  0  0  0  0
 19 26  2  0  0  0  0
 19  2  1  0  0  0  0
 20 17  2  0  0  0  0
 22 20  1  0  0  0  0
 22 10  1  0  0  0  0
 23 14  1  0  0  0  0
 25 18  1  0  0  0  0
 26 25  1  0  0  0  0
 27 24  1  6  0  0  0
 27 12  1  0  0  0  0
 27  7  1  0  0  0  0
 28 11  1  0  0  0  0
 28 30  1  0  0  0  0
 29 30  1  0  0  0  0
M  END
>  <MODEL>
2

>  <REMARK>
 VINA RESULT:      -8.3      2.609      6.302
  Name = 
  2 active torsions:
  status: ('A' for Active; 'I' for Inactive)
    1  A    between atoms: N_11  and  C_28
    2  A    between atoms: C_28  and  O_30
                            x       y       z     vdW  Elec       q    Type
                         _______ _______ _______ _____ _____    ______ ____

>  <TORSDO>
F 2

$$$$
=
 OpenBabel11122410223D

 30 35  0  0  1  0  0  0  0  0999 V2000
  188.5320  177.6380  141.4440 C   0  0  0  0  0  0  0  0  0  0  0  0
  186.6730  178.0850  143.0760 C   0  0  0  0  0  0  0  0  0  0  0  0
  186.0130  178.5860  138.1220 C   0  0  0  0  0  2  0  0  0  0  0  0
  188.9760  177.6380  140.0980 C   0  0  0  0  0  0  0  0  0  0  0  0
  189.4680  177.1110  142.5000 C   0  0  0  0  0  2  0  0  0  0  0  0
  192.5800  177.6840  140.6760 O   0  0  0  0  0  0  0  0  0  0  0  0
  189.5700  175.7910  137.8780 C   0  0  1  0  0  3  0  0  0  0  0  0
  191.3520  177.5040  140.8940 C   0  0  0  0  0  0  0  0  0  0  0  0
  189.3370  177.0490  137.0780 C   0  0  1  0  0  3  0  0  0  0  0  0
  187.0210  178.2420  137.0090 C   0  0  1  0  0  3  0  0  0  0  0  0
  190.8480  177.4960  142.2360 N   0  0  0  0  0  0  0  0  0  0  0  0
  190.4130  177.3300  139.7340 C   0  0  1  0  0  3  0  0  0  0  0  0
  185.3840  178.4640  143.2890 N   0  0  0  0  0  0  0  0  0  0  0  0
  188.9830  176.5330  135.7000 C   0  0  0  0  0  2  0  0  0  0  0  0
  189.9620  174.7360  136.8630 C   0  0  0  0  0  2  0  0  0  0  0  0
  187.3830  177.7900  144.0740 O   0  0  0  0  0  0  0  0  0  0  0  0
  186.7830  178.3520  139.3780 C   0  0  0  0  0  0  0  0  0  0  0  0
  184.5500  178.8080  142.2750 C   0  0  0  0  0  3  0  0  0  0  0  0
  187.1920  178.0350  141.7550 C   0  0  0  0  0  0  0  0  0  0  0  0
  188.0600  177.9750  139.0890 C   0  0  0  0  0  0  0  0  0  0  0  0
  187.2690  179.4720  136.1560 C   0  0  0  0  0  1  0  0  0  0  0  0
  188.2600  177.8470  137.6860 N   0  0  0  0  0  0  0  0  0  0  0  0
  189.6160  175.2290  135.5320 N   0  0  0  0  0  2  0  0  0  0  0  0
  191.9010  175.9180  138.4890 O   0  0  0  0  0  1  0  0  0  0  0  0
  185.0010  178.7820  140.9600 C   0  0  0  0  0  2  0  0  0  0  0  0
  186.3180  178.4030  140.6930 C   0  0  0  0  0  0  0  0  0  0  0  0
  190.6020  175.9860  139.0040 C   0  0  2  0  0  3  0  0  0  0  0  0
  191.7400  177.6740  143.3730 C   0  0  0  0  0  2  0  0  0  0  0  0
  191.5620  177.0610  145.4830 C   0  0  0  0  0  1  0  0  0  0  0  0
  191.6880  176.5480  144.1940 O   0  0  0  0  0  0  0  0  0  0  0  0
  1 19  1  0  0  0  0
  1  5  1  0  0  0  0
  2 13  1  0  0  0  0
  2 16  2  0  0  0  0
  3 17  1  0  0  0  0
  4  1  2  0  0  0  0
  6  8  2  0  0  0  0
  7 15  1  6  0  0  0
  7 27  1  0  0  0  0
  8 11  1  0  0  0  0
  9 14  1  6  0  0  0
  9 22  1  0  0  0  0
  9  7  1  0  0  0  0
 10 21  1  6  0  0  0
 10 22  1  0  0  0  0
 10  3  1  0  0  0  0
 11  5  1  0  0  0  0
 11 28  1  0  0  0  0
 12  4  1  1  0  0  0
 12  8  1  0  0  0  0
 17 26  1  0  0  0  0
 18 13  2  0  0  0  0
 19  2  1  0  0  0  0
 20 17  2  0  0  0  0
 20  4  1  0  0  0  0
 22 20  1  0  0  0  0
 23 14  1  0  0  0  0
 23 15  1  0  0  0  0
 25 18  1  0  0  0  0
 26 25  1  0  0  0  0
 26 19  2  0  0  0  0
 27 24  1  6  0  0  0
 27 12  1  0  0  0  0
 28 30  1  0  0  0  0
 30 29  1  0  0  0  0
M  END
>  <MODEL>
3

>  <REMARK>
 VINA RESULT:      -7.4      3.289      6.526
  Name = 
  2 active torsions:
  status: ('A' for Active; 'I' for Inactive)
    1  A    between atoms: N_11  and  C_28
    2  A    between atoms: C_28  and  O_30
                            x       y       z     vdW  Elec       q    Type
                         _______ _______ _______ _____ _____    ______ ____

>  <TORSDO>
F 2

$$$$
=
 OpenBabel11122410223D

 30 35  0  0  1  0  0  0  0  0999 V2000
  188.5410  177.4620  139.7220 C   0  0  0  0  0  0  0  0  0  0  0  0
  189.9630  176.5780  137.8460 C   0  0  0  0  0  0  0  0  0  0  0  0
  191.9110  177.6640  142.3470 C   0  0  0  0  0  2  0  0  0  0  0  0
  188.4730  177.9540  141.0490 C   0  0  0  0  0  0  0  0  0  0  0  0
  187.2520  177.2750  138.9670 C   0  0  0  0  0  2  0  0  0  0  0  0
  185.2630  179.6830  140.8610 O   0  0  0  0  0  0  0  0  0  0  0  0
  187.6370  177.1430  143.7580 C   0  0  1  0  0  3  0  0  0  0  0  0
  186.1860  178.8720  140.5780 C   0  0  0  0  0  0  0  0  0  0  0  0
  188.5970  178.2460  144.1310 C   0  0  1  0  0  3  0  0  0  0  0  0
  191.1460  178.1040  143.6110 C   0  0  1  0  0  3  0  0  0  0  0  0
  186.3030  178.3430  139.2500 N   0  0  0  0  0  0  0  0  0  0  0  0
  187.1830  178.4880  141.6340 C   0  0  1  0  0  3  0  0  0  0  0  0
  191.1940  176.2090  137.4000 N   0  0  0  0  0  0  0  0  0  0  0  0
  188.9860  177.9110  145.5550 C   0  0  0  0  0  2  0  0  0  0  0  0
  187.0550  176.6550  145.0700 C   0  0  0  0  0  2  0  0  0  0  0  0
  188.9870  176.4850  137.0560 O   0  0  0  0  0  0  0  0  0  0  0  0
  190.8500  177.6020  141.3000 C   0  0  0  0  0  0  0  0  0  0  0  0
  192.3030  176.2840  138.1780 C   0  0  0  0  0  3  0  0  0  0  0  0
  189.8010  177.0620  139.1720 C   0  0  0  0  0  0  0  0  0  0  0  0
  189.6480  177.9820  141.8170 C   0  0  0  0  0  0  0  0  0  0  0  0
  191.6920  179.4350  144.0920 C   0  0  0  0  0  1  0  0  0  0  0  0
  189.7450  178.2560  143.2100 N   0  0  0  0  0  0  0  0  0  0  0  0
  187.8870  177.1640  146.1580 N   0  0  0  0  0  2  0  0  0  0  0  0
  185.5510  178.2950  143.3830 O   0  0  0  0  0  1  0  0  0  0  0  0
  192.2090  176.7520  139.4840 C   0  0  0  0  0  2  0  0  0  0  0  0
  190.9670  177.1460  139.9850 C   0  0  0  0  0  0  0  0  0  0  0  0
  186.5780  177.5990  142.7370 C   0  0  2  0  0  3  0  0  0  0  0  0
  185.3540  178.7120  138.2100 C   0  0  0  0  0  2  0  0  0  0  0  0
  183.2370  178.0970  138.2190 C   0  0  0  0  0  1  0  0  0  0  0  0
  184.5180  177.6310  137.9310 O   0  0  0  0  0  0  0  0  0  0  0  0
  1  4  1  0  0  0  0
  2 19  1  0  0  0  0
  3 10  1  0  0  0  0
  4 12  1  0  0  0  0
  4 20  2  0  0  0  0
  5 11  1  0  0  0  0
  5  1  1  0  0  0  0
  7  9  1  0  0  0  0
  7 15  1  1  0  0  0
  8  6  2  0  0  0  0
  9 14  1  1  0  0  0
 10 21  1  6  0  0  0
 11  8  1  0  0  0  0
 12  8  1  6  0  0  0
 12 27  1  0  0  0  0
 13  2  1  0  0  0  0
 13 18  2  0  0  0  0
 14 23  1  0  0  0  0
 15 23  1  0  0  0  0
 16  2  2  0  0  0  0
 17 20  1  0  0  0  0
 17  3  1  0  0  0  0
 18 25  1  0  0  0  0
 19  1  2  0  0  0  0
 19 26  1  0  0  0  0
 20 22  1  0  0  0  0
 22 10  1  0  0  0  0
 22  9  1  0  0  0  0
 25 26  1  0  0  0  0
 26 17  2  0  0  0  0
 27 24  1  1  0  0  0
 27  7  1  0  0  0  0
 28 11  1  0  0  0  0
 30 28  1  0  0  0  0
 30 29  1  0  0  0  0
M  END
>  <MODEL>
4

>  <REMARK>
 VINA RESULT:      -7.3      2.576      6.127
  Name = 
  2 active torsions:
  status: ('A' for Active; 'I' for Inactive)
    1  A    between atoms: N_11  and  C_28
    2  A    between atoms: C_28  and  O_30
                            x       y       z     vdW  Elec       q    Type
                         _______ _______ _______ _____ _____    ______ ____

>  <TORSDO>
F 2

$$$$
=
 OpenBabel11122410223D

 30 35  0  0  1  0  0  0  0  0999 V2000
  185.5150  178.2180  142.0900 C   0  0  0  0  0  0  0  0  0  0  0  0
  186.1270  178.2070  144.5290 C   0  0  0  0  0  0  0  0  0  0  0  0
  181.4200  179.0550  142.9920 C   0  0  0  0  0  2  0  0  0  0  0  0
  184.5190  178.4150  141.1020 C   0  0  0  0  0  0  0  0  0  0  0  0
  186.8770  177.7520  141.6440 C   0  0  0  0  0  2  0  0  0  0  0  0
  186.6750  178.9840  138.2110 O   0  0  0  0  0  0  0  0  0  0  0  0
  182.7940  176.9010  139.2510 C   0  0  1  0  0  3  0  0  0  0  0  0
  186.3080  178.5900  139.3510 C   0  0  0  0  0  0  0  0  0  0  0  0
  181.9890  178.1740  139.3310 C   0  0  1  0  0  3  0  0  0  0  0  0
  180.8850  178.9820  141.5490 C   0  0  1  0  0  3  0  0  0  0  0  0
  187.2730  178.3760  140.3900 N   0  0  0  0  0  0  0  0  0  0  0  0
  184.8460  178.3770  139.6250 C   0  0  1  0  0  3  0  0  0  0  0  0
  185.7330  178.3530  145.8230 N   0  0  0  0  0  0  0  0  0  0  0  0
  180.5950  177.7390  138.9310 C   0  0  0  0  0  2  0  0  0  0  0  0
  182.0580  176.0220  138.2590 C   0  0  0  0  0  2  0  0  0  0  0  0
  187.3350  177.9380  144.2980 O   0  0  0  0  0  0  0  0  0  0  0  0
  182.8870  178.8320  142.8340 C   0  0  0  0  0  0  0  0  0  0  0  0
  184.4540  178.6520  146.1650 C   0  0  0  0  0  3  0  0  0  0  0  0
  185.1860  178.3640  143.4760 C   0  0  0  0  0  0  0  0  0  0  0  0
  183.2070  178.6930  141.5170 C   0  0  0  0  0  0  0  0  0  0  0  0
  180.2510  180.3100  141.1800 C   0  0  0  0  0  1  0  0  0  0  0  0
  182.0470  178.7290  140.6930 N   0  0  0  0  0  0  0  0  0  0  0  0
  180.7210  176.5750  138.0610 N   0  0  0  0  0  2  0  0  0  0  0  0
  184.4000  177.3440  137.5050 O   0  0  0  0  0  1  0  0  0  0  0  0
  183.4890  178.8210  145.1790 C   0  0  0  0  0  2  0  0  0  0  0  0
  183.8470  178.6840  143.8370 C   0  0  0  0  0  0  0  0  0  0  0  0
  184.2690  177.1540  138.8850 C   0  0  2  0  0  3  0  0  0  0  0  0
  188.6930  178.5890  140.1480 C   0  0  0  0  0  2  0  0  0  0  0  0
  190.4160  177.2830  140.5800 C   0  0  0  0  0  1  0  0  0  0  0  0
  189.2910  177.3890  139.7650 O   0  0  0  0  0  0  0  0  0  0  0  0
  1 19  1  0  0  0  0
  2 13  1  0  0  0  0
  4 20  1  0  0  0  0
  4  1  2  0  0  0  0
  5  1  1  0  0  0  0
  6  8  2  0  0  0  0
  7 15  1  6  0  0  0
  7  9  1  0  0  0  0
  8 11  1  0  0  0  0
  9 14  1  1  0  0  0
  9 22  1  0  0  0  0
 10 21  1  6  0  0  0
 10  3  1  0  0  0  0
 11  5  1  0  0  0  0
 12  8  1  1  0  0  0
 12  4  1  0  0  0  0
 13 18  2  0  0  0  0
 16  2  2  0  0  0  0
 17  3  1  0  0  0  0
 17 26  1  0  0  0  0
 19 26  2  0  0  0  0
 19  2  1  0  0  0  0
 20 17  2  0  0  0  0
 22 20  1  0  0  0  0
 22 10  1  0  0  0  0
 23 15  1  0  0  0  0
 23 14  1  0  0  0  0
 25 18  1  0  0  0  0
 26 25  1  0  0  0  0
 27 24  1  6  0  0  0
 27  7  1  0  0  0  0
 27 12  1  0  0  0  0
 28 11  1  0  0  0  0
 30 28  1  0  0  0  0
 30 29  1  0  0  0  0
M  END
>  <MODEL>
5

>  <REMARK>
 VINA RESULT:      -7.2      2.866      6.463
  Name = 
  2 active torsions:
  status: ('A' for Active; 'I' for Inactive)
    1  A    between atoms: N_11  and  C_28
    2  A    between atoms: C_28  and  O_30
                            x       y       z     vdW  Elec       q    Type
                         _______ _______ _______ _____ _____    ______ ____

>  <TORSDO>
F 2

$$$$
=
 OpenBabel11122410223D

 30 35  0  0  1  0  0  0  0  0999 V2000
  187.3240  178.1190  140.4060 C   0  0  0  0  0  0  0  0  0  0  0  0
  185.1090  178.9860  139.5930 C   0  0  0  0  0  0  0  0  0  0  0  0
  185.9930  178.1680  144.4690 C   0  0  0  0  0  2  0  0  0  0  0  0
  188.1150  177.6780  141.4960 C   0  0  0  0  0  0  0  0  0  0  0  0
  187.9740  178.2200  139.0510 C   0  0  0  0  0  2  0  0  0  0  0  0
  190.6500  175.8070  139.6520 O   0  0  0  0  0  0  0  0  0  0  0  0
  190.3320  178.5620  143.2270 C   0  0  1  0  0  3  0  0  0  0  0  0
  189.7370  176.6450  139.8850 C   0  0  0  0  0  0  0  0  0  0  0  0
  189.7310  177.5180  144.1350 C   0  0  1  0  0  3  0  0  0  0  0  0
  187.3270  177.7480  145.1160 C   0  0  1  0  0  3  0  0  0  0  0  0
  188.9050  177.1240  138.8190 N   0  0  0  0  0  0  0  0  0  0  0  0
  189.5050  177.1140  141.2930 C   0  0  1  0  0  3  0  0  0  0  0  0
  183.8430  179.3890  139.8880 N   0  0  0  0  0  0  0  0  0  0  0  0
  190.2070  177.9270  145.5120 C   0  0  0  0  0  2  0  0  0  0  0  0
  191.5540  179.0780  143.9620 C   0  0  0  0  0  2  0  0  0  0  0  0
  185.4780  179.0050  138.3890 O   0  0  0  0  0  0  0  0  0  0  0  0
  186.2880  178.1430  143.0070 C   0  0  0  0  0  0  0  0  0  0  0  0
  183.3580  179.3940  141.1540 C   0  0  0  0  0  3  0  0  0  0  0  0
  185.9770  178.5500  140.6290 C   0  0  0  0  0  0  0  0  0  0  0  0
  187.5690  177.7330  142.7880 C   0  0  0  0  0  0  0  0  0  0  0  0
  187.1260  176.4630  145.8960 C   0  0  0  0  0  1  0  0  0  0  0  0
  188.2640  177.5200  144.0120 N   0  0  0  0  0  0  0  0  0  0  0  0
  191.4650  178.6500  145.3560 N   0  0  0  0  0  2  0  0  0  0  0  0
  191.8380  177.3070  141.8210 O   0  0  0  0  0  1  0  0  0  0  0  0
  184.1580  178.9750  142.2110 C   0  0  0  0  0  2  0  0  0  0  0  0
  185.4630  178.5490  141.9570 C   0  0  0  0  0  0  0  0  0  0  0  0
  190.6350  178.0210  141.8180 C   0  0  2  0  0  3  0  0  0  0  0  0
  189.1070  176.6720  137.4500 C   0  0  0  0  0  2  0  0  0  0  0  0
  187.6070  175.1430  136.9280 C   0  0  0  0  0  1  0  0  0  0  0  0
  187.8720  176.5060  136.8220 O   0  0  0  0  0  0  0  0  0  0  0  0
  1 19  2  0  0  0  0
  1  4  1  0  0  0  0
  2 13  1  0  0  0  0
  2 19  1  0  0  0  0
  3 10  1  0  0  0  0
  4 20  2  0  0  0  0
  5  1  1  0  0  0  0
  6  8  2  0  0  0  0
  7 15  1  1  0  0  0
  7  9  1  0  0  0  0
  9 14  1  1  0  0  0
 10 21  1  6  0  0  0
 11  5  1  0  0  0  0
 11  8  1  0  0  0  0
 12  8  1  6  0  0  0
 12  4  1  0  0  0  0
 12 27  1  0  0  0  0
 13 18  2  0  0  0  0
 15 23  1  0  0  0  0
 16  2  2  0  0  0  0
 17  3  1  0  0  0  0
 18 25  1  0  0  0  0
 19 26  1  0  0  0  0
 20 17  1  0  0  0  0
 20 22  1  0  0  0  0
 22  9  1  0  0  0  0
 22 10  1  0  0  0  0
 23 14  1  0  0  0  0
 26 25  1  0  0  0  0
 26 17  2  0  0  0  0
 27 24  1  1  0  0  0
 27  7  1  0  0  0  0
 28 11  1  0  0  0  0
 30 29  1  0  0  0  0
 30 28  1  0  0  0  0
M  END
>  <MODEL>
6

>  <REMARK>
 VINA RESULT:      -7.1      2.843      6.163
  Name = 
  2 active torsions:
  status: ('A' for Active; 'I' for Inactive)
    1  A    between atoms: N_11  and  C_28
    2  A    between atoms: C_28  and  O_30
                            x       y       z     vdW  Elec       q    Type
                         _______ _______ _______ _____ _____    ______ ____

>  <TORSDO>
F 2

$$$$
=
 OpenBabel11122410223D

 30 35  0  0  1  0  0  0  0  0999 V2000
  191.5280  176.4210  139.0820 C   0  0  0  0  0  0  0  0  0  0  0  0
  193.9240  175.7840  138.6590 C   0  0  0  0  0  0  0  0  0  0  0  0
  190.1870  174.0650  135.7750 C   0  0  0  0  0  2  0  0  0  0  0  0
  190.1640  176.2710  138.7280 C   0  0  0  0  0  0  0  0  0  0  0  0
  191.8790  177.4200  140.1530 C   0  0  0  0  0  2  0  0  0  0  0  0
  188.6300  177.4540  141.8220 O   0  0  0  0  0  0  0  0  0  0  0  0
  187.9820  177.6960  137.3500 C   0  0  1  0  0  3  0  0  0  0  0  0
  189.4960  177.2910  140.9200 C   0  0  0  0  0  0  0  0  0  0  0  0
  187.4560  176.2870  137.2250 C   0  0  1  0  0  3  0  0  0  0  0  0
  188.6990  174.4570  135.8490 C   0  0  1  0  0  3  0  0  0  0  0  0
  190.8910  177.4290  141.2230 N   0  0  0  0  0  0  0  0  0  0  0  0
  189.0580  176.9190  139.5330 C   0  0  1  0  0  3  0  0  0  0  0  0
  194.8220  175.0830  137.9170 N   0  0  0  0  0  0  0  0  0  0  0  0
  186.5080  176.3650  136.0470 C   0  0  0  0  0  2  0  0  0  0  0  0
  186.9150  178.5800  136.7340 C   0  0  0  0  0  2  0  0  0  0  0  0
  194.3530  176.4870  139.6120 O   0  0  0  0  0  0  0  0  0  0  0  0
  190.7970  174.7840  136.9310 C   0  0  0  0  0  0  0  0  0  0  0  0
  194.4500  174.2930  136.8780 C   0  0  0  0  0  3  0  0  0  0  0  0
  192.5370  175.7090  138.3580 C   0  0  0  0  0  0  0  0  0  0  0  0
  189.8410  175.4640  137.6260 C   0  0  0  0  0  0  0  0  0  0  0  0
  187.8600  173.2100  136.0570 C   0  0  0  0  0  1  0  0  0  0  0  0
  188.5660  175.3460  137.0060 N   0  0  0  0  0  0  0  0  0  0  0  0
  186.0080  177.7330  135.9630 N   0  0  0  0  0  2  0  0  0  0  0  0
  187.1860  178.4200  139.5090 O   0  0  0  0  0  1  0  0  0  0  0  0
  193.1070  174.1760  136.5360 C   0  0  0  0  0  2  0  0  0  0  0  0
  192.1480  174.8740  137.2720 C   0  0  0  0  0  0  0  0  0  0  0  0
  188.3400  178.0690  138.8010 C   0  0  2  0  0  3  0  0  0  0  0  0
  191.3360  177.7780  142.5650 C   0  0  0  0  0  2  0  0  0  0  0  0
  191.4010  176.8660  144.5710 C   0  0  0  0  0  1  0  0  0  0  0  0
  191.7390  176.6260  143.2410 O   0  0  0  0  0  0  0  0  0  0  0  0
  1  5  1  0  0  0  0
  2 16  2  0  0  0  0
  3 10  1  0  0  0  0
  3 17  1  0  0  0  0
  4  1  1  0  0  0  0
  5 11  1  0  0  0  0
  7 15  1  1  0  0  0
  7 27  1  0  0  0  0
  8 11  1  0  0  0  0
  8  6  2  0  0  0  0
  9 14  1  6  0  0  0
  9  7  1  0  0  0  0
 10 21  1  1  0  0  0
 10 22  1  0  0  0  0
 11 28  1  0  0  0  0
 12  4  1  6  0  0  0
 12  8  1  0  0  0  0
 13  2  1  0  0  0  0
 17 26  2  0  0  0  0
 17 20  1  0  0  0  0
 18 13  2  0  0  0  0
 19  2  1  0  0  0  0
 19  1  2  0  0  0  0
 20  4  2  0  0  0  0
 22  9  1  0  0  0  0
 22 20  1  0  0  0  0
 23 14  1  0  0  0  0
 23 15  1  0  0  0  0
 25 18  1  0  0  0  0
 25 26  1  0  0  0  0
 26 19  1  0  0  0  0
 27 24  1  1  0  0  0
 27 12  1  0  0  0  0
 28 30  1  0  0  0  0
 30 29  1  0  0  0  0
M  END
>  <MODEL>
7

>  <REMARK>
 VINA RESULT:      -7.0      4.630      8.314
  Name = 
  2 active torsions:
  status: ('A' for Active; 'I' for Inactive)
    1  A    between atoms: N_11  and  C_28
    2  A    between atoms: C_28  and  O_30
                            x       y       z     vdW  Elec       q    Type
                         _______ _______ _______ _____ _____    ______ ____

>  <TORSDO>
F 2

$$$$
=
 OpenBabel11122410223D

 30 35  0  0  1  0  0  0  0  0999 V2000
  187.7980  177.6230  141.8060 C   0  0  0  0  0  0  0  0  0  0  0  0
  187.2450  177.5870  144.2590 C   0  0  0  0  0  0  0  0  0  0  0  0
  183.8750  179.0030  140.8140 C   0  0  0  0  0  2  0  0  0  0  0  0
  187.3830  177.9250  140.4850 C   0  0  0  0  0  0  0  0  0  0  0  0
  189.1440  176.9750  141.9980 C   0  0  0  0  0  2  0  0  0  0  0  0
  190.6580  178.1460  138.8870 O   0  0  0  0  0  0  0  0  0  0  0  0
  186.4960  176.6070  138.0010 C   0  0  1  0  0  3  0  0  0  0  0  0
  189.7730  177.8280  139.7260 C   0  0  0  0  0  0  0  0  0  0  0  0
  185.9070  177.9750  137.7620 C   0  0  1  0  0  3  0  0  0  0  0  0
  184.0380  178.9680  139.2830 C   0  0  1  0  0  3  0  0  0  0  0  0
  190.1360  177.5140  141.0780 N   0  0  0  0  0  0  0  0  0  0  0  0
  188.3300  177.8120  139.3090 C   0  0  1  0  0  3  0  0  0  0  0  0
  186.3360  177.8120  145.2450 N   0  0  0  0  0  0  0  0  0  0  0  0
  184.7980  177.7150  136.7660 C   0  0  0  0  0  2  0  0  0  0  0  0
  186.1780  175.8080  136.7530 C   0  0  0  0  0  2  0  0  0  0  0  0
  188.3850  177.1580  144.5810 O   0  0  0  0  0  0  0  0  0  0  0  0
  185.2150  178.5880  141.3200 C   0  0  0  0  0  0  0  0  0  0  0  0
  185.0880  178.2810  144.9900 C   0  0  0  0  0  3  0  0  0  0  0  0
  186.9040  177.8410  142.9030 C   0  0  0  0  0  0  0  0  0  0  0  0
  186.0720  178.3800  140.2800 C   0  0  0  0  0  0  0  0  0  0  0  0
  183.8090  180.3580  138.7200 C   0  0  0  0  0  1  0  0  0  0  0  0
  185.4190  178.5480  139.0270 N   0  0  0  0  0  0  0  0  0  0  0  0
  185.1520  176.5250  135.9990 N   0  0  0  0  0  2  0  0  0  0  0  0
  188.7550  176.7980  137.1760 O   0  0  0  0  0  1  0  0  0  0  0  0
  184.6960  178.5520  143.6840 C   0  0  0  0  0  2  0  0  0  0  0  0
  185.5970  178.3400  142.6390 C   0  0  0  0  0  0  0  0  0  0  0  0
  187.9970  176.6580  138.3430 C   0  0  2  0  0  3  0  0  0  0  0  0
  191.5270  177.5350  141.5040 C   0  0  0  0  0  2  0  0  0  0  0  0
  191.6800  178.2520  143.5830 C   0  0  0  0  0  1  0  0  0  0  0  0
  191.6240  177.0870  142.8220 O   0  0  0  0  0  0  0  0  0  0  0  0
  1  5  1  0  0  0  0
  1 19  1  0  0  0  0
  2 16  2  0  0  0  0
  2 13  1  0  0  0  0
  3 17  1  0  0  0  0
  4  1  2  0  0  0  0
  6  8  2  0  0  0  0
  7 15  1  6  0  0  0
  7 27  1  0  0  0  0
  8 11  1  0  0  0  0
  9 14  1  6  0  0  0
  9  7  1  0  0  0  0
  9 22  1  0  0  0  0
 10 21  1  1  0  0  0
 10  3  1  0  0  0  0
 11 28  1  0  0  0  0
 11  5  1  0  0  0  0
 12  8  1  1  0  0  0
 12  4  1  0  0  0  0
 17 26  1  0  0  0  0
 18 13  2  0  0  0  0
 19  2  1  0  0  0  0
 20  4  1  0  0  0  0
 20 17  2  0  0  0  0
 22 10  1  0  0  0  0
 22 20  1  0  0  0  0
 23 15  1  0  0  0  0
 23 14  1  0  0  0  0
 25 18  1  0  0  0  0
 26 19  2  0  0  0  0
 26 25  1  0  0  0  0
 27 24  1  6  0  0  0
 27 12  1  0  0  0  0
 28 30  1  0  0  0  0
 30 29  1  0  0  0  0
M  END
>  <MODEL>
8

>  <REMARK>
 VINA RESULT:      -6.6      3.274      6.058
  Name = 
  2 active torsions:
  status: ('A' for Active; 'I' for Inactive)
    1  A    between atoms: N_11  and  C_28
    2  A    between atoms: C_28  and  O_30
                            x       y       z     vdW  Elec       q    Type
                         _______ _______ _______ _____ _____    ______ ____

>  <TORSDO>
F 2

$$$$
=
 OpenBabel11122410223D

 30 35  0  0  1  0  0  0  0  0999 V2000
  186.4220  177.9650  142.3840 C   0  0  0  0  0  0  0  0  0  0  0  0
  187.8290  177.6290  144.4410 C   0  0  0  0  0  0  0  0  0  0  0  0
  182.9720  178.8750  144.7400 C   0  0  0  0  0  2  0  0  0  0  0  0
  185.1690  178.3270  141.8320 C   0  0  0  0  0  0  0  0  0  0  0  0
  187.5030  177.4940  141.4470 C   0  0  0  0  0  2  0  0  0  0  0  0
  186.2450  179.1440  138.4400 O   0  0  0  0  0  0  0  0  0  0  0  0
  182.7910  177.1330  140.5620 C   0  0  1  0  0  3  0  0  0  0  0  0
  186.2580  178.6310  139.5920 C   0  0  0  0  0  0  0  0  0  0  0  0
  182.1740  178.4220  141.0440 C   0  0  1  0  0  3  0  0  0  0  0  0
  181.9710  179.0040  143.5760 C   0  0  1  0  0  3  0  0  0  0  0  0
  187.4980  178.2470  140.2000 N   0  0  0  0  0  0  0  0  0  0  0  0
  184.9660  178.4540  140.3370 C   0  0  1  0  0  3  0  0  0  0  0  0
  187.9160  177.6340  145.7990 N   0  0  0  0  0  0  0  0  0  0  0  0
  180.6960  178.1040  141.1170 C   0  0  0  0  0  2  0  0  0  0  0  0
  181.6870  176.4160  139.8100 C   0  0  0  0  0  2  0  0  0  0  0  0
  188.8570  177.3340  143.7760 O   0  0  0  0  0  0  0  0  0  0  0  0
  184.2710  178.6060  144.0570 C   0  0  0  0  0  0  0  0  0  0  0  0
  186.8630  177.9480  146.5940 C   0  0  0  0  0  3  0  0  0  0  0  0
  186.6020  177.9570  143.8050 C   0  0  0  0  0  0  0  0  0  0  0  0
  184.1080  178.6130  142.7040 C   0  0  0  0  0  0  0  0  0  0  0  0
  181.3650  180.3950  143.5840 C   0  0  0  0  0  1  0  0  0  0  0  0
  182.7430  178.8040  142.3470 N   0  0  0  0  0  0  0  0  0  0  0  0
  180.4150  177.0500  140.1480 N   0  0  0  0  0  2  0  0  0  0  0  0
  183.7340  177.7090  138.4170 O   0  0  0  0  0  1  0  0  0  0  0  0
  185.6360  178.2810  146.0310 C   0  0  0  0  0  2  0  0  0  0  0  0
  185.5000  178.2920  144.6410 C   0  0  0  0  0  0  0  0  0  0  0  0
  184.0670  177.3590  139.7300 C   0  0  2  0  0  3  0  0  0  0  0  0
  188.7620  178.4220  139.4990 C   0  0  0  0  0  2  0  0  0  0  0  0
  190.3910  177.4800  138.3500 C   0  0  0  0  0  1  0  0  0  0  0  0
  189.1330  177.2230  138.8900 O   0  0  0  0  0  0  0  0  0  0  0  0
  1 19  1  0  0  0  0
  2 13  1  0  0  0  0
  4  1  2  0  0  0  0
  4 20  1  0  0  0  0
  5  1  1  0  0  0  0
  6  8  2  0  0  0  0
  7 15  1  6  0  0  0
  7  9  1  0  0  0  0
  8 11  1  0  0  0  0
  9 14  1  1  0  0  0
  9 22  1  0  0  0  0
 10 21  1  6  0  0  0
 10  3  1  0  0  0  0
 11  5  1  0  0  0  0
 12  8  1  6  0  0  0
 12  4  1  0  0  0  0
 13 18  2  0  0  0  0
 15 23  1  0  0  0  0
 16  2  2  0  0  0  0
 17 26  1  0  0  0  0
 17  3  1  0  0  0  0
 19  2  1  0  0  0  0
 19 26  2  0  0  0  0
 20 17  2  0  0  0  0
 22 20  1  0  0  0  0
 22 10  1  0  0  0  0
 23 14  1  0  0  0  0
 25 18  1  0  0  0  0
 26 25  1  0  0  0  0
 27 24  1  6  0  0  0
 27 12  1  0  0  0  0
 27  7  1  0  0  0  0
 28 11  1  0  0  0  0
 29 30  1  0  0  0  0
 30 28  1  0  0  0  0
M  END
>  <MODEL>
9

>  <REMARK>
 VINA RESULT:      -6.5      2.373      6.035
  Name = 
  2 active torsions:
  status: ('A' for Active; 'I' for Inactive)
    1  A    between atoms: N_11  and  C_28
    2  A    between atoms: C_28  and  O_30
                            x       y       z     vdW  Elec       q    Type
                         _______ _______ _______ _____ _____    ______ ____

>  <TORSDO>
F 2

$$$$
