=
 OpenBabel11122412263D

 34 42  0  0  1  0  0  0  0  0999 V2000
  188.4230  177.1750  138.1040 C   0  0  2  0  0  3  0  0  0  0  0  0
  186.9620  178.1300  139.7500 O   0  0  0  0  0  0  0  0  0  0  0  0
  194.2920  175.1330  135.7280 C   0  0  2  0  0  3  0  0  0  0  0  0
  189.9440  175.9890  136.5840 C   0  0  1  0  0  3  0  0  0  0  0  0
  192.4490  176.0150  137.2740 C   0  0  2  0  0  3  0  0  0  0  0  0
  194.6780  175.6230  138.0380 O   0  0  0  0  0  1  0  0  0  0  0  0
  193.9560  176.2900  134.9930 O   0  0  0  0  0  0  0  0  0  0  0  0
  191.7930  175.1960  134.8790 C   0  0  1  0  0  3  0  0  0  0  0  0
  189.2920  178.2310  140.2670 C   0  0  2  0  0  3  0  0  0  0  0  0
  189.8360  177.0630  143.2320 C   0  0  0  0  0  2  0  0  0  0  0  0
  191.8630  175.9240  138.6090 N   0  0  0  0  0  2  0  0  0  0  0  0
  191.4490  174.2690  135.8850 O   0  0  0  0  0  0  0  0  0  0  0  0
  190.2810  177.0480  140.1560 C   0  0  1  0  0  3  0  0  0  0  0  0
  187.0930  178.6410  141.0490 C   0  0  0  0  0  2  0  0  0  0  0  0
  191.3890  175.6320  136.2420 C   0  0  2  0  0  0  0  0  0  0  0  0
  193.3100  175.0990  134.5940 C   0  0  2  0  0  3  0  0  0  0  0  0
  188.5220  177.0930  142.4530 C   0  0  2  0  0  3  0  0  0  0  0  0
  189.8700  177.1180  137.6200 C   0  0  2  0  0  3  0  0  0  0  0  0
  193.7060  175.1620  137.1510 C   0  0  2  0  0  3  0  0  0  0  0  0
  190.9230  177.0420  138.7640 C   0  0  2  0  0  3  0  0  0  0  0  0
  187.8310  176.2940  135.8420 C   0  0  0  0  0  2  0  0  0  0  0  0
  190.9370  176.3570  142.4560 C   0  0  0  0  0  2  0  0  0  0  0  0
  189.1880  176.3510  135.4520 O   0  0  0  0  0  0  0  0  0  0  0  0
  191.3550  177.1500  141.2290 C   0  0  0  0  0  2  0  0  0  0  0  0
  188.4910  178.3440  141.5560 C   0  0  1  0  0  3  0  0  0  0  0  0
  187.5090  177.3720  136.8940 C   0  0  0  0  0  2  0  0  0  0  0  0
  188.2290  178.2650  139.1590 C   0  0  1  0  0  3  0  0  0  0  0  0
  187.4260  177.1210  143.3910 N   0  0  0  0  0  0  0  0  0  0  0  0
  187.6370  177.3150  144.6440 C   0  0  0  0  0  3  0  0  0  0  0  0
  184.8560  178.9300  146.3710 C   0  0  0  0  0  2  0  0  0  0  0  0
  186.9560  177.8880  146.9710 C   0  0  0  0  0  2  0  0  0  0  0  0
  186.5060  177.3450  145.6250 C   0  0  0  0  0  3  0  0  0  0  0  0
  186.0470  179.0570  147.2950 C   0  0  0  0  0  2  0  0  0  0  0  0
  185.3840  178.2400  145.1360 C   0  0  0  0  0  2  0  0  0  0  0  0
  1 26  1  6  0  0  0
  1 27  1  0  0  0  0
  2 14  1  0  0  0  0
  3  7  1  6  0  0  0
  3 19  1  0  0  0  0
  4 23  1  6  0  0  0
  4 18  1  0  0  0  0
  5 11  1  1  0  0  0
  8 12  1  1  0  0  0
  8 15  1  0  0  0  0
  9 25  1  0  0  0  0
 11 20  1  0  0  0  0
 12 15  1  0  0  0  0
 13  9  1  0  0  0  0
 13 24  1  0  0  0  0
 14 25  1  0  0  0  0
 15  4  1  0  0  0  0
 15  5  1  0  0  0  0
 16  8  1  0  0  0  0
 16  7  1  0  0  0  0
 16  3  1  0  0  0  0
 17 10  1  0  0  0  0
 17 28  1  0  0  0  0
 18  1  1  0  0  0  0
 18 20  1  0  0  0  0
 19  5  1  0  0  0  0
 19  6  1  0  0  0  0
 20 13  1  0  0  0  0
 21 26  1  0  0  0  0
 22 10  1  0  0  0  0
 23 21  1  0  0  0  0
 24 22  1  0  0  0  0
 25 17  1  0  0  0  0
 27  2  1  0  0  0  0
 27  9  1  0  0  0  0
 28 29  2  0  0  0  0
 29 32  1  0  0  0  0
 30 33  1  0  0  0  0
 31 33  1  0  0  0  0
 32 31  1  0  0  0  0
 34 32  1  0  0  0  0
 34 30  1  0  0  0  0
M  END
>  <MODEL>
1

>  <REMARK>
 VINA RESULT:      -9.6      0.000      0.000
  Name = 
  2 active torsions:
  status: ('A' for Active; 'I' for Inactive)
    1  A    between atoms: C_17  and  N_28
    2  A    between atoms: C_29  and  C_32
                            x       y       z     vdW  Elec       q    Type
                         _______ _______ _______ _____ _____    ______ ____

>  <TORSDO>
F 2

$$$$
=
 OpenBabel11122412263D

 34 42  0  0  1  0  0  0  0  0999 V2000
  190.5770  177.1930  143.3570 C   0  0  2  0  0  3  0  0  0  0  0  0
  192.3650  176.9390  141.7760 O   0  0  0  0  0  0  0  0  0  0  0  0
  184.4300  178.8690  145.2710 C   0  0  2  0  0  3  0  0  0  0  0  0
  188.6230  177.2550  144.8430 C   0  0  1  0  0  3  0  0  0  0  0  0
  186.5050  178.3850  143.8480 C   0  0  2  0  0  3  0  0  0  0  0  0
  184.4110  179.0090  142.8820 O   0  0  0  0  0  1  0  0  0  0  0  0
  185.2920  179.8260  145.8470 O   0  0  0  0  0  0  0  0  0  0  0  0
  186.5840  177.8490  146.4060 C   0  0  1  0  0  3  0  0  0  0  0  0
  190.4300  178.0800  140.9610 C   0  0  2  0  0  3  0  0  0  0  0  0
  189.4430  176.7670  138.1760 C   0  0  0  0  0  2  0  0  0  0  0  0
  186.9970  177.7470  142.6290 N   0  0  0  0  0  2  0  0  0  0  0  0
  186.4320  176.6940  145.6120 O   0  0  0  0  0  0  0  0  0  0  0  0
  188.9720  177.5960  141.1330 C   0  0  1  0  0  3  0  0  0  0  0  0
  192.5490  177.1740  140.4050 C   0  0  0  0  0  2  0  0  0  0  0  0
  187.1910  177.7410  145.0530 C   0  0  2  0  0  0  0  0  0  0  0  0
  185.2250  178.5810  146.5100 C   0  0  2  0  0  3  0  0  0  0  0  0
  190.5660  176.2960  139.0980 C   0  0  2  0  0  3  0  0  0  0  0  0
  189.2930  177.9620  143.6570 C   0  0  2  0  0  3  0  0  0  0  0  0
  184.9860  178.3150  143.9460 C   0  0  2  0  0  3  0  0  0  0  0  0
  188.3810  178.1910  142.4160 C   0  0  2  0  0  3  0  0  0  0  0  0
  190.5730  176.6110  145.7860 C   0  0  0  0  0  2  0  0  0  0  0  0
  188.1160  176.8750  138.9100 C   0  0  0  0  0  2  0  0  0  0  0  0
  189.4270  177.4120  145.9880 O   0  0  0  0  0  0  0  0  0  0  0  0
  188.1310  178.0010  139.9310 C   0  0  0  0  0  2  0  0  0  0  0  0
  191.2100  177.5170  139.7810 C   0  0  1  0  0  3  0  0  0  0  0  0
  191.4300  177.1470  144.6240 C   0  0  0  0  0  2  0  0  0  0  0  0
  191.3300  177.8030  142.1730 C   0  0  1  0  0  3  0  0  0  0  0  0
  191.5460  175.5850  138.3140 N   0  0  0  0  0  0  0  0  0  0  0  0
  191.7580  175.8980  137.0860 C   0  0  0  0  0  3  0  0  0  0  0  0
  194.5170  173.5490  136.6360 C   0  0  0  0  0  2  0  0  0  0  0  0
  194.1020  175.9010  136.2420 C   0  0  0  0  0  2  0  0  0  0  0  0
  192.7720  175.1660  136.2630 C   0  0  0  0  0  3  0  0  0  0  0  0
  195.1500  174.9190  136.7290 C   0  0  0  0  0  2  0  0  0  0  0  0
  193.0370  173.7830  136.8270 C   0  0  0  0  0  2  0  0  0  0  0  0
  1 18  1  0  0  0  0
  1 26  1  1  0  0  0
  2 27  1  0  0  0  0
  3  7  1  6  0  0  0
  3 16  1  0  0  0  0
  4 15  1  0  0  0  0
  4 23  1  1  0  0  0
  5 11  1  6  0  0  0
  5 19  1  0  0  0  0
  5 15  1  0  0  0  0
  6 19  1  0  0  0  0
  7 16  1  0  0  0  0
  8 12  1  6  0  0  0
  8 16  1  0  0  0  0
  9 13  1  0  0  0  0
  9 27  1  0  0  0  0
 10 22  1  0  0  0  0
 10 17  1  0  0  0  0
 13 20  1  0  0  0  0
 14  2  1  0  0  0  0
 15 12  1  0  0  0  0
 15  8  1  0  0  0  0
 17 25  1  0  0  0  0
 18  4  1  0  0  0  0
 19  3  1  0  0  0  0
 20 11  1  0  0  0  0
 20 18  1  0  0  0  0
 21 23  1  0  0  0  0
 22 24  1  0  0  0  0
 24 13  1  0  0  0  0
 25 14  1  0  0  0  0
 25  9  1  0  0  0  0
 26 21  1  0  0  0  0
 27  1  1  0  0  0  0
 28 17  1  0  0  0  0
 29 28  2  0  0  0  0
 30 33  1  0  0  0  0
 30 34  1  0  0  0  0
 31 32  1  0  0  0  0
 31 33  1  0  0  0  0
 32 34  1  0  0  0  0
 32 29  1  0  0  0  0
M  END
>  <MODEL>
2

>  <REMARK>
 VINA RESULT:      -8.7      2.581      9.475
  Name = 
  2 active torsions:
  status: ('A' for Active; 'I' for Inactive)
    1  A    between atoms: C_17  and  N_28
    2  A    between atoms: C_29  and  C_32
                            x       y       z     vdW  Elec       q    Type
                         _______ _______ _______ _____ _____    ______ ____

>  <TORSDO>
F 2

$$$$
=
 OpenBabel11122412263D

 34 42  0  0  1  0  0  0  0  0999 V2000
  182.2140  178.6120  143.4330 C   0  0  2  0  0  3  0  0  0  0  0  0
  183.4490  178.9910  145.4540 O   0  0  0  0  0  0  0  0  0  0  0  0
  181.4810  178.0570  136.8430 C   0  0  2  0  0  3  0  0  0  0  0  0
  181.0880  177.9950  141.3390 C   0  0  1  0  0  3  0  0  0  0  0  0
  182.4970  178.3200  139.1810 C   0  0  2  0  0  3  0  0  0  0  0  0
  183.8430  178.1800  137.2110 O   0  0  0  0  0  1  0  0  0  0  0  0
  180.8290  179.2540  137.2080 O   0  0  0  0  0  0  0  0  0  0  0  0
  179.9350  177.8480  138.9720 C   0  0  1  0  0  3  0  0  0  0  0  0
  184.6520  179.3910  143.4280 C   0  0  2  0  0  3  0  0  0  0  0  0
  187.4750  177.8150  143.4700 C   0  0  0  0  0  2  0  0  0  0  0  0
  183.5720  177.8910  140.0720 N   0  0  0  0  0  2  0  0  0  0  0  0
  180.6670  176.7100  139.3690 O   0  0  0  0  0  0  0  0  0  0  0  0
  184.6980  178.4320  142.2170 C   0  0  1  0  0  3  0  0  0  0  0  0
  184.7810  179.2740  145.7920 C   0  0  0  0  0  2  0  0  0  0  0  0
  181.1550  177.9560  139.8140 C   0  0  2  0  0  0  0  0  0  0  0  0
  180.1090  178.0640  137.4500 C   0  0  2  0  0  3  0  0  0  0  0  0
  186.3470  177.7630  144.4990 C   0  0  2  0  0  3  0  0  0  0  0  0
  182.1860  178.8890  141.9310 C   0  0  2  0  0  3  0  0  0  0  0  0
  182.6540  177.7290  137.7840 C   0  0  2  0  0  3  0  0  0  0  0  0
  183.5750  178.7870  141.2370 C   0  0  2  0  0  3  0  0  0  0  0  0
  179.7880  178.0670  143.1870 C   0  0  0  0  0  2  0  0  0  0  0  0
  186.9840  177.4580  142.0750 C   0  0  0  0  0  2  0  0  0  0  0  0
  179.8350  178.4220  141.8200 O   0  0  0  0  0  0  0  0  0  0  0  0
  186.0490  178.5200  141.5210 C   0  0  0  0  0  2  0  0  0  0  0  0
  185.6440  179.1320  144.5530 C   0  0  1  0  0  3  0  0  0  0  0  0
  180.8200  178.8660  144.0050 C   0  0  0  0  0  2  0  0  0  0  0  0
  183.2890  179.4440  144.1340 C   0  0  1  0  0  3  0  0  0  0  0  0
  186.9070  177.4340  145.7870 N   0  0  0  0  0  0  0  0  0  0  0  0
  188.1790  177.4110  145.9640 C   0  0  0  0  0  3  0  0  0  0  0  0
  190.1200  178.1650  148.9630 C   0  0  0  0  0  2  0  0  0  0  0  0
  190.1940  176.5570  147.1560 C   0  0  0  0  0  2  0  0  0  0  0  0
  188.7710  177.0710  147.2970 C   0  0  0  0  0  3  0  0  0  0  0  0
  191.0640  177.4390  148.0310 C   0  0  0  0  0  2  0  0  0  0  0  0
  188.8240  178.2900  148.1970 C   0  0  0  0  0  2  0  0  0  0  0  0
  1 26  1  1  0  0  0
  1 27  1  0  0  0  0
  2 14  1  0  0  0  0
  3  7  1  1  0  0  0
  3 16  1  0  0  0  0
  3 19  1  0  0  0  0
  4 23  1  6  0  0  0
  4 18  1  0  0  0  0
  5 15  1  0  0  0  0
  5 11  1  1  0  0  0
  6 19  1  0  0  0  0
  7 16  1  0  0  0  0
  8 12  1  6  0  0  0
  8 15  1  0  0  0  0
  9 27  1  0  0  0  0
  9 25  1  0  0  0  0
 10 17  1  0  0  0  0
 11 20  1  0  0  0  0
 12 15  1  0  0  0  0
 13  9  1  0  0  0  0
 15  4  1  0  0  0  0
 16  8  1  0  0  0  0
 17 25  1  0  0  0  0
 17 28  1  0  0  0  0
 18  1  1  0  0  0  0
 19  5  1  0  0  0  0
 20 18  1  0  0  0  0
 20 13  1  0  0  0  0
 21 26  1  0  0  0  0
 22 10  1  0  0  0  0
 23 21  1  0  0  0  0
 24 22  1  0  0  0  0
 24 13  1  0  0  0  0
 25 14  1  0  0  0  0
 27  2  1  0  0  0  0
 28 29  2  0  0  0  0
 29 32  1  0  0  0  0
 31 32  1  0  0  0  0
 31 33  1  0  0  0  0
 32 34  1  0  0  0  0
 33 30  1  0  0  0  0
 34 30  1  0  0  0  0
M  END
>  <MODEL>
3

>  <REMARK>
 VINA RESULT:      -8.3      5.878      8.518
  Name = 
  2 active torsions:
  status: ('A' for Active; 'I' for Inactive)
    1  A    between atoms: C_17  and  N_28
    2  A    between atoms: C_29  and  C_32
                            x       y       z     vdW  Elec       q    Type
                         _______ _______ _______ _____ _____    ______ ____

>  <TORSDO>
F 2

$$$$
=
 OpenBabel11122412263D

 34 42  0  0  1  0  0  0  0  0999 V2000
  189.2370  177.3450  141.6010 C   0  0  2  0  0  3  0  0  0  0  0  0
  190.2160  177.2580  139.4120 O   0  0  0  0  0  0  0  0  0  0  0  0
  184.5640  178.9880  146.0430 C   0  0  2  0  0  3  0  0  0  0  0  0
  188.0490  177.2670  143.7490 C   0  0  1  0  0  3  0  0  0  0  0  0
  185.8430  178.6350  143.8510 C   0  0  2  0  0  3  0  0  0  0  0  0
  183.6160  179.4990  143.9050 O   0  0  0  0  0  1  0  0  0  0  0  0
  185.6790  179.8020  146.3320 O   0  0  0  0  0  0  0  0  0  0  0  0
  186.8710  177.7050  146.0670 C   0  0  1  0  0  3  0  0  0  0  0  0
  188.2480  178.6010  139.6020 C   0  0  2  0  0  3  0  0  0  0  0  0
  186.1080  177.7850  137.3210 C   0  0  0  0  0  2  0  0  0  0  0  0
  185.7420  178.1730  142.4680 N   0  0  0  0  0  2  0  0  0  0  0  0
  186.2950  176.6950  145.2680 O   0  0  0  0  0  0  0  0  0  0  0  0
  186.9360  178.1650  140.2920 C   0  0  1  0  0  3  0  0  0  0  0  0
  189.8660  177.6950  138.1260 C   0  0  0  0  0  2  0  0  0  0  0  0
  186.8770  177.7810  144.5820 C   0  0  2  0  0  0  0  0  0  0  0  0
  185.7490  178.4740  146.8050 C   0  0  2  0  0  3  0  0  0  0  0  0
  187.4470  177.1240  137.6410 C   0  0  2  0  0  3  0  0  0  0  0  0
  188.2660  178.1180  142.4910 C   0  0  2  0  0  3  0  0  0  0  0  0
  184.4880  178.6220  144.5490 C   0  0  2  0  0  3  0  0  0  0  0  0
  186.9670  178.5800  141.7680 C   0  0  2  0  0  3  0  0  0  0  0  0
  190.1340  176.3930  143.7300 C   0  0  0  0  0  2  0  0  0  0  0  0
  185.1990  177.8400  138.5390 C   0  0  0  0  0  2  0  0  0  0  0  0
  189.2530  177.2060  144.4780 O   0  0  0  0  0  0  0  0  0  0  0  0
  185.7350  178.7900  139.5970 C   0  0  0  0  0  2  0  0  0  0  0  0
  188.4330  178.1930  138.1480 C   0  0  1  0  0  3  0  0  0  0  0  0
  190.5120  177.0640  142.3960 C   0  0  0  0  0  2  0  0  0  0  0  0
  189.5200  178.0970  140.2990 C   0  0  1  0  0  3  0  0  0  0  0  0
  187.9550  176.4990  136.4440 N   0  0  0  0  0  0  0  0  0  0  0  0
  188.0950  175.2240  136.3770 C   0  0  0  0  0  3  0  0  0  0  0  0
  190.1190  172.7600  134.5990 C   0  0  0  0  0  2  0  0  0  0  0  0
  189.9500  175.1710  134.7140 C   0  0  0  0  0  2  0  0  0  0  0  0
  188.6220  174.5660  135.1400 C   0  0  0  0  0  3  0  0  0  0  0  0
  190.9420  174.0280  134.6290 C   0  0  0  0  0  2  0  0  0  0  0  0
  188.8610  173.0850  135.3690 C   0  0  0  0  0  2  0  0  0  0  0  0
  1 26  1  1  0  0  0
  1 18  1  0  0  0  0
  2 27  1  0  0  0  0
  3  7  1  6  0  0  0
  3 16  1  0  0  0  0
  4 23  1  1  0  0  0
  4 15  1  0  0  0  0
  5 11  1  6  0  0  0
  5 19  1  0  0  0  0
  5 15  1  0  0  0  0
  6 19  1  0  0  0  0
  7 16  1  0  0  0  0
  8 12  1  6  0  0  0
  8 16  1  0  0  0  0
  9 13  1  0  0  0  0
  9 27  1  0  0  0  0
 10 17  1  0  0  0  0
 10 22  1  0  0  0  0
 13 20  1  0  0  0  0
 14 25  1  0  0  0  0
 14  2  1  0  0  0  0
 15 12  1  0  0  0  0
 15  8  1  0  0  0  0
 17 25  1  0  0  0  0
 18  4  1  0  0  0  0
 19  3  1  0  0  0  0
 20 11  1  0  0  0  0
 20 18  1  0  0  0  0
 21 23  1  0  0  0  0
 22 24  1  0  0  0  0
 24 13  1  0  0  0  0
 25  9  1  0  0  0  0
 26 21  1  0  0  0  0
 27  1  1  0  0  0  0
 28 17  1  0  0  0  0
 29 28  2  0  0  0  0
 30 33  1  0  0  0  0
 30 34  1  0  0  0  0
 31 32  1  0  0  0  0
 32 34  1  0  0  0  0
 32 29  1  0  0  0  0
 33 31  1  0  0  0  0
M  END
>  <MODEL>
4

>  <REMARK>
 VINA RESULT:      -7.9      2.634      9.359
  Name = 
  2 active torsions:
  status: ('A' for Active; 'I' for Inactive)
    1  A    between atoms: C_17  and  N_28
    2  A    between atoms: C_29  and  C_32
                            x       y       z     vdW  Elec       q    Type
                         _______ _______ _______ _____ _____    ______ ____

>  <TORSDO>
F 2

$$$$
=
 OpenBabel11122412263D

 34 42  0  0  1  0  0  0  0  0999 V2000
  187.6590  177.7160  140.3000 C   0  0  2  0  0  3  0  0  0  0  0  0
  185.8360  178.4450  138.9200 O   0  0  0  0  0  0  0  0  0  0  0  0
  190.9750  177.0420  146.0280 C   0  0  2  0  0  3  0  0  0  0  0  0
  189.3520  176.7980  141.8240 C   0  0  1  0  0  3  0  0  0  0  0  0
  189.1700  177.5870  144.2930 C   0  0  2  0  0  3  0  0  0  0  0  0
  188.8300  177.9120  146.6350 O   0  0  0  0  0  1  0  0  0  0  0  0
  191.7160  177.9620  145.2550 O   0  0  0  0  0  0  0  0  0  0  0  0
  191.3200  176.3190  143.5130 C   0  0  1  0  0  3  0  0  0  0  0  0
  185.7960  179.2360  141.1750 C   0  0  2  0  0  3  0  0  0  0  0  0
  182.9140  178.6500  142.5180 C   0  0  0  0  0  2  0  0  0  0  0  0
  187.7430  177.5140  143.9890 N   0  0  0  0  0  2  0  0  0  0  0  0
  190.1980  175.4720  143.6230 O   0  0  0  0  0  0  0  0  0  0  0  0
  186.0070  178.3600  142.4300 C   0  0  1  0  0  3  0  0  0  0  0  0
  184.6310  179.1360  139.1130 C   0  0  0  0  0  2  0  0  0  0  0  0
  189.9420  176.8020  143.2330 C   0  0  2  0  0  0  0  0  0  0  0  0
  191.8890  176.6000  144.9240 C   0  0  2  0  0  3  0  0  0  0  0  0
  183.4200  178.2240  141.1410 C   0  0  2  0  0  3  0  0  0  0  0  0
  188.4110  177.9890  141.6010 C   0  0  2  0  0  3  0  0  0  0  0  0
  189.4720  177.0960  145.7040 C   0  0  2  0  0  3  0  0  0  0  0  0
  187.4930  178.3480  142.8050 C   0  0  2  0  0  3  0  0  0  0  0  0
  189.6870  176.4240  139.6200 C   0  0  0  0  0  2  0  0  0  0  0  0
  183.8340  178.1730  143.6310 C   0  0  0  0  0  2  0  0  0  0  0  0
  190.3380  176.7930  140.8180 O   0  0  0  0  0  0  0  0  0  0  0  0
  185.1760  178.8850  143.5920 C   0  0  0  0  0  2  0  0  0  0  0  0
  184.3870  179.2940  140.6010 C   0  0  1  0  0  3  0  0  0  0  0  0
  188.6770  177.5010  139.1810 C   0  0  0  0  0  2  0  0  0  0  0  0
  186.6720  178.8390  139.9780 C   0  0  1  0  0  3  0  0  0  0  0  0
  182.2900  178.0760  140.2550 N   0  0  0  0  0  0  0  0  0  0  0  0
  181.2000  178.7230  140.4670 C   0  0  0  0  0  3  0  0  0  0  0  0
  179.1200  176.8900  138.0910 C   0  0  0  0  0  2  0  0  0  0  0  0
  180.3780  178.9570  138.1260 C   0  0  0  0  0  2  0  0  0  0  0  0
  180.0220  178.5750  139.5540 C   0  0  0  0  0  3  0  0  0  0  0  0
  180.0290  177.7650  137.2570 C   0  0  0  0  0  2  0  0  0  0  0  0
  179.5330  177.1400  139.5220 C   0  0  0  0  0  2  0  0  0  0  0  0
  1 26  1  6  0  0  0
  1 18  1  0  0  0  0
  2 14  1  0  0  0  0
  2 27  1  0  0  0  0
  3  7  1  6  0  0  0
  4 23  1  6  0  0  0
  4 15  1  0  0  0  0
  5 11  1  6  0  0  0
  5 19  1  0  0  0  0
  8 12  1  1  0  0  0
  8 16  1  0  0  0  0
  9 13  1  0  0  0  0
 10 22  1  0  0  0  0
 13 20  1  0  0  0  0
 13 24  1  0  0  0  0
 14 25  1  0  0  0  0
 15  8  1  0  0  0  0
 15 12  1  0  0  0  0
 15  5  1  0  0  0  0
 16  7  1  0  0  0  0
 16  3  1  0  0  0  0
 17 10  1  0  0  0  0
 18  4  1  0  0  0  0
 18 20  1  0  0  0  0
 19  3  1  0  0  0  0
 19  6  1  0  0  0  0
 20 11  1  0  0  0  0
 21 23  1  0  0  0  0
 24 22  1  0  0  0  0
 25 17  1  0  0  0  0
 25  9  1  0  0  0  0
 26 21  1  0  0  0  0
 27  1  1  0  0  0  0
 27  9  1  0  0  0  0
 28 29  2  0  0  0  0
 28 17  1  0  0  0  0
 30 34  1  0  0  0  0
 31 32  1  0  0  0  0
 32 29  1  0  0  0  0
 33 30  1  0  0  0  0
 33 31  1  0  0  0  0
 34 32  1  0  0  0  0
M  END
>  <MODEL>
5

>  <REMARK>
 VINA RESULT:      -7.9      4.242      7.397
  Name = 
  2 active torsions:
  status: ('A' for Active; 'I' for Inactive)
    1  A    between atoms: C_17  and  N_28
    2  A    between atoms: C_29  and  C_32
                            x       y       z     vdW  Elec       q    Type
                         _______ _______ _______ _____ _____    ______ ____

>  <TORSDO>
F 2

$$$$
=
 OpenBabel11122412263D

 34 42  0  0  1  0  0  0  0  0999 V2000
  187.9010  177.5760  141.8160 C   0  0  2  0  0  3  0  0  0  0  0  0
  187.0620  177.8770  139.5880 O   0  0  0  0  0  0  0  0  0  0  0  0
  187.8050  178.2940  148.4300 C   0  0  2  0  0  3  0  0  0  0  0  0
  188.5480  177.1090  144.1390 C   0  0  1  0  0  3  0  0  0  0  0  0
  187.1570  178.3460  145.9510 C   0  0  2  0  0  3  0  0  0  0  0  0
  185.6790  179.0920  147.6730 O   0  0  0  0  0  1  0  0  0  0  0  0
  188.8650  179.1010  147.9660 O   0  0  0  0  0  0  0  0  0  0  0  0
  189.3620  177.1250  146.6470 C   0  0  1  0  0  3  0  0  0  0  0  0
  185.9020  179.0850  141.2920 C   0  0  2  0  0  3  0  0  0  0  0  0
  182.7210  178.5450  141.0820 C   0  0  0  0  0  2  0  0  0  0  0  0
  186.0840  178.1020  144.9910 N   0  0  0  0  0  2  0  0  0  0  0  0
  188.3150  176.2300  146.3480 O   0  0  0  0  0  0  0  0  0  0  0  0
  185.4140  178.4890  142.6320 C   0  0  1  0  0  3  0  0  0  0  0  0
  185.9500  178.4940  138.9970 C   0  0  0  0  0  2  0  0  0  0  0  0
  188.3360  177.4340  145.6160 C   0  0  2  0  0  0  0  0  0  0  0  0
  189.1400  177.7190  148.0580 C   0  0  2  0  0  3  0  0  0  0  0  0
  183.8450  177.9010  140.2730 C   0  0  2  0  0  3  0  0  0  0  0  0
  187.8910  178.1560  143.2290 C   0  0  2  0  0  3  0  0  0  0  0  0
  186.6800  178.1640  147.3880 C   0  0  2  0  0  3  0  0  0  0  0  0
  186.4990  178.6680  143.7000 C   0  0  2  0  0  3  0  0  0  0  0  0
  189.9490  176.3420  142.5390 C   0  0  0  0  0  2  0  0  0  0  0  0
  182.9290  178.3670  142.5790 C   0  0  0  0  0  2  0  0  0  0  0  0
  189.9090  176.9870  143.7950 O   0  0  0  0  0  0  0  0  0  0  0  0
  184.1240  179.1630  143.0760 C   0  0  0  0  0  2  0  0  0  0  0  0
  184.9860  178.9190  140.0880 C   0  0  1  0  0  3  0  0  0  0  0  0
  189.3410  177.2290  141.4380 C   0  0  0  0  0  2  0  0  0  0  0  0
  187.2530  178.5340  140.8150 C   0  0  1  0  0  3  0  0  0  0  0  0
  183.3220  177.4950  138.9910 N   0  0  0  0  0  0  0  0  0  0  0  0
  182.2030  177.9570  138.5620 C   0  0  0  0  0  3  0  0  0  0  0  0
  182.2020  177.8600  134.9120 C   0  0  0  0  0  2  0  0  0  0  0  0
  180.7100  178.5930  136.6710 C   0  0  0  0  0  2  0  0  0  0  0  0
  181.6510  177.5400  137.2330 C   0  0  0  0  0  3  0  0  0  0  0  0
  181.2380  178.9600  135.2970 C   0  0  0  0  0  2  0  0  0  0  0  0
  182.7610  177.3470  136.2180 C   0  0  0  0  0  2  0  0  0  0  0  0
  1 26  1  6  0  0  0
  1 18  1  0  0  0  0
  2 27  1  0  0  0  0
  3  7  1  6  0  0  0
  4 23  1  1  0  0  0
  4 15  1  0  0  0  0
  5 11  1  6  0  0  0
  5 19  1  0  0  0  0
  7 16  1  0  0  0  0
  8 12  1  1  0  0  0
  8 16  1  0  0  0  0
  9 13  1  0  0  0  0
 10 22  1  0  0  0  0
 13 24  1  0  0  0  0
 13 20  1  0  0  0  0
 14  2  1  0  0  0  0
 14 25  1  0  0  0  0
 15  5  1  0  0  0  0
 15 12  1  0  0  0  0
 15  8  1  0  0  0  0
 16  3  1  0  0  0  0
 17 10  1  0  0  0  0
 18 20  1  0  0  0  0
 18  4  1  0  0  0  0
 19  6  1  0  0  0  0
 19  3  1  0  0  0  0
 20 11  1  0  0  0  0
 21 23  1  0  0  0  0
 22 24  1  0  0  0  0
 25 17  1  0  0  0  0
 25  9  1  0  0  0  0
 26 21  1  0  0  0  0
 27  9  1  0  0  0  0
 27  1  1  0  0  0  0
 28 17  1  0  0  0  0
 29 28  2  0  0  0  0
 30 33  1  0  0  0  0
 30 34  1  0  0  0  0
 31 32  1  0  0  0  0
 32 29  1  0  0  0  0
 33 31  1  0  0  0  0
 34 32  1  0  0  0  0
M  END
>  <MODEL>
6

>  <REMARK>
 VINA RESULT:      -7.5      4.473      9.155
  Name = 
  2 active torsions:
  status: ('A' for Active; 'I' for Inactive)
    1  A    between atoms: C_17  and  N_28
    2  A    between atoms: C_29  and  C_32
                            x       y       z     vdW  Elec       q    Type
                         _______ _______ _______ _____ _____    ______ ____

>  <TORSDO>
F 2

$$$$
=
 OpenBabel11122412263D

 34 42  0  0  1  0  0  0  0  0999 V2000
  185.9380  178.4590  145.2050 C   0  0  2  0  0  3  0  0  0  0  0  0
  184.0130  178.8320  143.8220 O   0  0  0  0  0  0  0  0  0  0  0  0
  192.0520  176.1910  146.5230 C   0  0  2  0  0  3  0  0  0  0  0  0
  188.0370  178.2510  146.4630 C   0  0  1  0  0  3  0  0  0  0  0  0
  189.8870  176.8340  145.3130 C   0  0  2  0  0  3  0  0  0  0  0  0
  191.7710  175.9220  144.1610 O   0  0  0  0  0  1  0  0  0  0  0  0
  191.1670  175.3710  147.2540 O   0  0  0  0  0  0  0  0  0  0  0  0
  190.1720  177.5100  147.8220 C   0  0  1  0  0  3  0  0  0  0  0  0
  185.7020  177.4340  142.8720 C   0  0  2  0  0  3  0  0  0  0  0  0
  186.4860  178.4750  139.9130 C   0  0  0  0  0  2  0  0  0  0  0  0
  189.3250  177.4580  144.1180 N   0  0  0  0  0  2  0  0  0  0  0  0
  190.3530  178.5970  146.9420 O   0  0  0  0  0  0  0  0  0  0  0  0
  187.2140  177.7560  142.8470 C   0  0  1  0  0  3  0  0  0  0  0  0
  183.6430  178.5480  142.5000 C   0  0  0  0  0  2  0  0  0  0  0  0
  189.4230  177.6150  146.5420 C   0  0  2  0  0  0  0  0  0  0  0  0
  191.4460  176.6340  147.8220 C   0  0  2  0  0  3  0  0  0  0  0  0
  185.5390  179.1210  140.9220 C   0  0  2  0  0  3  0  0  0  0  0  0
  187.1590  177.5640  145.4090 C   0  0  2  0  0  3  0  0  0  0  0  0
  191.4060  176.7330  145.2350 C   0  0  2  0  0  3  0  0  0  0  0  0
  187.8860  177.1660  144.0920 C   0  0  2  0  0  3  0  0  0  0  0  0
  186.2950  179.1650  147.5750 C   0  0  0  0  0  2  0  0  0  0  0  0
  187.8720  178.2540  140.4990 C   0  0  0  0  0  2  0  0  0  0  0  0
  187.3630  178.2490  147.6990 O   0  0  0  0  0  0  0  0  0  0  0  0
  187.8570  177.1940  141.5870 C   0  0  0  0  0  2  0  0  0  0  0  0
  184.8530  178.0200  141.7520 C   0  0  1  0  0  3  0  0  0  0  0  0
  185.2530  178.6700  146.5550 C   0  0  0  0  0  2  0  0  0  0  0  0
  184.9880  177.8780  144.1570 C   0  0  1  0  0  3  0  0  0  0  0  0
  184.5550  179.8970  140.2070 N   0  0  0  0  0  0  0  0  0  0  0  0
  183.6780  179.3230  139.4650 C   0  0  0  0  0  3  0  0  0  0  0  0
  180.2560  180.3460  138.7040 C   0  0  0  0  0  2  0  0  0  0  0  0
  182.1190  179.3510  137.5210 C   0  0  0  0  0  2  0  0  0  0  0  0
  182.6530  180.1200  138.7180 C   0  0  0  0  0  3  0  0  0  0  0  0
  180.6110  179.2930  137.6790 C   0  0  0  0  0  2  0  0  0  0  0  0
  181.4660  180.4470  139.6040 C   0  0  0  0  0  2  0  0  0  0  0  0
  1 18  1  0  0  0  0
  1 26  1  1  0  0  0
  2 27  1  0  0  0  0
  3  7  1  6  0  0  0
  3 16  1  0  0  0  0
  4 15  1  0  0  0  0
  4 23  1  1  0  0  0
  5 11  1  6  0  0  0
  5 15  1  0  0  0  0
  6 19  1  0  0  0  0
  7 16  1  0  0  0  0
  8 12  1  6  0  0  0
  8 16  1  0  0  0  0
  9 27  1  0  0  0  0
 10 22  1  0  0  0  0
 10 17  1  0  0  0  0
 13  9  1  0  0  0  0
 13 20  1  0  0  0  0
 14  2  1  0  0  0  0
 15 12  1  0  0  0  0
 15  8  1  0  0  0  0
 17 25  1  0  0  0  0
 18  4  1  0  0  0  0
 19  5  1  0  0  0  0
 19  3  1  0  0  0  0
 20 11  1  0  0  0  0
 20 18  1  0  0  0  0
 21 23  1  0  0  0  0
 22 24  1  0  0  0  0
 24 13  1  0  0  0  0
 25 14  1  0  0  0  0
 25  9  1  0  0  0  0
 26 21  1  0  0  0  0
 27  1  1  0  0  0  0
 28 17  1  0  0  0  0
 29 28  2  0  0  0  0
 30 34  1  0  0  0  0
 31 33  1  0  0  0  0
 31 32  1  0  0  0  0
 32 29  1  0  0  0  0
 32 34  1  0  0  0  0
 33 30  1  0  0  0  0
M  END
>  <MODEL>
7

>  <REMARK>
 VINA RESULT:      -7.5      4.935      8.588
  Name = 
  2 active torsions:
  status: ('A' for Active; 'I' for Inactive)
    1  A    between atoms: C_17  and  N_28
    2  A    between atoms: C_29  and  C_32
                            x       y       z     vdW  Elec       q    Type
                         _______ _______ _______ _____ _____    ______ ____

>  <TORSDO>
F 2

$$$$
=
 OpenBabel11122412263D

 34 42  0  0  1  0  0  0  0  0999 V2000
  186.9770  177.9330  139.5890 C   0  0  2  0  0  3  0  0  0  0  0  0
  184.9980  178.5630  138.3880 O   0  0  0  0  0  0  0  0  0  0  0  0
  190.8580  177.4750  144.9740 C   0  0  2  0  0  3  0  0  0  0  0  0
  188.8500  177.1100  140.9490 C   0  0  1  0  0  3  0  0  0  0  0  0
  188.8710  177.9180  143.4180 C   0  0  2  0  0  3  0  0  0  0  0  0
  188.7430  178.2530  145.7800 O   0  0  0  0  0  1  0  0  0  0  0  0
  191.4770  178.4180  144.1270 O   0  0  0  0  0  0  0  0  0  0  0  0
  190.9910  176.7400  142.4420 C   0  0  1  0  0  3  0  0  0  0  0  0
  185.1380  179.3770  140.6310 C   0  0  2  0  0  3  0  0  0  0  0  0
  182.4300  178.6750  142.2500 C   0  0  0  0  0  2  0  0  0  0  0  0
  187.4260  177.7760  143.2540 N   0  0  0  0  0  2  0  0  0  0  0  0
  189.9260  175.8440  142.6660 O   0  0  0  0  0  0  0  0  0  0  0  0
  185.5100  178.5250  141.8650 C   0  0  1  0  0  3  0  0  0  0  0  0
  183.7860  179.2010  138.6920 C   0  0  0  0  0  2  0  0  0  0  0  0
  189.5720  177.1570  142.2930 C   0  0  2  0  0  0  0  0  0  0  0  0
  191.6810  177.0620  143.7890 C   0  0  2  0  0  3  0  0  0  0  0  0
  182.8190  178.2580  140.8340 C   0  0  2  0  0  3  0  0  0  0  0  0
  187.8370  178.2550  140.8100 C   0  0  2  0  0  3  0  0  0  0  0  0
  189.3290  177.4560  144.7970 C   0  0  2  0  0  3  0  0  0  0  0  0
  187.0240  178.5850  142.0950 C   0  0  2  0  0  3  0  0  0  0  0  0
  188.9870  176.7280  138.7250 C   0  0  0  0  0  2  0  0  0  0  0  0
  183.4740  178.2520  143.2720 C   0  0  0  0  0  2  0  0  0  0  0  0
  189.7330  177.1390  139.8520 O   0  0  0  0  0  0  0  0  0  0  0  0
  184.7710  179.0250  143.0990 C   0  0  0  0  0  2  0  0  0  0  0  0
  183.6790  179.3650  140.1960 C   0  0  1  0  0  3  0  0  0  0  0  0
  187.8910  177.7520  138.3780 C   0  0  0  0  0  2  0  0  0  0  0  0
  185.9130  179.0070  139.3570 C   0  0  1  0  0  3  0  0  0  0  0  0
  181.6180  178.0490  140.0630 N   0  0  0  0  0  0  0  0  0  0  0  0
  181.1150  176.8730  139.9350 C   0  0  0  0  0  3  0  0  0  0  0  0
  179.0090  174.9650  137.6430 C   0  0  0  0  0  2  0  0  0  0  0  0
  180.0210  177.1630  137.7150 C   0  0  0  0  0  2  0  0  0  0  0  0
  179.8690  176.6460  139.1370 C   0  0  0  0  0  3  0  0  0  0  0  0
  179.7160  175.9980  136.7940 C   0  0  0  0  0  2  0  0  0  0  0  0
  179.5450  175.1670  139.0400 C   0  0  0  0  0  2  0  0  0  0  0  0
  1 26  1  6  0  0  0
  1 18  1  0  0  0  0
  2 14  1  0  0  0  0
  2 27  1  0  0  0  0
  3  7  1  6  0  0  0
  4 23  1  6  0  0  0
  4 15  1  0  0  0  0
  5 11  1  1  0  0  0
  5 19  1  0  0  0  0
  8 12  1  1  0  0  0
  8 16  1  0  0  0  0
  9 13  1  0  0  0  0
 10 22  1  0  0  0  0
 13 20  1  0  0  0  0
 13 24  1  0  0  0  0
 14 25  1  0  0  0  0
 15  8  1  0  0  0  0
 15 12  1  0  0  0  0
 15  5  1  0  0  0  0
 16  7  1  0  0  0  0
 16  3  1  0  0  0  0
 17 10  1  0  0  0  0
 18  4  1  0  0  0  0
 18 20  1  0  0  0  0
 19  3  1  0  0  0  0
 19  6  1  0  0  0  0
 20 11  1  0  0  0  0
 21 23  1  0  0  0  0
 24 22  1  0  0  0  0
 25  9  1  0  0  0  0
 25 17  1  0  0  0  0
 26 21  1  0  0  0  0
 27  1  1  0  0  0  0
 27  9  1  0  0  0  0
 28 17  1  0  0  0  0
 29 28  2  0  0  0  0
 30 34  1  0  0  0  0
 31 32  1  0  0  0  0
 32 29  1  0  0  0  0
 33 30  1  0  0  0  0
 33 31  1  0  0  0  0
 34 32  1  0  0  0  0
M  END
>  <MODEL>
8

>  <REMARK>
 VINA RESULT:      -7.5      4.349      7.342
  Name = 
  2 active torsions:
  status: ('A' for Active; 'I' for Inactive)
    1  A    between atoms: C_17  and  N_28
    2  A    between atoms: C_29  and  C_32
                            x       y       z     vdW  Elec       q    Type
                         _______ _______ _______ _____ _____    ______ ____

>  <TORSDO>
F 2

$$$$
=
 OpenBabel11122412263D

 34 42  0  0  1  0  0  0  0  0999 V2000
  186.4870  178.2130  141.3350 C   0  0  2  0  0  3  0  0  0  0  0  0
  188.8560  177.8400  141.2310 O   0  0  0  0  0  0  0  0  0  0  0  0
  180.4730  179.4570  138.7760 C   0  0  2  0  0  3  0  0  0  0  0  0
  184.0360  178.3570  141.3190 C   0  0  1  0  0  3  0  0  0  0  0  0
  182.9700  178.9370  139.0220 C   0  0  2  0  0  3  0  0  0  0  0  0
  181.8910  179.0390  136.8930 O   0  0  0  0  0  1  0  0  0  0  0  0
  180.8510  180.6260  139.4690 O   0  0  0  0  0  0  0  0  0  0  0  0
  181.4880  179.0200  141.1730 C   0  0  1  0  0  3  0  0  0  0  0  0
  187.8300  178.4970  139.1750 C   0  0  2  0  0  3  0  0  0  0  0  0
  188.6600  176.4590  136.8060 C   0  0  0  0  0  2  0  0  0  0  0  0
  184.0710  178.1060  138.5410 N   0  0  0  0  0  2  0  0  0  0  0  0
  181.8020  177.7030  140.7790 O   0  0  0  0  0  0  0  0  0  0  0  0
  186.5430  177.8780  138.5840 C   0  0  1  0  0  3  0  0  0  0  0  0
  189.8290  177.7760  140.2230 C   0  0  0  0  0  2  0  0  0  0  0  0
  182.7780  178.6850  140.5170 C   0  0  2  0  0  0  0  0  0  0  0  0
  180.3600  179.5700  140.2680 C   0  0  2  0  0  3  0  0  0  0  0  0
  188.9930  176.3660  138.2940 C   0  0  2  0  0  3  0  0  0  0  0  0
  185.3040  178.8540  140.6130 C   0  0  2  0  0  3  0  0  0  0  0  0
  181.6920  178.6920  138.2290 C   0  0  2  0  0  3  0  0  0  0  0  0
  185.3220  178.6690  139.0680 C   0  0  2  0  0  3  0  0  0  0  0  0
  185.0130  178.2110  143.3520 C   0  0  0  0  0  2  0  0  0  0  0  0
  187.1610  176.5580  136.5670 C   0  0  0  0  0  2  0  0  0  0  0  0
  184.0010  178.8780  142.6270 O   0  0  0  0  0  0  0  0  0  0  0  0
  186.6000  177.8790  137.0630 C   0  0  0  0  0  2  0  0  0  0  0  0
  189.1410  177.7850  138.8720 C   0  0  1  0  0  3  0  0  0  0  0  0
  186.4110  178.5740  142.8180 C   0  0  0  0  0  2  0  0  0  0  0  0
  187.8180  178.6280  140.7050 C   0  0  1  0  0  3  0  0  0  0  0  0
  190.2230  175.6290  138.4500 N   0  0  0  0  0  0  0  0  0  0  0  0
  190.9860  175.4020  137.4420 C   0  0  0  0  0  3  0  0  0  0  0  0
  194.5580  174.8720  136.8970 C   0  0  0  0  0  2  0  0  0  0  0  0
  192.4940  173.7020  136.4180 C   0  0  0  0  0  2  0  0  0  0  0  0
  192.2650  174.6380  137.5940 C   0  0  0  0  0  3  0  0  0  0  0  0
  193.8510  174.0520  135.8400 C   0  0  0  0  0  2  0  0  0  0  0  0
  193.4560  175.5750  137.6560 C   0  0  0  0  0  2  0  0  0  0  0  0
  1 26  1  1  0  0  0
  3  7  1  6  0  0  0
  3 16  1  0  0  0  0
  4 23  1  1  0  0  0
  5 11  1  6  0  0  0
  5 15  1  0  0  0  0
  6 19  1  0  0  0  0
  7 16  1  0  0  0  0
  8 12  1  6  0  0  0
  9 27  1  0  0  0  0
 10 17  1  0  0  0  0
 11 20  1  0  0  0  0
 13 20  1  0  0  0  0
 13  9  1  0  0  0  0
 14  2  1  0  0  0  0
 15 12  1  0  0  0  0
 15  8  1  0  0  0  0
 15  4  1  0  0  0  0
 16  8  1  0  0  0  0
 17 28  1  0  0  0  0
 17 25  1  0  0  0  0
 18  4  1  0  0  0  0
 18  1  1  0  0  0  0
 19  3  1  0  0  0  0
 19  5  1  0  0  0  0
 20 18  1  0  0  0  0
 22 10  1  0  0  0  0
 22 24  1  0  0  0  0
 23 21  1  0  0  0  0
 24 13  1  0  0  0  0
 25  9  1  0  0  0  0
 25 14  1  0  0  0  0
 26 21  1  0  0  0  0
 27  2  1  0  0  0  0
 27  1  1  0  0  0  0
 29 32  1  0  0  0  0
 29 28  2  0  0  0  0
 30 34  1  0  0  0  0
 31 32  1  0  0  0  0
 32 34  1  0  0  0  0
 33 31  1  0  0  0  0
 33 30  1  0  0  0  0
M  END
>  <MODEL>
9

>  <REMARK>
 VINA RESULT:      -7.3      3.523      9.371
  Name = 
  2 active torsions:
  status: ('A' for Active; 'I' for Inactive)
    1  A    between atoms: C_17  and  N_28
    2  A    between atoms: C_29  and  C_32
                            x       y       z     vdW  Elec       q    Type
                         _______ _______ _______ _____ _____    ______ ____

>  <TORSDO>
F 2

$$$$
