=
 OpenBabel11122411373D

 37 42  0  0  1  0  0  0  0  0999 V2000
  187.2820  178.0890  143.1050 C   0  0  0  0  0  0  0  0  0  0  0  0
  183.2710  178.8270  142.3490 C   0  0  0  0  0  0  0  0  0  0  0  0
  181.7010  176.9380  140.0390 C   0  0  0  0  0  2  0  0  0  0  0  0
  185.0140  178.8190  144.0150 C   0  0  0  0  0  0  0  0  0  0  0  0
  183.2510  178.7120  140.9660 C   0  0  0  0  0  0  0  0  0  0  0  0
  184.0070  175.3490  137.6380 C   0  0  0  0  0  0  0  0  0  0  0  0
  184.5760  178.8130  142.7110 C   0  0  0  0  0  0  0  0  0  0  0  0
  182.0220  178.4310  140.1380 C   0  0  2  0  0  3  0  0  0  0  0  0
  184.0350  178.8930  145.0240 C   0  0  0  0  0  3  0  0  0  0  0  0
  184.7110  175.6450  136.4270 N   0  0  0  0  0  2  0  0  0  0  0  0
  185.3360  178.6510  141.6040 C   0  0  0  0  0  0  0  0  0  0  0  0
  187.1220  176.5820  143.2210 C   0  0  0  0  0  1  0  0  0  0  0  0
  180.8210  178.8830  142.9260 C   0  0  0  0  0  2  0  0  0  0  0  0
  182.6590  178.9200  144.6700 C   0  0  0  0  0  3  0  0  0  0  0  0
  186.8320  178.5410  141.6860 C   0  0  0  0  0  2  0  0  0  0  0  0
  183.6070  176.4110  138.5150 N   0  0  0  0  0  0  0  0  0  0  0  0
  182.9470  176.0830  139.7820 C   0  0  0  0  0  2  0  0  0  0  0  0
  182.2630  178.8820  143.3120 C   0  0  0  0  0  0  0  0  0  0  0  0
  184.5370  178.5680  140.5140 N   0  0  0  0  0  0  0  0  0  0  0  0
  186.5000  178.7780  144.2640 C   0  0  0  0  0  2  0  0  0  0  0  0
  180.7610  179.2750  140.4080 C   0  0  1  0  0  3  0  0  0  0  0  0
  188.7510  178.4160  143.2620 C   0  0  0  0  0  1  0  0  0  0  0  0
  183.9810  177.7880  138.1860 C   0  0  0  0  0  2  0  0  0  0  0  0
  183.7350  174.1520  137.9300 O   0  0  0  0  0  0  0  0  0  0  0  0
  185.0310  178.3490  139.1470 C   0  0  0  0  0  2  0  0  0  0  0  0
  180.5880  179.8880  141.8060 C   0  0  0  0  0  2  0  0  0  0  0  0
  181.2150  180.1430  138.1100 C   0  0  0  0  0  3  0  0  0  0  0  0
  180.6010  180.3230  139.3540 C   0  0  0  0  0  0  0  0  0  0  0  0
  179.8520  181.4840  139.5980 C   0  0  0  0  0  3  0  0  0  0  0  0
  178.9310  183.6860  138.8670 C   0  0  0  0  0  1  0  0  0  0  0  0
  180.3370  182.2730  137.3630 C   0  0  0  0  0  3  0  0  0  0  0  0
  179.7220  182.4560  138.6040 C   0  0  0  0  0  0  0  0  0  0  0  0
  181.0840  181.1170  137.1150 C   0  0  0  0  0  3  0  0  0  0  0  0
  186.3640  175.1120  134.7020 C   0  0  0  0  0  1  0  0  0  0  0  0
  185.1760  174.6120  135.5100 C   0  0  2  0  0  3  0  0  0  0  0  0
  183.7720  172.6650  134.7040 C   0  0  0  0  0  1  0  0  0  0  0  0
  184.0430  174.1580  134.5940 C   0  0  0  0  0  2  0  0  0  0  0  0
  1 12  1  0  0  0  0
  1 22  1  0  0  0  0
  1 20  1  0  0  0  0
  2  7  1  0  0  0  0
  2 18  1  0  0  0  0
  4 20  1  0  0  0  0
  4  9  2  0  0  0  0
  5  2  2  0  0  0  0
  6 24  2  0  0  0  0
  6 16  1  0  0  0  0
  7  4  1  0  0  0  0
  8  3  1  1  0  0  0
  8 21  1  0  0  0  0
  8  5  1  0  0  0  0
 10  6  1  0  0  0  0
 11 15  1  0  0  0  0
 11  7  2  0  0  0  0
 13 18  1  0  0  0  0
 14  9  1  0  0  0  0
 15  1  1  0  0  0  0
 16 17  1  0  0  0  0
 17  3  1  0  0  0  0
 18 14  2  0  0  0  0
 19  5  1  0  0  0  0
 19 11  1  0  0  0  0
 21 28  1  6  0  0  0
 21 26  1  0  0  0  0
 23 16  1  0  0  0  0
 23 25  1  0  0  0  0
 25 19  1  0  0  0  0
 26 13  1  0  0  0  0
 27 28  1  0  0  0  0
 28 29  2  0  0  0  0
 31 32  2  0  0  0  0
 32 30  1  0  0  0  0
 32 29  1  0  0  0  0
 33 31  1  0  0  0  0
 33 27  2  0  0  0  0
 35 34  1  6  0  0  0
 35 10  1  0  0  0  0
 37 36  1  0  0  0  0
 37 35  1  0  0  0  0
M  END
>  <MODEL>
1

>  <REMARK>
 VINA RESULT:      -7.6      0.000      0.000
  Name = 
  3 active torsions:
  status: ('A' for Active; 'I' for Inactive)
    1  A    between atoms: C_4  and  N_12
    2  A    between atoms: C_4  and  C_37
    3  A    between atoms: C_23  and  C_30
                            x       y       z     vdW  Elec       q    Type
                         _______ _______ _______ _____ _____    ______ ____

>  <TORSDO>
F 3

$$$$
=
 OpenBabel11122411373D

 37 42  0  0  1  0  0  0  0  0999 V2000
  186.6510  178.1640  143.4680 C   0  0  0  0  0  0  0  0  0  0  0  0
  182.8220  178.8340  142.0220 C   0  0  0  0  0  0  0  0  0  0  0  0
  181.6910  176.8850  139.5140 C   0  0  0  0  0  2  0  0  0  0  0  0
  184.2530  178.8780  143.9630 C   0  0  0  0  0  0  0  0  0  0  0  0
  183.0400  178.6950  140.6590 C   0  0  0  0  0  0  0  0  0  0  0  0
  184.3930  175.2880  137.5730 C   0  0  0  0  0  0  0  0  0  0  0  0
  184.0450  178.8440  142.6030 C   0  0  0  0  0  0  0  0  0  0  0  0
  181.9750  178.3830  139.6380 C   0  0  2  0  0  3  0  0  0  0  0  0
  183.1150  178.9550  144.7870 C   0  0  0  0  0  3  0  0  0  0  0  0
  185.2900  175.5730  136.4960 N   0  0  0  0  0  2  0  0  0  0  0  0
  184.9860  178.6740  141.6460 C   0  0  0  0  0  0  0  0  0  0  0  0
  186.4890  176.6570  143.5840 C   0  0  0  0  0  1  0  0  0  0  0  0
  180.3080  178.8660  142.1700 C   0  0  0  0  0  2  0  0  0  0  0  0
  181.8190  178.9570  144.2020 C   0  0  0  0  0  3  0  0  0  0  0  0
  186.4460  178.5850  141.9860 C   0  0  0  0  0  2  0  0  0  0  0  0
  183.8360  176.3590  138.3490 N   0  0  0  0  0  0  0  0  0  0  0  0
  182.9720  176.0430  139.4900 C   0  0  0  0  0  2  0  0  0  0  0  0
  181.6620  178.8900  142.7970 C   0  0  0  0  0  0  0  0  0  0  0  0
  184.3860  178.5620  140.4370 N   0  0  0  0  0  0  0  0  0  0  0  0
  185.6750  178.8610  144.4630 C   0  0  0  0  0  2  0  0  0  0  0  0
  180.6770  179.2150  139.6720 C   0  0  1  0  0  3  0  0  0  0  0  0
  188.0670  178.5130  143.8690 C   0  0  0  0  0  1  0  0  0  0  0  0
  184.2460  177.7350  138.0630 C   0  0  0  0  0  2  0  0  0  0  0  0
  184.0870  174.0920  137.8370 O   0  0  0  0  0  0  0  0  0  0  0  0
  185.1100  178.3270  139.1790 C   0  0  0  0  0  2  0  0  0  0  0  0
  180.2600  179.8490  141.0080 C   0  0  0  0  0  2  0  0  0  0  0  0
  180.6910  181.6000  138.9270 C   0  0  0  0  0  3  0  0  0  0  0  0
  180.6890  180.2420  138.5870 C   0  0  0  0  0  0  0  0  0  0  0  0
  180.6890  179.8650  137.2360 C   0  0  0  0  0  3  0  0  0  0  0  0
  180.6890  180.4360  134.8050 C   0  0  0  0  0  1  0  0  0  0  0  0
  180.6930  182.1940  136.5790 C   0  0  0  0  0  3  0  0  0  0  0  0
  180.6910  180.8400  136.2350 C   0  0  0  0  0  0  0  0  0  0  0  0
  180.6930  182.5750  137.9240 C   0  0  0  0  0  3  0  0  0  0  0  0
  187.2280  175.0290  135.1030 C   0  0  0  0  0  1  0  0  0  0  0  0
  185.9170  174.5320  135.6910 C   0  0  2  0  0  3  0  0  0  0  0  0
  184.5460  172.6080  134.7790 C   0  0  0  0  0  1  0  0  0  0  0  0
  184.9690  174.0580  134.5940 C   0  0  0  0  0  2  0  0  0  0  0  0
  1 12  1  0  0  0  0
  1 22  1  0  0  0  0
  1 20  1  0  0  0  0
  2  7  1  0  0  0  0
  2 18  1  0  0  0  0
  4 20  1  0  0  0  0
  4  9  2  0  0  0  0
  5  2  2  0  0  0  0
  6 24  2  0  0  0  0
  6 16  1  0  0  0  0
  7  4  1  0  0  0  0
  8  3  1  1  0  0  0
  8 21  1  0  0  0  0
  8  5  1  0  0  0  0
 10  6  1  0  0  0  0
 11 15  1  0  0  0  0
 11  7  2  0  0  0  0
 13 18  1  0  0  0  0
 14  9  1  0  0  0  0
 15  1  1  0  0  0  0
 16 17  1  0  0  0  0
 17  3  1  0  0  0  0
 18 14  2  0  0  0  0
 19  5  1  0  0  0  0
 19 11  1  0  0  0  0
 21 28  1  6  0  0  0
 21 26  1  0  0  0  0
 23 16  1  0  0  0  0
 23 25  1  0  0  0  0
 25 19  1  0  0  0  0
 26 13  1  0  0  0  0
 28 27  1  0  0  0  0
 29 28  2  0  0  0  0
 30 32  1  0  0  0  0
 31 33  1  0  0  0  0
 32 31  2  0  0  0  0
 32 29  1  0  0  0  0
 33 27  2  0  0  0  0
 35 34  1  6  0  0  0
 35 10  1  0  0  0  0
 37 36  1  0  0  0  0
 37 35  1  0  0  0  0
M  END
>  <MODEL>
2

>  <REMARK>
 VINA RESULT:      -7.4      0.799      1.365
  Name = 
  3 active torsions:
  status: ('A' for Active; 'I' for Inactive)
    1  A    between atoms: C_4  and  N_12
    2  A    between atoms: C_4  and  C_37
    3  A    between atoms: C_23  and  C_30
                            x       y       z     vdW  Elec       q    Type
                         _______ _______ _______ _____ _____    ______ ____

>  <TORSDO>
F 3

$$$$
=
 OpenBabel11122411373D

 37 42  0  0  1  0  0  0  0  0999 V2000
  184.8560  178.8040  143.9490 C   0  0  0  0  0  0  0  0  0  0  0  0
  181.6290  178.7170  141.3450 C   0  0  0  0  0  0  0  0  0  0  0  0
  181.9250  176.9600  138.4820 C   0  0  0  0  0  2  0  0  0  0  0  0
  182.3230  178.8150  143.6520 C   0  0  0  0  0  0  0  0  0  0  0  0
  182.2840  178.8500  140.1280 C   0  0  0  0  0  0  0  0  0  0  0  0
  185.4280  176.4030  137.4660 C   0  0  0  0  0  0  0  0  0  0  0  0
  182.5600  178.9410  142.3030 C   0  0  0  0  0  0  0  0  0  0  0  0
  181.7180  178.4450  138.7910 C   0  0  2  0  0  3  0  0  0  0  0  0
  181.0150  178.4790  144.0490 C   0  0  0  0  0  3  0  0  0  0  0  0
  186.4920  177.0650  136.7740 N   0  0  0  0  0  2  0  0  0  0  0  0
  183.7550  179.1590  141.7100 C   0  0  0  0  0  0  0  0  0  0  0  0
  185.1030  177.3050  143.9060 C   0  0  0  0  0  1  0  0  0  0  0  0
  179.2910  178.1010  140.6400 C   0  0  0  0  0  2  0  0  0  0  0  0
  180.0160  178.2500  143.0630 C   0  0  0  0  0  3  0  0  0  0  0  0
  185.0030  179.3850  142.5140 C   0  0  0  0  0  2  0  0  0  0  0  0
  184.3800  177.1700  138.0760 N   0  0  0  0  0  0  0  0  0  0  0  0
  183.3360  176.4770  138.8370 C   0  0  0  0  0  2  0  0  0  0  0  0
  180.3230  178.3640  141.6860 C   0  0  0  0  0  0  0  0  0  0  0  0
  183.6130  179.0900  140.3650 N   0  0  0  0  0  0  0  0  0  0  0  0
  183.4660  179.0740  144.6000 C   0  0  0  0  0  2  0  0  0  0  0  0
  180.2910  178.9120  138.4400 C   0  0  1  0  0  3  0  0  0  0  0  0
  185.9210  179.4280  144.8250 C   0  0  0  0  0  1  0  0  0  0  0  0
  184.4480  178.6320  138.0340 C   0  0  0  0  0  2  0  0  0  0  0  0
  185.4110  175.1430  137.5340 O   0  0  0  0  0  0  0  0  0  0  0  0
  184.7220  179.2400  139.4110 C   0  0  0  0  0  2  0  0  0  0  0  0
  179.3230  179.2090  139.5950 C   0  0  0  0  0  2  0  0  0  0  0  0
  179.9770  179.8700  136.1530 C   0  0  0  0  0  3  0  0  0  0  0  0
  180.3410  180.0650  137.4900 C   0  0  0  0  0  0  0  0  0  0  0  0
  180.7560  181.3360  137.9180 C   0  0  0  0  0  3  0  0  0  0  0  0
  181.2470  183.7420  137.4700 C   0  0  0  0  0  1  0  0  0  0  0  0
  180.4400  182.1990  135.6790 C   0  0  0  0  0  3  0  0  0  0  0  0
  180.8050  182.3990  137.0130 C   0  0  0  0  0  0  0  0  0  0  0  0
  180.0260  180.9350  135.2490 C   0  0  0  0  0  3  0  0  0  0  0  0
  188.7320  176.1570  137.1640 C   0  0  0  0  0  1  0  0  0  0  0  0
  187.6040  176.3490  136.1620 C   0  0  2  0  0  3  0  0  0  0  0  0
  189.5490  176.7690  134.5960 C   0  0  0  0  0  1  0  0  0  0  0  0
  188.0960  177.0840  134.9180 C   0  0  0  0  0  2  0  0  0  0  0  0
  1 20  1  0  0  0  0
  1 22  1  0  0  0  0
  2 18  1  0  0  0  0
  2  7  1  0  0  0  0
  3 17  1  0  0  0  0
  4  9  2  0  0  0  0
  4 20  1  0  0  0  0
  5 19  1  0  0  0  0
  5  2  2  0  0  0  0
  6 24  2  0  0  0  0
  6 16  1  0  0  0  0
  7  4  1  0  0  0  0
  8  3  1  1  0  0  0
  8  5  1  0  0  0  0
 10  6  1  0  0  0  0
 11  7  2  0  0  0  0
 11 15  1  0  0  0  0
 12  1  1  0  0  0  0
 13 18  1  0  0  0  0
 14  9  1  0  0  0  0
 15  1  1  0  0  0  0
 16 17  1  0  0  0  0
 18 14  2  0  0  0  0
 19 11  1  0  0  0  0
 21 28  1  1  0  0  0
 21  8  1  0  0  0  0
 21 26  1  0  0  0  0
 23 16  1  0  0  0  0
 23 25  1  0  0  0  0
 25 19  1  0  0  0  0
 26 13  1  0  0  0  0
 27 28  1  0  0  0  0
 28 29  2  0  0  0  0
 31 32  2  0  0  0  0
 32 30  1  0  0  0  0
 32 29  1  0  0  0  0
 33 31  1  0  0  0  0
 33 27  2  0  0  0  0
 35 10  1  0  0  0  0
 35 34  1  1  0  0  0
 36 37  1  0  0  0  0
 37 35  1  0  0  0  0
M  END
>  <MODEL>
3

>  <REMARK>
 VINA RESULT:      -6.0      1.876      2.625
  Name = 
  3 active torsions:
  status: ('A' for Active; 'I' for Inactive)
    1  A    between atoms: C_4  and  N_12
    2  A    between atoms: C_4  and  C_37
    3  A    between atoms: C_23  and  C_30
                            x       y       z     vdW  Elec       q    Type
                         _______ _______ _______ _____ _____    ______ ____

>  <TORSDO>
F 3

$$$$
=
 OpenBabel11122411373D

 37 42  0  0  1  0  0  0  0  0999 V2000
  187.2890  177.8880  136.6820 C   0  0  0  0  0  0  0  0  0  0  0  0
  183.8270  175.6050  136.7680 C   0  0  0  0  0  0  0  0  0  0  0  0
  180.9050  177.0930  135.9840 C   0  0  0  0  0  2  0  0  0  0  0  0
  186.1980  175.6110  136.3250 C   0  0  0  0  0  0  0  0  0  0  0  0
  182.9480  176.5030  137.3570 C   0  0  0  0  0  0  0  0  0  0  0  0
  180.9830  180.7620  136.3750 C   0  0  0  0  0  0  0  0  0  0  0  0
  185.0600  176.1580  136.8710 C   0  0  0  0  0  0  0  0  0  0  0  0
  181.4450  176.4370  137.2560 C   0  0  2  0  0  3  0  0  0  0  0  0
  186.0660  174.3760  135.6610 C   0  0  0  0  0  3  0  0  0  0  0  0
  180.8350  181.7640  137.3860 N   0  0  0  0  0  2  0  0  0  0  0  0
  184.9480  177.3700  137.4600 C   0  0  0  0  0  0  0  0  0  0  0  0
  187.0030  178.5140  135.3270 C   0  0  0  0  0  1  0  0  0  0  0  0
  182.2860  173.7790  135.9720 C   0  0  0  0  0  2  0  0  0  0  0  0
  184.7850  173.7690  135.5500 C   0  0  0  0  0  3  0  0  0  0  0  0
  186.1420  178.2570  137.6650 C   0  0  0  0  0  2  0  0  0  0  0  0
  181.3720  179.4280  136.7350 N   0  0  0  0  0  0  0  0  0  0  0  0
  181.5830  178.4340  135.6800 C   0  0  0  0  0  2  0  0  0  0  0  0
  183.6410  174.3910  136.1050 C   0  0  0  0  0  0  0  0  0  0  0  0
  183.6490  177.6130  137.7530 N   0  0  0  0  0  0  0  0  0  0  0  0
  187.4960  176.3540  136.5030 C   0  0  0  0  0  2  0  0  0  0  0  0
  180.7610  175.0850  137.5430 C   0  0  1  0  0  3  0  0  0  0  0  0
  188.5760  178.4830  137.2100 C   0  0  0  0  0  1  0  0  0  0  0  0
  181.6730  179.1270  138.1370 C   0  0  0  0  0  2  0  0  0  0  0  0
  180.7650  181.0510  135.1660 O   0  0  0  0  0  0  0  0  0  0  0  0
  183.1630  178.8590  138.3640 C   0  0  0  0  0  2  0  0  0  0  0  0
  181.5760  173.8020  137.3190 C   0  0  0  0  0  2  0  0  0  0  0  0
  179.6530  173.8940  139.4390 C   0  0  0  0  0  3  0  0  0  0  0  0
  180.1550  175.0880  138.9080 C   0  0  0  0  0  0  0  0  0  0  0  0
  180.0740  176.2700  139.6600 C   0  0  0  0  0  3  0  0  0  0  0  0
  179.4080  177.5090  141.7230 C   0  0  0  0  0  1  0  0  0  0  0  0
  178.9940  175.0610  141.4560 C   0  0  0  0  0  3  0  0  0  0  0  0
  179.4940  176.2550  140.9310 C   0  0  0  0  0  0  0  0  0  0  0  0
  179.0730  173.8810  140.7110 C   0  0  0  0  0  3  0  0  0  0  0  0
  181.6650  184.0650  137.3070 C   0  0  0  0  0  1  0  0  0  0  0  0
  180.4760  183.1440  137.0850 C   0  0  2  0  0  3  0  0  0  0  0  0
  179.2870  185.0770  138.2090 C   0  0  0  0  0  1  0  0  0  0  0  0
  179.2790  183.5820  137.9240 C   0  0  0  0  0  2  0  0  0  0  0  0
  1 22  1  0  0  0  0
  1 15  1  0  0  0  0
  2  7  1  0  0  0  0
  2  5  2  0  0  0  0
  4 20  1  0  0  0  0
  4  7  1  0  0  0  0
  5 19  1  0  0  0  0
  6 16  1  0  0  0  0
  6 10  1  0  0  0  0
  7 11  2  0  0  0  0
  8  3  1  6  0  0  0
  8  5  1  0  0  0  0
  8 21  1  0  0  0  0
  9  4  2  0  0  0  0
 11 15  1  0  0  0  0
 11 19  1  0  0  0  0
 12  1  1  0  0  0  0
 13 18  1  0  0  0  0
 13 26  1  0  0  0  0
 14  9  1  0  0  0  0
 14 18  2  0  0  0  0
 16 23  1  0  0  0  0
 17  3  1  0  0  0  0
 17 16  1  0  0  0  0
 18  2  1  0  0  0  0
 19 25  1  0  0  0  0
 20  1  1  0  0  0  0
 21 28  1  1  0  0  0
 23 25  1  0  0  0  0
 24  6  2  0  0  0  0
 26 21  1  0  0  0  0
 27 33  1  0  0  0  0
 28 27  2  0  0  0  0
 28 29  1  0  0  0  0
 29 32  2  0  0  0  0
 32 31  1  0  0  0  0
 32 30  1  0  0  0  0
 33 31  2  0  0  0  0
 35 34  1  1  0  0  0
 35 10  1  0  0  0  0
 35 37  1  0  0  0  0
 37 36  1  0  0  0  0
M  END
>  <MODEL>
4

>  <REMARK>
 VINA RESULT:      -5.9      3.563      7.303
  Name = 
  3 active torsions:
  status: ('A' for Active; 'I' for Inactive)
    1  A    between atoms: C_4  and  N_12
    2  A    between atoms: C_4  and  C_37
    3  A    between atoms: C_23  and  C_30
                            x       y       z     vdW  Elec       q    Type
                         _______ _______ _______ _____ _____    ______ ____

>  <TORSDO>
F 3

$$$$
=
 OpenBabel11122411373D

 37 42  0  0  1  0  0  0  0  0999 V2000
  183.1370  171.2250  135.9990 C   0  0  0  0  0  0  0  0  0  0  0  0
  180.9800  174.6670  136.8380 C   0  0  0  0  0  0  0  0  0  0  0  0
  182.3780  177.6500  136.1210 C   0  0  0  0  0  2  0  0  0  0  0  0
  180.8570  172.3580  136.1550 C   0  0  0  0  0  0  0  0  0  0  0  0
  181.9850  175.4740  137.3530 C   0  0  0  0  0  0  0  0  0  0  0  0
  186.0570  177.5170  135.8650 C   0  0  0  0  0  0  0  0  0  0  0  0
  181.5150  173.4280  136.7150 C   0  0  0  0  0  0  0  0  0  0  0  0
  181.9360  176.9800  137.4230 C   0  0  2  0  0  3  0  0  0  0  0  0
  179.5310  172.5650  135.7310 C   0  0  0  0  0  3  0  0  0  0  0  0
  187.2190  177.5510  136.6980 N   0  0  0  0  0  2  0  0  0  0  0  0
  182.8120  173.4710  137.0950 C   0  0  0  0  0  0  0  0  0  0  0  0
  183.5290  171.6520  134.5940 C   0  0  0  0  0  1  0  0  0  0  0  0
  179.0800  176.2910  136.5330 C   0  0  0  0  0  2  0  0  0  0  0  0
  178.9430  173.8530  135.8600 C   0  0  0  0  0  3  0  0  0  0  0  0
  183.6940  172.2580  137.0180 C   0  0  0  0  0  2  0  0  0  0  0  0
  184.7960  177.0960  136.4060 N   0  0  0  0  0  0  0  0  0  0  0  0
  183.6310  177.0030  135.5210 C   0  0  0  0  0  2  0  0  0  0  0  0
  179.6750  174.9270  136.4160 C   0  0  0  0  0  0  0  0  0  0  0  0
  183.1300  174.7310  137.4760 N   0  0  0  0  0  0  0  0  0  0  0  0
  181.5910  171.0440  136.0650 C   0  0  0  0  0  2  0  0  0  0  0  0
  180.6680  177.6340  138.0070 C   0  0  1  0  0  3  0  0  0  0  0  0
  183.7850  169.8870  136.2780 C   0  0  0  0  0  1  0  0  0  0  0  0
  184.7310  176.6480  137.7990 C   0  0  0  0  0  2  0  0  0  0  0  0
  186.1400  177.8610  134.6540 O   0  0  0  0  0  0  0  0  0  0  0  0
  184.4720  175.1440  137.9120 C   0  0  0  0  0  2  0  0  0  0  0  0
  179.3480  176.8530  137.9230 C   0  0  0  0  0  2  0  0  0  0  0  0
  179.8390  178.5080  140.1960 C   0  0  0  0  0  3  0  0  0  0  0  0
  180.9180  178.0910  139.4080 C   0  0  0  0  0  0  0  0  0  0  0  0
  182.2160  178.1160  139.9390 C   0  0  0  0  0  3  0  0  0  0  0  0
  183.8070  178.5830  141.8060 C   0  0  0  0  0  1  0  0  0  0  0  0
  181.3500  178.9720  142.0310 C   0  0  0  0  0  3  0  0  0  0  0  0
  182.4300  178.5560  141.2480 C   0  0  0  0  0  0  0  0  0  0  0  0
  180.0550  178.9480  141.5060 C   0  0  0  0  0  3  0  0  0  0  0  0
  189.4170  176.7080  136.0230 C   0  0  0  0  0  1  0  0  0  0  0  0
  188.5350  177.9350  136.2040 C   0  0  2  0  0  3  0  0  0  0  0  0
  189.0770  178.5340  138.6050 C   0  0  0  0  0  1  0  0  0  0  0  0
  189.1890  178.9450  137.1440 C   0  0  0  0  0  2  0  0  0  0  0  0
  1 20  1  0  0  0  0
  1 22  1  0  0  0  0
  1 15  1  0  0  0  0
  2  5  2  0  0  0  0
  4  7  1  0  0  0  0
  5  8  1  0  0  0  0
  5 19  1  0  0  0  0
  6 16  1  0  0  0  0
  6 10  1  0  0  0  0
  7  2  1  0  0  0  0
  7 11  2  0  0  0  0
  8  3  1  6  0  0  0
  8 21  1  0  0  0  0
  9 14  1  0  0  0  0
  9  4  2  0  0  0  0
 11 19  1  0  0  0  0
 12  1  1  0  0  0  0
 13 26  1  0  0  0  0
 14 18  2  0  0  0  0
 15 11  1  0  0  0  0
 16 23  1  0  0  0  0
 17  3  1  0  0  0  0
 17 16  1  0  0  0  0
 18 13  1  0  0  0  0
 18  2  1  0  0  0  0
 19 25  1  0  0  0  0
 20  4  1  0  0  0  0
 21 28  1  1  0  0  0
 23 25  1  0  0  0  0
 24  6  2  0  0  0  0
 26 21  1  0  0  0  0
 27 33  1  0  0  0  0
 28 29  1  0  0  0  0
 28 27  2  0  0  0  0
 29 32  2  0  0  0  0
 32 30  1  0  0  0  0
 32 31  1  0  0  0  0
 33 31  2  0  0  0  0
 35 34  1  1  0  0  0
 35 10  1  0  0  0  0
 35 37  1  0  0  0  0
 37 36  1  0  0  0  0
M  END
>  <MODEL>
5

>  <REMARK>
 VINA RESULT:      -5.8      2.936      7.037
  Name = 
  3 active torsions:
  status: ('A' for Active; 'I' for Inactive)
    1  A    between atoms: C_4  and  N_12
    2  A    between atoms: C_4  and  C_37
    3  A    between atoms: C_23  and  C_30
                            x       y       z     vdW  Elec       q    Type
                         _______ _______ _______ _____ _____    ______ ____

>  <TORSDO>
F 3

$$$$
=
 OpenBabel11122411373D

 37 42  0  0  1  0  0  0  0  0999 V2000
  180.6610  182.7750  137.4440 C   0  0  0  0  0  0  0  0  0  0  0  0
  180.7980  178.6480  137.0470 C   0  0  0  0  0  0  0  0  0  0  0  0
  181.0990  176.7780  139.8360 C   0  0  0  0  0  2  0  0  0  0  0  0
  179.8950  180.7040  136.1670 C   0  0  0  0  0  0  0  0  0  0  0  0
  181.7890  178.3400  137.9680 C   0  0  0  0  0  0  0  0  0  0  0  0
  182.5070  178.6360  142.6970 C   0  0  0  0  0  0  0  0  0  0  0  0
  180.7990  179.9970  136.9270 C   0  0  0  0  0  0  0  0  0  0  0  0
  181.9870  176.9890  138.6090 C   0  0  2  0  0  3  0  0  0  0  0  0
  178.9460  179.9630  135.4380 C   0  0  0  0  0  3  0  0  0  0  0  0
  183.7720  179.0350  143.2330 N   0  0  0  0  0  2  0  0  0  0  0  0
  181.7220  180.5120  137.7700 C   0  0  0  0  0  0  0  0  0  0  0  0
  179.6340  182.7670  138.5650 C   0  0  0  0  0  1  0  0  0  0  0  0
  179.8450  176.3840  136.4950 C   0  0  0  0  0  2  0  0  0  0  0  0
  178.9310  178.5450  135.5390 C   0  0  0  0  0  3  0  0  0  0  0  0
  181.9240  181.9940  137.9070 C   0  0  0  0  0  2  0  0  0  0  0  0
  182.3780  178.3480  141.2970 N   0  0  0  0  0  0  0  0  0  0  0  0
  181.0610  178.0050  140.7540 C   0  0  0  0  0  2  0  0  0  0  0  0
  179.8650  177.8700  136.3590 C   0  0  0  0  0  0  0  0  0  0  0  0
  182.3350  179.5060  138.4380 N   0  0  0  0  0  0  0  0  0  0  0  0
  180.0080  182.2070  136.1480 C   0  0  0  0  0  2  0  0  0  0  0  0
  182.0050  175.7510  137.6900 C   0  0  1  0  0  3  0  0  0  0  0  0
  181.0600  184.2110  137.1860 C   0  0  0  0  0  1  0  0  0  0  0  0
  183.5390  178.5270  140.4210 C   0  0  0  0  0  2  0  0  0  0  0  0
  181.5060  178.5320  143.4570 O   0  0  0  0  0  0  0  0  0  0  0  0
  183.3670  179.7100  139.4660 C   0  0  0  0  0  2  0  0  0  0  0  0
  181.2570  175.8330  136.3510 C   0  0  0  0  0  2  0  0  0  0  0  0
  183.6980  173.9160  137.5780 C   0  0  0  0  0  3  0  0  0  0  0  0
  183.4080  175.2820  137.4780 C   0  0  0  0  0  0  0  0  0  0  0  0
  184.4370  176.1910  137.1900 C   0  0  0  0  0  3  0  0  0  0  0  0
  186.8330  176.7000  136.7020 C   0  0  0  0  0  1  0  0  0  0  0  0
  186.0290  174.3700  137.1050 C   0  0  0  0  0  3  0  0  0  0  0  0
  185.7450  175.7340  137.0050 C   0  0  0  0  0  0  0  0  0  0  0  0
  185.0070  173.4610  137.3910 C   0  0  0  0  0  3  0  0  0  0  0  0
  184.9760  180.5010  144.7810 C   0  0  0  0  0  1  0  0  0  0  0  0
  183.9640  179.3750  144.6370 C   0  0  2  0  0  3  0  0  0  0  0  0
  185.3770  178.4900  146.5440 C   0  0  0  0  0  1  0  0  0  0  0  0
  184.3950  178.1460  145.4330 C   0  0  0  0  0  2  0  0  0  0  0  0
  1 15  1  0  0  0  0
  1 12  1  0  0  0  0
  2  5  2  0  0  0  0
  3 17  1  0  0  0  0
  4  7  1  0  0  0  0
  5 19  1  0  0  0  0
  5  8  1  0  0  0  0
  6 10  1  0  0  0  0
  6 24  2  0  0  0  0
  7  2  1  0  0  0  0
  7 11  2  0  0  0  0
  8  3  1  1  0  0  0
  9 14  1  0  0  0  0
  9  4  2  0  0  0  0
 10 35  1  0  0  0  0
 11 15  1  0  0  0  0
 11 19  1  0  0  0  0
 14 18  2  0  0  0  0
 16  6  1  0  0  0  0
 17 16  1  0  0  0  0
 18 13  1  0  0  0  0
 18  2  1  0  0  0  0
 19 25  1  0  0  0  0
 20  4  1  0  0  0  0
 20  1  1  0  0  0  0
 21 28  1  6  0  0  0
 21  8  1  0  0  0  0
 22  1  1  0  0  0  0
 23 16  1  0  0  0  0
 25 23  1  0  0  0  0
 26 13  1  0  0  0  0
 26 21  1  0  0  0  0
 28 27  1  0  0  0  0
 29 28  2  0  0  0  0
 30 32  1  0  0  0  0
 31 33  1  0  0  0  0
 32 31  2  0  0  0  0
 32 29  1  0  0  0  0
 33 27  2  0  0  0  0
 35 34  1  6  0  0  0
 35 37  1  0  0  0  0
 37 36  1  0  0  0  0
M  END
>  <MODEL>
6

>  <REMARK>
 VINA RESULT:      -5.8      2.540      8.009
  Name = 
  3 active torsions:
  status: ('A' for Active; 'I' for Inactive)
    1  A    between atoms: C_4  and  N_12
    2  A    between atoms: C_4  and  C_37
    3  A    between atoms: C_23  and  C_30
                            x       y       z     vdW  Elec       q    Type
                         _______ _______ _______ _____ _____    ______ ____

>  <TORSDO>
F 3

$$$$
