=
 OpenBabel11122410283D

 30 35  0  0  1  0  0  0  0  0999 V2000
  186.9050  178.3790  141.0570 C   0  0  0  0  0  0  0  0  0  0  0  0
  184.5520  178.8620  140.3610 C   0  0  0  0  0  0  0  0  0  0  0  0
  185.7680  177.9670  144.9900 N   0  0  0  0  0  2  0  0  0  0  0  0
  187.8420  178.0330  142.0800 C   0  0  0  0  0  0  0  0  0  0  0  0
  187.3580  178.5310  139.7860 N   0  0  0  0  0  0  0  0  0  0  0  0
  190.7580  177.6780  140.1060 O   0  0  0  0  0  0  0  0  0  0  0  0
  190.4160  178.0500  143.8070 C   0  0  1  0  0  3  0  0  0  0  0  0
  189.5570  177.9080  140.4270 C   0  0  0  0  0  0  0  0  0  0  0  0
  189.4160  178.0200  144.9470 C   0  0  2  0  0  3  0  0  0  0  0  0
  187.0040  177.8150  145.5080 C   0  0  0  0  0  0  0  0  0  0  0  0
  188.6510  178.3280  139.4500 C   0  0  0  0  0  0  0  0  0  0  0  0
  189.1370  177.7330  141.7200 N   0  0  0  0  0  0  0  0  0  0  0  0
  183.2030  178.9900  140.7080 C   0  0  0  0  0  3  0  0  0  0  0  0
  189.9370  176.9820  145.9200 C   0  0  0  0  0  2  0  0  0  0  0  0
  191.7430  177.6370  144.4230 C   0  0  0  0  0  2  0  0  0  0  0  0
  184.9030  179.0610  139.0310 O   0  0  0  0  0  1  0  0  0  0  0  0
  186.0090  178.0680  143.6730 C   0  0  0  0  0  0  0  0  0  0  0  0
  182.7860  178.8050  142.0240 C   0  0  0  0  0  3  0  0  0  0  0  0
  185.5180  178.5390  141.3520 C   0  0  0  0  0  0  0  0  0  0  0  0
  187.3520  177.9530  143.4070 C   0  0  0  0  0  0  0  0  0  0  0  0
  187.2050  177.7470  146.7510 O   0  0  0  0  0  0  0  0  0  0  0  0
  188.0050  177.8000  144.5890 N   0  0  0  0  0  0  0  0  0  0  0  0
  191.4440  177.0560  145.7970 C   0  0  0  0  0  2  0  0  0  0  0  0
  189.6880  175.6940  143.0190 C   0  0  0  0  0  1  0  0  0  0  0  0
  183.7160  178.4900  143.0120 C   0  0  0  0  0  3  0  0  0  0  0  0
  185.0700  178.3530  142.6870 C   0  0  0  0  0  0  0  0  0  0  0  0
  190.0860  177.1210  142.6480 C   0  0  2  0  0  3  0  0  0  0  0  0
  189.0800  178.5490  138.0370 C   0  0  0  0  0  2  0  0  0  0  0  0
  187.7720  178.0290  136.1830 C   0  0  0  0  0  1  0  0  0  0  0  0
  187.9490  178.9990  137.2460 N   0  0  0  0  0  2  0  0  0  0  0  0
  1 19  2  0  0  0  0
  1  4  1  0  0  0  0
  2 13  2  0  0  0  0
  2 19  1  0  0  0  0
  3 10  1  0  0  0  0
  4 20  2  0  0  0  0
  5  1  1  0  0  0  0
  6  8  2  0  0  0  0
  7 15  1  1  0  0  0
  7  9  1  0  0  0  0
  8 12  1  0  0  0  0
  9 14  1  1  0  0  0
 10 21  2  0  0  0  0
 11  5  2  0  0  0  0
 11  8  1  0  0  0  0
 12  4  1  0  0  0  0
 12 27  1  0  0  0  0
 13 18  1  0  0  0  0
 15 23  1  0  0  0  0
 16  2  1  0  0  0  0
 17  3  1  0  0  0  0
 18 25  2  0  0  0  0
 19 26  1  0  0  0  0
 20 17  1  0  0  0  0
 20 22  1  0  0  0  0
 22  9  1  0  0  0  0
 22 10  1  0  0  0  0
 23 14  1  0  0  0  0
 26 25  1  0  0  0  0
 26 17  2  0  0  0  0
 27 24  1  1  0  0  0
 27  7  1  0  0  0  0
 28 11  1  0  0  0  0
 29 30  1  0  0  0  0
 30 28  1  0  0  0  0
M  END
>  <MODEL>
1

>  <REMARK>
 VINA RESULT:     -10.7      0.000      0.000
  Name = 
  2 active torsions:
  status: ('A' for Active; 'I' for Inactive)
    1  A    between atoms: C_11  and  C_28
    2  A    between atoms: C_28  and  N_30
                            x       y       z     vdW  Elec       q    Type
                         _______ _______ _______ _____ _____    ______ ____

>  <TORSDO>
F 2

$$$$
=
 OpenBabel11122410283D

 30 35  0  0  1  0  0  0  0  0999 V2000
  188.9590  177.4380  143.4080 C   0  0  0  0  0  0  0  0  0  0  0  0
  191.0440  176.7440  144.6030 C   0  0  0  0  0  0  0  0  0  0  0  0
  186.9220  177.8130  146.9640 N   0  0  0  0  0  2  0  0  0  0  0  0
  187.6000  177.8790  143.4550 C   0  0  0  0  0  0  0  0  0  0  0  0
  189.5580  177.3050  142.1970 N   0  0  0  0  0  0  0  0  0  0  0  0
  187.0530  178.4510  140.0060 O   0  0  0  0  0  0  0  0  0  0  0  0
  184.5820  178.1090  142.7860 C   0  0  1  0  0  3  0  0  0  0  0  0
  187.6280  178.1250  141.0830 C   0  0  0  0  0  0  0  0  0  0  0  0
  184.4450  178.0720  144.2970 C   0  0  2  0  0  3  0  0  0  0  0  0
  185.7090  178.0790  146.4370 C   0  0  0  0  0  0  0  0  0  0  0  0
  188.9280  177.6130  141.0420 C   0  0  0  0  0  0  0  0  0  0  0  0
  186.9920  178.2830  142.2870 N   0  0  0  0  0  0  0  0  0  0  0  0
  191.7090  176.5070  145.8100 C   0  0  0  0  0  3  0  0  0  0  0  0
  183.4560  179.1650  144.6450 C   0  0  0  0  0  2  0  0  0  0  0  0
  183.2540  178.6440  142.2740 C   0  0  0  0  0  2  0  0  0  0  0  0
  191.7520  176.5550  143.4220 O   0  0  0  0  0  1  0  0  0  0  0  0
  187.7030  177.7120  145.8760 C   0  0  0  0  0  0  0  0  0  0  0  0
  191.0560  176.6770  147.0290 C   0  0  0  0  0  3  0  0  0  0  0  0
  189.6870  177.1640  144.6060 C   0  0  0  0  0  0  0  0  0  0  0  0
  186.9810  177.9370  144.7280 C   0  0  0  0  0  0  0  0  0  0  0  0
  184.6760  178.1830  147.1520 O   0  0  0  0  0  0  0  0  0  0  0  0
  185.6880  178.1650  145.0800 N   0  0  0  0  0  0  0  0  0  0  0  0
  182.5060  179.2190  143.4680 C   0  0  0  0  0  2  0  0  0  0  0  0
  185.8180  180.3820  142.8890 C   0  0  0  0  0  1  0  0  0  0  0  0
  189.7250  177.0850  147.0550 C   0  0  0  0  0  3  0  0  0  0  0  0
  189.0400  177.3320  145.8590 C   0  0  0  0  0  0  0  0  0  0  0  0
  185.7130  178.9890  142.2730 C   0  0  2  0  0  3  0  0  0  0  0  0
  189.6400  177.4070  139.7460 C   0  0  0  0  0  2  0  0  0  0  0  0
  191.4050  176.3220  138.6840 C   0  0  0  0  0  1  0  0  0  0  0  0
  190.5700  176.2990  139.8690 N   0  0  0  0  0  2  0  0  0  0  0  0
  1  4  2  0  0  0  0
  1 19  1  0  0  0  0
  2 19  2  0  0  0  0
  2 13  1  0  0  0  0
  4 20  1  0  0  0  0
  5  1  1  0  0  0  0
  6  8  2  0  0  0  0
  7 15  1  6  0  0  0
  7  9  1  0  0  0  0
  8 12  1  0  0  0  0
  9 14  1  1  0  0  0
  9 22  1  0  0  0  0
 10  3  1  0  0  0  0
 10 21  2  0  0  0  0
 11  8  1  0  0  0  0
 11  5  2  0  0  0  0
 12  4  1  0  0  0  0
 13 18  2  0  0  0  0
 15 23  1  0  0  0  0
 16  2  1  0  0  0  0
 17  3  1  0  0  0  0
 18 25  1  0  0  0  0
 19 26  1  0  0  0  0
 20 22  1  0  0  0  0
 20 17  2  0  0  0  0
 22 10  1  0  0  0  0
 23 14  1  0  0  0  0
 26 17  1  0  0  0  0
 26 25  2  0  0  0  0
 27 12  1  0  0  0  0
 27  7  1  0  0  0  0
 27 24  1  1  0  0  0
 28 30  1  0  0  0  0
 28 11  1  0  0  0  0
 29 30  1  0  0  0  0
M  END
>  <MODEL>
2

>  <REMARK>
 VINA RESULT:     -10.2      1.908      5.527
  Name = 
  2 active torsions:
  status: ('A' for Active; 'I' for Inactive)
    1  A    between atoms: C_11  and  C_28
    2  A    between atoms: C_28  and  N_30
                            x       y       z     vdW  Elec       q    Type
                         _______ _______ _______ _____ _____    ______ ____

>  <TORSDO>
F 2

$$$$
=
 OpenBabel11122410283D

 30 35  0  0  1  0  0  0  0  0999 V2000
  186.7420  177.9070  144.8620 C   0  0  0  0  0  0  0  0  0  0  0  0
  184.3690  178.4900  145.3970 C   0  0  0  0  0  0  0  0  0  0  0  0
  186.1760  178.8060  140.8870 N   0  0  0  0  0  2  0  0  0  0  0  0
  187.8050  177.8200  143.9120 C   0  0  0  0  0  0  0  0  0  0  0  0
  186.9920  177.5630  146.1510 N   0  0  0  0  0  0  0  0  0  0  0  0
  190.4390  176.8530  146.0690 O   0  0  0  0  0  0  0  0  0  0  0  0
  190.2320  176.6980  142.3430 C   0  0  1  0  0  3  0  0  0  0  0  0
  189.2840  177.1720  145.6680 C   0  0  0  0  0  0  0  0  0  0  0  0
  189.4270  177.1700  141.1460 C   0  0  2  0  0  3  0  0  0  0  0  0
  187.3890  178.4090  140.4500 C   0  0  0  0  0  0  0  0  0  0  0  0
  188.2180  177.1800  146.5720 C   0  0  0  0  0  0  0  0  0  0  0  0
  189.0740  177.5230  144.3590 N   0  0  0  0  0  0  0  0  0  0  0  0
  183.1270  178.9660  144.9650 C   0  0  0  0  0  3  0  0  0  0  0  0
  190.4140  177.8860  140.2470 C   0  0  0  0  0  2  0  0  0  0  0  0
  191.6470  176.4970  141.8240 C   0  0  0  0  0  2  0  0  0  0  0  0
  184.5040  178.1470  146.7370 O   0  0  0  0  0  1  0  0  0  0  0  0
  186.2560  178.5990  142.2120 C   0  0  0  0  0  0  0  0  0  0  0  0
  182.9250  179.3250  143.6340 C   0  0  0  0  0  3  0  0  0  0  0  0
  185.4470  178.3690  144.4790 C   0  0  0  0  0  0  0  0  0  0  0  0
  187.4940  178.1150  142.5610 C   0  0  0  0  0  0  0  0  0  0  0  0
  187.6880  178.3930  139.2250 O   0  0  0  0  0  0  0  0  0  0  0  0
  188.2310  177.9800  141.4270 N   0  0  0  0  0  0  0  0  0  0  0  0
  191.7270  177.1630  140.4570 C   0  0  0  0  0  2  0  0  0  0  0  0
  190.5440  179.1300  143.1750 C   0  0  0  0  0  1  0  0  0  0  0  0
  183.9670  179.2120  142.7160 C   0  0  0  0  0  3  0  0  0  0  0  0
  185.2200  178.7430  143.1270 C   0  0  0  0  0  0  0  0  0  0  0  0
  190.2570  177.6690  143.5150 C   0  0  2  0  0  3  0  0  0  0  0  0
  188.4080  176.7810  147.9990 C   0  0  0  0  0  2  0  0  0  0  0  0
  189.4200  178.6850  148.8780 C   0  0  0  0  0  1  0  0  0  0  0  0
  188.1840  177.9270  148.8610 N   0  0  0  0  0  2  0  0  0  0  0  0
  1  5  1  0  0  0  0
  2 16  1  0  0  0  0
  3 17  1  0  0  0  0
  4 12  1  0  0  0  0
  4  1  2  0  0  0  0
  5 11  2  0  0  0  0
  7 15  1  6  0  0  0
  7 27  1  0  0  0  0
  8  6  2  0  0  0  0
  8 11  1  0  0  0  0
  9 14  1  6  0  0  0
  9 22  1  0  0  0  0
  9  7  1  0  0  0  0
 10  3  1  0  0  0  0
 10 22  1  0  0  0  0
 11 28  1  0  0  0  0
 12  8  1  0  0  0  0
 13  2  1  0  0  0  0
 14 23  1  0  0  0  0
 17 20  2  0  0  0  0
 17 26  1  0  0  0  0
 18 13  2  0  0  0  0
 19  1  1  0  0  0  0
 19  2  2  0  0  0  0
 20  4  1  0  0  0  0
 21 10  2  0  0  0  0
 22 20  1  0  0  0  0
 23 15  1  0  0  0  0
 25 26  2  0  0  0  0
 25 18  1  0  0  0  0
 26 19  1  0  0  0  0
 27 24  1  6  0  0  0
 27 12  1  0  0  0  0
 28 30  1  0  0  0  0
 30 29  1  0  0  0  0
M  END
>  <MODEL>
3

>  <REMARK>
 VINA RESULT:      -9.3      1.911      5.542
  Name = 
  2 active torsions:
  status: ('A' for Active; 'I' for Inactive)
    1  A    between atoms: C_11  and  C_28
    2  A    between atoms: C_28  and  N_30
                            x       y       z     vdW  Elec       q    Type
                         _______ _______ _______ _____ _____    ______ ____

>  <TORSDO>
F 2

$$$$
=
 OpenBabel11122410283D

 30 35  0  0  1  0  0  0  0  0999 V2000
  187.7110  177.6140  142.7240 C   0  0  0  0  0  0  0  0  0  0  0  0
  186.6290  178.0580  144.9350 C   0  0  0  0  0  0  0  0  0  0  0  0
  184.5240  179.2710  140.7150 N   0  0  0  0  0  2  0  0  0  0  0  0
  187.6940  177.7250  141.2990 C   0  0  0  0  0  0  0  0  0  0  0  0
  188.7800  177.0250  143.3170 N   0  0  0  0  0  0  0  0  0  0  0  0
  190.8850  176.3790  140.5710 O   0  0  0  0  0  0  0  0  0  0  0  0
  187.9690  176.9570  138.3090 C   0  0  1  0  0  3  0  0  0  0  0  0
  189.8730  176.7590  141.2270 C   0  0  0  0  0  0  0  0  0  0  0  0
  186.6220  177.6480  138.2100 C   0  0  2  0  0  3  0  0  0  0  0  0
  184.9420  178.9800  139.4660 C   0  0  0  0  0  0  0  0  0  0  0  0
  189.8430  176.5790  142.6120 C   0  0  0  0  0  0  0  0  0  0  0  0
  188.8170  177.3580  140.5910 N   0  0  0  0  0  0  0  0  0  0  0  0
  185.5600  178.5970  145.6580 C   0  0  0  0  0  3  0  0  0  0  0  0
  186.7060  178.5360  136.9850 C   0  0  0  0  0  2  0  0  0  0  0  0
  188.4870  176.8760  136.8810 C   0  0  0  0  0  2  0  0  0  0  0  0
  187.6600  177.4600  145.6480 O   0  0  0  0  0  1  0  0  0  0  0  0
  185.5280  178.8080  141.4790 C   0  0  0  0  0  0  0  0  0  0  0  0
  184.4930  179.2090  145.0030 C   0  0  0  0  0  3  0  0  0  0  0  0
  186.6410  178.1300  143.5160 C   0  0  0  0  0  0  0  0  0  0  0  0
  186.5320  178.2780  140.7060 C   0  0  0  0  0  0  0  0  0  0  0  0
  184.2290  179.2080  138.4510 O   0  0  0  0  0  0  0  0  0  0  0  0
  186.1580  178.3750  139.4020 N   0  0  0  0  0  0  0  0  0  0  0  0
  187.6230  177.7980  136.0330 C   0  0  0  0  0  2  0  0  0  0  0  0
  189.1350  179.1810  138.9400 C   0  0  0  0  0  1  0  0  0  0  0  0
  184.4830  179.2880  143.6120 C   0  0  0  0  0  3  0  0  0  0  0  0
  185.5440  178.7600  142.8690 C   0  0  0  0  0  0  0  0  0  0  0  0
  188.9910  177.6790  139.1760 C   0  0  2  0  0  3  0  0  0  0  0  0
  190.9670  175.9100  143.3320 C   0  0  0  0  0  2  0  0  0  0  0  0
  191.6800  176.3780  145.4990 C   0  0  0  0  0  1  0  0  0  0  0  0
  191.6800  176.8830  144.1390 N   0  0  0  0  0  2  0  0  0  0  0  0
  1  5  1  0  0  0  0
  1 19  1  0  0  0  0
  2 16  1  0  0  0  0
  2 13  1  0  0  0  0
  3 17  1  0  0  0  0
  4  1  2  0  0  0  0
  6  8  2  0  0  0  0
  7 15  1  6  0  0  0
  7 27  1  0  0  0  0
  8 11  1  0  0  0  0
  9 14  1  6  0  0  0
  9  7  1  0  0  0  0
  9 22  1  0  0  0  0
 10  3  1  0  0  0  0
 11  5  2  0  0  0  0
 11 28  1  0  0  0  0
 12  8  1  0  0  0  0
 12  4  1  0  0  0  0
 17 26  1  0  0  0  0
 18 13  2  0  0  0  0
 19  2  2  0  0  0  0
 20  4  1  0  0  0  0
 20 17  2  0  0  0  0
 21 10  2  0  0  0  0
 22 10  1  0  0  0  0
 22 20  1  0  0  0  0
 23 15  1  0  0  0  0
 23 14  1  0  0  0  0
 25 18  1  0  0  0  0
 26 19  1  0  0  0  0
 26 25  2  0  0  0  0
 27 24  1  1  0  0  0
 27 12  1  0  0  0  0
 28 30  1  0  0  0  0
 30 29  1  0  0  0  0
M  END
>  <MODEL>
4

>  <REMARK>
 VINA RESULT:      -8.6      1.534      5.696
  Name = 
  2 active torsions:
  status: ('A' for Active; 'I' for Inactive)
    1  A    between atoms: C_11  and  C_28
    2  A    between atoms: C_28  and  N_30
                            x       y       z     vdW  Elec       q    Type
                         _______ _______ _______ _____ _____    ______ ____

>  <TORSDO>
F 2

$$$$
=
 OpenBabel11122410283D

 30 35  0  0  1  0  0  0  0  0999 V2000
  185.7760  178.4050  142.1910 C   0  0  0  0  0  0  0  0  0  0  0  0
  186.4880  178.3530  144.5880 C   0  0  0  0  0  0  0  0  0  0  0  0
  181.8250  178.8190  143.2660 N   0  0  0  0  0  2  0  0  0  0  0  0
  184.7400  178.5420  141.2160 C   0  0  0  0  0  0  0  0  0  0  0  0
  187.0530  178.2370  141.7630 N   0  0  0  0  0  0  0  0  0  0  0  0
  186.7020  178.4960  138.2710 O   0  0  0  0  0  0  0  0  0  0  0  0
  183.0220  178.0160  138.6900 C   0  0  1  0  0  3  0  0  0  0  0  0
  186.3890  178.4550  139.4950 C   0  0  0  0  0  0  0  0  0  0  0  0
  181.8780  178.1600  139.6780 C   0  0  2  0  0  3  0  0  0  0  0  0
  181.3030  178.7390  142.0250 C   0  0  0  0  0  0  0  0  0  0  0  0
  187.3820  178.2370  140.4530 C   0  0  0  0  0  0  0  0  0  0  0  0
  185.0880  178.6380  139.8870 N   0  0  0  0  0  0  0  0  0  0  0  0
  186.1440  178.4360  145.9410 C   0  0  0  0  0  3  0  0  0  0  0  0
  180.8600  179.0510  138.9960 C   0  0  0  0  0  2  0  0  0  0  0  0
  182.3900  178.1730  137.3160 C   0  0  0  0  0  2  0  0  0  0  0  0
  187.8260  178.1590  144.2680 O   0  0  0  0  0  1  0  0  0  0  0  0
  183.1460  178.7390  143.0370 C   0  0  0  0  0  0  0  0  0  0  0  0
  184.8200  178.6270  146.3290 C   0  0  0  0  0  3  0  0  0  0  0  0
  185.4860  178.4640  143.5880 C   0  0  0  0  0  0  0  0  0  0  0  0
  183.4090  178.6410  141.6930 C   0  0  0  0  0  0  0  0  0  0  0  0
  180.0590  178.7150  141.8220 O   0  0  0  0  0  0  0  0  0  0  0  0
  182.2230  178.6290  141.0300 N   0  0  0  0  0  0  0  0  0  0  0  0
  180.9890  178.7330  137.5220 C   0  0  0  0  0  2  0  0  0  0  0  0
  183.6970  180.4950  139.0110 C   0  0  0  0  0  1  0  0  0  0  0  0
  183.8200  178.7370  145.3650 C   0  0  0  0  0  3  0  0  0  0  0  0
  184.1420  178.6610  144.0050 C   0  0  0  0  0  0  0  0  0  0  0  0
  184.1360  179.0400  138.8540 C   0  0  2  0  0  3  0  0  0  0  0  0
  188.8050  178.0120  140.0580 C   0  0  0  0  0  2  0  0  0  0  0  0
  190.8610  177.1090  140.6710 C   0  0  0  0  0  1  0  0  0  0  0  0
  189.5280  177.4020  141.1590 N   0  0  0  0  0  2  0  0  0  0  0  0
  1 19  1  0  0  0  0
  2 13  1  0  0  0  0
  4 20  1  0  0  0  0
  4  1  2  0  0  0  0
  5  1  1  0  0  0  0
  6  8  2  0  0  0  0
  7 15  1  6  0  0  0
  7 27  1  0  0  0  0
  7  9  1  0  0  0  0
  8 12  1  0  0  0  0
  8 11  1  0  0  0  0
  9 14  1  6  0  0  0
  9 22  1  0  0  0  0
 10  3  1  0  0  0  0
 11  5  2  0  0  0  0
 12  4  1  0  0  0  0
 13 18  2  0  0  0  0
 15 23  1  0  0  0  0
 16  2  1  0  0  0  0
 17  3  1  0  0  0  0
 17 26  1  0  0  0  0
 19 26  1  0  0  0  0
 19  2  2  0  0  0  0
 20 17  2  0  0  0  0
 21 10  2  0  0  0  0
 22 20  1  0  0  0  0
 22 10  1  0  0  0  0
 23 14  1  0  0  0  0
 25 18  1  0  0  0  0
 26 25  2  0  0  0  0
 27 24  1  1  0  0  0
 27 12  1  0  0  0  0
 28 11  1  0  0  0  0
 28 30  1  0  0  0  0
 29 30  1  0  0  0  0
M  END
>  <MODEL>
5

>  <REMARK>
 VINA RESULT:      -8.4      2.540      6.382
  Name = 
  2 active torsions:
  status: ('A' for Active; 'I' for Inactive)
    1  A    between atoms: C_11  and  C_28
    2  A    between atoms: C_28  and  N_30
                            x       y       z     vdW  Elec       q    Type
                         _______ _______ _______ _____ _____    ______ ____

>  <TORSDO>
F 2

$$$$
=
 OpenBabel11122410283D

 30 35  0  0  1  0  0  0  0  0999 V2000
  187.7640  177.6030  144.9580 C   0  0  0  0  0  0  0  0  0  0  0  0
  185.7000  178.1110  146.2770 C   0  0  0  0  0  0  0  0  0  0  0  0
  185.9350  178.7530  141.4560 N   0  0  0  0  0  2  0  0  0  0  0  0
  188.4580  177.5960  143.7090 C   0  0  0  0  0  0  0  0  0  0  0  0
  188.4200  177.1780  146.0680 N   0  0  0  0  0  0  0  0  0  0  0  0
  191.6460  176.5330  144.8170 O   0  0  0  0  0  0  0  0  0  0  0  0
  190.2310  176.6210  141.3610 C   0  0  1  0  0  3  0  0  0  0  0  0
  190.4250  176.8580  144.8370 C   0  0  0  0  0  0  0  0  0  0  0  0
  189.0820  177.1580  140.5280 C   0  0  2  0  0  3  0  0  0  0  0  0
  186.9360  178.4070  140.6210 C   0  0  0  0  0  0  0  0  0  0  0  0
  189.7140  176.7880  146.0380 C   0  0  0  0  0  0  0  0  0  0  0  0
  189.8010  177.2910  143.6960 N   0  0  0  0  0  0  0  0  0  0  0  0
  184.3880  178.5930  146.3080 C   0  0  0  0  0  3  0  0  0  0  0  0
  189.7250  177.9470  139.4060 C   0  0  0  0  0  2  0  0  0  0  0  0
  191.3970  176.4780  140.3950 C   0  0  0  0  0  2  0  0  0  0  0  0
  186.2640  177.6820  147.4730 O   0  0  0  0  0  1  0  0  0  0  0  0
  186.4430  178.4600  142.6650 C   0  0  0  0  0  0  0  0  0  0  0  0
  183.7640  179.0360  145.1440 C   0  0  0  0  0  3  0  0  0  0  0  0
  186.4180  178.0680  145.0510 C   0  0  0  0  0  0  0  0  0  0  0  0
  187.7240  177.9750  142.5580 C   0  0  0  0  0  0  0  0  0  0  0  0
  186.8170  178.4760  139.3680 O   0  0  0  0  0  0  0  0  0  0  0  0
  188.0480  177.9270  141.2380 N   0  0  0  0  0  0  0  0  0  0  0  0
  191.0300  177.2340  139.1260 C   0  0  0  0  0  2  0  0  0  0  0  0
  190.8130  178.9970  142.2080 C   0  0  0  0  0  1  0  0  0  0  0  0
  184.4480  179.0010  143.9300 C   0  0  0  0  0  3  0  0  0  0  0  0
  185.7640  178.5260  143.8770 C   0  0  0  0  0  0  0  0  0  0  0  0
  190.6440  177.5120  142.5230 C   0  0  2  0  0  3  0  0  0  0  0  0
  190.3580  176.3000  147.2940 C   0  0  0  0  0  2  0  0  0  0  0  0
  192.5350  175.9100  148.0220 C   0  0  0  0  0  1  0  0  0  0  0  0
  191.6620  176.9170  147.4480 N   0  0  0  0  0  2  0  0  0  0  0  0
  1 19  1  0  0  0  0
  1  5  1  0  0  0  0
  2 13  1  0  0  0  0
  2 16  1  0  0  0  0
  3 17  1  0  0  0  0
  4  1  2  0  0  0  0
  6  8  2  0  0  0  0
  7 15  1  6  0  0  0
  7 27  1  0  0  0  0
  8 11  1  0  0  0  0
  9 14  1  6  0  0  0
  9 22  1  0  0  0  0
  9  7  1  0  0  0  0
 10 22  1  0  0  0  0
 10  3  1  0  0  0  0
 11  5  2  0  0  0  0
 11 28  1  0  0  0  0
 12  4  1  0  0  0  0
 12  8  1  0  0  0  0
 17 26  1  0  0  0  0
 18 13  2  0  0  0  0
 19  2  2  0  0  0  0
 20 17  2  0  0  0  0
 20  4  1  0  0  0  0
 21 10  2  0  0  0  0
 22 20  1  0  0  0  0
 23 14  1  0  0  0  0
 23 15  1  0  0  0  0
 25 18  1  0  0  0  0
 26 25  2  0  0  0  0
 26 19  1  0  0  0  0
 27 24  1  6  0  0  0
 27 12  1  0  0  0  0
 28 30  1  0  0  0  0
 30 29  1  0  0  0  0
M  END
>  <MODEL>
6

>  <REMARK>
 VINA RESULT:      -8.3      2.002      5.682
  Name = 
  2 active torsions:
  status: ('A' for Active; 'I' for Inactive)
    1  A    between atoms: C_11  and  C_28
    2  A    between atoms: C_28  and  N_30
                            x       y       z     vdW  Elec       q    Type
                         _______ _______ _______ _____ _____    ______ ____

>  <TORSDO>
F 2

$$$$
=
 OpenBabel11122410283D

 30 35  0  0  1  0  0  0  0  0999 V2000
  189.7350  177.6870  142.4560 C   0  0  0  0  0  0  0  0  0  0  0  0
  191.2730  177.3920  140.5050 C   0  0  0  0  0  0  0  0  0  0  0  0
  186.5520  178.4550  139.9640 N   0  0  0  0  0  2  0  0  0  0  0  0
  188.4220  177.9270  142.9650 C   0  0  0  0  0  0  0  0  0  0  0  0
  190.7450  177.4750  143.3390 N   0  0  0  0  0  0  0  0  0  0  0  0
  189.0500  177.5190  146.4230 O   0  0  0  0  0  0  0  0  0  0  0  0
  186.1310  179.0870  144.7010 C   0  0  1  0  0  3  0  0  0  0  0  0
  189.2470  177.5910  145.1770 C   0  0  0  0  0  0  0  0  0  0  0  0
  185.4550  179.2510  143.3520 C   0  0  2  0  0  3  0  0  0  0  0  0
  185.6550  178.7570  140.9250 C   0  0  0  0  0  0  0  0  0  0  0  0
  190.5420  177.4420  144.6740 C   0  0  0  0  0  0  0  0  0  0  0  0
  188.1990  177.7980  144.3180 N   0  0  0  0  0  0  0  0  0  0  0  0
  191.4530  177.3480  139.1190 C   0  0  0  0  0  3  0  0  0  0  0  0
  184.0370  178.7550  143.5410 C   0  0  0  0  0  2  0  0  0  0  0  0
  185.0150  179.2050  145.7270 C   0  0  0  0  0  2  0  0  0  0  0  0
  192.3840  177.1800  141.3130 O   0  0  0  0  0  1  0  0  0  0  0  0
  187.6480  178.1350  140.6720 C   0  0  0  0  0  0  0  0  0  0  0  0
  190.3810  177.5540  138.2540 C   0  0  0  0  0  3  0  0  0  0  0  0
  189.9860  177.6470  141.0520 C   0  0  0  0  0  0  0  0  0  0  0  0
  187.4040  178.2180  142.0220 C   0  0  0  0  0  0  0  0  0  0  0  0
  184.4960  179.1740  140.6520 O   0  0  0  0  0  0  0  0  0  0  0  0
  186.1200  178.6290  142.1950 N   0  0  0  0  0  0  0  0  0  0  0  0
  183.6950  179.0940  144.9770 C   0  0  0  0  0  2  0  0  0  0  0  0
  186.0880  176.5080  144.4820 C   0  0  0  0  0  1  0  0  0  0  0  0
  189.1110  177.8090  138.7680 C   0  0  0  0  0  3  0  0  0  0  0  0
  188.9060  177.8530  140.1520 C   0  0  0  0  0  0  0  0  0  0  0  0
  186.8560  177.7630  144.8910 C   0  0  2  0  0  3  0  0  0  0  0  0
  191.7090  177.2370  145.5840 C   0  0  0  0  0  2  0  0  0  0  0  0
  192.2050  175.6540  147.2170 C   0  0  0  0  0  1  0  0  0  0  0  0
  191.9140  175.8180  145.8050 N   0  0  0  0  0  2  0  0  0  0  0  0
  1  4  1  0  0  0  0
  1  5  1  0  0  0  0
  2 19  1  0  0  0  0
  2 16  1  0  0  0  0
  3 17  1  0  0  0  0
  3 10  1  0  0  0  0
  4 12  1  0  0  0  0
  5 11  2  0  0  0  0
  7 27  1  0  0  0  0
  7 15  1  1  0  0  0
  8  6  2  0  0  0  0
  9 14  1  1  0  0  0
  9  7  1  0  0  0  0
 10 22  1  0  0  0  0
 11  8  1  0  0  0  0
 11 28  1  0  0  0  0
 12 27  1  0  0  0  0
 12  8  1  0  0  0  0
 13  2  2  0  0  0  0
 14 23  1  0  0  0  0
 17 20  1  0  0  0  0
 18 25  2  0  0  0  0
 18 13  1  0  0  0  0
 19  1  2  0  0  0  0
 20 22  1  0  0  0  0
 20  4  2  0  0  0  0
 21 10  2  0  0  0  0
 22  9  1  0  0  0  0
 23 15  1  0  0  0  0
 25 26  1  0  0  0  0
 26 17  2  0  0  0  0
 26 19  1  0  0  0  0
 27 24  1  6  0  0  0
 28 30  1  0  0  0  0
 30 29  1  0  0  0  0
M  END
>  <MODEL>
7

>  <REMARK>
 VINA RESULT:      -8.2      1.684      6.196
  Name = 
  2 active torsions:
  status: ('A' for Active; 'I' for Inactive)
    1  A    between atoms: C_11  and  C_28
    2  A    between atoms: C_28  and  N_30
                            x       y       z     vdW  Elec       q    Type
                         _______ _______ _______ _____ _____    ______ ____

>  <TORSDO>
F 2

$$$$
=
 OpenBabel11122410283D

 30 35  0  0  1  0  0  0  0  0999 V2000
  188.2390  177.9550  141.7570 C   0  0  0  0  0  0  0  0  0  0  0  0
  189.2330  177.6240  144.0280 C   0  0  0  0  0  0  0  0  0  0  0  0
  191.6860  176.6310  139.9410 N   0  0  0  0  0  2  0  0  0  0  0  0
  188.3470  177.8460  140.3370 C   0  0  0  0  0  0  0  0  0  0  0  0
  187.0830  178.4320  142.2860 N   0  0  0  0  0  0  0  0  0  0  0  0
  185.0820  178.8590  139.4220 O   0  0  0  0  0  0  0  0  0  0  0  0
  188.1640  178.5800  137.3310 C   0  0  1  0  0  3  0  0  0  0  0  0
  186.0880  178.5840  140.1360 C   0  0  0  0  0  0  0  0  0  0  0  0
  189.5790  178.0310  137.3110 C   0  0  2  0  0  3  0  0  0  0  0  0
  191.3120  176.8780  138.6680 C   0  0  0  0  0  0  0  0  0  0  0  0
  186.0210  178.7670  141.5190 C   0  0  0  0  0  0  0  0  0  0  0  0
  187.2350  178.0960  139.5640 N   0  0  0  0  0  0  0  0  0  0  0  0
  190.3090  177.1980  144.8130 C   0  0  0  0  0  3  0  0  0  0  0  0
  189.6540  177.1390  136.0900 C   0  0  0  0  0  2  0  0  0  0  0  0
  187.7230  178.6080  135.8760 C   0  0  0  0  0  2  0  0  0  0  0  0
  188.1070  178.1150  144.6790 O   0  0  0  0  0  1  0  0  0  0  0  0
  190.5990  176.9890  140.6440 C   0  0  0  0  0  0  0  0  0  0  0  0
  191.4680  176.6980  144.2230 C   0  0  0  0  0  3  0  0  0  0  0  0
  189.3090  177.5510  142.6110 C   0  0  0  0  0  0  0  0  0  0  0  0
  189.5910  177.4150  139.8120 C   0  0  0  0  0  0  0  0  0  0  0  0
  192.1000  176.7240  137.6970 O   0  0  0  0  0  0  0  0  0  0  0  0
  190.0460  177.3560  138.5330 N   0  0  0  0  0  0  0  0  0  0  0  0
  188.7230  177.7790  135.0830 C   0  0  0  0  0  2  0  0  0  0  0  0
  187.1970  176.2500  137.9090 C   0  0  0  0  0  1  0  0  0  0  0  0
  191.5650  176.6200  142.8350 C   0  0  0  0  0  3  0  0  0  0  0  0
  190.4990  177.0370  142.0300 C   0  0  0  0  0  0  0  0  0  0  0  0
  187.1740  177.7590  138.1440 C   0  0  2  0  0  3  0  0  0  0  0  0
  184.7960  179.3180  142.1710 C   0  0  0  0  0  2  0  0  0  0  0  0
  183.5410  179.0690  144.1160 C   0  0  0  0  0  1  0  0  0  0  0  0
  184.2400  178.3330  143.0800 N   0  0  0  0  0  2  0  0  0  0  0  0
  1  5  1  0  0  0  0
  1 19  1  0  0  0  0
  2 16  1  0  0  0  0
  2 13  1  0  0  0  0
  3 17  1  0  0  0  0
  4  1  2  0  0  0  0
  6  8  2  0  0  0  0
  7 15  1  6  0  0  0
  7 27  1  0  0  0  0
  8 11  1  0  0  0  0
  9 14  1  6  0  0  0
  9  7  1  0  0  0  0
  9 22  1  0  0  0  0
 10  3  1  0  0  0  0
 11 28  1  0  0  0  0
 11  5  2  0  0  0  0
 12  8  1  0  0  0  0
 12  4  1  0  0  0  0
 17 26  1  0  0  0  0
 18 13  2  0  0  0  0
 19  2  2  0  0  0  0
 20  4  1  0  0  0  0
 20 17  2  0  0  0  0
 21 10  2  0  0  0  0
 22 10  1  0  0  0  0
 22 20  1  0  0  0  0
 23 15  1  0  0  0  0
 23 14  1  0  0  0  0
 25 18  1  0  0  0  0
 26 19  1  0  0  0  0
 26 25  2  0  0  0  0
 27 24  1  1  0  0  0
 27 12  1  0  0  0  0
 28 30  1  0  0  0  0
 30 29  1  0  0  0  0
M  END
>  <MODEL>
8

>  <REMARK>
 VINA RESULT:      -8.1      1.715      6.824
  Name = 
  2 active torsions:
  status: ('A' for Active; 'I' for Inactive)
    1  A    between atoms: C_11  and  C_28
    2  A    between atoms: C_28  and  N_30
                            x       y       z     vdW  Elec       q    Type
                         _______ _______ _______ _____ _____    ______ ____

>  <TORSDO>
F 2

$$$$
=
 OpenBabel11122410283D

 30 35  0  0  1  0  0  0  0  0999 V2000
  186.0640  178.1030  143.0450 C   0  0  0  0  0  0  0  0  0  0  0  0
  183.7690  178.6900  142.2410 C   0  0  0  0  0  0  0  0  0  0  0  0
  187.5850  178.3870  139.2320 N   0  0  0  0  0  2  0  0  0  0  0  0
  187.4520  177.9060  142.7720 C   0  0  0  0  0  0  0  0  0  0  0  0
  185.6260  177.9600  144.3220 N   0  0  0  0  0  0  0  0  0  0  0  0
  188.6220  177.3450  146.0650 O   0  0  0  0  0  0  0  0  0  0  0  0
  190.2800  176.6350  142.7940 C   0  0  1  0  0  3  0  0  0  0  0  0
  187.8340  177.5680  145.1020 C   0  0  0  0  0  0  0  0  0  0  0  0
  190.1970  176.9010  141.3020 C   0  0  2  0  0  3  0  0  0  0  0  0
  188.8340  177.9650  139.5170 C   0  0  0  0  0  0  0  0  0  0  0  0
  186.4630  177.6780  145.3460 C   0  0  0  0  0  0  0  0  0  0  0  0
  188.3170  177.7150  143.8270 N   0  0  0  0  0  0  0  0  0  0  0  0
  182.9290  179.0610  141.1870 C   0  0  0  0  0  3  0  0  0  0  0  0
  191.5330  177.5040  140.9200 C   0  0  0  0  0  2  0  0  0  0  0  0
  191.7540  176.3990  143.0800 C   0  0  0  0  0  2  0  0  0  0  0  0
  183.2060  178.5530  143.5040 O   0  0  0  0  0  1  0  0  0  0  0  0
  186.9890  178.3800  140.4360 C   0  0  0  0  0  0  0  0  0  0  0  0
  183.4300  179.2130  139.8960 C   0  0  0  0  0  3  0  0  0  0  0  0
  185.1530  178.4650  142.0080 C   0  0  0  0  0  0  0  0  0  0  0  0
  187.8650  177.9900  141.4190 C   0  0  0  0  0  0  0  0  0  0  0  0
  189.6990  177.7760  138.6190 O   0  0  0  0  0  0  0  0  0  0  0  0
  189.0590  177.7090  140.8330 N   0  0  0  0  0  0  0  0  0  0  0  0
  192.5330  176.8580  141.8550 C   0  0  0  0  0  2  0  0  0  0  0  0
  190.2570  179.1700  143.3150 C   0  0  0  0  0  1  0  0  0  0  0  0
  184.7830  178.9950  139.6440 C   0  0  0  0  0  3  0  0  0  0  0  0
  185.6430  178.6280  140.6850 C   0  0  0  0  0  0  0  0  0  0  0  0
  189.7690  177.7680  143.6710 C   0  0  2  0  0  3  0  0  0  0  0  0
  185.9020  177.5010  146.7180 C   0  0  0  0  0  2  0  0  0  0  0  0
  186.0560  179.6970  147.4760 C   0  0  0  0  0  1  0  0  0  0  0  0
  185.1160  178.6660  147.0800 N   0  0  0  0  0  2  0  0  0  0  0  0
  1  5  1  0  0  0  0
  2 16  1  0  0  0  0
  3 10  1  0  0  0  0
  3 17  1  0  0  0  0
  4  1  1  0  0  0  0
  4 12  1  0  0  0  0
  5 11  2  0  0  0  0
  7 15  1  1  0  0  0
  7 27  1  0  0  0  0
  8 11  1  0  0  0  0
  8  6  2  0  0  0  0
  9 14  1  1  0  0  0
  9  7  1  0  0  0  0
 10 22  1  0  0  0  0
 11 28  1  0  0  0  0
 12  8  1  0  0  0  0
 13  2  2  0  0  0  0
 14 23  1  0  0  0  0
 17 26  2  0  0  0  0
 17 20  1  0  0  0  0
 18 13  1  0  0  0  0
 19  2  1  0  0  0  0
 19  1  2  0  0  0  0
 20  4  2  0  0  0  0
 21 10  2  0  0  0  0
 22  9  1  0  0  0  0
 22 20  1  0  0  0  0
 23 15  1  0  0  0  0
 25 18  2  0  0  0  0
 25 26  1  0  0  0  0
 26 19  1  0  0  0  0
 27 24  1  6  0  0  0
 27 12  1  0  0  0  0
 28 30  1  0  0  0  0
 30 29  1  0  0  0  0
M  END
>  <MODEL>
9

>  <REMARK>
 VINA RESULT:      -8.1      1.613      5.080
  Name = 
  2 active torsions:
  status: ('A' for Active; 'I' for Inactive)
    1  A    between atoms: C_11  and  C_28
    2  A    between atoms: C_28  and  N_30
                            x       y       z     vdW  Elec       q    Type
                         _______ _______ _______ _____ _____    ______ ____

>  <TORSDO>
F 2

$$$$
