=
 OpenBabel11122411583D

 28 32  0  0  1  0  0  0  0  0999 V2000
  182.5050  178.3420  137.5860 C   0  0  0  0  0  0  0  0  0  0  0  0
  184.7490  177.3500  142.0760 F   0  0  0  0  0  0  0  0  0  0  0  0
  178.9310  176.3810  139.6840 O   0  0  0  0  0  0  0  0  0  0  0  0
  181.1110  180.7420  137.9530 C   0  0  0  0  0  3  0  0  0  0  0  0
  180.0450  177.5370  141.4800 C   0  0  1  0  0  3  0  0  0  0  0  0
  183.1600  177.1210  137.4260 O   0  0  0  0  0  0  0  0  0  0  0  0
  185.7670  179.3270  141.2980 C   0  0  0  0  0  1  0  0  0  0  0  0
  184.5750  178.7260  142.0160 C   0  0  1  0  0  0  0  0  0  0  0  0
  183.3210  178.7490  144.1410 C   0  0  1  0  0  3  0  0  0  0  0  0
  183.2810  179.1020  141.2460 C   0  0  2  0  0  3  0  0  0  0  0  0
  180.2420  176.3260  137.1260 F   0  0  0  0  0  0  0  0  0  0  0  0
  182.2900  177.0190  140.5830 C   0  0  1  0  0  3  0  0  0  0  0  0
  182.0940  179.3040  143.4400 C   0  0  0  0  0  2  0  0  0  0  0  0
  184.5500  179.2730  143.4310 C   0  0  0  0  0  2  0  0  0  0  0  0
  181.3310  175.5140  137.3860 C   0  0  2  0  0  3  0  0  0  0  0  0
  182.4550  178.9270  138.8610 C   0  0  0  0  0  0  0  0  0  0  0  0
  180.0010  176.7800  140.2130 C   0  0  0  0  0  0  0  0  0  0  0  0
  183.3320  179.1790  145.4660 O   0  0  0  0  0  1  0  0  0  0  0  0
  181.5220  175.2820  138.8890 C   0  0  0  0  0  2  0  0  0  0  0  0
  181.7420  180.1250  139.0360 C   0  0  0  0  0  3  0  0  0  0  0  0
  181.8660  178.9600  136.5020 C   0  0  0  0  0  3  0  0  0  0  0  0
  181.1740  180.1600  136.6850 C   0  0  0  0  0  3  0  0  0  0  0  0
  182.5880  176.0430  136.6960 C   0  0  0  0  0  2  0  0  0  0  0  0
  181.5530  177.5790  141.8090 C   0  0  1  0  0  3  0  0  0  0  0  0
  181.2800  176.4920  139.6740 N   0  0  0  0  0  0  0  0  0  0  0  0
  182.0320  178.9470  142.0170 N   0  0  2  0  0  0  0  0  0  0  0  0
  179.5170  178.8160  141.2730 O   0  0  0  0  0  1  0  0  0  0  0  0
  183.1030  178.2030  140.0270 C   0  0  1  0  0  3  0  0  0  0  0  0
  1 16  1  0  0  0  0
  3 17  2  0  0  0  0
  4 20  1  0  0  0  0
  5 27  1  6  0  0  0
  5 24  1  0  0  0  0
  6  1  1  0  0  0  0
  8  7  1  6  0  0  0
  8  2  1  0  0  0  0
  8 14  1  0  0  0  0
  9 18  1  1  0  0  0
 10  8  1  0  0  0  0
 10 26  1  0  0  0  0
 11 15  1  0  0  0  0
 12 24  1  0  0  0  0
 13  9  1  0  0  0  0
 14  9  1  0  0  0  0
 15 19  1  0  0  0  0
 16 20  2  0  0  0  0
 16 28  1  0  0  0  0
 17  5  1  0  0  0  0
 19 25  1  0  0  0  0
 21 22  1  0  0  0  0
 21  1  2  0  0  0  0
 22  4  2  0  0  0  0
 23 15  1  0  0  0  0
 23  6  1  0  0  0  0
 24 26  1  0  0  0  0
 25 17  1  0  0  0  0
 25 12  1  0  0  0  0
 26 13  1  0  0  0  0
 28 12  1  0  0  0  0
 28 10  1  0  0  0  0
M  END
>  <MODEL>
1

>  <REMARK>
 VINA RESULT:      -5.1      0.000      0.000
  Name = 
  0 active torsions:
  status: ('A' for Active; 'I' for Inactive)
                            x       y       z     vdW  Elec       q    Type
                         _______ _______ _______ _____ _____    ______ ____

>  <TORSDO>
F 0

$$$$
=
 OpenBabel11122411583D

 28 32  0  0  1  0  0  0  0  0999 V2000
  189.6320  178.0890  138.2060 C   0  0  0  0  0  0  0  0  0  0  0  0
  192.7400  176.2200  134.5970 F   0  0  0  0  0  0  0  0  0  0  0  0
  186.8960  174.7540  136.6500 O   0  0  0  0  0  0  0  0  0  0  0  0
  189.9900  176.4380  140.4390 C   0  0  0  0  0  3  0  0  0  0  0  0
  189.0960  173.7960  136.4300 C   0  0  1  0  0  3  0  0  0  0  0  0
  189.4210  178.8750  137.0730 O   0  0  0  0  0  0  0  0  0  0  0  0
  194.1680  176.9970  136.3030 C   0  0  0  0  0  1  0  0  0  0  0  0
  193.2910  175.8590  135.8190 C   0  0  1  0  0  0  0  0  0  0  0  0
  193.3010  173.4680  135.2070 C   0  0  1  0  0  3  0  0  0  0  0  0
  192.1900  175.5850  136.8790 C   0  0  2  0  0  3  0  0  0  0  0  0
  186.7230  177.5180  137.4220 F   0  0  0  0  0  0  0  0  0  0  0  0
  190.1010  175.9530  135.7570 C   0  0  1  0  0  3  0  0  0  0  0  0
  192.3720  173.1420  136.3630 C   0  0  0  0  0  2  0  0  0  0  0  0
  194.1690  174.6400  135.6120 C   0  0  0  0  0  2  0  0  0  0  0  0
  187.2260  178.1540  136.3010 C   0  0  2  0  0  3  0  0  0  0  0  0
  190.4500  176.9530  138.1050 C   0  0  0  0  0  0  0  0  0  0  0  0
  188.1240  174.9070  136.4130 C   0  0  0  0  0  0  0  0  0  0  0  0
  194.1070  172.3650  134.9350 O   0  0  0  0  0  1  0  0  0  0  0  0
  187.9040  177.1690  135.3430 C   0  0  0  0  0  2  0  0  0  0  0  0
  190.6130  176.1250  139.2280 C   0  0  0  0  0  3  0  0  0  0  0  0
  189.0030  178.3970  139.4200 C   0  0  0  0  0  3  0  0  0  0  0  0
  189.1860  177.5760  140.5350 C   0  0  0  0  0  3  0  0  0  0  0  0
  188.1270  179.3260  136.6930 C   0  0  0  0  0  2  0  0  0  0  0  0
  190.3760  174.4450  135.8620 C   0  0  1  0  0  3  0  0  0  0  0  0
  188.6870  176.1550  136.0490 N   0  0  0  0  0  0  0  0  0  0  0  0
  191.5230  174.2750  136.7570 N   0  0  2  0  0  0  0  0  0  0  0  0
  189.2710  173.3560  137.7460 O   0  0  0  0  0  1  0  0  0  0  0  0
  191.0660  176.6100  136.7610 C   0  0  1  0  0  3  0  0  0  0  0  0
  1 21  1  0  0  0  0
  2  8  1  0  0  0  0
  4 22  1  0  0  0  0
  5 27  1  1  0  0  0
  6  1  1  0  0  0  0
  8  7  1  1  0  0  0
  8 10  1  0  0  0  0
  9 18  1  1  0  0  0
  9 14  1  0  0  0  0
  9 13  1  0  0  0  0
 12 24  1  0  0  0  0
 12 25  1  0  0  0  0
 12 28  1  0  0  0  0
 13 26  1  0  0  0  0
 14  8  1  0  0  0  0
 15 23  1  0  0  0  0
 15 11  1  0  0  0  0
 16  1  2  0  0  0  0
 16 20  1  0  0  0  0
 17  5  1  0  0  0  0
 17  3  2  0  0  0  0
 19 25  1  0  0  0  0
 19 15  1  0  0  0  0
 20  4  2  0  0  0  0
 21 22  2  0  0  0  0
 23  6  1  0  0  0  0
 24  5  1  0  0  0  0
 24 26  1  0  0  0  0
 25 17  1  0  0  0  0
 26 10  1  0  0  0  0
 28 10  1  0  0  0  0
 28 16  1  0  0  0  0
M  END
>  <MODEL>
2

>  <REMARK>
 VINA RESULT:      -4.9      7.840     10.188
  Name = 
  0 active torsions:
  status: ('A' for Active; 'I' for Inactive)
                            x       y       z     vdW  Elec       q    Type
                         _______ _______ _______ _____ _____    ______ ____

>  <TORSDO>
F 0

$$$$
=
 OpenBabel11122411583D

 28 32  0  0  1  0  0  0  0  0999 V2000
  180.0540  179.6310  139.4000 C   0  0  0  0  0  0  0  0  0  0  0  0
  182.3100  175.4250  137.5570 F   0  0  0  0  0  0  0  0  0  0  0  0
  183.4610  179.3260  142.4530 O   0  0  0  0  0  0  0  0  0  0  0  0
  181.4990  181.7850  138.3460 C   0  0  0  0  0  3  0  0  0  0  0  0
  184.4800  178.5220  140.4230 C   0  0  1  0  0  3  0  0  0  0  0  0
  179.3710  178.5530  139.9620 O   0  0  0  0  0  0  0  0  0  0  0  0
  181.4090  176.5200  135.6750 C   0  0  0  0  0  1  0  0  0  0  0  0
  182.5680  176.4430  136.6490 C   0  0  1  0  0  0  0  0  0  0  0  0
  185.0050  176.0860  136.8070 C   0  0  1  0  0  3  0  0  0  0  0  0
  182.7210  177.8140  137.3610 C   0  0  2  0  0  3  0  0  0  0  0  0
  180.6350  179.8510  142.4020 F   0  0  0  0  0  0  0  0  0  0  0  0
  182.4150  177.3710  139.6990 C   0  0  1  0  0  3  0  0  0  0  0  0
  185.2040  177.4990  137.3260 C   0  0  0  0  0  2  0  0  0  0  0  0
  183.8190  176.0880  135.8680 C   0  0  0  0  0  2  0  0  0  0  0  0
  180.1150  178.5750  142.2810 C   0  0  2  0  0  3  0  0  0  0  0  0
  181.2100  179.3870  138.6440 C   0  0  0  0  0  0  0  0  0  0  0  0
  183.3550  178.7060  141.3620 C   0  0  0  0  0  0  0  0  0  0  0  0
  186.1440  175.6800  136.1160 O   0  0  0  0  0  1  0  0  0  0  0  0
  181.1980  177.5500  141.9270 C   0  0  0  0  0  2  0  0  0  0  0  0
  181.9340  180.4760  138.1300 C   0  0  0  0  0  3  0  0  0  0  0  0
  179.6220  180.9470  139.6210 C   0  0  0  0  0  3  0  0  0  0  0  0
  180.3400  182.0210  139.0910 C   0  0  0  0  0  3  0  0  0  0  0  0
  178.9310  178.5550  141.3140 C   0  0  0  0  0  2  0  0  0  0  0  0
  183.9120  177.5250  139.3900 C   0  0  1  0  0  3  0  0  0  0  0  0
  182.1580  178.0680  140.9530 N   0  0  0  0  0  0  0  0  0  0  0  0
  184.0220  178.0300  138.0200 N   0  0  2  0  0  0  0  0  0  0  0  0
  184.8010  179.7530  139.8420 O   0  0  0  0  0  1  0  0  0  0  0  0
  181.6880  177.9560  138.4750 C   0  0  1  0  0  3  0  0  0  0  0  0
  1 21  1  0  0  0  0
  1  6  1  0  0  0  0
  4 22  1  0  0  0  0
  5 27  1  6  0  0  0
  5 17  1  0  0  0  0
  6 23  1  0  0  0  0
  8  7  1  6  0  0  0
  8 10  1  0  0  0  0
  8  2  1  0  0  0  0
  9 18  1  6  0  0  0
  9 13  1  0  0  0  0
 10 26  1  0  0  0  0
 10 28  1  0  0  0  0
 12 25  1  0  0  0  0
 13 26  1  0  0  0  0
 14  8  1  0  0  0  0
 14  9  1  0  0  0  0
 15 11  1  0  0  0  0
 16  1  2  0  0  0  0
 17  3  2  0  0  0  0
 19 15  1  0  0  0  0
 20  4  2  0  0  0  0
 20 16  1  0  0  0  0
 22 21  2  0  0  0  0
 23 15  1  0  0  0  0
 24 12  1  0  0  0  0
 24  5  1  0  0  0  0
 25 17  1  0  0  0  0
 25 19  1  0  0  0  0
 26 24  1  0  0  0  0
 28 16  1  0  0  0  0
 28 12  1  0  0  0  0
M  END
>  <MODEL>
3

>  <REMARK>
 VINA RESULT:      -4.6      2.130      5.274
  Name = 
  0 active torsions:
  status: ('A' for Active; 'I' for Inactive)
                            x       y       z     vdW  Elec       q    Type
                         _______ _______ _______ _____ _____    ______ ____

>  <TORSDO>
F 0

$$$$
=
 OpenBabel11122411583D

 28 32  0  0  1  0  0  0  0  0999 V2000
  180.2700  174.8440  137.5150 C   0  0  0  0  0  0  0  0  0  0  0  0
  184.7580  172.4400  138.0280 F   0  0  0  0  0  0  0  0  0  0  0  0
  182.9600  178.5430  137.8380 O   0  0  0  0  0  0  0  0  0  0  0  0
  180.0750  175.5060  134.8020 C   0  0  0  0  0  3  0  0  0  0  0  0
  184.3490  176.9650  136.6600 C   0  0  1  0  0  3  0  0  0  0  0  0
  180.3980  174.5560  138.8740 O   0  0  0  0  0  0  0  0  0  0  0  0
  183.4540  171.0330  136.6590 C   0  0  0  0  0  1  0  0  0  0  0  0
  184.3550  172.2510  136.7140 C   0  0  1  0  0  0  0  0  0  0  0  0
  186.4600  173.2020  135.8420 C   0  0  1  0  0  3  0  0  0  0  0  0
  183.5750  173.4800  136.1760 C   0  0  2  0  0  3  0  0  0  0  0  0
  180.4440  177.5950  138.8560 F   0  0  0  0  0  0  0  0  0  0  0  0
  183.5120  175.0540  137.9870 C   0  0  1  0  0  3  0  0  0  0  0  0
  185.6970  174.3120  135.1410 C   0  0  0  0  0  2  0  0  0  0  0  0
  185.5840  171.9690  135.8690 C   0  0  0  0  0  2  0  0  0  0  0  0
  180.8530  176.7360  139.8600 C   0  0  2  0  0  3  0  0  0  0  0  0
  181.3540  174.5910  136.6600 C   0  0  0  0  0  0  0  0  0  0  0  0
  183.3200  177.3510  137.6470 C   0  0  0  0  0  0  0  0  0  0  0  0
  187.6290  172.9260  135.1370 O   0  0  0  0  0  1  0  0  0  0  0  0
  182.3560  176.4410  139.7800 C   0  0  0  0  0  2  0  0  0  0  0  0
  181.2490  174.9390  135.3030 C   0  0  0  0  0  3  0  0  0  0  0  0
  179.0950  175.4180  137.0110 C   0  0  0  0  0  3  0  0  0  0  0  0
  178.9960  175.7440  135.6560 C   0  0  0  0  0  3  0  0  0  0  0  0
  179.9940  175.4720  139.8840 C   0  0  0  0  0  2  0  0  0  0  0  0
  184.5870  175.4720  136.9720 C   0  0  1  0  0  3  0  0  0  0  0  0
  182.8150  176.2650  138.4030 N   0  0  0  0  0  0  0  0  0  0  0  0
  184.4160  174.6290  135.7870 N   0  0  2  0  0  0  0  0  0  0  0  0
  183.8460  177.1570  135.3690 O   0  0  0  0  0  1  0  0  0  0  0  0
  182.6350  174.0270  137.2460 C   0  0  1  0  0  3  0  0  0  0  0  0
  1  6  1  0  0  0  0
  4 20  2  0  0  0  0
  4 22  1  0  0  0  0
  5 27  1  6  0  0  0
  5 24  1  0  0  0  0
  5 17  1  0  0  0  0
  6 23  1  0  0  0  0
  8  7  1  6  0  0  0
  8  2  1  0  0  0  0
  9 18  1  6  0  0  0
  9 14  1  0  0  0  0
 10  8  1  0  0  0  0
 10 28  1  0  0  0  0
 11 15  1  0  0  0  0
 12 25  1  0  0  0  0
 13 26  1  0  0  0  0
 13  9  1  0  0  0  0
 14  8  1  0  0  0  0
 15 23  1  0  0  0  0
 16 28  1  0  0  0  0
 16  1  2  0  0  0  0
 17  3  2  0  0  0  0
 17 25  1  0  0  0  0
 19 15  1  0  0  0  0
 20 16  1  0  0  0  0
 21  1  1  0  0  0  0
 22 21  2  0  0  0  0
 24 12  1  0  0  0  0
 25 19  1  0  0  0  0
 26 10  1  0  0  0  0
 26 24  1  0  0  0  0
 28 12  1  0  0  0  0
M  END
>  <MODEL>
4

>  <REMARK>
 VINA RESULT:      -4.6      3.513      6.693
  Name = 
  0 active torsions:
  status: ('A' for Active; 'I' for Inactive)
                            x       y       z     vdW  Elec       q    Type
                         _______ _______ _______ _____ _____    ______ ____

>  <TORSDO>
F 0

$$$$
=
 OpenBabel11122411583D

 28 32  0  0  1  0  0  0  0  0999 V2000
  189.8240  175.5930  138.3760 C   0  0  0  0  0  0  0  0  0  0  0  0
  186.0910  173.3910  135.6550 F   0  0  0  0  0  0  0  0  0  0  0  0
  190.1660  178.1660  134.5960 O   0  0  0  0  0  0  0  0  0  0  0  0
  188.6710  177.8630  139.5390 C   0  0  0  0  0  3  0  0  0  0  0  0
  187.8020  177.7210  134.7360 C   0  0  1  0  0  3  0  0  0  0  0  0
  190.4040  174.4890  137.7510 O   0  0  0  0  0  0  0  0  0  0  0  0
  185.4000  173.2270  137.9010 C   0  0  0  0  0  1  0  0  0  0  0  0
  185.4720  174.1080  136.6700 C   0  0  1  0  0  0  0  0  0  0  0  0
  184.1020  175.3770  135.0560 C   0  0  1  0  0  3  0  0  0  0  0  0
  186.2610  175.3980  137.0170 C   0  0  2  0  0  3  0  0  0  0  0  0
  191.8840  176.8070  136.4570 F   0  0  0  0  0  0  0  0  0  0  0  0
  188.1610  175.4150  135.5510 C   0  0  1  0  0  3  0  0  0  0  0  0
  184.7240  176.6840  135.5180 C   0  0  0  0  0  2  0  0  0  0  0  0
  184.0550  174.4320  136.2360 C   0  0  0  0  0  2  0  0  0  0  0  0
  191.7910  175.4980  136.0210 C   0  0  2  0  0  3  0  0  0  0  0  0
  188.5070  175.9470  138.0470 C   0  0  0  0  0  0  0  0  0  0  0  0
  189.2290  177.3820  134.9040 C   0  0  0  0  0  0  0  0  0  0  0  0
  182.8080  175.6150  134.6000 O   0  0  0  0  0  1  0  0  0  0  0  0
  190.6470  175.3120  135.0180 C   0  0  0  0  0  2  0  0  0  0  0  0
  187.9420  177.0960  138.6280 C   0  0  0  0  0  3  0  0  0  0  0  0
  190.5550  176.3680  139.2870 C   0  0  0  0  0  3  0  0  0  0  0  0
  189.9780  177.4980  139.8700 C   0  0  0  0  0  3  0  0  0  0  0  0
  191.7160  174.5300  137.2030 C   0  0  0  0  0  2  0  0  0  0  0  0
  187.0900  176.3820  135.0260 C   0  0  1  0  0  3  0  0  0  0  0  0
  189.4530  176.0700  135.3890 N   0  0  0  0  0  0  0  0  0  0  0  0
  186.0740  176.5150  136.0720 N   0  0  2  0  0  0  0  0  0  0  0  0
  187.4510  178.7120  135.6580 O   0  0  0  0  0  1  0  0  0  0  0  0
  187.7620  175.1260  137.0100 C   0  0  1  0  0  3  0  0  0  0  0  0
  1 21  1  0  0  0  0
  2  8  1  0  0  0  0
  3 17  2  0  0  0  0
  4 22  1  0  0  0  0
  5 17  1  0  0  0  0
  5 24  1  0  0  0  0
  5 27  1  1  0  0  0
  6  1  1  0  0  0  0
  8 10  1  0  0  0  0
  8  7  1  1  0  0  0
  9 18  1  1  0  0  0
  9 13  1  0  0  0  0
  9 14  1  0  0  0  0
 12 28  1  0  0  0  0
 13 26  1  0  0  0  0
 14  8  1  0  0  0  0
 15 11  1  0  0  0  0
 15 23  1  0  0  0  0
 16  1  2  0  0  0  0
 16 20  1  0  0  0  0
 17 25  1  0  0  0  0
 19 25  1  0  0  0  0
 19 15  1  0  0  0  0
 20  4  2  0  0  0  0
 21 22  2  0  0  0  0
 23  6  1  0  0  0  0
 24 12  1  0  0  0  0
 24 26  1  0  0  0  0
 25 12  1  0  0  0  0
 26 10  1  0  0  0  0
 28 10  1  0  0  0  0
 28 16  1  0  0  0  0
M  END
>  <MODEL>
5

>  <REMARK>
 VINA RESULT:      -4.6      6.000      9.001
  Name = 
  0 active torsions:
  status: ('A' for Active; 'I' for Inactive)
                            x       y       z     vdW  Elec       q    Type
                         _______ _______ _______ _____ _____    ______ ____

>  <TORSDO>
F 0

$$$$
=
 OpenBabel11122411583D

 28 32  0  0  1  0  0  0  0  0999 V2000
  181.6740  179.7420  138.7840 C   0  0  0  0  0  0  0  0  0  0  0  0
  185.2420  177.5000  135.8820 F   0  0  0  0  0  0  0  0  0  0  0  0
  179.0060  176.5970  136.7790 O   0  0  0  0  0  0  0  0  0  0  0  0
  181.4470  178.1430  141.0700 C   0  0  0  0  0  3  0  0  0  0  0  0
  181.1130  175.4520  137.0090 C   0  0  1  0  0  3  0  0  0  0  0  0
  181.7550  180.5050  137.6190 O   0  0  0  0  0  0  0  0  0  0  0  0
  186.3770  178.2120  137.8200 C   0  0  0  0  0  1  0  0  0  0  0  0
  185.5120  177.1360  137.1940 C   0  0  1  0  0  0  0  0  0  0  0  0
  185.4290  174.7330  136.6360 C   0  0  1  0  0  3  0  0  0  0  0  0
  184.2080  176.9900  138.0230 C   0  0  2  0  0  3  0  0  0  0  0  0
  178.9320  179.3900  137.4570 F   0  0  0  0  0  0  0  0  0  0  0  0
  182.4150  177.4940  136.5090 C   0  0  1  0  0  3  0  0  0  0  0  0
  184.2690  174.5250  137.5940 C   0  0  0  0  0  2  0  0  0  0  0  0
  186.3020  175.8410  137.1820 C   0  0  0  0  0  2  0  0  0  0  0  0
  179.6950  179.9450  136.4460 C   0  0  2  0  0  3  0  0  0  0  0  0
  182.3920  178.5390  138.8630 C   0  0  0  0  0  0  0  0  0  0  0  0
  180.2640  176.6390  136.7850 C   0  0  0  0  0  0  0  0  0  0  0  0
  186.1720  173.5580  136.5450 O   0  0  0  0  0  1  0  0  0  0  0  0
  180.4560  178.8740  135.6540 C   0  0  0  0  0  2  0  0  0  0  0  0
  182.2620  177.7390  140.0100 C   0  0  0  0  0  3  0  0  0  0  0  0
  180.8520  180.1430  139.8470 C   0  0  0  0  0  3  0  0  0  0  0  0
  180.7440  179.3470  140.9890 C   0  0  0  0  0  3  0  0  0  0  0  0
  180.6040  181.0490  136.9860 C   0  0  0  0  0  2  0  0  0  0  0  0
  182.5310  175.9730  136.6910 C   0  0  1  0  0  3  0  0  0  0  0  0
  180.9950  177.8230  136.5160 N   0  0  0  0  0  0  0  0  0  0  0  0
  183.4630  175.7370  137.7950 N   0  0  2  0  0  0  0  0  0  0  0  0
  180.9910  175.0430  138.3410 O   0  0  0  0  0  1  0  0  0  0  0  0
  183.2240  178.1010  137.6710 C   0  0  1  0  0  3  0  0  0  0  0  0
  1 16  2  0  0  0  0
  1 21  1  0  0  0  0
  2  8  1  0  0  0  0
  3 17  2  0  0  0  0
  5 27  1  1  0  0  0
  6  1  1  0  0  0  0
  8  7  1  1  0  0  0
  8 10  1  0  0  0  0
  9 18  1  1  0  0  0
  9 14  1  0  0  0  0
  9 13  1  0  0  0  0
 12 25  1  0  0  0  0
 12 24  1  0  0  0  0
 12 28  1  0  0  0  0
 13 26  1  0  0  0  0
 14  8  1  0  0  0  0
 15 23  1  0  0  0  0
 15 11  1  0  0  0  0
 16 20  1  0  0  0  0
 17  5  1  0  0  0  0
 19 15  1  0  0  0  0
 19 25  1  0  0  0  0
 20  4  2  0  0  0  0
 21 22  2  0  0  0  0
 22  4  1  0  0  0  0
 23  6  1  0  0  0  0
 24  5  1  0  0  0  0
 24 26  1  0  0  0  0
 25 17  1  0  0  0  0
 26 10  1  0  0  0  0
 28 10  1  0  0  0  0
 28 16  1  0  0  0  0
M  END
>  <MODEL>
6

>  <REMARK>
 VINA RESULT:      -4.5      3.156      5.119
  Name = 
  0 active torsions:
  status: ('A' for Active; 'I' for Inactive)
                            x       y       z     vdW  Elec       q    Type
                         _______ _______ _______ _____ _____    ______ ____

>  <TORSDO>
F 0

$$$$
=
 OpenBabel11122411583D

 28 32  0  0  1  0  0  0  0  0999 V2000
  180.7860  178.7270  138.1600 C   0  0  0  0  0  0  0  0  0  0  0  0
  181.0610  173.6180  138.0550 F   0  0  0  0  0  0  0  0  0  0  0  0
  185.3530  178.3180  138.1330 O   0  0  0  0  0  0  0  0  0  0  0  0
  181.0740  179.5520  135.5000 C   0  0  0  0  0  3  0  0  0  0  0  0
  184.6360  176.4630  136.7730 C   0  0  1  0  0  3  0  0  0  0  0  0
  180.6950  178.3110  139.4880 O   0  0  0  0  0  0  0  0  0  0  0  0
  179.0980  174.1580  136.8680 C   0  0  0  0  0  1  0  0  0  0  0  0
  180.6060  174.0160  136.8060 C   0  0  1  0  0  0  0  0  0  0  0  0
  182.4410  172.8250  135.6630 C   0  0  1  0  0  3  0  0  0  0  0  0
  181.2240  175.3760  136.3830 C   0  0  2  0  0  3  0  0  0  0  0  0
  183.3200  179.8430  139.4770 F   0  0  0  0  0  0  0  0  0  0  0  0
  182.6580  176.0300  138.1930 C   0  0  1  0  0  3  0  0  0  0  0  0
  182.9550  174.1280  135.0750 C   0  0  0  0  0  2  0  0  0  0  0  0
  180.9380  172.9280  135.8020 C   0  0  0  0  0  2  0  0  0  0  0  0
  182.8600  178.9350  140.4130 C   0  0  2  0  0  3  0  0  0  0  0  0
  181.0690  177.7770  137.1660 C   0  0  0  0  0  0  0  0  0  0  0  0
  184.5050  177.4190  137.8910 C   0  0  0  0  0  0  0  0  0  0  0  0
  182.7570  171.7730  134.8060 O   0  0  0  0  0  1  0  0  0  0  0  0
  183.3720  177.5170  140.1300 C   0  0  0  0  0  2  0  0  0  0  0  0
  181.2230  178.2050  135.8360 C   0  0  0  0  0  3  0  0  0  0  0  0
  180.6430  180.0800  137.8210 C   0  0  0  0  0  3  0  0  0  0  0  0
  180.7820  180.4900  136.4930 C   0  0  0  0  0  3  0  0  0  0  0  0
  181.3380  179.0080  140.5470 C   0  0  0  0  0  2  0  0  0  0  0  0
  183.5000  175.4530  137.0440 C   0  0  1  0  0  3  0  0  0  0  0  0
  183.3650  177.1980  138.7030 N   0  0  0  0  0  0  0  0  0  0  0  0
  182.6120  175.3020  135.8900 N   0  0  2  0  0  0  0  0  0  0  0  0
  184.4580  177.1400  135.5630 O   0  0  0  0  0  1  0  0  0  0  0  0
  181.2810  176.3300  137.5720 C   0  0  1  0  0  3  0  0  0  0  0  0
  1  6  1  0  0  0  0
  4 20  2  0  0  0  0
  4 22  1  0  0  0  0
  5 27  1  6  0  0  0
  5 24  1  0  0  0  0
  5 17  1  0  0  0  0
  6 23  1  0  0  0  0
  8  7  1  1  0  0  0
  8  2  1  0  0  0  0
  9 18  1  6  0  0  0
  9 14  1  0  0  0  0
 10  8  1  0  0  0  0
 10 28  1  0  0  0  0
 11 15  1  0  0  0  0
 12 25  1  0  0  0  0
 13  9  1  0  0  0  0
 13 26  1  0  0  0  0
 14  8  1  0  0  0  0
 15 23  1  0  0  0  0
 16 28  1  0  0  0  0
 16  1  2  0  0  0  0
 17  3  2  0  0  0  0
 17 25  1  0  0  0  0
 19 15  1  0  0  0  0
 20 16  1  0  0  0  0
 21  1  1  0  0  0  0
 22 21  2  0  0  0  0
 24 12  1  0  0  0  0
 25 19  1  0  0  0  0
 26 10  1  0  0  0  0
 26 24  1  0  0  0  0
 28 12  1  0  0  0  0
M  END
>  <MODEL>
7

>  <REMARK>
 VINA RESULT:      -4.5      2.597      6.397
  Name = 
  0 active torsions:
  status: ('A' for Active; 'I' for Inactive)
                            x       y       z     vdW  Elec       q    Type
                         _______ _______ _______ _____ _____    ______ ____

>  <TORSDO>
F 0

$$$$
=
 OpenBabel11122411583D

 28 32  0  0  1  0  0  0  0  0999 V2000
  184.9870  174.8800  137.1880 C   0  0  0  0  0  0  0  0  0  0  0  0
  181.7270  176.8730  140.5920 F   0  0  0  0  0  0  0  0  0  0  0  0
  181.2060  174.8070  134.5940 O   0  0  0  0  0  0  0  0  0  0  0  0
  185.7820  177.0170  135.5640 C   0  0  0  0  0  3  0  0  0  0  0  0
  180.9160  176.7990  135.9170 C   0  0  1  0  0  3  0  0  0  0  0  0
  184.5460  173.8110  137.9680 O   0  0  0  0  0  0  0  0  0  0  0  0
  183.8060  177.8780  141.0620 C   0  0  0  0  0  1  0  0  0  0  0  0
  182.5640  177.9060  140.1930 C   0  0  1  0  0  0  0  0  0  0  0  0
  180.6520  179.3090  139.5110 C   0  0  1  0  0  3  0  0  0  0  0  0
  182.9850  177.7540  138.7070 C   0  0  2  0  0  3  0  0  0  0  0  0
  183.4340  173.1040  135.2290 F   0  0  0  0  0  0  0  0  0  0  0  0
  181.9100  175.7560  137.9260 C   0  0  1  0  0  3  0  0  0  0  0  0
  181.1510  179.3370  138.0770 C   0  0  0  0  0  2  0  0  0  0  0  0
  181.8510  179.2240  140.4290 C   0  0  0  0  0  2  0  0  0  0  0  0
  183.0610  172.6020  136.4630 C   0  0  2  0  0  3  0  0  0  0  0  0
  184.3930  176.1400  137.3600 C   0  0  0  0  0  0  0  0  0  0  0  0
  181.3720  175.4140  135.6840 C   0  0  0  0  0  0  0  0  0  0  0  0
  179.9440  180.4780  139.7790 O   0  0  0  0  0  1  0  0  0  0  0  0
  181.8690  173.3670  137.0510 C   0  0  0  0  0  2  0  0  0  0  0  0
  184.7910  177.2020  136.5310 C   0  0  0  0  0  3  0  0  0  0  0  0
  185.9770  174.6950  136.2120 C   0  0  0  0  0  3  0  0  0  0  0  0
  186.3770  175.7630  135.4060 C   0  0  0  0  0  3  0  0  0  0  0  0
  184.2570  172.5340  137.4130 C   0  0  0  0  0  2  0  0  0  0  0  0
  181.1380  176.9890  137.4330 C   0  0  1  0  0  3  0  0  0  0  0  0
  181.9630  174.8070  136.8200 N   0  0  0  0  0  0  0  0  0  0  0  0
  181.9610  178.1630  137.7260 N   0  0  2  0  0  0  0  0  0  0  0  0
  181.6990  177.6760  135.1590 O   0  0  0  0  0  1  0  0  0  0  0  0
  183.2800  176.2940  138.3800 C   0  0  1  0  0  3  0  0  0  0  0  0
  1 16  1  0  0  0  0
  1  6  1  0  0  0  0
  3 17  2  0  0  0  0
  4 20  1  0  0  0  0
  5 27  1  6  0  0  0
  5 24  1  0  0  0  0
  8 14  1  0  0  0  0
  8  2  1  0  0  0  0
  8  7  1  1  0  0  0
  9 18  1  1  0  0  0
  9 14  1  0  0  0  0
 10  8  1  0  0  0  0
 11 15  1  0  0  0  0
 12 28  1  0  0  0  0
 13  9  1  0  0  0  0
 15 19  1  0  0  0  0
 15 23  1  0  0  0  0
 16 28  1  0  0  0  0
 17  5  1  0  0  0  0
 17 25  1  0  0  0  0
 20 16  2  0  0  0  0
 21  1  2  0  0  0  0
 22  4  2  0  0  0  0
 22 21  1  0  0  0  0
 23  6  1  0  0  0  0
 24 26  1  0  0  0  0
 24 12  1  0  0  0  0
 25 19  1  0  0  0  0
 25 12  1  0  0  0  0
 26 13  1  0  0  0  0
 26 10  1  0  0  0  0
 28 10  1  0  0  0  0
M  END
>  <MODEL>
8

>  <REMARK>
 VINA RESULT:      -4.4      2.758      4.654
  Name = 
  0 active torsions:
  status: ('A' for Active; 'I' for Inactive)
                            x       y       z     vdW  Elec       q    Type
                         _______ _______ _______ _____ _____    ______ ____

>  <TORSDO>
F 0

$$$$
=
 OpenBabel11122411583D

 28 32  0  0  1  0  0  0  0  0999 V2000
  187.4710  177.3470  137.3670 C   0  0  0  0  0  0  0  0  0  0  0  0
  187.5920  172.2540  137.8440 F   0  0  0  0  0  0  0  0  0  0  0  0
  191.9940  176.7530  136.8980 O   0  0  0  0  0  0  0  0  0  0  0  0
  187.4830  177.8470  134.6130 C   0  0  0  0  0  3  0  0  0  0  0  0
  191.0780  174.7840  135.8540 C   0  0  1  0  0  3  0  0  0  0  0  0
  187.5180  177.0910  138.7380 O   0  0  0  0  0  0  0  0  0  0  0  0
  185.5250  172.7310  136.8190 C   0  0  0  0  0  1  0  0  0  0  0  0
  187.0120  172.5230  136.6120 C   0  0  1  0  0  0  0  0  0  0  0  0
  188.6740  171.1340  135.4280 C   0  0  1  0  0  3  0  0  0  0  0  0
  187.6160  173.7990  135.9660 C   0  0  2  0  0  3  0  0  0  0  0  0
  190.1660  178.5040  138.2610 F   0  0  0  0  0  0  0  0  0  0  0  0
  189.2600  174.5980  137.5200 C   0  0  1  0  0  3  0  0  0  0  0  0
  189.1550  172.3380  134.6380 C   0  0  0  0  0  2  0  0  0  0  0  0
  187.1990  171.3130  135.7150 C   0  0  0  0  0  2  0  0  0  0  0  0
  189.7890  177.7290  139.3430 C   0  0  2  0  0  3  0  0  0  0  0  0
  187.6150  176.2780  136.4690 C   0  0  0  0  0  0  0  0  0  0  0  0
  191.0990  175.8680  136.8570 C   0  0  0  0  0  0  0  0  0  0  0  0
  188.8630  169.9780  134.6740 O   0  0  0  0  0  1  0  0  0  0  0  0
  190.2270  176.2690  139.1780 C   0  0  0  0  0  2  0  0  0  0  0  0
  187.6320  176.5430  135.0890 C   0  0  0  0  0  3  0  0  0  0  0  0
  187.3280  178.6560  136.8870 C   0  0  0  0  0  3  0  0  0  0  0  0
  187.3300  178.9040  135.5130 C   0  0  0  0  0  3  0  0  0  0  0  0
  188.2950  177.8790  139.6310 C   0  0  0  0  0  2  0  0  0  0  0  0
  189.9520  173.8590  136.3640 C   0  0  1  0  0  3  0  0  0  0  0  0
  190.0520  175.7880  137.8080 N   0  0  0  0  0  0  0  0  0  0  0  0
  188.9380  173.6110  135.3380 N   0  0  2  0  0  0  0  0  0  0  0  0
  190.7850  175.3240  134.5980 O   0  0  0  0  0  1  0  0  0  0  0  0
  187.8310  174.8800  137.0200 C   0  0  1  0  0  3  0  0  0  0  0  0
  1  6  1  0  0  0  0
  4 20  2  0  0  0  0
  4 22  1  0  0  0  0
  5 27  1  6  0  0  0
  5 24  1  0  0  0  0
  5 17  1  0  0  0  0
  6 23  1  0  0  0  0
  8  7  1  1  0  0  0
  8  2  1  0  0  0  0
  9 18  1  6  0  0  0
  9 14  1  0  0  0  0
 10  8  1  0  0  0  0
 10 28  1  0  0  0  0
 11 15  1  0  0  0  0
 12 25  1  0  0  0  0
 13 26  1  0  0  0  0
 13  9  1  0  0  0  0
 14  8  1  0  0  0  0
 15 23  1  0  0  0  0
 16 28  1  0  0  0  0
 16  1  2  0  0  0  0
 17  3  2  0  0  0  0
 17 25  1  0  0  0  0
 19 15  1  0  0  0  0
 20 16  1  0  0  0  0
 21  1  1  0  0  0  0
 22 21  2  0  0  0  0
 24 12  1  0  0  0  0
 25 19  1  0  0  0  0
 26 10  1  0  0  0  0
 26 24  1  0  0  0  0
 28 12  1  0  0  0  0
M  END
>  <MODEL>
9

>  <REMARK>
 VINA RESULT:      -4.4      6.733      9.693
  Name = 
  0 active torsions:
  status: ('A' for Active; 'I' for Inactive)
                            x       y       z     vdW  Elec       q    Type
                         _______ _______ _______ _____ _____    ______ ____

>  <TORSDO>
F 0

$$$$
