=
 OpenBabel11122411503D

 28 32  0  0  1  0  0  0  0  0999 V2000
  189.3120  178.1140  139.0760 C   0  0  0  0  0  0  0  0  0  0  0  0
  193.4620  177.4100  139.1110 O   0  0  0  0  0  0  0  0  0  0  0  0
  187.8500  173.5630  136.7320 O   0  0  0  0  0  0  0  0  0  0  0  0
  190.1450  176.6640  141.3260 C   0  0  0  0  0  3  0  0  0  0  0  0
  189.9120  174.1580  135.7750 N   0  0  0  0  0  0  0  0  0  0  0  0
  188.7770  178.8690  137.8960 C   0  0  0  0  0  2  0  0  0  0  0  0
  194.1180  175.0400  139.0650 O   0  0  0  0  0  0  0  0  0  0  0  0
  193.5750  176.1800  138.2530 S   0  0  0  0  0  0  0  0  0  0  0  0
  194.1250  176.5360  135.5990 C   0  0  0  0  0  0  0  0  0  0  0  0
  191.9890  175.7160  137.5850 C   0  0  2  0  0  3  0  0  0  0  0  0
  185.4880  177.2600  137.3390 N   0  0  0  0  0  2  0  0  0  0  0  0
  189.9700  176.4480  136.4550 C   0  0  1  0  0  3  0  0  0  0  0  0
  192.9690  176.0290  135.2900 N   0  0  0  0  0  0  0  0  0  0  0  0
  194.6290  176.4970  136.9300 N   0  0  0  0  0  2  0  0  0  0  0  0
  186.7560  177.4510  137.1950 C   0  0  0  0  0  0  0  0  0  0  0  0
  190.2950  177.1060  138.9330 C   0  0  0  0  0  0  0  0  0  0  0  0
  188.7290  174.4340  136.4950 C   0  0  0  0  0  0  0  0  0  0  0  0
  194.8840  177.1950  134.5940 N   0  0  0  0  0  1  0  0  0  0  0  0
  187.5050  176.5570  136.2560 C   0  0  0  0  0  2  0  0  0  0  0  0
  190.6900  176.3840  140.0730 C   0  0  0  0  0  3  0  0  0  0  0  0
  188.7800  178.3940  140.3430 C   0  0  0  0  0  3  0  0  0  0  0  0
  189.1950  177.6740  141.4630 C   0  0  0  0  0  3  0  0  0  0  0  0
  187.3450  178.6310  137.7590 N   0  0  0  0  0  2  0  0  0  0  0  0
  190.6750  175.3770  135.5950 C   0  0  1  0  0  3  0  0  0  0  0  0
  188.6470  175.8370  136.9520 C   0  0  2  0  0  3  0  0  0  0  0  0
  192.0840  175.2250  136.1430 C   0  0  2  0  0  3  0  0  0  0  0  0
  190.1570  172.9280  135.0390 C   0  0  0  0  0  1  0  0  0  0  0  0
  190.9450  176.8250  137.5830 C   0  0  1  0  0  3  0  0  0  0  0  0
  1 21  1  0  0  0  0
  4 22  1  0  0  0  0
  5 17  1  0  0  0  0
  6  1  1  0  0  0  0
  8  7  2  0  0  0  0
  8  2  2  0  0  0  0
  9 14  1  0  0  0  0
 10  8  1  6  0  0  0
 12 25  1  0  0  0  0
 12 28  1  0  0  0  0
 13  9  2  0  0  0  0
 13 26  1  0  0  0  0
 14  8  1  0  0  0  0
 15 11  2  0  0  0  0
 15 23  1  0  0  0  0
 16  1  2  0  0  0  0
 16 20  1  0  0  0  0
 17  3  2  0  0  0  0
 17 25  1  0  0  0  0
 18  9  1  0  0  0  0
 19 25  1  0  0  0  0
 19 15  1  0  0  0  0
 20  4  2  0  0  0  0
 21 22  2  0  0  0  0
 23  6  1  0  0  0  0
 24  5  1  0  0  0  0
 24 26  1  0  0  0  0
 24 12  1  0  0  0  0
 26 10  1  0  0  0  0
 27  5  1  0  0  0  0
 28 10  1  0  0  0  0
 28 16  1  0  0  0  0
M  END
>  <MODEL>
1

>  <REMARK>
 VINA RESULT:      -6.2      0.000      0.000
  Name = 
  0 active torsions:
  status: ('A' for Active; 'I' for Inactive)
                            x       y       z     vdW  Elec       q    Type
                         _______ _______ _______ _____ _____    ______ ____

>  <TORSDO>
F 0

$$$$
=
 OpenBabel11122411503D

 28 32  0  0  1  0  0  0  0  0999 V2000
  184.4830  175.1030  136.8940 C   0  0  0  0  0  0  0  0  0  0  0  0
  185.9310  178.4880  138.9350 O   0  0  0  0  0  0  0  0  0  0  0  0
  179.3200  176.3970  136.9690 O   0  0  0  0  0  0  0  0  0  0  0  0
  184.9800  177.2680  135.1830 C   0  0  0  0  0  3  0  0  0  0  0  0
  180.2200  177.1880  138.9900 N   0  0  0  0  0  0  0  0  0  0  0  0
  184.1720  173.9030  137.7380 C   0  0  0  0  0  2  0  0  0  0  0  0
  184.5070  180.4870  138.7820 O   0  0  0  0  0  0  0  0  0  0  0  0
  184.6580  179.1320  139.4100 S   0  0  0  0  0  0  0  0  0  0  0  0
  183.8110  178.5420  141.9420 C   0  0  0  0  0  0  0  0  0  0  0  0
  183.2400  178.1350  138.9940 C   0  0  2  0  0  3  0  0  0  0  0  0
  181.1920  172.4900  136.0540 N   0  0  0  0  0  2  0  0  0  0  0  0
  182.2460  175.9210  138.9940 C   0  0  1  0  0  3  0  0  0  0  0  0
  182.7470  177.9750  141.4550 N   0  0  0  0  0  0  0  0  0  0  0  0
  184.7000  179.2940  141.1220 N   0  0  0  0  0  2  0  0  0  0  0  0
  181.8480  173.2150  136.8960 C   0  0  0  0  0  0  0  0  0  0  0  0
  184.1420  176.4130  137.3080 C   0  0  0  0  0  0  0  0  0  0  0  0
  180.2360  176.3790  137.8330 C   0  0  0  0  0  0  0  0  0  0  0  0
  184.1250  178.3620  143.3160 N   0  0  0  0  0  1  0  0  0  0  0  0
  181.0720  174.0620  137.8560 C   0  0  0  0  0  2  0  0  0  0  0  0
  184.3910  177.4830  136.4290 C   0  0  0  0  0  3  0  0  0  0  0  0
  185.0860  174.9020  135.6450 C   0  0  0  0  0  3  0  0  0  0  0  0
  185.3350  175.9780  134.7940 C   0  0  0  0  0  3  0  0  0  0  0  0
  183.2620  173.0140  137.0250 N   0  0  0  0  0  2  0  0  0  0  0  0
  181.3630  176.8760  139.8250 C   0  0  1  0  0  3  0  0  0  0  0  0
  181.4430  175.5310  137.7390 C   0  0  2  0  0  3  0  0  0  0  0  0
  182.1920  178.1190  140.1030 C   0  0  2  0  0  3  0  0  0  0  0  0
  179.0720  177.9590  139.4380 C   0  0  0  0  0  1  0  0  0  0  0  0
  183.5510  176.6750  138.6880 C   0  0  1  0  0  3  0  0  0  0  0  0
  1 16  1  0  0  0  0
  1  6  1  0  0  0  0
  2  8  2  0  0  0  0
  3 17  2  0  0  0  0
  4 20  1  0  0  0  0
  5 27  1  0  0  0  0
  5 24  1  0  0  0  0
  7  8  2  0  0  0  0
  8 14  1  0  0  0  0
  9 18  1  0  0  0  0
 10  8  1  1  0  0  0
 10 26  1  0  0  0  0
 11 15  2  0  0  0  0
 12 24  1  0  0  0  0
 13  9  2  0  0  0  0
 14  9  1  0  0  0  0
 15 23  1  0  0  0  0
 15 19  1  0  0  0  0
 16 28  1  0  0  0  0
 17  5  1  0  0  0  0
 20 16  2  0  0  0  0
 21  1  2  0  0  0  0
 22  4  2  0  0  0  0
 22 21  1  0  0  0  0
 23  6  1  0  0  0  0
 24 26  1  0  0  0  0
 25 17  1  0  0  0  0
 25 19  1  0  0  0  0
 25 12  1  0  0  0  0
 26 13  1  0  0  0  0
 28 12  1  0  0  0  0
 28 10  1  0  0  0  0
M  END
>  <MODEL>
2

>  <REMARK>
 VINA RESULT:      -5.7      6.860      9.158
  Name = 
  0 active torsions:
  status: ('A' for Active; 'I' for Inactive)
                            x       y       z     vdW  Elec       q    Type
                         _______ _______ _______ _____ _____    ______ ____

>  <TORSDO>
F 0

$$$$
=
 OpenBabel11122411503D

 28 32  0  0  1  0  0  0  0  0999 V2000
  180.0770  179.3780  141.0910 C   0  0  0  0  0  0  0  0  0  0  0  0
  178.9310  178.3660  137.1690 O   0  0  0  0  0  0  0  0  0  0  0  0
  185.3100  179.7980  140.2040 O   0  0  0  0  0  0  0  0  0  0  0  0
  179.6430  181.6280  139.4760 C   0  0  0  0  0  3  0  0  0  0  0  0
  184.5470  178.0700  138.8060 N   0  0  0  0  0  0  0  0  0  0  0  0
  180.3480  178.2310  142.0190 C   0  0  0  0  0  2  0  0  0  0  0  0
  180.4690  179.1210  135.4050 O   0  0  0  0  0  0  0  0  0  0  0  0
  180.2600  178.1260  136.5100 S   0  0  0  0  0  0  0  0  0  0  0  0
  181.1760  175.5520  136.4110 C   0  0  0  0  0  0  0  0  0  0  0  0
  181.5940  178.2700  137.6840 C   0  0  2  0  0  3  0  0  0  0  0  0
  183.1600  179.5060  144.0650 N   0  0  0  0  0  2  0  0  0  0  0  0
  182.4480  177.6550  139.8700 C   0  0  1  0  0  3  0  0  0  0  0  0
  182.1810  175.8790  137.1680 N   0  0  0  0  0  0  0  0  0  0  0  0
  180.3010  176.5320  135.8620 N   0  0  0  0  0  2  0  0  0  0  0  0
  182.5870  178.8930  143.0840 C   0  0  0  0  0  0  0  0  0  0  0  0
  180.5160  179.3670  139.7460 C   0  0  0  0  0  0  0  0  0  0  0  0
  184.4310  178.9440  139.9080 C   0  0  0  0  0  0  0  0  0  0  0  0
  180.9110  174.1770  136.1670 N   0  0  0  0  0  1  0  0  0  0  0  0
  183.4550  178.2360  142.0560 C   0  0  0  0  0  2  0  0  0  0  0  0
  180.2970  180.5100  138.9570 C   0  0  0  0  0  3  0  0  0  0  0  0
  179.4100  180.5020  141.5980 C   0  0  0  0  0  3  0  0  0  0  0  0
  179.1930  181.6210  140.7940 C   0  0  0  0  0  3  0  0  0  0  0  0
  181.1700  178.6790  143.1370 N   0  0  0  0  0  2  0  0  0  0  0  0
  183.4240  177.1550  138.7830 C   0  0  1  0  0  3  0  0  0  0  0  0
  183.1710  178.7620  140.6590 C   0  0  2  0  0  3  0  0  0  0  0  0
  182.6850  177.2280  137.4570 C   0  0  2  0  0  3  0  0  0  0  0  0
  185.7590  177.8900  138.0240 C   0  0  0  0  0  1  0  0  0  0  0  0
  181.1800  178.1350  139.1430 C   0  0  1  0  0  3  0  0  0  0  0  0
  1 21  1  0  0  0  0
  1  6  1  0  0  0  0
  4 22  1  0  0  0  0
  5 17  1  0  0  0  0
  6 23  1  0  0  0  0
  7  8  2  0  0  0  0
  8  2  2  0  0  0  0
  9 13  2  0  0  0  0
 10  8  1  6  0  0  0
 10 28  1  0  0  0  0
 12 25  1  0  0  0  0
 13 26  1  0  0  0  0
 14  9  1  0  0  0  0
 14  8  1  0  0  0  0
 15 23  1  0  0  0  0
 15 11  2  0  0  0  0
 16  1  2  0  0  0  0
 17  3  2  0  0  0  0
 17 25  1  0  0  0  0
 18  9  1  0  0  0  0
 19 15  1  0  0  0  0
 20  4  2  0  0  0  0
 20 16  1  0  0  0  0
 22 21  2  0  0  0  0
 24  5  1  0  0  0  0
 24 12  1  0  0  0  0
 25 19  1  0  0  0  0
 26 10  1  0  0  0  0
 26 24  1  0  0  0  0
 27  5  1  0  0  0  0
 28 16  1  0  0  0  0
 28 12  1  0  0  0  0
M  END
>  <MODEL>
3

>  <REMARK>
 VINA RESULT:      -5.7      6.995     10.375
  Name = 
  0 active torsions:
  status: ('A' for Active; 'I' for Inactive)
                            x       y       z     vdW  Elec       q    Type
                         _______ _______ _______ _____ _____    ______ ____

>  <TORSDO>
F 0

$$$$
=
 OpenBabel11122411503D

 28 32  0  0  1  0  0  0  0  0999 V2000
  183.2120  175.1830  136.8430 C   0  0  0  0  0  0  0  0  0  0  0  0
  186.9580  176.7520  137.9530 O   0  0  0  0  0  0  0  0  0  0  0  0
  180.5790  179.8000  136.5510 O   0  0  0  0  0  0  0  0  0  0  0  0
  184.7620  175.9500  134.6360 C   0  0  0  0  0  3  0  0  0  0  0  0
  182.1230  180.0390  138.3060 N   0  0  0  0  0  0  0  0  0  0  0  0
  182.3100  174.7640  137.9660 C   0  0  0  0  0  2  0  0  0  0  0  0
  187.3520  179.0850  137.2820 O   0  0  0  0  0  0  0  0  0  0  0  0
  186.6200  178.1890  138.2390 S   0  0  0  0  0  0  0  0  0  0  0  0
  186.0850  178.8700  140.8320 C   0  0  0  0  0  0  0  0  0  0  0  0
  184.8670  178.4790  138.0840 C   0  0  2  0  0  3  0  0  0  0  0  0
  178.9590  175.6810  136.6840 N   0  0  0  0  0  2  0  0  0  0  0  0
  182.6290  177.7300  138.6480 C   0  0  1  0  0  3  0  0  0  0  0  0
  184.8650  179.1770  140.5010 N   0  0  0  0  0  0  0  0  0  0  0  0
  187.0750  178.5770  139.8520 N   0  0  0  0  0  2  0  0  0  0  0  0
  180.0730  175.8400  137.3150 C   0  0  0  0  0  0  0  0  0  0  0  0
  183.9720  176.3750  136.9040 C   0  0  0  0  0  0  0  0  0  0  0  0
  181.3550  179.2800  137.3970 C   0  0  0  0  0  0  0  0  0  0  0  0
  186.4260  178.7730  142.2080 N   0  0  0  0  0  1  0  0  0  0  0  0
  180.3090  177.1400  138.0190 C   0  0  0  0  0  2  0  0  0  0  0  0
  184.7340  176.7460  135.7810 C   0  0  0  0  0  3  0  0  0  0  0  0
  183.2580  174.3850  135.6920 C   0  0  0  0  0  3  0  0  0  0  0  0
  184.0290  174.7660  134.5940 C   0  0  0  0  0  3  0  0  0  0  0  0
  180.9300  174.7050  137.5000 N   0  0  0  0  0  2  0  0  0  0  0  0
  182.8430  179.1550  139.2000 C   0  0  1  0  0  3  0  0  0  0  0  0
  181.5730  177.8250  137.5310 C   0  0  2  0  0  3  0  0  0  0  0  0
  184.3380  179.4300  139.1540 C   0  0  2  0  0  3  0  0  0  0  0  0
  181.9550  181.4660  138.5330 C   0  0  0  0  0  1  0  0  0  0  0  0
  184.0020  177.2280  138.1660 C   0  0  1  0  0  3  0  0  0  0  0  0
  1 16  1  0  0  0  0
  1  6  1  0  0  0  0
  2  8  2  0  0  0  0
  3 17  2  0  0  0  0
  4 20  1  0  0  0  0
  5 27  1  0  0  0  0
  5 24  1  0  0  0  0
  7  8  2  0  0  0  0
  8 14  1  0  0  0  0
  9 18  1  0  0  0  0
 10 28  1  0  0  0  0
 10  8  1  1  0  0  0
 10 26  1  0  0  0  0
 11 15  2  0  0  0  0
 12 24  1  0  0  0  0
 13  9  2  0  0  0  0
 14  9  1  0  0  0  0
 15 23  1  0  0  0  0
 15 19  1  0  0  0  0
 16 28  1  0  0  0  0
 17 25  1  0  0  0  0
 17  5  1  0  0  0  0
 20 16  2  0  0  0  0
 21  1  2  0  0  0  0
 22  4  2  0  0  0  0
 22 21  1  0  0  0  0
 23  6  1  0  0  0  0
 25 19  1  0  0  0  0
 25 12  1  0  0  0  0
 26 24  1  0  0  0  0
 26 13  1  0  0  0  0
 28 12  1  0  0  0  0
M  END
>  <MODEL>
4

>  <REMARK>
 VINA RESULT:      -5.6      5.860      8.501
  Name = 
  0 active torsions:
  status: ('A' for Active; 'I' for Inactive)
                            x       y       z     vdW  Elec       q    Type
                         _______ _______ _______ _____ _____    ______ ____

>  <TORSDO>
F 0

$$$$
=
 OpenBabel11122411503D

 28 32  0  0  1  0  0  0  0  0999 V2000
  186.3400  176.0820  135.3370 C   0  0  0  0  0  0  0  0  0  0  0  0
  182.6060  176.7740  137.1520 O   0  0  0  0  0  0  0  0  0  0  0  0
  189.3490  176.6280  139.6950 O   0  0  0  0  0  0  0  0  0  0  0  0
  185.2190  173.7550  136.4280 C   0  0  0  0  0  3  0  0  0  0  0  0
  187.5750  178.1520  139.9310 N   0  0  0  0  0  0  0  0  0  0  0  0
  187.0210  177.2790  134.7440 C   0  0  0  0  0  2  0  0  0  0  0  0
  182.5090  176.2810  139.5600 O   0  0  0  0  0  0  0  0  0  0  0  0
  183.0100  177.2450  138.5220 S   0  0  0  0  0  0  0  0  0  0  0  0
  183.1890  179.9410  138.9320 C   0  0  0  0  0  0  0  0  0  0  0  0
  184.7820  177.3780  138.6590 C   0  0  2  0  0  3  0  0  0  0  0  0
  190.5930  176.5990  135.4460 N   0  0  0  0  0  2  0  0  0  0  0  0
  186.8380  178.1900  137.6580 C   0  0  1  0  0  3  0  0  0  0  0  0
  184.4650  179.8250  139.1490 N   0  0  0  0  0  0  0  0  0  0  0  0
  182.3420  178.8020  138.8150 N   0  0  0  0  0  2  0  0  0  0  0  0
  189.4110  177.0720  135.6550 C   0  0  0  0  0  0  0  0  0  0  0  0
  185.6780  176.1450  136.5860 C   0  0  0  0  0  0  0  0  0  0  0  0
  188.4110  177.2960  139.1820 C   0  0  0  0  0  0  0  0  0  0  0  0
  182.6320  181.2370  138.7520 N   0  0  0  0  0  1  0  0  0  0  0  0
  189.1740  177.8560  136.9080 C   0  0  0  0  0  2  0  0  0  0  0  0
  185.1320  174.9630  137.1190 C   0  0  0  0  0  3  0  0  0  0  0  0
  186.4100  174.8640  134.6460 C   0  0  0  0  0  3  0  0  0  0  0  0
  185.8520  173.7060  135.1880 C   0  0  0  0  0  3  0  0  0  0  0  0
  188.4480  177.0180  134.5940 N   0  0  0  0  0  2  0  0  0  0  0  0
  186.6560  178.8400  139.0460 C   0  0  1  0  0  3  0  0  0  0  0  0
  188.0590  177.2550  137.7470 C   0  0  2  0  0  3  0  0  0  0  0  0
  185.2140  178.6010  139.4630 C   0  0  2  0  0  3  0  0  0  0  0  0
  187.8190  178.5380  141.3110 C   0  0  0  0  0  1  0  0  0  0  0  0
  185.5220  177.4650  137.3300 C   0  0  1  0  0  3  0  0  0  0  0  0
  1 16  1  0  0  0  0
  2  8  2  0  0  0  0
  4 20  1  0  0  0  0
  5 27  1  0  0  0  0
  6  1  1  0  0  0  0
  8 14  1  0  0  0  0
  8  7  2  0  0  0  0
  9 13  2  0  0  0  0
 10  8  1  6  0  0  0
 10 26  1  0  0  0  0
 11 15  2  0  0  0  0
 12 25  1  0  0  0  0
 12 24  1  0  0  0  0
 13 26  1  0  0  0  0
 14  9  1  0  0  0  0
 15 19  1  0  0  0  0
 16 20  2  0  0  0  0
 16 28  1  0  0  0  0
 17  3  2  0  0  0  0
 17  5  1  0  0  0  0
 18  9  1  0  0  0  0
 19 25  1  0  0  0  0
 21 22  1  0  0  0  0
 21  1  2  0  0  0  0
 22  4  2  0  0  0  0
 23  6  1  0  0  0  0
 23 15  1  0  0  0  0
 24 26  1  0  0  0  0
 24  5  1  0  0  0  0
 25 17  1  0  0  0  0
 28 12  1  0  0  0  0
 28 10  1  0  0  0  0
M  END
>  <MODEL>
5

>  <REMARK>
 VINA RESULT:      -5.5      3.720      7.714
  Name = 
  0 active torsions:
  status: ('A' for Active; 'I' for Inactive)
                            x       y       z     vdW  Elec       q    Type
                         _______ _______ _______ _____ _____    ______ ____

>  <TORSDO>
F 0

$$$$
=
 OpenBabel11122411503D

 28 32  0  0  1  0  0  0  0  0999 V2000
  185.7260  173.4610  136.7500 C   0  0  0  0  0  0  0  0  0  0  0  0
  187.7030  176.9250  138.0950 O   0  0  0  0  0  0  0  0  0  0  0  0
  181.4930  175.8650  134.5940 O   0  0  0  0  0  0  0  0  0  0  0  0
  187.3560  174.6100  134.7800 C   0  0  0  0  0  3  0  0  0  0  0  0
  182.0770  177.1390  136.4800 N   0  0  0  0  0  0  0  0  0  0  0  0
  184.8160  172.7920  137.7360 C   0  0  0  0  0  2  0  0  0  0  0  0
  187.1510  178.9840  136.8680 O   0  0  0  0  0  0  0  0  0  0  0  0
  186.6590  177.9840  137.8740 S   0  0  0  0  0  0  0  0  0  0  0  0
  185.0560  178.6380  139.9900 C   0  0  0  0  0  0  0  0  0  0  0  0
  185.1340  177.2690  137.2880 C   0  0  2  0  0  3  0  0  0  0  0  0
  182.0520  171.5860  135.5870 N   0  0  0  0  0  2  0  0  0  0  0  0
  183.4650  175.5320  137.5760 C   0  0  1  0  0  3  0  0  0  0  0  0
  184.0190  178.1960  139.3430 N   0  0  0  0  0  0  0  0  0  0  0  0
  186.3260  178.7810  139.3620 N   0  0  0  0  0  2  0  0  0  0  0  0
  182.6860  172.4020  136.3580 C   0  0  0  0  0  0  0  0  0  0  0  0
  185.7700  174.8690  136.6140 C   0  0  0  0  0  0  0  0  0  0  0  0
  182.0990  175.9660  135.6940 C   0  0  0  0  0  0  0  0  0  0  0  0
  184.9340  178.9360  141.3740 N   0  0  0  0  0  1  0  0  0  0  0  0
  182.0410  173.7130  136.6860 C   0  0  0  0  0  2  0  0  0  0  0  0
  186.5870  175.4230  135.6120 C   0  0  0  0  0  3  0  0  0  0  0  0
  186.5120  172.6550  135.9150 C   0  0  0  0  0  3  0  0  0  0  0  0
  187.3240  173.2260  134.9350 C   0  0  0  0  0  3  0  0  0  0  0  0
  183.8620  171.9390  137.0370 N   0  0  0  0  0  2  0  0  0  0  0  0
  182.7920  176.9140  137.7200 C   0  0  1  0  0  3  0  0  0  0  0  0
  182.9170  174.8890  136.2880 C   0  0  2  0  0  3  0  0  0  0  0  0
  183.9050  177.9330  137.9020 C   0  0  2  0  0  3  0  0  0  0  0  0
  181.1960  178.2710  136.2430 C   0  0  0  0  0  1  0  0  0  0  0  0
  184.9830  175.7770  137.5520 C   0  0  1  0  0  3  0  0  0  0  0  0
  1  6  1  0  0  0  0
  3 17  2  0  0  0  0
  4 22  2  0  0  0  0
  4 20  1  0  0  0  0
  5 24  1  0  0  0  0
  7  8  2  0  0  0  0
  8  2  2  0  0  0  0
  8 14  1  0  0  0  0
  9 18  1  0  0  0  0
 10 28  1  0  0  0  0
 10  8  1  1  0  0  0
 10 26  1  0  0  0  0
 11 15  2  0  0  0  0
 12 24  1  0  0  0  0
 13  9  2  0  0  0  0
 14  9  1  0  0  0  0
 15 19  1  0  0  0  0
 15 23  1  0  0  0  0
 16  1  1  0  0  0  0
 16 28  1  0  0  0  0
 17 25  1  0  0  0  0
 17  5  1  0  0  0  0
 20 16  2  0  0  0  0
 21  1  2  0  0  0  0
 22 21  1  0  0  0  0
 23  6  1  0  0  0  0
 24 26  1  0  0  0  0
 25 19  1  0  0  0  0
 25 12  1  0  0  0  0
 26 13  1  0  0  0  0
 27  5  1  0  0  0  0
 28 12  1  0  0  0  0
M  END
>  <MODEL>
6

>  <REMARK>
 VINA RESULT:      -5.4      5.314      7.801
  Name = 
  0 active torsions:
  status: ('A' for Active; 'I' for Inactive)
                            x       y       z     vdW  Elec       q    Type
                         _______ _______ _______ _____ _____    ______ ____

>  <TORSDO>
F 0

$$$$
=
 OpenBabel11122411503D

 28 32  0  0  1  0  0  0  0  0999 V2000
  185.9840  176.9330  137.3880 C   0  0  0  0  0  0  0  0  0  0  0  0
  182.4820  176.8760  135.0520 O   0  0  0  0  0  0  0  0  0  0  0  0
  183.6570  177.6950  142.1160 O   0  0  0  0  0  0  0  0  0  0  0  0
  184.8170  174.3870  137.2480 C   0  0  0  0  0  3  0  0  0  0  0  0
  182.3650  178.8830  140.5540 N   0  0  0  0  0  0  0  0  0  0  0  0
  186.6620  178.2620  137.5330 C   0  0  0  0  0  2  0  0  0  0  0  0
  180.4380  176.2210  136.2520 O   0  0  0  0  0  0  0  0  0  0  0  0
  181.4410  177.3180  136.0430 S   0  0  0  0  0  0  0  0  0  0  0  0
  180.8020  179.9760  136.1030 C   0  0  0  0  0  0  0  0  0  0  0  0
  182.1830  177.7370  137.6090 C   0  0  2  0  0  3  0  0  0  0  0  0
  187.9230  178.1440  141.0130 N   0  0  0  0  0  2  0  0  0  0  0  0
  183.9450  178.9430  138.7620 C   0  0  1  0  0  3  0  0  0  0  0  0
  181.2640  180.0600  137.3160 N   0  0  0  0  0  0  0  0  0  0  0  0
  180.6430  178.7210  135.4490 N   0  0  0  0  0  2  0  0  0  0  0  0
  187.0920  178.3990  140.0590 C   0  0  0  0  0  0  0  0  0  0  0  0
  184.5760  176.8050  137.4540 C   0  0  0  0  0  0  0  0  0  0  0  0
  183.5410  178.2280  140.9800 C   0  0  0  0  0  0  0  0  0  0  0  0
  180.5000  181.1690  135.3920 N   0  0  0  0  0  1  0  0  0  0  0  0
  185.7910  179.0510  140.4080 C   0  0  0  0  0  2  0  0  0  0  0  0
  184.0130  175.5180  137.3920 C   0  0  0  0  0  3  0  0  0  0  0  0
  186.7810  175.7910  137.2320 C   0  0  0  0  0  3  0  0  0  0  0  0
  186.2010  174.5240  137.1610 C   0  0  0  0  0  3  0  0  0  0  0  0
  187.5330  178.2530  138.7020 N   0  0  0  0  0  2  0  0  0  0  0  0
  182.5730  179.4630  139.2420 C   0  0  1  0  0  3  0  0  0  0  0  0
  184.6030  178.2210  139.9530 C   0  0  2  0  0  3  0  0  0  0  0  0
  181.5360  178.9610  138.2510 C   0  0  2  0  0  3  0  0  0  0  0  0
  181.2490  179.2160  141.4230 C   0  0  0  0  0  1  0  0  0  0  0  0
  183.6760  178.0310  137.5530 C   0  0  1  0  0  3  0  0  0  0  0  0
  1 16  1  0  0  0  0
  1  6  1  0  0  0  0
  2  8  2  0  0  0  0
  4 20  1  0  0  0  0
  5 17  1  0  0  0  0
  5 27  1  0  0  0  0
  6 23  1  0  0  0  0
  8  7  2  0  0  0  0
  9 13  2  0  0  0  0
 10  8  1  6  0  0  0
 10 26  1  0  0  0  0
 12 24  1  0  0  0  0
 12 25  1  0  0  0  0
 13 26  1  0  0  0  0
 14  8  1  0  0  0  0
 14  9  1  0  0  0  0
 15 19  1  0  0  0  0
 15 11  2  0  0  0  0
 16 28  1  0  0  0  0
 17  3  2  0  0  0  0
 18  9  1  0  0  0  0
 20 16  2  0  0  0  0
 21  1  2  0  0  0  0
 22 21  1  0  0  0  0
 22  4  2  0  0  0  0
 23 15  1  0  0  0  0
 24  5  1  0  0  0  0
 25 19  1  0  0  0  0
 25 17  1  0  0  0  0
 26 24  1  0  0  0  0
 28 10  1  0  0  0  0
 28 12  1  0  0  0  0
M  END
>  <MODEL>
7

>  <REMARK>
 VINA RESULT:      -5.2      5.679      9.217
  Name = 
  0 active torsions:
  status: ('A' for Active; 'I' for Inactive)
                            x       y       z     vdW  Elec       q    Type
                         _______ _______ _______ _____ _____    ______ ____

>  <TORSDO>
F 0

$$$$
=
 OpenBabel11122411503D

 28 32  0  0  1  0  0  0  0  0999 V2000
  183.2150  177.3250  136.1770 C   0  0  0  0  0  0  0  0  0  0  0  0
  186.8340  179.1470  137.3200 O   0  0  0  0  0  0  0  0  0  0  0  0
  184.4570  172.3480  137.6050 O   0  0  0  0  0  0  0  0  0  0  0  0
  183.2410  178.0840  138.8770 C   0  0  0  0  0  3  0  0  0  0  0  0
  186.4510  173.3220  136.8320 N   0  0  0  0  0  0  0  0  0  0  0  0
  183.1240  176.8700  134.7520 C   0  0  0  0  0  2  0  0  0  0  0  0
  188.0860  177.9680  139.0780 O   0  0  0  0  0  0  0  0  0  0  0  0
  187.6980  177.9550  137.6270 S   0  0  0  0  0  0  0  0  0  0  0  0
  189.3290  177.0290  135.6390 C   0  0  0  0  0  0  0  0  0  0  0  0
  186.8430  176.4330  137.2660 C   0  0  2  0  0  3  0  0  0  0  0  0
  181.1390  173.7550  135.0310 N   0  0  0  0  0  2  0  0  0  0  0  0
  185.5070  175.1850  135.6710 C   0  0  1  0  0  3  0  0  0  0  0  0
  188.6690  175.9080  135.6180 N   0  0  0  0  0  0  0  0  0  0  0  0
  189.1140  178.0050  136.6530 N   0  0  0  0  0  2  0  0  0  0  0  0
  182.2020  174.4860  134.9840 C   0  0  0  0  0  0  0  0  0  0  0  0
  184.3900  177.1370  136.9450 C   0  0  0  0  0  0  0  0  0  0  0  0
  185.0460  173.2510  136.9520 C   0  0  0  0  0  0  0  0  0  0  0  0
  190.2500  177.3100  134.5940 N   0  0  0  0  0  1  0  0  0  0  0  0
  183.5330  173.8090  135.0910 C   0  0  0  0  0  2  0  0  0  0  0  0
  184.3760  177.5150  138.2990 C   0  0  0  0  0  3  0  0  0  0  0  0
  182.0840  177.9080  136.7650 C   0  0  0  0  0  3  0  0  0  0  0  0
  182.0960  178.2870  138.1080 C   0  0  0  0  0  3  0  0  0  0  0  0
  182.0750  175.8660  134.6150 N   0  0  0  0  0  2  0  0  0  0  0  0
  186.8140  174.4150  135.9520 C   0  0  1  0  0  3  0  0  0  0  0  0
  184.3500  174.3500  136.2510 C   0  0  2  0  0  3  0  0  0  0  0  0
  187.7600  175.3830  136.6450 C   0  0  2  0  0  3  0  0  0  0  0  0
  187.3650  172.2700  137.2420 C   0  0  0  0  0  1  0  0  0  0  0  0
  185.6590  176.5720  136.3190 C   0  0  1  0  0  3  0  0  0  0  0  0
  1 21  2  0  0  0  0
  1 16  1  0  0  0  0
  2  8  2  0  0  0  0
  5 17  1  0  0  0  0
  5 27  1  0  0  0  0
  6  1  1  0  0  0  0
  8  7  2  0  0  0  0
  9 14  1  0  0  0  0
 10  8  1  6  0  0  0
 12 24  1  0  0  0  0
 12 25  1  0  0  0  0
 12 28  1  0  0  0  0
 13  9  2  0  0  0  0
 13 26  1  0  0  0  0
 14  8  1  0  0  0  0
 15 11  2  0  0  0  0
 15 19  1  0  0  0  0
 16 20  2  0  0  0  0
 17  3  2  0  0  0  0
 18  9  1  0  0  0  0
 19 25  1  0  0  0  0
 20  4  1  0  0  0  0
 21 22  1  0  0  0  0
 22  4  2  0  0  0  0
 23  6  1  0  0  0  0
 23 15  1  0  0  0  0
 24 26  1  0  0  0  0
 24  5  1  0  0  0  0
 25 17  1  0  0  0  0
 26 10  1  0  0  0  0
 28 16  1  0  0  0  0
 28 10  1  0  0  0  0
M  END
>  <MODEL>
8

>  <REMARK>
 VINA RESULT:      -5.0      3.867      5.706
  Name = 
  0 active torsions:
  status: ('A' for Active; 'I' for Inactive)
                            x       y       z     vdW  Elec       q    Type
                         _______ _______ _______ _____ _____    ______ ____

>  <TORSDO>
F 0

$$$$
=
 OpenBabel11122411503D

 28 32  0  0  1  0  0  0  0  0999 V2000
  188.1640  172.7570  136.5710 C   0  0  0  0  0  0  0  0  0  0  0  0
  191.8130  174.3240  137.9680 O   0  0  0  0  0  0  0  0  0  0  0  0
  186.1670  177.2830  134.6030 O   0  0  0  0  0  0  0  0  0  0  0  0
  190.1520  172.7990  134.5940 C   0  0  0  0  0  3  0  0  0  0  0  0
  187.3990  177.8880  136.5100 N   0  0  0  0  0  0  0  0  0  0  0  0
  187.0380  172.7160  137.5600 C   0  0  0  0  0  2  0  0  0  0  0  0
  192.5820  176.3590  136.8200 O   0  0  0  0  0  0  0  0  0  0  0  0
  191.5960  175.8040  137.8080 S   0  0  0  0  0  0  0  0  0  0  0  0
  190.6990  177.1930  139.9840 C   0  0  0  0  0  0  0  0  0  0  0  0
  189.9430  176.1530  137.2400 C   0  0  2  0  0  3  0  0  0  0  0  0
  184.0890  173.4650  135.4490 N   0  0  0  0  0  2  0  0  0  0  0  0
  187.5700  175.7290  137.5190 C   0  0  1  0  0  3  0  0  0  0  0  0
  189.5990  177.4770  139.3510 N   0  0  0  0  0  0  0  0  0  0  0  0
  191.8050  176.5830  139.3270 N   0  0  0  0  0  2  0  0  0  0  0  0
  185.0870  173.7170  136.2280 C   0  0  0  0  0  0  0  0  0  0  0  0
  189.0330  173.8710  136.4770 C   0  0  0  0  0  0  0  0  0  0  0  0
  186.7200  176.9620  135.6890 C   0  0  0  0  0  0  0  0  0  0  0  0
  190.7810  177.4500  141.3800 N   0  0  0  0  0  1  0  0  0  0  0  0
  185.3430  175.1410  136.6130 C   0  0  0  0  0  2  0  0  0  0  0  0
  190.0160  173.8750  135.4710 C   0  0  0  0  0  3  0  0  0  0  0  0
  188.3180  171.6770  135.6910 C   0  0  0  0  0  3  0  0  0  0  0  0
  189.3080  171.6960  134.7080 C   0  0  0  0  0  3  0  0  0  0  0  0
  185.7620  172.6220  136.8600 N   0  0  0  0  0  2  0  0  0  0  0  0
  187.8460  177.2340  137.7230 C   0  0  1  0  0  3  0  0  0  0  0  0
  186.7430  175.5870  136.2280 C   0  0  2  0  0  3  0  0  0  0  0  0
  189.3470  177.3890  137.9070 C   0  0  2  0  0  3  0  0  0  0  0  0
  187.3580  179.3300  136.3310 C   0  0  0  0  0  1  0  0  0  0  0  0
  188.9390  175.0290  137.4620 C   0  0  1  0  0  3  0  0  0  0  0  0
  1  6  1  0  0  0  0
  3 17  2  0  0  0  0
  4 22  2  0  0  0  0
  4 20  1  0  0  0  0
  5 24  1  0  0  0  0
  7  8  2  0  0  0  0
  8  2  2  0  0  0  0
  8 14  1  0  0  0  0
  9 18  1  0  0  0  0
 10 28  1  0  0  0  0
 10  8  1  1  0  0  0
 10 26  1  0  0  0  0
 11 15  2  0  0  0  0
 12 24  1  0  0  0  0
 13  9  2  0  0  0  0
 14  9  1  0  0  0  0
 15 19  1  0  0  0  0
 15 23  1  0  0  0  0
 16  1  1  0  0  0  0
 16 28  1  0  0  0  0
 17 25  1  0  0  0  0
 17  5  1  0  0  0  0
 20 16  2  0  0  0  0
 21  1  2  0  0  0  0
 22 21  1  0  0  0  0
 23  6  1  0  0  0  0
 24 26  1  0  0  0  0
 25 19  1  0  0  0  0
 25 12  1  0  0  0  0
 26 13  1  0  0  0  0
 27  5  1  0  0  0  0
 28 12  1  0  0  0  0
M  END
>  <MODEL>
9

>  <REMARK>
 VINA RESULT:      -5.0      2.585      5.137
  Name = 
  0 active torsions:
  status: ('A' for Active; 'I' for Inactive)
                            x       y       z     vdW  Elec       q    Type
                         _______ _______ _______ _____ _____    ______ ____

>  <TORSDO>
F 0

$$$$
