=
 OpenBabel11122410393D

 32 37  0  0  1  0  0  0  0  0999 V2000
  188.8740  175.0630  135.7830 C   0  0  0  0  0  2  0  0  0  0  0  0
  187.0490  178.6280  139.8360 C   0  0  1  0  0  3  0  0  0  0  0  0
  190.8390  176.2270  141.8250 C   0  0  0  0  0  2  0  0  0  0  0  0
  190.2580  176.3770  143.2320 C   0  0  0  0  0  2  0  0  0  0  0  0
  184.9890  179.0940  141.2290 C   0  0  0  0  0  0  0  0  0  0  0  0
  184.3570  179.0430  142.4660 C   0  0  0  0  0  0  0  0  0  0  0  0
  187.2910  177.3910  137.6790 C   0  0  1  0  0  3  0  0  0  0  0  0
  189.1870  178.6400  138.6990 C   0  0  0  0  0  2  0  0  0  0  0  0
  184.1350  178.6670  144.6140 C   0  0  0  0  0  0  0  0  0  0  0  0
  189.5760  177.3480  136.5900 C   0  0  0  0  0  2  0  0  0  0  0  0
  190.4790  177.4360  140.9630 C   0  0  0  0  0  2  0  0  0  0  0  0
  188.5180  178.6760  140.0140 N   0  0  2  0  0  0  0  0  0  0  0  0
  188.9540  177.5730  140.8900 C   0  0  2  0  0  3  0  0  0  0  0  0
  186.9690  178.1650  142.3390 C   0  0  0  0  0  0  0  0  0  0  0  0
  182.9570  179.1830  144.0780 C   0  0  0  0  0  3  0  0  0  0  0  0
  187.6720  174.6710  137.0960 S   0  0  0  0  0  0  0  0  0  0  0  0
  188.8040  177.3970  137.8980 C   0  0  2  0  0  3  0  0  0  0  0  0
  183.1340  179.3960  142.7800 O   0  0  0  0  0  0  0  0  0  0  0  0
  186.7740  176.2340  136.8190 C   0  0  0  0  0  2  0  0  0  0  0  0
  190.0250  175.9180  136.3120 C   0  0  2  0  0  3  0  0  0  0  0  0
  188.7440  176.5830  143.1740 C   0  0  0  0  0  2  0  0  0  0  0  0
  188.4290  177.8050  142.3130 C   0  0  1  0  0  3  0  0  0  0  0  0
  186.2960  178.1610  143.5320 N   0  0  0  0  0  0  0  0  0  0  0  0
  186.5950  177.4010  139.0290 C   0  0  0  0  0  2  0  0  0  0  0  0
  184.3150  179.5610  140.1060 O   0  0  0  0  0  1  0  0  0  0  0  0
  184.3820  178.2870  146.0310 C   0  0  0  0  0  1  0  0  0  0  0  0
  186.3300  178.6540  141.1600 C   0  0  0  0  0  0  0  0  0  0  0  0
  185.0100  178.5850  143.5650 C   0  0  0  0  0  0  0  0  0  0  0  0
  191.1020  175.9430  135.3350 N   0  0  0  0  0  2  0  0  0  0  0  0
  192.4800  175.9980  135.7110 C   0  0  0  0  0  0  0  0  0  0  0  0
  192.8140  176.0520  136.9240 O   0  0  0  0  0  0  0  0  0  0  0  0
  193.5280  175.9960  134.6580 C   0  0  0  0  0  1  0  0  0  0  0  0
  1 20  1  0  0  0  0
  1 16  1  0  0  0  0
  2 24  1  1  0  0  0
  2 12  1  0  0  0  0
  2 27  1  0  0  0  0
  3  4  1  0  0  0  0
  5  6  1  0  0  0  0
  6 18  1  0  0  0  0
  6 28  2  0  0  0  0
  7 19  1  1  0  0  0
  7 17  1  0  0  0  0
  7 24  1  0  0  0  0
  9 26  1  0  0  0  0
 11  3  1  0  0  0  0
 12  8  1  6  0  0  0
 12 13  1  0  0  0  0
 13 11  1  1  0  0  0
 13 22  1  0  0  0  0
 14 23  2  0  0  0  0
 15  9  2  0  0  0  0
 17 10  1  6  0  0  0
 17  8  1  0  0  0  0
 18 15  1  0  0  0  0
 19 16  1  0  0  0  0
 20 29  1  6  0  0  0
 20 10  1  0  0  0  0
 21  4  1  0  0  0  0
 22 14  1  0  0  0  0
 22 21  1  1  0  0  0
 23 28  1  0  0  0  0
 25  5  1  0  0  0  0
 27  5  2  0  0  0  0
 27 14  1  0  0  0  0
 28  9  1  0  0  0  0
 29 30  1  0  0  0  0
 30 31  2  0  0  0  0
 32 30  1  0  0  0  0
M  END
>  <MODEL>
1

>  <REMARK>
 VINA RESULT:      -8.3      0.000      0.000
  Name = 
  1 active torsions:
  status: ('A' for Active; 'I' for Inactive)
    1  A    between atoms: C_20  and  N_29
                            x       y       z     vdW  Elec       q    Type
                         _______ _______ _______ _____ _____    ______ ____

>  <TORSDO>
F 1

$$$$
=
 OpenBabel11122410393D

 32 37  0  0  1  0  0  0  0  0999 V2000
  187.2140  177.3500  143.6130 C   0  0  0  0  0  2  0  0  0  0  0  0
  190.8520  177.3950  139.2280 C   0  0  1  0  0  3  0  0  0  0  0  0
  186.7430  175.3500  137.4880 C   0  0  0  0  0  2  0  0  0  0  0  0
  187.5290  174.5250  136.4680 C   0  0  0  0  0  2  0  0  0  0  0  0
  193.1030  176.4490  138.5620 C   0  0  0  0  0  0  0  0  0  0  0  0
  193.8300  175.5500  137.7910 C   0  0  0  0  0  0  0  0  0  0  0  0
  189.8390  177.7030  141.4900 C   0  0  1  0  0  3  0  0  0  0  0  0
  188.7560  178.5900  139.4310 C   0  0  0  0  0  2  0  0  0  0  0  0
  194.1860  173.9850  136.2990 C   0  0  0  0  0  0  0  0  0  0  0  0
  187.5950  178.8660  141.6330 C   0  0  0  0  0  2  0  0  0  0  0  0
  187.4270  176.6940  137.7330 C   0  0  0  0  0  2  0  0  0  0  0  0
  189.5630  177.7060  138.5690 N   0  0  2  0  0  0  0  0  0  0  0  0
  188.8550  176.4550  138.2370 C   0  0  2  0  0  3  0  0  0  0  0  0
  191.0950  175.5970  137.4410 C   0  0  0  0  0  0  0  0  0  0  0  0
  195.3840  174.3920  136.8830 C   0  0  0  0  0  3  0  0  0  0  0  0
  188.3350  175.9950  143.1340 S   0  0  0  0  0  0  0  0  0  0  0  0
  188.4990  177.9700  140.8030 C   0  0  2  0  0  3  0  0  0  0  0  0
  195.1240  175.3380  137.7770 O   0  0  0  0  0  0  0  0  0  0  0  0
  189.7290  177.1490  142.9140 C   0  0  0  0  0  2  0  0  0  0  0  0
  186.5820  178.0150  142.3910 C   0  0  2  0  0  3  0  0  0  0  0  0
  188.9760  174.3340  136.9230 C   0  0  0  0  0  2  0  0  0  0  0  0
  189.6230  175.7000  137.1450 C   0  0  1  0  0  3  0  0  0  0  0  0
  191.8720  174.7490  136.6980 N   0  0  0  0  0  0  0  0  0  0  0  0
  190.6650  176.7720  140.6210 C   0  0  0  0  0  2  0  0  0  0  0  0
  193.7400  177.2790  139.4770 O   0  0  0  0  0  1  0  0  0  0  0  0
  194.0110  172.9480  135.2460 C   0  0  0  0  0  1  0  0  0  0  0  0
  191.7020  176.4840  138.3790 C   0  0  0  0  0  0  0  0  0  0  0  0
  193.2120  174.7360  136.8980 C   0  0  0  0  0  0  0  0  0  0  0  0
  185.4770  178.8610  142.8130 N   0  0  0  0  0  2  0  0  0  0  0  0
  184.1240  178.6080  142.4260 C   0  0  0  0  0  0  0  0  0  0  0  0
  183.8400  177.6380  141.6740 O   0  0  0  0  0  0  0  0  0  0  0  0
  183.0420  179.5010  142.9160 C   0  0  0  0  0  1  0  0  0  0  0  0
  2 24  1  1  0  0  0
  3 11  1  0  0  0  0
  4 21  1  0  0  0  0
  4  3  1  0  0  0  0
  5 25  1  0  0  0  0
  6  5  2  0  0  0  0
  7 24  1  6  0  0  0
  7 19  1  0  0  0  0
  9 15  2  0  0  0  0
  9 28  1  0  0  0  0
 10 20  1  0  0  0  0
 12  2  1  0  0  0  0
 12  8  1  1  0  0  0
 13 11  1  6  0  0  0
 13 12  1  0  0  0  0
 14 27  2  0  0  0  0
 15 18  1  0  0  0  0
 16  1  1  0  0  0  0
 17  8  1  6  0  0  0
 17  7  1  0  0  0  0
 17 10  1  0  0  0  0
 18  6  1  0  0  0  0
 19 16  1  0  0  0  0
 20 29  1  1  0  0  0
 20  1  1  0  0  0  0
 22 21  1  1  0  0  0
 22 14  1  0  0  0  0
 22 13  1  0  0  0  0
 23 28  2  0  0  0  0
 23 14  1  0  0  0  0
 26  9  1  0  0  0  0
 27  5  1  0  0  0  0
 27  2  1  0  0  0  0
 28  6  1  0  0  0  0
 30 29  1  0  0  0  0
 30 32  1  0  0  0  0
 31 30  2  0  0  0  0
M  END
>  <MODEL>
2

>  <REMARK>
 VINA RESULT:      -7.7      2.131      8.785
  Name = 
  1 active torsions:
  status: ('A' for Active; 'I' for Inactive)
    1  A    between atoms: C_20  and  N_29
                            x       y       z     vdW  Elec       q    Type
                         _______ _______ _______ _____ _____    ______ ____

>  <TORSDO>
F 1

$$$$
=
 OpenBabel11122410393D

 32 37  0  0  1  0  0  0  0  0999 V2000
  190.9790  173.9680  136.1890 C   0  0  0  0  0  2  0  0  0  0  0  0
  187.8170  178.0250  138.6420 C   0  0  1  0  0  3  0  0  0  0  0  0
  191.1360  176.7400  142.0220 C   0  0  0  0  0  2  0  0  0  0  0  0
  190.1870  177.1080  143.1640 C   0  0  0  0  0  2  0  0  0  0  0  0
  185.4250  178.4680  139.3370 C   0  0  0  0  0  0  0  0  0  0  0  0
  184.4930  178.5990  140.3590 C   0  0  0  0  0  0  0  0  0  0  0  0
  188.7400  176.3900  136.9940 C   0  0  1  0  0  3  0  0  0  0  0  0
  190.1720  178.1110  138.0830 C   0  0  0  0  0  2  0  0  0  0  0  0
  183.7370  178.6820  142.4140 C   0  0  0  0  0  0  0  0  0  0  0  0
  191.2280  176.4560  136.5290 C   0  0  0  0  0  2  0  0  0  0  0  0
  190.9120  177.6550  140.8200 C   0  0  0  0  0  2  0  0  0  0  0  0
  189.1750  178.3370  139.1460 N   0  0  2  0  0  0  0  0  0  0  0  0
  189.4570  177.5370  140.3530 C   0  0  2  0  0  3  0  0  0  0  0  0
  187.1110  178.1260  141.0860 C   0  0  0  0  0  0  0  0  0  0  0  0
  182.7040  178.8780  141.5000 C   0  0  0  0  0  3  0  0  0  0  0  0
  189.5090  173.7000  137.2330 S   0  0  0  0  0  0  0  0  0  0  0  0
  190.1330  176.6770  137.5580 C   0  0  2  0  0  3  0  0  0  0  0  0
  183.2030  178.8200  140.2720 O   0  0  0  0  0  0  0  0  0  0  0  0
  188.5810  175.0040  136.3610 C   0  0  0  0  0  2  0  0  0  0  0  0
  191.8630  175.0860  136.7400 C   0  0  2  0  0  3  0  0  0  0  0  0
  188.7320  177.0610  142.6960 C   0  0  0  0  0  2  0  0  0  0  0  0
  188.5510  177.9980  141.5020 C   0  0  1  0  0  3  0  0  0  0  0  0
  186.1460  178.2850  142.0450 N   0  0  0  0  0  0  0  0  0  0  0  0
  187.7100  176.5940  138.0900 C   0  0  0  0  0  2  0  0  0  0  0  0
  185.0390  178.5640  138.0060 O   0  0  0  0  0  1  0  0  0  0  0  0
  183.6280  178.6700  143.8980 C   0  0  0  0  0  1  0  0  0  0  0  0
  186.7700  178.2350  139.7040 C   0  0  0  0  0  0  0  0  0  0  0  0
  184.8640  178.5030  141.6610 C   0  0  0  0  0  0  0  0  0  0  0  0
  193.1560  175.0570  136.0750 N   0  0  0  0  0  2  0  0  0  0  0  0
  194.3850  175.2720  136.7730 C   0  0  0  0  0  0  0  0  0  0  0  0
  194.3890  175.5210  138.0080 O   0  0  0  0  0  0  0  0  0  0  0  0
  195.6710  175.2040  136.0320 C   0  0  0  0  0  1  0  0  0  0  0  0
  1 20  1  0  0  0  0
  1 16  1  0  0  0  0
  2 24  1  1  0  0  0
  2 12  1  0  0  0  0
  2 27  1  0  0  0  0
  3  4  1  0  0  0  0
  5 27  2  0  0  0  0
  5  6  1  0  0  0  0
  6 28  2  0  0  0  0
  7 19  1  1  0  0  0
  7 17  1  0  0  0  0
  7 24  1  0  0  0  0
  9 26  1  0  0  0  0
 10 20  1  0  0  0  0
 11  3  1  0  0  0  0
 12  8  1  6  0  0  0
 12 13  1  0  0  0  0
 13 11  1  1  0  0  0
 13 22  1  0  0  0  0
 14 22  1  0  0  0  0
 14 23  2  0  0  0  0
 15  9  2  0  0  0  0
 17 10  1  6  0  0  0
 17  8  1  0  0  0  0
 18  6  1  0  0  0  0
 18 15  1  0  0  0  0
 19 16  1  0  0  0  0
 20 29  1  6  0  0  0
 21  4  1  0  0  0  0
 22 21  1  1  0  0  0
 25  5  1  0  0  0  0
 27 14  1  0  0  0  0
 28 23  1  0  0  0  0
 28  9  1  0  0  0  0
 29 30  1  0  0  0  0
 30 31  2  0  0  0  0
 32 30  1  0  0  0  0
M  END
>  <MODEL>
3

>  <REMARK>
 VINA RESULT:      -7.4      1.456      1.855
  Name = 
  1 active torsions:
  status: ('A' for Active; 'I' for Inactive)
    1  A    between atoms: C_20  and  N_29
                            x       y       z     vdW  Elec       q    Type
                         _______ _______ _______ _____ _____    ______ ____

>  <TORSDO>
F 1

$$$$
=
 OpenBabel11122410393D

 32 37  0  0  1  0  0  0  0  0999 V2000
  181.2640  176.5130  137.6460 C   0  0  0  0  0  2  0  0  0  0  0  0
  184.6190  178.8770  141.5980 C   0  0  1  0  0  3  0  0  0  0  0  0
  187.5920  177.7950  137.8450 C   0  0  0  0  0  2  0  0  0  0  0  0
  188.7890  177.6180  138.7820 C   0  0  0  0  0  2  0  0  0  0  0  0
  185.4010  178.4810  143.9720 C   0  0  0  0  0  0  0  0  0  0  0  0
  186.4240  178.1130  144.8370 C   0  0  0  0  0  0  0  0  0  0  0  0
  182.6270  177.9810  140.3860 C   0  0  1  0  0  3  0  0  0  0  0  0
  184.0980  179.7260  139.3910 C   0  0  0  0  0  2  0  0  0  0  0  0
  188.4390  177.5100  145.4520 C   0  0  0  0  0  0  0  0  0  0  0  0
  182.1920  178.8260  138.0400 C   0  0  0  0  0  2  0  0  0  0  0  0
  186.6450  178.8680  138.3800 C   0  0  0  0  0  2  0  0  0  0  0  0
  185.1840  179.4200  140.3410 N   0  0  2  0  0  0  0  0  0  0  0  0
  186.1630  178.4700  139.7800 C   0  0  2  0  0  3  0  0  0  0  0  0
  187.0160  178.2140  142.1460 C   0  0  0  0  0  0  0  0  0  0  0  0
  187.5980  177.6240  146.5580 C   0  0  0  0  0  3  0  0  0  0  0  0
  182.2130  175.6220  138.9210 S   0  0  0  0  0  0  0  0  0  0  0  0
  183.2440  178.4970  139.0850 C   0  0  2  0  0  3  0  0  0  0  0  0
  186.3920  177.9890  146.1430 O   0  0  0  0  0  0  0  0  0  0  0  0
  181.6800  176.7900  140.2150 C   0  0  0  0  0  2  0  0  0  0  0  0
  182.0670  177.6700  137.0540 C   0  0  2  0  0  3  0  0  0  0  0  0
  188.3230  177.2870  140.1990 C   0  0  0  0  0  2  0  0  0  0  0  0
  187.3890  178.3890  140.6990 C   0  0  1  0  0  3  0  0  0  0  0  0
  187.9850  177.8790  143.0540 N   0  0  0  0  0  0  0  0  0  0  0  0
  183.7400  177.6390  141.3610 C   0  0  0  0  0  2  0  0  0  0  0  0
  184.1310  178.7730  144.4560 O   0  0  0  0  0  1  0  0  0  0  0  0
  189.8770  177.1260  145.4580 C   0  0  0  0  0  1  0  0  0  0  0  0
  185.7010  178.5430  142.5930 C   0  0  0  0  0  0  0  0  0  0  0  0
  187.6650  177.8230  144.3700 C   0  0  0  0  0  0  0  0  0  0  0  0
  181.4160  178.1480  135.8450 N   0  0  0  0  0  2  0  0  0  0  0  0
  180.1710  178.8510  135.8680 C   0  0  0  0  0  0  0  0  0  0  0  0
  179.5740  179.0650  136.9560 O   0  0  0  0  0  0  0  0  0  0  0  0
  179.5760  179.3310  134.5940 C   0  0  0  0  0  1  0  0  0  0  0  0
  1 16  1  0  0  0  0
  2 24  1  6  0  0  0
  2 27  1  0  0  0  0
  3 11  1  0  0  0  0
  3  4  1  0  0  0  0
  4 21  1  0  0  0  0
  5 25  1  0  0  0  0
  5  6  1  0  0  0  0
  6 18  1  0  0  0  0
  7 19  1  6  0  0  0
  7 24  1  0  0  0  0
  9 26  1  0  0  0  0
  9 15  2  0  0  0  0
 12  8  1  6  0  0  0
 12  2  1  0  0  0  0
 13 11  1  6  0  0  0
 13 12  1  0  0  0  0
 13 22  1  0  0  0  0
 14 27  1  0  0  0  0
 14 23  2  0  0  0  0
 16 19  1  0  0  0  0
 17 10  1  6  0  0  0
 17  8  1  0  0  0  0
 17  7  1  0  0  0  0
 18 15  1  0  0  0  0
 20 29  1  6  0  0  0
 20  1  1  0  0  0  0
 20 10  1  0  0  0  0
 22 21  1  6  0  0  0
 22 14  1  0  0  0  0
 23 28  1  0  0  0  0
 27  5  2  0  0  0  0
 28  6  2  0  0  0  0
 28  9  1  0  0  0  0
 29 30  1  0  0  0  0
 30 31  2  0  0  0  0
 32 30  1  0  0  0  0
M  END
>  <MODEL>
4

>  <REMARK>
 VINA RESULT:      -7.3      3.746      6.356
  Name = 
  1 active torsions:
  status: ('A' for Active; 'I' for Inactive)
    1  A    between atoms: C_20  and  N_29
                            x       y       z     vdW  Elec       q    Type
                         _______ _______ _______ _____ _____    ______ ____

>  <TORSDO>
F 1

$$$$
=
 OpenBabel11122410393D

 32 37  0  0  1  0  0  0  0  0999 V2000
  188.8530  174.4140  135.5160 C   0  0  0  0  0  2  0  0  0  0  0  0
  185.8010  178.3680  138.2590 C   0  0  1  0  0  3  0  0  0  0  0  0
  189.6880  177.5020  141.1280 C   0  0  0  0  0  2  0  0  0  0  0  0
  188.9000  177.8650  142.3870 C   0  0  0  0  0  2  0  0  0  0  0  0
  183.5170  178.6810  139.3020 C   0  0  0  0  0  0  0  0  0  0  0  0
  182.7450  178.8010  140.4510 C   0  0  0  0  0  0  0  0  0  0  0  0
  186.5840  176.7140  136.5580 C   0  0  1  0  0  3  0  0  0  0  0  0
  188.0290  178.5870  137.3340 C   0  0  0  0  0  2  0  0  0  0  0  0
  182.3100  178.9430  142.5940 C   0  0  0  0  0  0  0  0  0  0  0  0
  188.9580  176.9280  135.7060 C   0  0  0  0  0  2  0  0  0  0  0  0
  189.2130  178.3330  139.9380 C   0  0  0  0  0  2  0  0  0  0  0  0
  187.1910  178.8000  138.5300 N   0  0  2  0  0  0  0  0  0  0  0  0
  187.7160  178.0890  139.7110 C   0  0  2  0  0  3  0  0  0  0  0  0
  185.4720  178.5520  140.7770 C   0  0  0  0  0  0  0  0  0  0  0  0
  181.1360  179.0160  141.8460 C   0  0  0  0  0  3  0  0  0  0  0  0
  187.5860  174.1010  136.7880 S   0  0  0  0  0  0  0  0  0  0  0  0
  188.0200  177.1270  136.8840 C   0  0  2  0  0  3  0  0  0  0  0  0
  181.4440  178.9270  140.5580 O   0  0  0  0  0  0  0  0  0  0  0  0
  186.4370  175.2880  136.0180 C   0  0  0  0  0  2  0  0  0  0  0  0
  189.7220  175.6190  135.8730 C   0  0  2  0  0  3  0  0  0  0  0  0
  187.3990  177.6920  142.1570 C   0  0  0  0  0  2  0  0  0  0  0  0
  186.9650  178.5470  140.9670 C   0  0  1  0  0  3  0  0  0  0  0  0
  184.6560  178.6950  141.8680 N   0  0  0  0  0  0  0  0  0  0  0  0
  185.7210  176.9050  137.7930 C   0  0  0  0  0  2  0  0  0  0  0  0
  182.9240  178.6770  138.0450 O   0  0  0  0  0  1  0  0  0  0  0  0
  182.4300  179.0040  144.0760 C   0  0  0  0  0  1  0  0  0  0  0  0
  184.9160  178.5620  139.4630 C   0  0  0  0  0  0  0  0  0  0  0  0
  183.3180  178.8030  141.6810 C   0  0  0  0  0  0  0  0  0  0  0  0
  190.8960  175.6440  135.0150 N   0  0  0  0  0  2  0  0  0  0  0  0
  192.2280  175.5910  135.5320 C   0  0  0  0  0  0  0  0  0  0  0  0
  192.4340  175.5430  136.7730 O   0  0  0  0  0  0  0  0  0  0  0  0
  193.3790  175.5970  134.5940 C   0  0  0  0  0  1  0  0  0  0  0  0
  1 20  1  0  0  0  0
  1 16  1  0  0  0  0
  2 24  1  1  0  0  0
  2 12  1  0  0  0  0
  2 27  1  0  0  0  0
  3  4  1  0  0  0  0
  5 27  2  0  0  0  0
  5  6  1  0  0  0  0
  6 18  1  0  0  0  0
  6 28  2  0  0  0  0
  7 19  1  1  0  0  0
  7 17  1  0  0  0  0
  7 24  1  0  0  0  0
  9 26  1  0  0  0  0
 10 20  1  0  0  0  0
 11  3  1  0  0  0  0
 12  8  1  6  0  0  0
 12 13  1  0  0  0  0
 13 11  1  1  0  0  0
 13 22  1  0  0  0  0
 14 22  1  0  0  0  0
 14 23  2  0  0  0  0
 15  9  2  0  0  0  0
 17 10  1  6  0  0  0
 17  8  1  0  0  0  0
 18 15  1  0  0  0  0
 19 16  1  0  0  0  0
 20 29  1  6  0  0  0
 21  4  1  0  0  0  0
 22 21  1  1  0  0  0
 25  5  1  0  0  0  0
 27 14  1  0  0  0  0
 28 23  1  0  0  0  0
 28  9  1  0  0  0  0
 29 30  1  0  0  0  0
 30 31  2  0  0  0  0
 32 30  1  0  0  0  0
M  END
>  <MODEL>
5

>  <REMARK>
 VINA RESULT:      -7.2      1.494      1.938
  Name = 
  1 active torsions:
  status: ('A' for Active; 'I' for Inactive)
    1  A    between atoms: C_20  and  N_29
                            x       y       z     vdW  Elec       q    Type
                         _______ _______ _______ _____ _____    ______ ____

>  <TORSDO>
F 1

$$$$
=
 OpenBabel11122410393D

 32 37  0  0  1  0  0  0  0  0999 V2000
  186.7310  178.6270  141.4950 C   0  0  0  0  0  2  0  0  0  0  0  0
  190.5840  176.8410  137.6960 C   0  0  1  0  0  3  0  0  0  0  0  0
  186.7390  173.8380  137.1610 C   0  0  0  0  0  2  0  0  0  0  0  0
  187.6380  172.6930  136.6900 C   0  0  0  0  0  2  0  0  0  0  0  0
  192.9320  175.9010  137.6060 C   0  0  0  0  0  0  0  0  0  0  0  0
  193.7650  174.8090  137.3880 C   0  0  0  0  0  0  0  0  0  0  0  0
  189.4320  178.1290  139.5000 C   0  0  1  0  0  3  0  0  0  0  0  0
  188.3960  177.7830  137.2630 C   0  0  0  0  0  2  0  0  0  0  0  0
  194.3160  172.7530  136.8700 C   0  0  0  0  0  0  0  0  0  0  0  0
  187.1020  179.0000  139.0280 C   0  0  0  0  0  2  0  0  0  0  0  0
  187.3050  175.1840  136.7140 C   0  0  0  0  0  2  0  0  0  0  0  0
  189.3120  176.6670  136.9580 N   0  0  2  0  0  0  0  0  0  0  0  0
  188.7190  175.3560  137.2830 C   0  0  2  0  0  3  0  0  0  0  0  0
  191.0560  174.4270  137.0360 C   0  0  0  0  0  0  0  0  0  0  0  0
  195.4470  173.5030  137.1860 C   0  0  0  0  0  3  0  0  0  0  0  0
  187.9750  177.3220  141.7600 S   0  0  0  0  0  0  0  0  0  0  0  0
  188.1140  177.8980  138.7590 C   0  0  2  0  0  3  0  0  0  0  0  0
  195.0700  174.7380  137.4930 O   0  0  0  0  0  0  0  0  0  0  0  0
  189.2880  178.3400  141.0100 C   0  0  0  0  0  2  0  0  0  0  0  0
  186.1180  178.5440  140.0980 C   0  0  2  0  0  3  0  0  0  0  0  0
  189.0680  172.8840  137.1920 C   0  0  0  0  0  2  0  0  0  0  0  0
  189.5990  174.2360  136.7150 C   0  0  1  0  0  3  0  0  0  0  0  0
  191.9330  173.3980  136.8170 N   0  0  0  0  0  0  0  0  0  0  0  0
  190.3710  176.9710  139.2130 C   0  0  0  0  0  2  0  0  0  0  0  0
  193.4560  177.1280  137.9960 O   0  0  0  0  0  1  0  0  0  0  0  0
  194.2760  171.3210  136.4670 C   0  0  0  0  0  1  0  0  0  0  0  0
  191.5440  175.7130  137.4180 C   0  0  0  0  0  0  0  0  0  0  0  0
  193.2580  173.6090  137.0100 C   0  0  0  0  0  0  0  0  0  0  0  0
  184.9310  179.3810  140.0370 N   0  0  0  0  0  2  0  0  0  0  0  0
  183.8880  179.1700  139.0810 C   0  0  0  0  0  0  0  0  0  0  0  0
  183.9750  178.2470  138.2290 O   0  0  0  0  0  0  0  0  0  0  0  0
  182.6930  180.0520  139.0930 C   0  0  0  0  0  1  0  0  0  0  0  0
  1 16  1  0  0  0  0
  2 24  1  1  0  0  0
  4  3  1  0  0  0  0
  4 21  1  0  0  0  0
  5 25  1  0  0  0  0
  6 18  1  0  0  0  0
  6  5  2  0  0  0  0
  7 24  1  1  0  0  0
  7 19  1  0  0  0  0
  9 28  1  0  0  0  0
  9 15  2  0  0  0  0
 10 20  1  0  0  0  0
 11  3  1  0  0  0  0
 12  8  1  1  0  0  0
 12 13  1  0  0  0  0
 12  2  1  0  0  0  0
 13 11  1  6  0  0  0
 14 27  2  0  0  0  0
 15 18  1  0  0  0  0
 17  8  1  6  0  0  0
 17 10  1  0  0  0  0
 17  7  1  0  0  0  0
 19 16  1  0  0  0  0
 20 29  1  1  0  0  0
 20  1  1  0  0  0  0
 22 14  1  0  0  0  0
 22 21  1  1  0  0  0
 22 13  1  0  0  0  0
 23 28  2  0  0  0  0
 23 14  1  0  0  0  0
 26  9  1  0  0  0  0
 27  5  1  0  0  0  0
 27  2  1  0  0  0  0
 28  6  1  0  0  0  0
 30 32  1  0  0  0  0
 30 29  1  0  0  0  0
 31 30  2  0  0  0  0
M  END
>  <MODEL>
6

>  <REMARK>
 VINA RESULT:      -5.9      2.715      8.661
  Name = 
  1 active torsions:
  status: ('A' for Active; 'I' for Inactive)
    1  A    between atoms: C_20  and  N_29
                            x       y       z     vdW  Elec       q    Type
                         _______ _______ _______ _____ _____    ______ ____

>  <TORSDO>
F 1

$$$$
=
 OpenBabel11122410393D

 32 37  0  0  1  0  0  0  0  0999 V2000
  187.5030  173.1480  136.3850 C   0  0  0  0  0  2  0  0  0  0  0  0
  184.1130  177.6470  137.2460 C   0  0  1  0  0  3  0  0  0  0  0  0
  187.6500  178.0170  140.6280 C   0  0  0  0  0  2  0  0  0  0  0  0
  186.7170  178.7510  141.5930 C   0  0  0  0  0  2  0  0  0  0  0  0
  181.7200  178.1840  137.8690 C   0  0  0  0  0  0  0  0  0  0  0  0
  180.8190  178.6540  138.8170 C   0  0  0  0  0  0  0  0  0  0  0  0
  185.1050  175.5500  136.3180 C   0  0  1  0  0  3  0  0  0  0  0  0
  186.4300  177.6450  136.5420 C   0  0  0  0  0  2  0  0  0  0  0  0
  180.1370  179.5030  140.7180 C   0  0  0  0  0  0  0  0  0  0  0  0
  187.5590  175.5760  135.6990 C   0  0  0  0  0  2  0  0  0  0  0  0
  187.3070  178.3630  139.1800 C   0  0  0  0  0  2  0  0  0  0  0  0
  185.4580  178.2150  137.4940 N   0  0  2  0  0  0  0  0  0  0  0  0
  185.8500  177.9810  138.8970 C   0  0  2  0  0  3  0  0  0  0  0  0
  183.4920  178.6690  139.4930 C   0  0  0  0  0  0  0  0  0  0  0  0
  179.0570  179.2550  139.8720 C   0  0  0  0  0  3  0  0  0  0  0  0
  186.1000  173.2290  137.5460 S   0  0  0  0  0  0  0  0  0  0  0  0
  186.4890  176.1220  136.6290 C   0  0  2  0  0  3  0  0  0  0  0  0
  179.5130  178.7440  138.7360 O   0  0  0  0  0  0  0  0  0  0  0  0
  185.0360  174.0200  136.2950 C   0  0  0  0  0  2  0  0  0  0  0  0
  188.3120  174.4440  136.3900 C   0  0  2  0  0  3  0  0  0  0  0  0
  185.2550  178.4340  141.2800 C   0  0  0  0  0  2  0  0  0  0  0  0
  184.9530  178.8050  139.8290 C   0  0  1  0  0  3  0  0  0  0  0  0
  182.5540  179.1380  140.3740 N   0  0  0  0  0  0  0  0  0  0  0  0
  184.1030  176.1110  137.3110 C   0  0  0  0  0  2  0  0  0  0  0  0
  181.2770  177.7180  136.6370 O   0  0  0  0  0  1  0  0  0  0  0  0
  180.0840  180.0760  142.0900 C   0  0  0  0  0  1  0  0  0  0  0  0
  183.0920  178.1990  138.2070 C   0  0  0  0  0  0  0  0  0  0  0  0
  181.2460  179.1080  140.0220 C   0  0  0  0  0  0  0  0  0  0  0  0
  189.5780  174.2320  135.7050 N   0  0  0  0  0  2  0  0  0  0  0  0
  190.8140  174.0710  136.4050 C   0  0  0  0  0  0  0  0  0  0  0  0
  190.8530  174.1310  137.6630 O   0  0  0  0  0  0  0  0  0  0  0  0
  192.0640  173.8330  135.6400 C   0  0  0  0  0  1  0  0  0  0  0  0
  1 20  1  0  0  0  0
  1 16  1  0  0  0  0
  2 24  1  1  0  0  0
  2 12  1  0  0  0  0
  2 27  1  0  0  0  0
  3  4  1  0  0  0  0
  5 27  2  0  0  0  0
  5  6  1  0  0  0  0
  6 28  2  0  0  0  0
  7 19  1  1  0  0  0
  7 17  1  0  0  0  0
  7 24  1  0  0  0  0
  8 17  1  0  0  0  0
  9 26  1  0  0  0  0
 10 20  1  0  0  0  0
 11  3  1  0  0  0  0
 12  8  1  6  0  0  0
 12 13  1  0  0  0  0
 13 11  1  6  0  0  0
 13 22  1  0  0  0  0
 14 22  1  0  0  0  0
 14 23  2  0  0  0  0
 15  9  2  0  0  0  0
 17 10  1  6  0  0  0
 18  6  1  0  0  0  0
 18 15  1  0  0  0  0
 19 16  1  0  0  0  0
 20 29  1  6  0  0  0
 21  4  1  0  0  0  0
 22 21  1  1  0  0  0
 25  5  1  0  0  0  0
 27 14  1  0  0  0  0
 28 23  1  0  0  0  0
 28  9  1  0  0  0  0
 29 30  1  0  0  0  0
 30 31  2  0  0  0  0
 32 30  1  0  0  0  0
M  END
>  <MODEL>
7

>  <REMARK>
 VINA RESULT:      -5.5      3.110      4.086
  Name = 
  1 active torsions:
  status: ('A' for Active; 'I' for Inactive)
    1  A    between atoms: C_20  and  N_29
                            x       y       z     vdW  Elec       q    Type
                         _______ _______ _______ _____ _____    ______ ____

>  <TORSDO>
F 1

$$$$
