=
 OpenBabel11122411463D

 37 42  0  0  1  0  0  0  0  0999 V2000
  190.2410  178.5960  143.9290 C   0  0  0  0  0  0  0  0  0  0  0  0
  186.5700  177.5430  144.2780 C   0  0  1  0  0  3  0  0  0  0  0  0
  184.4920  177.4820  141.7030 O   0  0  0  0  0  0  0  0  0  0  0  0
  188.9020  176.9850  145.2010 N   0  0  2  0  0  0  0  0  0  0  0  0
  186.3190  178.3840  143.0260 C   0  0  2  0  0  3  0  0  0  0  0  0
  187.9700  176.9400  144.0580 C   0  0  2  0  0  3  0  0  0  0  0  0
  184.8390  178.4970  142.6090 C   0  0  2  0  0  3  0  0  0  0  0  0
  188.1810  176.7440  146.4510 C   0  0  0  0  0  2  0  0  0  0  0  0
  188.5400  177.5390  142.7650 C   0  0  2  0  0  3  0  0  0  0  0  0
  191.1310  177.6160  143.5120 F   0  0  0  0  0  0  0  0  0  0  0  0
  185.0270  178.5850  145.8940 N   0  0  0  0  0  2  0  0  0  0  0  0
  187.1560  177.8400  146.7650 C   0  0  0  0  0  2  0  0  0  0  0  0
  189.2010  178.7710  142.9970 O   0  0  0  0  0  0  0  0  0  0  0  0
  185.1430  179.0610  140.0850 O   0  0  0  0  0  0  0  0  0  0  0  0
  184.1870  178.0980  140.4670 C   0  0  0  0  0  2  0  0  0  0  0  0
  186.4350  178.4130  145.5410 C   0  0  1  0  0  3  0  0  0  0  0  0
  187.2680  177.8080  141.9690 C   0  0  2  0  0  3  0  0  0  0  0  0
  189.6490  178.2420  145.2850 C   0  0  0  0  0  2  0  0  0  0  0  0
  183.8320  178.5980  143.7730 C   0  0  1  0  0  3  0  0  0  0  0  0
  190.9310  179.7880  144.0530 F   0  0  0  0  0  0  0  0  0  0  0  0
  186.2960  178.3550  139.7320 C   0  0  0  0  0  2  0  0  0  0  0  0
  187.4290  178.6750  140.7050 C   0  0  2  0  0  3  0  0  0  0  0  0
  184.3710  179.4480  144.9210 C   0  0  0  0  0  2  0  0  0  0  0  0
  181.3470  178.5910  144.2460 C   0  0  0  0  0  2  0  0  0  0  0  0
  182.4600  179.1300  143.3450 C   0  0  2  0  0  3  0  0  0  0  0  0
  182.1640  178.8770  141.8590 C   0  0  0  0  0  2  0  0  0  0  0  0
  180.5550  179.9370  140.4950 O   0  0  0  0  0  0  0  0  0  0  0  0
  179.6440  178.9410  142.4330 C   0  0  0  0  0  2  0  0  0  0  0  0
  180.7740  179.3240  141.5270 C   0  0  0  0  0  0  0  0  0  0  0  0
  180.0140  179.2420  143.8830 C   0  0  0  0  0  2  0  0  0  0  0  0
  188.7520  178.3840  139.9880 C   0  0  0  0  0  2  0  0  0  0  0  0
  188.5950  178.2150  138.4720 C   0  0  1  0  0  3  0  0  0  0  0  0
  187.9640  179.6710  136.8640 O   0  0  0  0  0  1  0  0  0  0  0  0
  188.9460  179.4370  137.7660 N   0  0  0  0  0  2  0  0  0  0  0  0
  189.4260  177.0540  137.9410 C   0  0  0  0  0  2  0  0  0  0  0  0
  190.3720  176.5270  139.0070 C   0  0  0  0  0  2  0  0  0  0  0  0
  190.8610  175.2750  138.6350 O   0  0  0  0  0  1  0  0  0  0  0  0
  1 20  1  0  0  0  0
  1 18  1  0  0  0  0
  2 16  1  0  0  0  0
  3  7  1  0  0  0  0
  4 18  1  0  0  0  0
  4  8  1  0  0  0  0
  5  2  1  0  0  0  0
  6  2  1  0  0  0  0
  6  4  1  0  0  0  0
  7  5  1  0  0  0  0
  7 19  1  0  0  0  0
  8 12  1  0  0  0  0
  9 13  1  0  0  0  0
  9  6  1  0  0  0  0
 10  1  1  0  0  0  0
 13  1  1  0  0  0  0
 14 15  1  0  0  0  0
 15  3  1  0  0  0  0
 16 11  1  0  0  0  0
 16 12  1  0  0  0  0
 17  9  1  0  0  0  0
 17  5  1  0  0  0  0
 19 23  1  0  0  0  0
 21 14  1  0  0  0  0
 21 22  1  0  0  0  0
 22 17  1  0  0  0  0
 23 11  1  0  0  0  0
 25 19  1  0  0  0  0
 25 24  1  0  0  0  0
 26 25  1  0  0  0  0
 27 29  2  0  0  0  0
 28 30  1  0  0  0  0
 29 26  1  0  0  0  0
 29 28  1  0  0  0  0
 30 24  1  0  0  0  0
 31 22  1  0  0  0  0
 32 31  1  0  0  0  0
 33 34  1  0  0  0  0
 34 32  1  0  0  0  0
 35 32  1  0  0  0  0
 35 36  1  0  0  0  0
 37 36  1  0  0  0  0
M  END
>  <MODEL>
1

>  <REMARK>
 VINA RESULT:      -9.6      0.000      0.000
  Name = 
  6 active torsions:
  status: ('A' for Active; 'I' for Inactive)
    1  A    between atoms: C_1  and  C_4
    2  A    between atoms: C_1  and  C_27
    3  A    between atoms: C_4  and  C_12
    4  A    between atoms: C_4  and  N_37
    5  A    between atoms: C_8  and  C_12
    6  A    between atoms: C_23  and  C_30
                            x       y       z     vdW  Elec       q    Type
                         _______ _______ _______ _____ _____    ______ ____

>  <TORSDO>
F 6

$$$$
=
 OpenBabel11122411463D

 37 42  0  0  1  0  0  0  0  0999 V2000
  190.3620  175.6920  143.0820 C   0  0  0  0  0  0  0  0  0  0  0  0
  188.2590  178.4570  141.4550 C   0  0  1  0  0  3  0  0  0  0  0  0
  185.6240  179.7900  142.9490 O   0  0  0  0  0  0  0  0  0  0  0  0
  190.6920  177.6540  141.6510 N   0  0  2  0  0  0  0  0  0  0  0  0
  187.1190  177.9710  142.3490 C   0  0  2  0  0  3  0  0  0  0  0  0
  189.5240  178.2660  142.3130 C   0  0  2  0  0  3  0  0  0  0  0  0
  185.7660  178.6720  142.1110 C   0  0  2  0  0  3  0  0  0  0  0  0
  190.7990  178.1310  140.2720 C   0  0  0  0  0  2  0  0  0  0  0  0
  189.1070  177.5670  143.6140 C   0  0  2  0  0  3  0  0  0  0  0  0
  191.3450  176.1040  143.9720 F   0  0  0  0  0  0  0  0  0  0  0  0
  187.2620  178.2340  139.2120 N   0  0  0  0  0  2  0  0  0  0  0  0
  189.6120  177.7000  139.4020 C   0  0  0  0  0  2  0  0  0  0  0  0
  189.0920  176.1560  143.4750 O   0  0  0  0  0  0  0  0  0  0  0  0
  184.6410  178.2390  144.4190 O   0  0  0  0  0  0  0  0  0  0  0  0
  184.5610  179.5220  143.8420 C   0  0  0  0  0  2  0  0  0  0  0  0
  188.2610  177.6820  140.1240 C   0  0  1  0  0  3  0  0  0  0  0  0
  187.6730  178.0580  143.7760 C   0  0  2  0  0  3  0  0  0  0  0  0
  190.6660  176.1910  141.6780 C   0  0  0  0  0  2  0  0  0  0  0  0
  185.4490  179.0110  140.6390 C   0  0  1  0  0  3  0  0  0  0  0  0
  190.3420  174.3110  143.0600 F   0  0  0  0  0  0  0  0  0  0  0  0
  185.7140  178.2740  145.3130 C   0  0  0  0  0  2  0  0  0  0  0  0
  186.8250  177.3380  144.8430 C   0  0  2  0  0  3  0  0  0  0  0  0
  185.9220  177.9150  139.6880 C   0  0  0  0  0  2  0  0  0  0  0  0
  183.0950  178.0910  140.7420 C   0  0  0  0  0  2  0  0  0  0  0  0
  183.9650  179.3000  140.3890 C   0  0  2  0  0  3  0  0  0  0  0  0
  183.6920  179.8020  138.9630 C   0  0  0  0  0  2  0  0  0  0  0  0
  181.7890  180.9470  138.1640 O   0  0  0  0  0  0  0  0  0  0  0  0
  181.2880  178.8770  139.1840 C   0  0  0  0  0  2  0  0  0  0  0  0
  182.2190  179.9670  138.7480 C   0  0  0  0  0  0  0  0  0  0  0  0
  181.6170  178.4510  140.6130 C   0  0  0  0  0  2  0  0  0  0  0  0
  187.6650  176.9610  146.0680 C   0  0  0  0  0  2  0  0  0  0  0  0
  188.0510  178.1690  146.9320 C   0  0  1  0  0  3  0  0  0  0  0  0
  187.8860  177.8480  149.1630 O   0  0  0  0  0  1  0  0  0  0  0  0
  187.1810  178.2850  148.0930 N   0  0  0  0  0  2  0  0  0  0  0  0
  189.5050  178.1060  147.3800 C   0  0  0  0  0  2  0  0  0  0  0  0
  190.1550  176.8040  146.9420 C   0  0  0  0  0  2  0  0  0  0  0  0
  191.5420  176.9030  147.0500 O   0  0  0  0  0  1  0  0  0  0  0  0
  1 13  1  0  0  0  0
  1 10  1  0  0  0  0
  2  6  1  0  0  0  0
  2  5  1  0  0  0  0
  3 15  1  0  0  0  0
  4 18  1  0  0  0  0
  4  6  1  0  0  0  0
  5 17  1  0  0  0  0
  6  9  1  0  0  0  0
  7  5  1  0  0  0  0
  7  3  1  0  0  0  0
  8  4  1  0  0  0  0
  9 17  1  0  0  0  0
 11 23  1  0  0  0  0
 11 16  1  0  0  0  0
 12 16  1  0  0  0  0
 12  8  1  0  0  0  0
 13  9  1  0  0  0  0
 14 21  1  0  0  0  0
 15 14  1  0  0  0  0
 16  2  1  0  0  0  0
 17 22  1  0  0  0  0
 18  1  1  0  0  0  0
 19  7  1  0  0  0  0
 20  1  1  0  0  0  0
 22 21  1  0  0  0  0
 22 31  1  0  0  0  0
 23 19  1  0  0  0  0
 25 19  1  0  0  0  0
 25 24  1  0  0  0  0
 26 25  1  0  0  0  0
 27 29  2  0  0  0  0
 28 30  1  0  0  0  0
 29 26  1  0  0  0  0
 29 28  1  0  0  0  0
 30 24  1  0  0  0  0
 31 32  1  0  0  0  0
 32 35  1  0  0  0  0
 32 34  1  0  0  0  0
 34 33  1  0  0  0  0
 36 37  1  0  0  0  0
 36 35  1  0  0  0  0
M  END
>  <MODEL>
2

>  <REMARK>
 VINA RESULT:      -9.2      2.407      5.517
  Name = 
  6 active torsions:
  status: ('A' for Active; 'I' for Inactive)
    1  A    between atoms: C_1  and  C_4
    2  A    between atoms: C_1  and  C_27
    3  A    between atoms: C_4  and  C_12
    4  A    between atoms: C_4  and  N_37
    5  A    between atoms: C_8  and  C_12
    6  A    between atoms: C_23  and  C_30
                            x       y       z     vdW  Elec       q    Type
                         _______ _______ _______ _____ _____    ______ ____

>  <TORSDO>
F 6

$$$$
=
 OpenBabel11122411463D

 37 42  0  0  1  0  0  0  0  0999 V2000
  187.0740  176.6420  137.6850 C   0  0  0  0  0  0  0  0  0  0  0  0
  187.3060  178.5850  140.9830 C   0  0  1  0  0  3  0  0  0  0  0  0
  190.1430  178.9050  142.6560 O   0  0  0  0  0  0  0  0  0  0  0  0
  186.1040  178.6440  138.7130 N   0  0  2  0  0  0  0  0  0  0  0  0
  188.5250  177.7150  141.2890 C   0  0  2  0  0  3  0  0  0  0  0  0
  187.3660  178.8060  139.4610 C   0  0  2  0  0  3  0  0  0  0  0  0
  189.1370  177.9270  142.6890 C   0  0  2  0  0  3  0  0  0  0  0  0
  184.9840  179.1720  139.4930 C   0  0  0  0  0  2  0  0  0  0  0  0
  188.5280  177.9660  138.9120 C   0  0  2  0  0  3  0  0  0  0  0  0
  187.4240  177.3330  136.5330 F   0  0  0  0  0  0  0  0  0  0  0  0
  185.8580  178.1090  142.9210 N   0  0  0  0  0  2  0  0  0  0  0  0
  184.7470  178.3930  140.7920 C   0  0  0  0  0  2  0  0  0  0  0  0
  188.1290  176.6380  138.6170 O   0  0  0  0  0  0  0  0  0  0  0  0
  191.5530  177.0680  142.2400 O   0  0  0  0  0  0  0  0  0  0  0  0
  191.3690  178.2660  142.9580 C   0  0  0  0  0  2  0  0  0  0  0  0
  186.0220  177.8980  141.4840 C   0  0  1  0  0  3  0  0  0  0  0  0
  189.4740  177.9400  140.1060 C   0  0  2  0  0  3  0  0  0  0  0  0
  185.8390  177.2570  138.3250 C   0  0  0  0  0  2  0  0  0  0  0  0
  188.1190  178.1850  143.8200 C   0  0  1  0  0  3  0  0  0  0  0  0
  186.7820  175.3370  137.3400 F   0  0  0  0  0  0  0  0  0  0  0  0
  191.7860  177.4350  140.9120 C   0  0  0  0  0  2  0  0  0  0  0  0
  190.6470  176.9430  140.0210 C   0  0  2  0  0  3  0  0  0  0  0  0
  186.8570  177.3420  143.6540 C   0  0  0  0  0  2  0  0  0  0  0  0
  189.6370  176.7530  145.2510 C   0  0  0  0  0  2  0  0  0  0  0  0
  188.7000  177.9640  145.2210 C   0  0  2  0  0  3  0  0  0  0  0  0
  187.6150  177.8720  146.3040 C   0  0  0  0  0  2  0  0  0  0  0  0
  187.8640  178.1320  148.6370 O   0  0  0  0  0  0  0  0  0  0  0  0
  189.2590  176.4630  147.7180 C   0  0  0  0  0  2  0  0  0  0  0  0
  188.2360  177.5540  147.6300 C   0  0  0  0  0  0  0  0  0  0  0  0
  190.3050  176.6400  146.6200 C   0  0  0  0  0  2  0  0  0  0  0  0
  191.1900  176.8340  138.5920 C   0  0  0  0  0  2  0  0  0  0  0  0
  191.4820  175.3910  138.1640 C   0  0  1  0  0  3  0  0  0  0  0  0
  190.0500  173.7530  137.5530 O   0  0  0  0  0  1  0  0  0  0  0  0
  190.5470  174.9440  137.1430 N   0  0  0  0  0  2  0  0  0  0  0  0
  192.9110  175.2240  137.6640 C   0  0  0  0  0  2  0  0  0  0  0  0
  193.1340  176.0040  136.3790 C   0  0  0  0  0  2  0  0  0  0  0  0
  194.3070  176.7530  136.4730 O   0  0  0  0  0  1  0  0  0  0  0  0
  1 18  1  0  0  0  0
  1 13  1  0  0  0  0
  2  5  1  0  0  0  0
  2 16  1  0  0  0  0
  3  7  1  0  0  0  0
  3 15  1  0  0  0  0
  4  6  1  0  0  0  0
  4  8  1  0  0  0  0
  5  7  1  0  0  0  0
  6  2  1  0  0  0  0
  7 19  1  0  0  0  0
  8 12  1  0  0  0  0
  9  6  1  0  0  0  0
  9 17  1  0  0  0  0
 10  1  1  0  0  0  0
 11 23  1  0  0  0  0
 12 16  1  0  0  0  0
 13  9  1  0  0  0  0
 14 15  1  0  0  0  0
 16 11  1  0  0  0  0
 17  5  1  0  0  0  0
 18  4  1  0  0  0  0
 19 25  1  0  0  0  0
 20  1  1  0  0  0  0
 21 14  1  0  0  0  0
 22 17  1  0  0  0  0
 22 21  1  0  0  0  0
 23 19  1  0  0  0  0
 24 30  1  0  0  0  0
 25 24  1  0  0  0  0
 25 26  1  0  0  0  0
 26 29  1  0  0  0  0
 29 28  1  0  0  0  0
 29 27  2  0  0  0  0
 30 28  1  0  0  0  0
 31 22  1  0  0  0  0
 32 31  1  0  0  0  0
 34 33  1  0  0  0  0
 34 32  1  0  0  0  0
 35 32  1  0  0  0  0
 36 37  1  0  0  0  0
 36 35  1  0  0  0  0
M  END
>  <MODEL>
3

>  <REMARK>
 VINA RESULT:      -9.0      3.563      6.475
  Name = 
  6 active torsions:
  status: ('A' for Active; 'I' for Inactive)
    1  A    between atoms: C_1  and  C_4
    2  A    between atoms: C_1  and  C_27
    3  A    between atoms: C_4  and  C_12
    4  A    between atoms: C_4  and  N_37
    5  A    between atoms: C_8  and  C_12
    6  A    between atoms: C_23  and  C_30
                            x       y       z     vdW  Elec       q    Type
                         _______ _______ _______ _____ _____    ______ ____

>  <TORSDO>
F 6

$$$$
=
 OpenBabel11122411463D

 37 42  0  0  1  0  0  0  0  0999 V2000
  185.8630  179.1460  146.0820 C   0  0  0  0  0  0  0  0  0  0  0  0
  186.8280  177.5550  142.7280 C   0  0  1  0  0  3  0  0  0  0  0  0
  189.6250  175.8350  142.3220 O   0  0  0  0  0  0  0  0  0  0  0  0
  184.7690  178.0430  144.1860 N   0  0  2  0  0  0  0  0  0  0  0  0
  188.2720  177.6410  143.2220 C   0  0  2  0  0  3  0  0  0  0  0  0
  186.0070  177.2610  143.9970 C   0  0  2  0  0  3  0  0  0  0  0  0
  189.3340  177.2020  142.1940 C   0  0  2  0  0  3  0  0  0  0  0  0
  184.0980  178.2450  142.9020 C   0  0  0  0  0  2  0  0  0  0  0  0
  186.9640  177.3100  145.1960 C   0  0  2  0  0  3  0  0  0  0  0  0
  185.2330  178.3200  147.0020 F   0  0  0  0  0  0  0  0  0  0  0  0
  186.9460  178.8350  140.6240 N   0  0  0  0  0  2  0  0  0  0  0  0
  184.9250  179.0910  141.9280 C   0  0  0  0  0  2  0  0  0  0  0  0
  187.1150  178.6250  145.7010 O   0  0  0  0  0  0  0  0  0  0  0  0
  191.2790  176.5930  143.8150 O   0  0  0  0  0  0  0  0  0  0  0  0
  190.9690  175.7230  142.7500 C   0  0  0  0  0  2  0  0  0  0  0  0
  186.4370  178.8520  141.9940 C   0  0  1  0  0  3  0  0  0  0  0  0
  188.2780  176.8790  144.5520 C   0  0  2  0  0  3  0  0  0  0  0  0
  184.9980  179.3310  144.8440 C   0  0  0  0  0  2  0  0  0  0  0  0
  189.0360  177.5930  140.7310 C   0  0  1  0  0  3  0  0  0  0  0  0
  186.0560  180.3840  146.6660 F   0  0  0  0  0  0  0  0  0  0  0  0
  190.6180  176.0920  144.9390 C   0  0  0  0  0  2  0  0  0  0  0  0
  189.5480  177.0770  145.4040 C   0  0  2  0  0  3  0  0  0  0  0  0
  188.3960  178.9750  140.6300 C   0  0  0  0  0  2  0  0  0  0  0  0
  190.1740  176.3750  138.8280 C   0  0  0  0  0  2  0  0  0  0  0  0
  190.2700  177.5340  139.8240 C   0  0  2  0  0  3  0  0  0  0  0  0
  191.5860  177.4980  140.6150 C   0  0  0  0  0  2  0  0  0  0  0  0
  193.7610  177.9920  139.8430 O   0  0  0  0  0  0  0  0  0  0  0  0
  192.6750  176.3060  138.5960 C   0  0  0  0  0  2  0  0  0  0  0  0
  192.7460  177.3370  139.6800 C   0  0  0  0  0  0  0  0  0  0  0  0
  191.3470  176.4230  137.8510 C   0  0  0  0  0  2  0  0  0  0  0  0
  189.2770  176.8030  146.8870 C   0  0  0  0  0  2  0  0  0  0  0  0
  189.8180  177.9000  147.8140 C   0  0  1  0  0  3  0  0  0  0  0  0
  187.7780  177.4390  148.6670 O   0  0  0  0  0  1  0  0  0  0  0  0
  188.8410  178.2610  148.8290 N   0  0  0  0  0  2  0  0  0  0  0  0
  191.1260  177.4890  148.4770 C   0  0  0  0  0  2  0  0  0  0  0  0
  191.7710  176.3280  147.7390 C   0  0  0  0  0  2  0  0  0  0  0  0
  193.0030  176.0210  148.3170 O   0  0  0  0  0  1  0  0  0  0  0  0
  1 20  1  0  0  0  0
  1 10  1  0  0  0  0
  2  5  1  0  0  0  0
  2  6  1  0  0  0  0
  3 15  1  0  0  0  0
  4 18  1  0  0  0  0
  5 17  1  0  0  0  0
  6  4  1  0  0  0  0
  6  9  1  0  0  0  0
  7  3  1  0  0  0  0
  7  5  1  0  0  0  0
  8  4  1  0  0  0  0
  9 13  1  0  0  0  0
 11 23  1  0  0  0  0
 11 16  1  0  0  0  0
 12 16  1  0  0  0  0
 12  8  1  0  0  0  0
 13  1  1  0  0  0  0
 14 21  1  0  0  0  0
 15 14  1  0  0  0  0
 16  2  1  0  0  0  0
 17  9  1  0  0  0  0
 17 22  1  0  0  0  0
 18  1  1  0  0  0  0
 19  7  1  0  0  0  0
 21 22  1  0  0  0  0
 22 31  1  0  0  0  0
 23 19  1  0  0  0  0
 24 25  1  0  0  0  0
 25 26  1  0  0  0  0
 25 19  1  0  0  0  0
 28 29  1  0  0  0  0
 29 27  2  0  0  0  0
 29 26  1  0  0  0  0
 30 28  1  0  0  0  0
 30 24  1  0  0  0  0
 31 32  1  0  0  0  0
 32 35  1  0  0  0  0
 32 34  1  0  0  0  0
 33 34  1  0  0  0  0
 36 37  1  0  0  0  0
 36 35  1  0  0  0  0
M  END
>  <MODEL>
4

>  <REMARK>
 VINA RESULT:      -8.9      3.340      7.851
  Name = 
  6 active torsions:
  status: ('A' for Active; 'I' for Inactive)
    1  A    between atoms: C_1  and  C_4
    2  A    between atoms: C_1  and  C_27
    3  A    between atoms: C_4  and  C_12
    4  A    between atoms: C_4  and  N_37
    5  A    between atoms: C_8  and  C_12
    6  A    between atoms: C_23  and  C_30
                            x       y       z     vdW  Elec       q    Type
                         _______ _______ _______ _____ _____    ______ ____

>  <TORSDO>
F 6

$$$$
=
 OpenBabel11122411463D

 37 42  0  0  1  0  0  0  0  0999 V2000
  190.4890  176.1990  138.0910 C   0  0  0  0  0  0  0  0  0  0  0  0
  187.2840  178.2800  137.7630 C   0  0  1  0  0  3  0  0  0  0  0  0
  185.6810  179.4910  140.3920 O   0  0  0  0  0  0  0  0  0  0  0  0
  189.5310  177.8780  136.5840 N   0  0  2  0  0  0  0  0  0  0  0  0
  186.9640  177.8180  139.1840 C   0  0  2  0  0  3  0  0  0  0  0  0
  188.8150  178.4350  137.7480 C   0  0  2  0  0  3  0  0  0  0  0  0
  185.5860  178.2650  139.7150 C   0  0  2  0  0  3  0  0  0  0  0  0
  188.7550  178.0940  135.3630 C   0  0  0  0  0  2  0  0  0  0  0  0
  189.3490  177.9450  139.1010 C   0  0  2  0  0  3  0  0  0  0  0  0
  191.6760  176.9050  138.2180 F   0  0  0  0  0  0  0  0  0  0  0  0
  185.3000  177.4960  136.5270 N   0  0  0  0  0  2  0  0  0  0  0  0
  187.4180  177.3430  135.3700 C   0  0  0  0  0  2  0  0  0  0  0  0
  189.5770  176.5460  139.1060 O   0  0  0  0  0  0  0  0  0  0  0  0
  186.0420  178.1260  142.2750 O   0  0  0  0  0  0  0  0  0  0  0  0
  185.3740  179.2520  141.7520 C   0  0  0  0  0  2  0  0  0  0  0  0
  186.7290  177.2740  136.7380 C   0  0  1  0  0  3  0  0  0  0  0  0
  188.1720  178.2530  140.0200 C   0  0  2  0  0  3  0  0  0  0  0  0
  189.8520  176.4570  136.7330 C   0  0  0  0  0  2  0  0  0  0  0  0
  184.4480  178.2690  138.6720 C   0  0  1  0  0  3  0  0  0  0  0  0
  190.7700  174.8490  138.1900 F   0  0  0  0  0  0  0  0  0  0  0  0
  187.3890  178.4820  142.3830 C   0  0  0  0  0  2  0  0  0  0  0  0
  188.2350  177.6380  141.4330 C   0  0  2  0  0  3  0  0  0  0  0  0
  184.5530  177.0890  137.7100 C   0  0  0  0  0  2  0  0  0  0  0  0
  182.2170  177.0920  138.8500 C   0  0  0  0  0  2  0  0  0  0  0  0
  183.0500  178.2940  139.3000 C   0  0  2  0  0  3  0  0  0  0  0  0
  182.3150  179.6210  139.0560 C   0  0  0  0  0  2  0  0  0  0  0  0
  180.4530  180.4860  140.2200 O   0  0  0  0  0  0  0  0  0  0  0  0
  180.0840  178.3390  139.3090 C   0  0  0  0  0  2  0  0  0  0  0  0
  180.9220  179.5460  139.6020 C   0  0  0  0  0  0  0  0  0  0  0  0
  180.8830  177.0690  139.5940 C   0  0  0  0  0  2  0  0  0  0  0  0
  189.6690  177.6230  141.9760 C   0  0  0  0  0  2  0  0  0  0  0  0
  189.8160  176.8220  143.2760 C   0  0  1  0  0  3  0  0  0  0  0  0
  191.6800  175.6490  143.7770 O   0  0  0  0  0  1  0  0  0  0  0  0
  190.5400  175.5810  143.0500 N   0  0  0  0  0  2  0  0  0  0  0  0
  190.5030  177.6320  144.3670 C   0  0  0  0  0  2  0  0  0  0  0  0
  189.5630  177.8830  145.5340 C   0  0  0  0  0  2  0  0  0  0  0  0
  188.4030  177.1220  145.3850 O   0  0  0  0  0  1  0  0  0  0  0  0
  1 20  1  0  0  0  0
  1 10  1  0  0  0  0
  1 13  1  0  0  0  0
  2  5  1  0  0  0  0
  3 15  1  0  0  0  0
  4 18  1  0  0  0  0
  4  6  1  0  0  0  0
  5  7  1  0  0  0  0
  5 17  1  0  0  0  0
  6  2  1  0  0  0  0
  6  9  1  0  0  0  0
  7  3  1  0  0  0  0
  8 12  1  0  0  0  0
  8  4  1  0  0  0  0
  9 13  1  0  0  0  0
  9 17  1  0  0  0  0
 11 16  1  0  0  0  0
 11 23  1  0  0  0  0
 12 16  1  0  0  0  0
 14 21  1  0  0  0  0
 15 14  1  0  0  0  0
 16  2  1  0  0  0  0
 17 22  1  0  0  0  0
 18  1  1  0  0  0  0
 19 25  1  0  0  0  0
 19  7  1  0  0  0  0
 22 31  1  0  0  0  0
 22 21  1  0  0  0  0
 23 19  1  0  0  0  0
 24 25  1  0  0  0  0
 24 30  1  0  0  0  0
 26 25  1  0  0  0  0
 26 29  1  0  0  0  0
 28 30  1  0  0  0  0
 28 29  1  0  0  0  0
 29 27  2  0  0  0  0
 31 32  1  0  0  0  0
 32 35  1  0  0  0  0
 34 32  1  0  0  0  0
 34 33  1  0  0  0  0
 35 36  1  0  0  0  0
 37 36  1  0  0  0  0
M  END
>  <MODEL>
5

>  <REMARK>
 VINA RESULT:      -8.9      2.868      6.061
  Name = 
  6 active torsions:
  status: ('A' for Active; 'I' for Inactive)
    1  A    between atoms: C_1  and  C_4
    2  A    between atoms: C_1  and  C_27
    3  A    between atoms: C_4  and  C_12
    4  A    between atoms: C_4  and  N_37
    5  A    between atoms: C_8  and  C_12
    6  A    between atoms: C_23  and  C_30
                            x       y       z     vdW  Elec       q    Type
                         _______ _______ _______ _____ _____    ______ ____

>  <TORSDO>
F 6

$$$$
=
 OpenBabel11122411463D

 37 42  0  0  1  0  0  0  0  0999 V2000
  183.6450  177.9040  140.8040 C   0  0  0  0  0  0  0  0  0  0  0  0
  186.4200  178.8710  143.2670 C   0  0  1  0  0  3  0  0  0  0  0  0
  189.6220  178.8420  142.4310 O   0  0  0  0  0  0  0  0  0  0  0  0
  184.0130  179.5010  142.6270 N   0  0  2  0  0  0  0  0  0  0  0  0
  187.3410  178.0060  142.4080 C   0  0  2  0  0  3  0  0  0  0  0  0
  185.4430  179.5050  142.2610 C   0  0  2  0  0  3  0  0  0  0  0  0
  188.7760  177.8500  142.9510 C   0  0  2  0  0  3  0  0  0  0  0  0
  183.8580  179.7440  144.0610 C   0  0  0  0  0  2  0  0  0  0  0  0
  185.7350  178.9010  140.8800 C   0  0  2  0  0  3  0  0  0  0  0  0
  183.2060  178.9000  139.9420 F   0  0  0  0  0  0  0  0  0  0  0  0
  186.6710  177.8170  145.4820 N   0  0  0  0  0  2  0  0  0  0  0  0
  184.4630  178.6280  144.9200 C   0  0  0  0  0  2  0  0  0  0  0  0
  185.0300  177.6900  140.6720 O   0  0  0  0  0  0  0  0  0  0  0  0
  190.0140  177.2540  140.7390 O   0  0  0  0  0  0  0  0  0  0  0  0
  190.5830  178.1990  141.6160 C   0  0  0  0  0  2  0  0  0  0  0  0
  185.7540  178.0180  144.3620 C   0  0  1  0  0  3  0  0  0  0  0  0
  187.2230  178.5890  140.9950 C   0  0  2  0  0  3  0  0  0  0  0  0
  183.3270  178.2640  142.2470 C   0  0  0  0  0  2  0  0  0  0  0  0
  188.8910  177.7410  144.4860 C   0  0  1  0  0  3  0  0  0  0  0  0
  182.9820  176.7320  140.4920 F   0  0  0  0  0  0  0  0  0  0  0  0
  189.3160  177.9830  139.7720 C   0  0  0  0  0  2  0  0  0  0  0  0
  187.8190  177.7060  139.8810 C   0  0  2  0  0  3  0  0  0  0  0  0
  187.7510  176.9230  145.0870 C   0  0  0  0  0  2  0  0  0  0  0  0
  190.5820  175.8810  144.2050 C   0  0  0  0  0  2  0  0  0  0  0  0
  190.2330  177.1690  144.9550 C   0  0  2  0  0  3  0  0  0  0  0  0
  190.2960  176.9760  146.4780 C   0  0  0  0  0  2  0  0  0  0  0  0
  192.2100  176.7140  147.8330 O   0  0  0  0  0  0  0  0  0  0  0  0
  192.0600  175.1260  146.0910 C   0  0  0  0  0  2  0  0  0  0  0  0
  191.5870  176.3210  146.8620 C   0  0  0  0  0  0  0  0  0  0  0  0
  191.9820  175.4090  144.5930 C   0  0  0  0  0  2  0  0  0  0  0  0
  187.1890  178.0190  138.5190 C   0  0  0  0  0  2  0  0  0  0  0  0
  187.2740  176.8500  137.5290 C   0  0  1  0  0  3  0  0  0  0  0  0
  185.0920  177.4260  137.4270 O   0  0  0  0  0  1  0  0  0  0  0  0
  185.9510  176.4360  137.0880 N   0  0  0  0  0  2  0  0  0  0  0  0
  188.1400  177.1890  136.3230 C   0  0  0  0  0  2  0  0  0  0  0  0
  189.3680  176.2960  136.2660 C   0  0  0  0  0  2  0  0  0  0  0  0
  189.3520  175.3930  137.3290 O   0  0  0  0  0  1  0  0  0  0  0  0
  1 18  1  0  0  0  0
  2 16  1  0  0  0  0
  3  7  1  0  0  0  0
  4  8  1  0  0  0  0
  5  7  1  0  0  0  0
  5  2  1  0  0  0  0
  6  4  1  0  0  0  0
  6  2  1  0  0  0  0
  7 19  1  0  0  0  0
  8 12  1  0  0  0  0
  9 17  1  0  0  0  0
  9  6  1  0  0  0  0
 10  1  1  0  0  0  0
 13  1  1  0  0  0  0
 13  9  1  0  0  0  0
 14 15  1  0  0  0  0
 15  3  1  0  0  0  0
 16 12  1  0  0  0  0
 16 11  1  0  0  0  0
 17  5  1  0  0  0  0
 18  4  1  0  0  0  0
 19 25  1  0  0  0  0
 19 23  1  0  0  0  0
 20  1  1  0  0  0  0
 21 22  1  0  0  0  0
 21 14  1  0  0  0  0
 22 17  1  0  0  0  0
 23 11  1  0  0  0  0
 24 30  1  0  0  0  0
 24 25  1  0  0  0  0
 25 26  1  0  0  0  0
 26 29  1  0  0  0  0
 28 29  1  0  0  0  0
 29 27  2  0  0  0  0
 30 28  1  0  0  0  0
 31 22  1  0  0  0  0
 32 31  1  0  0  0  0
 34 33  1  0  0  0  0
 34 32  1  0  0  0  0
 35 32  1  0  0  0  0
 36 35  1  0  0  0  0
 36 37  1  0  0  0  0
M  END
>  <MODEL>
6

>  <REMARK>
 VINA RESULT:      -8.8      3.005      6.546
  Name = 
  6 active torsions:
  status: ('A' for Active; 'I' for Inactive)
    1  A    between atoms: C_1  and  C_4
    2  A    between atoms: C_1  and  C_27
    3  A    between atoms: C_4  and  C_12
    4  A    between atoms: C_4  and  N_37
    5  A    between atoms: C_8  and  C_12
    6  A    between atoms: C_23  and  C_30
                            x       y       z     vdW  Elec       q    Type
                         _______ _______ _______ _____ _____    ______ ____

>  <TORSDO>
F 6

$$$$
=
 OpenBabel11122411463D

 37 42  0  0  1  0  0  0  0  0999 V2000
  183.1260  177.0570  137.0610 C   0  0  0  0  0  0  0  0  0  0  0  0
  183.8540  179.2040  140.1530 C   0  0  1  0  0  3  0  0  0  0  0  0
  186.9150  179.6200  141.3420 O   0  0  0  0  0  0  0  0  0  0  0  0
  182.3140  179.1230  138.0990 N   0  0  2  0  0  0  0  0  0  0  0  0
  185.1120  178.3520  140.3200 C   0  0  2  0  0  3  0  0  0  0  0  0
  183.6760  179.3270  138.6290 C   0  0  2  0  0  3  0  0  0  0  0  0
  185.9320  178.6500  141.5920 C   0  0  2  0  0  3  0  0  0  0  0  0
  181.3260  179.7030  139.0070 C   0  0  0  0  0  2  0  0  0  0  0  0
  184.7440  178.4510  137.9600 C   0  0  2  0  0  3  0  0  0  0  0  0
  183.2890  177.6710  135.8270 F   0  0  0  0  0  0  0  0  0  0  0  0
  182.7280  178.8570  142.3190 N   0  0  0  0  0  2  0  0  0  0  0  0
  181.2980  179.0090  140.3750 C   0  0  0  0  0  2  0  0  0  0  0  0
  184.3130  177.1080  137.8160 O   0  0  0  0  0  0  0  0  0  0  0  0
  188.2550  177.7560  140.8290 O   0  0  0  0  0  0  0  0  0  0  0  0
  188.1760  178.9980  141.4900 C   0  0  0  0  0  2  0  0  0  0  0  0
  182.6680  178.5550  140.8900 C   0  0  1  0  0  3  0  0  0  0  0  0
  185.8650  178.4980  138.9930 C   0  0  2  0  0  3  0  0  0  0  0  0
  182.0020  177.7150  137.8450 C   0  0  0  0  0  2  0  0  0  0  0  0
  185.1000  178.9820  142.8490 C   0  0  1  0  0  3  0  0  0  0  0  0
  182.7920  175.7330  136.8490 F   0  0  0  0  0  0  0  0  0  0  0  0
  188.2760  178.0370  139.4600 C   0  0  0  0  0  2  0  0  0  0  0  0
  187.0170  177.4930  138.7900 C   0  0  2  0  0  3  0  0  0  0  0  0
  183.8340  178.1360  142.9350 C   0  0  0  0  0  2  0  0  0  0  0  0
  186.6980  177.5470  144.1860 C   0  0  0  0  0  2  0  0  0  0  0  0
  185.8930  178.8490  144.1540 C   0  0  2  0  0  3  0  0  0  0  0  0
  185.0110  179.0050  145.4020 C   0  0  0  0  0  2  0  0  0  0  0  0
  185.6890  179.4880  147.6110 O   0  0  0  0  0  0  0  0  0  0  0  0
  186.7310  177.5740  146.6980 C   0  0  0  0  0  2  0  0  0  0  0  0
  185.8200  178.7630  146.6390 C   0  0  0  0  0  0  0  0  0  0  0  0
  187.5810  177.5050  145.4320 C   0  0  0  0  0  2  0  0  0  0  0  0
  187.3310  177.2920  137.3040 C   0  0  0  0  0  2  0  0  0  0  0  0
  187.6750  175.8400  136.9490 C   0  0  1  0  0  3  0  0  0  0  0  0
  185.9090  174.4700  136.6160 O   0  0  0  0  0  1  0  0  0  0  0  0
  186.7490  175.3060  135.9610 N   0  0  0  0  0  2  0  0  0  0  0  0
  189.1050  175.7010  136.4460 C   0  0  0  0  0  2  0  0  0  0  0  0
  190.0430  175.2980  137.5720 C   0  0  0  0  0  2  0  0  0  0  0  0
  190.1970  173.9120  137.5930 O   0  0  0  0  0  1  0  0  0  0  0  0
  1 13  1  0  0  0  0
  1 18  1  0  0  0  0
  2  5  1  0  0  0  0
  2 16  1  0  0  0  0
  3 15  1  0  0  0  0
  3  7  1  0  0  0  0
  4  6  1  0  0  0  0
  4  8  1  0  0  0  0
  5  7  1  0  0  0  0
  6  2  1  0  0  0  0
  7 19  1  0  0  0  0
  8 12  1  0  0  0  0
  9  6  1  0  0  0  0
  9 17  1  0  0  0  0
 10  1  1  0  0  0  0
 11 23  1  0  0  0  0
 12 16  1  0  0  0  0
 13  9  1  0  0  0  0
 14 15  1  0  0  0  0
 16 11  1  0  0  0  0
 17  5  1  0  0  0  0
 18  4  1  0  0  0  0
 19 23  1  0  0  0  0
 19 25  1  0  0  0  0
 20  1  1  0  0  0  0
 21 14  1  0  0  0  0
 22 17  1  0  0  0  0
 22 21  1  0  0  0  0
 24 30  1  0  0  0  0
 25 24  1  0  0  0  0
 25 26  1  0  0  0  0
 26 29  1  0  0  0  0
 29 28  1  0  0  0  0
 29 27  2  0  0  0  0
 30 28  1  0  0  0  0
 31 22  1  0  0  0  0
 32 31  1  0  0  0  0
 34 33  1  0  0  0  0
 34 32  1  0  0  0  0
 35 32  1  0  0  0  0
 35 36  1  0  0  0  0
 36 37  1  0  0  0  0
M  END
>  <MODEL>
7

>  <REMARK>
 VINA RESULT:      -8.7      3.654      6.313
  Name = 
  6 active torsions:
  status: ('A' for Active; 'I' for Inactive)
    1  A    between atoms: C_1  and  C_4
    2  A    between atoms: C_1  and  C_27
    3  A    between atoms: C_4  and  C_12
    4  A    between atoms: C_4  and  N_37
    5  A    between atoms: C_8  and  C_12
    6  A    between atoms: C_23  and  C_30
                            x       y       z     vdW  Elec       q    Type
                         _______ _______ _______ _____ _____    ______ ____

>  <TORSDO>
F 6

$$$$
=
 OpenBabel11122411463D

 37 42  0  0  1  0  0  0  0  0999 V2000
  186.0020  177.2900  137.6860 C   0  0  0  0  0  0  0  0  0  0  0  0
  186.7630  178.6170  141.2030 C   0  0  1  0  0  3  0  0  0  0  0  0
  189.8110  178.5810  142.4900 O   0  0  0  0  0  0  0  0  0  0  0  0
  185.2690  179.0990  139.1690 N   0  0  2  0  0  0  0  0  0  0  0  0
  187.9720  177.6830  141.1800 C   0  0  2  0  0  3  0  0  0  0  0  0
  186.6260  179.1010  139.7480 C   0  0  2  0  0  3  0  0  0  0  0  0
  188.7760  177.6330  142.4960 C   0  0  2  0  0  3  0  0  0  0  0  0
  184.2890  179.5030  140.1770 C   0  0  0  0  0  2  0  0  0  0  0  0
  187.6650  178.3480  138.9050 C   0  0  2  0  0  3  0  0  0  0  0  0
  186.2240  178.1660  136.6320 F   0  0  0  0  0  0  0  0  0  0  0  0
  185.5700  177.8360  143.2140 N   0  0  0  0  0  2  0  0  0  0  0  0
  184.1960  178.5130  141.3430 C   0  0  0  0  0  2  0  0  0  0  0  0
  187.1720  177.1010  138.4460 O   0  0  0  0  0  0  0  0  0  0  0  0
  191.0700  176.8190  141.5710 O   0  0  0  0  0  0  0  0  0  0  0  0
  191.0370  177.8750  142.5030 C   0  0  0  0  0  2  0  0  0  0  0  0
  185.5290  177.8790  141.7540 C   0  0  1  0  0  3  0  0  0  0  0  0
  188.7620  178.0940  139.9320 C   0  0  2  0  0  3  0  0  0  0  0  0
  184.8930  177.8070  138.5900 C   0  0  0  0  0  2  0  0  0  0  0  0
  187.9330  177.7080  143.7860 C   0  0  1  0  0  3  0  0  0  0  0  0
  185.6080  176.0720  137.1670 F   0  0  0  0  0  0  0  0  0  0  0  0
  191.1360  177.4090  140.3060 C   0  0  0  0  0  2  0  0  0  0  0  0
  189.8680  177.1040  139.5140 C   0  0  2  0  0  3  0  0  0  0  0  0
  186.6240  176.9330  143.6570 C   0  0  0  0  0  2  0  0  0  0  0  0
  187.8820  177.5010  146.3070 C   0  0  0  0  0  2  0  0  0  0  0  0
  188.6870  177.2330  145.0320 C   0  0  2  0  0  3  0  0  0  0  0  0
  190.1070  177.8110  145.1220 C   0  0  0  0  0  2  0  0  0  0  0  0
  191.9170  177.0300  146.4210 O   0  0  0  0  0  0  0  0  0  0  0  0
  189.9820  177.5100  147.6870 C   0  0  0  0  0  2  0  0  0  0  0  0
  190.7540  177.3950  146.4070 C   0  0  0  0  0  0  0  0  0  0  0  0
  188.5940  176.8960  147.5150 C   0  0  0  0  0  2  0  0  0  0  0  0
  190.2070  177.2380  138.0250 C   0  0  0  0  0  2  0  0  0  0  0  0
  190.4980  175.8930  137.3470 C   0  0  1  0  0  3  0  0  0  0  0  0
  192.1000  174.4290  137.9740 O   0  0  0  0  0  1  0  0  0  0  0  0
  190.8720  174.8810  138.3230 N   0  0  0  0  0  2  0  0  0  0  0  0
  189.3140  175.4040  136.5230 C   0  0  0  0  0  2  0  0  0  0  0  0
  188.9380  176.4160  135.4540 C   0  0  0  0  0  2  0  0  0  0  0  0
  187.7370  176.0470  134.8490 O   0  0  0  0  0  1  0  0  0  0  0  0
  1 13  1  0  0  0  0
  1 18  1  0  0  0  0
  2 16  1  0  0  0  0
  3  7  1  0  0  0  0
  3 15  1  0  0  0  0
  4  6  1  0  0  0  0
  4  8  1  0  0  0  0
  5  2  1  0  0  0  0
  5  7  1  0  0  0  0
  6  2  1  0  0  0  0
  7 19  1  0  0  0  0
  8 12  1  0  0  0  0
  9  6  1  0  0  0  0
  9 17  1  0  0  0  0
 10  1  1  0  0  0  0
 11 23  1  0  0  0  0
 12 16  1  0  0  0  0
 13  9  1  0  0  0  0
 14 15  1  0  0  0  0
 16 11  1  0  0  0  0
 17  5  1  0  0  0  0
 18  4  1  0  0  0  0
 19 25  1  0  0  0  0
 20  1  1  0  0  0  0
 21 14  1  0  0  0  0
 22 17  1  0  0  0  0
 22 21  1  0  0  0  0
 23 19  1  0  0  0  0
 24 30  1  0  0  0  0
 25 26  1  0  0  0  0
 25 24  1  0  0  0  0
 26 29  1  0  0  0  0
 29 27  2  0  0  0  0
 29 28  1  0  0  0  0
 30 28  1  0  0  0  0
 31 22  1  0  0  0  0
 32 31  1  0  0  0  0
 32 34  1  0  0  0  0
 33 34  1  0  0  0  0
 35 32  1  0  0  0  0
 36 35  1  0  0  0  0
 37 36  1  0  0  0  0
M  END
>  <MODEL>
8

>  <REMARK>
 VINA RESULT:      -8.2      3.347      6.561
  Name = 
  6 active torsions:
  status: ('A' for Active; 'I' for Inactive)
    1  A    between atoms: C_1  and  C_4
    2  A    between atoms: C_1  and  C_27
    3  A    between atoms: C_4  and  C_12
    4  A    between atoms: C_4  and  N_37
    5  A    between atoms: C_8  and  C_12
    6  A    between atoms: C_23  and  C_30
                            x       y       z     vdW  Elec       q    Type
                         _______ _______ _______ _____ _____    ______ ____

>  <TORSDO>
F 6

$$$$
=
 OpenBabel11122411463D

 37 42  0  0  1  0  0  0  0  0999 V2000
  182.4720  177.8680  140.7560 C   0  0  0  0  0  0  0  0  0  0  0  0
  185.5180  178.9300  142.8300 C   0  0  1  0  0  3  0  0  0  0  0  0
  188.5690  179.0670  141.5560 O   0  0  0  0  0  0  0  0  0  0  0  0
  183.0190  179.4530  142.5440 N   0  0  2  0  0  0  0  0  0  0  0  0
  186.3480  178.1230  141.8330 C   0  0  2  0  0  3  0  0  0  0  0  0
  184.3820  179.5310  141.9830 C   0  0  2  0  0  3  0  0  0  0  0  0
  187.8500  178.0280  142.1680 C   0  0  2  0  0  3  0  0  0  0  0  0
  183.0550  179.6670  143.9900 C   0  0  0  0  0  2  0  0  0  0  0  0
  184.5050  178.9630  140.5630 C   0  0  2  0  0  3  0  0  0  0  0  0
  181.8720  178.8540  139.9860 F   0  0  0  0  0  0  0  0  0  0  0  0
  186.1240  177.8570  144.9650 N   0  0  0  0  0  2  0  0  0  0  0  0
  183.8250  178.5690  144.7330 C   0  0  0  0  0  2  0  0  0  0  0  0
  183.8340  177.7220  140.4280 O   0  0  0  0  0  0  0  0  0  0  0  0
  188.7930  177.5260  139.7930 O   0  0  0  0  0  0  0  0  0  0  0  0
  189.4350  178.4830  140.6030 C   0  0  0  0  0  2  0  0  0  0  0  0
  185.0510  178.0300  143.9880 C   0  0  1  0  0  3  0  0  0  0  0  0
  186.0070  178.7200  140.4630 C   0  0  2  0  0  3  0  0  0  0  0  0
  182.3430  178.1910  142.2370 C   0  0  0  0  0  2  0  0  0  0  0  0
  188.1840  177.9020  143.6690 C   0  0  1  0  0  3  0  0  0  0  0  0
  181.8270  176.6700  140.5140 F   0  0  0  0  0  0  0  0  0  0  0  0
  187.9340  178.2340  138.9480 C   0  0  0  0  0  2  0  0  0  0  0  0
  186.4810  177.8840  139.2580 C   0  0  2  0  0  3  0  0  0  0  0  0
  187.1780  177.0210  144.4040 C   0  0  0  0  0  2  0  0  0  0  0  0
  189.8870  176.1060  143.1470 C   0  0  0  0  0  2  0  0  0  0  0  0
  189.6030  177.3880  143.9350 C   0  0  2  0  0  3  0  0  0  0  0  0
  189.9000  177.2150  145.4320 C   0  0  0  0  0  2  0  0  0  0  0  0
  192.0050  177.0430  146.4860 O   0  0  0  0  0  0  0  0  0  0  0  0
  191.6600  175.4310  144.7950 C   0  0  0  0  0  2  0  0  0  0  0  0
  191.2590  176.6150  145.6220 C   0  0  0  0  0  0  0  0  0  0  0  0
  191.3470  175.6940  143.3240 C   0  0  0  0  0  2  0  0  0  0  0  0
  185.6530  178.1860  138.0040 C   0  0  0  0  0  2  0  0  0  0  0  0
  185.3220  176.9350  137.1800 C   0  0  1  0  0  3  0  0  0  0  0  0
  183.2860  177.9090  137.2850 O   0  0  0  0  0  1  0  0  0  0  0  0
  183.8870  176.7070  137.1240 N   0  0  0  0  0  2  0  0  0  0  0  0
  185.8890  177.0170  135.7690 C   0  0  0  0  0  2  0  0  0  0  0  0
  187.3670  176.6640  135.7540 C   0  0  0  0  0  2  0  0  0  0  0  0
  188.1070  177.7260  135.2350 O   0  0  0  0  0  1  0  0  0  0  0  0
  1 18  1  0  0  0  0
  2 16  1  0  0  0  0
  3  7  1  0  0  0  0
  4  8  1  0  0  0  0
  5  7  1  0  0  0  0
  5  2  1  0  0  0  0
  6  4  1  0  0  0  0
  6  2  1  0  0  0  0
  7 19  1  0  0  0  0
  8 12  1  0  0  0  0
  9  6  1  0  0  0  0
 10  1  1  0  0  0  0
 13  9  1  0  0  0  0
 13  1  1  0  0  0  0
 14 15  1  0  0  0  0
 15  3  1  0  0  0  0
 16 12  1  0  0  0  0
 16 11  1  0  0  0  0
 17  9  1  0  0  0  0
 17  5  1  0  0  0  0
 18  4  1  0  0  0  0
 19 25  1  0  0  0  0
 19 23  1  0  0  0  0
 20  1  1  0  0  0  0
 21 22  1  0  0  0  0
 21 14  1  0  0  0  0
 22 17  1  0  0  0  0
 23 11  1  0  0  0  0
 24 30  1  0  0  0  0
 24 25  1  0  0  0  0
 25 26  1  0  0  0  0
 26 29  1  0  0  0  0
 28 29  1  0  0  0  0
 29 27  2  0  0  0  0
 30 28  1  0  0  0  0
 31 22  1  0  0  0  0
 32 31  1  0  0  0  0
 34 32  1  0  0  0  0
 34 33  1  0  0  0  0
 35 32  1  0  0  0  0
 36 35  1  0  0  0  0
 37 36  1  0  0  0  0
M  END
>  <MODEL>
9

>  <REMARK>
 VINA RESULT:      -8.2      3.264      6.635
  Name = 
  6 active torsions:
  status: ('A' for Active; 'I' for Inactive)
    1  A    between atoms: C_1  and  C_4
    2  A    between atoms: C_1  and  C_27
    3  A    between atoms: C_4  and  C_12
    4  A    between atoms: C_4  and  N_37
    5  A    between atoms: C_8  and  C_12
    6  A    between atoms: C_23  and  C_30
                            x       y       z     vdW  Elec       q    Type
                         _______ _______ _______ _____ _____    ______ ____

>  <TORSDO>
F 6

$$$$
