=
 OpenBabel11122411023D

 31 35  0  0  1  0  0  0  0  0999 V2000
  190.9600  176.9250  142.2410 C   0  0  0  0  0  0  0  0  0  0  0  0
  190.1940  178.0020  138.6710 C   0  0  2  0  0  3  0  0  0  0  0  0
  190.5170  176.8030  137.7880 C   0  0  0  0  0  0  0  0  0  0  0  0
  191.6390  174.6760  137.4190 C   0  0  0  0  0  0  0  0  0  0  0  0
  190.0090  177.6200  140.1190 C   0  0  0  0  0  0  0  0  0  0  0  0
  189.6780  176.8190  142.7860 C   0  0  0  0  0  3  0  0  0  0  0  0
  191.3300  175.7550  138.2490 C   0  0  0  0  0  3  0  0  0  0  0  0
  187.7380  177.9800  138.4530 N   0  0  0  0  0  0  0  0  0  0  0  0
  192.0450  176.6360  143.0000 F   0  0  0  0  0  0  0  0  0  0  0  0
  189.2880  177.8220  135.9470 O   0  0  0  0  0  0  0  0  0  0  0  0
  192.4120  173.6650  137.8810 F   0  0  0  0  0  0  0  0  0  0  0  0
  187.5130  177.9760  139.9020 C   0  0  0  0  0  2  0  0  0  0  0  0
  188.9520  178.7660  138.1640 C   0  0  2  0  0  3  0  0  0  0  0  0
  191.1250  177.3260  140.9130 C   0  0  0  0  0  3  0  0  0  0  0  0
  191.1510  174.6380  136.1100 C   0  0  0  0  0  3  0  0  0  0  0  0
  188.7170  177.5150  140.6730 C   0  0  0  0  0  0  0  0  0  0  0  0
  188.5600  177.1240  142.0060 C   0  0  0  0  0  3  0  0  0  0  0  0
  189.1270  179.0430  136.6640 C   0  0  0  0  0  2  0  0  0  0  0  0
  190.0610  176.7740  136.4520 C   0  0  0  0  0  0  0  0  0  0  0  0
  190.3640  175.6870  135.6290 C   0  0  0  0  0  3  0  0  0  0  0  0
  186.5710  178.6430  137.8830 C   0  0  0  0  0  2  0  0  0  0  0  0
  185.6210  176.4920  137.5550 O   0  0  0  0  0  0  0  0  0  0  0  0
  185.4150  177.6950  137.8710 C   0  0  0  0  0  0  0  0  0  0  0  0
  181.4090  178.9460  138.6310 N   0  0  0  0  0  0  0  0  0  0  0  0
  182.9540  177.3820  137.5750 C   0  0  0  0  0  2  0  0  0  0  0  0
  184.6670  179.7350  139.7580 O   0  0  0  0  0  0  0  0  0  0  0  0
  180.1800  179.6860  138.4070 C   0  0  0  0  0  1  0  0  0  0  0  0
  181.7280  178.2710  137.3780 C   0  0  0  0  0  2  0  0  0  0  0  0
  183.7930  179.2780  138.9750 C   0  0  0  0  0  0  0  0  0  0  0  0
  184.0750  178.1550  138.1170 N   0  0  0  0  0  0  0  0  0  0  0  0
  182.4490  179.9350  138.9060 C   0  0  0  0  0  2  0  0  0  0  0  0
  1  6  1  0  0  0  0
  1  9  1  0  0  0  0
  2  3  1  6  0  0  0
  2  5  1  0  0  0  0
  3  7  1  0  0  0  0
  4 11  1  0  0  0  0
  4  7  2  0  0  0  0
  5 16  2  0  0  0  0
  5 14  1  0  0  0  0
  8 12  1  0  0  0  0
 10 19  1  0  0  0  0
 10 18  1  0  0  0  0
 12 16  1  0  0  0  0
 13 18  1  6  0  0  0
 13  8  1  0  0  0  0
 13  2  1  0  0  0  0
 14  1  2  0  0  0  0
 15  4  1  0  0  0  0
 16 17  1  0  0  0  0
 17  6  2  0  0  0  0
 19  3  2  0  0  0  0
 20 15  2  0  0  0  0
 20 19  1  0  0  0  0
 21  8  1  0  0  0  0
 22 23  2  0  0  0  0
 23 21  1  0  0  0  0
 23 30  1  0  0  0  0
 24 31  1  0  0  0  0
 25 30  1  0  0  0  0
 27 24  1  0  0  0  0
 28 25  1  0  0  0  0
 28 24  1  0  0  0  0
 29 26  2  0  0  0  0
 30 29  1  0  0  0  0
 31 29  1  0  0  0  0
M  END
>  <MODEL>
1

>  <REMARK>
 VINA RESULT:      -7.3      0.000      0.000
  Name = 
  2 active torsions:
  status: ('A' for Active; 'I' for Inactive)
    1  A    between atoms: C_5  and  C_16
    2  A    between atoms: N_10  and  C_16
                            x       y       z     vdW  Elec       q    Type
                         _______ _______ _______ _____ _____    ______ ____

>  <TORSDO>
F 2

$$$$
=
 OpenBabel11122411023D

 31 35  0  0  1  0  0  0  0  0999 V2000
  186.3580  172.3140  135.7540 C   0  0  0  0  0  0  0  0  0  0  0  0
  186.7230  176.0950  136.0030 C   0  0  2  0  0  3  0  0  0  0  0  0
  185.6700  176.5580  137.0030 C   0  0  0  0  0  0  0  0  0  0  0  0
  183.6080  176.1910  138.2400 C   0  0  0  0  0  0  0  0  0  0  0  0
  187.0210  174.6200  136.1190 C   0  0  0  0  0  0  0  0  0  0  0  0
  187.5130  171.8750  136.4060 C   0  0  0  0  0  3  0  0  0  0  0  0
  184.5790  175.7420  137.3430 C   0  0  0  0  0  3  0  0  0  0  0  0
  188.7400  176.5080  137.3630 N   0  0  0  0  0  0  0  0  0  0  0  0
  185.4730  171.4130  135.2640 F   0  0  0  0  0  0  0  0  0  0  0  0
  186.7870  178.7150  137.1890 O   0  0  0  0  0  0  0  0  0  0  0  0
  182.5690  175.3880  138.5700 F   0  0  0  0  0  0  0  0  0  0  0  0
  189.2540  175.1470  137.1870 C   0  0  0  0  0  2  0  0  0  0  0  0
  188.0300  176.9090  136.1330 C   0  0  2  0  0  3  0  0  0  0  0  0
  186.1150  173.6820  135.6090 C   0  0  0  0  0  3  0  0  0  0  0  0
  183.7070  177.4680  138.7970 C   0  0  0  0  0  3  0  0  0  0  0  0
  188.1870  174.1740  136.7740 C   0  0  0  0  0  0  0  0  0  0  0  0
  188.4300  172.8030  136.9040 C   0  0  0  0  0  3  0  0  0  0  0  0
  187.6780  178.4030  136.1210 C   0  0  0  0  0  2  0  0  0  0  0  0
  185.7410  177.8610  137.5410 C   0  0  0  0  0  0  0  0  0  0  0  0
  184.7720  178.3010  138.4470 C   0  0  0  0  0  3  0  0  0  0  0  0
  189.9190  177.3460  137.5490 C   0  0  0  0  0  2  0  0  0  0  0  0
  191.6550  176.5450  138.9550 O   0  0  0  0  0  0  0  0  0  0  0  0
  190.5140  177.0770  138.8940 C   0  0  0  0  0  0  0  0  0  0  0  0
  188.4120  177.8230  142.5290 N   0  0  0  0  0  0  0  0  0  0  0  0
  190.1160  176.5760  141.3090 C   0  0  0  0  0  2  0  0  0  0  0  0
  188.7120  179.2790  139.3190 O   0  0  0  0  0  0  0  0  0  0  0  0
  187.3490  177.6730  143.5060 C   0  0  0  0  0  1  0  0  0  0  0  0
  188.9180  176.4820  142.2500 C   0  0  0  0  0  2  0  0  0  0  0  0
  188.7800  178.3700  140.1880 C   0  0  0  0  0  0  0  0  0  0  0  0
  189.7700  177.3270  140.0980 N   0  0  0  0  0  0  0  0  0  0  0  0
  187.7920  178.3490  141.3140 C   0  0  0  0  0  2  0  0  0  0  0  0
  1  6  1  0  0  0  0
  2  5  1  1  0  0  0
  2 13  1  0  0  0  0
  2  3  1  0  0  0  0
  3  7  2  0  0  0  0
  3 19  1  0  0  0  0
  4 11  1  0  0  0  0
  4 15  2  0  0  0  0
  5 16  2  0  0  0  0
  6 17  2  0  0  0  0
  7  4  1  0  0  0  0
  8 21  1  0  0  0  0
  9  1  1  0  0  0  0
 10 19  1  0  0  0  0
 12  8  1  0  0  0  0
 13 18  1  1  0  0  0
 13  8  1  0  0  0  0
 14  1  2  0  0  0  0
 14  5  1  0  0  0  0
 16 17  1  0  0  0  0
 16 12  1  0  0  0  0
 18 10  1  0  0  0  0
 19 20  2  0  0  0  0
 20 15  1  0  0  0  0
 21 23  1  0  0  0  0
 23 22  2  0  0  0  0
 23 30  1  0  0  0  0
 24 27  1  0  0  0  0
 25 28  1  0  0  0  0
 26 29  2  0  0  0  0
 28 24  1  0  0  0  0
 29 31  1  0  0  0  0
 30 29  1  0  0  0  0
 30 25  1  0  0  0  0
 31 24  1  0  0  0  0
M  END
>  <MODEL>
2

>  <REMARK>
 VINA RESULT:      -7.1      3.456      6.687
  Name = 
  2 active torsions:
  status: ('A' for Active; 'I' for Inactive)
    1  A    between atoms: C_5  and  C_16
    2  A    between atoms: N_10  and  C_16
                            x       y       z     vdW  Elec       q    Type
                         _______ _______ _______ _____ _____    ______ ____

>  <TORSDO>
F 2

$$$$
=
 OpenBabel11122411023D

 31 35  0  0  1  0  0  0  0  0999 V2000
  188.0510  177.6420  148.7430 C   0  0  0  0  0  0  0  0  0  0  0  0
  187.6390  176.7520  145.0650 C   0  0  2  0  0  3  0  0  0  0  0  0
  186.4590  177.5720  144.5590 C   0  0  0  0  0  0  0  0  0  0  0  0
  184.4430  178.8710  144.9680 C   0  0  0  0  0  0  0  0  0  0  0  0
  188.2180  177.3000  146.3460 C   0  0  0  0  0  0  0  0  0  0  0  0
  189.2310  178.3900  148.7220 C   0  0  0  0  0  3  0  0  0  0  0  0
  185.5350  178.1440  145.4480 C   0  0  0  0  0  3  0  0  0  0  0  0
  189.4500  177.9180  143.8630 N   0  0  0  0  0  0  0  0  0  0  0  0
  187.3930  177.4470  149.9110 F   0  0  0  0  0  0  0  0  0  0  0  0
  187.1110  177.1020  142.2590 O   0  0  0  0  0  0  0  0  0  0  0  0
  183.5670  179.4290  145.8370 F   0  0  0  0  0  0  0  0  0  0  0  0
  190.2350  178.1540  145.0780 C   0  0  0  0  0  2  0  0  0  0  0  0
  188.7480  176.6280  143.9960 C   0  0  2  0  0  3  0  0  0  0  0  0
  187.5480  177.0970  147.5590 C   0  0  0  0  0  3  0  0  0  0  0  0
  184.2530  179.0210  143.5930 C   0  0  0  0  0  3  0  0  0  0  0  0
  189.4090  178.0540  146.3290 C   0  0  0  0  0  0  0  0  0  0  0  0
  189.9140  178.5860  147.5200 C   0  0  0  0  0  3  0  0  0  0  0  0
  188.1060  176.1720  142.6780 C   0  0  0  0  0  2  0  0  0  0  0  0
  186.2370  177.6970  143.1710 C   0  0  0  0  0  0  0  0  0  0  0  0
  185.1480  178.4340  142.6960 C   0  0  0  0  0  3  0  0  0  0  0  0
  190.4260  177.8410  142.7820 C   0  0  0  0  0  2  0  0  0  0  0  0
  188.9440  179.2890  141.6230 O   0  0  0  0  0  0  0  0  0  0  0  0
  189.8260  178.3930  141.5280 C   0  0  0  0  0  0  0  0  0  0  0  0
  190.8050  176.8930  137.6580 N   0  0  0  0  0  0  0  0  0  0  0  0
  189.2140  177.9990  139.1380 C   0  0  0  0  0  2  0  0  0  0  0  0
  192.4350  177.4680  140.7440 O   0  0  0  0  0  0  0  0  0  0  0  0
  190.9040  175.9050  136.5990 C   0  0  0  0  0  1  0  0  0  0  0  0
  189.4140  176.9000  138.0980 C   0  0  0  0  0  2  0  0  0  0  0  0
  191.4620  177.2790  139.9670 C   0  0  0  0  0  0  0  0  0  0  0  0
  190.1680  177.8520  140.2410 N   0  0  0  0  0  0  0  0  0  0  0  0
  191.6400  176.4140  138.7570 C   0  0  0  0  0  2  0  0  0  0  0  0
  1  9  1  0  0  0  0
  2  3  1  6  0  0  0
  2  5  1  0  0  0  0
  3  7  1  0  0  0  0
  4  7  2  0  0  0  0
  4 11  1  0  0  0  0
  5 14  1  0  0  0  0
  6  1  1  0  0  0  0
  8 13  1  0  0  0  0
  8 12  1  0  0  0  0
 10 18  1  0  0  0  0
 10 19  1  0  0  0  0
 12 16  1  0  0  0  0
 13 18  1  6  0  0  0
 13  2  1  0  0  0  0
 14  1  2  0  0  0  0
 15  4  1  0  0  0  0
 16  5  2  0  0  0  0
 16 17  1  0  0  0  0
 17  6  2  0  0  0  0
 19  3  2  0  0  0  0
 20 19  1  0  0  0  0
 20 15  2  0  0  0  0
 21  8  1  0  0  0  0
 23 22  2  0  0  0  0
 23 21  1  0  0  0  0
 24 28  1  0  0  0  0
 24 31  1  0  0  0  0
 25 30  1  0  0  0  0
 27 24  1  0  0  0  0
 28 25  1  0  0  0  0
 29 30  1  0  0  0  0
 29 26  2  0  0  0  0
 30 23  1  0  0  0  0
 31 29  1  0  0  0  0
M  END
>  <MODEL>
3

>  <REMARK>
 VINA RESULT:      -7.1      4.639      8.032
  Name = 
  2 active torsions:
  status: ('A' for Active; 'I' for Inactive)
    1  A    between atoms: C_5  and  C_16
    2  A    between atoms: N_10  and  C_16
                            x       y       z     vdW  Elec       q    Type
                         _______ _______ _______ _____ _____    ______ ____

>  <TORSDO>
F 2

$$$$
=
 OpenBabel11122411023D

 31 35  0  0  1  0  0  0  0  0999 V2000
  187.5580  178.1910  148.1110 C   0  0  0  0  0  0  0  0  0  0  0  0
  190.0700  178.3200  145.2530 C   0  0  2  0  0  3  0  0  0  0  0  0
  190.8670  177.0230  145.3290 C   0  0  0  0  0  0  0  0  0  0  0  0
  191.6410  175.0740  146.5630 C   0  0  0  0  0  0  0  0  0  0  0  0
  188.7640  178.2410  146.0050 C   0  0  0  0  0  0  0  0  0  0  0  0
  186.3570  178.0040  147.4230 C   0  0  0  0  0  3  0  0  0  0  0  0
  190.8850  176.2470  146.4990 C   0  0  0  0  0  3  0  0  0  0  0  0
  188.7970  177.8580  143.1910 N   0  0  0  0  0  0  0  0  0  0  0  0
  187.5620  178.2530  149.4640 F   0  0  0  0  0  0  0  0  0  0  0  0
  191.7110  177.4030  143.0750 O   0  0  0  0  0  0  0  0  0  0  0  0
  191.6380  174.3280  147.6920 F   0  0  0  0  0  0  0  0  0  0  0  0
  187.5000  178.1370  143.8150 C   0  0  0  0  0  2  0  0  0  0  0  0
  189.8110  178.7450  143.7910 C   0  0  2  0  0  3  0  0  0  0  0  0
  188.7580  178.3110  147.4030 C   0  0  0  0  0  3  0  0  0  0  0  0
  192.4020  174.6730  145.4630 C   0  0  0  0  0  3  0  0  0  0  0  0
  187.5500  178.0550  145.3140 C   0  0  0  0  0  0  0  0  0  0  0  0
  186.3520  177.9470  146.0280 C   0  0  0  0  0  3  0  0  0  0  0  0
  191.1440  178.7090  143.0290 C   0  0  0  0  0  2  0  0  0  0  0  0
  191.6700  176.6290  144.2370 C   0  0  0  0  0  0  0  0  0  0  0  0
  192.4170  175.4500  144.3020 C   0  0  0  0  0  3  0  0  0  0  0  0
  188.6250  178.1840  141.7800 C   0  0  0  0  0  2  0  0  0  0  0  0
  189.5550  176.0160  141.5180 O   0  0  0  0  0  0  0  0  0  0  0  0
  189.0790  177.0310  140.9430 C   0  0  0  0  0  0  0  0  0  0  0  0
  189.0410  177.1320  136.6790 N   0  0  0  0  0  0  0  0  0  0  0  0
  189.9840  176.2520  138.7490 C   0  0  0  0  0  2  0  0  0  0  0  0
  187.0690  178.3430  139.3550 O   0  0  0  0  0  0  0  0  0  0  0  0
  189.4010  177.6080  135.3560 C   0  0  0  0  0  1  0  0  0  0  0  0
  190.2910  176.8630  137.3840 C   0  0  0  0  0  2  0  0  0  0  0  0
  188.1030  177.9010  138.7870 C   0  0  0  0  0  0  0  0  0  0  0  0
  189.0660  177.1060  139.5070 N   0  0  0  0  0  0  0  0  0  0  0  0
  188.3560  178.2350  137.3490 C   0  0  0  0  0  2  0  0  0  0  0  0
  1  9  1  0  0  0  0
  2  3  1  6  0  0  0
  2  5  1  0  0  0  0
  3  7  1  0  0  0  0
  4 11  1  0  0  0  0
  5 14  1  0  0  0  0
  6  1  1  0  0  0  0
  7  4  2  0  0  0  0
  8 13  1  0  0  0  0
  8 12  1  0  0  0  0
 10 19  1  0  0  0  0
 12 16  1  0  0  0  0
 13 18  1  6  0  0  0
 13  2  1  0  0  0  0
 14  1  2  0  0  0  0
 15  4  1  0  0  0  0
 16  5  2  0  0  0  0
 16 17  1  0  0  0  0
 17  6  2  0  0  0  0
 18 10  1  0  0  0  0
 19 20  1  0  0  0  0
 19  3  2  0  0  0  0
 20 15  2  0  0  0  0
 21  8  1  0  0  0  0
 23 22  2  0  0  0  0
 23 21  1  0  0  0  0
 24 31  1  0  0  0  0
 24 28  1  0  0  0  0
 25 30  1  0  0  0  0
 27 24  1  0  0  0  0
 28 25  1  0  0  0  0
 29 26  2  0  0  0  0
 29 30  1  0  0  0  0
 30 23  1  0  0  0  0
 31 29  1  0  0  0  0
M  END
>  <MODEL>
4

>  <REMARK>
 VINA RESULT:      -7.0      4.027      6.940
  Name = 
  2 active torsions:
  status: ('A' for Active; 'I' for Inactive)
    1  A    between atoms: C_5  and  C_16
    2  A    between atoms: N_10  and  C_16
                            x       y       z     vdW  Elec       q    Type
                         _______ _______ _______ _____ _____    ______ ____

>  <TORSDO>
F 2

$$$$
=
 OpenBabel11122411023D

 31 35  0  0  1  0  0  0  0  0999 V2000
  190.3180  175.8650  142.8850 C   0  0  0  0  0  0  0  0  0  0  0  0
  186.8750  176.9870  144.0600 C   0  0  2  0  0  3  0  0  0  0  0  0
  187.0860  177.6610  145.4100 C   0  0  0  0  0  0  0  0  0  0  0  0
  188.4270  178.0560  147.4020 C   0  0  0  0  0  0  0  0  0  0  0  0
  188.1490  176.8890  143.2570 C   0  0  0  0  0  0  0  0  0  0  0  0
  190.5610  176.7530  141.8340 C   0  0  0  0  0  3  0  0  0  0  0  0
  188.2590  177.4530  146.1530 C   0  0  0  0  0  3  0  0  0  0  0  0
  186.3050  178.9830  142.7280 N   0  0  0  0  0  0  0  0  0  0  0  0
  191.2490  174.9410  143.2200 F   0  0  0  0  0  0  0  0  0  0  0  0
  184.8580  178.6380  145.2770 O   0  0  0  0  0  0  0  0  0  0  0  0
  189.5690  177.8590  148.1010 F   0  0  0  0  0  0  0  0  0  0  0  0
  187.3210  178.7100  141.7070 C   0  0  0  0  0  2  0  0  0  0  0  0
  185.7830  177.6980  143.2320 C   0  0  2  0  0  3  0  0  0  0  0  0
  189.1140  175.9310  143.5920 C   0  0  0  0  0  3  0  0  0  0  0  0
  187.4170  178.8640  147.9290 C   0  0  0  0  0  3  0  0  0  0  0  0
  188.3960  177.7820  142.1950 C   0  0  0  0  0  0  0  0  0  0  0  0
  189.5980  177.7020  141.4830 C   0  0  0  0  0  3  0  0  0  0  0  0
  184.5390  177.8780  144.1150 C   0  0  0  0  0  2  0  0  0  0  0  0
  186.0560  178.4470  145.9690 C   0  0  0  0  0  0  0  0  0  0  0  0
  186.2330  179.0580  147.2140 C   0  0  0  0  0  3  0  0  0  0  0  0
  185.2470  179.7100  142.0360 C   0  0  0  0  0  2  0  0  0  0  0  0
  185.9620  178.6540  140.0340 O   0  0  0  0  0  0  0  0  0  0  0  0
  184.9830  179.0670  140.7120 C   0  0  0  0  0  0  0  0  0  0  0  0
  181.0720  178.7830  139.0350 N   0  0  0  0  0  0  0  0  0  0  0  0
  183.4880  178.8930  138.7180 C   0  0  0  0  0  2  0  0  0  0  0  0
  182.5790  178.6280  142.2310 O   0  0  0  0  0  0  0  0  0  0  0  0
  179.8130  179.2720  138.5020 C   0  0  0  0  0  1  0  0  0  0  0  0
  182.1330  179.4470  138.2840 C   0  0  0  0  0  2  0  0  0  0  0  0
  182.4840  178.9210  141.0100 C   0  0  0  0  0  0  0  0  0  0  0  0
  183.6520  179.0020  140.1700 N   0  0  0  0  0  0  0  0  0  0  0  0
  181.1380  179.2250  140.4260 C   0  0  0  0  0  2  0  0  0  0  0  0
  1  9  1  0  0  0  0
  1 14  1  0  0  0  0
  2  5  1  6  0  0  0
  2  3  1  0  0  0  0
  3 19  2  0  0  0  0
  3  7  1  0  0  0  0
  4 15  1  0  0  0  0
  4 11  1  0  0  0  0
  5 14  2  0  0  0  0
  6  1  2  0  0  0  0
  7  4  2  0  0  0  0
  8 13  1  0  0  0  0
 10 19  1  0  0  0  0
 12 16  1  0  0  0  0
 12  8  1  0  0  0  0
 13  2  1  0  0  0  0
 13 18  1  1  0  0  0
 16  5  1  0  0  0  0
 17  6  1  0  0  0  0
 17 16  2  0  0  0  0
 18 10  1  0  0  0  0
 19 20  1  0  0  0  0
 20 15  2  0  0  0  0
 21  8  1  0  0  0  0
 22 23  2  0  0  0  0
 23 21  1  0  0  0  0
 24 31  1  0  0  0  0
 25 30  1  0  0  0  0
 27 24  1  0  0  0  0
 28 25  1  0  0  0  0
 28 24  1  0  0  0  0
 29 26  2  0  0  0  0
 30 23  1  0  0  0  0
 30 29  1  0  0  0  0
 31 29  1  0  0  0  0
M  END
>  <MODEL>
5

>  <REMARK>
 VINA RESULT:      -6.9      3.321      6.331
  Name = 
  2 active torsions:
  status: ('A' for Active; 'I' for Inactive)
    1  A    between atoms: C_5  and  C_16
    2  A    between atoms: N_10  and  C_16
                            x       y       z     vdW  Elec       q    Type
                         _______ _______ _______ _____ _____    ______ ____

>  <TORSDO>
F 2

$$$$
=
 OpenBabel11122411023D

 31 35  0  0  1  0  0  0  0  0999 V2000
  184.3350  179.2750  142.5440 C   0  0  0  0  0  0  0  0  0  0  0  0
  187.5810  178.8570  140.5990 C   0  0  2  0  0  3  0  0  0  0  0  0
  188.4190  177.8530  141.3810 C   0  0  0  0  0  0  0  0  0  0  0  0
  188.9330  176.6590  143.4380 C   0  0  0  0  0  0  0  0  0  0  0  0
  186.1190  178.8020  140.9670 C   0  0  0  0  0  0  0  0  0  0  0  0
  183.4210  178.6280  141.7090 C   0  0  0  0  0  3  0  0  0  0  0  0
  188.1400  177.5630  142.7270 C   0  0  0  0  0  3  0  0  0  0  0  0
  187.0410  177.4560  138.6430 N   0  0  0  0  0  0  0  0  0  0  0  0
  183.9200  179.8140  143.7150 F   0  0  0  0  0  0  0  0  0  0  0  0
  189.8780  177.5590  139.4520 O   0  0  0  0  0  0  0  0  0  0  0  0
  188.6450  176.3780  144.7300 F   0  0  0  0  0  0  0  0  0  0  0  0
  185.5980  177.6840  138.7580 C   0  0  0  0  0  2  0  0  0  0  0  0
  187.7490  178.6760  139.0750 C   0  0  2  0  0  3  0  0  0  0  0  0
  185.6800  179.3640  142.1720 C   0  0  0  0  0  3  0  0  0  0  0  0
  190.0240  176.0460  142.8170 C   0  0  0  0  0  3  0  0  0  0  0  0
  185.1930  178.1520  140.1260 C   0  0  0  0  0  0  0  0  0  0  0  0
  183.8470  178.0780  140.4980 C   0  0  0  0  0  3  0  0  0  0  0  0
  189.2490  178.6280  138.7500 C   0  0  0  0  0  2  0  0  0  0  0  0
  189.5460  177.2580  140.7740 C   0  0  0  0  0  0  0  0  0  0  0  0
  190.3290  176.3460  141.4880 C   0  0  0  0  0  3  0  0  0  0  0  0
  187.2840  177.2180  137.2240 C   0  0  0  0  0  2  0  0  0  0  0  0
  186.8480  174.8850  137.2190 O   0  0  0  0  0  0  0  0  0  0  0  0
  187.6960  175.7950  137.0210 C   0  0  0  0  0  0  0  0  0  0  0  0
  191.6910  174.6830  136.0230 N   0  0  0  0  0  0  0  0  0  0  0  0
  189.5480  174.1190  137.0420 C   0  0  0  0  0  2  0  0  0  0  0  0
  189.4390  177.3150  135.3080 O   0  0  0  0  0  0  0  0  0  0  0  0
  193.1250  174.5650  136.2090 C   0  0  0  0  0  1  0  0  0  0  0  0
  191.0640  174.1280  137.2190 C   0  0  0  0  0  2  0  0  0  0  0  0
  189.9120  176.3390  135.9480 C   0  0  0  0  0  0  0  0  0  0  0  0
  189.0560  175.4560  136.6990 N   0  0  0  0  0  0  0  0  0  0  0  0
  191.3930  176.1120  135.9600 C   0  0  0  0  0  2  0  0  0  0  0  0
  1  9  1  0  0  0  0
  2  5  1  6  0  0  0
  2  3  1  0  0  0  0
  3  7  1  0  0  0  0
  4 11  1  0  0  0  0
  5 14  2  0  0  0  0
  6  1  2  0  0  0  0
  7  4  2  0  0  0  0
  8 12  1  0  0  0  0
  8 13  1  0  0  0  0
 10 19  1  0  0  0  0
 12 16  1  0  0  0  0
 13 18  1  1  0  0  0
 13  2  1  0  0  0  0
 14  1  1  0  0  0  0
 15  4  1  0  0  0  0
 16 17  2  0  0  0  0
 16  5  1  0  0  0  0
 17  6  1  0  0  0  0
 18 10  1  0  0  0  0
 19  3  2  0  0  0  0
 19 20  1  0  0  0  0
 20 15  2  0  0  0  0
 21  8  1  0  0  0  0
 23 22  2  0  0  0  0
 23 21  1  0  0  0  0
 24 27  1  0  0  0  0
 24 28  1  0  0  0  0
 25 28  1  0  0  0  0
 26 29  2  0  0  0  0
 29 31  1  0  0  0  0
 29 30  1  0  0  0  0
 30 23  1  0  0  0  0
 30 25  1  0  0  0  0
 31 24  1  0  0  0  0
M  END
>  <MODEL>
6

>  <REMARK>
 VINA RESULT:      -6.9      2.826      6.509
  Name = 
  2 active torsions:
  status: ('A' for Active; 'I' for Inactive)
    1  A    between atoms: C_5  and  C_16
    2  A    between atoms: N_10  and  C_16
                            x       y       z     vdW  Elec       q    Type
                         _______ _______ _______ _____ _____    ______ ____

>  <TORSDO>
F 2

$$$$
=
 OpenBabel11122411023D

 31 35  0  0  1  0  0  0  0  0999 V2000
  186.6390  178.6280  141.7460 C   0  0  0  0  0  0  0  0  0  0  0  0
  183.8360  179.3260  139.2670 C   0  0  2  0  0  3  0  0  0  0  0  0
  183.9150  178.2250  138.2160 C   0  0  0  0  0  0  0  0  0  0  0  0
  185.1430  176.4650  137.0700 C   0  0  0  0  0  0  0  0  0  0  0  0
  184.5590  178.9620  140.5400 C   0  0  0  0  0  0  0  0  0  0  0  0
  185.9240  178.2030  142.8680 C   0  0  0  0  0  3  0  0  0  0  0  0
  185.0760  177.4520  138.0560 C   0  0  0  0  0  3  0  0  0  0  0  0
  181.7430  178.6380  140.3760 N   0  0  0  0  0  0  0  0  0  0  0  0
  187.9920  178.6690  141.7800 F   0  0  0  0  0  0  0  0  0  0  0  0
  181.6840  178.8080  137.4300 O   0  0  0  0  0  0  0  0  0  0  0  0
  186.2630  175.7170  136.9370 F   0  0  0  0  0  0  0  0  0  0  0  0
  182.3420  178.6280  141.7130 C   0  0  0  0  0  2  0  0  0  0  0  0
  182.3730  179.7090  139.5820 C   0  0  2  0  0  3  0  0  0  0  0  0
  185.9580  179.0090  140.5870 C   0  0  0  0  0  3  0  0  0  0  0  0
  184.0550  176.2490  136.2220 C   0  0  0  0  0  3  0  0  0  0  0  0
  183.8410  178.5350  141.6750 C   0  0  0  0  0  0  0  0  0  0  0  0
  184.5280  178.1670  142.8360 C   0  0  0  0  0  3  0  0  0  0  0  0
  181.6390  179.9670  138.2580 C   0  0  0  0  0  2  0  0  0  0  0  0
  182.8360  178.0260  137.3280 C   0  0  0  0  0  0  0  0  0  0  0  0
  182.9040  177.0290  136.3510 C   0  0  0  0  0  3  0  0  0  0  0  0
  180.3320  178.9420  140.5860 C   0  0  0  0  0  2  0  0  0  0  0  0
  179.3090  177.7190  142.3450 O   0  0  0  0  0  0  0  0  0  0  0  0
  179.6370  177.7340  141.1280 C   0  0  0  0  0  0  0  0  0  0  0  0
  178.9310  174.2430  138.7810 N   0  0  0  0  0  0  0  0  0  0  0  0
  179.2730  175.2680  140.9680 C   0  0  0  0  0  2  0  0  0  0  0  0
  178.9960  177.7500  138.3230 O   0  0  0  0  0  0  0  0  0  0  0  0
  179.2810  173.0850  137.9810 C   0  0  0  0  0  1  0  0  0  0  0  0
  179.6800  174.1340  140.0290 C   0  0  0  0  0  2  0  0  0  0  0  0
  179.2510  176.6520  138.8840 C   0  0  0  0  0  0  0  0  0  0  0  0
  179.4290  176.5680  140.3120 N   0  0  0  0  0  0  0  0  0  0  0  0
  179.4070  175.4160  138.0520 C   0  0  0  0  0  2  0  0  0  0  0  0
  1  9  1  0  0  0  0
  1  6  1  0  0  0  0
  2  3  1  6  0  0  0
  2 13  1  0  0  0  0
  2  5  1  0  0  0  0
  4  7  2  0  0  0  0
  5 14  1  0  0  0  0
  5 16  2  0  0  0  0
  7  3  1  0  0  0  0
  8 21  1  0  0  0  0
  8 12  1  0  0  0  0
 10 18  1  0  0  0  0
 11  4  1  0  0  0  0
 13 18  1  6  0  0  0
 13  8  1  0  0  0  0
 14  1  2  0  0  0  0
 15 20  2  0  0  0  0
 15  4  1  0  0  0  0
 16 12  1  0  0  0  0
 16 17  1  0  0  0  0
 17  6  2  0  0  0  0
 19 10  1  0  0  0  0
 19  3  2  0  0  0  0
 20 19  1  0  0  0  0
 21 23  1  0  0  0  0
 23 22  2  0  0  0  0
 24 28  1  0  0  0  0
 26 29  2  0  0  0  0
 27 24  1  0  0  0  0
 28 25  1  0  0  0  0
 29 30  1  0  0  0  0
 30 25  1  0  0  0  0
 30 23  1  0  0  0  0
 31 24  1  0  0  0  0
 31 29  1  0  0  0  0
M  END
>  <MODEL>
7

>  <REMARK>
 VINA RESULT:      -6.9      4.335      6.213
  Name = 
  2 active torsions:
  status: ('A' for Active; 'I' for Inactive)
    1  A    between atoms: C_5  and  C_16
    2  A    between atoms: N_10  and  C_16
                            x       y       z     vdW  Elec       q    Type
                         _______ _______ _______ _____ _____    ______ ____

>  <TORSDO>
F 2

$$$$
=
 OpenBabel11122411023D

 31 35  0  0  1  0  0  0  0  0999 V2000
  179.9160  178.2630  142.3880 C   0  0  0  0  0  0  0  0  0  0  0  0
  183.0140  179.1090  140.3440 C   0  0  2  0  0  3  0  0  0  0  0  0
  184.2100  178.7540  141.2180 C   0  0  0  0  0  0  0  0  0  0  0  0
  185.1850  178.2880  143.3990 C   0  0  0  0  0  0  0  0  0  0  0  0
  181.7440  178.4350  140.8000 C   0  0  0  0  0  0  0  0  0  0  0  0
  179.4320  177.1390  141.7150 C   0  0  0  0  0  3  0  0  0  0  0  0
  184.0750  178.5870  142.6060 C   0  0  0  0  0  3  0  0  0  0  0  0
  183.2390  177.3250  138.6560 N   0  0  0  0  0  0  0  0  0  0  0  0
  179.2720  178.7260  143.4870 F   0  0  0  0  0  0  0  0  0  0  0  0
  185.6740  178.8730  139.2750 O   0  0  0  0  0  0  0  0  0  0  0  0
  185.0370  178.1150  144.7330 F   0  0  0  0  0  0  0  0  0  0  0  0
  181.8560  176.8650  138.8190 C   0  0  0  0  0  2  0  0  0  0  0  0
  183.2790  178.7860  138.8570 C   0  0  2  0  0  3  0  0  0  0  0  0
  181.0670  178.9110  141.9300 C   0  0  0  0  0  3  0  0  0  0  0  0
  186.4480  178.1670  142.8150 C   0  0  0  0  0  3  0  0  0  0  0  0
  181.2510  177.3020  140.1220 C   0  0  0  0  0  0  0  0  0  0  0  0
  180.0920  176.6670  140.5790 C   0  0  0  0  0  3  0  0  0  0  0  0
  184.6300  179.3950  138.4570 C   0  0  0  0  0  2  0  0  0  0  0  0
  185.4970  178.6680  140.6440 C   0  0  0  0  0  0  0  0  0  0  0  0
  186.6030  178.3570  141.4400 C   0  0  0  0  0  3  0  0  0  0  0  0
  183.5930  177.0040  137.2780 C   0  0  0  0  0  2  0  0  0  0  0  0
  184.2140  174.7680  137.7760 O   0  0  0  0  0  0  0  0  0  0  0  0
  184.5620  175.8660  137.2640 C   0  0  0  0  0  0  0  0  0  0  0  0
  188.5400  176.2540  135.7740 N   0  0  0  0  0  0  0  0  0  0  0  0
  186.9520  175.1390  137.2520 C   0  0  0  0  0  2  0  0  0  0  0  0
  185.3160  177.4960  135.0160 O   0  0  0  0  0  0  0  0  0  0  0  0
  189.8940  176.7740  135.7130 C   0  0  0  0  0  1  0  0  0  0  0  0
  188.3240  175.8010  137.1440 C   0  0  0  0  0  2  0  0  0  0  0  0
  186.2190  176.9800  135.7250 C   0  0  0  0  0  0  0  0  0  0  0  0
  185.9010  176.0380  136.7680 N   0  0  0  0  0  0  0  0  0  0  0  0
  187.6470  177.3800  135.5080 C   0  0  0  0  0  2  0  0  0  0  0  0
  1  9  1  0  0  0  0
  2  5  1  1  0  0  0
  2  3  1  0  0  0  0
  3  7  1  0  0  0  0
  4 11  1  0  0  0  0
  5 14  2  0  0  0  0
  6  1  2  0  0  0  0
  7  4  2  0  0  0  0
  8 12  1  0  0  0  0
  8 13  1  0  0  0  0
 10 19  1  0  0  0  0
 12 16  1  0  0  0  0
 13 18  1  1  0  0  0
 13  2  1  0  0  0  0
 14  1  1  0  0  0  0
 15  4  1  0  0  0  0
 16 17  2  0  0  0  0
 16  5  1  0  0  0  0
 17  6  1  0  0  0  0
 18 10  1  0  0  0  0
 19  3  2  0  0  0  0
 19 20  1  0  0  0  0
 20 15  2  0  0  0  0
 21  8  1  0  0  0  0
 23 21  1  0  0  0  0
 23 22  2  0  0  0  0
 24 28  1  0  0  0  0
 26 29  2  0  0  0  0
 27 24  1  0  0  0  0
 28 25  1  0  0  0  0
 29 30  1  0  0  0  0
 30 25  1  0  0  0  0
 30 23  1  0  0  0  0
 31 29  1  0  0  0  0
 31 24  1  0  0  0  0
M  END
>  <MODEL>
8

>  <REMARK>
 VINA RESULT:      -6.9      3.692      7.599
  Name = 
  2 active torsions:
  status: ('A' for Active; 'I' for Inactive)
    1  A    between atoms: C_5  and  C_16
    2  A    between atoms: N_10  and  C_16
                            x       y       z     vdW  Elec       q    Type
                         _______ _______ _______ _____ _____    ______ ____

>  <TORSDO>
F 2

$$$$
=
 OpenBabel11122411023D

 31 35  0  0  1  0  0  0  0  0999 V2000
  191.6070  176.9200  145.4650 C   0  0  0  0  0  0  0  0  0  0  0  0
  187.9610  176.8530  144.3720 C   0  0  2  0  0  3  0  0  0  0  0  0
  187.1900  177.6510  145.4150 C   0  0  0  0  0  0  0  0  0  0  0  0
  187.0080  178.6280  147.6370 C   0  0  0  0  0  0  0  0  0  0  0  0
  189.4410  177.1490  144.3940 C   0  0  0  0  0  0  0  0  0  0  0  0
  192.1740  177.7620  144.5050 C   0  0  0  0  0  3  0  0  0  0  0  0
  187.7380  177.9170  146.6810 C   0  0  0  0  0  3  0  0  0  0  0  0
  187.7760  178.4260  142.4810 N   0  0  0  0  0  0  0  0  0  0  0  0
  192.3760  176.4040  146.4530 F   0  0  0  0  0  0  0  0  0  0  0  0
  185.2770  177.7790  143.9120 O   0  0  0  0  0  0  0  0  0  0  0  0
  187.5540  178.8900  148.8470 F   0  0  0  0  0  0  0  0  0  0  0  0
  189.2210  178.4530  142.2370 C   0  0  0  0  0  2  0  0  0  0  0  0
  187.4000  177.0790  142.9510 C   0  0  2  0  0  3  0  0  0  0  0  0
  190.2450  176.6130  145.4080 C   0  0  0  0  0  3  0  0  0  0  0  0
  185.7150  179.0680  147.3440 C   0  0  0  0  0  3  0  0  0  0  0  0
  190.0170  177.9950  143.4260 C   0  0  0  0  0  0  0  0  0  0  0  0
  191.3830  178.2880  143.4810 C   0  0  0  0  0  3  0  0  0  0  0  0
  185.8780  176.8760  142.9880 C   0  0  0  0  0  2  0  0  0  0  0  0
  185.8690  178.0670  145.1440 C   0  0  0  0  0  0  0  0  0  0  0  0
  185.1470  178.7870  146.1000 C   0  0  0  0  0  3  0  0  0  0  0  0
  187.1600  178.6890  141.1860 C   0  0  0  0  0  2  0  0  0  0  0  0
  185.6810  180.1280  142.3590 O   0  0  0  0  0  0  0  0  0  0  0  0
  185.8280  179.3360  141.3890 C   0  0  0  0  0  0  0  0  0  0  0  0
  182.4400  178.4320  138.9600 N   0  0  0  0  0  0  0  0  0  0  0  0
  183.3510  179.1910  141.0910 C   0  0  0  0  0  2  0  0  0  0  0  0
  185.9400  178.7630  138.5710 O   0  0  0  0  0  0  0  0  0  0  0  0
  181.4040  177.5980  138.3780 C   0  0  0  0  0  1  0  0  0  0  0  0
  182.3590  178.2540  140.4070 C   0  0  0  0  0  2  0  0  0  0  0  0
  184.8570  178.5840  139.1870 C   0  0  0  0  0  0  0  0  0  0  0  0
  184.7030  178.9950  140.5600 N   0  0  0  0  0  0  0  0  0  0  0  0
  183.7180  177.8980  138.4950 C   0  0  0  0  0  2  0  0  0  0  0  0
  1  9  1  0  0  0  0
  2  5  1  6  0  0  0
  2  3  1  0  0  0  0
  3  7  1  0  0  0  0
  4 11  1  0  0  0  0
  5 14  2  0  0  0  0
  6  1  2  0  0  0  0
  7  4  2  0  0  0  0
  8 13  1  0  0  0  0
 10 19  1  0  0  0  0
 12  8  1  0  0  0  0
 12 16  1  0  0  0  0
 13 18  1  1  0  0  0
 13  2  1  0  0  0  0
 14  1  1  0  0  0  0
 15  4  1  0  0  0  0
 16 17  2  0  0  0  0
 16  5  1  0  0  0  0
 17  6  1  0  0  0  0
 18 10  1  0  0  0  0
 19  3  2  0  0  0  0
 19 20  1  0  0  0  0
 20 15  2  0  0  0  0
 21 23  1  0  0  0  0
 21  8  1  0  0  0  0
 23 22  2  0  0  0  0
 24 28  1  0  0  0  0
 26 29  2  0  0  0  0
 27 24  1  0  0  0  0
 28 25  1  0  0  0  0
 29 30  1  0  0  0  0
 30 25  1  0  0  0  0
 30 23  1  0  0  0  0
 31 24  1  0  0  0  0
 31 29  1  0  0  0  0
M  END
>  <MODEL>
9

>  <REMARK>
 VINA RESULT:      -6.9      3.924      6.533
  Name = 
  2 active torsions:
  status: ('A' for Active; 'I' for Inactive)
    1  A    between atoms: C_5  and  C_16
    2  A    between atoms: N_10  and  C_16
                            x       y       z     vdW  Elec       q    Type
                         _______ _______ _______ _____ _____    ______ ____

>  <TORSDO>
F 2

$$$$
