=
 OpenBabel11122410413D

 32 38  0  0  1  0  0  0  0  0999 V2000
  181.6400  177.7830  137.8340 C   0  0  1  0  0  3  0  0  0  0  0  0
  184.7940  178.8860  141.9320 C   0  0  0  0  0  0  0  0  0  0  0  0
  188.7250  177.6850  139.1620 C   0  0  0  0  0  3  0  0  0  0  0  0
  189.3950  177.2260  140.2970 C   0  0  0  0  0  3  0  0  0  0  0  0
  185.0490  178.8030  144.4960 C   0  0  0  0  0  0  0  0  0  0  0  0
  185.8770  178.4540  145.6450 C   0  0  0  0  0  0  0  0  0  0  0  0
  182.8290  178.2090  140.5580 C   0  0  1  0  0  3  0  0  0  0  0  0
  184.7880  179.3690  139.4950 C   0  0  0  0  0  2  0  0  0  0  0  0
  187.6950  177.7170  146.7840 C   0  0  0  0  0  0  0  0  0  0  0  0
  182.8770  178.6650  138.0090 C   0  0  2  0  0  3  0  0  0  0  0  0
  187.4630  178.2690  139.2860 C   0  0  0  0  0  3  0  0  0  0  0  0
  185.5560  178.9960  140.6820 N   0  0  0  0  0  0  0  0  0  0  0  0
  186.8570  178.3970  140.5470 C   0  0  2  0  0  3  0  0  0  0  0  0
  186.9170  178.1020  143.0260 C   0  0  0  0  0  0  0  0  0  0  0  0
  186.8000  178.0520  147.6610 N   0  0  0  0  0  0  0  0  0  0  0  0
  181.4400  176.7430  138.9610 C   0  0  0  0  0  2  0  0  0  0  0  0
  183.6830  178.3390  139.2820 C   0  0  2  0  0  3  0  0  0  0  0  0
  185.6410  178.5220  146.9490 C   0  0  0  0  0  2  0  0  0  0  0  0
  181.6640  177.2290  140.4010 C   0  0  0  0  0  2  0  0  0  0  0  0
  181.4840  179.2290  138.2790 C   0  0  1  0  0  3  0  0  0  0  0  0
  188.8040  177.3550  141.5550 C   0  0  0  0  0  3  0  0  0  0  0  0
  187.5340  177.9390  141.6910 C   0  0  0  0  0  0  0  0  0  0  0  0
  187.7260  177.7590  144.2400 C   0  0  0  0  0  2  0  0  0  0  0  0
  183.6920  177.8400  141.7610 C   0  0  0  0  0  2  0  0  0  0  0  0
  183.8860  179.2660  144.6440 O   0  0  0  0  0  0  0  0  0  0  0  0
  189.0370  177.1830  147.1440 C   0  0  0  0  0  1  0  0  0  0  0  0
  185.6460  178.5890  143.1440 C   0  0  0  0  0  0  0  0  0  0  0  0
  187.1920  177.9400  145.4460 C   0  0  0  0  0  0  0  0  0  0  0  0
  181.0510  180.0740  137.0980 C   0  0  0  0  0  2  0  0  0  0  0  0
  180.9830  181.5060  137.5010 C   0  0  0  0  0  0  0  0  0  0  0  0
  181.3320  181.8510  138.6580 O   0  0  0  0  0  1  0  0  0  0  0  0
  180.5660  182.4650  136.5860 O   0  0  0  0  0  0  0  0  0  0  0  0
  1 10  1  0  0  0  0
  1 20  1  0  0  0  0
  1 16  1  1  0  0  0
  2 27  2  0  0  0  0
  3 11  2  0  0  0  0
  3  4  1  0  0  0  0
  4 21  2  0  0  0  0
  5 25  2  0  0  0  0
  5  6  1  0  0  0  0
  6 18  1  0  0  0  0
  7 19  1  6  0  0  0
  7 24  1  0  0  0  0
  8 12  1  0  0  0  0
  9 26  1  0  0  0  0
  9 15  2  0  0  0  0
 10 20  1  0  0  0  0
 10 17  1  0  0  0  0
 11 13  1  0  0  0  0
 12  2  1  0  0  0  0
 13 12  1  0  0  0  0
 13 22  1  0  0  0  0
 14 27  1  0  0  0  0
 14 23  1  0  0  0  0
 16 19  1  0  0  0  0
 17  8  1  0  0  0  0
 17  7  1  0  0  0  0
 18 15  1  0  0  0  0
 21 22  1  0  0  0  0
 22 14  2  0  0  0  0
 23 28  1  0  0  0  0
 24  2  1  0  0  0  0
 27  5  1  0  0  0  0
 28  6  2  0  0  0  0
 28  9  1  0  0  0  0
 29 30  1  0  0  0  0
 29 20  1  0  0  0  0
 30 31  1  0  0  0  0
 32 30  2  0  0  0  0
M  END
>  <MODEL>
1

>  <REMARK>
 VINA RESULT:      -9.7      0.000      0.000
  Name = 
  2 active torsions:
  status: ('A' for Active; 'I' for Inactive)
    1  A    between atoms: C_20  and  C_29
    2  A    between atoms: C_29  and  C_30
                            x       y       z     vdW  Elec       q    Type
                         _______ _______ _______ _____ _____    ______ ____

>  <TORSDO>
F 2

$$$$
=
 OpenBabel11122410413D

 32 38  0  0  1  0  0  0  0  0999 V2000
  192.7370  174.8190  137.2440 C   0  0  1  0  0  3  0  0  0  0  0  0
  189.1670  177.7560  139.8100 C   0  0  0  0  0  0  0  0  0  0  0  0
  191.5150  176.7950  144.0680 C   0  0  0  0  0  3  0  0  0  0  0  0
  190.3040  176.8490  144.7590 C   0  0  0  0  0  3  0  0  0  0  0  0
  186.6920  178.4650  139.9270 C   0  0  0  0  0  0  0  0  0  0  0  0
  185.4990  178.6640  140.7440 C   0  0  0  0  0  0  0  0  0  0  0  0
  190.2660  176.2690  138.1390 C   0  0  1  0  0  3  0  0  0  0  0  0
  191.6400  177.5130  139.8360 C   0  0  0  0  0  2  0  0  0  0  0  0
  184.2160  178.7350  142.6130 C   0  0  0  0  0  0  0  0  0  0  0  0
  192.8380  175.9840  138.2310 C   0  0  2  0  0  3  0  0  0  0  0  0
  191.5510  177.0710  142.7000 C   0  0  0  0  0  3  0  0  0  0  0  0
  190.4040  177.6860  140.5980 N   0  0  0  0  0  0  0  0  0  0  0  0
  190.3750  177.4020  142.0080 C   0  0  2  0  0  3  0  0  0  0  0  0
  187.9160  177.8440  141.9890 C   0  0  0  0  0  0  0  0  0  0  0  0
  183.4640  179.0810  141.6140 N   0  0  0  0  0  0  0  0  0  0  0  0
  191.3560  174.1240  137.2250 C   0  0  0  0  0  2  0  0  0  0  0  0
  191.5340  176.2330  139.0130 C   0  0  2  0  0  3  0  0  0  0  0  0
  184.2680  179.0390  140.4230 C   0  0  0  0  0  3  0  0  0  0  0  0
  190.1200  175.0360  137.2450 C   0  0  0  0  0  2  0  0  0  0  0  0
  192.7270  176.2510  136.7320 C   0  0  1  0  0  3  0  0  0  0  0  0
  189.1300  177.1840  144.0810 C   0  0  0  0  0  3  0  0  0  0  0  0
  189.1540  177.4620  142.7040 C   0  0  0  0  0  0  0  0  0  0  0  0
  186.6640  178.0620  142.7830 C   0  0  0  0  0  3  0  0  0  0  0  0
  189.0160  176.4730  138.9920 C   0  0  0  0  0  2  0  0  0  0  0  0
  186.6710  178.6590  138.6810 O   0  0  0  0  0  0  0  0  0  0  0  0
  183.7320  178.6610  144.0190 C   0  0  0  0  0  1  0  0  0  0  0  0
  187.9300  178.0260  140.6350 C   0  0  0  0  0  0  0  0  0  0  0  0
  185.5560  178.4440  142.1520 C   0  0  0  0  0  0  0  0  0  0  0  0
  194.0970  176.5990  136.1850 C   0  0  0  0  0  2  0  0  0  0  0  0
  194.9180  175.3640  136.0550 C   0  0  0  0  0  0  0  0  0  0  0  0
  194.6820  174.5460  135.1300 O   0  0  0  0  0  0  0  0  0  0  0  0
  195.9670  175.1330  136.9350 O   0  0  0  0  0  1  0  0  0  0  0  0
  1 16  1  1  0  0  0
  1 10  1  0  0  0  0
  2 12  1  0  0  0  0
  2 27  2  0  0  0  0
  3  4  1  0  0  0  0
  5 27  1  0  0  0  0
  5  6  1  0  0  0  0
  6 28  1  0  0  0  0
  7 19  1  1  0  0  0
  7 24  1  0  0  0  0
  7 17  1  0  0  0  0
  8 12  1  0  0  0  0
  9 26  1  0  0  0  0
 10 17  1  0  0  0  0
 11  3  2  0  0  0  0
 12 13  1  0  0  0  0
 13 11  1  0  0  0  0
 13 22  1  0  0  0  0
 14 22  2  0  0  0  0
 14 23  1  0  0  0  0
 15  9  2  0  0  0  0
 16 19  1  0  0  0  0
 17  8  1  0  0  0  0
 18  6  2  0  0  0  0
 18 15  1  0  0  0  0
 20  1  1  0  0  0  0
 20 10  1  0  0  0  0
 21  4  2  0  0  0  0
 22 21  1  0  0  0  0
 24  2  1  0  0  0  0
 25  5  2  0  0  0  0
 27 14  1  0  0  0  0
 28  9  1  0  0  0  0
 28 23  2  0  0  0  0
 29 20  1  0  0  0  0
 30 29  1  0  0  0  0
 30 32  1  0  0  0  0
 31 30  2  0  0  0  0
M  END
>  <MODEL>
2

>  <REMARK>
 VINA RESULT:      -8.8      4.941      8.270
  Name = 
  2 active torsions:
  status: ('A' for Active; 'I' for Inactive)
    1  A    between atoms: C_20  and  C_29
    2  A    between atoms: C_29  and  C_30
                            x       y       z     vdW  Elec       q    Type
                         _______ _______ _______ _____ _____    ______ ____

>  <TORSDO>
F 2

$$$$
=
 OpenBabel11122410413D

 32 38  0  0  1  0  0  0  0  0999 V2000
  195.2390  173.2800  137.4790 C   0  0  1  0  0  3  0  0  0  0  0  0
  191.0000  176.4250  137.1670 C   0  0  0  0  0  0  0  0  0  0  0  0
  191.4910  177.4770  141.9860 C   0  0  0  0  0  3  0  0  0  0  0  0
  190.1070  177.6140  142.1060 C   0  0  0  0  0  3  0  0  0  0  0  0
  188.6860  176.7660  136.0840 C   0  0  0  0  0  0  0  0  0  0  0  0
  187.2730  177.0850  136.2590 C   0  0  0  0  0  0  0  0  0  0  0  0
  192.6380  174.5930  136.7560 C   0  0  1  0  0  3  0  0  0  0  0  0
  193.2630  176.5640  138.1820 C   0  0  0  0  0  2  0  0  0  0  0  0
  185.3650  177.6700  137.3390 C   0  0  0  0  0  0  0  0  0  0  0  0
  194.9660  174.7320  137.8790 C   0  0  2  0  0  3  0  0  0  0  0  0
  192.0610  177.2220  140.7370 C   0  0  0  0  0  3  0  0  0  0  0  0
  191.8310  176.8330  138.3060 N   0  0  0  0  0  0  0  0  0  0  0  0
  191.2510  177.0980  139.5960 C   0  0  2  0  0  3  0  0  0  0  0  0
  189.0010  177.1460  138.5120 C   0  0  0  0  0  0  0  0  0  0  0  0
  185.0660  177.5040  136.0870 N   0  0  0  0  0  0  0  0  0  0  0  0
  193.9630  172.4400  137.2410 C   0  0  0  0  0  2  0  0  0  0  0  0
  193.4650  175.0680  137.9650 C   0  0  2  0  0  3  0  0  0  0  0  0
  186.2700  177.1340  135.3920 C   0  0  0  0  0  3  0  0  0  0  0  0
  192.8310  173.1070  136.4450 C   0  0  0  0  0  2  0  0  0  0  0  0
  195.4520  174.3980  136.4700 C   0  0  1  0  0  3  0  0  0  0  0  0
  189.2950  177.4990  140.9760 C   0  0  0  0  0  3  0  0  0  0  0  0
  189.8580  177.2400  139.7150 C   0  0  0  0  0  0  0  0  0  0  0  0
  187.5430  177.4650  138.6380 C   0  0  0  0  0  3  0  0  0  0  0  0
  191.1590  174.9220  136.9390 C   0  0  0  0  0  2  0  0  0  0  0  0
  189.1540  176.4740  134.9500 O   0  0  0  0  0  0  0  0  0  0  0  0
  184.3710  178.0600  138.3760 C   0  0  0  0  0  1  0  0  0  0  0  0
  189.5440  176.8060  137.3040 C   0  0  0  0  0  0  0  0  0  0  0  0
  186.7740  177.4200  137.5530 C   0  0  0  0  0  0  0  0  0  0  0  0
  196.9320  174.7070  136.3670 C   0  0  0  0  0  2  0  0  0  0  0  0
  197.1410  175.8940  135.4940 C   0  0  0  0  0  0  0  0  0  0  0  0
  198.0190  175.8660  134.5940 O   0  0  0  0  0  0  0  0  0  0  0  0
  196.3410  177.0190  135.6490 O   0  0  0  0  0  1  0  0  0  0  0  0
  1 16  1  6  0  0  0
  1 10  1  0  0  0  0
  2 27  2  0  0  0  0
  2 12  1  0  0  0  0
  3  4  1  0  0  0  0
  5  6  1  0  0  0  0
  5 27  1  0  0  0  0
  6 28  1  0  0  0  0
  7 19  1  1  0  0  0
  7 24  1  0  0  0  0
  7 17  1  0  0  0  0
  8 12  1  0  0  0  0
  9 28  1  0  0  0  0
  9 26  1  0  0  0  0
 10 17  1  0  0  0  0
 11  3  2  0  0  0  0
 12 13  1  0  0  0  0
 13 22  1  0  0  0  0
 13 11  1  0  0  0  0
 14 23  1  0  0  0  0
 14 22  2  0  0  0  0
 15  9  2  0  0  0  0
 17  8  1  0  0  0  0
 18 15  1  0  0  0  0
 18  6  2  0  0  0  0
 19 16  1  0  0  0  0
 20  1  1  0  0  0  0
 20 10  1  0  0  0  0
 21  4  2  0  0  0  0
 22 21  1  0  0  0  0
 24  2  1  0  0  0  0
 25  5  2  0  0  0  0
 27 14  1  0  0  0  0
 28 23  2  0  0  0  0
 29 20  1  0  0  0  0
 30 32  1  0  0  0  0
 30 29  1  0  0  0  0
 31 30  2  0  0  0  0
M  END
>  <MODEL>
3

>  <REMARK>
 VINA RESULT:      -7.0      6.462     10.688
  Name = 
  2 active torsions:
  status: ('A' for Active; 'I' for Inactive)
    1  A    between atoms: C_20  and  C_29
    2  A    between atoms: C_29  and  C_30
                            x       y       z     vdW  Elec       q    Type
                         _______ _______ _______ _____ _____    ______ ____

>  <TORSDO>
F 2

$$$$
=
 OpenBabel11122410413D

 32 38  0  0  1  0  0  0  0  0999 V2000
  180.3890  180.8200  138.9780 C   0  0  1  0  0  3  0  0  0  0  0  0
  184.7850  178.2890  140.4700 C   0  0  0  0  0  0  0  0  0  0  0  0
  183.4550  178.8820  145.2090 C   0  0  0  0  0  3  0  0  0  0  0  0
  184.7970  178.9620  145.5840 C   0  0  0  0  0  3  0  0  0  0  0  0
  187.2780  177.8830  139.9560 C   0  0  0  0  0  0  0  0  0  0  0  0
  188.6480  177.8150  140.4520 C   0  0  0  0  0  0  0  0  0  0  0  0
  183.1510  179.6620  139.1840 C   0  0  1  0  0  3  0  0  0  0  0  0
  182.3830  178.2310  141.1010 C   0  0  0  0  0  2  0  0  0  0  0  0
  190.3490  177.8650  141.9530 C   0  0  0  0  0  0  0  0  0  0  0  0
  180.6640  179.6340  139.9040 C   0  0  2  0  0  3  0  0  0  0  0  0
  183.1170  178.6280  143.8780 C   0  0  0  0  0  3  0  0  0  0  0  0
  183.7790  178.1950  141.5350 N   0  0  0  0  0  0  0  0  0  0  0  0
  184.1190  178.4540  142.9090 C   0  0  2  0  0  3  0  0  0  0  0  0
  186.5320  178.3140  142.2790 C   0  0  0  0  0  0  0  0  0  0  0  0
  190.8690  177.6310  140.7870 N   0  0  0  0  0  0  0  0  0  0  0  0
  181.6360  181.6760  138.6600 C   0  0  0  0  0  2  0  0  0  0  0  0
  182.1390  179.5290  140.3380 C   0  0  2  0  0  3  0  0  0  0  0  0
  189.7980  177.5960  139.8270 C   0  0  0  0  0  3  0  0  0  0  0  0
  182.9350  180.9200  138.3400 C   0  0  0  0  0  2  0  0  0  0  0  0
  180.4350  179.4090  138.4120 C   0  0  1  0  0  3  0  0  0  0  0  0
  185.7990  178.7840  144.6290 C   0  0  0  0  0  3  0  0  0  0  0  0
  185.4710  178.5300  143.2870 C   0  0  0  0  0  0  0  0  0  0  0  0
  187.9570  178.2340  142.7370 C   0  0  0  0  0  3  0  0  0  0  0  0
  184.5860  179.5960  139.7010 C   0  0  0  0  0  2  0  0  0  0  0  0
  187.0160  177.7150  138.7330 O   0  0  0  0  0  0  0  0  0  0  0  0
  191.1500  177.9720  143.2030 C   0  0  0  0  0  1  0  0  0  0  0  0
  186.2090  178.1560  140.9600 C   0  0  0  0  0  0  0  0  0  0  0  0
  188.9130  178.0000  141.8410 C   0  0  0  0  0  0  0  0  0  0  0  0
  179.0220  178.9080  138.1940 C   0  0  0  0  0  2  0  0  0  0  0  0
  179.0400  177.4430  137.9320 C   0  0  0  0  0  0  0  0  0  0  0  0
  178.9740  177.0140  136.7520 O   0  0  0  0  0  0  0  0  0  0  0  0
  179.1660  176.5500  138.9890 O   0  0  0  0  0  1  0  0  0  0  0  0
  1 16  1  6  0  0  0
  1 10  1  0  0  0  0
  2 27  2  0  0  0  0
  2 12  1  0  0  0  0
  3  4  1  0  0  0  0
  5  6  1  0  0  0  0
  5 27  1  0  0  0  0
  6 28  1  0  0  0  0
  7 19  1  1  0  0  0
  7 24  1  0  0  0  0
  7 17  1  0  0  0  0
  8 12  1  0  0  0  0
  9 26  1  0  0  0  0
 10 17  1  0  0  0  0
 11  3  2  0  0  0  0
 12 13  1  0  0  0  0
 13 22  1  0  0  0  0
 13 11  1  0  0  0  0
 14 23  1  0  0  0  0
 14 22  2  0  0  0  0
 15  9  2  0  0  0  0
 17  8  1  0  0  0  0
 18  6  2  0  0  0  0
 18 15  1  0  0  0  0
 19 16  1  0  0  0  0
 20  1  1  0  0  0  0
 20 10  1  0  0  0  0
 21  4  2  0  0  0  0
 22 21  1  0  0  0  0
 24  2  1  0  0  0  0
 25  5  2  0  0  0  0
 27 14  1  0  0  0  0
 28  9  1  0  0  0  0
 28 23  2  0  0  0  0
 29 20  1  0  0  0  0
 30 29  1  0  0  0  0
 30 32  1  0  0  0  0
 31 30  2  0  0  0  0
M  END
>  <MODEL>
4

>  <REMARK>
 VINA RESULT:      -6.8      2.717      4.739
  Name = 
  2 active torsions:
  status: ('A' for Active; 'I' for Inactive)
    1  A    between atoms: C_20  and  C_29
    2  A    between atoms: C_29  and  C_30
                            x       y       z     vdW  Elec       q    Type
                         _______ _______ _______ _____ _____    ______ ____

>  <TORSDO>
F 2

$$$$
