=
 OpenBabel11122410563D

 31 35  0  0  1  0  0  0  0  0999 V2000
  184.6520  178.6670  145.2100 C   0  0  0  0  0  0  0  0  0  0  0  0
  187.3980  178.4120  142.5310 C   0  0  2  0  0  3  0  0  0  0  0  0
  188.5410  177.6910  143.2410 C   0  0  0  0  0  0  0  0  0  0  0  0
  189.7350  177.0120  145.2520 C   0  0  0  0  0  0  0  0  0  0  0  0
  186.0470  178.5070  143.2220 C   0  0  0  0  0  0  0  0  0  0  0  0
  183.5470  178.9800  144.4180 C   0  0  0  0  0  3  0  0  0  0  0  0
  188.6390  177.6230  144.6390 C   0  0  0  0  0  3  0  0  0  0  0  0
  186.1010  178.5640  140.3500 C   0  0  0  0  0  0  0  0  0  0  0  0
  184.5180  178.5830  146.5890 O   0  0  0  0  0  1  0  0  0  0  0  0
  189.5860  177.3000  141.0680 O   0  0  0  0  0  0  0  0  0  0  0  0
  189.8030  176.9360  146.6360 O   0  0  0  0  0  1  0  0  0  0  0  0
  185.0490  178.9480  141.0100 N   0  0  0  0  0  0  0  0  0  0  0  0
  187.2490  177.8930  141.0850 C   0  0  1  0  0  3  0  0  0  0  0  0
  186.0470  178.6230  138.9170 N   0  0  0  0  0  2  0  0  0  0  0  0
  185.8970  178.4490  144.6160 C   0  0  0  0  0  3  0  0  0  0  0  0
  190.7650  176.4810  144.4730 C   0  0  0  0  0  3  0  0  0  0  0  0
  184.9290  178.8430  142.4330 C   0  0  0  0  0  0  0  0  0  0  0  0
  183.6860  179.0720  143.0330 C   0  0  0  0  0  3  0  0  0  0  0  0
  188.5970  178.0730  140.3950 C   0  0  0  0  0  2  0  0  0  0  0  0
  189.6120  177.1920  142.4640 C   0  0  0  0  0  0  0  0  0  0  0  0
  190.7040  176.5750  143.0800 C   0  0  0  0  0  3  0  0  0  0  0  0
  186.0590  176.6340  137.5340 C   0  0  0  0  0  1  0  0  0  0  0  0
  186.8760  177.8200  138.0270 C   0  0  1  0  0  3  0  0  0  0  0  0
  189.3250  176.7590  136.0480 C   0  0  0  0  0  0  0  0  0  0  0  0
  187.2470  177.9020  135.5240 C   0  0  0  0  0  2  0  0  0  0  0  0
  189.1450  179.7330  138.1490 F   0  0  0  0  0  0  0  0  0  0  0  0
  190.2040  175.5650  135.9400 C   0  0  0  0  0  1  0  0  0  0  0  0
  188.1660  176.7610  135.4590 N   0  0  0  0  0  0  0  0  0  0  0  0
  188.8720  179.0410  136.9830 C   0  0  2  0  0  3  0  0  0  0  0  0
  187.3880  178.6660  136.8490 C   0  0  2  0  0  3  0  0  0  0  0  0
  189.7120  177.8510  136.8880 N   0  0  0  0  0  2  0  0  0  0  0  0
  1  9  1  0  0  0  0
  2  5  1  1  0  0  0
  2  3  1  0  0  0  0
  3  7  1  0  0  0  0
  4 11  1  0  0  0  0
  5 15  2  0  0  0  0
  6  1  2  0  0  0  0
  7  4  2  0  0  0  0
  8 12  2  0  0  0  0
  8 13  1  0  0  0  0
 10 20  1  0  0  0  0
 12 17  1  0  0  0  0
 13 19  1  6  0  0  0
 13  2  1  0  0  0  0
 14  8  1  0  0  0  0
 15  1  1  0  0  0  0
 16  4  1  0  0  0  0
 17 18  2  0  0  0  0
 17  5  1  0  0  0  0
 18  6  1  0  0  0  0
 19 10  1  0  0  0  0
 20 21  1  0  0  0  0
 20  3  2  0  0  0  0
 21 16  2  0  0  0  0
 23 22  1  6  0  0  0
 23 14  1  0  0  0  0
 24 31  1  0  0  0  0
 25 30  1  0  0  0  0
 27 24  1  0  0  0  0
 28 25  1  0  0  0  0
 28 24  2  0  0  0  0
 29 26  1  1  0  0  0
 30 29  1  0  0  0  0
 30 23  1  1  0  0  0
 31 29  1  0  0  0  0
M  END
>  <MODEL>
1

>  <REMARK>
 VINA RESULT:     -10.0      0.000      0.000
  Name = 
  2 active torsions:
  status: ('A' for Active; 'I' for Inactive)
    1  A    between atoms: C_5  and  N_16
    2  A    between atoms: C_5  and  C_30
                            x       y       z     vdW  Elec       q    Type
                         _______ _______ _______ _____ _____    ______ ____

>  <TORSDO>
F 2

$$$$
=
 OpenBabel11122410563D

 31 35  0  0  1  0  0  0  0  0999 V2000
  187.6500  178.1000  136.4900 C   0  0  0  0  0  0  0  0  0  0  0  0
  187.6550  178.4400  140.3200 C   0  0  2  0  0  3  0  0  0  0  0  0
  186.1750  178.4680  140.6910 C   0  0  0  0  0  0  0  0  0  0  0  0
  183.8310  178.8570  140.1540 C   0  0  0  0  0  0  0  0  0  0  0  0
  188.0490  178.1010  138.8910 C   0  0  0  0  0  0  0  0  0  0  0  0
  188.9710  177.7120  136.2630 C   0  0  0  0  0  3  0  0  0  0  0  0
  185.1690  178.7750  139.7620 C   0  0  0  0  0  3  0  0  0  0  0  0
  189.9260  177.5080  140.9850 C   0  0  0  0  0  0  0  0  0  0  0  0
  186.7860  178.2880  135.4190 O   0  0  0  0  0  1  0  0  0  0  0  0
  186.7950  178.0750  143.0200 O   0  0  0  0  0  0  0  0  0  0  0  0
  182.8490  179.1400  139.2160 O   0  0  0  0  0  1  0  0  0  0  0  0
  190.2970  177.5430  139.7400 N   0  0  0  0  0  0  0  0  0  0  0  0
  188.4490  177.5880  141.3330 C   0  0  1  0  0  3  0  0  0  0  0  0
  190.9240  177.2050  141.9700 N   0  0  0  0  0  2  0  0  0  0  0  0
  187.1980  178.3080  137.7950 C   0  0  0  0  0  3  0  0  0  0  0  0
  183.4830  178.6570  141.4910 C   0  0  0  0  0  3  0  0  0  0  0  0
  189.3870  177.7290  138.6500 C   0  0  0  0  0  0  0  0  0  0  0  0
  189.8390  177.5320  137.3410 C   0  0  0  0  0  3  0  0  0  0  0  0
  188.1850  178.1670  142.7200 C   0  0  0  0  0  2  0  0  0  0  0  0
  185.8150  178.3150  142.0500 C   0  0  0  0  0  0  0  0  0  0  0  0
  184.4740  178.3900  142.4380 C   0  0  0  0  0  3  0  0  0  0  0  0
  190.8290  175.1470  143.2440 C   0  0  0  0  0  1  0  0  0  0  0  0
  190.6400  176.6560  143.2900 C   0  0  1  0  0  3  0  0  0  0  0  0
  189.4920  177.5050  146.2910 C   0  0  0  0  0  0  0  0  0  0  0  0
  191.5770  176.4460  145.6330 C   0  0  0  0  0  2  0  0  0  0  0  0
  191.0080  179.5750  143.7010 F   0  0  0  0  0  0  0  0  0  0  0  0
  188.1970  177.4620  147.0180 C   0  0  0  0  0  1  0  0  0  0  0  0
  190.2850  176.4750  146.3260 N   0  0  0  0  0  0  0  0  0  0  0  0
  191.0870  178.7000  144.7690 C   0  0  2  0  0  3  0  0  0  0  0  0
  191.5500  177.2950  144.3530 C   0  0  2  0  0  3  0  0  0  0  0  0
  189.8070  178.6320  145.4680 N   0  0  0  0  0  2  0  0  0  0  0  0
  1 15  1  0  0  0  0
  2  5  1  6  0  0  0
  2  3  1  0  0  0  0
  2 13  1  0  0  0  0
  3 20  1  0  0  0  0
  4 16  2  0  0  0  0
  6  1  2  0  0  0  0
  6 18  1  0  0  0  0
  7  4  1  0  0  0  0
  7  3  2  0  0  0  0
  8 13  1  0  0  0  0
  8 14  1  0  0  0  0
  9  1  1  0  0  0  0
 11  4  1  0  0  0  0
 12  8  2  0  0  0  0
 13 19  1  1  0  0  0
 14 23  1  0  0  0  0
 15  5  2  0  0  0  0
 16 21  1  0  0  0  0
 17  5  1  0  0  0  0
 17 12  1  0  0  0  0
 18 17  2  0  0  0  0
 19 10  1  0  0  0  0
 20 21  2  0  0  0  0
 20 10  1  0  0  0  0
 23 22  1  6  0  0  0
 24 28  2  0  0  0  0
 24 27  1  0  0  0  0
 25 28  1  0  0  0  0
 29 26  1  6  0  0  0
 29 31  1  0  0  0  0
 30 23  1  6  0  0  0
 30 29  1  0  0  0  0
 30 25  1  0  0  0  0
 31 24  1  0  0  0  0
M  END
>  <MODEL>
2

>  <REMARK>
 VINA RESULT:      -9.4      3.233      7.574
  Name = 
  2 active torsions:
  status: ('A' for Active; 'I' for Inactive)
    1  A    between atoms: C_5  and  N_16
    2  A    between atoms: C_5  and  C_30
                            x       y       z     vdW  Elec       q    Type
                         _______ _______ _______ _____ _____    ______ ____

>  <TORSDO>
F 2

$$$$
=
 OpenBabel11122410563D

 31 35  0  0  1  0  0  0  0  0999 V2000
  190.1220  177.0970  145.7550 C   0  0  0  0  0  0  0  0  0  0  0  0
  187.6650  177.3870  142.8130 C   0  0  2  0  0  3  0  0  0  0  0  0
  186.4580  178.1080  143.4080 C   0  0  0  0  0  0  0  0  0  0  0  0
  185.0680  178.7770  145.2930 C   0  0  0  0  0  0  0  0  0  0  0  0
  188.9370  177.2800  143.6370 C   0  0  0  0  0  0  0  0  0  0  0  0
  191.3010  176.7850  145.0780 C   0  0  0  0  0  3  0  0  0  0  0  0
  186.2180  178.1650  144.7900 C   0  0  0  0  0  3  0  0  0  0  0  0
  189.1760  177.2460  140.7740 C   0  0  0  0  0  0  0  0  0  0  0  0
  190.1150  177.1690  147.1420 O   0  0  0  0  0  1  0  0  0  0  0  0
  185.6410  178.5210  141.1440 O   0  0  0  0  0  0  0  0  0  0  0  0
  184.8600  178.8430  146.6630 O   0  0  0  0  0  1  0  0  0  0  0  0
  190.1540  176.8510  141.5340 N   0  0  0  0  0  0  0  0  0  0  0  0
  187.9620  177.9170  141.3940 C   0  0  1  0  0  3  0  0  0  0  0  0
  189.3750  177.1970  139.3540 N   0  0  0  0  0  2  0  0  0  0  0  0
  188.9450  177.3260  145.0390 C   0  0  0  0  0  3  0  0  0  0  0  0
  184.1250  179.3190  144.4170 C   0  0  0  0  0  3  0  0  0  0  0  0
  190.1290  176.9440  142.9630 C   0  0  0  0  0  0  0  0  0  0  0  0
  191.3030  176.7040  143.6840 C   0  0  0  0  0  3  0  0  0  0  0  0
  186.6900  177.7480  140.5680 C   0  0  0  0  0  2  0  0  0  0  0  0
  185.4740  178.6180  142.5300 C   0  0  0  0  0  0  0  0  0  0  0  0
  184.3270  179.2360  143.0380 C   0  0  0  0  0  3  0  0  0  0  0  0
  189.2690  179.3990  138.3490 C   0  0  0  0  0  1  0  0  0  0  0  0
  188.6450  178.0110  138.3900 C   0  0  1  0  0  3  0  0  0  0  0  0
  185.8620  176.9240  136.9350 C   0  0  0  0  0  0  0  0  0  0  0  0
  187.7640  178.1260  136.0190 C   0  0  0  0  0  2  0  0  0  0  0  0
  188.8740  175.0960  137.8720 F   0  0  0  0  0  0  0  0  0  0  0  0
  184.4130  176.8560  137.2600 C   0  0  0  0  0  1  0  0  0  0  0  0
  186.3460  177.9890  136.3670 N   0  0  0  0  0  0  0  0  0  0  0  0
  188.1520  175.9070  137.0150 C   0  0  2  0  0  3  0  0  0  0  0  0
  188.6630  177.3560  136.9990 C   0  0  2  0  0  3  0  0  0  0  0  0
  186.7320  175.8660  137.3500 N   0  0  0  0  0  2  0  0  0  0  0  0
  1  9  1  0  0  0  0
  2  3  1  1  0  0  0
  2  5  1  0  0  0  0
  3  7  1  0  0  0  0
  4 11  1  0  0  0  0
  5 15  1  0  0  0  0
  6  1  1  0  0  0  0
  7  4  2  0  0  0  0
  8 13  1  0  0  0  0
  8 12  2  0  0  0  0
 10 20  1  0  0  0  0
 12 17  1  0  0  0  0
 13 19  1  6  0  0  0
 13  2  1  0  0  0  0
 14  8  1  0  0  0  0
 15  1  2  0  0  0  0
 16  4  1  0  0  0  0
 17  5  2  0  0  0  0
 17 18  1  0  0  0  0
 18  6  2  0  0  0  0
 19 10  1  0  0  0  0
 20 21  1  0  0  0  0
 20  3  2  0  0  0  0
 21 16  2  0  0  0  0
 23 22  1  6  0  0  0
 23 14  1  0  0  0  0
 24 27  1  0  0  0  0
 24 31  1  0  0  0  0
 25 28  1  0  0  0  0
 25 30  1  0  0  0  0
 28 24  2  0  0  0  0
 29 31  1  0  0  0  0
 29 26  1  1  0  0  0
 30 29  1  0  0  0  0
 30 23  1  1  0  0  0
M  END
>  <MODEL>
3

>  <REMARK>
 VINA RESULT:      -9.4      1.852      4.524
  Name = 
  2 active torsions:
  status: ('A' for Active; 'I' for Inactive)
    1  A    between atoms: C_5  and  N_16
    2  A    between atoms: C_5  and  C_30
                            x       y       z     vdW  Elec       q    Type
                         _______ _______ _______ _____ _____    ______ ____

>  <TORSDO>
F 2

$$$$
=
 OpenBabel11122410563D

 31 35  0  0  1  0  0  0  0  0999 V2000
  189.5880  177.8030  141.5340 C   0  0  0  0  0  0  0  0  0  0  0  0
  185.7850  178.0640  142.0360 C   0  0  2  0  0  3  0  0  0  0  0  0
  185.6260  178.3050  143.5350 C   0  0  0  0  0  0  0  0  0  0  0  0
  186.4300  178.1760  145.8310 C   0  0  0  0  0  0  0  0  0  0  0  0
  187.1760  178.1180  141.4270 C   0  0  0  0  0  0  0  0  0  0  0  0
  189.6770  177.9590  140.1500 C   0  0  0  0  0  3  0  0  0  0  0  0
  186.6370  178.0040  144.4610 C   0  0  0  0  0  3  0  0  0  0  0  0
  184.9390  178.7540  139.7400 C   0  0  0  0  0  0  0  0  0  0  0  0
  190.7350  177.5770  142.2830 O   0  0  0  0  0  1  0  0  0  0  0  0
  183.3070  178.9620  143.1400 O   0  0  0  0  0  0  0  0  0  0  0  0
  187.4500  177.8940  146.7280 O   0  0  0  0  0  1  0  0  0  0  0  0
  186.1030  178.4750  139.2350 N   0  0  0  0  0  0  0  0  0  0  0  0
  184.7940  178.9400  141.2420 C   0  0  1  0  0  3  0  0  0  0  0  0
  183.8730  179.0610  138.8310 N   0  0  0  0  0  2  0  0  0  0  0  0
  188.3430  177.8670  142.1650 C   0  0  0  0  0  3  0  0  0  0  0  0
  185.1940  178.6280  146.2980 C   0  0  0  0  0  3  0  0  0  0  0  0
  187.2750  178.2530  140.0280 C   0  0  0  0  0  0  0  0  0  0  0  0
  188.5220  178.1780  139.3980 C   0  0  0  0  0  3  0  0  0  0  0  0
  183.3930  178.6270  141.7580 C   0  0  0  0  0  2  0  0  0  0  0  0
  184.3640  178.7160  144.0240 C   0  0  0  0  0  0  0  0  0  0  0  0
  184.1620  178.8940  145.3960 C   0  0  0  0  0  3  0  0  0  0  0  0
  182.9050  181.2790  138.7190 C   0  0  0  0  0  1  0  0  0  0  0  0
  182.6930  179.8430  139.1760 C   0  0  1  0  0  3  0  0  0  0  0  0
  179.7300  179.9820  140.6760 C   0  0  0  0  0  0  0  0  0  0  0  0
  180.3460  180.3090  138.3480 C   0  0  0  0  0  2  0  0  0  0  0  0
  181.6870  177.0870  139.6370 F   0  0  0  0  0  0  0  0  0  0  0  0
  179.1730  180.5080  141.9490 C   0  0  0  0  0  1  0  0  0  0  0  0
  179.8070  180.7600  139.6360 N   0  0  0  0  0  0  0  0  0  0  0  0
  180.8060  178.1220  139.3830 C   0  0  2  0  0  3  0  0  0  0  0  0
  181.4320  179.2390  138.5340 C   0  0  2  0  0  3  0  0  0  0  0  0
  180.2800  178.6620  140.6340 N   0  0  0  0  0  2  0  0  0  0  0  0
  1 15  1  0  0  0  0
  1  9  1  0  0  0  0
  2  5  1  6  0  0  0
  2  3  1  0  0  0  0
  3 20  2  0  0  0  0
  3  7  1  0  0  0  0
  4 16  1  0  0  0  0
  4 11  1  0  0  0  0
  5 15  2  0  0  0  0
  6  1  2  0  0  0  0
  7  4  2  0  0  0  0
  8 13  1  0  0  0  0
 10 20  1  0  0  0  0
 12  8  2  0  0  0  0
 12 17  1  0  0  0  0
 13 19  1  1  0  0  0
 13  2  1  0  0  0  0
 14 23  1  0  0  0  0
 14  8  1  0  0  0  0
 17  5  1  0  0  0  0
 18 17  2  0  0  0  0
 18  6  1  0  0  0  0
 19 10  1  0  0  0  0
 20 21  1  0  0  0  0
 21 16  2  0  0  0  0
 23 22  1  6  0  0  0
 24 27  1  0  0  0  0
 25 30  1  0  0  0  0
 25 28  1  0  0  0  0
 28 24  2  0  0  0  0
 29 26  1  1  0  0  0
 29 31  1  0  0  0  0
 30 23  1  1  0  0  0
 30 29  1  0  0  0  0
 31 24  1  0  0  0  0
M  END
>  <MODEL>
4

>  <REMARK>
 VINA RESULT:      -9.2      3.261      6.424
  Name = 
  2 active torsions:
  status: ('A' for Active; 'I' for Inactive)
    1  A    between atoms: C_5  and  N_16
    2  A    between atoms: C_5  and  C_30
                            x       y       z     vdW  Elec       q    Type
                         _______ _______ _______ _____ _____    ______ ____

>  <TORSDO>
F 2

$$$$
=
 OpenBabel11122410563D

 31 35  0  0  1  0  0  0  0  0999 V2000
  184.9630  178.6040  145.1950 C   0  0  0  0  0  0  0  0  0  0  0  0
  188.2270  178.2270  143.1990 C   0  0  2  0  0  3  0  0  0  0  0  0
  189.1990  177.6000  144.1950 C   0  0  0  0  0  0  0  0  0  0  0  0
  189.9390  177.1190  146.4650 C   0  0  0  0  0  0  0  0  0  0  0  0
  186.7580  178.3330  143.5730 C   0  0  0  0  0  0  0  0  0  0  0  0
  184.0510  178.8180  144.1600 C   0  0  0  0  0  3  0  0  0  0  0  0
  188.9930  177.6450  145.5820 C   0  0  0  0  0  3  0  0  0  0  0  0
  187.4320  178.1670  140.7850 C   0  0  0  0  0  0  0  0  0  0  0  0
  184.5340  178.6240  146.5150 O   0  0  0  0  0  1  0  0  0  0  0  0
  190.6960  177.0740  142.3380 O   0  0  0  0  0  0  0  0  0  0  0  0
  189.7060  177.1530  147.8320 O   0  0  0  0  0  1  0  0  0  0  0  0
  186.2570  178.5670  141.1690 N   0  0  0  0  0  0  0  0  0  0  0  0
  188.4020  177.5920  141.8030 C   0  0  1  0  0  3  0  0  0  0  0  0
  187.6890  178.1120  139.3740 N   0  0  0  0  0  2  0  0  0  0  0  0
  186.3100  178.3790  144.9020 C   0  0  0  0  0  3  0  0  0  0  0  0
  191.1200  176.5620  145.9720 C   0  0  0  0  0  3  0  0  0  0  0  0
  185.8320  178.5710  142.5370 C   0  0  0  0  0  0  0  0  0  0  0  0
  184.4860  178.8070  142.8350 C   0  0  0  0  0  3  0  0  0  0  0  0
  189.8660  177.7610  141.4060 C   0  0  0  0  0  2  0  0  0  0  0  0
  190.4200  177.0770  143.7100 C   0  0  0  0  0  0  0  0  0  0  0  0
  191.3610  176.5440  144.5960 C   0  0  0  0  0  3  0  0  0  0  0  0
  188.0110  176.1080  138.0520 C   0  0  0  0  0  1  0  0  0  0  0  0
  188.7020  177.2690  138.7530 C   0  0  1  0  0  3  0  0  0  0  0  0
  187.5790  178.0890  135.7340 C   0  0  0  0  0  0  0  0  0  0  0  0
  188.8410  179.3790  137.3600 C   0  0  0  0  0  2  0  0  0  0  0  0
  190.4940  176.1150  136.6850 F   0  0  0  0  0  0  0  0  0  0  0  0
  186.3480  177.8760  134.9310 C   0  0  0  0  0  1  0  0  0  0  0  0
  187.6580  179.1080  136.5380 N   0  0  0  0  0  0  0  0  0  0  0  0
  189.8520  177.3200  136.4640 C   0  0  2  0  0  3  0  0  0  0  0  0
  189.5570  178.0820  137.7650 C   0  0  2  0  0  3  0  0  0  0  0  0
  188.6250  177.1120  135.7010 N   0  0  0  0  0  2  0  0  0  0  0  0
  1  9  1  0  0  0  0
  2  5  1  1  0  0  0
  2  3  1  0  0  0  0
  3  7  1  0  0  0  0
  4 11  1  0  0  0  0
  5 15  2  0  0  0  0
  6  1  2  0  0  0  0
  7  4  2  0  0  0  0
  8 12  2  0  0  0  0
  8 13  1  0  0  0  0
 10 20  1  0  0  0  0
 12 17  1  0  0  0  0
 13 19  1  6  0  0  0
 13  2  1  0  0  0  0
 14  8  1  0  0  0  0
 15  1  1  0  0  0  0
 16  4  1  0  0  0  0
 17 18  2  0  0  0  0
 17  5  1  0  0  0  0
 18  6  1  0  0  0  0
 19 10  1  0  0  0  0
 20  3  2  0  0  0  0
 20 21  1  0  0  0  0
 21 16  2  0  0  0  0
 23 22  1  6  0  0  0
 23 14  1  0  0  0  0
 24 28  2  0  0  0  0
 25 30  1  0  0  0  0
 27 24  1  0  0  0  0
 28 25  1  0  0  0  0
 29 26  1  1  0  0  0
 29 30  1  0  0  0  0
 30 23  1  1  0  0  0
 31 24  1  0  0  0  0
 31 29  1  0  0  0  0
M  END
>  <MODEL>
5

>  <REMARK>
 VINA RESULT:      -8.9      1.360      1.895
  Name = 
  2 active torsions:
  status: ('A' for Active; 'I' for Inactive)
    1  A    between atoms: C_5  and  N_16
    2  A    between atoms: C_5  and  C_30
                            x       y       z     vdW  Elec       q    Type
                         _______ _______ _______ _____ _____    ______ ____

>  <TORSDO>
F 2

$$$$
=
 OpenBabel11122410563D

 31 35  0  0  1  0  0  0  0  0999 V2000
  181.4780  178.9560  143.1070 C   0  0  0  0  0  0  0  0  0  0  0  0
  185.1620  178.8380  142.0120 C   0  0  2  0  0  3  0  0  0  0  0  0
  185.8970  178.3130  143.2430 C   0  0  0  0  0  0  0  0  0  0  0  0
  186.0720  177.9310  145.6420 C   0  0  0  0  0  0  0  0  0  0  0  0
  183.6420  178.8200  142.0000 C   0  0  0  0  0  0  0  0  0  0  0  0
  180.8440  179.0750  141.8690 C   0  0  0  0  0  3  0  0  0  0  0  0
  185.3420  178.3590  144.5310 C   0  0  0  0  0  3  0  0  0  0  0  0
  185.0130  178.6740  139.4790 C   0  0  0  0  0  0  0  0  0  0  0  0
  180.7280  178.9570  144.2750 O   0  0  0  0  0  1  0  0  0  0  0  0
  187.8530  177.8930  141.8430 O   0  0  0  0  0  0  0  0  0  0  0  0
  185.4970  177.9640  146.9050 O   0  0  0  0  0  1  0  0  0  0  0  0
  183.7510  178.9760  139.5410 N   0  0  0  0  0  0  0  0  0  0  0  0
  185.7360  178.2010  140.7290 C   0  0  1  0  0  3  0  0  0  0  0  0
  185.6240  178.6220  138.1820 N   0  0  0  0  0  2  0  0  0  0  0  0
  182.8690  178.8460  143.1710 C   0  0  0  0  0  3  0  0  0  0  0  0
  187.3800  177.4720  145.4830 C   0  0  0  0  0  3  0  0  0  0  0  0
  182.9940  178.9620  140.7570 C   0  0  0  0  0  0  0  0  0  0  0  0
  181.6020  179.0830  140.6970 C   0  0  0  0  0  3  0  0  0  0  0  0
  187.2340  178.4920  140.7080 C   0  0  0  0  0  2  0  0  0  0  0  0
  187.2390  177.8910  143.1010 C   0  0  0  0  0  0  0  0  0  0  0  0
  187.9640  177.4560  144.2140 C   0  0  0  0  0  3  0  0  0  0  0  0
  186.4180  176.4790  137.3790 C   0  0  0  0  0  1  0  0  0  0  0  0
  186.8260  177.8620  137.8670 C   0  0  1  0  0  3  0  0  0  0  0  0
  189.6280  176.5480  136.6540 C   0  0  0  0  0  0  0  0  0  0  0  0
  187.8250  177.7380  135.5430 C   0  0  0  0  0  2  0  0  0  0  0  0
  189.1040  179.6770  138.4500 F   0  0  0  0  0  0  0  0  0  0  0  0
  190.4300  175.3120  136.8500 C   0  0  0  0  0  1  0  0  0  0  0  0
  188.6580  176.5560  135.7880 N   0  0  0  0  0  0  0  0  0  0  0  0
  189.0930  178.9120  137.2980 C   0  0  2  0  0  3  0  0  0  0  0  0
  187.6720  178.5930  136.8100 C   0  0  2  0  0  3  0  0  0  0  0  0
  189.8550  177.6820  137.4960 N   0  0  0  0  0  2  0  0  0  0  0  0
  1 15  1  0  0  0  0
  1  9  1  0  0  0  0
  2  5  1  1  0  0  0
  2  3  1  0  0  0  0
  3  7  1  0  0  0  0
  4 11  1  0  0  0  0
  5 15  2  0  0  0  0
  6  1  2  0  0  0  0
  7  4  2  0  0  0  0
  8 12  2  0  0  0  0
  8 13  1  0  0  0  0
 10 20  1  0  0  0  0
 12 17  1  0  0  0  0
 13 19  1  6  0  0  0
 13  2  1  0  0  0  0
 14  8  1  0  0  0  0
 16  4  1  0  0  0  0
 17  5  1  0  0  0  0
 18 17  2  0  0  0  0
 18  6  1  0  0  0  0
 19 10  1  0  0  0  0
 20  3  2  0  0  0  0
 20 21  1  0  0  0  0
 21 16  2  0  0  0  0
 23 22  1  6  0  0  0
 23 14  1  0  0  0  0
 24 27  1  0  0  0  0
 24 31  1  0  0  0  0
 25 28  1  0  0  0  0
 25 30  1  0  0  0  0
 28 24  2  0  0  0  0
 29 31  1  0  0  0  0
 29 26  1  1  0  0  0
 30 29  1  0  0  0  0
 30 23  1  1  0  0  0
M  END
>  <MODEL>
6

>  <REMARK>
 VINA RESULT:      -8.9      1.536      2.473
  Name = 
  2 active torsions:
  status: ('A' for Active; 'I' for Inactive)
    1  A    between atoms: C_5  and  N_16
    2  A    between atoms: C_5  and  C_30
                            x       y       z     vdW  Elec       q    Type
                         _______ _______ _______ _____ _____    ______ ____

>  <TORSDO>
F 2

$$$$
=
 OpenBabel11122410563D

 31 35  0  0  1  0  0  0  0  0999 V2000
  190.1590  177.0500  145.8570 C   0  0  0  0  0  0  0  0  0  0  0  0
  187.5440  177.4510  143.0680 C   0  0  2  0  0  3  0  0  0  0  0  0
  186.3660  178.1340  143.7590 C   0  0  0  0  0  0  0  0  0  0  0  0
  185.0760  178.7050  145.7450 C   0  0  0  0  0  0  0  0  0  0  0  0
  188.8600  177.3180  143.8160 C   0  0  0  0  0  0  0  0  0  0  0  0
  191.3010  176.7800  145.1030 C   0  0  0  0  0  3  0  0  0  0  0  0
  186.2020  178.1270  145.1530 C   0  0  0  0  0  3  0  0  0  0  0  0
  188.9430  177.4150  140.9450 C   0  0  0  0  0  0  0  0  0  0  0  0
  190.2280  177.0600  147.2430 O   0  0  0  0  0  1  0  0  0  0  0  0
  185.4250  178.6420  141.5640 O   0  0  0  0  0  0  0  0  0  0  0  0
  184.9430  178.7060  147.1260 O   0  0  0  0  0  1  0  0  0  0  0  0
  189.9630  176.9960  141.6330 N   0  0  0  0  0  0  0  0  0  0  0  0
  187.7600  178.0470  141.6600 C   0  0  1  0  0  3  0  0  0  0  0  0
  189.0650  177.4330  139.5160 N   0  0  0  0  0  2  0  0  0  0  0  0
  188.9430  177.3010  145.2160 C   0  0  0  0  0  3  0  0  0  0  0  0
  184.0840  179.2770  144.9470 C   0  0  0  0  0  3  0  0  0  0  0  0
  190.0150  177.0240  143.0640 C   0  0  0  0  0  0  0  0  0  0  0  0
  191.2280  176.7620  143.7090 C   0  0  0  0  0  3  0  0  0  0  0  0
  186.4460  177.9050  140.8980 C   0  0  0  0  0  2  0  0  0  0  0  0
  185.3330  178.6740  142.9600 C   0  0  0  0  0  0  0  0  0  0  0  0
  184.2120  179.2590  143.5570 C   0  0  0  0  0  3  0  0  0  0  0  0
  189.2230  179.1830  137.8480 C   0  0  0  0  0  1  0  0  0  0  0  0
  188.2780  178.2830  138.6320 C   0  0  1  0  0  3  0  0  0  0  0  0
  189.6160  176.5020  136.1660 C   0  0  0  0  0  0  0  0  0  0  0  0
  187.8390  175.9580  137.7300 C   0  0  0  0  0  2  0  0  0  0  0  0
  187.1690  179.2010  136.0340 F   0  0  0  0  0  0  0  0  0  0  0  0
  190.9710  176.2460  135.6130 C   0  0  0  0  0  1  0  0  0  0  0  0
  189.1650  175.7620  137.1360 N   0  0  0  0  0  0  0  0  0  0  0  0
  187.5190  177.8760  136.2190 C   0  0  2  0  0  3  0  0  0  0  0  0
  187.4130  177.4330  137.6860 C   0  0  2  0  0  3  0  0  0  0  0  0
  188.8630  177.6270  135.7040 N   0  0  0  0  0  2  0  0  0  0  0  0
  1  9  1  0  0  0  0
  2  3  1  1  0  0  0
  2  5  1  0  0  0  0
  3  7  1  0  0  0  0
  4 11  1  0  0  0  0
  5 15  2  0  0  0  0
  6  1  2  0  0  0  0
  7  4  2  0  0  0  0
  8 12  2  0  0  0  0
  8 13  1  0  0  0  0
 10 20  1  0  0  0  0
 12 17  1  0  0  0  0
 13 19  1  6  0  0  0
 13  2  1  0  0  0  0
 14  8  1  0  0  0  0
 15  1  1  0  0  0  0
 16  4  1  0  0  0  0
 17 18  2  0  0  0  0
 17  5  1  0  0  0  0
 18  6  1  0  0  0  0
 19 10  1  0  0  0  0
 20 21  1  0  0  0  0
 20  3  2  0  0  0  0
 21 16  2  0  0  0  0
 23 22  1  6  0  0  0
 23 14  1  0  0  0  0
 24 28  2  0  0  0  0
 27 24  1  0  0  0  0
 28 25  1  0  0  0  0
 29 26  1  1  0  0  0
 29 30  1  0  0  0  0
 30 25  1  0  0  0  0
 30 23  1  1  0  0  0
 31 24  1  0  0  0  0
 31 29  1  0  0  0  0
M  END
>  <MODEL>
7

>  <REMARK>
 VINA RESULT:      -8.8      1.661      4.249
  Name = 
  2 active torsions:
  status: ('A' for Active; 'I' for Inactive)
    1  A    between atoms: C_5  and  N_16
    2  A    between atoms: C_5  and  C_30
                            x       y       z     vdW  Elec       q    Type
                         _______ _______ _______ _____ _____    ______ ____

>  <TORSDO>
F 2

$$$$
=
 OpenBabel11122410563D

 31 35  0  0  1  0  0  0  0  0999 V2000
  186.4580  178.1690  146.0170 C   0  0  0  0  0  0  0  0  0  0  0  0
  185.7000  178.8530  142.3100 C   0  0  2  0  0  3  0  0  0  0  0  0
  186.9610  178.3930  141.5840 C   0  0  0  0  0  0  0  0  0  0  0  0
  189.3410  177.8770  141.5240 C   0  0  0  0  0  0  0  0  0  0  0  0
  185.5480  178.5400  143.7900 C   0  0  0  0  0  0  0  0  0  0  0  0
  185.1770  178.2530  146.5630 C   0  0  0  0  0  3  0  0  0  0  0  0
  188.1940  178.2350  142.2360 C   0  0  0  0  0  3  0  0  0  0  0  0
  183.1590  178.8500  142.2240 C   0  0  0  0  0  0  0  0  0  0  0  0
  187.5510  177.9380  146.8410 O   0  0  0  0  0  1  0  0  0  0  0  0
  185.7240  178.4670  139.4790 O   0  0  0  0  0  0  0  0  0  0  0  0
  190.5450  177.7050  142.1910 O   0  0  0  0  0  1  0  0  0  0  0  0
  183.1220  178.8940  143.5220 N   0  0  0  0  0  0  0  0  0  0  0  0
  184.4410  178.4370  141.5210 C   0  0  1  0  0  3  0  0  0  0  0  0
  181.9220  179.0130  141.5160 N   0  0  0  0  0  2  0  0  0  0  0  0
  186.6430  178.3280  144.6420 C   0  0  0  0  0  3  0  0  0  0  0  0
  189.2760  177.6960  140.1410 C   0  0  0  0  0  3  0  0  0  0  0  0
  184.2610  178.6430  144.3540 C   0  0  0  0  0  0  0  0  0  0  0  0
  184.0810  178.4940  145.7330 C   0  0  0  0  0  3  0  0  0  0  0  0
  184.5730  179.0150  140.1150 C   0  0  0  0  0  2  0  0  0  0  0  0
  186.9180  178.2530  140.1770 C   0  0  0  0  0  0  0  0  0  0  0  0
  188.0670  177.8870  139.4690 C   0  0  0  0  0  3  0  0  0  0  0  0
  181.1860  177.0890  140.2420 C   0  0  0  0  0  1  0  0  0  0  0  0
  181.6750  178.5280  140.1640 C   0  0  1  0  0  3  0  0  0  0  0  0
  181.3300  178.4720  136.8590 C   0  0  0  0  0  0  0  0  0  0  0  0
  179.6650  178.5740  138.6250 C   0  0  0  0  0  2  0  0  0  0  0  0
  182.2330  181.2310  139.0660 F   0  0  0  0  0  0  0  0  0  0  0  0
  181.9480  177.7650  135.7070 C   0  0  0  0  0  1  0  0  0  0  0  0
  180.3230  177.9340  137.4810 N   0  0  0  0  0  0  0  0  0  0  0  0
  181.3060  180.4030  138.4580 C   0  0  2  0  0  3  0  0  0  0  0  0
  180.6520  179.4210  139.4420 C   0  0  2  0  0  3  0  0  0  0  0  0
  181.9170  179.6840  137.3450 N   0  0  0  0  0  2  0  0  0  0  0  0
  1  6  1  0  0  0  0
  1  9  1  0  0  0  0
  2  3  1  6  0  0  0
  2  5  1  0  0  0  0
  3  7  1  0  0  0  0
  4 11  1  0  0  0  0
  4  7  2  0  0  0  0
  5 17  2  0  0  0  0
  5 15  1  0  0  0  0
  8 12  2  0  0  0  0
 10 19  1  0  0  0  0
 10 20  1  0  0  0  0
 12 17  1  0  0  0  0
 13 19  1  6  0  0  0
 13  8  1  0  0  0  0
 13  2  1  0  0  0  0
 14  8  1  0  0  0  0
 15  1  2  0  0  0  0
 16  4  1  0  0  0  0
 17 18  1  0  0  0  0
 18  6  2  0  0  0  0
 20  3  2  0  0  0  0
 21 16  2  0  0  0  0
 21 20  1  0  0  0  0
 23 22  1  1  0  0  0
 23 14  1  0  0  0  0
 24 31  1  0  0  0  0
 24 28  2  0  0  0  0
 25 30  1  0  0  0  0
 27 24  1  0  0  0  0
 28 25  1  0  0  0  0
 29 26  1  1  0  0  0
 29 30  1  0  0  0  0
 30 23  1  6  0  0  0
 31 29  1  0  0  0  0
M  END
>  <MODEL>
8

>  <REMARK>
 VINA RESULT:      -8.8      3.320      5.085
  Name = 
  2 active torsions:
  status: ('A' for Active; 'I' for Inactive)
    1  A    between atoms: C_5  and  N_16
    2  A    between atoms: C_5  and  C_30
                            x       y       z     vdW  Elec       q    Type
                         _______ _______ _______ _____ _____    ______ ____

>  <TORSDO>
F 2

$$$$
=
 OpenBabel11122410563D

 31 35  0  0  1  0  0  0  0  0999 V2000
  186.2850  178.2090  145.8350 C   0  0  0  0  0  0  0  0  0  0  0  0
  185.0290  179.0380  142.2970 C   0  0  2  0  0  3  0  0  0  0  0  0
  186.1830  178.6230  141.3880 C   0  0  0  0  0  0  0  0  0  0  0  0
  188.5350  178.1350  140.9870 C   0  0  0  0  0  0  0  0  0  0  0  0
  185.0800  178.6620  143.7690 C   0  0  0  0  0  0  0  0  0  0  0  0
  185.0880  178.2560  146.5520 C   0  0  0  0  0  3  0  0  0  0  0  0
  187.4930  178.4510  141.8610 C   0  0  0  0  0  3  0  0  0  0  0  0
  182.5000  179.0110  142.5540 C   0  0  0  0  0  0  0  0  0  0  0  0
  187.4800  177.9560  146.4940 O   0  0  0  0  0  1  0  0  0  0  0  0
  184.6730  178.7710  139.4750 O   0  0  0  0  0  0  0  0  0  0  0  0
  189.8200  177.9480  141.4770 O   0  0  0  0  0  1  0  0  0  0  0  0
  182.6380  179.0010  143.8460 N   0  0  0  0  0  0  0  0  0  0  0  0
  183.6770  178.6420  141.6680 C   0  0  1  0  0  3  0  0  0  0  0  0
  181.1780  179.1910  142.0270 N   0  0  0  0  0  2  0  0  0  0  0  0
  186.2810  178.4270  144.4560 C   0  0  0  0  0  3  0  0  0  0  0  0
  188.2850  178.0110  139.6190 C   0  0  0  0  0  3  0  0  0  0  0  0
  183.8800  178.7280  144.5050 C   0  0  0  0  0  0  0  0  0  0  0  0
  183.8890  178.5200  145.8880 C   0  0  0  0  0  3  0  0  0  0  0  0
  183.6150  179.2790  140.2830 C   0  0  0  0  0  2  0  0  0  0  0  0
  185.9510  178.5410  139.9960 C   0  0  0  0  0  0  0  0  0  0  0  0
  186.9950  178.2170  139.1240 C   0  0  0  0  0  3  0  0  0  0  0  0
  180.7600  177.2380  140.6550 C   0  0  0  0  0  1  0  0  0  0  0  0
  180.7530  178.7590  140.7010 C   0  0  1  0  0  3  0  0  0  0  0  0
  180.3260  181.1720  138.4560 C   0  0  0  0  0  0  0  0  0  0  0  0
  179.0450  179.1500  138.8730 C   0  0  0  0  0  2  0  0  0  0  0  0
  179.4890  181.1100  142.0040 F   0  0  0  0  0  0  0  0  0  0  0  0
  181.1790  181.9980  137.5620 C   0  0  0  0  0  1  0  0  0  0  0  0
  179.8900  180.0170  138.0450 N   0  0  0  0  0  0  0  0  0  0  0  0
  179.2230  180.8140  140.6790 C   0  0  2  0  0  3  0  0  0  0  0  0
  179.3590  179.3160  140.3680 C   0  0  2  0  0  3  0  0  0  0  0  0
  180.0810  181.6010  139.7990 N   0  0  0  0  0  2  0  0  0  0  0  0
  1  9  1  0  0  0  0
  1  6  1  0  0  0  0
  2  3  1  6  0  0  0
  2  5  1  0  0  0  0
  3  7  1  0  0  0  0
  4 11  1  0  0  0  0
  4  7  2  0  0  0  0
  5 15  1  0  0  0  0
  5 17  2  0  0  0  0
  8 12  2  0  0  0  0
 10 20  1  0  0  0  0
 10 19  1  0  0  0  0
 12 17  1  0  0  0  0
 13 19  1  6  0  0  0
 13  2  1  0  0  0  0
 13  8  1  0  0  0  0
 14  8  1  0  0  0  0
 15  1  2  0  0  0  0
 16  4  1  0  0  0  0
 17 18  1  0  0  0  0
 18  6  2  0  0  0  0
 20  3  2  0  0  0  0
 21 16  2  0  0  0  0
 21 20  1  0  0  0  0
 23 22  1  1  0  0  0
 23 14  1  0  0  0  0
 24 31  1  0  0  0  0
 25 30  1  0  0  0  0
 27 24  1  0  0  0  0
 28 24  2  0  0  0  0
 28 25  1  0  0  0  0
 29 26  1  1  0  0  0
 30 29  1  0  0  0  0
 30 23  1  6  0  0  0
 31 29  1  0  0  0  0
M  END
>  <MODEL>
9

>  <REMARK>
 VINA RESULT:      -8.6      4.007      6.281
  Name = 
  2 active torsions:
  status: ('A' for Active; 'I' for Inactive)
    1  A    between atoms: C_5  and  N_16
    2  A    between atoms: C_5  and  C_30
                            x       y       z     vdW  Elec       q    Type
                         _______ _______ _______ _____ _____    ______ ____

>  <TORSDO>
F 2

$$$$
