=
 OpenBabel11122411003D

 31 35  0  0  1  0  0  0  0  0999 V2000
  183.8980  173.0580  136.4530 C   0  0  0  0  0  0  0  0  0  0  0  0
  185.3830  176.5780  136.6210 C   0  0  2  0  0  3  0  0  0  0  0  0
  184.7850  177.2780  137.8360 C   0  0  0  0  0  0  0  0  0  0  0  0
  183.0860  177.4240  139.6990 C   0  0  0  0  0  0  0  0  0  0  0  0
  185.2290  175.0820  136.6900 C   0  0  0  0  0  0  0  0  0  0  0  0
  184.9060  172.2360  137.2030 C   0  0  0  0  0  2  0  0  0  0  0  0
  183.4810  176.7640  138.4120 C   0  0  0  0  0  2  0  0  0  0  0  0
  187.6990  176.2980  137.4430 N   0  0  0  0  0  0  0  0  0  0  0  0
  182.8650  172.5120  135.9880 O   0  0  0  0  0  0  0  0  0  0  0  0
  186.4660  178.9740  137.6680 O   0  0  0  0  0  0  0  0  0  0  0  0
  182.1560  176.9360  140.3910 O   0  0  0  0  0  0  0  0  0  0  0  0
  187.7400  174.8560  137.1790 C   0  0  0  0  0  2  0  0  0  0  0  0
  186.8680  176.9440  136.4080 C   0  0  2  0  0  3  0  0  0  0  0  0
  184.0760  174.5120  136.3310 C   0  0  0  0  0  3  0  0  0  0  0  0
  183.7400  178.6630  140.1320 C   0  0  0  0  0  3  0  0  0  0  0  0
  186.3700  174.2520  137.1430 C   0  0  0  0  0  0  0  0  0  0  0  0
  186.2360  172.9320  137.3110 C   0  0  0  0  0  3  0  0  0  0  0  0
  186.9780  178.4710  136.4390 C   0  0  0  0  0  2  0  0  0  0  0  0
  185.3330  178.4320  138.2850 C   0  0  0  0  0  0  0  0  0  0  0  0
  184.7850  179.1360  139.4590 C   0  0  0  0  0  3  0  0  0  0  0  0
  189.0820  176.7550  137.3260 C   0  0  0  0  0  2  0  0  0  0  0  0
  190.5890  175.4210  138.5880 O   0  0  0  0  0  0  0  0  0  0  0  0
  189.8310  176.4270  138.5790 C   0  0  0  0  0  0  0  0  0  0  0  0
  188.3110  177.8880  142.1320 C   0  0  1  0  0  3  0  0  0  0  0  0
  189.9730  176.6210  140.9810 O   0  0  0  0  0  0  0  0  0  0  0  0
  189.1990  179.2910  138.8480 O   0  0  0  0  0  0  0  0  0  0  0  0
  187.0220  177.7840  142.9180 C   0  0  0  0  0  1  0  0  0  0  0  0
  188.7690  176.4930  141.6930 C   0  0  0  0  0  2  0  0  0  0  0  0
  189.0280  178.4810  139.7980 C   0  0  0  0  0  0  0  0  0  0  0  0
  189.6390  177.1810  139.7860 N   0  0  0  0  0  0  0  0  0  0  0  0
  188.1110  178.8270  140.9330 C   0  0  0  0  0  2  0  0  0  0  0  0
  1  6  1  0  0  0  0
  2  5  1  1  0  0  0
  2  3  1  0  0  0  0
  3 19  2  0  0  0  0
  3  7  1  0  0  0  0
  4 15  1  0  0  0  0
  4 11  2  0  0  0  0
  5 16  1  0  0  0  0
  6 17  1  0  0  0  0
  7  4  1  0  0  0  0
  9  1  2  0  0  0  0
 10 19  1  0  0  0  0
 12  8  1  0  0  0  0
 13 18  1  1  0  0  0
 13  2  1  0  0  0  0
 13  8  1  0  0  0  0
 14  1  1  0  0  0  0
 14  5  2  0  0  0  0
 16 12  1  0  0  0  0
 16 17  2  0  0  0  0
 18 10  1  0  0  0  0
 19 20  1  0  0  0  0
 20 15  2  0  0  0  0
 21  8  1  0  0  0  0
 21 23  1  0  0  0  0
 23 22  2  0  0  0  0
 23 30  1  0  0  0  0
 24 27  1  6  0  0  0
 25 28  1  0  0  0  0
 26 29  2  0  0  0  0
 28 24  1  0  0  0  0
 29 31  1  0  0  0  0
 30 29  1  0  0  0  0
 30 25  1  0  0  0  0
 31 24  1  0  0  0  0
M  END
>  <MODEL>
1

>  <REMARK>
 VINA RESULT:      -7.2      0.000      0.000
  Name = 
  2 active torsions:
  status: ('A' for Active; 'I' for Inactive)
    1  A    between atoms: C_5  and  C_16
    2  A    between atoms: N_10  and  C_16
                            x       y       z     vdW  Elec       q    Type
                         _______ _______ _______ _____ _____    ______ ____

>  <TORSDO>
F 2

$$$$
=
 OpenBabel11122411003D

 31 35  0  0  1  0  0  0  0  0999 V2000
  191.0690  177.1080  142.0010 C   0  0  0  0  0  0  0  0  0  0  0  0
  190.1010  177.9960  138.4100 C   0  0  2  0  0  3  0  0  0  0  0  0
  190.3480  176.7670  137.5430 C   0  0  0  0  0  0  0  0  0  0  0  0
  191.3340  174.4700  137.1810 C   0  0  0  0  0  0  0  0  0  0  0  0
  190.0200  177.6560  139.8740 C   0  0  0  0  0  0  0  0  0  0  0  0
  189.7680  176.6460  142.5910 C   0  0  0  0  0  2  0  0  0  0  0  0
  191.3050  175.7010  138.0370 C   0  0  0  0  0  2  0  0  0  0  0  0
  187.6270  178.0070  138.3580 N   0  0  0  0  0  0  0  0  0  0  0  0
  192.1140  177.0940  142.7000 O   0  0  0  0  0  0  0  0  0  0  0  0
  189.0630  177.7640  135.7860 O   0  0  0  0  0  0  0  0  0  0  0  0
  191.9070  173.4310  137.6000 O   0  0  0  0  0  0  0  0  0  0  0  0
  187.4830  178.0520  139.8170 C   0  0  0  0  0  2  0  0  0  0  0  0
  188.8340  178.7680  137.9790 C   0  0  2  0  0  3  0  0  0  0  0  0
  191.1390  177.4990  140.5860 C   0  0  0  0  0  3  0  0  0  0  0  0
  190.7470  174.4830  135.8380 C   0  0  0  0  0  3  0  0  0  0  0  0
  188.6930  177.5140  140.5170 C   0  0  0  0  0  0  0  0  0  0  0  0
  188.5840  177.1160  141.7890 C   0  0  0  0  0  3  0  0  0  0  0  0
  188.9270  179.0050  136.4700 C   0  0  0  0  0  2  0  0  0  0  0  0
  189.8430  176.7160  136.2880 C   0  0  0  0  0  0  0  0  0  0  0  0
  190.0590  175.5430  135.4220 C   0  0  0  0  0  3  0  0  0  0  0  0
  186.4370  178.6690  137.8290 C   0  0  0  0  0  2  0  0  0  0  0  0
  185.4400  176.5460  137.4520 O   0  0  0  0  0  0  0  0  0  0  0  0
  185.2760  177.7250  137.8620 C   0  0  0  0  0  0  0  0  0  0  0  0
  181.4910  179.3790  137.9060 C   0  0  1  0  0  3  0  0  0  0  0  0
  182.8790  177.4390  137.8870 O   0  0  0  0  0  0  0  0  0  0  0  0
  184.5870  179.7830  139.8530 O   0  0  0  0  0  0  0  0  0  0  0  0
  180.6690  180.3030  137.0340 C   0  0  0  0  0  1  0  0  0  0  0  0
  182.1370  178.2880  137.0470 C   0  0  0  0  0  2  0  0  0  0  0  0
  183.7510  179.3740  139.0040 C   0  0  0  0  0  0  0  0  0  0  0  0
  183.9690  178.1590  138.2710 N   0  0  0  0  0  0  0  0  0  0  0  0
  182.5390  180.1950  138.6790 C   0  0  0  0  0  2  0  0  0  0  0  0
  1  6  1  0  0  0  0
  1  9  2  0  0  0  0
  2  3  1  6  0  0  0
  2  5  1  0  0  0  0
  3  7  1  0  0  0  0
  4 11  2  0  0  0  0
  4  7  1  0  0  0  0
  5 16  1  0  0  0  0
  5 14  2  0  0  0  0
  8 12  1  0  0  0  0
 10 19  1  0  0  0  0
 10 18  1  0  0  0  0
 12 16  1  0  0  0  0
 13 18  1  6  0  0  0
 13  8  1  0  0  0  0
 13  2  1  0  0  0  0
 14  1  1  0  0  0  0
 15  4  1  0  0  0  0
 16 17  2  0  0  0  0
 17  6  1  0  0  0  0
 19  3  2  0  0  0  0
 20 15  2  0  0  0  0
 20 19  1  0  0  0  0
 21 23  1  0  0  0  0
 21  8  1  0  0  0  0
 22 23  2  0  0  0  0
 23 30  1  0  0  0  0
 24 27  1  6  0  0  0
 24 31  1  0  0  0  0
 25 30  1  0  0  0  0
 28 25  1  0  0  0  0
 28 24  1  0  0  0  0
 29 26  2  0  0  0  0
 30 29  1  0  0  0  0
 31 29  1  0  0  0  0
M  END
>  <MODEL>
2

>  <REMARK>
 VINA RESULT:      -6.9      2.766      6.980
  Name = 
  2 active torsions:
  status: ('A' for Active; 'I' for Inactive)
    1  A    between atoms: C_5  and  C_16
    2  A    between atoms: N_10  and  C_16
                            x       y       z     vdW  Elec       q    Type
                         _______ _______ _______ _____ _____    ______ ____

>  <TORSDO>
F 2

$$$$
=
 OpenBabel11122411003D

 31 35  0  0  1  0  0  0  0  0999 V2000
  179.7420  177.8920  141.7970 C   0  0  0  0  0  0  0  0  0  0  0  0
  182.9050  178.8600  139.8790 C   0  0  2  0  0  3  0  0  0  0  0  0
  184.0930  178.6770  140.8160 C   0  0  0  0  0  0  0  0  0  0  0  0
  185.0660  178.3060  143.1170 C   0  0  0  0  0  0  0  0  0  0  0  0
  181.6860  178.1130  140.3480 C   0  0  0  0  0  0  0  0  0  0  0  0
  179.5720  176.4420  141.4460 C   0  0  0  0  0  2  0  0  0  0  0  0
  183.8520  178.6610  142.3130 C   0  0  0  0  0  2  0  0  0  0  0  0
  183.3540  176.9880  138.3240 N   0  0  0  0  0  0  0  0  0  0  0  0
  178.9310  178.4460  142.5820 O   0  0  0  0  0  0  0  0  0  0  0  0
  185.5770  178.8350  138.9450 O   0  0  0  0  0  0  0  0  0  0  0  0
  184.9480  178.0360  144.3410 O   0  0  0  0  0  0  0  0  0  0  0  0
  182.0160  176.4040  138.4600 C   0  0  0  0  0  2  0  0  0  0  0  0
  183.2410  178.4570  138.4260 C   0  0  2  0  0  3  0  0  0  0  0  0
  180.9000  178.6420  141.2900 C   0  0  0  0  0  3  0  0  0  0  0  0
  186.3970  178.3210  142.5040 C   0  0  0  0  0  3  0  0  0  0  0  0
  181.3590  176.7990  139.7470 C   0  0  0  0  0  0  0  0  0  0  0  0
  180.3410  176.0640  140.2090 C   0  0  0  0  0  3  0  0  0  0  0  0
  184.5360  179.1720  138.0340 C   0  0  0  0  0  2  0  0  0  0  0  0
  185.3520  178.6900  140.3180 C   0  0  0  0  0  0  0  0  0  0  0  0
  186.5250  178.5130  141.1930 C   0  0  0  0  0  3  0  0  0  0  0  0
  183.8070  176.6180  136.9860 C   0  0  0  0  0  2  0  0  0  0  0  0
  184.9130  174.6070  137.6020 O   0  0  0  0  0  0  0  0  0  0  0  0
  185.0230  175.7500  137.0860 C   0  0  0  0  0  0  0  0  0  0  0  0
  188.7010  177.6300  137.0200 C   0  0  1  0  0  3  0  0  0  0  0  0
  187.4320  175.6160  137.1760 O   0  0  0  0  0  0  0  0  0  0  0  0
  185.6710  177.6520  134.9320 O   0  0  0  0  0  0  0  0  0  0  0  0
  189.4290  178.6820  137.8280 C   0  0  0  0  0  1  0  0  0  0  0  0
  188.0850  176.5850  137.9560 C   0  0  0  0  0  2  0  0  0  0  0  0
  186.4940  177.3780  135.8470 C   0  0  0  0  0  0  0  0  0  0  0  0
  186.3170  176.2260  136.6850 N   0  0  0  0  0  0  0  0  0  0  0  0
  187.6400  178.3010  136.1340 C   0  0  0  0  0  2  0  0  0  0  0  0
  1  9  2  0  0  0  0
  2  5  1  1  0  0  0
  2  3  1  0  0  0  0
  3  7  1  0  0  0  0
  4 11  2  0  0  0  0
  5 14  2  0  0  0  0
  6  1  1  0  0  0  0
  7  4  1  0  0  0  0
  8 13  1  0  0  0  0
  8 12  1  0  0  0  0
 10 19  1  0  0  0  0
 12 16  1  0  0  0  0
 13 18  1  1  0  0  0
 13  2  1  0  0  0  0
 14  1  1  0  0  0  0
 15  4  1  0  0  0  0
 16 17  2  0  0  0  0
 16  5  1  0  0  0  0
 17  6  1  0  0  0  0
 18 10  1  0  0  0  0
 19  3  2  0  0  0  0
 19 20  1  0  0  0  0
 20 15  2  0  0  0  0
 21 23  1  0  0  0  0
 21  8  1  0  0  0  0
 23 22  2  0  0  0  0
 24 27  1  1  0  0  0
 24 28  1  0  0  0  0
 25 28  1  0  0  0  0
 26 29  2  0  0  0  0
 29 31  1  0  0  0  0
 29 30  1  0  0  0  0
 30 23  1  0  0  0  0
 30 25  1  0  0  0  0
 31 24  1  0  0  0  0
M  END
>  <MODEL>
3

>  <REMARK>
 VINA RESULT:      -6.7      2.468      5.364
  Name = 
  2 active torsions:
  status: ('A' for Active; 'I' for Inactive)
    1  A    between atoms: C_5  and  C_16
    2  A    between atoms: N_10  and  C_16
                            x       y       z     vdW  Elec       q    Type
                         _______ _______ _______ _____ _____    ______ ____

>  <TORSDO>
F 2

$$$$
=
 OpenBabel11122411003D

 31 35  0  0  1  0  0  0  0  0999 V2000
  188.2120  177.1050  135.8320 C   0  0  0  0  0  0  0  0  0  0  0  0
  185.3510  178.2540  138.0940 C   0  0  2  0  0  3  0  0  0  0  0  0
  184.4010  177.0760  138.2780 C   0  0  0  0  0  0  0  0  0  0  0  0
  183.5700  174.7760  137.6450 C   0  0  0  0  0  0  0  0  0  0  0  0
  186.7080  177.8230  137.6060 C   0  0  0  0  0  0  0  0  0  0  0  0
  189.2500  176.6480  136.8160 C   0  0  0  0  0  2  0  0  0  0  0  0
  184.4220  175.9490  137.2640 C   0  0  0  0  0  2  0  0  0  0  0  0
  186.2910  178.3470  140.3800 N   0  0  0  0  0  0  0  0  0  0  0  0
  188.4350  177.0120  134.5980 O   0  0  0  0  0  0  0  0  0  0  0  0
  183.3510  178.2240  140.0970 O   0  0  0  0  0  0  0  0  0  0  0  0
  183.6770  173.6950  137.0100 O   0  0  0  0  0  0  0  0  0  0  0  0
  187.6860  178.3020  139.9320 C   0  0  0  0  0  2  0  0  0  0  0  0
  185.4980  179.0920  139.3820 C   0  0  2  0  0  3  0  0  0  0  0  0
  186.9070  177.5840  136.3070 C   0  0  0  0  0  3  0  0  0  0  0  0
  182.5750  174.8940  138.7140 C   0  0  0  0  0  3  0  0  0  0  0  0
  187.8200  177.6820  138.5750 C   0  0  0  0  0  0  0  0  0  0  0  0
  189.0100  177.2060  138.1930 C   0  0  0  0  0  3  0  0  0  0  0  0
  184.0890  179.4220  139.8830 C   0  0  0  0  0  2  0  0  0  0  0  0
  183.4510  177.1220  139.2410 C   0  0  0  0  0  0  0  0  0  0  0  0
  182.5170  176.0000  139.4520 C   0  0  0  0  0  3  0  0  0  0  0  0
  186.3110  179.0790  141.6440 C   0  0  0  0  0  2  0  0  0  0  0  0
  184.4780  178.1910  142.8660 O   0  0  0  0  0  0  0  0  0  0  0  0
  185.7290  178.2290  142.7310 C   0  0  0  0  0  0  0  0  0  0  0  0
  188.1740  177.3090  145.9310 C   0  0  1  0  0  3  0  0  0  0  0  0
  186.0460  177.1440  144.8640 O   0  0  0  0  0  0  0  0  0  0  0  0
  188.3970  177.0720  142.2660 O   0  0  0  0  0  0  0  0  0  0  0  0
  188.9570  178.0600  146.9860 C   0  0  0  0  0  1  0  0  0  0  0  0
  186.7510  177.8710  145.8380 C   0  0  0  0  0  2  0  0  0  0  0  0
  187.9620  177.2930  143.4280 C   0  0  0  0  0  0  0  0  0  0  0  0
  186.5660  177.5320  143.6660 N   0  0  0  0  0  0  0  0  0  0  0  0
  188.9100  177.3910  144.5850 C   0  0  0  0  0  2  0  0  0  0  0  0
  1 14  1  0  0  0  0
  1  6  1  0  0  0  0
  2  5  1  1  0  0  0
  2  3  1  0  0  0  0
  2 13  1  0  0  0  0
  3 19  2  0  0  0  0
  4 15  1  0  0  0  0
  5 16  1  0  0  0  0
  6 17  1  0  0  0  0
  7  4  1  0  0  0  0
  7  3  1  0  0  0  0
  8 21  1  0  0  0  0
  9  1  2  0  0  0  0
 11  4  2  0  0  0  0
 12  8  1  0  0  0  0
 13 18  1  1  0  0  0
 13  8  1  0  0  0  0
 14  5  2  0  0  0  0
 15 20  2  0  0  0  0
 16 12  1  0  0  0  0
 17 16  2  0  0  0  0
 18 10  1  0  0  0  0
 19 20  1  0  0  0  0
 19 10  1  0  0  0  0
 21 23  1  0  0  0  0
 23 22  2  0  0  0  0
 23 30  1  0  0  0  0
 24 27  1  1  0  0  0
 25 28  1  0  0  0  0
 26 29  2  0  0  0  0
 28 24  1  0  0  0  0
 29 30  1  0  0  0  0
 29 31  1  0  0  0  0
 30 25  1  0  0  0  0
 31 24  1  0  0  0  0
M  END
>  <MODEL>
4

>  <REMARK>
 VINA RESULT:      -6.5      2.449      4.622
  Name = 
  2 active torsions:
  status: ('A' for Active; 'I' for Inactive)
    1  A    between atoms: C_5  and  C_16
    2  A    between atoms: N_10  and  C_16
                            x       y       z     vdW  Elec       q    Type
                         _______ _______ _______ _____ _____    ______ ____

>  <TORSDO>
F 2

$$$$
=
 OpenBabel11122411003D

 31 35  0  0  1  0  0  0  0  0999 V2000
  183.1040  179.0020  139.2280 C   0  0  0  0  0  0  0  0  0  0  0  0
  186.8320  178.6630  138.4500 C   0  0  2  0  0  3  0  0  0  0  0  0
  187.5410  178.2560  139.7360 C   0  0  0  0  0  0  0  0  0  0  0  0
  187.5800  177.9320  142.2410 C   0  0  0  0  0  0  0  0  0  0  0  0
  185.3500  178.4040  138.5070 C   0  0  0  0  0  0  0  0  0  0  0  0
  182.5680  177.6410  138.8870 C   0  0  0  0  0  2  0  0  0  0  0  0
  186.8650  178.5270  141.0650 C   0  0  0  0  0  2  0  0  0  0  0  0
  187.0720  176.5440  137.1950 N   0  0  0  0  0  0  0  0  0  0  0  0
  182.3290  179.8850  139.6780 O   0  0  0  0  0  0  0  0  0  0  0  0
  189.4860  177.6800  138.4650 O   0  0  0  0  0  0  0  0  0  0  0  0
  187.0100  177.8880  143.3620 O   0  0  0  0  0  0  0  0  0  0  0  0
  185.6410  176.4270  136.8940 C   0  0  0  0  0  2  0  0  0  0  0  0
  187.4370  177.9740  137.2070 C   0  0  2  0  0  3  0  0  0  0  0  0
  184.5420  179.2780  139.1150 C   0  0  0  0  0  3  0  0  0  0  0  0
  188.9570  177.4480  142.1080 C   0  0  0  0  0  3  0  0  0  0  0  0
  184.7980  177.1840  137.8730 C   0  0  0  0  0  0  0  0  0  0  0  0
  183.5020  176.8730  137.9920 C   0  0  0  0  0  3  0  0  0  0  0  0
  188.9520  178.1910  137.2490 C   0  0  0  0  0  2  0  0  0  0  0  0
  188.8180  177.8090  139.6880 C   0  0  0  0  0  0  0  0  0  0  0  0
  189.5360  177.4030  140.9100 C   0  0  0  0  0  3  0  0  0  0  0  0
  187.7570  175.8650  136.0990 C   0  0  0  0  0  2  0  0  0  0  0  0
  188.0050  173.7790  137.2080 O   0  0  0  0  0  0  0  0  0  0  0  0
  188.5850  174.7400  136.6370 C   0  0  0  0  0  0  0  0  0  0  0  0
  192.5510  175.5380  137.4750 C   0  0  1  0  0  3  0  0  0  0  0  0
  190.7330  173.9930  137.4470 O   0  0  0  0  0  0  0  0  0  0  0  0
  190.3040  175.9820  134.5940 O   0  0  0  0  0  0  0  0  0  0  0  0
  193.3340  176.4880  138.3540 C   0  0  0  0  0  1  0  0  0  0  0  0
  191.4300  174.8790  138.2860 C   0  0  0  0  0  2  0  0  0  0  0  0
  190.7450  175.6710  135.7330 C   0  0  0  0  0  0  0  0  0  0  0  0
  190.0190  174.7770  136.5920 N   0  0  0  0  0  0  0  0  0  0  0  0
  192.0050  176.2940  136.2540 C   0  0  0  0  0  2  0  0  0  0  0  0
  1  9  2  0  0  0  0
  2  5  1  1  0  0  0
  2  3  1  0  0  0  0
  3  7  1  0  0  0  0
  4 11  2  0  0  0  0
  5 14  2  0  0  0  0
  6  1  1  0  0  0  0
  7  4  1  0  0  0  0
  8 13  1  0  0  0  0
 10 19  1  0  0  0  0
 12  8  1  0  0  0  0
 12 16  1  0  0  0  0
 13 18  1  1  0  0  0
 13  2  1  0  0  0  0
 14  1  1  0  0  0  0
 15  4  1  0  0  0  0
 16 17  2  0  0  0  0
 16  5  1  0  0  0  0
 17  6  1  0  0  0  0
 18 10  1  0  0  0  0
 19  3  2  0  0  0  0
 19 20  1  0  0  0  0
 20 15  2  0  0  0  0
 21 23  1  0  0  0  0
 21  8  1  0  0  0  0
 23 22  2  0  0  0  0
 24 28  1  0  0  0  0
 24 27  1  1  0  0  0
 25 28  1  0  0  0  0
 26 29  2  0  0  0  0
 29 31  1  0  0  0  0
 29 30  1  0  0  0  0
 30 23  1  0  0  0  0
 30 25  1  0  0  0  0
 31 24  1  0  0  0  0
M  END
>  <MODEL>
5

>  <REMARK>
 VINA RESULT:      -6.2      2.214      4.830
  Name = 
  2 active torsions:
  status: ('A' for Active; 'I' for Inactive)
    1  A    between atoms: C_5  and  C_16
    2  A    between atoms: N_10  and  C_16
                            x       y       z     vdW  Elec       q    Type
                         _______ _______ _______ _____ _____    ______ ____

>  <TORSDO>
F 2

$$$$
=
 OpenBabel11122411003D

 31 35  0  0  1  0  0  0  0  0999 V2000
  191.0390  177.1220  142.0040 C   0  0  0  0  0  0  0  0  0  0  0  0
  190.0610  177.9840  138.4090 C   0  0  2  0  0  3  0  0  0  0  0  0
  190.3350  176.7590  137.5450 C   0  0  0  0  0  0  0  0  0  0  0  0
  191.3670  174.4810  137.1890 C   0  0  0  0  0  0  0  0  0  0  0  0
  189.9840  177.6450  139.8740 C   0  0  0  0  0  0  0  0  0  0  0  0
  189.7470  176.6340  142.5920 C   0  0  0  0  0  2  0  0  0  0  0  0
  191.3120  175.7130  138.0430 C   0  0  0  0  0  2  0  0  0  0  0  0
  187.5880  177.9450  138.3530 N   0  0  0  0  0  0  0  0  0  0  0  0
  192.0830  177.1300  142.7060 O   0  0  0  0  0  0  0  0  0  0  0  0
  189.0340  177.7260  135.7840 O   0  0  0  0  0  0  0  0  0  0  0  0
  191.9600  173.4550  137.6120 O   0  0  0  0  0  0  0  0  0  0  0  0
  187.4400  177.9890  139.8110 C   0  0  0  0  0  2  0  0  0  0  0  0
  188.7800  178.7300  137.9750 C   0  0  2  0  0  3  0  0  0  0  0  0
  191.1050  177.5120  140.5890 C   0  0  0  0  0  3  0  0  0  0  0  0
  190.7830  174.4800  135.8450 C   0  0  0  0  0  3  0  0  0  0  0  0
  188.6580  177.4770  140.5150 C   0  0  0  0  0  0  0  0  0  0  0  0
  188.5550  177.0790  141.7880 C   0  0  0  0  0  3  0  0  0  0  0  0
  188.8710  178.9660  136.4650 C   0  0  0  0  0  2  0  0  0  0  0  0
  189.8330  176.6950  136.2900 C   0  0  0  0  0  0  0  0  0  0  0  0
  190.0740  175.5250  135.4250 C   0  0  0  0  0  3  0  0  0  0  0  0
  186.3860  178.5820  137.8200 C   0  0  0  0  0  2  0  0  0  0  0  0
  184.4260  177.7120  138.8420 O   0  0  0  0  0  0  0  0  0  0  0  0
  185.2360  177.6250  137.8820 C   0  0  0  0  0  0  0  0  0  0  0  0
  185.6290  174.0560  135.8390 C   0  0  1  0  0  3  0  0  0  0  0  0
  184.3270  175.4830  137.2400 O   0  0  0  0  0  0  0  0  0  0  0  0
  186.0150  177.6280  135.0420 O   0  0  0  0  0  0  0  0  0  0  0  0
  186.5690  172.8710  135.8380 C   0  0  0  0  0  1  0  0  0  0  0  0
  185.2100  174.3910  137.2740 C   0  0  0  0  0  2  0  0  0  0  0  0
  185.7840  176.5580  135.6660 C   0  0  0  0  0  0  0  0  0  0  0  0
  185.0900  176.5660  136.9240 N   0  0  0  0  0  0  0  0  0  0  0  0
  186.3020  175.2510  135.1460 C   0  0  0  0  0  2  0  0  0  0  0  0
  1  6  1  0  0  0  0
  1  9  2  0  0  0  0
  2  3  1  6  0  0  0
  2  5  1  0  0  0  0
  3  7  1  0  0  0  0
  4 11  2  0  0  0  0
  4  7  1  0  0  0  0
  5 16  1  0  0  0  0
  5 14  2  0  0  0  0
  8 12  1  0  0  0  0
 10 19  1  0  0  0  0
 10 18  1  0  0  0  0
 12 16  1  0  0  0  0
 13 18  1  6  0  0  0
 13  8  1  0  0  0  0
 13  2  1  0  0  0  0
 14  1  1  0  0  0  0
 15  4  1  0  0  0  0
 16 17  2  0  0  0  0
 17  6  1  0  0  0  0
 19  3  2  0  0  0  0
 20 15  2  0  0  0  0
 20 19  1  0  0  0  0
 21 23  1  0  0  0  0
 21  8  1  0  0  0  0
 23 22  2  0  0  0  0
 24 27  1  1  0  0  0
 24 28  1  0  0  0  0
 25 28  1  0  0  0  0
 26 29  2  0  0  0  0
 29 30  1  0  0  0  0
 30 25  1  0  0  0  0
 30 23  1  0  0  0  0
 31 29  1  0  0  0  0
 31 24  1  0  0  0  0
M  END
>  <MODEL>
6

>  <REMARK>
 VINA RESULT:      -6.2      2.098      6.902
  Name = 
  2 active torsions:
  status: ('A' for Active; 'I' for Inactive)
    1  A    between atoms: C_5  and  C_16
    2  A    between atoms: N_10  and  C_16
                            x       y       z     vdW  Elec       q    Type
                         _______ _______ _______ _____ _____    ______ ____

>  <TORSDO>
F 2

$$$$
=
 OpenBabel11122411003D

 31 35  0  0  1  0  0  0  0  0999 V2000
  189.3460  178.0520  143.0640 C   0  0  0  0  0  0  0  0  0  0  0  0
  186.6910  178.9820  140.4740 C   0  0  2  0  0  3  0  0  0  0  0  0
  186.8880  178.0820  139.2600 C   0  0  0  0  0  0  0  0  0  0  0  0
  188.2520  176.4290  137.9230 C   0  0  0  0  0  0  0  0  0  0  0  0
  187.3630  178.4370  141.7060 C   0  0  0  0  0  0  0  0  0  0  0  0
  188.6380  177.0400  143.9170 C   0  0  0  0  0  2  0  0  0  0  0  0
  188.2350  177.4180  139.0500 C   0  0  0  0  0  2  0  0  0  0  0  0
  184.5660  178.0310  141.3120 N   0  0  0  0  0  0  0  0  0  0  0  0
  190.5430  178.3510  143.3090 O   0  0  0  0  0  0  0  0  0  0  0  0
  184.7330  178.7310  138.4450 O   0  0  0  0  0  0  0  0  0  0  0  0
  189.2310  175.6500  137.7900 O   0  0  0  0  0  0  0  0  0  0  0  0
  185.0680  177.8110  142.6720 C   0  0  0  0  0  2  0  0  0  0  0  0
  185.1980  179.2490  140.7670 C   0  0  2  0  0  3  0  0  0  0  0  0
  188.6710  178.6330  141.8950 C   0  0  0  0  0  3  0  0  0  0  0  0
  187.1630  176.3990  136.9420 C   0  0  0  0  0  3  0  0  0  0  0  0
  186.5610  177.6980  142.7090 C   0  0  0  0  0  0  0  0  0  0  0  0
  187.1430  177.1160  143.7620 C   0  0  0  0  0  3  0  0  0  0  0  0
  184.5460  179.7110  139.4610 C   0  0  0  0  0  2  0  0  0  0  0  0
  185.9270  178.0130  138.3100 C   0  0  0  0  0  0  0  0  0  0  0  0
  186.0810  177.1510  137.1240 C   0  0  0  0  0  3  0  0  0  0  0  0
  183.1280  178.2400  141.4570 C   0  0  0  0  0  2  0  0  0  0  0  0
  182.7640  176.4040  139.9940 O   0  0  0  0  0  0  0  0  0  0  0  0
  182.4020  177.5600  140.3380 C   0  0  0  0  0  0  0  0  0  0  0  0
  180.3740  179.9620  137.6580 C   0  0  1  0  0  3  0  0  0  0  0  0
  181.0410  177.7810  138.3560 O   0  0  0  0  0  0  0  0  0  0  0  0
  180.4890  179.5750  141.3150 O   0  0  0  0  0  0  0  0  0  0  0  0
  180.7010  181.0950  136.7090 C   0  0  0  0  0  1  0  0  0  0  0  0
  181.3810  178.8210  137.4750 C   0  0  0  0  0  2  0  0  0  0  0  0
  180.7090  179.4090  140.0850 C   0  0  0  0  0  0  0  0  0  0  0  0
  181.3670  178.2280  139.6000 N   0  0  0  0  0  0  0  0  0  0  0  0
  180.3590  180.4850  139.1020 C   0  0  0  0  0  2  0  0  0  0  0  0
  1  9  2  0  0  0  0
  1  6  1  0  0  0  0
  2  3  1  6  0  0  0
  2 13  1  0  0  0  0
  2  5  1  0  0  0  0
  4  7  1  0  0  0  0
  5 14  2  0  0  0  0
  5 16  1  0  0  0  0
  7  3  1  0  0  0  0
  8 21  1  0  0  0  0
  8 12  1  0  0  0  0
 10 18  1  0  0  0  0
 11  4  2  0  0  0  0
 12 16  1  0  0  0  0
 13 18  1  6  0  0  0
 13  8  1  0  0  0  0
 14  1  1  0  0  0  0
 15 20  2  0  0  0  0
 15  4  1  0  0  0  0
 16 17  2  0  0  0  0
 17  6  1  0  0  0  0
 19 10  1  0  0  0  0
 19  3  2  0  0  0  0
 20 19  1  0  0  0  0
 22 23  2  0  0  0  0
 23 21  1  0  0  0  0
 24 27  1  6  0  0  0
 24 31  1  0  0  0  0
 25 30  1  0  0  0  0
 28 24  1  0  0  0  0
 28 25  1  0  0  0  0
 29 26  2  0  0  0  0
 30 29  1  0  0  0  0
 30 23  1  0  0  0  0
 31 29  1  0  0  0  0
M  END
>  <MODEL>
7

>  <REMARK>
 VINA RESULT:      -6.1      2.723      7.298
  Name = 
  2 active torsions:
  status: ('A' for Active; 'I' for Inactive)
    1  A    between atoms: C_5  and  C_16
    2  A    between atoms: N_10  and  C_16
                            x       y       z     vdW  Elec       q    Type
                         _______ _______ _______ _____ _____    ______ ____

>  <TORSDO>
F 2

$$$$
=
 OpenBabel11122411003D

 31 35  0  0  1  0  0  0  0  0999 V2000
  191.3740  177.4620  140.5960 C   0  0  0  0  0  0  0  0  0  0  0  0
  188.8660  177.7980  137.7290 C   0  0  2  0  0  3  0  0  0  0  0  0
  188.6840  176.4200  137.1050 C   0  0  0  0  0  0  0  0  0  0  0  0
  189.3880  174.0140  136.7980 C   0  0  0  0  0  0  0  0  0  0  0  0
  189.4660  177.7270  139.1080 C   0  0  0  0  0  0  0  0  0  0  0  0
  190.4880  177.2320  141.7870 C   0  0  0  0  0  2  0  0  0  0  0  0
  189.7590  175.3720  137.3150 C   0  0  0  0  0  2  0  0  0  0  0  0
  186.6450  178.0290  138.7960 N   0  0  0  0  0  0  0  0  0  0  0  0
  192.6230  177.4730  140.7380 O   0  0  0  0  0  0  0  0  0  0  0  0
  186.7380  177.2100  135.9580 O   0  0  0  0  0  0  0  0  0  0  0  0
  190.0880  173.0150  137.1090 O   0  0  0  0  0  0  0  0  0  0  0  0
  187.1870  178.3390  140.1230 C   0  0  0  0  0  2  0  0  0  0  0  0
  187.5450  178.5980  137.7730 C   0  0  2  0  0  3  0  0  0  0  0  0
  190.7870  177.5930  139.2560 C   0  0  0  0  0  3  0  0  0  0  0  0
  188.2500  173.8470  135.8900 C   0  0  0  0  0  3  0  0  0  0  0  0
  188.5820  177.8220  140.2940 C   0  0  0  0  0  0  0  0  0  0  0  0
  189.0690  177.6630  141.5290 C   0  0  0  0  0  3  0  0  0  0  0  0
  186.9340  178.5590  136.3700 C   0  0  0  0  0  2  0  0  0  0  0  0
  187.6590  176.1980  136.2500 C   0  0  0  0  0  0  0  0  0  0  0  0
  187.4500  174.8770  135.6280 C   0  0  0  0  0  3  0  0  0  0  0  0
  185.3460  178.6950  138.7400 C   0  0  0  0  0  2  0  0  0  0  0  0
  184.1850  176.9420  137.6360 O   0  0  0  0  0  0  0  0  0  0  0  0
  184.2560  177.6730  138.6590 C   0  0  0  0  0  0  0  0  0  0  0  0
  180.8940  178.3000  140.9760 C   0  0  1  0  0  3  0  0  0  0  0  0
  182.0640  176.9660  139.3810 O   0  0  0  0  0  0  0  0  0  0  0  0
  184.5280  178.2030  141.5430 O   0  0  0  0  0  0  0  0  0  0  0  0
  179.8330  179.3680  141.1330 C   0  0  0  0  0  1  0  0  0  0  0  0
  181.0860  177.9690  139.4920 C   0  0  0  0  0  2  0  0  0  0  0  0
  183.4020  178.1500  140.9800 C   0  0  0  0  0  0  0  0  0  0  0  0
  183.2480  177.5690  139.6760 N   0  0  0  0  0  0  0  0  0  0  0  0
  182.2020  178.7700  141.6310 C   0  0  0  0  0  2  0  0  0  0  0  0
  1  9  2  0  0  0  0
  1  6  1  0  0  0  0
  2  3  1  1  0  0  0
  2 13  1  0  0  0  0
  2  5  1  0  0  0  0
  3  7  1  0  0  0  0
  4 11  2  0  0  0  0
  4  7  1  0  0  0  0
  5 14  2  0  0  0  0
  5 16  1  0  0  0  0
  8 12  1  0  0  0  0
 10 19  1  0  0  0  0
 10 18  1  0  0  0  0
 12 16  1  0  0  0  0
 13 18  1  6  0  0  0
 13  8  1  0  0  0  0
 14  1  1  0  0  0  0
 15  4  1  0  0  0  0
 16 17  2  0  0  0  0
 17  6  1  0  0  0  0
 19  3  2  0  0  0  0
 20 15  2  0  0  0  0
 20 19  1  0  0  0  0
 21  8  1  0  0  0  0
 22 23  2  0  0  0  0
 23 21  1  0  0  0  0
 23 30  1  0  0  0  0
 24 27  1  6  0  0  0
 24 31  1  0  0  0  0
 25 28  1  0  0  0  0
 25 30  1  0  0  0  0
 28 24  1  0  0  0  0
 29 26  2  0  0  0  0
 29 31  1  0  0  0  0
 30 29  1  0  0  0  0
M  END
>  <MODEL>
8

>  <REMARK>
 VINA RESULT:      -6.0      2.365      6.575
  Name = 
  2 active torsions:
  status: ('A' for Active; 'I' for Inactive)
    1  A    between atoms: C_5  and  C_16
    2  A    between atoms: N_10  and  C_16
                            x       y       z     vdW  Elec       q    Type
                         _______ _______ _______ _____ _____    ______ ____

>  <TORSDO>
F 2

$$$$
=
 OpenBabel11122411003D

 31 35  0  0  1  0  0  0  0  0999 V2000
  190.1820  175.8750  142.8750 C   0  0  0  0  0  0  0  0  0  0  0  0
  186.7180  177.0270  144.0140 C   0  0  2  0  0  3  0  0  0  0  0  0
  186.8770  177.7140  145.3660 C   0  0  0  0  0  0  0  0  0  0  0  0
  188.2290  178.2750  147.4240 C   0  0  0  0  0  0  0  0  0  0  0  0
  188.0220  176.9260  143.2680 C   0  0  0  0  0  0  0  0  0  0  0  0
  190.6570  177.0270  142.0380 C   0  0  0  0  0  2  0  0  0  0  0  0
  188.1050  177.4150  146.2010 C   0  0  0  0  0  2  0  0  0  0  0  0
  186.1790  179.0130  142.6390 N   0  0  0  0  0  0  0  0  0  0  0  0
  190.9280  174.8780  143.0500 O   0  0  0  0  0  0  0  0  0  0  0  0
  184.6710  178.6180  145.1500 O   0  0  0  0  0  0  0  0  0  0  0  0
  189.3080  178.2860  148.0720 O   0  0  0  0  0  0  0  0  0  0  0  0
  187.2270  178.7520  141.6470 C   0  0  0  0  0  2  0  0  0  0  0  0
  185.6590  177.7200  143.1280 C   0  0  2  0  0  3  0  0  0  0  0  0
  188.8820  175.9450  143.5560 C   0  0  0  0  0  3  0  0  0  0  0  0
  187.0880  179.0610  147.9000 C   0  0  0  0  0  3  0  0  0  0  0  0
  188.3320  177.9100  142.2050 C   0  0  0  0  0  0  0  0  0  0  0  0
  189.5210  177.9090  141.5930 C   0  0  0  0  0  3  0  0  0  0  0  0
  184.3880  177.8800  143.9660 C   0  0  0  0  0  2  0  0  0  0  0  0
  185.8580  178.4490  145.8710 C   0  0  0  0  0  0  0  0  0  0  0  0
  185.9760  179.1300  147.1730 C   0  0  0  0  0  3  0  0  0  0  0  0
  185.1290  179.7290  141.9190 C   0  0  0  0  0  2  0  0  0  0  0  0
  185.9190  178.8010  139.8790 O   0  0  0  0  0  0  0  0  0  0  0  0
  184.9150  179.0980  140.5780 C   0  0  0  0  0  0  0  0  0  0  0  0
  181.2540  179.7080  138.7640 C   0  0  1  0  0  3  0  0  0  0  0  0
  183.4380  178.7520  138.7000 O   0  0  0  0  0  0  0  0  0  0  0  0
  182.4260  178.5300  142.0470 O   0  0  0  0  0  0  0  0  0  0  0  0
  180.4200  180.8850  138.3050 C   0  0  0  0  0  1  0  0  0  0  0  0
  182.6960  179.8650  138.2720 C   0  0  0  0  0  2  0  0  0  0  0  0
  182.4150  178.9520  140.8590 C   0  0  0  0  0  0  0  0  0  0  0  0
  183.5960  178.9060  140.0440 N   0  0  0  0  0  0  0  0  0  0  0  0
  181.1810  179.5890  140.2940 C   0  0  0  0  0  2  0  0  0  0  0  0
  1  9  2  0  0  0  0
  1 14  1  0  0  0  0
  2  5  1  6  0  0  0
  2  3  1  0  0  0  0
  3 19  2  0  0  0  0
  3  7  1  0  0  0  0
  4 15  1  0  0  0  0
  4 11  2  0  0  0  0
  5 14  2  0  0  0  0
  6  1  1  0  0  0  0
  7  4  1  0  0  0  0
  8 13  1  0  0  0  0
 10 19  1  0  0  0  0
 12 16  1  0  0  0  0
 12  8  1  0  0  0  0
 13 18  1  1  0  0  0
 13  2  1  0  0  0  0
 16  5  1  0  0  0  0
 17  6  1  0  0  0  0
 17 16  2  0  0  0  0
 18 10  1  0  0  0  0
 19 20  1  0  0  0  0
 20 15  2  0  0  0  0
 21  8  1  0  0  0  0
 22 23  2  0  0  0  0
 23 21  1  0  0  0  0
 24 27  1  1  0  0  0
 24 31  1  0  0  0  0
 25 30  1  0  0  0  0
 28 25  1  0  0  0  0
 28 24  1  0  0  0  0
 29 26  2  0  0  0  0
 30 23  1  0  0  0  0
 30 29  1  0  0  0  0
 31 29  1  0  0  0  0
M  END
>  <MODEL>
9

>  <REMARK>
 VINA RESULT:      -6.0      4.362      7.842
  Name = 
  2 active torsions:
  status: ('A' for Active; 'I' for Inactive)
    1  A    between atoms: C_5  and  C_16
    2  A    between atoms: N_10  and  C_16
                            x       y       z     vdW  Elec       q    Type
                         _______ _______ _______ _____ _____    ______ ____

>  <TORSDO>
F 2

$$$$
