=
 OpenBabel11122411333D

 37 44  0  0  1  0  0  0  0  0999 V2000
  189.3070  176.6330  142.6320 C   0  0  0  0  0  2  0  0  0  0  0  0
  188.4580  177.7310  147.2520 C   0  0  0  0  0  0  0  0  0  0  0  0
  185.4330  178.4530  144.3980 C   0  0  0  0  0  0  0  0  0  0  0  0
  190.6450  176.6580  142.0420 N   0  0  0  0  0  0  0  0  0  0  0  0
  186.2680  178.6810  140.6460 C   0  0  0  0  0  2  0  0  0  0  0  0
  186.0640  178.4560  146.7590 C   0  0  0  0  0  0  0  0  0  0  0  0
  186.1310  178.3530  143.1920 C   0  0  0  0  0  0  0  0  0  0  0  0
  189.5560  176.7980  139.8170 C   0  0  1  0  0  3  0  0  0  0  0  0
  186.3990  178.3820  145.4330 C   0  0  0  0  0  0  0  0  0  0  0  0
  185.5040  178.4170  141.8740 N   0  0  0  0  0  0  0  0  0  0  0  0
  184.7470  178.6260  147.0790 N   0  0  0  0  0  2  0  0  0  0  0  0
  190.8540  176.8990  140.6150 C   0  0  0  0  0  2  0  0  0  0  0  0
  187.6350  178.2090  144.9180 C   0  0  0  0  0  0  0  0  0  0  0  0
  188.2700  176.2240  147.2990 C   0  0  0  0  0  1  0  0  0  0  0  0
  182.9890  178.6000  143.7130 C   0  0  0  0  0  2  0  0  0  0  0  0
  183.7700  178.6940  146.1130 C   0  0  0  0  0  3  0  0  0  0  0  0
  188.8440  178.1520  145.8060 C   0  0  0  0  0  2  0  0  0  0  0  0
  188.7130  178.0740  139.8700 C   0  0  1  0  0  3  0  0  0  0  0  0
  187.4450  177.7580  140.6270 C   0  0  1  0  0  3  0  0  0  0  0  0
  184.0850  178.6200  144.7350 C   0  0  0  0  0  0  0  0  0  0  0  0
  187.5200  178.1980  143.5290 C   0  0  0  0  0  0  0  0  0  0  0  0
  187.1690  178.4260  147.7820 C   0  0  0  0  0  2  0  0  0  0  0  0
  184.0450  178.2270  141.7960 C   0  0  1  0  0  3  0  0  0  0  0  0
  189.6060  178.0880  148.1720 C   0  0  0  0  0  1  0  0  0  0  0  0
  188.4750  178.6660  141.2600 C   0  0  1  0  0  3  0  0  0  0  0  0
  189.8550  176.5030  138.4870 O   0  0  0  0  0  1  0  0  0  0  0  0
  188.7260  178.0440  142.6270 C   0  0  2  0  0  3  0  0  0  0  0  0
  183.3910  179.2250  142.5280 O   0  0  0  0  0  0  0  0  0  0  0  0
  191.7000  176.4150  144.1550 N   0  0  0  0  0  2  0  0  0  0  0  0
  191.8040  176.5770  142.8760 C   0  0  0  0  0  3  0  0  0  0  0  0
  183.2370  179.3190  139.6920 C   0  0  0  0  0  3  0  0  0  0  0  0
  183.5050  178.1410  140.3970 C   0  0  0  0  0  0  0  0  0  0  0  0
  183.2270  176.9000  139.8040 C   0  0  0  0  0  3  0  0  0  0  0  0
  182.3570  175.2930  137.7750 Cl  0  0  0  0  0  0  0  0  0  0  0  0
  182.4400  178.0240  137.8080 C   0  0  0  0  0  3  0  0  0  0  0  0
  182.6990  176.8430  138.5110 C   0  0  0  0  0  0  0  0  0  0  0  0
  182.7090  179.2610  138.3990 C   0  0  0  0  0  3  0  0  0  0  0  0
  2 14  1  0  0  0  0
  2 22  1  0  0  0  0
  2 24  1  0  0  0  0
  3 20  1  0  0  0  0
  3  9  1  0  0  0  0
  4  1  1  0  0  0  0
  4 30  1  0  0  0  0
  5 10  1  0  0  0  0
  6 11  1  0  0  0  0
  6 22  1  0  0  0  0
  7 21  1  0  0  0  0
  7  3  2  0  0  0  0
  8 26  1  6  0  0  0
  8 18  1  0  0  0  0
  8 12  1  0  0  0  0
  9  6  2  0  0  0  0
 10  7  1  0  0  0  0
 12  4  1  0  0  0  0
 13  9  1  0  0  0  0
 13 17  1  0  0  0  0
 15 20  1  0  0  0  0
 16 11  1  0  0  0  0
 17  2  1  0  0  0  0
 18 19  1  0  0  0  0
 18 25  1  0  0  0  0
 19  5  1  0  0  0  0
 19 25  1  0  0  0  0
 20 16  2  0  0  0  0
 21 13  2  0  0  0  0
 23 10  1  0  0  0  0
 23 28  1  0  0  0  0
 25 27  1  0  0  0  0
 27  1  1  0  0  0  0
 27 21  1  0  0  0  0
 28 15  1  0  0  0  0
 30 29  2  0  0  0  0
 31 32  1  0  0  0  0
 32 23  1  0  0  0  0
 33 32  2  0  0  0  0
 34 36  1  0  0  0  0
 35 37  1  0  0  0  0
 35 36  2  0  0  0  0
 36 33  1  0  0  0  0
 37 31  2  0  0  0  0
M  END
>  <MODEL>
1

>  <REMARK>
 VINA RESULT:     -10.9      0.000      0.000
  Name = 
  1 active torsions:
  status: ('A' for Active; 'I' for Inactive)
    1  A    between atoms: C_23  and  C_30
                            x       y       z     vdW  Elec       q    Type
                         _______ _______ _______ _____ _____    ______ ____

>  <TORSDO>
F 1

$$$$
=
 OpenBabel11122411333D

 37 44  0  0  1  0  0  0  0  0999 V2000
  184.3250  177.7700  140.6770 C   0  0  0  0  0  2  0  0  0  0  0  0
  187.0180  177.5950  136.6780 C   0  0  0  0  0  0  0  0  0  0  0  0
  188.9430  177.5320  140.4350 C   0  0  0  0  0  0  0  0  0  0  0  0
  183.0240  178.4350  140.7290 N   0  0  0  0  0  0  0  0  0  0  0  0
  187.1250  178.7380  143.6070 C   0  0  0  0  0  2  0  0  0  0  0  0
  189.1820  177.3700  138.0080 C   0  0  0  0  0  0  0  0  0  0  0  0
  187.9220  177.9370  141.2990 C   0  0  1  0  0  3  0  0  0  0  0  0
  183.2750  178.5160  143.1970 C   0  0  1  0  0  3  0  0  0  0  0  0
  188.4390  177.6740  139.1180 C   0  0  0  0  0  0  0  0  0  0  0  0
  188.0480  177.9750  142.7540 N   0  0  1  0  0  0  0  0  0  0  0  0
  190.4640  176.9360  138.1950 N   0  0  0  0  0  0  0  0  0  0  0  0
  182.4910  178.9880  141.9740 C   0  0  0  0  0  2  0  0  0  0  0  0
  187.1600  178.1070  139.1420 C   0  0  0  0  0  0  0  0  0  0  0  0
  186.5290  176.1570  136.7310 C   0  0  0  0  0  1  0  0  0  0  0  0
  190.8320  176.8020  141.9710 C   0  0  0  0  0  2  0  0  0  0  0  0
  190.9990  176.7750  139.4520 C   0  0  0  0  0  3  0  0  0  0  0  0
  186.4100  178.3850  137.8720 C   0  0  0  0  0  2  0  0  0  0  0  0
  184.5580  179.3130  143.4370 C   0  0  1  0  0  3  0  0  0  0  0  0
  185.7280  178.3850  143.2080 C   0  0  1  0  0  3  0  0  0  0  0  0
  190.2550  177.0800  140.6170 C   0  0  0  0  0  0  0  0  0  0  0  0
  186.8000  178.2960  140.4750 C   0  0  0  0  0  0  0  0  0  0  0  0
  188.5750  177.6070  136.6490 C   0  0  0  0  0  2  0  0  0  0  0  0
  189.1610  177.2310  143.3690 C   0  0  1  0  0  3  0  0  0  0  0  0
  186.5130  178.2140  135.3930 C   0  0  0  0  0  1  0  0  0  0  0  0
  185.4690  179.5030  142.2230 C   0  0  1  0  0  3  0  0  0  0  0  0
  182.4630  178.6070  144.3270 O   0  0  0  0  0  1  0  0  0  0  0  0
  185.4290  178.8040  140.8710 C   0  0  2  0  0  3  0  0  0  0  0  0
  190.3850  177.7350  142.9130 O   0  0  0  0  0  0  0  0  0  0  0  0
  182.7190  178.2670  138.3810 N   0  0  0  0  0  2  0  0  0  0  0  0
  182.2880  178.6800  139.5280 C   0  0  0  0  0  3  0  0  0  0  0  0
  187.9000  177.3640  145.5290 C   0  0  0  0  0  3  0  0  0  0  0  0
  189.1210  177.1850  144.8700 C   0  0  0  0  0  0  0  0  0  0  0  0
  190.2930  177.0080  145.6190 C   0  0  0  0  0  3  0  0  0  0  0  0
  191.7030  176.7720  147.9460 Cl  0  0  0  0  0  0  0  0  0  0  0  0
  189.0140  177.1670  147.6690 C   0  0  0  0  0  3  0  0  0  0  0  0
  190.2380  176.9960  147.0160 C   0  0  0  0  0  0  0  0  0  0  0  0
  187.8450  177.3520  146.9250 C   0  0  0  0  0  3  0  0  0  0  0  0
  1  4  1  0  0  0  0
  1 27  1  0  0  0  0
  2 14  1  0  0  0  0
  2 17  1  0  0  0  0
  3 20  1  0  0  0  0
  4 12  1  0  0  0  0
  6 11  2  0  0  0  0
  6  9  1  0  0  0  0
  7  3  1  6  0  0  0
  7 10  1  0  0  0  0
  8 18  1  0  0  0  0
  8 26  1  1  0  0  0
  9 13  1  0  0  0  0
  9  3  2  0  0  0  0
 10 23  1  0  0  0  0
 10  5  1  6  0  0  0
 11 16  1  0  0  0  0
 12  8  1  0  0  0  0
 13 21  2  0  0  0  0
 15 28  1  0  0  0  0
 16 20  2  0  0  0  0
 17 13  1  0  0  0  0
 19 18  1  0  0  0  0
 19  5  1  0  0  0  0
 20 15  1  0  0  0  0
 21 27  1  0  0  0  0
 21  7  1  0  0  0  0
 22  2  1  0  0  0  0
 22  6  1  0  0  0  0
 23 32  1  0  0  0  0
 24  2  1  0  0  0  0
 25 19  1  0  0  0  0
 25 18  1  0  0  0  0
 27 25  1  0  0  0  0
 28 23  1  0  0  0  0
 29 30  2  0  0  0  0
 30  4  1  0  0  0  0
 31 37  1  0  0  0  0
 32 31  2  0  0  0  0
 32 33  1  0  0  0  0
 33 36  2  0  0  0  0
 36 35  1  0  0  0  0
 36 34  1  0  0  0  0
 37 35  2  0  0  0  0
M  END
>  <MODEL>
2

>  <REMARK>
 VINA RESULT:      -9.7      3.194      8.406
  Name = 
  1 active torsions:
  status: ('A' for Active; 'I' for Inactive)
    1  A    between atoms: C_23  and  C_30
                            x       y       z     vdW  Elec       q    Type
                         _______ _______ _______ _____ _____    ______ ____

>  <TORSDO>
F 1

$$$$
=
 OpenBabel11122411333D

 37 44  0  0  1  0  0  0  0  0999 V2000
  184.1590  177.4750  139.2100 C   0  0  0  0  0  2  0  0  0  0  0  0
  187.7660  177.3120  136.0100 C   0  0  0  0  0  0  0  0  0  0  0  0
  188.6970  177.6630  140.1130 C   0  0  0  0  0  0  0  0  0  0  0  0
  182.8390  178.0160  138.8900 N   0  0  0  0  0  0  0  0  0  0  0  0
  186.0610  178.8830  142.6400 C   0  0  0  0  0  2  0  0  0  0  0  0
  189.5430  177.3760  137.8380 C   0  0  0  0  0  0  0  0  0  0  0  0
  187.4660  178.0210  140.6670 C   0  0  1  0  0  3  0  0  0  0  0  0
  182.4620  178.2720  141.3310 C   0  0  1  0  0  3  0  0  0  0  0  0
  188.5260  177.6750  138.7060 C   0  0  0  0  0  0  0  0  0  0  0  0
  187.2230  178.1610  142.1010 N   0  0  1  0  0  0  0  0  0  0  0  0
  190.7680  177.0780  138.3640 N   0  0  0  0  0  0  0  0  0  0  0  0
  181.9720  178.5910  139.9190 C   0  0  0  0  0  2  0  0  0  0  0  0
  187.2520  177.9860  138.3840 C   0  0  0  0  0  0  0  0  0  0  0  0
  187.3920  175.8400  136.0620 C   0  0  0  0  0  1  0  0  0  0  0  0
  190.1960  177.2120  142.1150 C   0  0  0  0  0  2  0  0  0  0  0  0
  190.9840  177.0460  139.7220 C   0  0  0  0  0  3  0  0  0  0  0  0
  186.8220  178.1120  136.9510 C   0  0  0  0  0  2  0  0  0  0  0  0
  183.5810  179.2010  141.8060 C   0  0  1  0  0  3  0  0  0  0  0  0
  184.8390  178.3760  141.9450 C   0  0  1  0  0  3  0  0  0  0  0  0
  189.9530  177.3500  140.6430 C   0  0  0  0  0  0  0  0  0  0  0  0
  186.5590  178.2210  139.5700 C   0  0  0  0  0  0  0  0  0  0  0  0
  189.2760  177.4700  136.3580 C   0  0  0  0  0  2  0  0  0  0  0  0
  188.2030  177.5650  143.0270 C   0  0  1  0  0  3  0  0  0  0  0  0
  187.5500  177.8000  134.5940 C   0  0  0  0  0  1  0  0  0  0  0  0
  184.7470  179.4020  140.8370 C   0  0  1  0  0  3  0  0  0  0  0  0
  181.3910  178.3540  142.2190 O   0  0  0  0  0  1  0  0  0  0  0  0
  185.0980  178.6200  139.5790 C   0  0  2  0  0  3  0  0  0  0  0  0
  189.4590  178.1550  142.8400 O   0  0  0  0  0  0  0  0  0  0  0  0
  183.1400  177.6750  136.5610 N   0  0  0  0  0  2  0  0  0  0  0  0
  182.4070  178.1150  137.5310 C   0  0  0  0  0  3  0  0  0  0  0  0
  186.4370  177.5570  144.8030 C   0  0  0  0  0  3  0  0  0  0  0  0
  187.7950  177.6080  144.4720 C   0  0  0  0  0  0  0  0  0  0  0  0
  188.7520  177.7400  145.4890 C   0  0  0  0  0  3  0  0  0  0  0  0
  189.5460  177.9690  148.0920 Cl  0  0  0  0  0  0  0  0  0  0  0  0
  186.9910  177.7470  147.1520 C   0  0  0  0  0  3  0  0  0  0  0  0
  188.3490  177.8060  146.8260 C   0  0  0  0  0  0  0  0  0  0  0  0
  186.0350  177.6230  146.1400 C   0  0  0  0  0  3  0  0  0  0  0  0
  1 27  1  0  0  0  0
  2 14  1  0  0  0  0
  2 22  1  0  0  0  0
  2 17  1  0  0  0  0
  3 20  1  0  0  0  0
  3  7  1  0  0  0  0
  4  1  1  0  0  0  0
  4 12  1  0  0  0  0
  6 11  2  0  0  0  0
  6  9  1  0  0  0  0
  7 21  1  6  0  0  0
  7 10  1  0  0  0  0
  8 18  1  0  0  0  0
  8 26  1  1  0  0  0
  9  3  2  0  0  0  0
 10  5  1  1  0  0  0
 10 23  1  0  0  0  0
 11 16  1  0  0  0  0
 12  8  1  0  0  0  0
 13  9  1  0  0  0  0
 13 21  2  0  0  0  0
 15 28  1  0  0  0  0
 16 20  2  0  0  0  0
 17 13  1  0  0  0  0
 18 19  1  0  0  0  0
 19  5  1  0  0  0  0
 20 15  1  0  0  0  0
 21 27  1  0  0  0  0
 22  6  1  0  0  0  0
 23 32  1  0  0  0  0
 24  2  1  0  0  0  0
 25 18  1  0  0  0  0
 25 19  1  0  0  0  0
 27 25  1  0  0  0  0
 28 23  1  0  0  0  0
 29 30  2  0  0  0  0
 30  4  1  0  0  0  0
 31 37  1  0  0  0  0
 32 31  2  0  0  0  0
 32 33  1  0  0  0  0
 33 36  2  0  0  0  0
 36 35  1  0  0  0  0
 36 34  1  0  0  0  0
 37 35  2  0  0  0  0
M  END
>  <MODEL>
3

>  <REMARK>
 VINA RESULT:      -9.5      3.216      8.285
  Name = 
  1 active torsions:
  status: ('A' for Active; 'I' for Inactive)
    1  A    between atoms: C_23  and  C_30
                            x       y       z     vdW  Elec       q    Type
                         _______ _______ _______ _____ _____    ______ ____

>  <TORSDO>
F 1

$$$$
=
 OpenBabel11122411333D

 37 44  0  0  1  0  0  0  0  0999 V2000
  189.1790  176.6850  138.6020 C   0  0  0  0  0  2  0  0  0  0  0  0
  190.2480  177.1130  143.2860 C   0  0  0  0  0  0  0  0  0  0  0  0
  186.4060  178.2520  141.9620 C   0  0  0  0  0  0  0  0  0  0  0  0
  190.1850  176.7870  137.5450 N   0  0  0  0  0  0  0  0  0  0  0  0
  185.7400  179.0110  138.2470 C   0  0  0  0  0  2  0  0  0  0  0  0
  187.8980  177.9130  143.8670 C   0  0  0  0  0  0  0  0  0  0  0  0
  186.5770  178.3220  140.5770 C   0  0  0  0  0  0  0  0  0  0  0  0
  188.3310  177.2500  135.9610 C   0  0  1  0  0  3  0  0  0  0  0  0
  187.6900  178.0290  142.5180 C   0  0  0  0  0  0  0  0  0  0  0  0
  185.4950  178.5780  139.6300 N   0  0  0  0  0  0  0  0  0  0  0  0
  186.8200  178.0420  144.6950 N   0  0  0  0  0  2  0  0  0  0  0  0
  189.8410  177.2280  136.1940 C   0  0  0  0  0  2  0  0  0  0  0  0
  188.6190  177.9250  141.5440 C   0  0  0  0  0  0  0  0  0  0  0  0
  190.0020  175.6150  143.2070 C   0  0  0  0  0  1  0  0  0  0  0  0
  183.9010  178.5090  142.3120 C   0  0  0  0  0  2  0  0  0  0  0  0
  185.5510  178.2530  144.2060 C   0  0  0  0  0  3  0  0  0  0  0  0
  190.0710  177.7350  141.8720 C   0  0  0  0  0  2  0  0  0  0  0  0
  187.6540  178.5090  136.5040 C   0  0  1  0  0  3  0  0  0  0  0  0
  186.7590  178.0950  137.6490 C   0  0  1  0  0  3  0  0  0  0  0  0
  185.3050  178.3760  142.8180 C   0  0  0  0  0  0  0  0  0  0  0  0
  187.9760  178.1130  140.3210 C   0  0  0  0  0  0  0  0  0  0  0  0
  189.3090  177.7310  144.3640 C   0  0  0  0  0  2  0  0  0  0  0  0
  184.1100  178.4080  140.1040 C   0  0  1  0  0  3  0  0  0  0  0  0
  191.6820  177.3280  143.7230 C   0  0  0  0  0  1  0  0  0  0  0  0
  188.0070  178.8970  137.9410 C   0  0  1  0  0  3  0  0  0  0  0  0
  188.0750  177.1470  134.5940 O   0  0  0  0  0  1  0  0  0  0  0  0
  188.7290  178.0850  139.0080 C   0  0  2  0  0  3  0  0  0  0  0  0
  183.8510  179.2950  141.1560 O   0  0  0  0  0  0  0  0  0  0  0  0
  191.9570  176.2380  139.0260 N   0  0  0  0  0  2  0  0  0  0  0  0
  191.5680  176.5800  137.8410 C   0  0  0  0  0  3  0  0  0  0  0  0
  182.7060  177.3910  138.2960 C   0  0  0  0  0  3  0  0  0  0  0  0
  183.0670  178.5270  139.0290 C   0  0  0  0  0  0  0  0  0  0  0  0
  182.4840  179.7650  138.7210 C   0  0  0  0  0  3  0  0  0  0  0  0
  180.8100  181.4040  137.3190 Cl  0  0  0  0  0  0  0  0  0  0  0  0
  181.1740  178.7190  136.9730 C   0  0  0  0  0  3  0  0  0  0  0  0
  181.5370  179.8580  137.6970 C   0  0  0  0  0  0  0  0  0  0  0  0
  181.7590  177.4850  137.2730 C   0  0  0  0  0  3  0  0  0  0  0  0
  1 27  1  0  0  0  0
  2 24  1  0  0  0  0
  2 22  1  0  0  0  0
  3  9  1  0  0  0  0
  3 20  1  0  0  0  0
  4 30  1  0  0  0  0
  4  1  1  0  0  0  0
  5 10  1  0  0  0  0
  6 22  1  0  0  0  0
  6 11  1  0  0  0  0
  7  3  2  0  0  0  0
  8 26  1  6  0  0  0
  8 12  1  0  0  0  0
  8 18  1  0  0  0  0
  9  6  2  0  0  0  0
 10 23  1  0  0  0  0
 10  7  1  0  0  0  0
 12  4  1  0  0  0  0
 13 17  1  0  0  0  0
 13  9  1  0  0  0  0
 14  2  1  0  0  0  0
 15 20  1  0  0  0  0
 16 11  1  0  0  0  0
 17  2  1  0  0  0  0
 18 19  1  0  0  0  0
 18 25  1  0  0  0  0
 19 25  1  0  0  0  0
 19  5  1  0  0  0  0
 20 16  2  0  0  0  0
 21  7  1  0  0  0  0
 21 13  2  0  0  0  0
 23 28  1  0  0  0  0
 25 27  1  0  0  0  0
 27 21  1  0  0  0  0
 28 15  1  0  0  0  0
 30 29  2  0  0  0  0
 31 32  1  0  0  0  0
 32 23  1  0  0  0  0
 33 32  2  0  0  0  0
 34 36  1  0  0  0  0
 35 37  1  0  0  0  0
 35 36  2  0  0  0  0
 36 33  1  0  0  0  0
 37 31  2  0  0  0  0
M  END
>  <MODEL>
4

>  <REMARK>
 VINA RESULT:      -9.4      2.371      3.553
  Name = 
  1 active torsions:
  status: ('A' for Active; 'I' for Inactive)
    1  A    between atoms: C_23  and  C_30
                            x       y       z     vdW  Elec       q    Type
                         _______ _______ _______ _____ _____    ______ ____

>  <TORSDO>
F 1

$$$$
=
 OpenBabel11122411333D

 37 44  0  0  1  0  0  0  0  0999 V2000
  188.9900  176.7230  142.0000 C   0  0  0  0  0  2  0  0  0  0  0  0
  187.7320  177.9140  146.5020 C   0  0  0  0  0  0  0  0  0  0  0  0
  184.9490  178.5100  143.3850 C   0  0  0  0  0  0  0  0  0  0  0  0
  190.3730  176.7590  141.5260 N   0  0  0  0  0  0  0  0  0  0  0  0
  186.0970  178.6640  139.7130 C   0  0  0  0  0  2  0  0  0  0  0  0
  185.3760  178.5810  145.7900 C   0  0  0  0  0  0  0  0  0  0  0  0
  185.7490  178.3940  142.2460 C   0  0  0  0  0  0  0  0  0  0  0  0
  189.4740  176.8250  139.2130 C   0  0  1  0  0  3  0  0  0  0  0  0
  185.8240  178.4830  144.4990 C   0  0  0  0  0  0  0  0  0  0  0  0
  185.2350  178.4140  140.8780 N   0  0  0  0  0  0  0  0  0  0  0  0
  184.0340  178.7330  145.9930 N   0  0  0  0  0  2  0  0  0  0  0  0
  190.6980  176.9690  140.1150 C   0  0  0  0  0  2  0  0  0  0  0  0
  187.1020  178.3210  144.0960 C   0  0  0  0  0  0  0  0  0  0  0  0
  187.5660  176.4050  146.5710 C   0  0  0  0  0  1  0  0  0  0  0  0
  182.5700  178.5940  142.4920 C   0  0  0  0  0  2  0  0  0  0  0  0
  183.1420  178.7600  144.9460 C   0  0  0  0  0  3  0  0  0  0  0  0
  188.2330  178.3080  145.0840 C   0  0  0  0  0  2  0  0  0  0  0  0
  188.6090  178.0850  139.1620 C   0  0  1  0  0  3  0  0  0  0  0  0
  187.2860  177.7630  139.8160 C   0  0  1  0  0  3  0  0  0  0  0  0
  183.5750  178.6590  143.6020 C   0  0  0  0  0  0  0  0  0  0  0  0
  187.1070  178.2740  142.7030 C   0  0  0  0  0  0  0  0  0  0  0  0
  186.3910  178.5970  146.9040 C   0  0  0  0  0  2  0  0  0  0  0  0
  183.7910  178.1950  140.6820 C   0  0  1  0  0  3  0  0  0  0  0  0
  188.7910  178.3150  147.5070 C   0  0  0  0  0  1  0  0  0  0  0  0
  188.2430  178.7060  140.5110 C   0  0  1  0  0  3  0  0  0  0  0  0
  189.8900  176.5040  137.9220 O   0  0  0  0  0  1  0  0  0  0  0  0
  188.3880  178.1220  141.9100 C   0  0  2  0  0  3  0  0  0  0  0  0
  183.0600  179.1980  141.3300 O   0  0  0  0  0  0  0  0  0  0  0  0
  191.2480  176.5870  143.7250 N   0  0  0  0  0  2  0  0  0  0  0  0
  191.4570  176.7200  142.4560 C   0  0  0  0  0  3  0  0  0  0  0  0
  183.8940  177.0210  138.4710 C   0  0  0  0  0  3  0  0  0  0  0  0
  183.3740  178.0650  139.2440 C   0  0  0  0  0  0  0  0  0  0  0  0
  182.5070  178.9970  138.6570 C   0  0  0  0  0  3  0  0  0  0  0  0
  181.0690  180.0390  136.5810 Cl  0  0  0  0  0  0  0  0  0  0  0  0
  182.6700  177.8250  136.5430 C   0  0  0  0  0  3  0  0  0  0  0  0
  182.1540  178.8750  137.3100 C   0  0  0  0  0  0  0  0  0  0  0  0
  183.5410  176.8990  137.1250 C   0  0  0  0  0  3  0  0  0  0  0  0
  2 14  1  0  0  0  0
  2 22  1  0  0  0  0
  2 24  1  0  0  0  0
  3 20  1  0  0  0  0
  3  9  1  0  0  0  0
  4  1  1  0  0  0  0
  4 30  1  0  0  0  0
  5 19  1  0  0  0  0
  5 10  1  0  0  0  0
  6 11  1  0  0  0  0
  6 22  1  0  0  0  0
  7 21  1  0  0  0  0
  7  3  2  0  0  0  0
  8 26  1  6  0  0  0
  8 12  1  0  0  0  0
  9  6  2  0  0  0  0
 10  7  1  0  0  0  0
 12  4  1  0  0  0  0
 13  9  1  0  0  0  0
 13 17  1  0  0  0  0
 15 20  1  0  0  0  0
 16 11  1  0  0  0  0
 17  2  1  0  0  0  0
 18  8  1  0  0  0  0
 18 19  1  0  0  0  0
 18 25  1  0  0  0  0
 19 25  1  0  0  0  0
 20 16  2  0  0  0  0
 21 13  2  0  0  0  0
 23 10  1  0  0  0  0
 23 28  1  0  0  0  0
 25 27  1  0  0  0  0
 27  1  1  0  0  0  0
 27 21  1  0  0  0  0
 28 15  1  0  0  0  0
 30 29  2  0  0  0  0
 31 32  1  0  0  0  0
 32 23  1  0  0  0  0
 33 32  2  0  0  0  0
 34 36  1  0  0  0  0
 35 37  1  0  0  0  0
 35 36  2  0  0  0  0
 36 33  1  0  0  0  0
 37 31  2  0  0  0  0
M  END
>  <MODEL>
5

>  <REMARK>
 VINA RESULT:      -9.3      1.226      1.514
  Name = 
  1 active torsions:
  status: ('A' for Active; 'I' for Inactive)
    1  A    between atoms: C_23  and  C_30
                            x       y       z     vdW  Elec       q    Type
                         _______ _______ _______ _____ _____    ______ ____

>  <TORSDO>
F 1

$$$$
=
 OpenBabel11122411333D

 37 44  0  0  1  0  0  0  0  0999 V2000
  188.2730  178.6880  140.2610 C   0  0  0  0  0  2  0  0  0  0  0  0
  183.5700  179.0250  139.2430 C   0  0  0  0  0  0  0  0  0  0  0  0
  184.7450  178.3420  143.2400 C   0  0  0  0  0  0  0  0  0  0  0  0
  189.2610  178.2000  139.3000 N   0  0  0  0  0  0  0  0  0  0  0  0
  188.2520  176.9840  144.0640 C   0  0  0  0  0  2  0  0  0  0  0  0
  182.9060  178.7860  141.6940 C   0  0  0  0  0  0  0  0  0  0  0  0
  186.0830  177.9670  143.0970 C   0  0  0  0  0  0  0  0  0  0  0  0
  190.7710  177.7640  141.2210 C   0  0  1  0  0  3  0  0  0  0  0  0
  184.2100  178.4410  141.9310 C   0  0  0  0  0  0  0  0  0  0  0  0
  186.9900  177.7220  144.2160 N   0  0  0  0  0  0  0  0  0  0  0  0
  182.0980  179.0190  142.7700 N   0  0  0  0  0  2  0  0  0  0  0  0
  190.5060  177.5640  139.7300 C   0  0  0  0  0  2  0  0  0  0  0  0
  185.1600  178.1820  141.0080 C   0  0  0  0  0  0  0  0  0  0  0  0
  183.9520  180.4960  139.2190 C   0  0  0  0  0  1  0  0  0  0  0  0
  184.4190  178.6080  145.7470 C   0  0  0  0  0  2  0  0  0  0  0  0
  182.5700  178.9420  144.0600 C   0  0  0  0  0  3  0  0  0  0  0  0
  184.8360  178.1740  139.5420 C   0  0  0  0  0  2  0  0  0  0  0  0
  190.0070  176.7800  142.1070 C   0  0  1  0  0  3  0  0  0  0  0  0
  188.9920  177.5670  142.9030 C   0  0  1  0  0  3  0  0  0  0  0  0
  183.9120  178.5890  144.3370 C   0  0  0  0  0  0  0  0  0  0  0  0
  186.3380  177.8690  141.6850 C   0  0  0  0  0  0  0  0  0  0  0  0
  182.4170  178.8120  140.2680 C   0  0  0  0  0  2  0  0  0  0  0  0
  186.5960  178.2260  145.5430 C   0  0  1  0  0  3  0  0  0  0  0  0
  183.0600  178.6520  137.8680 C   0  0  0  0  0  1  0  0  0  0  0  0
  188.5130  176.6310  141.8160 C   0  0  1  0  0  3  0  0  0  0  0  0
  192.1370  177.6350  141.4660 O   0  0  0  0  0  1  0  0  0  0  0  0
  187.6100  177.5000  140.9510 C   0  0  2  0  0  3  0  0  0  0  0  0
  185.3960  177.6280  145.9470 O   0  0  0  0  0  0  0  0  0  0  0  0
  187.8710  178.7120  137.4450 N   0  0  0  0  0  2  0  0  0  0  0  0
  188.9750  178.2130  137.8990 C   0  0  0  0  0  3  0  0  0  0  0  0
  187.3800  178.4970  147.9060 C   0  0  0  0  0  3  0  0  0  0  0  0
  187.6550  178.0810  146.6000 C   0  0  0  0  0  0  0  0  0  0  0  0
  188.9240  177.5740  146.2860 C   0  0  0  0  0  3  0  0  0  0  0  0
  191.4860  176.8380  146.8820 Cl  0  0  0  0  0  0  0  0  0  0  0  0
  189.6220  177.8840  148.5840 C   0  0  0  0  0  3  0  0  0  0  0  0
  189.9040  177.4740  147.2770 C   0  0  0  0  0  0  0  0  0  0  0  0
  188.3610  178.3970  148.8980 C   0  0  0  0  0  3  0  0  0  0  0  0
  1 27  1  0  0  0  0
  2 17  1  0  0  0  0
  2 22  1  0  0  0  0
  3 20  1  0  0  0  0
  4 12  1  0  0  0  0
  4  1  1  0  0  0  0
  5 10  1  0  0  0  0
  6  9  2  0  0  0  0
  6 11  1  0  0  0  0
  7  3  2  0  0  0  0
  7 10  1  0  0  0  0
  8 26  1  6  0  0  0
  8 18  1  0  0  0  0
  9  3  1  0  0  0  0
 10 23  1  0  0  0  0
 11 16  1  0  0  0  0
 12  8  1  0  0  0  0
 13 21  2  0  0  0  0
 13  9  1  0  0  0  0
 14  2  1  0  0  0  0
 15 28  1  0  0  0  0
 16 20  2  0  0  0  0
 17 13  1  0  0  0  0
 18 19  1  0  0  0  0
 19  5  1  0  0  0  0
 20 15  1  0  0  0  0
 21  7  1  0  0  0  0
 22  6  1  0  0  0  0
 23 28  1  0  0  0  0
 23 32  1  0  0  0  0
 24  2  1  0  0  0  0
 25 18  1  0  0  0  0
 25 19  1  0  0  0  0
 27 21  1  0  0  0  0
 27 25  1  0  0  0  0
 29 30  2  0  0  0  0
 30  4  1  0  0  0  0
 31 37  1  0  0  0  0
 32 31  2  0  0  0  0
 33 32  1  0  0  0  0
 33 36  2  0  0  0  0
 34 36  1  0  0  0  0
 35 37  2  0  0  0  0
 36 35  1  0  0  0  0
M  END
>  <MODEL>
6

>  <REMARK>
 VINA RESULT:      -8.9      2.835      6.685
  Name = 
  1 active torsions:
  status: ('A' for Active; 'I' for Inactive)
    1  A    between atoms: C_23  and  C_30
                            x       y       z     vdW  Elec       q    Type
                         _______ _______ _______ _____ _____    ______ ____

>  <TORSDO>
F 1

$$$$
=
 OpenBabel11122411333D

 37 44  0  0  1  0  0  0  0  0999 V2000
  183.6740  177.5220  140.4590 C   0  0  0  0  0  2  0  0  0  0  0  0
  184.4060  176.9550  135.7250 C   0  0  0  0  0  0  0  0  0  0  0  0
  187.7500  177.3630  138.2680 C   0  0  0  0  0  0  0  0  0  0  0  0
  182.4770  178.1590  141.0070 N   0  0  0  0  0  0  0  0  0  0  0  0
  187.3830  178.8800  141.7880 C   0  0  0  0  0  2  0  0  0  0  0  0
  186.9400  176.9320  136.0030 C   0  0  0  0  0  0  0  0  0  0  0  0
  187.1710  177.8400  139.4460 C   0  0  1  0  0  3  0  0  0  0  0  0
  183.7530  178.5260  143.1050 C   0  0  1  0  0  3  0  0  0  0  0  0
  186.7230  177.3430  137.2910 C   0  0  0  0  0  0  0  0  0  0  0  0
  187.9030  178.0460  140.6940 N   0  0  1  0  0  0  0  0  0  0  0  0
  188.2050  176.5500  135.6560 N   0  0  0  0  0  0  0  0  0  0  0  0
  182.4910  178.8380  142.3030 C   0  0  0  0  0  2  0  0  0  0  0  0
  185.5510  177.7470  137.8260 C   0  0  0  0  0  0  0  0  0  0  0  0
  184.0870  175.5220  136.1170 C   0  0  0  0  0  1  0  0  0  0  0  0
  190.1600  176.8550  138.8970 C   0  0  0  0  0  2  0  0  0  0  0  0
  189.2360  176.5460  136.5680 C   0  0  0  0  0  3  0  0  0  0  0  0
  184.3130  177.8620  136.9850 C   0  0  0  0  0  2  0  0  0  0  0  0
  184.9560  179.3740  142.6910 C   0  0  1  0  0  3  0  0  0  0  0  0
  185.9780  178.4530  142.0660 C   0  0  1  0  0  3  0  0  0  0  0  0
  189.0410  176.9640  137.9060 C   0  0  0  0  0  0  0  0  0  0  0  0
  185.7830  178.0780  139.1600 C   0  0  0  0  0  0  0  0  0  0  0  0
  185.7960  176.9990  135.0250 C   0  0  0  0  0  2  0  0  0  0  0  0
  189.2210  177.4020  140.8330 C   0  0  1  0  0  3  0  0  0  0  0  0
  183.3580  177.4130  134.7330 C   0  0  0  0  0  1  0  0  0  0  0  0
  185.2460  179.4460  141.1900 C   0  0  1  0  0  3  0  0  0  0  0  0
  183.4980  178.7260  144.4600 O   0  0  0  0  0  1  0  0  0  0  0  0
  184.6810  178.5960  140.0600 C   0  0  2  0  0  3  0  0  0  0  0  0
  190.0950  177.8790  139.8480 O   0  0  0  0  0  0  0  0  0  0  0  0
  181.2110  177.7190  139.0480 N   0  0  0  0  0  2  0  0  0  0  0  0
  181.2840  178.2500  140.2260 C   0  0  0  0  0  3  0  0  0  0  0  0
  191.1740  177.8930  142.3220 C   0  0  0  0  0  3  0  0  0  0  0  0
  189.8300  177.5260  142.2010 C   0  0  0  0  0  0  0  0  0  0  0  0
  189.0830  177.2380  143.3530 C   0  0  0  0  0  3  0  0  0  0  0  0
  188.7400  176.9750  146.0500 Cl  0  0  0  0  0  0  0  0  0  0  0  0
  191.0180  177.7070  144.7310 C   0  0  0  0  0  3  0  0  0  0  0  0
  189.6760  177.3320  144.6150 C   0  0  0  0  0  0  0  0  0  0  0  0
  191.7670  177.9860  143.5850 C   0  0  0  0  0  3  0  0  0  0  0  0
  1  4  1  0  0  0  0
  2 14  1  0  0  0  0
  2 17  1  0  0  0  0
  4 12  1  0  0  0  0
  5 19  1  0  0  0  0
  6  9  1  0  0  0  0
  7  3  1  6  0  0  0
  7 10  1  0  0  0  0
  8 26  1  1  0  0  0
  9 13  1  0  0  0  0
  9  3  2  0  0  0  0
 10 23  1  0  0  0  0
 10  5  1  6  0  0  0
 11  6  2  0  0  0  0
 11 16  1  0  0  0  0
 12  8  1  0  0  0  0
 13 21  2  0  0  0  0
 15 28  1  0  0  0  0
 16 20  2  0  0  0  0
 17 13  1  0  0  0  0
 18  8  1  0  0  0  0
 19 18  1  0  0  0  0
 20  3  1  0  0  0  0
 20 15  1  0  0  0  0
 21  7  1  0  0  0  0
 21 27  1  0  0  0  0
 22  2  1  0  0  0  0
 22  6  1  0  0  0  0
 23 32  1  0  0  0  0
 24  2  1  0  0  0  0
 25 19  1  0  0  0  0
 25 18  1  0  0  0  0
 27  1  1  0  0  0  0
 27 25  1  0  0  0  0
 28 23  1  0  0  0  0
 29 30  2  0  0  0  0
 30  4  1  0  0  0  0
 31 37  1  0  0  0  0
 32 31  2  0  0  0  0
 32 33  1  0  0  0  0
 33 36  2  0  0  0  0
 36 35  1  0  0  0  0
 36 34  1  0  0  0  0
 37 35  2  0  0  0  0
M  END
>  <MODEL>
7

>  <REMARK>
 VINA RESULT:      -8.8      3.132      8.766
  Name = 
  1 active torsions:
  status: ('A' for Active; 'I' for Inactive)
    1  A    between atoms: C_23  and  C_30
                            x       y       z     vdW  Elec       q    Type
                         _______ _______ _______ _____ _____    ______ ____

>  <TORSDO>
F 1

$$$$
=
 OpenBabel11122411333D

 37 44  0  0  1  0  0  0  0  0999 V2000
  188.5340  176.4410  138.4940 C   0  0  0  0  0  2  0  0  0  0  0  0
  190.2840  177.1580  142.9320 C   0  0  0  0  0  0  0  0  0  0  0  0
  186.2590  178.1580  142.1430 C   0  0  0  0  0  0  0  0  0  0  0  0
  189.3670  176.4970  137.2940 N   0  0  0  0  0  0  0  0  0  0  0  0
  185.0250  178.6880  138.5350 C   0  0  0  0  0  2  0  0  0  0  0  0
  188.0280  177.9540  143.8170 C   0  0  0  0  0  0  0  0  0  0  0  0
  186.2190  178.1500  140.7470 C   0  0  0  0  0  0  0  0  0  0  0  0
  187.2860  176.8380  135.9850 C   0  0  1  0  0  3  0  0  0  0  0  0
  187.6170  177.9880  142.5110 C   0  0  0  0  0  0  0  0  0  0  0  0
  185.0000  178.3320  139.9620 N   0  0  0  0  0  0  0  0  0  0  0  0
  187.0840  178.1140  144.7900 N   0  0  0  0  0  2  0  0  0  0  0  0
  188.8130  176.8540  135.9880 C   0  0  0  0  0  2  0  0  0  0  0  0
  188.3910  177.8420  141.4140 C   0  0  0  0  0  0  0  0  0  0  0  0
  190.0640  175.6550  142.9740 C   0  0  0  0  0  1  0  0  0  0  0  0
  183.8300  178.3950  142.8540 C   0  0  0  0  0  2  0  0  0  0  0  0
  185.7520  178.2760  144.4870 C   0  0  0  0  0  3  0  0  0  0  0  0
  189.8810  177.6940  141.5290 C   0  0  0  0  0  2  0  0  0  0  0  0
  186.6670  178.1150  136.5540 C   0  0  1  0  0  3  0  0  0  0  0  0
  185.9650  177.7550  137.8420 C   0  0  1  0  0  3  0  0  0  0  0  0
  185.2970  178.3140  143.1480 C   0  0  0  0  0  0  0  0  0  0  0  0
  187.5680  177.9480  140.2940 C   0  0  0  0  0  0  0  0  0  0  0  0
  189.5020  177.8230  144.1040 C   0  0  0  0  0  2  0  0  0  0  0  0
  183.7070  178.1690  140.6490 C   0  0  1  0  0  3  0  0  0  0  0  0
  191.7610  177.4210  143.1350 C   0  0  0  0  0  1  0  0  0  0  0  0
  187.2220  178.5930  137.8970 C   0  0  1  0  0  3  0  0  0  0  0  0
  186.8300  176.6510  134.6810 O   0  0  0  0  0  1  0  0  0  0  0  0
  188.1150  177.8550  138.8860 C   0  0  2  0  0  3  0  0  0  0  0  0
  183.5880  179.1110  141.6770 O   0  0  0  0  0  0  0  0  0  0  0  0
  191.3540  176.0640  138.5180 N   0  0  0  0  0  2  0  0  0  0  0  0
  190.7840  176.3300  137.3880 C   0  0  0  0  0  3  0  0  0  0  0  0
  181.6800  179.3320  139.7490 C   0  0  0  0  0  3  0  0  0  0  0  0
  182.5130  178.2080  139.7380 C   0  0  0  0  0  0  0  0  0  0  0  0
  182.1980  177.1190  138.9120 C   0  0  0  0  0  3  0  0  0  0  0  0
  180.6790  175.8050  137.0610 Cl  0  0  0  0  0  0  0  0  0  0  0  0
  180.2410  178.2930  138.1010 C   0  0  0  0  0  3  0  0  0  0  0  0
  181.0660  177.1650  138.0930 C   0  0  0  0  0  0  0  0  0  0  0  0
  180.5480  179.3760  138.9300 C   0  0  0  0  0  3  0  0  0  0  0  0
  1 27  1  0  0  0  0
  2 14  1  0  0  0  0
  2 24  1  0  0  0  0
  2 22  1  0  0  0  0
  3  9  1  0  0  0  0
  3 20  1  0  0  0  0
  4 30  1  0  0  0  0
  4  1  1  0  0  0  0
  5 10  1  0  0  0  0
  6 22  1  0  0  0  0
  6 11  1  0  0  0  0
  7  3  2  0  0  0  0
  8 26  1  6  0  0  0
  8 12  1  0  0  0  0
  8 18  1  0  0  0  0
  9  6  2  0  0  0  0
 10 23  1  0  0  0  0
 10  7  1  0  0  0  0
 12  4  1  0  0  0  0
 13 17  1  0  0  0  0
 13  9  1  0  0  0  0
 15 20  1  0  0  0  0
 16 11  1  0  0  0  0
 17  2  1  0  0  0  0
 18 19  1  0  0  0  0
 18 25  1  0  0  0  0
 19 25  1  0  0  0  0
 19  5  1  0  0  0  0
 20 16  2  0  0  0  0
 21  7  1  0  0  0  0
 21 13  2  0  0  0  0
 23 28  1  0  0  0  0
 25 27  1  0  0  0  0
 27 21  1  0  0  0  0
 28 15  1  0  0  0  0
 30 29  2  0  0  0  0
 32 31  1  0  0  0  0
 32 23  1  0  0  0  0
 33 32  2  0  0  0  0
 34 36  1  0  0  0  0
 35 37  1  0  0  0  0
 36 35  2  0  0  0  0
 36 33  1  0  0  0  0
 37 31  2  0  0  0  0
M  END
>  <MODEL>
8

>  <REMARK>
 VINA RESULT:      -8.6      2.287      3.513
  Name = 
  1 active torsions:
  status: ('A' for Active; 'I' for Inactive)
    1  A    between atoms: C_23  and  C_30
                            x       y       z     vdW  Elec       q    Type
                         _______ _______ _______ _____ _____    ______ ____

>  <TORSDO>
F 1

$$$$
=
 OpenBabel11122411333D

 37 44  0  0  1  0  0  0  0  0999 V2000
  183.2600  177.9380  141.5590 C   0  0  0  0  0  2  0  0  0  0  0  0
  183.3860  177.5040  136.7550 C   0  0  0  0  0  0  0  0  0  0  0  0
  187.0290  177.6660  138.8820 C   0  0  0  0  0  0  0  0  0  0  0  0
  182.1720  178.6110  142.2670 N   0  0  0  0  0  0  0  0  0  0  0  0
  187.1660  179.0740  142.4630 C   0  0  0  0  0  2  0  0  0  0  0  0
  185.9310  177.3530  136.7210 C   0  0  0  0  0  0  0  0  0  0  0  0
  186.6210  178.1280  140.1360 C   0  0  1  0  0  3  0  0  0  0  0  0
  183.7080  178.8440  144.2030 C   0  0  1  0  0  3  0  0  0  0  0  0
  185.8920  177.7280  138.0380 C   0  0  0  0  0  0  0  0  0  0  0  0
  187.5080  178.2560  141.2900 N   0  0  1  0  0  0  0  0  0  0  0  0
  187.1240  176.9250  136.2120 N   0  0  0  0  0  0  0  0  0  0  0  0
  182.3760  179.2420  143.5710 C   0  0  0  0  0  2  0  0  0  0  0  0
  184.8140  178.1670  138.7230 C   0  0  0  0  0  0  0  0  0  0  0  0
  183.0450  176.0750  137.1420 C   0  0  0  0  0  1  0  0  0  0  0  0
  189.4680  177.0250  139.1960 C   0  0  0  0  0  2  0  0  0  0  0  0
  188.2550  176.8410  136.9900 C   0  0  0  0  0  3  0  0  0  0  0  0
  183.4910  178.3690  138.0430 C   0  0  0  0  0  2  0  0  0  0  0  0
  184.8940  179.6490  143.6700 C   0  0  1  0  0  3  0  0  0  0  0  0
  185.7850  178.7030  142.8980 C   0  0  1  0  0  3  0  0  0  0  0  0
  188.2450  177.2200  138.3530 C   0  0  0  0  0  0  0  0  0  0  0  0
  185.2220  178.4410  140.0280 C   0  0  0  0  0  0  0  0  0  0  0  0
  184.6820  177.5070  135.8920 C   0  0  0  0  0  2  0  0  0  0  0  0
  188.7990  177.5460  141.2480 C   0  0  1  0  0  3  0  0  0  0  0  0
  182.2500  178.0450  135.9130 C   0  0  0  0  0  1  0  0  0  0  0  0
  185.0040  179.7590  142.1480 C   0  0  1  0  0  3  0  0  0  0  0  0
  183.6290  179.0080  145.5850 O   0  0  0  0  0  1  0  0  0  0  0  0
  184.2640  178.9780  141.0710 C   0  0  2  0  0  3  0  0  0  0  0  0
  189.5700  178.0160  140.1780 O   0  0  0  0  0  0  0  0  0  0  0  0
  180.6580  178.2990  140.4660 N   0  0  0  0  0  2  0  0  0  0  0  0
  180.8990  178.7840  141.6400 C   0  0  0  0  0  3  0  0  0  0  0  0
  190.9380  177.8970  142.5020 C   0  0  0  0  0  3  0  0  0  0  0  0
  189.5730  177.5930  142.5350 C   0  0  0  0  0  0  0  0  0  0  0  0
  188.9580  177.2960  143.7600 C   0  0  0  0  0  3  0  0  0  0  0  0
  188.9310  176.9490  146.4680 Cl  0  0  0  0  0  0  0  0  0  0  0  0
  191.0660  177.6300  144.9050 C   0  0  0  0  0  3  0  0  0  0  0  0
  189.7040  177.3180  144.9420 C   0  0  0  0  0  0  0  0  0  0  0  0
  191.6830  177.9190  143.6850 C   0  0  0  0  0  3  0  0  0  0  0  0
  1  4  1  0  0  0  0
  2 14  1  0  0  0  0
  2 17  1  0  0  0  0
  4 12  1  0  0  0  0
  5 19  1  0  0  0  0
  6  9  1  0  0  0  0
  7  3  1  6  0  0  0
  7 10  1  0  0  0  0
  8 26  1  1  0  0  0
  9 13  1  0  0  0  0
  9  3  2  0  0  0  0
 10  5  1  6  0  0  0
 11  6  2  0  0  0  0
 11 16  1  0  0  0  0
 12  8  1  0  0  0  0
 13 21  2  0  0  0  0
 15 28  1  0  0  0  0
 16 20  2  0  0  0  0
 17 13  1  0  0  0  0
 18  8  1  0  0  0  0
 19 18  1  0  0  0  0
 20  3  1  0  0  0  0
 20 15  1  0  0  0  0
 21  7  1  0  0  0  0
 21 27  1  0  0  0  0
 22  6  1  0  0  0  0
 22  2  1  0  0  0  0
 23 10  1  0  0  0  0
 23 32  1  0  0  0  0
 24  2  1  0  0  0  0
 25 19  1  0  0  0  0
 25 18  1  0  0  0  0
 27  1  1  0  0  0  0
 27 25  1  0  0  0  0
 28 23  1  0  0  0  0
 29 30  2  0  0  0  0
 30  4  1  0  0  0  0
 31 32  2  0  0  0  0
 31 37  1  0  0  0  0
 32 33  1  0  0  0  0
 33 36  2  0  0  0  0
 35 36  1  0  0  0  0
 36 34  1  0  0  0  0
 37 35  2  0  0  0  0
M  END
>  <MODEL>
9

>  <REMARK>
 VINA RESULT:      -8.4      2.935      8.560
  Name = 
  1 active torsions:
  status: ('A' for Active; 'I' for Inactive)
    1  A    between atoms: C_23  and  C_30
                            x       y       z     vdW  Elec       q    Type
                         _______ _______ _______ _____ _____    ______ ____

>  <TORSDO>
F 1

$$$$
