=
 OpenBabel11122410323D

 30 35  0  0  1  0  0  0  0  0999 V2000
  189.1910  176.6070  143.3030 C   0  0  0  0  0  0  0  0  0  0  0  0
  191.2530  176.1100  144.5260 C   0  0  0  0  0  0  0  0  0  0  0  0
  187.4140  178.1730  146.8000 N   0  0  0  0  0  0  0  0  0  0  0  0
  187.7360  177.0670  143.2150 C   0  0  0  0  0  0  0  0  0  0  0  0
  189.7740  176.2060  141.9890 C   0  0  0  0  0  2  0  0  0  0  0  0
  188.4070  179.0680  140.1910 O   0  0  0  0  0  0  0  0  0  0  0  0
  185.0010  177.9570  142.6330 C   0  0  1  0  0  3  0  0  0  0  0  0
  188.5260  178.1720  141.0710 C   0  0  0  0  0  0  0  0  0  0  0  0
  185.0220  178.4010  144.0130 N   0  0  0  0  0  0  0  0  0  0  0  0
  186.2590  178.5180  146.3170 C   0  0  2  0  0  3  0  0  0  0  0  0
  189.6950  177.3360  141.0750 N   0  0  0  0  0  0  0  0  0  0  0  0
  187.4990  177.9840  142.0760 N   0  0  0  0  0  0  0  0  0  0  0  0
  191.9650  176.1130  145.7270 C   0  0  0  0  0  3  0  0  0  0  0  0
  183.7650  178.9730  144.4450 C   0  0  0  0  0  2  0  0  0  0  0  0
  183.6590  178.4080  142.0760 C   0  0  0  0  0  2  0  0  0  0  0  0
  191.8860  175.6050  143.4380 F   0  0  0  0  0  0  0  0  0  0  0  0
  188.1180  177.6180  145.6920 C   0  0  0  0  0  0  0  0  0  0  0  0
  191.3920  176.6020  146.8960 C   0  0  0  0  0  3  0  0  0  0  0  0
  189.9180  176.6010  144.4730 C   0  0  0  0  0  0  0  0  0  0  0  0
  187.3070  177.6710  144.5150 C   0  0  0  0  0  0  0  0  0  0  0  0
  185.2020  179.1450  147.1560 C   0  0  0  0  0  1  0  0  0  0  0  0
  186.1510  178.2020  144.8800 C   0  0  0  0  0  0  0  0  0  0  0  0
  182.8100  178.7980  143.2770 C   0  0  0  0  0  2  0  0  0  0  0  0
  185.9950  179.5120  141.1050 O   0  0  0  0  0  0  0  0  0  0  0  0
  190.0930  177.0990  146.8750 C   0  0  0  0  0  3  0  0  0  0  0  0
  189.3520  177.1090  145.6870 C   0  0  0  0  0  0  0  0  0  0  0  0
  186.1710  178.5270  141.8740 C   0  0  0  0  0  0  0  0  0  0  0  0
  190.7680  177.5450  140.1120 C   0  0  0  0  0  2  0  0  0  0  0  0
  193.2280  177.2280  139.8210 C   0  0  0  0  0  1  0  0  0  0  0  0
  192.1200  177.5500  140.8080 C   0  0  0  0  0  2  0  0  0  0  0  0
  1 19  1  0  0  0  0
  2 13  1  0  0  0  0
  4  1  2  0  0  0  0
  4 20  1  0  0  0  0
  5  1  1  0  0  0  0
  6  8  2  0  0  0  0
  7 15  1  6  0  0  0
  7  9  1  0  0  0  0
  8 11  1  0  0  0  0
  8 12  1  0  0  0  0
  9 14  1  0  0  0  0
  9 22  1  0  0  0  0
 10  3  1  0  0  0  0
 10 21  1  1  0  0  0
 11  5  1  0  0  0  0
 12  4  1  0  0  0  0
 13 18  2  0  0  0  0
 15 23  1  0  0  0  0
 16  2  1  0  0  0  0
 17  3  2  0  0  0  0
 19  2  2  0  0  0  0
 19 26  1  0  0  0  0
 20 22  2  0  0  0  0
 20 17  1  0  0  0  0
 22 10  1  0  0  0  0
 23 14  1  0  0  0  0
 24 27  2  0  0  0  0
 25 18  1  0  0  0  0
 26 17  1  0  0  0  0
 26 25  2  0  0  0  0
 27 12  1  0  0  0  0
 27  7  1  0  0  0  0
 28 30  1  0  0  0  0
 28 11  1  0  0  0  0
 29 30  1  0  0  0  0
M  END
>  <MODEL>
1

>  <REMARK>
 VINA RESULT:     -11.2      0.000      0.000
  Name = 
  2 active torsions:
  status: ('A' for Active; 'I' for Inactive)
    1  A    between atoms: N_11  and  C_28
    2  A    between atoms: C_28  and  C_30
                            x       y       z     vdW  Elec       q    Type
                         _______ _______ _______ _____ _____    ______ ____

>  <TORSDO>
F 2

$$$$
=
 OpenBabel11122410323D

 30 35  0  0  1  0  0  0  0  0999 V2000
  187.6160  177.2420  143.9850 C   0  0  0  0  0  0  0  0  0  0  0  0
  188.7400  177.2990  146.1600 C   0  0  0  0  0  0  0  0  0  0  0  0
  184.1560  178.9990  145.6510 N   0  0  0  0  0  0  0  0  0  0  0  0
  186.4050  177.4280  143.0720 C   0  0  0  0  0  0  0  0  0  0  0  0
  188.8330  176.7500  143.2740 C   0  0  0  0  0  2  0  0  0  0  0  0
  188.4490  179.0260  140.4520 O   0  0  0  0  0  0  0  0  0  0  0  0
  184.3460  177.7370  141.0040 C   0  0  1  0  0  3  0  0  0  0  0  0
  188.1400  178.3090  141.4430 C   0  0  0  0  0  0  0  0  0  0  0  0
  183.6020  178.3850  142.0670 N   0  0  0  0  0  0  0  0  0  0  0  0
  183.4150  179.0620  144.5870 C   0  0  0  0  0  0  0  0  0  0  0  0
  189.1790  177.6960  142.2240 N   0  0  0  0  0  0  0  0  0  0  0  0
  186.7500  178.1050  141.8010 N   0  0  0  0  0  0  0  0  0  0  0  0
  188.7040  177.6080  147.5210 C   0  0  0  0  0  3  0  0  0  0  0  0
  182.2740  178.7920  141.6620 C   0  0  0  0  0  2  0  0  0  0  0  0
  183.4800  177.8610  139.7590 C   0  0  0  0  0  2  0  0  0  0  0  0
  189.8860  176.7480  145.6850 F   0  0  0  0  0  0  0  0  0  0  0  0
  185.3760  178.4090  145.2080 C   0  0  2  0  0  3  0  0  0  0  0  0
  187.5670  178.1650  148.0960 C   0  0  0  0  0  3  0  0  0  0  0  0
  187.6090  177.5390  145.3300 C   0  0  0  0  0  0  0  0  0  0  0  0
  185.3120  178.1410  143.8050 C   0  0  0  0  0  0  0  0  0  0  0  0
  182.0350  179.6210  144.6120 C   0  0  0  0  0  1  0  0  0  0  0  0
  184.1080  178.5160  143.4050 C   0  0  0  0  0  0  0  0  0  0  0  0
  182.0990  178.2800  140.2430 C   0  0  0  0  0  2  0  0  0  0  0  0
  185.8980  179.1860  139.8920 O   0  0  0  0  0  0  0  0  0  0  0  0
  186.4480  178.4220  147.3100 C   0  0  0  0  0  3  0  0  0  0  0  0
  186.4530  178.1230  145.9430 C   0  0  0  0  0  0  0  0  0  0  0  0
  185.7020  178.3750  140.8390 C   0  0  0  0  0  0  0  0  0  0  0  0
  190.5840  177.9350  141.9200 C   0  0  0  0  0  2  0  0  0  0  0  0
  191.1790  179.3020  143.9220 C   0  0  0  0  0  1  0  0  0  0  0  0
  191.4080  177.9890  143.1970 C   0  0  0  0  0  2  0  0  0  0  0  0
  1 19  1  0  0  0  0
  2 13  1  0  0  0  0
  4 20  1  0  0  0  0
  4  1  2  0  0  0  0
  5  1  1  0  0  0  0
  6  8  2  0  0  0  0
  7 15  1  6  0  0  0
  7  9  1  0  0  0  0
  8 12  1  0  0  0  0
  8 11  1  0  0  0  0
  9 22  1  0  0  0  0
 10 21  1  0  0  0  0
 10  3  2  0  0  0  0
 11  5  1  0  0  0  0
 12  4  1  0  0  0  0
 13 18  2  0  0  0  0
 14  9  1  0  0  0  0
 15 23  1  0  0  0  0
 16  2  1  0  0  0  0
 17 20  1  1  0  0  0
 17  3  1  0  0  0  0
 17 26  1  0  0  0  0
 19 26  1  0  0  0  0
 19  2  2  0  0  0  0
 22 20  2  0  0  0  0
 22 10  1  0  0  0  0
 23 14  1  0  0  0  0
 24 27  2  0  0  0  0
 25 18  1  0  0  0  0
 26 25  2  0  0  0  0
 27  7  1  0  0  0  0
 27 12  1  0  0  0  0
 28 11  1  0  0  0  0
 28 30  1  0  0  0  0
 30 29  1  0  0  0  0
M  END
>  <MODEL>
2

>  <REMARK>
 VINA RESULT:     -10.4      1.769      2.774
  Name = 
  2 active torsions:
  status: ('A' for Active; 'I' for Inactive)
    1  A    between atoms: N_11  and  C_28
    2  A    between atoms: C_28  and  C_30
                            x       y       z     vdW  Elec       q    Type
                         _______ _______ _______ _____ _____    ______ ____

>  <TORSDO>
F 2

$$$$
=
 OpenBabel11122410323D

 30 35  0  0  1  0  0  0  0  0999 V2000
  188.0020  177.2160  143.0730 C   0  0  0  0  0  0  0  0  0  0  0  0
  186.0380  177.9800  144.3200 C   0  0  0  0  0  0  0  0  0  0  0  0
  186.4060  178.7560  139.4800 N   0  0  0  0  0  0  0  0  0  0  0  0
  188.7920  176.9790  141.7870 C   0  0  0  0  0  0  0  0  0  0  0  0
  188.7140  176.7640  144.3060 C   0  0  0  0  0  2  0  0  0  0  0  0
  191.9200  178.1910  143.3180 O   0  0  0  0  0  0  0  0  0  0  0  0
  190.6330  176.4430  139.5650 C   0  0  1  0  0  3  0  0  0  0  0  0
  190.7630  177.6980  143.2140 C   0  0  0  0  0  0  0  0  0  0  0  0
  189.6700  177.2040  138.7940 N   0  0  0  0  0  0  0  0  0  0  0  0
  187.3670  178.4400  138.6660 C   0  0  0  0  0  0  0  0  0  0  0  0
  189.9840  177.4670  144.3990 N   0  0  0  0  0  0  0  0  0  0  0  0
  190.2160  177.3700  141.9130 N   0  0  0  0  0  0  0  0  0  0  0  0
  184.7890  178.6020  144.3250 C   0  0  0  0  0  3  0  0  0  0  0  0
  190.0060  177.2850  137.3880 C   0  0  0  0  0  2  0  0  0  0  0  0
  191.7680  176.1200  138.6050 C   0  0  0  0  0  2  0  0  0  0  0  0
  186.4990  177.5190  145.5100 F   0  0  0  0  0  0  0  0  0  0  0  0
  186.8360  178.2760  140.7520 C   0  0  1  0  0  3  0  0  0  0  0  0
  184.2330  179.0960  143.1490 C   0  0  0  0  0  3  0  0  0  0  0  0
  186.7700  177.8280  143.1080 C   0  0  0  0  0  0  0  0  0  0  0  0
  188.1250  177.6670  140.6380 C   0  0  0  0  0  0  0  0  0  0  0  0
  187.3160  178.7620  137.2130 C   0  0  0  0  0  1  0  0  0  0  0  0
  188.4630  177.7380  139.3610 C   0  0  0  0  0  0  0  0  0  0  0  0
  191.2410  176.4200  137.2090 C   0  0  0  0  0  2  0  0  0  0  0  0
  192.2130  177.8030  140.7470 O   0  0  0  0  0  0  0  0  0  0  0  0
  184.9260  178.9730  141.9500 C   0  0  0  0  0  3  0  0  0  0  0  0
  186.1810  178.3530  141.9120 C   0  0  0  0  0  0  0  0  0  0  0  0
  191.0890  177.2270  140.7680 C   0  0  0  0  0  0  0  0  0  0  0  0
  190.4900  177.8440  145.7140 C   0  0  0  0  0  2  0  0  0  0  0  0
  189.0960  177.9120  147.7830 C   0  0  0  0  0  1  0  0  0  0  0  0
  189.8260  177.0150  146.8020 C   0  0  0  0  0  2  0  0  0  0  0  0
  1 19  1  0  0  0  0
  1  5  1  0  0  0  0
  2 13  1  0  0  0  0
  2 16  1  0  0  0  0
  4 12  1  0  0  0  0
  4  1  2  0  0  0  0
  5 11  1  0  0  0  0
  7 15  1  6  0  0  0
  7 27  1  0  0  0  0
  8  6  2  0  0  0  0
  8 11  1  0  0  0  0
  9 22  1  0  0  0  0
  9  7  1  0  0  0  0
 10 22  1  0  0  0  0
 10  3  2  0  0  0  0
 11 28  1  0  0  0  0
 12  8  1  0  0  0  0
 14  9  1  0  0  0  0
 17  3  1  1  0  0  0
 17 26  1  0  0  0  0
 18 13  2  0  0  0  0
 19  2  2  0  0  0  0
 20 17  1  0  0  0  0
 20  4  1  0  0  0  0
 21 10  1  0  0  0  0
 22 20  2  0  0  0  0
 23 14  1  0  0  0  0
 23 15  1  0  0  0  0
 24 27  2  0  0  0  0
 25 18  1  0  0  0  0
 26 25  2  0  0  0  0
 26 19  1  0  0  0  0
 27 12  1  0  0  0  0
 28 30  1  0  0  0  0
 30 29  1  0  0  0  0
M  END
>  <MODEL>
3

>  <REMARK>
 VINA RESULT:     -10.1      2.514      6.473
  Name = 
  2 active torsions:
  status: ('A' for Active; 'I' for Inactive)
    1  A    between atoms: N_11  and  C_28
    2  A    between atoms: C_28  and  C_30
                            x       y       z     vdW  Elec       q    Type
                         _______ _______ _______ _____ _____    ______ ____

>  <TORSDO>
F 2

$$$$
=
 OpenBabel11122410323D

 30 35  0  0  1  0  0  0  0  0999 V2000
  187.7470  177.2580  143.9980 C   0  0  0  0  0  0  0  0  0  0  0  0
  186.4880  177.8030  146.0260 C   0  0  0  0  0  0  0  0  0  0  0  0
  184.8540  179.1870  141.6010 N   0  0  0  0  0  0  0  0  0  0  0  0
  187.9330  177.2060  142.4820 C   0  0  0  0  0  0  0  0  0  0  0  0
  188.8900  176.6760  144.7620 C   0  0  0  0  0  2  0  0  0  0  0  0
  191.4430  178.3080  142.7340 O   0  0  0  0  0  0  0  0  0  0  0  0
  188.6840  177.0050  139.6530 C   0  0  1  0  0  3  0  0  0  0  0  0
  190.3330  177.7990  143.0530 C   0  0  0  0  0  0  0  0  0  0  0  0
  187.5090  177.8290  139.4470 N   0  0  0  0  0  0  0  0  0  0  0  0
  185.3880  179.0020  140.4320 C   0  0  0  0  0  0  0  0  0  0  0  0
  190.1040  177.3990  144.4140 N   0  0  0  0  0  0  0  0  0  0  0  0
  189.2910  177.6200  142.0610 N   0  0  0  0  0  0  0  0  0  0  0  0
  185.3660  178.3830  146.6210 C   0  0  0  0  0  3  0  0  0  0  0  0
  187.2390  178.0930  138.0500 C   0  0  0  0  0  2  0  0  0  0  0  0
  189.3160  176.8380  138.2790 C   0  0  0  0  0  2  0  0  0  0  0  0
  187.3850  177.2100  146.8540 F   0  0  0  0  0  0  0  0  0  0  0  0
  185.7560  178.5650  142.5130 C   0  0  1  0  0  3  0  0  0  0  0  0
  184.3890  179.0030  145.8500 C   0  0  0  0  0  3  0  0  0  0  0  0
  186.6530  177.8250  144.6120 C   0  0  0  0  0  0  0  0  0  0  0  0
  186.8700  178.0130  141.8050 C   0  0  0  0  0  0  0  0  0  0  0  0
  184.7530  179.5010  139.1810 C   0  0  0  0  0  1  0  0  0  0  0  0
  186.6540  178.2520  140.5220 C   0  0  0  0  0  0  0  0  0  0  0  0
  188.2700  177.2940  137.2720 C   0  0  0  0  0  2  0  0  0  0  0  0
  190.6430  178.2530  140.2430 O   0  0  0  0  0  0  0  0  0  0  0  0
  184.5250  179.0510  144.4670 C   0  0  0  0  0  3  0  0  0  0  0  0
  185.6380  178.4780  143.8400 C   0  0  0  0  0  0  0  0  0  0  0  0
  189.6140  177.6470  140.6500 C   0  0  0  0  0  0  0  0  0  0  0  0
  191.1150  177.6240  145.4410 C   0  0  0  0  0  2  0  0  0  0  0  0
  192.0560  175.8970  146.9780 C   0  0  0  0  0  1  0  0  0  0  0  0
  190.8450  176.7530  146.6580 C   0  0  0  0  0  2  0  0  0  0  0  0
  1 19  1  0  0  0  0
  1  5  1  0  0  0  0
  2 13  1  0  0  0  0
  2 16  1  0  0  0  0
  4  1  2  0  0  0  0
  6  8  2  0  0  0  0
  7 15  1  6  0  0  0
  7 27  1  0  0  0  0
  8 11  1  0  0  0  0
  9  7  1  0  0  0  0
  9 22  1  0  0  0  0
 10 22  1  0  0  0  0
 10  3  2  0  0  0  0
 11  5  1  0  0  0  0
 11 28  1  0  0  0  0
 12  4  1  0  0  0  0
 12  8  1  0  0  0  0
 14  9  1  0  0  0  0
 17  3  1  1  0  0  0
 17 26  1  0  0  0  0
 18 13  2  0  0  0  0
 19  2  2  0  0  0  0
 20  4  1  0  0  0  0
 20 17  1  0  0  0  0
 21 10  1  0  0  0  0
 22 20  2  0  0  0  0
 23 14  1  0  0  0  0
 23 15  1  0  0  0  0
 24 27  2  0  0  0  0
 25 18  1  0  0  0  0
 26 25  2  0  0  0  0
 26 19  1  0  0  0  0
 27 12  1  0  0  0  0
 28 30  1  0  0  0  0
 30 29  1  0  0  0  0
M  END
>  <MODEL>
4

>  <REMARK>
 VINA RESULT:      -9.7      2.244      5.312
  Name = 
  2 active torsions:
  status: ('A' for Active; 'I' for Inactive)
    1  A    between atoms: N_11  and  C_28
    2  A    between atoms: C_28  and  C_30
                            x       y       z     vdW  Elec       q    Type
                         _______ _______ _______ _____ _____    ______ ____

>  <TORSDO>
F 2

$$$$
=
 OpenBabel11122410323D

 30 35  0  0  1  0  0  0  0  0999 V2000
  187.0530  177.4290  143.7910 C   0  0  0  0  0  0  0  0  0  0  0  0
  188.0510  177.5230  146.0250 C   0  0  0  0  0  0  0  0  0  0  0  0
  183.4810  179.1550  145.2400 N   0  0  0  0  0  0  0  0  0  0  0  0
  185.8930  177.5890  142.8090 C   0  0  0  0  0  0  0  0  0  0  0  0
  188.3140  176.9460  143.1550 C   0  0  0  0  0  2  0  0  0  0  0  0
  188.0610  179.1880  140.2910 O   0  0  0  0  0  0  0  0  0  0  0  0
  183.9510  177.8480  140.6250 C   0  0  1  0  0  3  0  0  0  0  0  0
  187.7050  178.4770  141.2710 C   0  0  0  0  0  0  0  0  0  0  0  0
  183.1390  178.4970  141.6370 N   0  0  0  0  0  0  0  0  0  0  0  0
  182.8010  179.1980  144.1350 C   0  0  0  0  0  0  0  0  0  0  0  0
  188.7060  177.8870  142.1160 N   0  0  0  0  0  0  0  0  0  0  0  0
  186.3010  178.2580  141.5520 N   0  0  0  0  0  0  0  0  0  0  0  0
  187.9340  177.8450  147.3780 C   0  0  0  0  0  3  0  0  0  0  0  0
  181.8300  178.8820  141.1530 C   0  0  0  0  0  2  0  0  0  0  0  0
  183.1550  177.9480  139.3320 C   0  0  0  0  0  2  0  0  0  0  0  0
  189.2290  176.9840  145.6220 F   0  0  0  0  0  0  0  0  0  0  0  0
  184.7320  178.5770  144.8730 C   0  0  1  0  0  3  0  0  0  0  0  0
  186.7590  178.3920  147.8820 C   0  0  0  0  0  3  0  0  0  0  0  0
  186.9660  177.7400  145.1290 C   0  0  0  0  0  0  0  0  0  0  0  0
  184.7510  178.2950  143.4710 C   0  0  0  0  0  0  0  0  0  0  0  0
  181.4150  179.7370  144.0760 C   0  0  0  0  0  1  0  0  0  0  0  0
  183.5670  178.6490  143.0000 C   0  0  0  0  0  0  0  0  0  0  0  0
  181.7430  178.3530  139.7320 C   0  0  0  0  0  2  0  0  0  0  0  0
  185.5440  179.3080  139.5870 O   0  0  0  0  0  0  0  0  0  0  0  0
  185.6830  178.6270  147.0320 C   0  0  0  0  0  3  0  0  0  0  0  0
  185.7690  178.3140  145.6700 C   0  0  0  0  0  0  0  0  0  0  0  0
  185.3050  178.5030  140.5300 C   0  0  0  0  0  0  0  0  0  0  0  0
  190.1240  178.1420  141.8890 C   0  0  0  0  0  2  0  0  0  0  0  0
  191.0880  177.1010  139.8350 C   0  0  0  0  0  1  0  0  0  0  0  0
  190.8050  176.9100  141.3130 C   0  0  0  0  0  2  0  0  0  0  0  0
  1 19  1  0  0  0  0
  2 13  1  0  0  0  0
  4 20  1  0  0  0  0
  4  1  2  0  0  0  0
  5  1  1  0  0  0  0
  6  8  2  0  0  0  0
  7 15  1  6  0  0  0
  7  9  1  0  0  0  0
  8 12  1  0  0  0  0
  8 11  1  0  0  0  0
  9 22  1  0  0  0  0
 10  3  2  0  0  0  0
 11  5  1  0  0  0  0
 12  4  1  0  0  0  0
 13 18  2  0  0  0  0
 14  9  1  0  0  0  0
 15 23  1  0  0  0  0
 16  2  1  0  0  0  0
 17 20  1  6  0  0  0
 17  3  1  0  0  0  0
 17 26  1  0  0  0  0
 19 26  1  0  0  0  0
 19  2  2  0  0  0  0
 21 10  1  0  0  0  0
 22 20  2  0  0  0  0
 22 10  1  0  0  0  0
 23 14  1  0  0  0  0
 24 27  2  0  0  0  0
 25 18  1  0  0  0  0
 26 25  2  0  0  0  0
 27  7  1  0  0  0  0
 27 12  1  0  0  0  0
 28 11  1  0  0  0  0
 29 30  1  0  0  0  0
 30 28  1  0  0  0  0
M  END
>  <MODEL>
5

>  <REMARK>
 VINA RESULT:      -9.4      1.963      3.159
  Name = 
  2 active torsions:
  status: ('A' for Active; 'I' for Inactive)
    1  A    between atoms: N_11  and  C_28
    2  A    between atoms: C_28  and  C_30
                            x       y       z     vdW  Elec       q    Type
                         _______ _______ _______ _____ _____    ______ ____

>  <TORSDO>
F 2

$$$$
=
 OpenBabel11122410323D

 30 35  0  0  1  0  0  0  0  0999 V2000
  184.8920  178.9690  142.4560 C   0  0  0  0  0  0  0  0  0  0  0  0
  184.6380  178.7520  144.8820 C   0  0  0  0  0  0  0  0  0  0  0  0
  188.7510  177.2620  142.6390 N   0  0  0  0  0  0  0  0  0  0  0  0
  185.6900  178.8800  141.1570 C   0  0  0  0  0  0  0  0  0  0  0  0
  183.4910  179.4500  142.2680 C   0  0  0  0  0  2  0  0  0  0  0  0
  182.8600  177.3450  139.3590 O   0  0  0  0  0  0  0  0  0  0  0  0
  186.8600  178.7630  138.4670 C   0  0  1  0  0  3  0  0  0  0  0  0
  183.4970  178.0190  140.2140 C   0  0  0  0  0  0  0  0  0  0  0  0
  187.9510  178.0890  139.1450 N   0  0  0  0  0  0  0  0  0  0  0  0
  189.0540  177.2850  141.3770 C   0  0  0  0  0  0  0  0  0  0  0  0
  182.8030  178.5480  141.3560 N   0  0  0  0  0  0  0  0  0  0  0  0
  184.9170  178.2580  140.0560 N   0  0  0  0  0  0  0  0  0  0  0  0
  185.1730  178.3720  146.1140 C   0  0  0  0  0  3  0  0  0  0  0  0
  189.0470  177.7560  138.2610 C   0  0  0  0  0  2  0  0  0  0  0  0
  187.2150  178.7400  136.9880 C   0  0  0  0  0  2  0  0  0  0  0  0
  183.3880  179.2810  144.8910 F   0  0  0  0  0  0  0  0  0  0  0  0
  187.4430  177.8270  142.7070 C   0  0  1  0  0  3  0  0  0  0  0  0
  186.4500  177.8300  146.2010 C   0  0  0  0  0  3  0  0  0  0  0  0
  185.3930  178.6000  143.6850 C   0  0  0  0  0  0  0  0  0  0  0  0
  186.9870  178.1710  141.3960 C   0  0  0  0  0  0  0  0  0  0  0  0
  190.3580  176.7800  140.8640 C   0  0  0  0  0  1  0  0  0  0  0  0
  187.9690  177.8660  140.5640 C   0  0  0  0  0  0  0  0  0  0  0  0
  188.6850  178.3500  136.9110 C   0  0  0  0  0  2  0  0  0  0  0  0
  185.0350  177.3150  137.9030 O   0  0  0  0  0  0  0  0  0  0  0  0
  187.2100  177.6590  145.0490 C   0  0  0  0  0  3  0  0  0  0  0  0
  186.7030  178.0300  143.7980 C   0  0  0  0  0  0  0  0  0  0  0  0
  185.5490  178.0820  138.7650 C   0  0  0  0  0  0  0  0  0  0  0  0
  181.3880  178.2710  141.5670 C   0  0  0  0  0  2  0  0  0  0  0  0
  180.2150  178.3130  143.7700 C   0  0  0  0  0  1  0  0  0  0  0  0
  180.8260  179.1570  142.6680 C   0  0  0  0  0  2  0  0  0  0  0  0
  1 19  1  0  0  0  0
  2 16  1  0  0  0  0
  2 13  1  0  0  0  0
  3 17  1  0  0  0  0
  4 20  1  0  0  0  0
  4  1  2  0  0  0  0
  5  1  1  0  0  0  0
  6  8  2  0  0  0  0
  7 15  1  6  0  0  0
  7 27  1  0  0  0  0
  7  9  1  0  0  0  0
  8 11  1  0  0  0  0
  9 22  1  0  0  0  0
 10  3  2  0  0  0  0
 11 28  1  0  0  0  0
 11  5  1  0  0  0  0
 12  8  1  0  0  0  0
 12  4  1  0  0  0  0
 13 18  2  0  0  0  0
 14  9  1  0  0  0  0
 17 20  1  6  0  0  0
 17 26  1  0  0  0  0
 19 26  1  0  0  0  0
 19  2  2  0  0  0  0
 21 10  1  0  0  0  0
 22 10  1  0  0  0  0
 22 20  2  0  0  0  0
 23 15  1  0  0  0  0
 23 14  1  0  0  0  0
 24 27  2  0  0  0  0
 25 18  1  0  0  0  0
 26 25  2  0  0  0  0
 27 12  1  0  0  0  0
 28 30  1  0  0  0  0
 30 29  1  0  0  0  0
M  END
>  <MODEL>
6

>  <REMARK>
 VINA RESULT:      -8.6      3.070      6.610
  Name = 
  2 active torsions:
  status: ('A' for Active; 'I' for Inactive)
    1  A    between atoms: N_11  and  C_28
    2  A    between atoms: C_28  and  C_30
                            x       y       z     vdW  Elec       q    Type
                         _______ _______ _______ _____ _____    ______ ____

>  <TORSDO>
F 2

$$$$
=
 OpenBabel11122410323D

 30 35  0  0  1  0  0  0  0  0999 V2000
  187.1870  178.5550  140.2090 C   0  0  0  0  0  0  0  0  0  0  0  0
  184.9250  178.7870  139.3030 C   0  0  0  0  0  0  0  0  0  0  0  0
  185.6440  177.9260  144.0890 N   0  0  0  0  0  0  0  0  0  0  0  0
  188.1870  178.4000  141.3540 C   0  0  2  0  0  3  0  0  0  0  0  0
  187.8250  178.6280  138.8610 C   0  0  0  0  0  2  0  0  0  0  0  0
  190.1350  175.8790  139.4960 O   0  0  0  0  0  0  0  0  0  0  0  0
  190.3900  178.0230  143.2560 C   0  0  1  0  0  3  0  0  0  0  0  0
  189.3630  176.8510  139.7230 C   0  0  0  0  0  0  0  0  0  0  0  0
  189.3180  177.7920  144.2060 N   0  0  0  0  0  0  0  0  0  0  0  0
  186.7560  177.7620  144.7380 C   0  0  0  0  0  0  0  0  0  0  0  0
  188.6020  177.4170  138.6440 N   0  0  0  0  0  0  0  0  0  0  0  0
  189.2360  177.3940  141.0610 N   0  0  0  0  0  0  0  0  0  0  0  0
  183.5450  178.8120  139.5160 C   0  0  0  0  0  3  0  0  0  0  0  0
  189.7940  177.5650  145.5540 C   0  0  0  0  0  2  0  0  0  0  0  0
  191.6810  177.7840  144.0250 C   0  0  0  0  0  2  0  0  0  0  0  0
  185.3540  178.9830  138.0310 F   0  0  0  0  0  0  0  0  0  0  0  0
  186.0420  178.1530  142.7390 C   0  0  0  0  0  0  0  0  0  0  0  0
  183.0150  178.6310  140.7880 C   0  0  0  0  0  3  0  0  0  0  0  0
  185.8230  178.5820  140.3890 C   0  0  0  0  0  0  0  0  0  0  0  0
  187.4670  178.0970  142.6300 C   0  0  0  0  0  0  0  0  0  0  0  0
  186.7900  177.4990  146.2030 C   0  0  0  0  0  1  0  0  0  0  0  0
  187.9290  177.8780  143.8500 C   0  0  0  0  0  0  0  0  0  0  0  0
  191.2990  177.7600  145.4990 C   0  0  0  0  0  2  0  0  0  0  0  0
  190.9680  176.0870  141.9680 O   0  0  0  0  0  0  0  0  0  0  0  0
  183.8650  178.4190  141.8690 C   0  0  0  0  0  3  0  0  0  0  0  0
  185.2530  178.3880  141.6890 C   0  0  0  0  0  0  0  0  0  0  0  0
  190.2440  177.1160  142.0610 C   0  0  0  0  0  0  0  0  0  0  0  0
  188.6690  176.8490  137.3020 C   0  0  0  0  0  2  0  0  0  0  0  0
  186.5130  175.5950  137.2180 C   0  0  0  0  0  1  0  0  0  0  0  0
  187.2840  176.7840  136.6780 C   0  0  0  0  0  2  0  0  0  0  0  0
  1 19  2  0  0  0  0
  2 13  2  0  0  0  0
  2 19  1  0  0  0  0
  3 10  2  0  0  0  0
  4  1  1  6  0  0  0
  4 20  1  0  0  0  0
  5  1  1  0  0  0  0
  6  8  2  0  0  0  0
  7 15  1  1  0  0  0
  7  9  1  0  0  0  0
  8 12  1  0  0  0  0
  9 14  1  0  0  0  0
 10 21  1  0  0  0  0
 11  5  1  0  0  0  0
 11  8  1  0  0  0  0
 12  4  1  0  0  0  0
 12 27  1  0  0  0  0
 13 18  1  0  0  0  0
 15 23  1  0  0  0  0
 16  2  1  0  0  0  0
 17  3  1  0  0  0  0
 18 25  2  0  0  0  0
 19 26  1  0  0  0  0
 20 17  1  0  0  0  0
 20 22  2  0  0  0  0
 22  9  1  0  0  0  0
 22 10  1  0  0  0  0
 23 14  1  0  0  0  0
 24 27  2  0  0  0  0
 26 25  1  0  0  0  0
 26 17  2  0  0  0  0
 27  7  1  0  0  0  0
 28 11  1  0  0  0  0
 30 29  1  0  0  0  0
 30 28  1  0  0  0  0
M  END
>  <MODEL>
7

>  <REMARK>
 VINA RESULT:      -8.5      2.830      5.875
  Name = 
  2 active torsions:
  status: ('A' for Active; 'I' for Inactive)
    1  A    between atoms: N_11  and  C_28
    2  A    between atoms: C_28  and  C_30
                            x       y       z     vdW  Elec       q    Type
                         _______ _______ _______ _____ _____    ______ ____

>  <TORSDO>
F 2

$$$$
=
 OpenBabel11122410323D

 30 35  0  0  1  0  0  0  0  0999 V2000
  187.4630  178.5360  141.4370 C   0  0  0  0  0  0  0  0  0  0  0  0
  185.2660  178.8980  140.4190 C   0  0  0  0  0  0  0  0  0  0  0  0
  185.6730  177.6980  145.1690 N   0  0  0  0  0  0  0  0  0  0  0  0
  188.3880  178.2730  142.6240 C   0  0  2  0  0  3  0  0  0  0  0  0
  188.1830  178.6780  140.1360 C   0  0  0  0  0  2  0  0  0  0  0  0
  190.3740  175.8220  140.7140 O   0  0  0  0  0  0  0  0  0  0  0  0
  190.4610  177.7000  144.6210 C   0  0  1  0  0  3  0  0  0  0  0  0
  189.6170  176.8000  140.9620 C   0  0  0  0  0  0  0  0  0  0  0  0
  189.3290  177.4410  145.4880 N   0  0  0  0  0  0  0  0  0  0  0  0
  186.7400  177.4560  145.8680 C   0  0  0  0  0  0  0  0  0  0  0  0
  188.9380  177.4600  139.8810 N   0  0  0  0  0  0  0  0  0  0  0  0
  189.4240  177.2570  142.3240 N   0  0  0  0  0  0  0  0  0  0  0  0
  183.8770  178.9540  140.5520 C   0  0  0  0  0  3  0  0  0  0  0  0
  189.7160  177.1090  146.8430 C   0  0  0  0  0  2  0  0  0  0  0  0
  191.6970  177.3700  145.4450 C   0  0  0  0  0  2  0  0  0  0  0  0
  185.7760  179.1660  139.1910 F   0  0  0  0  0  0  0  0  0  0  0  0
  186.1570  178.0020  143.8630 C   0  0  0  0  0  0  0  0  0  0  0  0
  183.2670  178.7050  141.7770 C   0  0  0  0  0  3  0  0  0  0  0  0
  186.0910  178.5940  141.5380 C   0  0  0  0  0  0  0  0  0  0  0  0
  187.5840  177.9080  143.8330 C   0  0  0  0  0  0  0  0  0  0  0  0
  186.6790  177.0950  147.3110 C   0  0  0  0  0  1  0  0  0  0  0  0
  187.9660  177.5940  145.0590 C   0  0  0  0  0  0  0  0  0  0  0  0
  191.2270  177.2600  146.8890 C   0  0  0  0  0  2  0  0  0  0  0  0
  191.0630  175.8370  143.2380 O   0  0  0  0  0  0  0  0  0  0  0  0
  184.0440  178.3940  142.8880 C   0  0  0  0  0  3  0  0  0  0  0  0
  185.4390  178.3310  142.7870 C   0  0  0  0  0  0  0  0  0  0  0  0
  190.3630  176.8810  143.3600 C   0  0  0  0  0  0  0  0  0  0  0  0
  189.0690  176.9820  138.5100 C   0  0  0  0  0  2  0  0  0  0  0  0
  188.2060  178.1810  136.4980 C   0  0  0  0  0  1  0  0  0  0  0  0
  189.2930  178.1440  137.5560 C   0  0  0  0  0  2  0  0  0  0  0  0
  1 19  2  0  0  0  0
  2 13  2  0  0  0  0
  2 19  1  0  0  0  0
  3 10  2  0  0  0  0
  4  1  1  6  0  0  0
  4 20  1  0  0  0  0
  5  1  1  0  0  0  0
  6  8  2  0  0  0  0
  7 15  1  1  0  0  0
  7  9  1  0  0  0  0
  8 12  1  0  0  0  0
  9 14  1  0  0  0  0
 10 21  1  0  0  0  0
 11  5  1  0  0  0  0
 11  8  1  0  0  0  0
 12  4  1  0  0  0  0
 12 27  1  0  0  0  0
 13 18  1  0  0  0  0
 14 23  1  0  0  0  0
 15 23  1  0  0  0  0
 16  2  1  0  0  0  0
 17  3  1  0  0  0  0
 18 25  2  0  0  0  0
 19 26  1  0  0  0  0
 20 17  1  0  0  0  0
 20 22  2  0  0  0  0
 22  9  1  0  0  0  0
 22 10  1  0  0  0  0
 24 27  2  0  0  0  0
 26 25  1  0  0  0  0
 26 17  2  0  0  0  0
 27  7  1  0  0  0  0
 28 11  1  0  0  0  0
 29 30  1  0  0  0  0
 30 28  1  0  0  0  0
M  END
>  <MODEL>
8

>  <REMARK>
 VINA RESULT:      -8.5      2.466      5.470
  Name = 
  2 active torsions:
  status: ('A' for Active; 'I' for Inactive)
    1  A    between atoms: N_11  and  C_28
    2  A    between atoms: C_28  and  C_30
                            x       y       z     vdW  Elec       q    Type
                         _______ _______ _______ _____ _____    ______ ____

>  <TORSDO>
F 2

$$$$
=
 OpenBabel11122410323D

 30 35  0  0  1  0  0  0  0  0999 V2000
  184.2780  178.8700  141.6000 C   0  0  0  0  0  0  0  0  0  0  0  0
  183.6290  178.8110  143.9590 C   0  0  0  0  0  0  0  0  0  0  0  0
  188.2550  177.8560  142.5980 N   0  0  0  0  0  0  0  0  0  0  0  0
  185.3010  178.8110  140.4660 C   0  0  0  0  0  0  0  0  0  0  0  0
  182.8780  179.0920  141.1320 C   0  0  0  0  0  2  0  0  0  0  0  0
  183.1060  176.6820  138.4060 O   0  0  0  0  0  0  0  0  0  0  0  0
  186.9390  178.6740  138.0340 C   0  0  1  0  0  3  0  0  0  0  0  0
  183.4690  177.5210  139.2760 C   0  0  0  0  0  0  0  0  0  0  0  0
  187.9790  178.2500  138.9510 N   0  0  0  0  0  0  0  0  0  0  0  0
  188.7730  177.8270  141.4080 C   0  0  0  0  0  0  0  0  0  0  0  0
  182.5100  178.0170  140.2240 N   0  0  0  0  0  0  0  0  0  0  0  0
  184.8420  177.9810  139.3280 N   0  0  0  0  0  0  0  0  0  0  0  0
  183.9850  178.6280  145.2970 C   0  0  0  0  0  3  0  0  0  0  0  0
  189.2550  178.0360  138.3010 C   0  0  0  0  0  2  0  0  0  0  0  0
  187.5530  178.5910  136.6450 C   0  0  0  0  0  2  0  0  0  0  0  0
  182.3330  179.1220  143.7060 F   0  0  0  0  0  0  0  0  0  0  0  0
  186.8860  178.1970  142.3890 C   0  0  1  0  0  3  0  0  0  0  0  0
  185.2930  178.3170  145.6510 C   0  0  0  0  0  3  0  0  0  0  0  0
  184.6010  178.6920  142.9260 C   0  0  0  0  0  0  0  0  0  0  0  0
  186.6260  178.3520  140.9910 C   0  0  0  0  0  0  0  0  0  0  0  0
  190.2090  177.5080  141.1740 C   0  0  0  0  0  1  0  0  0  0  0  0
  187.7760  178.1490  140.3700 C   0  0  0  0  0  0  0  0  0  0  0  0
  189.0550  178.4490  136.8530 C   0  0  0  0  0  2  0  0  0  0  0  0
  185.4850  176.9000  137.3400 O   0  0  0  0  0  0  0  0  0  0  0  0
  186.2650  178.1820  144.6650 C   0  0  0  0  0  3  0  0  0  0  0  0
  185.9400  178.3610  143.3150 C   0  0  0  0  0  0  0  0  0  0  0  0
  185.7140  177.8090  138.1850 C   0  0  0  0  0  0  0  0  0  0  0  0
  181.1380  177.5240  140.2290 C   0  0  0  0  0  2  0  0  0  0  0  0
  179.0910  178.8020  140.8680 C   0  0  0  0  0  1  0  0  0  0  0  0
  180.3530  178.1330  141.3800 C   0  0  0  0  0  2  0  0  0  0  0  0
  1 19  1  0  0  0  0
  2 13  1  0  0  0  0
  4 20  1  0  0  0  0
  4  1  2  0  0  0  0
  5  1  1  0  0  0  0
  6  8  2  0  0  0  0
  7 15  1  6  0  0  0
  7 27  1  0  0  0  0
  7  9  1  0  0  0  0
  8 12  1  0  0  0  0
  8 11  1  0  0  0  0
  9 22  1  0  0  0  0
 10  3  2  0  0  0  0
 11 28  1  0  0  0  0
 11  5  1  0  0  0  0
 12  4  1  0  0  0  0
 13 18  2  0  0  0  0
 14  9  1  0  0  0  0
 15 23  1  0  0  0  0
 16  2  1  0  0  0  0
 17 20  1  6  0  0  0
 17  3  1  0  0  0  0
 17 26  1  0  0  0  0
 19 26  1  0  0  0  0
 19  2  2  0  0  0  0
 21 10  1  0  0  0  0
 22 20  2  0  0  0  0
 22 10  1  0  0  0  0
 23 14  1  0  0  0  0
 24 27  2  0  0  0  0
 25 18  1  0  0  0  0
 26 25  2  0  0  0  0
 27 12  1  0  0  0  0
 28 30  1  0  0  0  0
 29 30  1  0  0  0  0
M  END
>  <MODEL>
9

>  <REMARK>
 VINA RESULT:      -8.3      3.380      7.027
  Name = 
  2 active torsions:
  status: ('A' for Active; 'I' for Inactive)
    1  A    between atoms: N_11  and  C_28
    2  A    between atoms: C_28  and  C_30
                            x       y       z     vdW  Elec       q    Type
                         _______ _______ _______ _____ _____    ______ ____

>  <TORSDO>
F 2

$$$$
