=
 OpenBabel11122412253D

 34 40  0  0  1  0  0  0  0  0999 V2000
  183.2390  178.8520  142.5250 C   0  0  0  0  0  0  0  0  0  0  0  0
  183.6810  178.8010  145.0630 C   0  0  0  0  0  2  0  0  0  0  0  0
  185.3510  177.1600  136.4330 C   0  0  0  0  0  0  0  0  0  0  0  0
  183.0010  178.4580  140.1190 C   0  0  0  0  0  0  0  0  0  0  0  0
  184.9950  178.3570  138.7230 C   0  0  0  0  0  0  0  0  0  0  0  0
  186.7830  178.8400  137.2700 O   0  0  0  0  0  0  0  0  0  0  0  0
  186.3160  176.5360  135.7680 C   0  0  0  0  0  2  0  0  0  0  0  0
  182.9260  176.8510  136.9450 C   0  0  0  0  0  2  0  0  0  0  0  0
  185.4350  178.4850  143.5290 C   0  0  1  0  0  3  0  0  0  0  0  0
  188.2110  177.3260  144.1950 C   0  0  0  0  0  2  0  0  0  0  0  0
  185.7520  178.5840  139.8320 N   0  0  0  0  0  0  0  0  0  0  0  0
  182.6960  178.1710  137.6440 C   0  0  0  0  0  2  0  0  0  0  0  0
  186.1390  178.9850  142.2650 C   0  0  2  0  0  3  0  0  0  0  0  0
  184.9800  178.7400  145.8650 C   0  0  0  0  0  2  0  0  0  0  0  0
  183.5860  178.2990  138.8450 C   0  0  0  0  0  0  0  0  0  0  0  0
  183.9720  177.0500  135.8710 C   0  0  0  0  0  2  0  0  0  0  0  0
  187.0100  177.4070  145.1400 C   0  0  2  0  0  3  0  0  0  0  0  0
  183.8220  178.6820  141.2450 C   0  0  0  0  0  0  0  0  0  0  0  0
  185.7210  178.1810  137.4420 C   0  0  0  0  0  0  0  0  0  0  0  0
  185.2260  178.7270  141.0760 C   0  0  0  0  0  0  0  0  0  0  0  0
  181.0360  178.5950  141.5530 C   0  0  0  0  0  3  0  0  0  0  0  0
  187.8030  177.0800  142.7480 C   0  0  0  0  0  2  0  0  0  0  0  0
  181.6080  178.4130  140.2910 C   0  0  0  0  0  3  0  0  0  0  0  0
  187.5510  178.4140  142.0560 C   0  0  0  0  0  2  0  0  0  0  0  0
  186.1390  178.6430  144.8590 C   0  0  1  0  0  3  0  0  0  0  0  0
  181.8460  178.8250  142.6650 C   0  0  0  0  0  3  0  0  0  0  0  0
  184.1310  179.2070  143.6830 C   0  0  1  0  0  3  0  0  0  0  0  0
  187.5270  177.4340  146.5720 C   0  0  0  0  0  2  0  0  0  0  0  0
  188.9850  177.8650  146.6010 C   0  0  0  0  0  2  0  0  0  0  0  0
  192.1050  176.8060  147.9680 O   0  0  0  0  0  0  0  0  0  0  0  0
  190.5730  175.9890  146.3650 C   0  0  0  0  0  2  0  0  0  0  0  0
  189.8230  176.8400  147.3440 C   0  0  1  0  0  3  0  0  0  0  0  0
  192.0250  176.2660  146.6770 C   0  0  0  0  0  2  0  0  0  0  0  0
  190.9120  177.5240  148.1400 C   0  0  0  0  0  2  0  0  0  0  0  0
  1 26  1  0  0  0  0
  1 27  1  0  0  0  0
  2 14  1  0  0  0  0
  3 19  1  0  0  0  0
  4 23  2  0  0  0  0
  4 18  1  0  0  0  0
  5 15  2  0  0  0  0
  5 11  1  0  0  0  0
  6 19  2  0  0  0  0
  7  3  2  0  0  0  0
  8 12  1  0  0  0  0
  9 27  1  0  0  0  0
  9 25  1  0  0  0  0
 10 17  1  0  0  0  0
 11 20  2  0  0  0  0
 12 15  1  0  0  0  0
 13  9  1  0  0  0  0
 15  4  1  0  0  0  0
 16  3  1  0  0  0  0
 16  8  1  0  0  0  0
 17 28  1  0  0  0  0
 18  1  2  0  0  0  0
 19  5  1  0  0  0  0
 20 18  1  0  0  0  0
 20 13  1  0  0  0  0
 21 26  2  0  0  0  0
 22 10  1  0  0  0  0
 23 21  1  0  0  0  0
 24 13  1  0  0  0  0
 24 22  1  0  0  0  0
 25 17  1  0  0  0  0
 25 14  1  0  0  0  0
 27  2  1  0  0  0  0
 28 29  1  0  0  0  0
 29 32  1  0  0  0  0
 30 34  1  0  0  0  0
 31 33  1  0  0  0  0
 31 32  1  0  0  0  0
 32 34  1  0  0  0  0
 33 30  1  0  0  0  0
M  END
>  <MODEL>
1

>  <REMARK>
 VINA RESULT:     -11.1      0.000      0.000
  Name = 
  3 active torsions:
  status: ('A' for Active; 'I' for Inactive)
    1  A    between atoms: C_17  and  C_28
    2  A    between atoms: C_28  and  C_29
    3  A    between atoms: C_29  and  C_32
                            x       y       z     vdW  Elec       q    Type
                         _______ _______ _______ _____ _____    ______ ____

>  <TORSDO>
F 3

$$$$
=
 OpenBabel11122412253D

 34 40  0  0  1  0  0  0  0  0999 V2000
  188.2690  177.8960  138.6240 C   0  0  0  0  0  0  0  0  0  0  0  0
  186.4980  178.4970  140.3960 C   0  0  0  0  0  2  0  0  0  0  0  0
  193.7120  174.3540  137.1140 C   0  0  0  0  0  0  0  0  0  0  0  0
  189.9170  176.8830  137.1200 C   0  0  0  0  0  0  0  0  0  0  0  0
  192.0690  176.1690  138.0130 C   0  0  0  0  0  0  0  0  0  0  0  0
  194.3240  176.0220  138.6690 O   0  0  0  0  0  0  0  0  0  0  0  0
  194.5750  173.4630  137.5860 C   0  0  0  0  0  2  0  0  0  0  0  0
  191.9010  174.4830  135.3990 C   0  0  0  0  0  2  0  0  0  0  0  0
  188.5650  177.5680  141.0260 C   0  0  1  0  0  3  0  0  0  0  0  0
  189.2080  176.3230  143.7700 C   0  0  0  0  0  2  0  0  0  0  0  0
  191.6740  176.6050  139.2420 N   0  0  0  0  0  0  0  0  0  0  0  0
  191.6140  175.9610  135.5170 C   0  0  0  0  0  2  0  0  0  0  0  0
  190.0880  177.6140  140.8840 C   0  0  2  0  0  3  0  0  0  0  0  0
  186.5560  178.5090  141.9230 C   0  0  0  0  0  2  0  0  0  0  0  0
  191.1910  176.3120  136.9120 C   0  0  0  0  0  0  0  0  0  0  0  0
  193.3730  174.2540  135.6630 C   0  0  0  0  0  2  0  0  0  0  0  0
  187.8360  176.8010  143.2880 C   0  0  2  0  0  3  0  0  0  0  0  0
  189.5440  177.3120  138.4120 C   0  0  0  0  0  0  0  0  0  0  0  0
  193.4190  175.5630  137.9200 C   0  0  0  0  0  0  0  0  0  0  0  0
  190.4520  177.1460  139.4830 C   0  0  0  0  0  0  0  0  0  0  0  0
  187.7620  177.6380  136.2700 C   0  0  0  0  0  3  0  0  0  0  0  0
  190.0520  175.7360  142.6460 C   0  0  0  0  0  2  0  0  0  0  0  0
  189.0120  177.0500  136.0590 C   0  0  0  0  0  3  0  0  0  0  0  0
  190.8520  176.8480  141.9760 C   0  0  0  0  0  2  0  0  0  0  0  0
  187.9470  178.0040  142.3370 C   0  0  1  0  0  3  0  0  0  0  0  0
  187.3950  178.0710  137.5450 C   0  0  0  0  0  3  0  0  0  0  0  0
  187.9480  178.4510  139.9840 C   0  0  1  0  0  3  0  0  0  0  0  0
  186.9990  177.1620  144.5080 C   0  0  0  0  0  2  0  0  0  0  0  0
  187.8020  178.0280  145.4650 C   0  0  0  0  0  2  0  0  0  0  0  0
  188.0200  178.2850  149.0170 O   0  0  0  0  0  0  0  0  0  0  0  0
  189.2910  177.2890  147.2910 C   0  0  0  0  0  2  0  0  0  0  0  0
  187.8660  177.3790  146.8360 C   0  0  1  0  0  3  0  0  0  0  0  0
  189.3300  178.1360  148.5410 C   0  0  0  0  0  2  0  0  0  0  0  0
  187.2090  178.2650  147.8720 C   0  0  0  0  0  2  0  0  0  0  0  0
  1 27  1  0  0  0  0
  2 14  1  0  0  0  0
  3  7  2  0  0  0  0
  3 19  1  0  0  0  0
  4 18  1  0  0  0  0
  5 11  2  0  0  0  0
  8 12  1  0  0  0  0
  8 16  1  0  0  0  0
  9 25  1  0  0  0  0
 11 20  1  0  0  0  0
 12 15  1  0  0  0  0
 13  9  1  0  0  0  0
 13 24  1  0  0  0  0
 14 25  1  0  0  0  0
 15  4  2  0  0  0  0
 15  5  1  0  0  0  0
 16  3  1  0  0  0  0
 17 10  1  0  0  0  0
 17 28  1  0  0  0  0
 18  1  1  0  0  0  0
 18 20  2  0  0  0  0
 19  5  1  0  0  0  0
 19  6  2  0  0  0  0
 20 13  1  0  0  0  0
 21 26  1  0  0  0  0
 22 10  1  0  0  0  0
 23 21  2  0  0  0  0
 23  4  1  0  0  0  0
 24 22  1  0  0  0  0
 25 17  1  0  0  0  0
 26  1  2  0  0  0  0
 27  2  1  0  0  0  0
 27  9  1  0  0  0  0
 28 29  1  0  0  0  0
 29 32  1  0  0  0  0
 31 33  1  0  0  0  0
 32 31  1  0  0  0  0
 32 34  1  0  0  0  0
 33 30  1  0  0  0  0
 34 30  1  0  0  0  0
M  END
>  <MODEL>
2

>  <REMARK>
 VINA RESULT:     -10.5      4.279      6.237
  Name = 
  3 active torsions:
  status: ('A' for Active; 'I' for Inactive)
    1  A    between atoms: C_17  and  C_28
    2  A    between atoms: C_28  and  C_29
    3  A    between atoms: C_29  and  C_32
                            x       y       z     vdW  Elec       q    Type
                         _______ _______ _______ _____ _____    ______ ____

>  <TORSDO>
F 3

$$$$
=
 OpenBabel11122412253D

 34 40  0  0  1  0  0  0  0  0999 V2000
  188.5290  177.7770  142.6840 C   0  0  0  0  0  0  0  0  0  0  0  0
  190.9250  176.8870  142.3540 C   0  0  0  0  0  2  0  0  0  0  0  0
  182.5200  178.8280  139.9950 C   0  0  0  0  0  0  0  0  0  0  0  0
  186.1260  178.2500  142.7260 C   0  0  0  0  0  0  0  0  0  0  0  0
  185.0250  179.0240  140.6950 C   0  0  0  0  0  0  0  0  0  0  0  0
  184.0500  180.3160  138.9860 O   0  0  0  0  0  0  0  0  0  0  0  0
  181.7980  178.6720  138.8920 C   0  0  0  0  0  2  0  0  0  0  0  0
  182.6060  177.9240  142.3220 C   0  0  0  0  0  2  0  0  0  0  0  0
  189.5930  177.4710  140.5060 C   0  0  1  0  0  3  0  0  0  0  0  0
  190.1330  176.6680  137.5810 C   0  0  0  0  0  2  0  0  0  0  0  0
  186.2250  178.9640  140.0530 N   0  0  0  0  0  0  0  0  0  0  0  0
  183.6880  178.8340  142.8540 C   0  0  0  0  0  2  0  0  0  0  0  0
  188.6730  178.5150  139.8670 C   0  0  2  0  0  3  0  0  0  0  0  0
  191.8010  176.7720  141.1070 C   0  0  0  0  0  2  0  0  0  0  0  0
  184.9540  178.6740  142.0650 C   0  0  0  0  0  0  0  0  0  0  0  0
  181.7980  178.6840  141.2940 C   0  0  0  0  0  2  0  0  0  0  0  0
  190.9000  176.1830  138.8140 C   0  0  2  0  0  3  0  0  0  0  0  0
  187.3470  178.1930  142.0210 C   0  0  0  0  0  0  0  0  0  0  0  0
  183.8570  179.4600  139.8930 C   0  0  0  0  0  0  0  0  0  0  0  0
  187.3700  178.5470  140.6520 C   0  0  0  0  0  0  0  0  0  0  0  0
  187.2780  177.5010  144.7380 C   0  0  0  0  0  3  0  0  0  0  0  0
  188.6540  176.8960  137.8640 C   0  0  0  0  0  2  0  0  0  0  0  0
  186.1070  177.8970  144.0860 C   0  0  0  0  0  3  0  0  0  0  0  0
  188.4450  178.3220  138.3590 C   0  0  0  0  0  2  0  0  0  0  0  0
  190.9670  177.2580  139.9110 C   0  0  1  0  0  3  0  0  0  0  0  0
  188.4870  177.4520  144.0440 C   0  0  0  0  0  3  0  0  0  0  0  0
  189.8340  177.8410  141.9380 C   0  0  1  0  0  3  0  0  0  0  0  0
  192.3030  175.7790  138.3770 C   0  0  0  0  0  2  0  0  0  0  0  0
  192.2520  174.5170  137.5310 C   0  0  0  0  0  2  0  0  0  0  0  0
  195.7660  175.0960  137.3290 O   0  0  0  0  0  0  0  0  0  0  0  0
  194.0520  174.4300  135.8430 C   0  0  0  0  0  2  0  0  0  0  0  0
  193.6580  174.0260  137.2320 C   0  0  1  0  0  3  0  0  0  0  0  0
  195.2420  175.3370  136.0510 C   0  0  0  0  0  2  0  0  0  0  0  0
  194.6630  174.7320  138.1150 C   0  0  0  0  0  2  0  0  0  0  0  0
  1 26  1  0  0  0  0
  3 16  1  0  0  0  0
  4 23  2  0  0  0  0
  5 15  2  0  0  0  0
  6 19  2  0  0  0  0
  7  3  2  0  0  0  0
  8 12  1  0  0  0  0
  9 27  1  0  0  0  0
 10 22  1  0  0  0  0
 10 17  1  0  0  0  0
 11 20  2  0  0  0  0
 11  5  1  0  0  0  0
 13  9  1  0  0  0  0
 13 20  1  0  0  0  0
 14  2  1  0  0  0  0
 15  4  1  0  0  0  0
 15 12  1  0  0  0  0
 16  8  1  0  0  0  0
 17 25  1  0  0  0  0
 18  1  2  0  0  0  0
 18  4  1  0  0  0  0
 19  3  1  0  0  0  0
 19  5  1  0  0  0  0
 20 18  1  0  0  0  0
 22 24  1  0  0  0  0
 23 21  1  0  0  0  0
 24 13  1  0  0  0  0
 25  9  1  0  0  0  0
 25 14  1  0  0  0  0
 26 21  2  0  0  0  0
 27  2  1  0  0  0  0
 27  1  1  0  0  0  0
 28 17  1  0  0  0  0
 29 28  1  0  0  0  0
 30 34  1  0  0  0  0
 31 33  1  0  0  0  0
 31 32  1  0  0  0  0
 32 29  1  0  0  0  0
 32 34  1  0  0  0  0
 33 30  1  0  0  0  0
M  END
>  <MODEL>
3

>  <REMARK>
 VINA RESULT:      -9.7      4.248      6.906
  Name = 
  3 active torsions:
  status: ('A' for Active; 'I' for Inactive)
    1  A    between atoms: C_17  and  C_28
    2  A    between atoms: C_28  and  C_29
    3  A    between atoms: C_29  and  C_32
                            x       y       z     vdW  Elec       q    Type
                         _______ _______ _______ _____ _____    ______ ____

>  <TORSDO>
F 3

$$$$
=
 OpenBabel11122412253D

 34 40  0  0  1  0  0  0  0  0999 V2000
  188.6640  177.4250  137.9980 C   0  0  0  0  0  0  0  0  0  0  0  0
  186.8210  178.3220  139.5590 C   0  0  0  0  0  2  0  0  0  0  0  0
  194.1720  173.7200  137.3780 C   0  0  0  0  0  0  0  0  0  0  0  0
  190.3740  176.1710  136.7710 C   0  0  0  0  0  0  0  0  0  0  0  0
  192.4890  175.6530  137.8640 C   0  0  0  0  0  0  0  0  0  0  0  0
  194.7160  175.6500  138.6250 O   0  0  0  0  0  0  0  0  0  0  0  0
  195.0170  172.9380  138.0390 C   0  0  0  0  0  2  0  0  0  0  0  0
  192.4320  173.5160  135.5980 C   0  0  0  0  0  2  0  0  0  0  0  0
  188.8620  177.5440  140.4300 C   0  0  1  0  0  3  0  0  0  0  0  0
  189.3970  176.8270  143.3780 C   0  0  0  0  0  2  0  0  0  0  0  0
  192.0440  176.3020  138.9760 N   0  0  0  0  0  0  0  0  0  0  0  0
  192.1360  174.9890  135.4320 C   0  0  0  0  0  2  0  0  0  0  0  0
  190.3900  177.5790  140.3420 C   0  0  2  0  0  3  0  0  0  0  0  0
  186.8160  178.6130  141.0600 C   0  0  0  0  0  2  0  0  0  0  0  0
  191.6560  175.5840  136.7220 C   0  0  0  0  0  0  0  0  0  0  0  0
  193.8920  173.3540  135.9580 C   0  0  0  0  0  2  0  0  0  0  0  0
  188.0440  177.1960  142.7630 C   0  0  2  0  0  3  0  0  0  0  0  0
  189.9470  176.8250  137.9470 C   0  0  0  0  0  0  0  0  0  0  0  0
  193.8430  175.0530  137.9360 C   0  0  0  0  0  0  0  0  0  0  0  0
  190.8110  176.8650  139.0660 C   0  0  0  0  0  0  0  0  0  0  0  0
  188.2540  176.7370  135.7130 C   0  0  0  0  0  3  0  0  0  0  0  0
  190.2870  176.0530  142.4140 C   0  0  0  0  0  2  0  0  0  0  0  0
  189.5120  176.1320  135.6630 C   0  0  0  0  0  3  0  0  0  0  0  0
  191.1100  177.0310  141.5850 C   0  0  0  0  0  2  0  0  0  0  0  0
  188.1910  178.2060  141.6130 C   0  0  1  0  0  3  0  0  0  0  0  0
  187.8340  177.3910  136.8720 C   0  0  0  0  0  3  0  0  0  0  0  0
  188.2860  178.2160  139.2210 C   0  0  1  0  0  3  0  0  0  0  0  0
  187.1570  177.7660  143.8630 C   0  0  0  0  0  2  0  0  0  0  0  0
  187.7650  177.4940  145.2290 C   0  0  0  0  0  2  0  0  0  0  0  0
  185.0020  179.0230  146.8870 O   0  0  0  0  0  0  0  0  0  0  0  0
  187.1380  178.2210  147.5040 C   0  0  0  0  0  2  0  0  0  0  0  0
  186.6820  177.4660  146.2920 C   0  0  1  0  0  3  0  0  0  0  0  0
  186.1490  179.3570  147.6210 C   0  0  0  0  0  2  0  0  0  0  0  0
  185.4630  178.2320  145.8250 C   0  0  0  0  0  2  0  0  0  0  0  0
  1 27  1  0  0  0  0
  2 14  1  0  0  0  0
  3 19  1  0  0  0  0
  3  7  2  0  0  0  0
  4 18  1  0  0  0  0
  5 19  1  0  0  0  0
  5 11  2  0  0  0  0
  8 16  1  0  0  0  0
  9 25  1  0  0  0  0
 11 20  1  0  0  0  0
 12  8  1  0  0  0  0
 12 15  1  0  0  0  0
 13  9  1  0  0  0  0
 13 24  1  0  0  0  0
 14 25  1  0  0  0  0
 15  4  2  0  0  0  0
 15  5  1  0  0  0  0
 16  3  1  0  0  0  0
 17 10  1  0  0  0  0
 17 28  1  0  0  0  0
 18  1  1  0  0  0  0
 18 20  2  0  0  0  0
 19  6  2  0  0  0  0
 20 13  1  0  0  0  0
 21 26  1  0  0  0  0
 22 10  1  0  0  0  0
 23 21  2  0  0  0  0
 23  4  1  0  0  0  0
 24 22  1  0  0  0  0
 25 17  1  0  0  0  0
 26  1  2  0  0  0  0
 27  2  1  0  0  0  0
 27  9  1  0  0  0  0
 28 29  1  0  0  0  0
 29 32  1  0  0  0  0
 30 33  1  0  0  0  0
 31 33  1  0  0  0  0
 32 31  1  0  0  0  0
 34 32  1  0  0  0  0
 34 30  1  0  0  0  0
M  END
>  <MODEL>
4

>  <REMARK>
 VINA RESULT:      -9.6      4.781      7.029
  Name = 
  3 active torsions:
  status: ('A' for Active; 'I' for Inactive)
    1  A    between atoms: C_17  and  C_28
    2  A    between atoms: C_28  and  C_29
    3  A    between atoms: C_29  and  C_32
                            x       y       z     vdW  Elec       q    Type
                         _______ _______ _______ _____ _____    ______ ____

>  <TORSDO>
F 3

$$$$
=
 OpenBabel11122412253D

 34 40  0  0  1  0  0  0  0  0999 V2000
  182.8850  178.8080  143.9680 C   0  0  0  0  0  0  0  0  0  0  0  0
  184.3440  178.6280  146.0840 C   0  0  0  0  0  2  0  0  0  0  0  0
  182.3100  177.6010  137.4370 C   0  0  0  0  0  0  0  0  0  0  0  0
  181.6770  178.5480  141.8530 C   0  0  0  0  0  0  0  0  0  0  0  0
  182.9110  178.6370  139.7540 C   0  0  0  0  0  0  0  0  0  0  0  0
  183.9210  179.3010  137.7340 O   0  0  0  0  0  0  0  0  0  0  0  0
  182.9250  177.0700  136.3870 C   0  0  0  0  0  2  0  0  0  0  0  0
  180.3260  177.1340  138.8800 C   0  0  0  0  0  2  0  0  0  0  0  0
  185.3080  178.4980  143.9430 C   0  0  1  0  0  3  0  0  0  0  0  0
  188.1350  177.4500  143.3110 C   0  0  0  0  0  2  0  0  0  0  0  0
  184.0560  178.8370  140.4650 N   0  0  0  0  0  0  0  0  0  0  0  0
  180.3770  178.3950  139.7110 C   0  0  0  0  0  2  0  0  0  0  0  0
  185.4100  179.1110  142.5440 C   0  0  2  0  0  3  0  0  0  0  0  0
  185.8600  178.5880  146.2700 C   0  0  0  0  0  2  0  0  0  0  0  0
  181.6820  178.4970  140.4420 C   0  0  0  0  0  0  0  0  0  0  0  0
  180.8250  177.4520  137.4880 C   0  0  0  0  0  2  0  0  0  0  0  0
  187.4340  177.4110  144.6710 C   0  0  2  0  0  3  0  0  0  0  0  0
  182.8870  178.7470  142.5520 C   0  0  0  0  0  0  0  0  0  0  0  0
  183.0420  178.5770  138.2780 C   0  0  0  0  0  0  0  0  0  0  0  0
  184.0920  178.8760  141.8220 C   0  0  0  0  0  0  0  0  0  0  0  0
  180.4840  178.4940  143.9760 C   0  0  0  0  0  3  0  0  0  0  0  0
  187.1680  177.2700  142.1480 C   0  0  0  0  0  2  0  0  0  0  0  0
  180.4830  178.4190  142.5810 C   0  0  0  0  0  3  0  0  0  0  0  0
  186.6200  178.6290  141.7270 C   0  0  0  0  0  2  0  0  0  0  0  0
  186.4970  178.6130  144.8710 C   0  0  1  0  0  3  0  0  0  0  0  0
  181.6780  178.6990  144.6680 C   0  0  0  0  0  3  0  0  0  0  0  0
  184.1700  179.1400  144.6770 C   0  0  1  0  0  3  0  0  0  0  0  0
  188.5000  177.3790  145.7590 C   0  0  0  0  0  2  0  0  0  0  0  0
  189.8890  177.3720  145.1400 C   0  0  0  0  0  2  0  0  0  0  0  0
  192.3850  175.6210  146.9910 O   0  0  0  0  0  0  0  0  0  0  0  0
  190.3730  176.7590  147.4820 C   0  0  0  0  0  2  0  0  0  0  0  0
  190.9490  177.3390  146.2260 C   0  0  1  0  0  3  0  0  0  0  0  0
  191.1920  175.5120  147.7180 C   0  0  0  0  0  2  0  0  0  0  0  0
  192.0560  176.3770  145.8560 C   0  0  0  0  0  2  0  0  0  0  0  0
  1 26  1  0  0  0  0
  1 27  1  0  0  0  0
  2 14  1  0  0  0  0
  3 16  1  0  0  0  0
  3 19  1  0  0  0  0
  4 18  1  0  0  0  0
  4 23  2  0  0  0  0
  5 15  2  0  0  0  0
  5 11  1  0  0  0  0
  6 19  2  0  0  0  0
  7  3  2  0  0  0  0
  8 12  1  0  0  0  0
  9 27  1  0  0  0  0
  9 25  1  0  0  0  0
 10 17  1  0  0  0  0
 11 20  2  0  0  0  0
 12 15  1  0  0  0  0
 13  9  1  0  0  0  0
 15  4  1  0  0  0  0
 16  8  1  0  0  0  0
 17 25  1  0  0  0  0
 17 28  1  0  0  0  0
 18  1  2  0  0  0  0
 19  5  1  0  0  0  0
 20 13  1  0  0  0  0
 20 18  1  0  0  0  0
 21 26  2  0  0  0  0
 22 10  1  0  0  0  0
 23 21  1  0  0  0  0
 24 22  1  0  0  0  0
 24 13  1  0  0  0  0
 25 14  1  0  0  0  0
 27  2  1  0  0  0  0
 29 28  1  0  0  0  0
 29 32  1  0  0  0  0
 30 33  1  0  0  0  0
 31 33  1  0  0  0  0
 32 31  1  0  0  0  0
 34 32  1  0  0  0  0
 34 30  1  0  0  0  0
M  END
>  <MODEL>
5

>  <REMARK>
 VINA RESULT:      -9.4      1.373      2.065
  Name = 
  3 active torsions:
  status: ('A' for Active; 'I' for Inactive)
    1  A    between atoms: C_17  and  C_28
    2  A    between atoms: C_28  and  C_29
    3  A    between atoms: C_29  and  C_32
                            x       y       z     vdW  Elec       q    Type
                         _______ _______ _______ _____ _____    ______ ____

>  <TORSDO>
F 3

$$$$
=
 OpenBabel11122412253D

 34 40  0  0  1  0  0  0  0  0999 V2000
  188.0450  177.8810  139.5740 C   0  0  0  0  0  0  0  0  0  0  0  0
  185.9640  178.1520  138.0790 C   0  0  0  0  0  2  0  0  0  0  0  0
  190.4450  176.8460  145.7070 C   0  0  0  0  0  0  0  0  0  0  0  0
  189.7610  177.2930  141.2210 C   0  0  0  0  0  0  0  0  0  0  0  0
  189.4450  177.9230  143.5530 C   0  0  0  0  0  0  0  0  0  0  0  0
  189.4860  179.0020  145.6440 O   0  0  0  0  0  0  0  0  0  0  0  0
  190.0990  176.6250  146.9700 C   0  0  0  0  0  2  0  0  0  0  0  0
  191.5250  175.6200  143.8180 C   0  0  0  0  0  2  0  0  0  0  0  0
  185.8280  178.4810  140.4040 C   0  0  1  0  0  3  0  0  0  0  0  0
  183.2260  178.5690  142.0520 C   0  0  0  0  0  2  0  0  0  0  0  0
  188.2570  178.4960  143.2100 N   0  0  0  0  0  0  0  0  0  0  0  0
  191.6030  176.7730  142.8450 C   0  0  0  0  0  2  0  0  0  0  0  0
  186.4290  179.1510  141.6420 C   0  0  2  0  0  3  0  0  0  0  0  0
  184.5560  178.6600  138.3850 C   0  0  0  0  0  2  0  0  0  0  0  0
  190.2350  177.3130  142.5500 C   0  0  0  0  0  0  0  0  0  0  0  0
  191.6810  176.1610  145.2220 C   0  0  0  0  0  2  0  0  0  0  0  0
  183.3500  178.2150  140.5680 C   0  0  2  0  0  3  0  0  0  0  0  0
  188.5210  177.8900  140.9100 C   0  0  0  0  0  0  0  0  0  0  0  0
  189.8280  177.9830  144.9840 C   0  0  0  0  0  0  0  0  0  0  0  0
  187.7620  178.4840  141.9450 C   0  0  0  0  0  0  0  0  0  0  0  0
  190.0450  176.7100  138.8720 C   0  0  0  0  0  3  0  0  0  0  0  0
  184.4230  178.1010  142.8680 C   0  0  0  0  0  2  0  0  0  0  0  0
  190.5110  176.7040  140.1900 C   0  0  0  0  0  3  0  0  0  0  0  0
  185.4970  179.1830  142.8630 C   0  0  0  0  0  2  0  0  0  0  0  0
  184.4960  178.9810  139.8870 C   0  0  1  0  0  3  0  0  0  0  0  0
  188.8230  177.3070  138.5620 C   0  0  0  0  0  3  0  0  0  0  0  0
  186.7790  178.6280  139.2550 C   0  0  1  0  0  3  0  0  0  0  0  0
  182.0230  178.5260  139.8870 C   0  0  0  0  0  2  0  0  0  0  0  0
  180.8970  177.7380  140.5370 C   0  0  0  0  0  2  0  0  0  0  0  0
  179.7200  180.8880  141.7250 O   0  0  0  0  0  0  0  0  0  0  0  0
  179.5450  178.6300  142.4000 C   0  0  0  0  0  2  0  0  0  0  0  0
  179.7560  178.6650  140.9170 C   0  0  1  0  0  3  0  0  0  0  0  0
  179.8230  180.0480  142.8420 C   0  0  0  0  0  2  0  0  0  0  0  0
  180.1290  180.1040  140.6370 C   0  0  0  0  0  2  0  0  0  0  0  0
  1 18  1  0  0  0  0
  2 14  1  0  0  0  0
  2 27  1  0  0  0  0
  3  7  2  0  0  0  0
  4 15  1  0  0  0  0
  5 19  1  0  0  0  0
  8 16  1  0  0  0  0
  9 13  1  0  0  0  0
 10 22  1  0  0  0  0
 11  5  1  0  0  0  0
 12  8  1  0  0  0  0
 13 20  1  0  0  0  0
 13 24  1  0  0  0  0
 14 25  1  0  0  0  0
 15 12  1  0  0  0  0
 15  5  2  0  0  0  0
 16  3  1  0  0  0  0
 17 10  1  0  0  0  0
 18  4  2  0  0  0  0
 18 20  1  0  0  0  0
 19  6  2  0  0  0  0
 19  3  1  0  0  0  0
 20 11  2  0  0  0  0
 21 23  2  0  0  0  0
 23  4  1  0  0  0  0
 24 22  1  0  0  0  0
 25  9  1  0  0  0  0
 25 17  1  0  0  0  0
 26 21  1  0  0  0  0
 26  1  2  0  0  0  0
 27  1  1  0  0  0  0
 27  9  1  0  0  0  0
 28 29  1  0  0  0  0
 28 17  1  0  0  0  0
 29 32  1  0  0  0  0
 30 33  1  0  0  0  0
 31 33  1  0  0  0  0
 32 31  1  0  0  0  0
 34 32  1  0  0  0  0
 34 30  1  0  0  0  0
M  END
>  <MODEL>
6

>  <REMARK>
 VINA RESULT:      -8.9      2.612      8.658
  Name = 
  3 active torsions:
  status: ('A' for Active; 'I' for Inactive)
    1  A    between atoms: C_17  and  C_28
    2  A    between atoms: C_28  and  C_29
    3  A    between atoms: C_29  and  C_32
                            x       y       z     vdW  Elec       q    Type
                         _______ _______ _______ _____ _____    ______ ____

>  <TORSDO>
F 3

$$$$
=
 OpenBabel11122412253D

 34 40  0  0  1  0  0  0  0  0999 V2000
  185.8470  178.3370  142.8920 C   0  0  0  0  0  0  0  0  0  0  0  0
  185.5760  178.7430  140.3620 C   0  0  0  0  0  2  0  0  0  0  0  0
  190.0250  177.5690  148.0300 C   0  0  0  0  0  0  0  0  0  0  0  0
  186.4680  178.2590  145.2600 C   0  0  0  0  0  0  0  0  0  0  0  0
  188.5510  177.1770  145.9140 C   0  0  0  0  0  0  0  0  0  0  0  0
  190.1950  175.6620  146.6490 O   0  0  0  0  0  0  0  0  0  0  0  0
  191.3060  177.5510  148.3760 C   0  0  0  0  0  2  0  0  0  0  0  0
  188.0090  179.0030  148.3800 C   0  0  0  0  0  2  0  0  0  0  0  0
  187.5980  177.9230  141.2400 C   0  0  1  0  0  3  0  0  0  0  0  0
  190.3040  177.8780  139.7670 C   0  0  0  0  0  2  0  0  0  0  0  0
  188.7840  176.8920  144.6020 N   0  0  0  0  0  0  0  0  0  0  0  0
  186.9990  178.1010  147.7080 C   0  0  0  0  0  2  0  0  0  0  0  0
  188.2780  176.9040  142.1580 C   0  0  2  0  0  3  0  0  0  0  0  0
  186.4830  178.4080  139.1790 C   0  0  0  0  0  2  0  0  0  0  0  0
  187.3680  177.8650  146.2740 C   0  0  0  0  0  0  0  0  0  0  0  0
  189.0710  178.1410  149.0270 C   0  0  0  0  0  2  0  0  0  0  0  0
  189.0110  178.5340  139.2740 C   0  0  2  0  0  3  0  0  0  0  0  0
  186.7520  177.9520  143.9120 C   0  0  0  0  0  0  0  0  0  0  0  0
  189.5790  176.7360  146.8870 C   0  0  0  0  0  0  0  0  0  0  0  0
  187.9500  177.2670  143.5990 C   0  0  0  0  0  0  0  0  0  0  0  0
  184.3820  179.3040  144.5600 C   0  0  0  0  0  3  0  0  0  0  0  0
  190.4590  177.9540  141.2800 C   0  0  0  0  0  2  0  0  0  0  0  0
  185.2780  178.9400  145.5680 C   0  0  0  0  0  3  0  0  0  0  0  0
  189.7880  176.7460  141.9220 C   0  0  0  0  0  2  0  0  0  0  0  0
  187.7620  177.7700  139.7430 C   0  0  1  0  0  3  0  0  0  0  0  0
  184.6580  178.9940  143.2280 C   0  0  0  0  0  3  0  0  0  0  0  0
  186.1190  177.8910  141.4810 C   0  0  1  0  0  3  0  0  0  0  0  0
  189.0560  178.5980  137.7530 C   0  0  0  0  0  2  0  0  0  0  0  0
  189.8350  177.4180  137.1950 C   0  0  0  0  0  2  0  0  0  0  0  0
  186.6510  176.5880  135.8180 O   0  0  0  0  0  0  0  0  0  0  0  0
  188.4280  175.4190  136.8490 C   0  0  0  0  0  2  0  0  0  0  0  0
  188.9860  176.6490  136.1990 C   0  0  1  0  0  3  0  0  0  0  0  0
  186.9320  175.6250  136.7960 C   0  0  0  0  0  2  0  0  0  0  0  0
  187.7590  177.4490  135.8220 C   0  0  0  0  0  2  0  0  0  0  0  0
  1 26  2  0  0  0  0
  1 18  1  0  0  0  0
  2 27  1  0  0  0  0
  3  7  2  0  0  0  0
  3 16  1  0  0  0  0
  4 23  1  0  0  0  0
  4 15  1  0  0  0  0
  5 15  2  0  0  0  0
  5 19  1  0  0  0  0
  6 19  2  0  0  0  0
  8 16  1  0  0  0  0
  9 27  1  0  0  0  0
  9 13  1  0  0  0  0
 10 22  1  0  0  0  0
 11  5  1  0  0  0  0
 12  8  1  0  0  0  0
 13 20  1  0  0  0  0
 14 25  1  0  0  0  0
 14  2  1  0  0  0  0
 15 12  1  0  0  0  0
 17 25  1  0  0  0  0
 17 10  1  0  0  0  0
 18  4  2  0  0  0  0
 19  3  1  0  0  0  0
 20 18  1  0  0  0  0
 20 11  2  0  0  0  0
 21 23  2  0  0  0  0
 22 24  1  0  0  0  0
 24 13  1  0  0  0  0
 25  9  1  0  0  0  0
 26 21  1  0  0  0  0
 27  1  1  0  0  0  0
 28 17  1  0  0  0  0
 29 28  1  0  0  0  0
 30 34  1  0  0  0  0
 30 33  1  0  0  0  0
 32 31  1  0  0  0  0
 32 29  1  0  0  0  0
 33 31  1  0  0  0  0
 34 32  1  0  0  0  0
M  END
>  <MODEL>
7

>  <REMARK>
 VINA RESULT:      -8.6      2.321      8.446
  Name = 
  3 active torsions:
  status: ('A' for Active; 'I' for Inactive)
    1  A    between atoms: C_17  and  C_28
    2  A    between atoms: C_28  and  C_29
    3  A    between atoms: C_29  and  C_32
                            x       y       z     vdW  Elec       q    Type
                         _______ _______ _______ _____ _____    ______ ____

>  <TORSDO>
F 3

$$$$
=
 OpenBabel11122412253D

 34 40  0  0  1  0  0  0  0  0999 V2000
  187.2310  177.9550  141.2790 C   0  0  0  0  0  0  0  0  0  0  0  0
  188.4730  177.8960  139.0210 C   0  0  0  0  0  2  0  0  0  0  0  0
  187.6910  178.2400  147.9230 C   0  0  0  0  0  0  0  0  0  0  0  0
  186.3940  178.3190  143.5520 C   0  0  0  0  0  0  0  0  0  0  0  0
  187.6500  177.4340  145.4430 C   0  0  0  0  0  0  0  0  0  0  0  0
  188.4650  176.1230  147.2200 O   0  0  0  0  0  0  0  0  0  0  0  0
  188.5470  178.3220  148.9360 C   0  0  0  0  0  2  0  0  0  0  0  0
  185.9520  179.6530  146.8210 C   0  0  0  0  0  2  0  0  0  0  0  0
  189.5710  177.3060  141.0150 C   0  0  1  0  0  3  0  0  0  0  0  0
  192.6220  177.0790  141.3820 C   0  0  0  0  0  2  0  0  0  0  0  0
  188.5610  176.9270  144.5670 N   0  0  0  0  0  0  0  0  0  0  0  0
  185.4320  178.6170  145.8510 C   0  0  0  0  0  2  0  0  0  0  0  0
  189.5300  176.4880  142.3090 C   0  0  2  0  0  3  0  0  0  0  0  0
  189.8610  177.3820  138.6410 C   0  0  0  0  0  2  0  0  0  0  0  0
  186.5290  178.1400  144.9450 C   0  0  0  0  0  0  0  0  0  0  0  0
  186.3890  178.9520  148.0880 C   0  0  0  0  0  2  0  0  0  0  0  0
  191.8920  177.5980  140.1400 C   0  0  2  0  0  3  0  0  0  0  0  0
  187.3670  177.7860  142.6790 C   0  0  0  0  0  0  0  0  0  0  0  0
  187.9080  177.2050  146.8850 C   0  0  0  0  0  0  0  0  0  0  0  0
  188.4740  177.0920  143.2220 C   0  0  0  0  0  0  0  0  0  0  0  0
  185.1600  179.1610  141.6270 C   0  0  0  0  0  3  0  0  0  0  0  0
  191.8990  177.4290  142.6760 C   0  0  0  0  0  2  0  0  0  0  0  0
  185.2970  179.0090  143.0090 C   0  0  0  0  0  3  0  0  0  0  0  0
  190.8910  176.3350  143.0070 C   0  0  0  0  0  2  0  0  0  0  0  0
  190.5410  176.8940  139.9300 C   0  0  1  0  0  3  0  0  0  0  0  0
  186.1170  178.6270  140.7630 C   0  0  0  0  0  3  0  0  0  0  0  0
  188.2190  177.2740  140.3710 C   0  0  1  0  0  3  0  0  0  0  0  0
  192.7950  177.3920  138.9310 C   0  0  0  0  0  2  0  0  0  0  0  0
  193.5510  176.0780  139.0520 C   0  0  0  0  0  2  0  0  0  0  0  0
  192.6270  175.8860  135.6120 O   0  0  0  0  0  0  0  0  0  0  0  0
  192.3080  174.5660  137.5470 C   0  0  0  0  0  2  0  0  0  0  0  0
  193.5700  175.3570  137.7160 C   0  0  1  0  0  3  0  0  0  0  0  0
  191.6530  175.1810  136.3320 C   0  0  0  0  0  2  0  0  0  0  0  0
  193.5320  176.3510  136.5780 C   0  0  0  0  0  2  0  0  0  0  0  0
  1 18  1  0  0  0  0
  2 27  1  0  0  0  0
  3 16  1  0  0  0  0
  3  7  2  0  0  0  0
  4 15  1  0  0  0  0
  5 19  1  0  0  0  0
  8 16  1  0  0  0  0
  9 13  1  0  0  0  0
 10 22  1  0  0  0  0
 11  5  1  0  0  0  0
 12  8  1  0  0  0  0
 13 24  1  0  0  0  0
 13 20  1  0  0  0  0
 14  2  1  0  0  0  0
 14 25  1  0  0  0  0
 15  5  2  0  0  0  0
 15 12  1  0  0  0  0
 17 10  1  0  0  0  0
 18 20  1  0  0  0  0
 18  4  2  0  0  0  0
 19  6  2  0  0  0  0
 19  3  1  0  0  0  0
 20 11  2  0  0  0  0
 21 23  2  0  0  0  0
 22 24  1  0  0  0  0
 23  4  1  0  0  0  0
 25 17  1  0  0  0  0
 25  9  1  0  0  0  0
 26  1  2  0  0  0  0
 26 21  1  0  0  0  0
 27  9  1  0  0  0  0
 27  1  1  0  0  0  0
 28 29  1  0  0  0  0
 28 17  1  0  0  0  0
 30 33  1  0  0  0  0
 30 34  1  0  0  0  0
 31 32  1  0  0  0  0
 32 29  1  0  0  0  0
 33 31  1  0  0  0  0
 34 32  1  0  0  0  0
M  END
>  <MODEL>
8

>  <REMARK>
 VINA RESULT:      -8.6      3.905      8.174
  Name = 
  3 active torsions:
  status: ('A' for Active; 'I' for Inactive)
    1  A    between atoms: C_17  and  C_28
    2  A    between atoms: C_28  and  C_29
    3  A    between atoms: C_29  and  C_32
                            x       y       z     vdW  Elec       q    Type
                         _______ _______ _______ _____ _____    ______ ____

>  <TORSDO>
F 3

$$$$
=
 OpenBabel11122412253D

 34 40  0  0  1  0  0  0  0  0999 V2000
  190.7930  177.5170  141.1630 C   0  0  0  0  0  0  0  0  0  0  0  0
  192.6840  176.5800  139.6850 C   0  0  0  0  0  2  0  0  0  0  0  0
  184.2350  178.3750  142.0020 C   0  0  0  0  0  0  0  0  0  0  0  0
  188.7600  178.0130  142.4380 C   0  0  0  0  0  0  0  0  0  0  0  0
  186.7200  178.6110  141.2470 C   0  0  0  0  0  0  0  0  0  0  0  0
  184.9370  179.7530  140.2190 O   0  0  0  0  0  0  0  0  0  0  0  0
  183.0450  178.1270  141.4680 C   0  0  0  0  0  2  0  0  0  0  0  0
  185.5770  177.6830  143.9920 C   0  0  0  0  0  2  0  0  0  0  0  0
  190.5530  177.0080  138.7870 C   0  0  1  0  0  3  0  0  0  0  0  0
  189.4940  175.9400  136.0980 C   0  0  0  0  0  2  0  0  0  0  0  0
  187.3990  178.4840  140.0730 N   0  0  0  0  0  0  0  0  0  0  0  0
  186.7390  178.6280  143.7930 C   0  0  0  0  0  2  0  0  0  0  0  0
  189.3930  177.9980  138.6520 C   0  0  2  0  0  3  0  0  0  0  0  0
  192.7700  176.3470  138.1770 C   0  0  0  0  0  2  0  0  0  0  0  0
  187.3990  178.3860  142.4680 C   0  0  0  0  0  0  0  0  0  0  0  0
  184.3170  178.3550  143.4940 C   0  0  0  0  0  2  0  0  0  0  0  0
  190.8160  175.5610  136.7690 C   0  0  2  0  0  3  0  0  0  0  0  0
  189.4240  177.8830  141.1990 C   0  0  0  0  0  0  0  0  0  0  0  0
  185.2880  178.9830  141.1550 C   0  0  0  0  0  0  0  0  0  0  0  0
  188.7040  178.1120  140.0030 C   0  0  0  0  0  0  0  0  0  0  0  0
  190.8320  177.4380  143.5830 C   0  0  0  0  0  3  0  0  0  0  0  0
  188.3810  176.2060  137.1030 C   0  0  0  0  0  2  0  0  0  0  0  0
  189.4790  177.7840  143.6230 C   0  0  0  0  0  3  0  0  0  0  0  0
  188.4090  177.6730  137.5170 C   0  0  0  0  0  2  0  0  0  0  0  0
  191.4110  176.7300  137.5720 C   0  0  1  0  0  3  0  0  0  0  0  0
  191.4910  177.3160  142.3600 C   0  0  0  0  0  3  0  0  0  0  0  0
  191.5010  177.5030  139.8360 C   0  0  1  0  0  3  0  0  0  0  0  0
  191.7900  175.1080  135.6880 C   0  0  0  0  0  2  0  0  0  0  0  0
  192.1320  173.6370  135.8660 C   0  0  0  0  0  2  0  0  0  0  0  0
  195.5880  173.7600  136.7410 O   0  0  0  0  0  0  0  0  0  0  0  0
  194.2210  174.6600  135.0360 C   0  0  0  0  0  2  0  0  0  0  0  0
  193.5910  173.3910  135.5270 C   0  0  1  0  0  3  0  0  0  0  0  0
  195.3040  174.9460  136.0500 C   0  0  0  0  0  2  0  0  0  0  0  0
  194.3760  173.0560  136.7760 C   0  0  0  0  0  2  0  0  0  0  0  0
  1 18  2  0  0  0  0
  1 26  1  0  0  0  0
  2 27  1  0  0  0  0
  3 16  1  0  0  0  0
  4 15  1  0  0  0  0
  4 23  2  0  0  0  0
  5 15  2  0  0  0  0
  6 19  2  0  0  0  0
  7  3  2  0  0  0  0
  9 27  1  0  0  0  0
 10 17  1  0  0  0  0
 10 22  1  0  0  0  0
 11  5  1  0  0  0  0
 12  8  1  0  0  0  0
 13  9  1  0  0  0  0
 13 20  1  0  0  0  0
 14  2  1  0  0  0  0
 15 12  1  0  0  0  0
 16  8  1  0  0  0  0
 17 25  1  0  0  0  0
 18  4  1  0  0  0  0
 19  5  1  0  0  0  0
 19  3  1  0  0  0  0
 20 11  2  0  0  0  0
 20 18  1  0  0  0  0
 21 23  1  0  0  0  0
 22 24  1  0  0  0  0
 24 13  1  0  0  0  0
 25 14  1  0  0  0  0
 25  9  1  0  0  0  0
 26 21  2  0  0  0  0
 27  1  1  0  0  0  0
 28 29  1  0  0  0  0
 28 17  1  0  0  0  0
 30 34  1  0  0  0  0
 31 32  1  0  0  0  0
 31 33  1  0  0  0  0
 32 29  1  0  0  0  0
 32 34  1  0  0  0  0
 33 30  1  0  0  0  0
M  END
>  <MODEL>
9

>  <REMARK>
 VINA RESULT:      -8.6      4.700      8.483
  Name = 
  3 active torsions:
  status: ('A' for Active; 'I' for Inactive)
    1  A    between atoms: C_17  and  C_28
    2  A    between atoms: C_28  and  C_29
    3  A    between atoms: C_29  and  C_32
                            x       y       z     vdW  Elec       q    Type
                         _______ _______ _______ _____ _____    ______ ____

>  <TORSDO>
F 3

$$$$
