=
 OpenBabel11122410543D

 31 35  0  0  1  0  0  0  0  0999 V2000
  190.0320  175.9650  142.6660 C   0  0  0  0  0  0  0  0  0  0  0  0
  186.7030  177.5260  143.4560 N   0  0  0  0  0  0  0  0  0  0  0  0
  186.6620  177.8870  144.8590 C   0  0  0  0  0  0  0  0  0  0  0  0
  187.6690  177.9710  147.0730 C   0  0  0  0  0  0  0  0  0  0  0  0
  187.9440  177.1940  142.8000 C   0  0  0  0  0  0  0  0  0  0  0  0
  190.3260  176.5910  141.4520 C   0  0  0  0  0  3  0  0  0  0  0  0
  187.7000  177.5470  145.7430 C   0  0  0  0  0  3  0  0  0  0  0  0
  186.1260  179.1100  141.6850 C   0  0  2  0  0  3  0  0  0  0  0  0
  190.8990  175.0670  143.1930 F   0  0  0  0  0  0  0  0  0  0  0  0
  184.5540  179.0080  144.4770 O   0  0  0  0  0  0  0  0  0  0  0  0
  188.7730  177.6000  147.9960 C   0  0  0  0  0  1  0  0  0  0  0  0
  187.3270  178.7180  141.0080 O   0  0  0  0  0  0  0  0  0  0  0  0
  185.6220  177.9510  142.5500 C   0  0  2  0  0  3  0  0  0  0  0  0
  188.8420  176.2620  143.3380 C   0  0  0  0  0  3  0  0  0  0  0  0
  186.6070  178.7540  147.5320 C   0  0  0  0  0  3  0  0  0  0  0  0
  188.2410  177.8140  141.5720 C   0  0  0  0  0  0  0  0  0  0  0  0
  189.4300  177.5140  140.9030 C   0  0  0  0  0  3  0  0  0  0  0  0
  184.3160  178.2630  143.2880 C   0  0  0  0  0  2  0  0  0  0  0  0
  185.5920  178.6620  145.3370 C   0  0  0  0  0  0  0  0  0  0  0  0
  185.5710  179.1030  146.6640 C   0  0  0  0  0  3  0  0  0  0  0  0
  185.1240  179.4970  140.7000 N   0  0  0  0  0  2  0  0  0  0  0  0
  183.4800  177.7690  140.2490 C   0  0  0  0  0  1  0  0  0  0  0  0
  184.8490  178.3250  139.8800 C   0  0  1  0  0  3  0  0  0  0  0  0
  185.0680  176.1280  136.9680 C   0  0  1  0  0  3  0  0  0  0  0  0
  183.7270  177.9830  137.6470 C   0  0  0  0  0  2  0  0  0  0  0  0
  187.3210  178.8240  138.2070 O   0  0  0  0  0  1  0  0  0  0  0  0
  185.1720  174.6180  136.9490 C   0  0  0  0  0  1  0  0  0  0  0  0
  183.8660  176.5250  137.7030 N   0  0  0  0  0  2  0  0  0  0  0  0
  186.1840  178.2310  137.6600 C   0  0  2  0  0  3  0  0  0  0  0  0
  184.8930  178.6660  138.3760 C   0  0  2  0  0  3  0  0  0  0  0  0
  186.3150  176.7130  137.6280 C   0  0  0  0  0  2  0  0  0  0  0  0
  1  9  1  0  0  0  0
  1 14  1  0  0  0  0
  2  3  1  0  0  0  0
  3 19  2  0  0  0  0
  3  7  1  0  0  0  0
  4 15  1  0  0  0  0
  4 11  1  0  0  0  0
  5 14  2  0  0  0  0
  5  2  1  0  0  0  0
  6  1  2  0  0  0  0
  7  4  2  0  0  0  0
  8 21  1  6  0  0  0
  8 13  1  0  0  0  0
 10 19  1  0  0  0  0
 12 16  1  0  0  0  0
 12  8  1  0  0  0  0
 13 18  1  1  0  0  0
 13  2  1  0  0  0  0
 16  5  1  0  0  0  0
 17  6  1  0  0  0  0
 17 16  2  0  0  0  0
 18 10  1  0  0  0  0
 19 20  1  0  0  0  0
 20 15  2  0  0  0  0
 23 22  1  1  0  0  0
 23 21  1  0  0  0  0
 24 27  1  1  0  0  0
 24 31  1  0  0  0  0
 24 28  1  0  0  0  0
 25 28  1  0  0  0  0
 25 30  1  0  0  0  0
 29 26  1  1  0  0  0
 29 30  1  0  0  0  0
 30 23  1  1  0  0  0
 31 29  1  0  0  0  0
M  END
>  <MODEL>
1

>  <REMARK>
 VINA RESULT:     -10.4      0.000      0.000
  Name = 
  3 active torsions:
  status: ('A' for Active; 'I' for Inactive)
    1  A    between atoms: C_5  and  N_16
    2  A    between atoms: C_5  and  C_30
    3  A    between atoms: C_10  and  N_16
                            x       y       z     vdW  Elec       q    Type
                         _______ _______ _______ _____ _____    ______ ____

>  <TORSDO>
F 3

$$$$
=
 OpenBabel11122410543D

 31 35  0  0  1  0  0  0  0  0999 V2000
  191.3560  176.2320  144.3630 C   0  0  0  0  0  0  0  0  0  0  0  0
  187.8550  177.3730  143.6060 N   0  0  0  0  0  0  0  0  0  0  0  0
  187.2110  177.7970  144.8330 C   0  0  0  0  0  0  0  0  0  0  0  0
  187.2170  178.1280  147.2440 C   0  0  0  0  0  0  0  0  0  0  0  0
  189.2810  177.1770  143.5330 C   0  0  0  0  0  0  0  0  0  0  0  0
  192.0530  176.8290  143.3090 C   0  0  0  0  0  3  0  0  0  0  0  0
  187.8290  177.6440  146.0860 C   0  0  0  0  0  3  0  0  0  0  0  0
  187.8890  178.7730  141.6010 C   0  0  2  0  0  3  0  0  0  0  0  0
  192.0210  175.4860  145.2790 F   0  0  0  0  0  0  0  0  0  0  0  0
  185.3370  178.6050  143.5350 O   0  0  0  0  0  0  0  0  0  0  0  0
  187.8830  177.9560  148.5620 C   0  0  0  0  0  1  0  0  0  0  0  0
  189.2950  178.5110  141.5000 O   0  0  0  0  0  0  0  0  0  0  0  0
  187.1970  177.6030  142.3070 C   0  0  2  0  0  3  0  0  0  0  0  0
  189.9730  176.4010  144.4750 C   0  0  0  0  0  3  0  0  0  0  0  0
  185.9880  178.7850  147.1630 C   0  0  0  0  0  3  0  0  0  0  0  0
  189.9870  177.7670  142.4670 C   0  0  0  0  0  0  0  0  0  0  0  0
  191.3690  177.5940  142.3600 C   0  0  0  0  0  3  0  0  0  0  0  0
  185.6800  177.7750  142.4310 C   0  0  0  0  0  2  0  0  0  0  0  0
  185.9670  178.4460  144.7670 C   0  0  0  0  0  0  0  0  0  0  0  0
  185.3640  178.9470  145.9240 C   0  0  0  0  0  3  0  0  0  0  0  0
  187.3400  178.9710  140.2660 N   0  0  0  0  0  2  0  0  0  0  0  0
  186.8420  177.6090  138.3200 C   0  0  0  0  0  1  0  0  0  0  0  0
  187.8510  177.8990  139.4250 C   0  0  1  0  0  3  0  0  0  0  0  0
  189.1600  177.3060  136.0650 C   0  0  1  0  0  3  0  0  0  0  0  0
  189.0160  179.1530  137.5710 C   0  0  0  0  0  2  0  0  0  0  0  0
  190.3500  176.1930  139.4150 O   0  0  0  0  0  1  0  0  0  0  0  0
  188.4820  176.5910  134.9160 C   0  0  0  0  0  1  0  0  0  0  0  0
  188.3170  178.4150  136.5150 N   0  0  0  0  0  2  0  0  0  0  0  0
  190.0610  177.0590  138.3610 C   0  0  2  0  0  3  0  0  0  0  0  0
  189.2170  178.2660  138.8080 C   0  0  2  0  0  3  0  0  0  0  0  0
  189.3990  176.3190  137.2050 C   0  0  0  0  0  2  0  0  0  0  0  0
  1 14  1  0  0  0  0
  1  9  1  0  0  0  0
  2  3  1  0  0  0  0
  3  7  1  0  0  0  0
  4 11  1  0  0  0  0
  5  2  1  0  0  0  0
  5 14  2  0  0  0  0
  6  1  2  0  0  0  0
  7  4  2  0  0  0  0
  8 21  1  6  0  0  0
  8 13  1  0  0  0  0
 10 19  1  0  0  0  0
 12  8  1  0  0  0  0
 12 16  1  0  0  0  0
 13 18  1  1  0  0  0
 13  2  1  0  0  0  0
 15  4  1  0  0  0  0
 16  5  1  0  0  0  0
 17 16  2  0  0  0  0
 17  6  1  0  0  0  0
 18 10  1  0  0  0  0
 19  3  2  0  0  0  0
 19 20  1  0  0  0  0
 20 15  2  0  0  0  0
 23 22  1  6  0  0  0
 23 21  1  0  0  0  0
 24 27  1  6  0  0  0
 24 28  1  0  0  0  0
 24 31  1  0  0  0  0
 25 30  1  0  0  0  0
 28 25  1  0  0  0  0
 29 30  1  0  0  0  0
 29 26  1  1  0  0  0
 30 23  1  6  0  0  0
 31 29  1  0  0  0  0
M  END
>  <MODEL>
2

>  <REMARK>
 VINA RESULT:      -8.4      2.163      2.761
  Name = 
  3 active torsions:
  status: ('A' for Active; 'I' for Inactive)
    1  A    between atoms: C_5  and  N_16
    2  A    between atoms: C_5  and  C_30
    3  A    between atoms: C_10  and  N_16
                            x       y       z     vdW  Elec       q    Type
                         _______ _______ _______ _____ _____    ______ ____

>  <TORSDO>
F 3

$$$$
=
 OpenBabel11122410543D

 31 35  0  0  1  0  0  0  0  0999 V2000
  191.1690  177.1380  141.9740 C   0  0  0  0  0  0  0  0  0  0  0  0
  189.9540  177.7060  138.4620 N   0  0  0  0  0  0  0  0  0  0  0  0
  190.6210  176.7820  137.5660 C   0  0  0  0  0  0  0  0  0  0  0  0
  192.2230  174.9980  137.1430 C   0  0  0  0  0  0  0  0  0  0  0  0
  189.9850  177.5230  139.8910 C   0  0  0  0  0  0  0  0  0  0  0  0
  189.9610  177.1990  142.6750 C   0  0  0  0  0  3  0  0  0  0  0  0
  191.6480  175.9310  138.0100 C   0  0  0  0  0  3  0  0  0  0  0  0
  187.5230  177.9660  138.4910 C   0  0  2  0  0  3  0  0  0  0  0  0
  192.3290  176.9190  142.6400 F   0  0  0  0  0  0  0  0  0  0  0  0
  189.1680  177.5140  135.7770 O   0  0  0  0  0  0  0  0  0  0  0  0
  193.3090  174.1080  137.6260 C   0  0  0  0  0  1  0  0  0  0  0  0
  187.5760  177.8550  139.9200 O   0  0  0  0  0  0  0  0  0  0  0  0
  188.8430  178.5410  137.9700 C   0  0  2  0  0  3  0  0  0  0  0  0
  191.1830  177.3030  140.5860 C   0  0  0  0  0  3  0  0  0  0  0  0
  191.7670  174.8950  135.8270 C   0  0  0  0  0  3  0  0  0  0  0  0
  188.7730  177.5950  140.6040 C   0  0  0  0  0  0  0  0  0  0  0  0
  188.7640  177.4300  141.9910 C   0  0  0  0  0  3  0  0  0  0  0  0
  188.8700  178.7310  136.4500 C   0  0  0  0  0  2  0  0  0  0  0  0
  190.1830  176.6780  136.2350 C   0  0  0  0  0  0  0  0  0  0  0  0
  190.7460  175.7320  135.3740 C   0  0  0  0  0  3  0  0  0  0  0  0
  186.4020  178.8190  138.1170 N   0  0  0  0  0  2  0  0  0  0  0  0
  185.8930  176.6270  137.2060 C   0  0  0  0  0  1  0  0  0  0  0  0
  185.3130  177.9450  137.7030 C   0  0  1  0  0  3  0  0  0  0  0  0
  181.8190  178.9400  138.0970 C   0  0  1  0  0  3  0  0  0  0  0  0
  183.0910  176.9350  138.3420 C   0  0  0  0  0  2  0  0  0  0  0  0
  184.8510  179.7060  140.1200 O   0  0  0  0  0  1  0  0  0  0  0  0
  180.9730  179.7590  137.1460 C   0  0  0  0  0  1  0  0  0  0  0  0
  182.3430  177.7660  137.3960 N   0  0  0  0  0  2  0  0  0  0  0  0
  183.8170  178.9550  139.5640 C   0  0  2  0  0  3  0  0  0  0  0  0
  184.3270  177.6840  138.8610 C   0  0  2  0  0  3  0  0  0  0  0  0
  182.9630  179.8010  138.6270 C   0  0  0  0  0  2  0  0  0  0  0  0
  1  9  1  0  0  0  0
  1  6  1  0  0  0  0
  2  5  1  0  0  0  0
  3  7  1  0  0  0  0
  3  2  1  0  0  0  0
  4 11  1  0  0  0  0
  4  7  2  0  0  0  0
  5 14  1  0  0  0  0
  5 16  2  0  0  0  0
  8 21  1  1  0  0  0
  8 12  1  0  0  0  0
 10 19  1  0  0  0  0
 10 18  1  0  0  0  0
 12 16  1  0  0  0  0
 13 18  1  6  0  0  0
 13  2  1  0  0  0  0
 13  8  1  0  0  0  0
 14  1  2  0  0  0  0
 15  4  1  0  0  0  0
 16 17  1  0  0  0  0
 17  6  2  0  0  0  0
 19  3  2  0  0  0  0
 20 15  2  0  0  0  0
 20 19  1  0  0  0  0
 23 22  1  1  0  0  0
 23 21  1  0  0  0  0
 24 27  1  6  0  0  0
 24 31  1  0  0  0  0
 25 30  1  0  0  0  0
 28 24  1  0  0  0  0
 28 25  1  0  0  0  0
 29 26  1  6  0  0  0
 30 23  1  6  0  0  0
 30 29  1  0  0  0  0
 31 29  1  0  0  0  0
M  END
>  <MODEL>
3

>  <REMARK>
 VINA RESULT:      -8.3      3.151      6.482
  Name = 
  3 active torsions:
  status: ('A' for Active; 'I' for Inactive)
    1  A    between atoms: C_5  and  N_16
    2  A    between atoms: C_5  and  C_30
    3  A    between atoms: C_10  and  N_16
                            x       y       z     vdW  Elec       q    Type
                         _______ _______ _______ _____ _____    ______ ____

>  <TORSDO>
F 3

$$$$
=
 OpenBabel11122410543D

 31 35  0  0  1  0  0  0  0  0999 V2000
  184.4410  178.4490  142.9480 C   0  0  0  0  0  0  0  0  0  0  0  0
  183.4010  178.0780  139.3540 N   0  0  0  0  0  0  0  0  0  0  0  0
  182.1580  178.7900  139.1370 C   0  0  0  0  0  0  0  0  0  0  0  0
  180.2940  180.1290  139.9470 C   0  0  0  0  0  0  0  0  0  0  0  0
  184.1930  178.2910  140.5390 C   0  0  0  0  0  0  0  0  0  0  0  0
  185.8080  178.6960  142.7940 C   0  0  0  0  0  3  0  0  0  0  0  0
  181.4510  179.3870  140.1950 C   0  0  0  0  0  3  0  0  0  0  0  0
  185.3560  178.4020  137.9210 C   0  0  2  0  0  3  0  0  0  0  0  0
  183.8960  178.4060  144.1880 F   0  0  0  0  0  0  0  0  0  0  0  0
  182.3650  178.3690  136.7650 O   0  0  0  0  0  0  0  0  0  0  0  0
  179.5560  180.7510  141.0780 C   0  0  0  0  0  1  0  0  0  0  0  0
  186.1450  178.5400  139.1090 O   0  0  0  0  0  0  0  0  0  0  0  0
  184.1410  177.5150  138.2100 C   0  0  2  0  0  3  0  0  0  0  0  0
  183.6350  178.2420  141.8250 C   0  0  0  0  0  3  0  0  0  0  0  0
  179.8390  180.2980  138.6380 C   0  0  0  0  0  3  0  0  0  0  0  0
  185.5730  178.5300  140.3900 C   0  0  0  0  0  0  0  0  0  0  0  0
  186.3750  178.7350  141.5160 C   0  0  0  0  0  3  0  0  0  0  0  0
  183.2520  177.2780  136.9850 C   0  0  0  0  0  2  0  0  0  0  0  0
  181.6800  178.9540  137.8260 C   0  0  0  0  0  0  0  0  0  0  0  0
  180.5330  179.7130  137.5770 C   0  0  0  0  0  3  0  0  0  0  0  0
  186.1770  177.8280  136.8630 N   0  0  0  0  0  2  0  0  0  0  0  0
  186.8090  175.5190  137.2630 C   0  0  0  0  0  1  0  0  0  0  0  0
  187.1730  176.9790  137.5010 C   0  0  1  0  0  3  0  0  0  0  0  0
  190.3850  177.1030  139.2400 C   0  0  1  0  0  3  0  0  0  0  0  0
  189.5190  176.0810  137.2640 C   0  0  0  0  0  2  0  0  0  0  0  0
  188.5230  179.6790  137.2970 O   0  0  0  0  0  1  0  0  0  0  0  0
  190.6490  176.9100  140.7180 C   0  0  0  0  0  1  0  0  0  0  0  0
  189.6980  175.9240  138.7100 N   0  0  0  0  0  2  0  0  0  0  0  0
  189.2570  178.5200  137.5480 C   0  0  2  0  0  3  0  0  0  0  0  0
  188.5890  177.2650  136.9590 C   0  0  2  0  0  3  0  0  0  0  0  0
  189.5330  178.3540  139.0370 C   0  0  0  0  0  2  0  0  0  0  0  0
  1  9  1  0  0  0  0
  2  5  1  0  0  0  0
  3  2  1  0  0  0  0
  3  7  1  0  0  0  0
  4  7  2  0  0  0  0
  4 11  1  0  0  0  0
  5 14  1  0  0  0  0
  6  1  1  0  0  0  0
  8 21  1  6  0  0  0
  8 13  1  0  0  0  0
  8 12  1  0  0  0  0
 10 18  1  0  0  0  0
 10 19  1  0  0  0  0
 12 16  1  0  0  0  0
 13 18  1  6  0  0  0
 13  2  1  0  0  0  0
 14  1  2  0  0  0  0
 15  4  1  0  0  0  0
 16  5  2  0  0  0  0
 16 17  1  0  0  0  0
 17  6  2  0  0  0  0
 19  3  2  0  0  0  0
 20 19  1  0  0  0  0
 20 15  2  0  0  0  0
 21 23  1  0  0  0  0
 23 22  1  6  0  0  0
 24 27  1  1  0  0  0
 25 28  1  0  0  0  0
 28 24  1  0  0  0  0
 29 26  1  1  0  0  0
 29 31  1  0  0  0  0
 30 25  1  0  0  0  0
 30 23  1  1  0  0  0
 30 29  1  0  0  0  0
 31 24  1  0  0  0  0
M  END
>  <MODEL>
4

>  <REMARK>
 VINA RESULT:      -8.3      3.138      6.527
  Name = 
  3 active torsions:
  status: ('A' for Active; 'I' for Inactive)
    1  A    between atoms: C_5  and  N_16
    2  A    between atoms: C_5  and  C_30
    3  A    between atoms: C_10  and  N_16
                            x       y       z     vdW  Elec       q    Type
                         _______ _______ _______ _____ _____    ______ ____

>  <TORSDO>
F 3

$$$$
=
 OpenBabel11122410543D

 31 35  0  0  1  0  0  0  0  0999 V2000
  185.0090  179.4080  144.9840 C   0  0  0  0  0  0  0  0  0  0  0  0
  185.4410  179.1270  141.2600 N   0  0  0  0  0  0  0  0  0  0  0  0
  186.7580  178.5980  140.9670 C   0  0  0  0  0  0  0  0  0  0  0  0
  188.9450  177.7990  141.6760 C   0  0  0  0  0  0  0  0  0  0  0  0
  184.8810  179.0580  142.5870 C   0  0  0  0  0  0  0  0  0  0  0  0
  183.7100  178.9110  145.1290 C   0  0  0  0  0  3  0  0  0  0  0  0
  187.7100  178.3790  141.9770 C   0  0  0  0  0  3  0  0  0  0  0  0
  183.4090  178.1720  140.2910 C   0  0  2  0  0  3  0  0  0  0  0  0
  185.7030  179.8170  146.0740 F   0  0  0  0  0  0  0  0  0  0  0  0
  186.1410  178.4350  138.6350 O   0  0  0  0  0  0  0  0  0  0  0  0
  189.9420  177.5770  142.7550 C   0  0  0  0  0  1  0  0  0  0  0  0
  182.8370  178.1770  141.6060 O   0  0  0  0  0  0  0  0  0  0  0  0
  184.4520  179.2890  140.1800 C   0  0  2  0  0  3  0  0  0  0  0  0
  185.5920  179.4860  143.7170 C   0  0  0  0  0  3  0  0  0  0  0  0
  189.2370  177.4180  140.3650 C   0  0  0  0  0  3  0  0  0  0  0  0
  183.5690  178.5690  142.7370 C   0  0  0  0  0  0  0  0  0  0  0  0
  182.9900  178.4940  144.0060 C   0  0  0  0  0  3  0  0  0  0  0  0
  185.0960  179.3870  138.7930 C   0  0  0  0  0  2  0  0  0  0  0  0
  187.0710  178.2240  139.6490 C   0  0  0  0  0  0  0  0  0  0  0  0
  188.2990  177.6270  139.3520 C   0  0  0  0  0  3  0  0  0  0  0  0
  182.3500  178.3520  139.3060 N   0  0  0  0  0  2  0  0  0  0  0  0
  181.6170  180.6480  139.0280 C   0  0  0  0  0  1  0  0  0  0  0  0
  181.4420  179.3630  139.8270 C   0  0  1  0  0  3  0  0  0  0  0  0
  178.9310  179.0630  142.4650 C   0  0  1  0  0  3  0  0  0  0  0  0
  179.0410  180.0000  140.2710 C   0  0  0  0  0  2  0  0  0  0  0  0
  180.4260  176.5350  140.1750 O   0  0  0  0  0  1  0  0  0  0  0  0
  179.0960  179.3500  143.9420 C   0  0  0  0  0  1  0  0  0  0  0  0
  179.2820  180.2570  141.6940 N   0  0  0  0  0  2  0  0  0  0  0  0
  179.6660  177.6310  140.5800 C   0  0  2  0  0  3  0  0  0  0  0  0
  179.9730  178.8940  139.7560 C   0  0  2  0  0  3  0  0  0  0  0  0
  179.8270  177.8910  142.0730 C   0  0  0  0  0  2  0  0  0  0  0  0
  1  6  1  0  0  0  0
  1  9  1  0  0  0  0
  2  5  1  0  0  0  0
  3  2  1  0  0  0  0
  3  7  1  0  0  0  0
  4  7  2  0  0  0  0
  4 11  1  0  0  0  0
  5 16  2  0  0  0  0
  5 14  1  0  0  0  0
  8 21  1  6  0  0  0
  8 12  1  0  0  0  0
 10 18  1  0  0  0  0
 10 19  1  0  0  0  0
 12 16  1  0  0  0  0
 13 18  1  6  0  0  0
 13  8  1  0  0  0  0
 13  2  1  0  0  0  0
 14  1  2  0  0  0  0
 15  4  1  0  0  0  0
 16 17  1  0  0  0  0
 17  6  2  0  0  0  0
 19  3  2  0  0  0  0
 20 19  1  0  0  0  0
 20 15  2  0  0  0  0
 21 23  1  0  0  0  0
 23 22  1  6  0  0  0
 24 27  1  1  0  0  0
 25 28  1  0  0  0  0
 28 24  1  0  0  0  0
 29 26  1  6  0  0  0
 29 31  1  0  0  0  0
 30 23  1  1  0  0  0
 30 25  1  0  0  0  0
 30 29  1  0  0  0  0
 31 24  1  0  0  0  0
M  END
>  <MODEL>
5

>  <REMARK>
 VINA RESULT:      -8.2      3.274      6.041
  Name = 
  3 active torsions:
  status: ('A' for Active; 'I' for Inactive)
    1  A    between atoms: C_5  and  N_16
    2  A    between atoms: C_5  and  C_30
    3  A    between atoms: C_10  and  N_16
                            x       y       z     vdW  Elec       q    Type
                         _______ _______ _______ _____ _____    ______ ____

>  <TORSDO>
F 3

$$$$
=
 OpenBabel11122410543D

 31 35  0  0  1  0  0  0  0  0999 V2000
  185.3500  178.7600  143.9900 C   0  0  0  0  0  0  0  0  0  0  0  0
  189.0570  178.1830  143.7410 N   0  0  0  0  0  0  0  0  0  0  0  0
  189.5440  177.6380  144.9930 C   0  0  0  0  0  0  0  0  0  0  0  0
  189.1870  176.9090  147.2880 C   0  0  0  0  0  0  0  0  0  0  0  0
  187.6490  178.2190  143.4340 C   0  0  0  0  0  0  0  0  0  0  0  0
  184.9320  178.2700  142.7490 C   0  0  0  0  0  3  0  0  0  0  0  0
  188.7120  177.5050  146.1170 C   0  0  0  0  0  3  0  0  0  0  0  0
  189.5590  177.1450  141.5850 C   0  0  2  0  0  3  0  0  0  0  0  0
  184.4410  179.2580  144.8630 F   0  0  0  0  0  0  0  0  0  0  0  0
  191.7040  177.2860  143.9640 O   0  0  0  0  0  0  0  0  0  0  0  0
  188.2950  176.7780  148.4680 C   0  0  0  0  0  1  0  0  0  0  0  0
  188.1670  177.2530  141.2620 O   0  0  0  0  0  0  0  0  0  0  0  0
  189.9470  178.2530  142.5690 C   0  0  2  0  0  3  0  0  0  0  0  0
  186.7050  178.7380  144.3310 C   0  0  0  0  0  3  0  0  0  0  0  0
  190.4960  176.4240  147.3430 C   0  0  0  0  0  3  0  0  0  0  0  0
  187.2230  177.7370  142.1810 C   0  0  0  0  0  0  0  0  0  0  0  0
  185.8680  177.7610  141.8440 C   0  0  0  0  0  3  0  0  0  0  0  0
  191.4310  178.2430  142.9470 C   0  0  0  0  0  2  0  0  0  0  0  0
  190.8630  177.1610  145.0670 C   0  0  0  0  0  0  0  0  0  0  0  0
  191.3330  176.5470  146.2320 C   0  0  0  0  0  3  0  0  0  0  0  0
  190.3450  177.2400  140.3620 N   0  0  0  0  0  2  0  0  0  0  0  0
  189.0160  179.0030  139.3540 C   0  0  0  0  0  1  0  0  0  0  0  0
  189.4210  177.5360  139.2760 C   0  0  1  0  0  3  0  0  0  0  0  0
  187.8800  176.3310  136.1890 C   0  0  1  0  0  3  0  0  0  0  0  0
  189.3750  178.0860  136.8140 C   0  0  0  0  0  2  0  0  0  0  0  0
  190.5560  174.8910  138.3440 O   0  0  0  0  0  1  0  0  0  0  0  0
  186.4300  175.9680  135.9550 C   0  0  0  0  0  1  0  0  0  0  0  0
  187.9650  177.7120  136.6690 N   0  0  0  0  0  2  0  0  0  0  0  0
  189.9360  175.7670  137.4530 C   0  0  2  0  0  3  0  0  0  0  0  0
  190.0500  177.2350  137.9000 C   0  0  2  0  0  3  0  0  0  0  0  0
  188.4840  175.3720  137.2120 C   0  0  0  0  0  2  0  0  0  0  0  0
  1 14  1  0  0  0  0
  1  9  1  0  0  0  0
  2  3  1  0  0  0  0
  3 19  2  0  0  0  0
  3  7  1  0  0  0  0
  4 15  1  0  0  0  0
  4 11  1  0  0  0  0
  5  2  1  0  0  0  0
  5 14  2  0  0  0  0
  6  1  2  0  0  0  0
  7  4  2  0  0  0  0
  8 21  1  6  0  0  0
  8 13  1  0  0  0  0
 10 19  1  0  0  0  0
 12  8  1  0  0  0  0
 12 16  1  0  0  0  0
 13 18  1  1  0  0  0
 13  2  1  0  0  0  0
 16  5  1  0  0  0  0
 17 16  2  0  0  0  0
 17  6  1  0  0  0  0
 18 10  1  0  0  0  0
 19 20  1  0  0  0  0
 20 15  2  0  0  0  0
 23 22  1  6  0  0  0
 23 21  1  0  0  0  0
 24 27  1  1  0  0  0
 24 28  1  0  0  0  0
 24 31  1  0  0  0  0
 25 30  1  0  0  0  0
 28 25  1  0  0  0  0
 29 30  1  0  0  0  0
 29 26  1  1  0  0  0
 30 23  1  1  0  0  0
 31 29  1  0  0  0  0
M  END
>  <MODEL>
6

>  <REMARK>
 VINA RESULT:      -8.0      2.969      4.553
  Name = 
  3 active torsions:
  status: ('A' for Active; 'I' for Inactive)
    1  A    between atoms: C_5  and  N_16
    2  A    between atoms: C_5  and  C_30
    3  A    between atoms: C_10  and  N_16
                            x       y       z     vdW  Elec       q    Type
                         _______ _______ _______ _____ _____    ______ ____

>  <TORSDO>
F 3

$$$$
=
 OpenBabel11122410543D

 31 35  0  0  1  0  0  0  0  0999 V2000
  180.1590  179.1360  143.4710 C   0  0  0  0  0  0  0  0  0  0  0  0
  183.4920  178.8660  141.7520 N   0  0  0  0  0  0  0  0  0  0  0  0
  184.5210  178.5980  142.7370 C   0  0  0  0  0  0  0  0  0  0  0  0
  185.2380  178.2540  145.0370 C   0  0  0  0  0  0  0  0  0  0  0  0
  182.0930  178.7180  142.0660 C   0  0  0  0  0  0  0  0  0  0  0  0
  179.3590  178.3990  142.5930 C   0  0  0  0  0  3  0  0  0  0  0  0
  184.2440  178.5890  144.1150 C   0  0  0  0  0  3  0  0  0  0  0  0
  183.2390  177.5150  139.7300 C   0  0  2  0  0  3  0  0  0  0  0  0
  179.6140  179.6940  144.5790 F   0  0  0  0  0  0  0  0  0  0  0  0
  186.1100  178.2690  140.9430 O   0  0  0  0  0  0  0  0  0  0  0  0
  184.9300  178.2520  146.4910 C   0  0  0  0  0  1  0  0  0  0  0  0
  181.8370  177.4370  140.0150 O   0  0  0  0  0  0  0  0  0  0  0  0
  183.8110  178.8100  140.3140 C   0  0  2  0  0  3  0  0  0  0  0  0
  181.5220  179.2990  143.2080 C   0  0  0  0  0  3  0  0  0  0  0  0
  186.5170  177.9090  144.5930 C   0  0  0  0  0  3  0  0  0  0  0  0
  181.2800  177.9860  141.1800 C   0  0  0  0  0  0  0  0  0  0  0  0
  179.9180  177.8270  141.4470 C   0  0  0  0  0  3  0  0  0  0  0  0
  185.3040  179.0030  140.0290 C   0  0  0  0  0  2  0  0  0  0  0  0
  185.8150  178.2640  142.3040 C   0  0  0  0  0  0  0  0  0  0  0  0
  186.8040  177.9110  143.2270 C   0  0  0  0  0  3  0  0  0  0  0  0
  183.4400  177.4650  138.2880 N   0  0  0  0  0  2  0  0  0  0  0  0
  182.8200  175.1290  138.0690 C   0  0  0  0  0  1  0  0  0  0  0  0
  183.9540  176.1410  137.9680 C   0  0  1  0  0  3  0  0  0  0  0  0
  186.4190  173.8530  136.5370 C   0  0  1  0  0  3  0  0  0  0  0  0
  184.2970  174.7410  135.8970 C   0  0  0  0  0  2  0  0  0  0  0  0
  186.4770  177.5420  137.0570 O   0  0  0  0  0  1  0  0  0  0  0  0
  187.1220  172.7000  137.2190 C   0  0  0  0  0  1  0  0  0  0  0  0
  184.9700  173.6660  136.6300 N   0  0  0  0  0  2  0  0  0  0  0  0
  186.0980  176.3110  136.5210 C   0  0  2  0  0  3  0  0  0  0  0  0
  184.5740  176.1010  136.5560 C   0  0  2  0  0  3  0  0  0  0  0  0
  186.8320  175.1630  137.2040 C   0  0  0  0  0  2  0  0  0  0  0  0
  1  9  1  0  0  0  0
  2  5  1  0  0  0  0
  2  3  1  0  0  0  0
  3  7  1  0  0  0  0
  4 11  1  0  0  0  0
  5 14  2  0  0  0  0
  6  1  2  0  0  0  0
  7  4  2  0  0  0  0
  8 21  1  6  0  0  0
  8 12  1  0  0  0  0
  8 13  1  0  0  0  0
 10 19  1  0  0  0  0
 12 16  1  0  0  0  0
 13 18  1  1  0  0  0
 13  2  1  0  0  0  0
 14  1  1  0  0  0  0
 15  4  1  0  0  0  0
 16 17  2  0  0  0  0
 16  5  1  0  0  0  0
 17  6  1  0  0  0  0
 18 10  1  0  0  0  0
 19  3  2  0  0  0  0
 19 20  1  0  0  0  0
 20 15  2  0  0  0  0
 23 22  1  6  0  0  0
 23 21  1  0  0  0  0
 24 28  1  0  0  0  0
 24 31  1  0  0  0  0
 24 27  1  1  0  0  0
 25 30  1  0  0  0  0
 25 28  1  0  0  0  0
 29 30  1  0  0  0  0
 29 26  1  1  0  0  0
 29 31  1  0  0  0  0
 30 23  1  1  0  0  0
M  END
>  <MODEL>
7

>  <REMARK>
 VINA RESULT:      -7.9      3.165      5.399
  Name = 
  3 active torsions:
  status: ('A' for Active; 'I' for Inactive)
    1  A    between atoms: C_5  and  N_16
    2  A    between atoms: C_5  and  C_30
    3  A    between atoms: C_10  and  N_16
                            x       y       z     vdW  Elec       q    Type
                         _______ _______ _______ _____ _____    ______ ____

>  <TORSDO>
F 3

$$$$
=
 OpenBabel11122410543D

 31 35  0  0  1  0  0  0  0  0999 V2000
  180.1940  179.0410  143.4290 C   0  0  0  0  0  0  0  0  0  0  0  0
  183.5860  178.8360  141.8200 N   0  0  0  0  0  0  0  0  0  0  0  0
  184.5870  178.5880  142.8380 C   0  0  0  0  0  0  0  0  0  0  0  0
  185.2360  178.2610  145.1610 C   0  0  0  0  0  0  0  0  0  0  0  0
  182.1800  178.6610  142.0890 C   0  0  0  0  0  0  0  0  0  0  0  0
  179.4370  178.2890  142.5270 C   0  0  0  0  0  3  0  0  0  0  0  0
  184.2660  178.5750  144.2060 C   0  0  0  0  0  3  0  0  0  0  0  0
  183.4250  177.4780  139.7920 C   0  0  2  0  0  3  0  0  0  0  0  0
  179.6020  179.5900  144.5170 F   0  0  0  0  0  0  0  0  0  0  0  0
  186.2390  178.2890  141.0980 O   0  0  0  0  0  0  0  0  0  0  0  0
  184.8800  178.2540  146.6040 C   0  0  0  0  0  1  0  0  0  0  0  0
  182.0160  177.3720  140.0320 O   0  0  0  0  0  0  0  0  0  0  0  0
  183.9520  178.7850  140.3930 C   0  0  2  0  0  3  0  0  0  0  0  0
  181.5620  179.2310  143.2100 C   0  0  0  0  0  3  0  0  0  0  0  0
  186.5340  177.9410  144.7590 C   0  0  0  0  0  3  0  0  0  0  0  0
  181.4110  177.9120  141.1770 C   0  0  0  0  0  0  0  0  0  0  0  0
  180.0440  177.7260  141.4000 C   0  0  0  0  0  3  0  0  0  0  0  0
  185.4500  179.0060  140.1560 C   0  0  0  0  0  2  0  0  0  0  0  0
  185.9010  178.2800  142.4480 C   0  0  0  0  0  0  0  0  0  0  0  0
  186.8660  177.9470  143.4030 C   0  0  0  0  0  3  0  0  0  0  0  0
  183.6740  177.4300  138.3580 N   0  0  0  0  0  2  0  0  0  0  0  0
  181.9780  178.5830  137.0590 C   0  0  0  0  0  1  0  0  0  0  0  0
  182.3850  177.2630  137.7010 C   0  0  1  0  0  3  0  0  0  0  0  0
  180.1500  174.4260  137.1420 C   0  0  1  0  0  3  0  0  0  0  0  0
  181.1370  176.1470  135.8130 C   0  0  0  0  0  2  0  0  0  0  0  0
  183.7860  174.5910  137.9350 O   0  0  0  0  0  1  0  0  0  0  0  0
  178.9310  174.0310  137.9470 C   0  0  0  0  0  1  0  0  0  0  0  0
  179.9920  175.8000  136.6600 N   0  0  0  0  0  2  0  0  0  0  0  0
  182.6090  174.7300  137.1990 C   0  0  2  0  0  3  0  0  0  0  0  0
  182.4350  176.1500  136.6330 C   0  0  2  0  0  3  0  0  0  0  0  0
  181.3950  174.3060  138.0170 C   0  0  0  0  0  2  0  0  0  0  0  0
  1  9  1  0  0  0  0
  2  5  1  0  0  0  0
  2  3  1  0  0  0  0
  3  7  1  0  0  0  0
  4 11  1  0  0  0  0
  5 14  2  0  0  0  0
  6  1  2  0  0  0  0
  7  4  2  0  0  0  0
  8 21  1  6  0  0  0
  8 12  1  0  0  0  0
  8 13  1  0  0  0  0
 10 19  1  0  0  0  0
 12 16  1  0  0  0  0
 13 18  1  1  0  0  0
 13  2  1  0  0  0  0
 14  1  1  0  0  0  0
 15  4  1  0  0  0  0
 16 17  2  0  0  0  0
 16  5  1  0  0  0  0
 17  6  1  0  0  0  0
 18 10  1  0  0  0  0
 19  3  2  0  0  0  0
 19 20  1  0  0  0  0
 20 15  2  0  0  0  0
 23 22  1  6  0  0  0
 23 21  1  0  0  0  0
 24 27  1  1  0  0  0
 24 31  1  0  0  0  0
 25 30  1  0  0  0  0
 25 28  1  0  0  0  0
 28 24  1  0  0  0  0
 29 26  1  1  0  0  0
 29 31  1  0  0  0  0
 30 29  1  0  0  0  0
 30 23  1  1  0  0  0
M  END
>  <MODEL>
8

>  <REMARK>
 VINA RESULT:      -7.8      3.698      5.744
  Name = 
  3 active torsions:
  status: ('A' for Active; 'I' for Inactive)
    1  A    between atoms: C_5  and  N_16
    2  A    between atoms: C_5  and  C_30
    3  A    between atoms: C_10  and  N_16
                            x       y       z     vdW  Elec       q    Type
                         _______ _______ _______ _____ _____    ______ ____

>  <TORSDO>
F 3

$$$$
=
 OpenBabel11122410543D

 31 35  0  0  1  0  0  0  0  0999 V2000
  191.8110  177.3840  141.0670 C   0  0  0  0  0  0  0  0  0  0  0  0
  188.7340  177.6320  138.9200 N   0  0  0  0  0  0  0  0  0  0  0  0
  188.7080  176.5240  137.9860 C   0  0  0  0  0  0  0  0  0  0  0  0
  189.6960  174.5180  137.0240 C   0  0  0  0  0  0  0  0  0  0  0  0
  189.6180  177.6360  140.0590 C   0  0  0  0  0  0  0  0  0  0  0  0
  191.2720  177.6840  142.3210 C   0  0  0  0  0  3  0  0  0  0  0  0
  189.7780  175.6190  137.8800 C   0  0  0  0  0  3  0  0  0  0  0  0
  186.8180  178.1890  140.3340 C   0  0  2  0  0  3  0  0  0  0  0  0
  193.1330  177.1140  140.9440 F   0  0  0  0  0  0  0  0  0  0  0  0
  186.4840  177.1880  137.3070 O   0  0  0  0  0  0  0  0  0  0  0  0
  190.8370  173.5720  136.9210 C   0  0  0  0  0  1  0  0  0  0  0  0
  187.7210  178.2610  141.4460 O   0  0  0  0  0  0  0  0  0  0  0  0
  187.5680  178.5250  139.0410 C   0  0  2  0  0  3  0  0  0  0  0  0
  190.9880  177.3630  139.9370 C   0  0  0  0  0  3  0  0  0  0  0  0
  188.5370  174.2990  136.2770 C   0  0  0  0  0  3  0  0  0  0  0  0
  189.0830  177.9480  141.3230 C   0  0  0  0  0  0  0  0  0  0  0  0
  189.9090  177.9680  142.4490 C   0  0  0  0  0  3  0  0  0  0  0  0
  186.6760  178.5100  137.7960 C   0  0  0  0  0  2  0  0  0  0  0  0
  187.5540  176.3010  137.2170 C   0  0  0  0  0  0  0  0  0  0  0  0
  187.4650  175.1890  136.3750 C   0  0  0  0  0  3  0  0  0  0  0  0
  185.7160  179.1170  140.5490 N   0  0  0  0  0  2  0  0  0  0  0  0
  184.6680  178.1300  142.5040 C   0  0  0  0  0  1  0  0  0  0  0  0
  184.5730  178.3330  140.9970 C   0  0  1  0  0  3  0  0  0  0  0  0
  182.0540  177.4560  138.4990 C   0  0  1  0  0  3  0  0  0  0  0  0
  182.0730  178.0400  140.8140 C   0  0  0  0  0  2  0  0  0  0  0  0
  184.1530  180.5020  138.9300 O   0  0  0  0  0  1  0  0  0  0  0  0
  182.0830  176.3080  137.5130 C   0  0  0  0  0  1  0  0  0  0  0  0
  182.1860  176.9330  139.8600 N   0  0  0  0  0  2  0  0  0  0  0  0
  183.1630  179.5590  139.2000 C   0  0  2  0  0  3  0  0  0  0  0  0
  183.2400  179.0240  140.6410 C   0  0  2  0  0  3  0  0  0  0  0  0
  183.1930  178.4230  138.1840 C   0  0  0  0  0  2  0  0  0  0  0  0
  1  6  1  0  0  0  0
  2 13  1  0  0  0  0
  2  5  1  0  0  0  0
  3  2  1  0  0  0  0
  4  7  2  0  0  0  0
  5 16  2  0  0  0  0
  6 17  2  0  0  0  0
  7  3  1  0  0  0  0
  8 21  1  1  0  0  0
  8 12  1  0  0  0  0
  9  1  1  0  0  0  0
 10 18  1  0  0  0  0
 11  4  1  0  0  0  0
 13 18  1  6  0  0  0
 13  8  1  0  0  0  0
 14  5  1  0  0  0  0
 14  1  2  0  0  0  0
 15 20  2  0  0  0  0
 15  4  1  0  0  0  0
 16 12  1  0  0  0  0
 16 17  1  0  0  0  0
 19 10  1  0  0  0  0
 19  3  2  0  0  0  0
 20 19  1  0  0  0  0
 21 23  1  0  0  0  0
 23 22  1  1  0  0  0
 24 27  1  6  0  0  0
 24 28  1  0  0  0  0
 28 25  1  0  0  0  0
 29 26  1  6  0  0  0
 29 30  1  0  0  0  0
 30 25  1  0  0  0  0
 30 23  1  6  0  0  0
 31 24  1  0  0  0  0
 31 29  1  0  0  0  0
M  END
>  <MODEL>
9

>  <REMARK>
 VINA RESULT:      -7.8      2.804      5.768
  Name = 
  3 active torsions:
  status: ('A' for Active; 'I' for Inactive)
    1  A    between atoms: C_5  and  N_16
    2  A    between atoms: C_5  and  C_30
    3  A    between atoms: C_10  and  N_16
                            x       y       z     vdW  Elec       q    Type
                         _______ _______ _______ _____ _____    ______ ____

>  <TORSDO>
F 3

$$$$
