=
 OpenBabel11122411093D

 31 35  0  0  1  0  0  0  0  0999 V2000
  189.7690  177.0630  145.2470 C   0  0  0  0  0  0  0  0  0  0  0  0
  187.1000  178.2000  142.8460 C   0  0  0  0  0  0  0  0  0  0  0  0
  185.9200  178.4480  143.6130 C   0  0  0  0  0  0  0  0  0  0  0  0
  184.6920  178.5230  145.7260 C   0  0  0  0  0  0  0  0  0  0  0  0
  188.3430  177.7510  143.3870 C   0  0  0  0  0  0  0  0  0  0  0  0
  190.8360  176.8630  144.3720 C   0  0  0  0  0  3  0  0  0  0  0  0
  185.8630  178.2710  145.0080 C   0  0  0  0  0  3  0  0  0  0  0  0
  188.1480  178.1950  140.6310 C   0  0  0  0  0  0  0  0  0  0  0  0
  189.9280  176.8300  146.5720 F   0  0  0  0  0  0  0  0  0  0  0  0
  184.7480  179.0840  141.5840 C   0  0  0  0  0  3  0  0  0  0  0  0
  184.6680  178.3390  147.1010 O   0  0  0  0  0  1  0  0  0  0  0  0
  189.3100  177.7670  141.1830 N   0  0  0  0  0  0  0  0  0  0  0  0
  187.0270  178.4190  141.4410 C   0  0  0  0  0  0  0  0  0  0  0  0
  188.0640  178.4140  139.2190 N   0  0  0  0  0  2  0  0  0  0  0  0
  188.5380  177.5020  144.7570 C   0  0  0  0  0  3  0  0  0  0  0  0
  183.5460  178.9600  145.0610 C   0  0  0  0  0  3  0  0  0  0  0  0
  189.4390  177.5430  142.5130 C   0  0  0  0  0  0  0  0  0  0  0  0
  190.6710  177.1020  143.0080 C   0  0  0  0  0  3  0  0  0  0  0  0
  185.8700  178.8460  140.8670 N   0  0  0  0  0  0  0  0  0  0  0  0
  184.7440  178.8930  142.9580 C   0  0  0  0  0  0  0  0  0  0  0  0
  183.5730  179.1450  143.6790 C   0  0  0  0  0  3  0  0  0  0  0  0
  189.0950  179.1890  137.1420 C   0  0  0  0  0  1  0  0  0  0  0  0
  189.1970  178.2330  138.3200 C   0  0  2  0  0  3  0  0  0  0  0  0
  189.3960  174.1600  136.9520 C   0  0  0  0  0  0  0  0  0  0  0  0
  188.1060  176.1600  137.3870 C   0  0  0  0  0  3  0  0  0  0  0  0
  191.6160  176.7380  138.2890 F   0  0  0  0  0  0  0  0  0  0  0  0
  189.4620  172.8770  136.5220 F   0  0  0  0  0  0  0  0  0  0  0  0
  188.1740  174.8380  136.9430 C   0  0  0  0  0  3  0  0  0  0  0  0
  190.4860  176.1290  137.8520 C   0  0  0  0  0  0  0  0  0  0  0  0
  189.2610  176.8140  137.8450 C   0  0  0  0  0  0  0  0  0  0  0  0
  190.5490  174.8050  137.4060 C   0  0  0  0  0  3  0  0  0  0  0  0
  1  9  1  0  0  0  0
  2  5  1  0  0  0  0
  2  3  1  0  0  0  0
  3  7  1  0  0  0  0
  4 11  1  0  0  0  0
  5 15  2  0  0  0  0
  6  1  2  0  0  0  0
  7  4  2  0  0  0  0
  8 12  2  0  0  0  0
  8 13  1  0  0  0  0
 10 20  1  0  0  0  0
 12 17  1  0  0  0  0
 13  2  2  0  0  0  0
 14  8  1  0  0  0  0
 15  1  1  0  0  0  0
 16  4  1  0  0  0  0
 17 18  2  0  0  0  0
 17  5  1  0  0  0  0
 18  6  1  0  0  0  0
 19 13  1  0  0  0  0
 19 10  2  0  0  0  0
 20  3  2  0  0  0  0
 20 21  1  0  0  0  0
 21 16  2  0  0  0  0
 23 22  1  6  0  0  0
 23 14  1  0  0  0  0
 24 31  1  0  0  0  0
 25 30  2  0  0  0  0
 27 24  1  0  0  0  0
 28 24  2  0  0  0  0
 28 25  1  0  0  0  0
 29 26  1  0  0  0  0
 30 29  1  0  0  0  0
 30 23  1  0  0  0  0
 31 29  2  0  0  0  0
M  END
>  <MODEL>
1

>  <REMARK>
 VINA RESULT:     -11.4      0.000      0.000
  Name = 
  2 active torsions:
  status: ('A' for Active; 'I' for Inactive)
    1  A    between atoms: C_5  and  N_16
    2  A    between atoms: C_5  and  C_30
                            x       y       z     vdW  Elec       q    Type
                         _______ _______ _______ _____ _____    ______ ____

>  <TORSDO>
F 2

$$$$
=
 OpenBabel11122411093D

 31 35  0  0  1  0  0  0  0  0999 V2000
  189.9140  177.0800  147.0990 C   0  0  0  0  0  0  0  0  0  0  0  0
  188.0350  177.6500  143.8850 C   0  0  0  0  0  0  0  0  0  0  0  0
  186.7110  178.0580  144.2360 C   0  0  0  0  0  0  0  0  0  0  0  0
  184.9780  178.5930  145.8760 C   0  0  0  0  0  0  0  0  0  0  0  0
  189.0650  177.3350  144.8210 C   0  0  0  0  0  0  0  0  0  0  0  0
  191.1600  176.6950  146.6050 C   0  0  0  0  0  3  0  0  0  0  0  0
  186.2810  178.1920  145.5690 C   0  0  0  0  0  3  0  0  0  0  0  0
  189.6240  177.1590  142.0860 C   0  0  0  0  0  0  0  0  0  0  0  0
  189.7060  177.1460  148.4350 F   0  0  0  0  0  0  0  0  0  0  0  0
  186.1490  178.2250  141.8800 C   0  0  0  0  0  3  0  0  0  0  0  0
  184.5850  178.7170  147.2010 O   0  0  0  0  0  1  0  0  0  0  0  0
  190.5750  176.8670  143.0070 N   0  0  0  0  0  0  0  0  0  0  0  0
  188.3440  177.5520  142.4980 C   0  0  0  0  0  0  0  0  0  0  0  0
  189.9250  177.0610  140.6900 N   0  0  0  0  0  2  0  0  0  0  0  0
  188.8800  177.3960  146.2150 C   0  0  0  0  0  3  0  0  0  0  0  0
  184.0730  178.8680  144.8520 C   0  0  0  0  0  3  0  0  0  0  0  0
  190.3390  176.9430  144.3390 C   0  0  0  0  0  0  0  0  0  0  0  0
  191.3710  176.6260  145.2280 C   0  0  0  0  0  3  0  0  0  0  0  0
  187.4050  177.8390  141.5580 N   0  0  0  0  0  0  0  0  0  0  0  0
  185.7740  178.3430  143.2110 C   0  0  0  0  0  0  0  0  0  0  0  0
  184.4710  178.7430  143.5200 C   0  0  0  0  0  3  0  0  0  0  0  0
  192.2620  177.7610  140.5360 C   0  0  0  0  0  1  0  0  0  0  0  0
  191.2420  176.6890  140.1870 C   0  0  2  0  0  3  0  0  0  0  0  0
  191.1080  176.0650  135.9340 C   0  0  0  0  0  0  0  0  0  0  0  0
  189.9900  176.6440  137.9990 C   0  0  0  0  0  3  0  0  0  0  0  0
  193.5240  175.9210  138.6740 F   0  0  0  0  0  0  0  0  0  0  0  0
  191.0700  175.8670  134.5940 F   0  0  0  0  0  0  0  0  0  0  0  0
  189.9500  176.4410  136.6180 C   0  0  0  0  0  3  0  0  0  0  0  0
  192.3520  176.0940  138.0140 C   0  0  0  0  0  0  0  0  0  0  0  0
  191.1900  176.4710  138.7060 C   0  0  0  0  0  0  0  0  0  0  0  0
  192.3070  175.8910  136.6310 C   0  0  0  0  0  3  0  0  0  0  0  0
  1  9  1  0  0  0  0
  2  3  1  0  0  0  0
  2  5  1  0  0  0  0
  3  7  1  0  0  0  0
  4 11  1  0  0  0  0
  5 15  1  0  0  0  0
  6  1  1  0  0  0  0
  7  4  2  0  0  0  0
  8 13  1  0  0  0  0
  8 12  2  0  0  0  0
 10 20  1  0  0  0  0
 12 17  1  0  0  0  0
 13  2  2  0  0  0  0
 14  8  1  0  0  0  0
 15  1  2  0  0  0  0
 16  4  1  0  0  0  0
 17  5  2  0  0  0  0
 17 18  1  0  0  0  0
 18  6  2  0  0  0  0
 19 10  2  0  0  0  0
 19 13  1  0  0  0  0
 20 21  1  0  0  0  0
 20  3  2  0  0  0  0
 21 16  2  0  0  0  0
 23 22  1  6  0  0  0
 23 14  1  0  0  0  0
 24 28  2  0  0  0  0
 24 31  1  0  0  0  0
 25 30  2  0  0  0  0
 27 24  1  0  0  0  0
 28 25  1  0  0  0  0
 29 26  1  0  0  0  0
 29 30  1  0  0  0  0
 30 23  1  0  0  0  0
 31 29  2  0  0  0  0
M  END
>  <MODEL>
2

>  <REMARK>
 VINA RESULT:     -10.4      1.629      2.177
  Name = 
  2 active torsions:
  status: ('A' for Active; 'I' for Inactive)
    1  A    between atoms: C_5  and  N_16
    2  A    between atoms: C_5  and  C_30
                            x       y       z     vdW  Elec       q    Type
                         _______ _______ _______ _____ _____    ______ ____

>  <TORSDO>
F 2

$$$$
=
 OpenBabel11122411093D

 31 35  0  0  1  0  0  0  0  0999 V2000
  190.8650  177.2810  141.6030 C   0  0  0  0  0  0  0  0  0  0  0  0
  187.4870  178.0430  143.0830 C   0  0  0  0  0  0  0  0  0  0  0  0
  187.5920  177.8550  144.4950 C   0  0  0  0  0  0  0  0  0  0  0  0
  188.8510  177.2810  146.5110 C   0  0  0  0  0  0  0  0  0  0  0  0
  188.5550  177.8540  142.1540 C   0  0  0  0  0  0  0  0  0  0  0  0
  190.6110  177.5030  140.2500 C   0  0  0  0  0  3  0  0  0  0  0  0
  188.7850  177.4560  145.1270 C   0  0  0  0  0  3  0  0  0  0  0  0
  186.0520  178.6520  141.1920 C   0  0  0  0  0  0  0  0  0  0  0  0
  192.0990  176.8960  142.0060 F   0  0  0  0  0  0  0  0  0  0  0  0
  185.2560  178.4700  144.7410 C   0  0  0  0  0  3  0  0  0  0  0  0
  190.0430  176.8870  147.1040 O   0  0  0  0  0  1  0  0  0  0  0  0
  187.0910  178.4610  140.3430 N   0  0  0  0  0  0  0  0  0  0  0  0
  186.2230  178.4500  142.5680 C   0  0  0  0  0  0  0  0  0  0  0  0
  184.7770  179.0580  140.6840 N   0  0  0  0  0  2  0  0  0  0  0  0
  189.8470  177.4560  142.5420 C   0  0  0  0  0  3  0  0  0  0  0  0
  187.7210  177.5030  147.2980 C   0  0  0  0  0  3  0  0  0  0  0  0
  188.3160  178.0750  140.7740 C   0  0  0  0  0  0  0  0  0  0  0  0
  189.3390  177.8990  139.8380 C   0  0  0  0  0  3  0  0  0  0  0  0
  185.1670  178.6450  143.4020 N   0  0  0  0  0  0  0  0  0  0  0  0
  186.4560  178.0750  145.3140 C   0  0  0  0  0  0  0  0  0  0  0  0
  186.5250  177.8990  146.7000 C   0  0  0  0  0  3  0  0  0  0  0  0
  183.2590  180.1270  139.0930 C   0  0  0  0  0  1  0  0  0  0  0  0
  184.5340  179.3180  139.2700 C   0  0  2  0  0  3  0  0  0  0  0  0
  184.3010  175.6230  137.0800 C   0  0  0  0  0  0  0  0  0  0  0  0
  183.4300  177.1030  138.7840 C   0  0  0  0  0  3  0  0  0  0  0  0
  186.3910  178.6190  137.2320 F   0  0  0  0  0  0  0  0  0  0  0  0
  184.2310  174.4600  136.3890 F   0  0  0  0  0  0  0  0  0  0  0  0
  183.3570  175.9050  138.0710 C   0  0  0  0  0  3  0  0  0  0  0  0
  185.3960  177.7410  137.5150 C   0  0  0  0  0  0  0  0  0  0  0  0
  184.4500  178.0290  138.5110 C   0  0  0  0  0  0  0  0  0  0  0  0
  185.3190  176.5400  136.8030 C   0  0  0  0  0  3  0  0  0  0  0  0
  1  9  1  0  0  0  0
  1 15  1  0  0  0  0
  2  3  1  0  0  0  0
  3  7  2  0  0  0  0
  3 20  1  0  0  0  0
  4 11  1  0  0  0  0
  4 16  2  0  0  0  0
  5 15  2  0  0  0  0
  5  2  1  0  0  0  0
  6  1  2  0  0  0  0
  7  4  1  0  0  0  0
  8 13  1  0  0  0  0
 10 20  1  0  0  0  0
 12 17  1  0  0  0  0
 12  8  2  0  0  0  0
 13  2  2  0  0  0  0
 13 19  1  0  0  0  0
 14  8  1  0  0  0  0
 17  5  1  0  0  0  0
 18  6  1  0  0  0  0
 18 17  2  0  0  0  0
 19 10  2  0  0  0  0
 20 21  2  0  0  0  0
 21 16  1  0  0  0  0
 23 22  1  1  0  0  0
 23 14  1  0  0  0  0
 24 28  1  0  0  0  0
 26 29  1  0  0  0  0
 27 24  1  0  0  0  0
 28 25  2  0  0  0  0
 29 30  2  0  0  0  0
 30 25  1  0  0  0  0
 30 23  1  0  0  0  0
 31 24  2  0  0  0  0
 31 29  1  0  0  0  0
M  END
>  <MODEL>
3

>  <REMARK>
 VINA RESULT:     -10.4      2.791      4.138
  Name = 
  2 active torsions:
  status: ('A' for Active; 'I' for Inactive)
    1  A    between atoms: C_5  and  N_16
    2  A    between atoms: C_5  and  C_30
                            x       y       z     vdW  Elec       q    Type
                         _______ _______ _______ _____ _____    ______ ____

>  <TORSDO>
F 2

$$$$
=
 OpenBabel11122411093D

 31 35  0  0  1  0  0  0  0  0999 V2000
  184.4510  178.6280  144.5160 C   0  0  0  0  0  0  0  0  0  0  0  0
  188.0350  177.8450  143.6630 C   0  0  0  0  0  0  0  0  0  0  0  0
  188.7020  177.5310  144.8880 C   0  0  0  0  0  0  0  0  0  0  0  0
  188.7360  177.2290  147.3140 C   0  0  0  0  0  0  0  0  0  0  0  0
  186.6560  178.1990  143.5540 C   0  0  0  0  0  0  0  0  0  0  0  0
  183.9400  178.9090  143.2490 C   0  0  0  0  0  3  0  0  0  0  0  0
  188.0530  177.5410  146.1360 C   0  0  0  0  0  3  0  0  0  0  0  0
  188.2130  178.0940  141.2320 C   0  0  0  0  0  0  0  0  0  0  0  0
  183.6460  178.6960  145.6020 F   0  0  0  0  0  0  0  0  0  0  0  0
  190.7650  177.1700  143.6590 C   0  0  0  0  0  3  0  0  0  0  0  0
  188.0670  177.2470  148.5290 O   0  0  0  0  0  1  0  0  0  0  0  0
  186.9000  178.4280  141.1710 N   0  0  0  0  0  0  0  0  0  0  0  0
  188.8060  177.7980  142.4660 C   0  0  0  0  0  0  0  0  0  0  0  0
  188.9960  178.0480  140.0350 N   0  0  0  0  0  2  0  0  0  0  0  0
  185.7950  178.2770  144.6630 C   0  0  0  0  0  3  0  0  0  0  0  0
  190.0910  176.9000  147.2680 C   0  0  0  0  0  3  0  0  0  0  0  0
  186.1180  178.4880  142.2750 C   0  0  0  0  0  0  0  0  0  0  0  0
  184.7720  178.8390  142.1320 C   0  0  0  0  0  3  0  0  0  0  0  0
  190.1240  177.4680  142.5050 N   0  0  0  0  0  0  0  0  0  0  0  0
  190.0780  177.1930  144.8650 C   0  0  0  0  0  0  0  0  0  0  0  0
  190.7610  176.8820  146.0440 C   0  0  0  0  0  3  0  0  0  0  0  0
  186.9850  177.8760  138.6560 C   0  0  0  0  0  1  0  0  0  0  0  0
  188.4400  178.3120  138.7130 C   0  0  2  0  0  3  0  0  0  0  0  0
  190.7350  176.2950  135.6860 C   0  0  0  0  0  0  0  0  0  0  0  0
  190.3060  176.7640  138.0200 C   0  0  0  0  0  3  0  0  0  0  0  0
  187.9090  178.6000  135.9340 F   0  0  0  0  0  0  0  0  0  0  0  0
  191.4560  175.6610  134.7290 F   0  0  0  0  0  0  0  0  0  0  0  0
  191.0490  176.1100  137.0340 C   0  0  0  0  0  3  0  0  0  0  0  0
  188.9320  177.7900  136.3060 C   0  0  0  0  0  0  0  0  0  0  0  0
  189.2430  177.6090  137.6620 C   0  0  0  0  0  0  0  0  0  0  0  0
  189.6780  177.1330  135.3230 C   0  0  0  0  0  3  0  0  0  0  0  0
  1 15  1  0  0  0  0
  1  9  1  0  0  0  0
  2  3  1  0  0  0  0
  3  7  1  0  0  0  0
  4 11  1  0  0  0  0
  5  2  1  0  0  0  0
  5 15  2  0  0  0  0
  6  1  2  0  0  0  0
  7  4  2  0  0  0  0
  8 13  1  0  0  0  0
 10 20  1  0  0  0  0
 12  8  2  0  0  0  0
 12 17  1  0  0  0  0
 13 19  1  0  0  0  0
 13  2  2  0  0  0  0
 14  8  1  0  0  0  0
 16  4  1  0  0  0  0
 17  5  1  0  0  0  0
 18 17  2  0  0  0  0
 18  6  1  0  0  0  0
 19 10  2  0  0  0  0
 20  3  2  0  0  0  0
 20 21  1  0  0  0  0
 21 16  2  0  0  0  0
 23 22  1  1  0  0  0
 23 14  1  0  0  0  0
 24 28  1  0  0  0  0
 26 29  1  0  0  0  0
 27 24  1  0  0  0  0
 28 25  2  0  0  0  0
 29 30  2  0  0  0  0
 30 25  1  0  0  0  0
 30 23  1  0  0  0  0
 31 24  2  0  0  0  0
 31 29  1  0  0  0  0
M  END
>  <MODEL>
4

>  <REMARK>
 VINA RESULT:     -10.0      2.139      4.257
  Name = 
  2 active torsions:
  status: ('A' for Active; 'I' for Inactive)
    1  A    between atoms: C_5  and  N_16
    2  A    between atoms: C_5  and  C_30
                            x       y       z     vdW  Elec       q    Type
                         _______ _______ _______ _____ _____    ______ ____

>  <TORSDO>
F 2

$$$$
=
 OpenBabel11122411093D

 31 35  0  0  1  0  0  0  0  0999 V2000
  191.3120  176.4810  145.0230 C   0  0  0  0  0  0  0  0  0  0  0  0
  188.0100  177.6960  143.6780 C   0  0  0  0  0  0  0  0  0  0  0  0
  187.1720  177.9700  144.8020 C   0  0  0  0  0  0  0  0  0  0  0  0
  186.7450  178.0670  147.2080 C   0  0  0  0  0  0  0  0  0  0  0  0
  189.3520  177.2140  143.7620 C   0  0  0  0  0  0  0  0  0  0  0  0
  192.0090  176.2590  143.8360 C   0  0  0  0  0  3  0  0  0  0  0  0
  187.5920  177.7880  146.1330 C   0  0  0  0  0  3  0  0  0  0  0  0
  188.2340  177.6740  141.2380 C   0  0  0  0  0  0  0  0  0  0  0  0
  191.9090  176.2400  146.2140 F   0  0  0  0  0  0  0  0  0  0  0  0
  185.3910  178.6440  143.2950 C   0  0  0  0  0  3  0  0  0  0  0  0
  187.1890  177.8770  148.5080 O   0  0  0  0  0  1  0  0  0  0  0  0
  189.5040  177.2150  141.3600 N   0  0  0  0  0  0  0  0  0  0  0  0
  187.4650  177.9230  142.3820 C   0  0  0  0  0  0  0  0  0  0  0  0
  187.6770  177.9020  139.9400 N   0  0  0  0  0  2  0  0  0  0  0  0
  189.9990  176.9540  144.9830 C   0  0  0  0  0  3  0  0  0  0  0  0
  185.4520  178.5350  146.9740 C   0  0  0  0  0  3  0  0  0  0  0  0
  190.0760  176.9820  142.5650 C   0  0  0  0  0  0  0  0  0  0  0  0
  191.3910  176.5080  142.6110 C   0  0  0  0  0  3  0  0  0  0  0  0
  186.1930  178.3810  142.2370 N   0  0  0  0  0  0  0  0  0  0  0  0
  185.8540  178.4470  144.5880 C   0  0  0  0  0  0  0  0  0  0  0  0
  185.0070  178.7250  145.6650 C   0  0  0  0  0  3  0  0  0  0  0  0
  189.0540  179.0030  138.2460 C   0  0  0  0  0  1  0  0  0  0  0  0
  188.4280  177.6960  138.7070 C   0  0  2  0  0  3  0  0  0  0  0  0
  185.8800  176.0760  135.6440 C   0  0  0  0  0  0  0  0  0  0  0  0
  186.2460  177.6490  137.4460 C   0  0  0  0  0  3  0  0  0  0  0  0
  189.2370  175.5690  137.0010 F   0  0  0  0  0  0  0  0  0  0  0  0
  185.0800  175.5630  134.6780 F   0  0  0  0  0  0  0  0  0  0  0  0
  185.4210  177.1210  136.4500 C   0  0  0  0  0  3  0  0  0  0  0  0
  187.9930  176.0840  136.8310 C   0  0  0  0  0  0  0  0  0  0  0  0
  187.5370  177.1340  137.6430 C   0  0  0  0  0  0  0  0  0  0  0  0
  187.1640  175.5590  135.8350 C   0  0  0  0  0  3  0  0  0  0  0  0
  1  9  1  0  0  0  0
  2  5  1  0  0  0  0
  2  3  1  0  0  0  0
  3  7  1  0  0  0  0
  4 11  1  0  0  0  0
  5 15  2  0  0  0  0
  6  1  2  0  0  0  0
  7  4  2  0  0  0  0
  8 12  2  0  0  0  0
  8 13  1  0  0  0  0
 10 20  1  0  0  0  0
 12 17  1  0  0  0  0
 13  2  2  0  0  0  0
 14  8  1  0  0  0  0
 15  1  1  0  0  0  0
 16  4  1  0  0  0  0
 17 18  2  0  0  0  0
 17  5  1  0  0  0  0
 18  6  1  0  0  0  0
 19 13  1  0  0  0  0
 19 10  2  0  0  0  0
 20  3  2  0  0  0  0
 20 21  1  0  0  0  0
 21 16  2  0  0  0  0
 23 22  1  6  0  0  0
 23 14  1  0  0  0  0
 24 31  2  0  0  0  0
 24 28  1  0  0  0  0
 25 30  1  0  0  0  0
 27 24  1  0  0  0  0
 28 25  2  0  0  0  0
 29 26  1  0  0  0  0
 29 30  2  0  0  0  0
 30 23  1  0  0  0  0
 31 29  1  0  0  0  0
M  END
>  <MODEL>
5

>  <REMARK>
 VINA RESULT:     -10.0      1.824      2.331
  Name = 
  2 active torsions:
  status: ('A' for Active; 'I' for Inactive)
    1  A    between atoms: C_5  and  N_16
    2  A    between atoms: C_5  and  C_30
                            x       y       z     vdW  Elec       q    Type
                         _______ _______ _______ _____ _____    ______ ____

>  <TORSDO>
F 2

$$$$
=
 OpenBabel11122411093D

 31 35  0  0  1  0  0  0  0  0999 V2000
  185.3500  178.4710  143.7130 C   0  0  0  0  0  0  0  0  0  0  0  0
  188.9880  177.5380  143.4320 C   0  0  0  0  0  0  0  0  0  0  0  0
  189.4610  177.2790  144.7560 C   0  0  0  0  0  0  0  0  0  0  0  0
  189.1370  177.1220  147.1740 C   0  0  0  0  0  0  0  0  0  0  0  0
  187.6520  177.9230  143.1060 C   0  0  0  0  0  0  0  0  0  0  0  0
  185.0350  178.6890  142.3720 C   0  0  0  0  0  3  0  0  0  0  0  0
  188.6410  177.3820  145.8950 C   0  0  0  0  0  3  0  0  0  0  0  0
  189.5200  177.6360  141.0430 C   0  0  0  0  0  0  0  0  0  0  0  0
  184.4000  178.6250  144.6660 F   0  0  0  0  0  0  0  0  0  0  0  0
  191.6630  176.7880  143.8610 C   0  0  0  0  0  3  0  0  0  0  0  0
  188.3020  177.2310  148.2770 O   0  0  0  0  0  1  0  0  0  0  0  0
  188.2420  178.0020  140.7740 N   0  0  0  0  0  0  0  0  0  0  0  0
  189.9190  177.3980  142.3640 C   0  0  0  0  0  0  0  0  0  0  0  0
  190.4640  177.4970  139.9760 N   0  0  0  0  0  2  0  0  0  0  0  0
  186.6440  178.0920  144.0720 C   0  0  0  0  0  3  0  0  0  0  0  0
  190.4710  176.7530  147.3430 C   0  0  0  0  0  3  0  0  0  0  0  0
  187.3130  178.1500  141.7480 C   0  0  0  0  0  0  0  0  0  0  0  0
  186.0140  178.5300  141.3930 C   0  0  0  0  0  3  0  0  0  0  0  0
  191.2060  177.0340  142.6120 N   0  0  0  0  0  0  0  0  0  0  0  0
  190.8130  176.9030  144.9510 C   0  0  0  0  0  0  0  0  0  0  0  0
  191.3080  176.6440  146.2330 C   0  0  0  0  0  3  0  0  0  0  0  0
  189.0560  178.7820  138.4450 C   0  0  0  0  0  1  0  0  0  0  0  0
  190.1120  177.6970  138.5750 C   0  0  2  0  0  3  0  0  0  0  0  0
  188.7360  174.0080  136.8430 C   0  0  0  0  0  0  0  0  0  0  0  0
  188.2850  176.2630  137.5940 C   0  0  0  0  0  3  0  0  0  0  0  0
  191.8260  175.4680  138.1400 F   0  0  0  0  0  0  0  0  0  0  0  0
  188.3050  172.8440  136.2980 F   0  0  0  0  0  0  0  0  0  0  0  0
  187.8410  175.0640  137.0310 C   0  0  0  0  0  3  0  0  0  0  0  0
  190.5230  175.3490  137.7820 C   0  0  0  0  0  0  0  0  0  0  0  0
  189.6280  176.4130  137.9730 C   0  0  0  0  0  0  0  0  0  0  0  0
  190.0740  174.1500  137.2180 C   0  0  0  0  0  3  0  0  0  0  0  0
  1 15  1  0  0  0  0
  1  9  1  0  0  0  0
  2  3  1  0  0  0  0
  3 20  2  0  0  0  0
  3  7  1  0  0  0  0
  4 16  1  0  0  0  0
  4 11  1  0  0  0  0
  5  2  1  0  0  0  0
  5 15  2  0  0  0  0
  6  1  2  0  0  0  0
  7  4  2  0  0  0  0
  8 13  1  0  0  0  0
 10 20  1  0  0  0  0
 12  8  2  0  0  0  0
 12 17  1  0  0  0  0
 13 19  1  0  0  0  0
 13  2  2  0  0  0  0
 14  8  1  0  0  0  0
 17  5  1  0  0  0  0
 18 17  2  0  0  0  0
 18  6  1  0  0  0  0
 19 10  2  0  0  0  0
 20 21  1  0  0  0  0
 21 16  2  0  0  0  0
 23 22  1  1  0  0  0
 23 14  1  0  0  0  0
 24 28  2  0  0  0  0
 24 31  1  0  0  0  0
 25 30  2  0  0  0  0
 27 24  1  0  0  0  0
 28 25  1  0  0  0  0
 29 30  1  0  0  0  0
 29 26  1  0  0  0  0
 30 23  1  0  0  0  0
 31 29  2  0  0  0  0
M  END
>  <MODEL>
6

>  <REMARK>
 VINA RESULT:      -9.9      1.737      4.039
  Name = 
  2 active torsions:
  status: ('A' for Active; 'I' for Inactive)
    1  A    between atoms: C_5  and  N_16
    2  A    between atoms: C_5  and  C_30
                            x       y       z     vdW  Elec       q    Type
                         _______ _______ _______ _____ _____    ______ ____

>  <TORSDO>
F 2

$$$$
=
 OpenBabel11122411093D

 31 35  0  0  1  0  0  0  0  0999 V2000
  190.1490  177.2930  142.2740 C   0  0  0  0  0  0  0  0  0  0  0  0
  186.6800  178.3190  143.3200 C   0  0  0  0  0  0  0  0  0  0  0  0
  186.6340  178.2590  144.7470 C   0  0  0  0  0  0  0  0  0  0  0  0
  187.6560  177.8270  146.9260 C   0  0  0  0  0  0  0  0  0  0  0  0
  187.8250  178.0040  142.5280 C   0  0  0  0  0  0  0  0  0  0  0  0
  190.0430  177.3980  140.8870 C   0  0  0  0  0  3  0  0  0  0  0  0
  187.7370  177.8750  145.5320 C   0  0  0  0  0  3  0  0  0  0  0  0
  185.4720  178.8050  141.2440 C   0  0  0  0  0  0  0  0  0  0  0  0
  191.3170  176.9000  142.8350 F   0  0  0  0  0  0  0  0  0  0  0  0
  184.3180  178.9840  144.6930 C   0  0  0  0  0  3  0  0  0  0  0  0
  188.7620  177.4440  147.6720 O   0  0  0  0  0  1  0  0  0  0  0  0
  186.5810  178.4950  140.5280 N   0  0  0  0  0  0  0  0  0  0  0  0
  185.4950  178.7240  142.6430 C   0  0  0  0  0  0  0  0  0  0  0  0
  184.2750  179.2100  140.5720 N   0  0  0  0  0  2  0  0  0  0  0  0
  189.0520  177.5940  143.0820 C   0  0  0  0  0  3  0  0  0  0  0  0
  186.4650  178.1640  147.5680 C   0  0  0  0  0  3  0  0  0  0  0  0
  187.7370  178.1050  141.1170 C   0  0  0  0  0  0  0  0  0  0  0  0
  188.8390  177.8020  140.3110 C   0  0  0  0  0  3  0  0  0  0  0  0
  184.3710  179.0370  143.3420 N   0  0  0  0  0  0  0  0  0  0  0  0
  185.4340  178.5980  145.4210 C   0  0  0  0  0  0  0  0  0  0  0  0
  185.3550  178.5490  146.8160 C   0  0  0  0  0  3  0  0  0  0  0  0
  182.9660  180.1680  138.7430 C   0  0  0  0  0  1  0  0  0  0  0  0
  184.1880  179.3470  139.1230 C   0  0  2  0  0  3  0  0  0  0  0  0
  184.0420  175.4650  137.2760 C   0  0  0  0  0  0  0  0  0  0  0  0
  185.0600  177.6510  137.4740 C   0  0  0  0  0  3  0  0  0  0  0  0
  182.2680  177.3740  139.8400 F   0  0  0  0  0  0  0  0  0  0  0  0
  183.9930  174.2410  136.6960 F   0  0  0  0  0  0  0  0  0  0  0  0
  185.0100  176.3890  136.8760 C   0  0  0  0  0  3  0  0  0  0  0  0
  183.1690  177.0650  138.8730 C   0  0  0  0  0  0  0  0  0  0  0  0
  184.1400  177.9970  138.4760 C   0  0  0  0  0  0  0  0  0  0  0  0
  183.1230  175.8030  138.2720 C   0  0  0  0  0  3  0  0  0  0  0  0
  1  9  1  0  0  0  0
  1 15  1  0  0  0  0
  2  3  1  0  0  0  0
  3 20  2  0  0  0  0
  3  7  1  0  0  0  0
  4 16  1  0  0  0  0
  4 11  1  0  0  0  0
  5 15  2  0  0  0  0
  5  2  1  0  0  0  0
  6  1  2  0  0  0  0
  7  4  2  0  0  0  0
  8 13  1  0  0  0  0
 10 20  1  0  0  0  0
 12 17  1  0  0  0  0
 12  8  2  0  0  0  0
 13  2  2  0  0  0  0
 13 19  1  0  0  0  0
 14  8  1  0  0  0  0
 17  5  1  0  0  0  0
 18  6  1  0  0  0  0
 18 17  2  0  0  0  0
 19 10  2  0  0  0  0
 20 21  1  0  0  0  0
 21 16  2  0  0  0  0
 23 22  1  1  0  0  0
 23 14  1  0  0  0  0
 24 31  1  0  0  0  0
 25 30  2  0  0  0  0
 27 24  1  0  0  0  0
 28 24  2  0  0  0  0
 28 25  1  0  0  0  0
 29 26  1  0  0  0  0
 30 29  1  0  0  0  0
 30 23  1  0  0  0  0
 31 29  2  0  0  0  0
M  END
>  <MODEL>
7

>  <REMARK>
 VINA RESULT:      -9.6      3.070      4.283
  Name = 
  2 active torsions:
  status: ('A' for Active; 'I' for Inactive)
    1  A    between atoms: C_5  and  N_16
    2  A    between atoms: C_5  and  C_30
                            x       y       z     vdW  Elec       q    Type
                         _______ _______ _______ _____ _____    ______ ____

>  <TORSDO>
F 2

$$$$
=
 OpenBabel11122411093D

 31 35  0  0  1  0  0  0  0  0999 V2000
  184.5680  178.5040  145.7720 C   0  0  0  0  0  0  0  0  0  0  0  0
  187.2160  178.1570  143.1150 C   0  0  0  0  0  0  0  0  0  0  0  0
  188.4460  177.8660  143.7810 C   0  0  0  0  0  0  0  0  0  0  0  0
  189.7700  177.4650  145.7970 C   0  0  0  0  0  0  0  0  0  0  0  0
  185.9640  178.3620  143.7710 C   0  0  0  0  0  0  0  0  0  0  0  0
  183.4490  178.7820  144.9870 C   0  0  0  0  0  3  0  0  0  0  0  0
  188.5500  177.7510  145.1800 C   0  0  0  0  0  3  0  0  0  0  0  0
  186.0720  178.5290  140.9800 C   0  0  0  0  0  0  0  0  0  0  0  0
  184.4500  178.4360  147.1190 F   0  0  0  0  0  0  0  0  0  0  0  0
  189.5760  177.7870  141.6340 C   0  0  0  0  0  3  0  0  0  0  0  0
  189.8400  177.3570  147.1790 O   0  0  0  0  0  1  0  0  0  0  0  0
  184.9030  178.7190  141.6410 N   0  0  0  0  0  0  0  0  0  0  0  0
  187.2440  178.2480  141.6950 C   0  0  0  0  0  0  0  0  0  0  0  0
  186.1110  178.6220  139.5530 N   0  0  0  0  0  2  0  0  0  0  0  0
  185.8100  178.2970  145.1680 C   0  0  0  0  0  3  0  0  0  0  0  0
  190.9190  177.2900  145.0250 C   0  0  0  0  0  3  0  0  0  0  0  0
  184.8150  178.6450  142.9900 C   0  0  0  0  0  0  0  0  0  0  0  0
  183.5730  178.8520  143.6000 C   0  0  0  0  0  3  0  0  0  0  0  0
  188.4060  178.0630  141.0130 N   0  0  0  0  0  0  0  0  0  0  0  0
  189.6250  177.6830  143.0170 C   0  0  0  0  0  0  0  0  0  0  0  0
  190.8460  177.3980  143.6360 C   0  0  0  0  0  3  0  0  0  0  0  0
  183.9440  179.7530  139.5060 C   0  0  0  0  0  1  0  0  0  0  0  0
  184.9270  178.8790  138.7420 C   0  0  2  0  0  3  0  0  0  0  0  0
  183.0840  175.1740  137.5700 C   0  0  0  0  0  0  0  0  0  0  0  0
  183.1780  177.0880  139.0460 C   0  0  0  0  0  3  0  0  0  0  0  0
  185.8500  177.3320  136.5410 F   0  0  0  0  0  0  0  0  0  0  0  0
  182.5050  174.0060  137.1980 F   0  0  0  0  0  0  0  0  0  0  0  0
  182.5810  175.8850  138.6620 C   0  0  0  0  0  3  0  0  0  0  0  0
  184.7830  176.8700  137.2420 C   0  0  0  0  0  0  0  0  0  0  0  0
  184.2830  177.5880  138.3390 C   0  0  0  0  0  0  0  0  0  0  0  0
  184.1830  175.6660  136.8610 C   0  0  0  0  0  3  0  0  0  0  0  0
  1  9  1  0  0  0  0
  2  5  1  0  0  0  0
  2  3  1  0  0  0  0
  3  7  1  0  0  0  0
  4 11  1  0  0  0  0
  5 15  2  0  0  0  0
  6  1  2  0  0  0  0
  7  4  2  0  0  0  0
  8 12  2  0  0  0  0
  8 13  1  0  0  0  0
 10 20  1  0  0  0  0
 12 17  1  0  0  0  0
 13  2  2  0  0  0  0
 14  8  1  0  0  0  0
 15  1  1  0  0  0  0
 16  4  1  0  0  0  0
 17 18  2  0  0  0  0
 17  5  1  0  0  0  0
 18  6  1  0  0  0  0
 19 10  2  0  0  0  0
 19 13  1  0  0  0  0
 20 21  1  0  0  0  0
 20  3  2  0  0  0  0
 21 16  2  0  0  0  0
 23 22  1  1  0  0  0
 23 14  1  0  0  0  0
 24 28  1  0  0  0  0
 26 29  1  0  0  0  0
 27 24  1  0  0  0  0
 28 25  2  0  0  0  0
 29 30  2  0  0  0  0
 30 23  1  0  0  0  0
 30 25  1  0  0  0  0
 31 29  1  0  0  0  0
 31 24  2  0  0  0  0
M  END
>  <MODEL>
8

>  <REMARK>
 VINA RESULT:      -9.5      3.066      5.155
  Name = 
  2 active torsions:
  status: ('A' for Active; 'I' for Inactive)
    1  A    between atoms: C_5  and  N_16
    2  A    between atoms: C_5  and  C_30
                            x       y       z     vdW  Elec       q    Type
                         _______ _______ _______ _____ _____    ______ ____

>  <TORSDO>
F 2

$$$$
=
 OpenBabel11122411093D

 31 35  0  0  1  0  0  0  0  0999 V2000
  191.1100  177.3290  141.3910 C   0  0  0  0  0  0  0  0  0  0  0  0
  188.3160  177.5400  143.9090 C   0  0  0  0  0  0  0  0  0  0  0  0
  188.9030  177.3930  145.2030 C   0  0  0  0  0  0  0  0  0  0  0  0
  190.8220  177.0650  146.6820 C   0  0  0  0  0  0  0  0  0  0  0  0
  189.0420  177.5180  142.6790 C   0  0  0  0  0  0  0  0  0  0  0  0
  190.3990  177.4850  140.2020 C   0  0  0  0  0  3  0  0  0  0  0  0
  190.2830  177.2060  145.4010 C   0  0  0  0  0  3  0  0  0  0  0  0
  186.2680  177.8750  142.6060 C   0  0  0  0  0  0  0  0  0  0  0  0
  192.4530  177.1600  141.3600 F   0  0  0  0  0  0  0  0  0  0  0  0
  186.7050  177.6140  146.2110 C   0  0  0  0  0  3  0  0  0  0  0  0
  192.1880  176.8840  146.8440 O   0  0  0  0  0  1  0  0  0  0  0  0
  186.9930  177.8460  141.4610 N   0  0  0  0  0  0  0  0  0  0  0  0
  186.9060  177.7230  143.8440 C   0  0  0  0  0  0  0  0  0  0  0  0
  184.8490  178.0550  142.5510 N   0  0  0  0  0  2  0  0  0  0  0  0
  190.4360  177.3450  142.6140 C   0  0  0  0  0  3  0  0  0  0  0  0
  189.9880  177.1070  147.7990 C   0  0  0  0  0  3  0  0  0  0  0  0
  188.3370  177.6760  141.4590 C   0  0  0  0  0  0  0  0  0  0  0  0
  189.0160  177.6580  140.2370 C   0  0  0  0  0  3  0  0  0  0  0  0
  186.1600  177.7530  144.9810 N   0  0  0  0  0  0  0  0  0  0  0  0
  188.0730  177.4330  146.3520 C   0  0  0  0  0  0  0  0  0  0  0  0
  188.6140  177.2910  147.6330 C   0  0  0  0  0  3  0  0  0  0  0  0
  184.8860  179.1970  140.3900 C   0  0  0  0  0  1  0  0  0  0  0  0
  184.1230  178.2510  141.3030 C   0  0  2  0  0  3  0  0  0  0  0  0
  180.1760  179.7590  142.1090 C   0  0  0  0  0  0  0  0  0  0  0  0
  181.8890  179.1230  140.5240 C   0  0  0  0  0  3  0  0  0  0  0  0
  183.1200  178.6010  143.9410 F   0  0  0  0  0  0  0  0  0  0  0  0
  178.9330  180.2340  142.3670 F   0  0  0  0  0  0  0  0  0  0  0  0
  180.6070  179.6120  140.7890 C   0  0  0  0  0  3  0  0  0  0  0  0
  182.3090  178.9270  142.9040 C   0  0  0  0  0  0  0  0  0  0  0  0
  182.7480  178.7780  141.5790 C   0  0  0  0  0  0  0  0  0  0  0  0
  181.0250  179.4170  143.1640 C   0  0  0  0  0  3  0  0  0  0  0  0
  1 15  1  0  0  0  0
  2  3  1  0  0  0  0
  3  7  2  0  0  0  0
  3 20  1  0  0  0  0
  4 11  1  0  0  0  0
  4 16  2  0  0  0  0
  5  2  1  0  0  0  0
  6 18  1  0  0  0  0
  6  1  2  0  0  0  0
  7  4  1  0  0  0  0
  8 13  1  0  0  0  0
  9  1  1  0  0  0  0
 10 20  1  0  0  0  0
 12  8  2  0  0  0  0
 13  2  2  0  0  0  0
 13 19  1  0  0  0  0
 14  8  1  0  0  0  0
 15  5  2  0  0  0  0
 17 12  1  0  0  0  0
 17  5  1  0  0  0  0
 18 17  2  0  0  0  0
 19 10  2  0  0  0  0
 20 21  2  0  0  0  0
 21 16  1  0  0  0  0
 23 22  1  6  0  0  0
 23 30  1  0  0  0  0
 23 14  1  0  0  0  0
 24 27  1  0  0  0  0
 24 31  1  0  0  0  0
 25 28  1  0  0  0  0
 25 30  2  0  0  0  0
 28 24  2  0  0  0  0
 29 31  2  0  0  0  0
 29 26  1  0  0  0  0
 30 29  1  0  0  0  0
M  END
>  <MODEL>
9

>  <REMARK>
 VINA RESULT:      -9.4      3.565      6.732
  Name = 
  2 active torsions:
  status: ('A' for Active; 'I' for Inactive)
    1  A    between atoms: C_5  and  N_16
    2  A    between atoms: C_5  and  C_30
                            x       y       z     vdW  Elec       q    Type
                         _______ _______ _______ _____ _____    ______ ____

>  <TORSDO>
F 2

$$$$
