=
 OpenBabel11122411553D

 28 32  0  0  1  0  0  0  0  0999 V2000
  181.1760  179.1380  137.4620 C   0  0  0  0  0  0  0  0  0  0  0  0
  185.5240  176.7970  138.4760 F   0  0  0  0  0  0  0  0  0  0  0  0
  180.5100  178.5460  142.1670 O   0  0  0  0  0  0  0  0  0  0  0  0
  181.4890  181.7800  138.3390 C   0  0  0  0  0  3  0  0  0  0  0  0
  182.8960  178.6100  141.9790 C   0  0  0  0  0  0  0  0  0  0  0  0
  180.9450  177.7160  137.0510 C   0  0  0  0  0  2  0  0  0  0  0  0
  186.0820  178.4510  136.8910 C   0  0  0  0  0  1  0  0  0  0  0  0
  185.8440  178.1410  138.3560 C   0  0  1  0  0  0  0  0  0  0  0  0
  186.8350  178.3030  140.6120 C   0  0  1  0  0  3  0  0  0  0  0  0
  184.7050  179.0430  138.8850 C   0  0  2  0  0  3  0  0  0  0  0  0
  179.0890  178.4880  139.5350 O   0  0  0  0  0  1  0  0  0  0  0  0
  183.0000  177.5630  139.8370 C   0  0  1  0  0  3  0  0  0  0  0  0
  185.9940  179.3620  141.0000 O   0  0  0  0  0  0  0  0  0  0  0  0
  187.1310  178.3990  139.1230 C   0  0  0  0  0  2  0  0  0  0  0  0
  179.4500  177.2080  139.1080 C   0  0  2  0  0  3  0  0  0  0  0  0
  182.2930  179.4830  138.2500 C   0  0  0  0  0  0  0  0  0  0  0  0
  181.5670  178.3170  141.5210 C   0  0  0  0  0  0  0  0  0  0  0  0
  188.1330  178.3830  141.3870 C   0  0  0  0  0  1  0  0  0  0  0  0
  180.6270  176.6390  139.9040 C   0  0  0  0  0  2  0  0  0  0  0  0
  182.4250  180.8080  138.7000 C   0  0  0  0  0  3  0  0  0  0  0  0
  180.2520  180.1240  137.0900 C   0  0  0  0  0  3  0  0  0  0  0  0
  180.4090  181.4400  137.5250 C   0  0  0  0  0  3  0  0  0  0  0  0
  179.6260  177.1510  137.5860 C   0  0  0  0  0  2  0  0  0  0  0  0
  183.8830  178.0790  141.0010 C   0  0  1  0  0  3  0  0  0  0  0  0
  181.6000  177.6650  140.2630 N   0  0  0  0  0  0  0  0  0  0  0  0
  184.7160  179.2040  140.4100 C   0  0  2  0  0  3  0  0  0  0  0  0
  183.1800  179.1820  143.0640 O   0  0  0  0  0  0  0  0  0  0  0  0
  183.3330  178.4310  138.6030 C   0  0  1  0  0  3  0  0  0  0  0  0
  1 16  1  0  0  0  0
  4 20  1  0  0  0  0
  5 27  2  0  0  0  0
  6  1  1  0  0  0  0
  6 23  1  0  0  0  0
  8  7  1  6  0  0  0
  8  2  1  0  0  0  0
  8 10  1  0  0  0  0
  8 14  1  0  0  0  0
  9 13  1  0  0  0  0
  9 18  1  1  0  0  0
 10 26  1  0  0  0  0
 12 25  1  0  0  0  0
 12 24  1  0  0  0  0
 14  9  1  0  0  0  0
 15 11  1  0  0  0  0
 15 19  1  0  0  0  0
 16 28  1  0  0  0  0
 16 20  2  0  0  0  0
 17  5  1  0  0  0  0
 17  3  2  0  0  0  0
 19 25  1  0  0  0  0
 21  1  2  0  0  0  0
 21 22  1  0  0  0  0
 22  4  2  0  0  0  0
 23 15  1  0  0  0  0
 24  5  1  0  0  0  0
 25 17  1  0  0  0  0
 26 13  1  0  0  0  0
 26 24  1  0  0  0  0
 28 10  1  0  0  0  0
 28 12  1  0  0  0  0
M  END
>  <MODEL>
1

>  <REMARK>
 VINA RESULT:      -5.9      0.000      0.000
  Name = 
  0 active torsions:
  status: ('A' for Active; 'I' for Inactive)
                            x       y       z     vdW  Elec       q    Type
                         _______ _______ _______ _____ _____    ______ ____

>  <TORSDO>
F 0

$$$$
=
 OpenBabel11122411553D

 28 32  0  0  1  0  0  0  0  0999 V2000
  179.7240  179.1650  137.1700 C   0  0  0  0  0  0  0  0  0  0  0  0
  181.2310  174.6410  138.8090 F   0  0  0  0  0  0  0  0  0  0  0  0
  183.9320  180.5140  139.0130 O   0  0  0  0  0  0  0  0  0  0  0  0
  181.1570  179.6580  134.8140 C   0  0  0  0  0  3  0  0  0  0  0  0
  184.3180  178.2200  138.4490 C   0  0  0  0  0  0  0  0  0  0  0  0
  178.9960  178.9700  138.4650 C   0  0  0  0  0  2  0  0  0  0  0  0
  180.1800  174.2170  136.7410 C   0  0  0  0  0  1  0  0  0  0  0  0
  181.4580  174.6360  137.4410 C   0  0  1  0  0  0  0  0  0  0  0  0
  183.8680  174.1410  137.6490 C   0  0  1  0  0  3  0  0  0  0  0  0
  181.8780  176.0350  136.9320 C   0  0  2  0  0  3  0  0  0  0  0  0
  181.0850  181.3760  138.6960 O   0  0  0  0  0  1  0  0  0  0  0  0
  182.0950  177.4800  138.8990 C   0  0  1  0  0  3  0  0  0  0  0  0
  184.2540  175.2670  136.9000 O   0  0  0  0  0  0  0  0  0  0  0  0
  182.5380  173.6100  137.1370 C   0  0  0  0  0  2  0  0  0  0  0  0
  180.5070  180.6480  139.7390 C   0  0  2  0  0  3  0  0  0  0  0  0
  180.8010  178.3250  136.8210 C   0  0  0  0  0  0  0  0  0  0  0  0
  183.5160  179.3340  138.8700 C   0  0  0  0  0  0  0  0  0  0  0  0
  184.9230  173.0640  137.5140 C   0  0  0  0  0  1  0  0  0  0  0  0
  181.4250  179.5340  140.2490 C   0  0  0  0  0  2  0  0  0  0  0  0
  181.5240  178.5990  135.6470 C   0  0  0  0  0  3  0  0  0  0  0  0
  179.3510  180.2140  136.3190 C   0  0  0  0  0  3  0  0  0  0  0  0
  180.0640  180.4590  135.1450 C   0  0  0  0  0  3  0  0  0  0  0  0
  179.0870  180.1890  139.3860 C   0  0  0  0  0  2  0  0  0  0  0  0
  183.5110  176.9730  138.5250 C   0  0  1  0  0  3  0  0  0  0  0  0
  182.1960  178.9170  139.1750 N   0  0  0  0  0  0  0  0  0  0  0  0
  183.3650  176.3410  137.1510 C   0  0  2  0  0  3  0  0  0  0  0  0
  185.5310  178.2830  138.1170 O   0  0  0  0  0  0  0  0  0  0  0  0
  181.1690  177.1460  137.7080 C   0  0  1  0  0  3  0  0  0  0  0  0
  1  6  1  0  0  0  0
  4 22  2  0  0  0  0
  4 20  1  0  0  0  0
  5 24  1  0  0  0  0
  5 17  1  0  0  0  0
  6 23  1  0  0  0  0
  8  7  1  6  0  0  0
  8  2  1  0  0  0  0
  9 18  1  6  0  0  0
 10 26  1  0  0  0  0
 10  8  1  0  0  0  0
 10 28  1  0  0  0  0
 11 15  1  0  0  0  0
 12 25  1  0  0  0  0
 13 26  1  0  0  0  0
 13  9  1  0  0  0  0
 14  8  1  0  0  0  0
 14  9  1  0  0  0  0
 15 19  1  0  0  0  0
 16  1  1  0  0  0  0
 16 28  1  0  0  0  0
 17  3  2  0  0  0  0
 17 25  1  0  0  0  0
 20 16  2  0  0  0  0
 21  1  2  0  0  0  0
 22 21  1  0  0  0  0
 23 15  1  0  0  0  0
 24 12  1  0  0  0  0
 25 19  1  0  0  0  0
 26 24  1  0  0  0  0
 27  5  2  0  0  0  0
 28 12  1  0  0  0  0
M  END
>  <MODEL>
2

>  <REMARK>
 VINA RESULT:      -5.2      2.861      4.346
  Name = 
  0 active torsions:
  status: ('A' for Active; 'I' for Inactive)
                            x       y       z     vdW  Elec       q    Type
                         _______ _______ _______ _____ _____    ______ ____

>  <TORSDO>
F 0

$$$$
=
 OpenBabel11122411553D

 28 32  0  0  1  0  0  0  0  0999 V2000
  181.8830  175.6880  136.1310 C   0  0  0  0  0  0  0  0  0  0  0  0
  186.6990  175.3230  137.5740 F   0  0  0  0  0  0  0  0  0  0  0  0
  181.7620  178.9650  139.6200 O   0  0  0  0  0  0  0  0  0  0  0  0
  181.7020  178.0290  134.6010 C   0  0  0  0  0  3  0  0  0  0  0  0
  184.0540  179.0140  138.9340 C   0  0  0  0  0  0  0  0  0  0  0  0
  181.9240  174.4720  137.0040 C   0  0  0  0  0  2  0  0  0  0  0  0
  186.7560  175.1410  135.2240 C   0  0  0  0  0  1  0  0  0  0  0  0
  186.7150  176.0800  136.4130 C   0  0  1  0  0  0  0  0  0  0  0  0
  187.8380  178.0140  137.4610 C   0  0  1  0  0  3  0  0  0  0  0  0
  185.4600  176.9780  136.3050 C   0  0  2  0  0  3  0  0  0  0  0  0
  180.1660  176.7730  138.3560 O   0  0  0  0  0  1  0  0  0  0  0  0
  184.1960  176.6970  138.3850 C   0  0  1  0  0  3  0  0  0  0  0  0
  186.8280  178.9170  137.0830 O   0  0  0  0  0  0  0  0  0  0  0  0
  187.9790  176.9260  136.4080 C   0  0  0  0  0  2  0  0  0  0  0  0
  180.7530  175.6720  138.9830 C   0  0  2  0  0  3  0  0  0  0  0  0
  182.9640  176.5920  136.1100 C   0  0  0  0  0  0  0  0  0  0  0  0
  182.7840  178.3870  139.1650 C   0  0  0  0  0  0  0  0  0  0  0  0
  189.1510  178.7570  137.5930 C   0  0  0  0  0  1  0  0  0  0  0  0
  182.0870  176.0220  139.6460 C   0  0  0  0  0  2  0  0  0  0  0  0
  182.8490  177.7720  135.3550 C   0  0  0  0  0  3  0  0  0  0  0  0
  180.7420  175.9450  135.3570 C   0  0  0  0  0  3  0  0  0  0  0  0
  180.6530  177.1090  134.5940 C   0  0  0  0  0  3  0  0  0  0  0  0
  180.8060  174.4550  138.0500 C   0  0  0  0  0  2  0  0  0  0  0  0
  185.0450  177.9860  138.5180 C   0  0  1  0  0  3  0  0  0  0  0  0
  182.8480  177.0010  138.8760 N   0  0  0  0  0  0  0  0  0  0  0  0
  185.5670  178.2730  137.1200 C   0  0  2  0  0  3  0  0  0  0  0  0
  184.3030  180.2370  139.1070 O   0  0  0  0  0  0  0  0  0  0  0  0
  184.2300  176.2880  136.8950 C   0  0  1  0  0  3  0  0  0  0  0  0
  1  6  1  0  0  0  0
  4 20  1  0  0  0  0
  5 27  2  0  0  0  0
  5 17  1  0  0  0  0
  6 23  1  0  0  0  0
  8  7  1  6  0  0  0
  8  2  1  0  0  0  0
  9 18  1  6  0  0  0
 10  8  1  0  0  0  0
 10 28  1  0  0  0  0
 10 26  1  0  0  0  0
 11 15  1  0  0  0  0
 12 24  1  0  0  0  0
 12 25  1  0  0  0  0
 13 26  1  0  0  0  0
 13  9  1  0  0  0  0
 14  8  1  0  0  0  0
 14  9  1  0  0  0  0
 15 19  1  0  0  0  0
 16  1  1  0  0  0  0
 16 28  1  0  0  0  0
 17  3  2  0  0  0  0
 20 16  2  0  0  0  0
 21  1  2  0  0  0  0
 22  4  2  0  0  0  0
 22 21  1  0  0  0  0
 23 15  1  0  0  0  0
 24  5  1  0  0  0  0
 25 17  1  0  0  0  0
 25 19  1  0  0  0  0
 26 24  1  0  0  0  0
 28 12  1  0  0  0  0
M  END
>  <MODEL>
3

>  <REMARK>
 VINA RESULT:      -5.1      2.471      3.429
  Name = 
  0 active torsions:
  status: ('A' for Active; 'I' for Inactive)
                            x       y       z     vdW  Elec       q    Type
                         _______ _______ _______ _____ _____    ______ ____

>  <TORSDO>
F 0

$$$$
=
 OpenBabel11122411553D

 28 32  0  0  1  0  0  0  0  0999 V2000
  180.6280  177.6890  138.0260 C   0  0  0  0  0  0  0  0  0  0  0  0
  183.8120  173.8980  137.0730 F   0  0  0  0  0  0  0  0  0  0  0  0
  184.6290  179.7940  139.6020 O   0  0  0  0  0  0  0  0  0  0  0  0
  181.0270  179.5730  135.9910 C   0  0  0  0  0  3  0  0  0  0  0  0
  185.4560  178.2530  137.9680 C   0  0  0  0  0  0  0  0  0  0  0  0
  180.4400  176.7410  139.1710 C   0  0  0  0  0  2  0  0  0  0  0  0
  182.3240  173.9130  135.2440 C   0  0  0  0  0  1  0  0  0  0  0  0
  183.5810  174.5070  135.8490 C   0  0  1  0  0  0  0  0  0  0  0  0
  185.9660  174.9790  135.4170 C   0  0  1  0  0  3  0  0  0  0  0  0
  183.3950  176.0340  136.0020 C   0  0  2  0  0  3  0  0  0  0  0  0
  181.7100  179.4940  140.1810 O   0  0  0  0  0  1  0  0  0  0  0  0
  183.8050  176.5750  138.3570 C   0  0  1  0  0  3  0  0  0  0  0  0
  185.7510  176.3580  135.2390 O   0  0  0  0  0  0  0  0  0  0  0  0
  184.7530  174.2000  134.9310 C   0  0  0  0  0  2  0  0  0  0  0  0
  181.7310  178.2580  140.8320 C   0  0  2  0  0  3  0  0  0  0  0  0
  181.7300  177.5540  137.1570 C   0  0  0  0  0  0  0  0  0  0  0  0
  184.5470  178.6990  138.9860 C   0  0  0  0  0  0  0  0  0  0  0  0
  187.1850  174.5550  134.6260 C   0  0  0  0  0  1  0  0  0  0  0  0
  183.0420  177.5030  140.6030 C   0  0  0  0  0  2  0  0  0  0  0  0
  181.9280  178.5190  136.1560 C   0  0  0  0  0  3  0  0  0  0  0  0
  179.7180  178.7390  137.8420 C   0  0  0  0  0  3  0  0  0  0  0  0
  179.9150  179.6760  136.8280 C   0  0  0  0  0  3  0  0  0  0  0  0
  180.4670  177.4430  140.5320 C   0  0  0  0  0  2  0  0  0  0  0  0
  185.1100  176.8620  137.5710 C   0  0  1  0  0  3  0  0  0  0  0  0
  183.5730  177.7070  139.2590 N   0  0  0  0  0  0  0  0  0  0  0  0
  184.7200  176.8010  136.1040 C   0  0  2  0  0  3  0  0  0  0  0  0
  186.4270  178.9180  137.5200 O   0  0  0  0  0  0  0  0  0  0  0  0
  182.6850  176.3800  137.3110 C   0  0  1  0  0  3  0  0  0  0  0  0
  1  6  1  0  0  0  0
  4 20  2  0  0  0  0
  4 22  1  0  0  0  0
  5 17  1  0  0  0  0
  6 23  1  0  0  0  0
  8  7  1  6  0  0  0
  8 10  1  0  0  0  0
  8  2  1  0  0  0  0
  9 18  1  6  0  0  0
 10 26  1  0  0  0  0
 10 28  1  0  0  0  0
 11 15  1  0  0  0  0
 12 25  1  0  0  0  0
 13  9  1  0  0  0  0
 13 26  1  0  0  0  0
 14  9  1  0  0  0  0
 14  8  1  0  0  0  0
 16 28  1  0  0  0  0
 16  1  2  0  0  0  0
 17 25  1  0  0  0  0
 17  3  2  0  0  0  0
 19 15  1  0  0  0  0
 20 16  1  0  0  0  0
 21  1  1  0  0  0  0
 22 21  2  0  0  0  0
 23 15  1  0  0  0  0
 24  5  1  0  0  0  0
 24 12  1  0  0  0  0
 25 19  1  0  0  0  0
 26 24  1  0  0  0  0
 27  5  2  0  0  0  0
 28 12  1  0  0  0  0
M  END
>  <MODEL>
4

>  <REMARK>
 VINA RESULT:      -5.1      2.802      4.281
  Name = 
  0 active torsions:
  status: ('A' for Active; 'I' for Inactive)
                            x       y       z     vdW  Elec       q    Type
                         _______ _______ _______ _____ _____    ______ ____

>  <TORSDO>
F 0

$$$$
=
 OpenBabel11122411553D

 28 32  0  0  1  0  0  0  0  0999 V2000
  180.5000  179.0790  138.3030 C   0  0  0  0  0  0  0  0  0  0  0  0
  184.6000  176.1750  137.8880 F   0  0  0  0  0  0  0  0  0  0  0  0
  181.7590  179.0740  142.9220 O   0  0  0  0  0  0  0  0  0  0  0  0
  181.4300  181.7100  138.5620 C   0  0  0  0  0  3  0  0  0  0  0  0
  183.8500  178.7300  141.8090 C   0  0  0  0  0  0  0  0  0  0  0  0
  179.9680  177.6810  138.2420 C   0  0  0  0  0  2  0  0  0  0  0  0
  184.6370  177.5510  135.9730 C   0  0  0  0  0  1  0  0  0  0  0  0
  184.9870  177.4300  137.4430 C   0  0  1  0  0  0  0  0  0  0  0  0
  186.8260  177.6530  139.0760 C   0  0  1  0  0  3  0  0  0  0  0  0
  184.2700  178.5540  138.2270 C   0  0  2  0  0  3  0  0  0  0  0  0
  179.3880  178.9860  141.1000 O   0  0  0  0  0  1  0  0  0  0  0  0
  182.9540  177.4730  139.9900 C   0  0  1  0  0  3  0  0  0  0  0  0
  186.3380  178.8670  139.5920 O   0  0  0  0  0  0  0  0  0  0  0  0
  186.4940  177.5510  137.5950 C   0  0  0  0  0  2  0  0  0  0  0  0
  179.4010  177.6290  140.7720 C   0  0  2  0  0  3  0  0  0  0  0  0
  181.8720  179.3150  138.5260 C   0  0  0  0  0  0  0  0  0  0  0  0
  182.4270  178.6130  141.9590 C   0  0  0  0  0  0  0  0  0  0  0  0
  188.3270  177.5970  139.2590 C   0  0  0  0  0  1  0  0  0  0  0  0
  180.7310  176.9580  141.1230 C   0  0  0  0  0  2  0  0  0  0  0  0
  182.3190  180.6380  138.6750 C   0  0  0  0  0  3  0  0  0  0  0  0
  179.6180  180.1610  138.1720 C   0  0  0  0  0  3  0  0  0  0  0  0
  180.0810  181.4710  138.2990 C   0  0  0  0  0  3  0  0  0  0  0  0
  178.9310  177.3940  139.3320 C   0  0  0  0  0  2  0  0  0  0  0  0
  184.2870  177.9510  140.6190 C   0  0  1  0  0  3  0  0  0  0  0  0
  181.8720  177.8430  140.9070 N   0  0  0  0  0  0  0  0  0  0  0  0
  184.9220  178.8610  139.5810 C   0  0  2  0  0  3  0  0  0  0  0  0
  184.6140  179.3530  142.5930 O   0  0  0  0  0  0  0  0  0  0  0  0
  182.8440  178.1480  138.6040 C   0  0  1  0  0  3  0  0  0  0  0  0
  1 16  1  0  0  0  0
  4 20  1  0  0  0  0
  5 17  1  0  0  0  0
  5 27  2  0  0  0  0
  6  1  1  0  0  0  0
  6 23  1  0  0  0  0
  8  7  1  6  0  0  0
  8 14  1  0  0  0  0
  8  2  1  0  0  0  0
  8 10  1  0  0  0  0
  9 18  1  6  0  0  0
  9 13  1  0  0  0  0
 10 28  1  0  0  0  0
 10 26  1  0  0  0  0
 12 24  1  0  0  0  0
 12 25  1  0  0  0  0
 14  9  1  0  0  0  0
 15 11  1  0  0  0  0
 15 19  1  0  0  0  0
 16 28  1  0  0  0  0
 16 20  2  0  0  0  0
 17  3  2  0  0  0  0
 21 22  1  0  0  0  0
 21  1  2  0  0  0  0
 22  4  2  0  0  0  0
 23 15  1  0  0  0  0
 24  5  1  0  0  0  0
 25 19  1  0  0  0  0
 25 17  1  0  0  0  0
 26 13  1  0  0  0  0
 26 24  1  0  0  0  0
 28 12  1  0  0  0  0
M  END
>  <MODEL>
5

>  <REMARK>
 VINA RESULT:      -5.1      1.125      1.308
  Name = 
  0 active torsions:
  status: ('A' for Active; 'I' for Inactive)
                            x       y       z     vdW  Elec       q    Type
                         _______ _______ _______ _____ _____    ______ ____

>  <TORSDO>
F 0

$$$$
=
 OpenBabel11122411553D

 28 32  0  0  1  0  0  0  0  0999 V2000
  179.6430  177.2920  138.9510 C   0  0  0  0  0  0  0  0  0  0  0  0
  181.1400  180.1380  142.8340 F   0  0  0  0  0  0  0  0  0  0  0  0
  183.8840  178.6260  137.1760 O   0  0  0  0  0  0  0  0  0  0  0  0
  181.0470  174.8770  139.1670 C   0  0  0  0  0  3  0  0  0  0  0  0
  184.2470  178.7370  139.5400 C   0  0  0  0  0  0  0  0  0  0  0  0
  178.9310  178.5960  138.7610 C   0  0  0  0  0  2  0  0  0  0  0  0
  180.0590  178.2890  143.8200 C   0  0  0  0  0  1  0  0  0  0  0  0
  181.3480  178.8260  143.2320 C   0  0  1  0  0  0  0  0  0  0  0  0
  183.7580  179.1420  143.6730 C   0  0  1  0  0  3  0  0  0  0  0  0
  181.7710  177.9340  142.0420 C   0  0  2  0  0  3  0  0  0  0  0  0
  181.0400  178.1070  136.4110 O   0  0  0  0  0  1  0  0  0  0  0  0
  182.0250  179.4040  140.0970 C   0  0  1  0  0  3  0  0  0  0  0  0
  184.1410  178.0970  142.8110 O   0  0  0  0  0  0  0  0  0  0  0  0
  182.4170  178.8160  144.3130 C   0  0  0  0  0  2  0  0  0  0  0  0
  180.4710  179.3210  136.8040 C   0  0  2  0  0  3  0  0  0  0  0  0
  180.7090  177.1850  139.8670 C   0  0  0  0  0  0  0  0  0  0  0  0
  183.4580  178.8310  138.3430 C   0  0  0  0  0  0  0  0  0  0  0  0
  184.8030  179.3090  144.7550 C   0  0  0  0  0  1  0  0  0  0  0  0
  181.3880  180.1170  137.7360 C   0  0  0  0  0  2  0  0  0  0  0  0
  181.4180  175.9740  139.9480 C   0  0  0  0  0  3  0  0  0  0  0  0
  179.2660  176.1800  138.1850 C   0  0  0  0  0  3  0  0  0  0  0  0
  179.9640  174.9770  138.2940 C   0  0  0  0  0  3  0  0  0  0  0  0
  179.0430  179.1290  137.3300 C   0  0  0  0  0  2  0  0  0  0  0  0
  183.4320  179.1750  140.7040 C   0  0  1  0  0  3  0  0  0  0  0  0
  182.1400  179.2560  138.6430 N   0  0  0  0  0  0  0  0  0  0  0  0
  183.2630  178.0410  141.7020 C   0  0  2  0  0  3  0  0  0  0  0  0
  185.4560  178.3880  139.5870 O   0  0  0  0  0  0  0  0  0  0  0  0
  181.0810  178.3680  140.7480 C   0  0  1  0  0  3  0  0  0  0  0  0
  1 16  1  0  0  0  0
  2  8  1  0  0  0  0
  3 17  2  0  0  0  0
  4 20  1  0  0  0  0
  5 27  2  0  0  0  0
  5 24  1  0  0  0  0
  6  1  1  0  0  0  0
  8  7  1  1  0  0  0
  8 14  1  0  0  0  0
  9 14  1  0  0  0  0
  9 18  1  1  0  0  0
 10  8  1  0  0  0  0
 11 15  1  0  0  0  0
 12 24  1  0  0  0  0
 12 28  1  0  0  0  0
 13  9  1  0  0  0  0
 15 23  1  0  0  0  0
 15 19  1  0  0  0  0
 16 20  2  0  0  0  0
 16 28  1  0  0  0  0
 17 25  1  0  0  0  0
 17  5  1  0  0  0  0
 19 25  1  0  0  0  0
 21 22  1  0  0  0  0
 21  1  2  0  0  0  0
 22  4  2  0  0  0  0
 23  6  1  0  0  0  0
 24 26  1  0  0  0  0
 25 12  1  0  0  0  0
 26 10  1  0  0  0  0
 26 13  1  0  0  0  0
 28 10  1  0  0  0  0
M  END
>  <MODEL>
6

>  <REMARK>
 VINA RESULT:      -4.9      2.389      4.659
  Name = 
  0 active torsions:
  status: ('A' for Active; 'I' for Inactive)
                            x       y       z     vdW  Elec       q    Type
                         _______ _______ _______ _____ _____    ______ ____

>  <TORSDO>
F 0

$$$$
=
 OpenBabel11122411553D

 28 32  0  0  1  0  0  0  0  0999 V2000
  182.7200  177.6370  138.2640 C   0  0  0  0  0  0  0  0  0  0  0  0
  185.3220  173.3210  138.1230 F   0  0  0  0  0  0  0  0  0  0  0  0
  186.9520  179.4760  136.9860 O   0  0  0  0  0  0  0  0  0  0  0  0
  182.1790  178.3090  135.5990 C   0  0  0  0  0  3  0  0  0  0  0  0
  187.0650  177.2470  136.1200 C   0  0  0  0  0  0  0  0  0  0  0  0
  183.0540  177.3500  139.6960 C   0  0  0  0  0  2  0  0  0  0  0  0
  183.2070  172.7820  137.2320 C   0  0  0  0  0  1  0  0  0  0  0  0
  184.5840  173.3490  136.9500 C   0  0  1  0  0  0  0  0  0  0  0  0
  186.5570  173.1460  135.4780 C   0  0  1  0  0  3  0  0  0  0  0  0
  184.4360  174.7900  136.4090 C   0  0  2  0  0  3  0  0  0  0  0  0
  184.5510  179.9900  138.6940 O   0  0  0  0  0  1  0  0  0  0  0  0
  185.7760  176.2430  137.8570 C   0  0  1  0  0  3  0  0  0  0  0  0
  186.2470  174.3140  134.7570 O   0  0  0  0  0  0  0  0  0  0  0  0
  185.2740  172.4620  135.9270 C   0  0  0  0  0  2  0  0  0  0  0  0
  184.8760  179.1930  139.7940 C   0  0  2  0  0  3  0  0  0  0  0  0
  183.3620  176.9340  137.2240 C   0  0  0  0  0  0  0  0  0  0  0  0
  186.6510  178.2550  137.0550 C   0  0  0  0  0  0  0  0  0  0  0  0
  187.3450  172.2050  134.5940 C   0  0  0  0  0  1  0  0  0  0  0  0
  185.9940  178.1950  139.4790 C   0  0  0  0  0  2  0  0  0  0  0  0
  183.0960  177.2980  135.8930 C   0  0  0  0  0  3  0  0  0  0  0  0
  181.7860  178.6370  137.9600 C   0  0  0  0  0  3  0  0  0  0  0  0
  181.5150  178.9710  136.6320 C   0  0  0  0  0  3  0  0  0  0  0  0
  183.6270  178.5680  140.4260 C   0  0  0  0  0  2  0  0  0  0  0  0
  186.6240  175.9120  136.6040 C   0  0  1  0  0  3  0  0  0  0  0  0
  185.9090  177.6800  138.1160 N   0  0  0  0  0  0  0  0  0  0  0  0
  185.6600  175.2720  135.6190 C   0  0  2  0  0  3  0  0  0  0  0  0
  187.7410  177.4570  135.0780 O   0  0  0  0  0  0  0  0  0  0  0  0
  184.3270  175.8040  137.5480 C   0  0  1  0  0  3  0  0  0  0  0  0
  1  6  1  0  0  0  0
  3 17  2  0  0  0  0
  4 20  2  0  0  0  0
  4 22  1  0  0  0  0
  5 24  1  0  0  0  0
  5 17  1  0  0  0  0
  6 23  1  0  0  0  0
  8  7  1  1  0  0  0
  8  2  1  0  0  0  0
  9 18  1  6  0  0  0
  9 14  1  0  0  0  0
 10  8  1  0  0  0  0
 10 28  1  0  0  0  0
 11 15  1  0  0  0  0
 12 25  1  0  0  0  0
 13  9  1  0  0  0  0
 13 26  1  0  0  0  0
 14  8  1  0  0  0  0
 15 23  1  0  0  0  0
 16 28  1  0  0  0  0
 16  1  2  0  0  0  0
 17 25  1  0  0  0  0
 19 15  1  0  0  0  0
 20 16  1  0  0  0  0
 21  1  1  0  0  0  0
 22 21  2  0  0  0  0
 24 12  1  0  0  0  0
 25 19  1  0  0  0  0
 26 10  1  0  0  0  0
 26 24  1  0  0  0  0
 27  5  2  0  0  0  0
 28 12  1  0  0  0  0
M  END
>  <MODEL>
7

>  <REMARK>
 VINA RESULT:      -4.7      3.806      5.767
  Name = 
  0 active torsions:
  status: ('A' for Active; 'I' for Inactive)
                            x       y       z     vdW  Elec       q    Type
                         _______ _______ _______ _____ _____    ______ ____

>  <TORSDO>
F 0

$$$$
=
 OpenBabel11122411553D

 28 32  0  0  1  0  0  0  0  0999 V2000
  179.5440  176.2140  137.1690 C   0  0  0  0  0  0  0  0  0  0  0  0
  181.0700  179.7180  140.4570 F   0  0  0  0  0  0  0  0  0  0  0  0
  183.9360  176.9010  135.3890 O   0  0  0  0  0  0  0  0  0  0  0  0
  180.7730  173.8200  137.9530 C   0  0  0  0  0  3  0  0  0  0  0  0
  184.2080  177.4820  137.6950 C   0  0  0  0  0  0  0  0  0  0  0  0
  178.9310  177.4880  136.6750 C   0  0  0  0  0  2  0  0  0  0  0  0
  179.8260  178.1810  141.7430 C   0  0  0  0  0  1  0  0  0  0  0  0
  181.1730  178.5080  141.1270 C   0  0  1  0  0  0  0  0  0  0  0  0
  183.5780  178.7690  141.6240 C   0  0  1  0  0  3  0  0  0  0  0  0
  181.5820  177.3640  140.1710 C   0  0  2  0  0  3  0  0  0  0  0  0
  181.0970  176.3980  134.5940 O   0  0  0  0  0  1  0  0  0  0  0  0
  182.0150  178.3770  137.9820 C   0  0  1  0  0  3  0  0  0  0  0  0
  183.9240  177.5470  141.0180 O   0  0  0  0  0  0  0  0  0  0  0  0
  182.1930  178.6630  142.2440 C   0  0  0  0  0  2  0  0  0  0  0  0
  180.5960  177.6980  134.6980 C   0  0  2  0  0  3  0  0  0  0  0  0
  180.5630  176.2400  138.1430 C   0  0  0  0  0  0  0  0  0  0  0  0
  183.4770  177.3690  136.4640 C   0  0  0  0  0  0  0  0  0  0  0  0
  184.5870  179.0980  142.7030 C   0  0  0  0  0  1  0  0  0  0  0  0
  181.5250  178.6170  135.4940 C   0  0  0  0  0  2  0  0  0  0  0  0
  181.1840  175.0330  138.5100 C   0  0  0  0  0  3  0  0  0  0  0  0
  179.1250  174.9900  136.6280 C   0  0  0  0  0  3  0  0  0  0  0  0
  179.7350  173.7980  137.0200 C   0  0  0  0  0  3  0  0  0  0  0  0
  179.1380  177.7030  135.1730 C   0  0  0  0  0  2  0  0  0  0  0  0
  183.3770  178.2000  138.6990 C   0  0  1  0  0  3  0  0  0  0  0  0
  182.1800  177.9230  136.5980 N   0  0  0  0  0  0  0  0  0  0  0  0
  183.0910  177.3110  139.8980 C   0  0  2  0  0  3  0  0  0  0  0  0
  185.3880  177.0810  137.8790 O   0  0  0  0  0  0  0  0  0  0  0  0
  180.9770  177.5570  138.7800 C   0  0  1  0  0  3  0  0  0  0  0  0
  1 16  1  0  0  0  0
  2  8  1  0  0  0  0
  3 17  2  0  0  0  0
  4 20  1  0  0  0  0
  5 27  2  0  0  0  0
  5 24  1  0  0  0  0
  6  1  1  0  0  0  0
  8  7  1  1  0  0  0
  8 14  1  0  0  0  0
  9 14  1  0  0  0  0
  9 18  1  1  0  0  0
 10  8  1  0  0  0  0
 11 15  1  0  0  0  0
 12 24  1  0  0  0  0
 12 28  1  0  0  0  0
 13  9  1  0  0  0  0
 15 23  1  0  0  0  0
 15 19  1  0  0  0  0
 16 20  2  0  0  0  0
 16 28  1  0  0  0  0
 17 25  1  0  0  0  0
 17  5  1  0  0  0  0
 19 25  1  0  0  0  0
 21 22  1  0  0  0  0
 21  1  2  0  0  0  0
 22  4  2  0  0  0  0
 23  6  1  0  0  0  0
 24 26  1  0  0  0  0
 25 12  1  0  0  0  0
 26 10  1  0  0  0  0
 26 13  1  0  0  0  0
 28 10  1  0  0  0  0
M  END
>  <MODEL>
8

>  <REMARK>
 VINA RESULT:      -4.7      2.798      4.971
  Name = 
  0 active torsions:
  status: ('A' for Active; 'I' for Inactive)
                            x       y       z     vdW  Elec       q    Type
                         _______ _______ _______ _____ _____    ______ ____

>  <TORSDO>
F 0

$$$$
=
 OpenBabel11122411553D

 28 32  0  0  1  0  0  0  0  0999 V2000
  180.1160  178.7090  138.5940 C   0  0  0  0  0  0  0  0  0  0  0  0
  182.3160  174.3800  137.2410 F   0  0  0  0  0  0  0  0  0  0  0  0
  184.5580  179.7630  140.0370 O   0  0  0  0  0  0  0  0  0  0  0  0
  180.8330  180.5910  136.6460 C   0  0  0  0  0  3  0  0  0  0  0  0
  184.9390  178.1900  138.2730 C   0  0  0  0  0  0  0  0  0  0  0  0
  179.7740  177.7520  139.6940 C   0  0  0  0  0  2  0  0  0  0  0  0
  180.7850  174.8480  135.5090 C   0  0  0  0  0  1  0  0  0  0  0  0
  182.1700  175.1060  136.0680 C   0  0  1  0  0  0  0  0  0  0  0  0
  184.5770  175.0650  135.5180 C   0  0  1  0  0  3  0  0  0  0  0  0
  182.3410  176.6220  136.3170 C   0  0  2  0  0  3  0  0  0  0  0  0
  181.6770  180.0790  140.7750 O   0  0  0  0  0  1  0  0  0  0  0  0
  182.9730  176.8980  138.6680 C   0  0  1  0  0  3  0  0  0  0  0  0
  184.6700  176.4660  135.4300 O   0  0  0  0  0  0  0  0  0  0  0  0
  183.1990  174.6090  135.0650 C   0  0  0  0  0  2  0  0  0  0  0  0
  181.4500  178.8290  141.3540 C   0  0  2  0  0  3  0  0  0  0  0  0
  181.1170  178.3920  137.6540 C   0  0  0  0  0  0  0  0  0  0  0  0
  184.2030  178.7580  139.3670 C   0  0  0  0  0  0  0  0  0  0  0  0
  185.6300  174.4360  134.6310 C   0  0  0  0  0  1  0  0  0  0  0  0
  182.5450  177.8180  141.0050 C   0  0  0  0  0  2  0  0  0  0  0  0
  181.4800  179.3550  136.6960 C   0  0  0  0  0  3  0  0  0  0  0  0
  179.4580  179.9450  138.5250 C   0  0  0  0  0  3  0  0  0  0  0  0
  179.8140  180.8810  137.5530 C   0  0  0  0  0  3  0  0  0  0  0  0
  180.0230  178.3360  141.0870 C   0  0  0  0  0  2  0  0  0  0  0  0
  184.2700  176.9410  137.8210 C   0  0  1  0  0  3  0  0  0  0  0  0
  183.0440  177.9900  139.6440 N   0  0  0  0  0  0  0  0  0  0  0  0
  183.8080  177.0670  136.3790 C   0  0  2  0  0  3  0  0  0  0  0  0
  186.0130  178.6520  137.8030 O   0  0  0  0  0  0  0  0  0  0  0  0
  181.7890  177.0280  137.6840 C   0  0  1  0  0  3  0  0  0  0  0  0
  1  6  1  0  0  0  0
  4 20  2  0  0  0  0
  4 22  1  0  0  0  0
  5 17  1  0  0  0  0
  6 23  1  0  0  0  0
  8  7  1  6  0  0  0
  8 10  1  0  0  0  0
  8  2  1  0  0  0  0
  9 18  1  6  0  0  0
 10 26  1  0  0  0  0
 10 28  1  0  0  0  0
 11 15  1  0  0  0  0
 12 25  1  0  0  0  0
 13  9  1  0  0  0  0
 13 26  1  0  0  0  0
 14  9  1  0  0  0  0
 14  8  1  0  0  0  0
 16 28  1  0  0  0  0
 16  1  2  0  0  0  0
 17 25  1  0  0  0  0
 17  3  2  0  0  0  0
 19 15  1  0  0  0  0
 20 16  1  0  0  0  0
 21  1  1  0  0  0  0
 22 21  2  0  0  0  0
 23 15  1  0  0  0  0
 24  5  1  0  0  0  0
 24 12  1  0  0  0  0
 25 19  1  0  0  0  0
 26 24  1  0  0  0  0
 27  5  2  0  0  0  0
 28 12  1  0  0  0  0
M  END
>  <MODEL>
9

>  <REMARK>
 VINA RESULT:      -4.6      2.598      4.250
  Name = 
  0 active torsions:
  status: ('A' for Active; 'I' for Inactive)
                            x       y       z     vdW  Elec       q    Type
                         _______ _______ _______ _____ _____    ______ ____

>  <TORSDO>
F 0

$$$$
