=
 OpenBabel11122410253D

 30 35  0  0  1  0  0  0  0  0999 V2000
  189.1870  177.5330  143.4910 C   0  0  1  0  0  3  0  0  0  0  0  0
  191.1330  176.3390  144.6730 C   0  0  2  0  0  3  0  0  0  0  0  0
  187.0270  177.8020  147.2140 C   0  0  0  0  0  2  0  0  0  0  0  0
  187.8680  178.3380  143.6790 C   0  0  1  0  0  3  0  0  0  0  0  0
  189.9900  178.1520  142.5080 O   0  0  0  0  0  0  0  0  0  0  0  0
  187.3930  178.3880  139.9470 O   0  0  0  0  0  1  0  0  0  0  0  0
  184.6760  178.0440  142.9680 C   0  0  1  0  0  3  0  0  0  0  0  0
  188.0060  178.6480  141.1750 C   0  0  2  0  0  3  0  0  0  0  0  0
  184.6560  178.0880  144.5000 C   0  0  2  0  0  3  0  0  0  0  0  0
  185.8560  178.4960  146.6560 C   0  0  0  0  0  0  0  0  0  0  0  0
  189.3850  177.9720  141.2420 C   0  0  2  0  0  3  0  0  0  0  0  0
  187.1170  178.1930  142.3370 C   0  0  2  0  0  3  0  0  0  0  0  0
  191.9610  176.3100  145.9640 C   0  0  0  0  0  2  0  0  0  0  0  0
  183.4390  178.9210  144.8550 C   0  0  0  0  0  2  0  0  0  0  0  0
  183.2930  178.4680  142.4940 C   0  0  0  0  0  2  0  0  0  0  0  0
  191.9790  176.6630  143.6110 O   0  0  0  0  0  1  0  0  0  0  0  0
  187.9350  177.8740  146.0070 C   0  0  2  0  0  3  0  0  0  0  0  0
  191.1350  176.4290  147.2250 C   0  0  0  0  0  3  0  0  0  0  0  0
  189.9870  177.3530  144.7960 C   0  0  2  0  0  3  0  0  0  0  0  0
  187.0950  177.7890  144.8080 N   0  0  1  0  0  0  0  0  0  0  0  0
  184.9680  178.9700  147.3440 O   0  0  0  0  0  0  0  0  0  0  0  0
  185.9370  178.6180  145.1670 C   0  0  1  0  0  3  0  0  0  0  0  0
  182.4540  178.6730  143.7380 C   0  0  0  0  0  2  0  0  0  0  0  0
  185.7770  180.3580  142.6630 C   0  0  0  0  0  1  0  0  0  0  0  0
  189.8290  176.7340  147.2120 C   0  0  0  0  0  3  0  0  0  0  0  0
  189.0670  176.8710  145.9200 C   0  0  1  0  0  3  0  0  0  0  0  0
  185.7530  178.8810  142.2720 C   0  0  2  0  0  3  0  0  0  0  0  0
  189.3670  176.5040  140.8050 C   0  0  0  0  0  2  0  0  0  0  0  0
  190.5150  176.9510  138.9760 C   0  0  0  0  0  1  0  0  0  0  0  0
  190.5540  176.1910  140.1440 O   0  0  0  0  0  0  0  0  0  0  0  0
  1  5  1  6  0  0  0
  1  4  1  0  0  0  0
  1 19  1  0  0  0  0
  2 16  1  6  0  0  0
  2 19  1  0  0  0  0
  2 13  1  0  0  0  0
  4 20  1  0  0  0  0
  6  8  1  0  0  0  0
  7  9  1  0  0  0  0
  8 11  1  0  0  0  0
  8 12  1  0  0  0  0
  9 14  1  0  0  0  0
  9 22  1  0  0  0  0
 10  3  1  0  0  0  0
 10 21  2  0  0  0  0
 11  5  1  0  0  0  0
 12  4  1  0  0  0  0
 13 18  1  0  0  0  0
 15  7  1  0  0  0  0
 15 23  1  0  0  0  0
 17  3  1  0  0  0  0
 19 26  1  0  0  0  0
 20 22  1  0  0  0  0
 20 17  1  0  0  0  0
 22 10  1  0  0  0  0
 23 14  1  0  0  0  0
 25 18  2  0  0  0  0
 26 17  1  0  0  0  0
 26 25  1  0  0  0  0
 27 12  1  0  0  0  0
 27 24  1  0  0  0  0
 27  7  1  0  0  0  0
 28 11  1  0  0  0  0
 29 30  1  0  0  0  0
 30 28  1  0  0  0  0
M  END
>  <MODEL>
1

>  <REMARK>
 VINA RESULT:      -9.4      0.000      0.000
  Name = 
  2 active torsions:
  status: ('A' for Active; 'I' for Inactive)
    1  A    between atoms: C_11  and  C_28
    2  A    between atoms: C_28  and  O_30
                            x       y       z     vdW  Elec       q    Type
                         _______ _______ _______ _____ _____    ______ ____

>  <TORSDO>
F 2

$$$$
=
 OpenBabel11122410253D

 30 35  0  0  1  0  0  0  0  0999 V2000
  187.2320  178.1360  140.5350 C   0  0  1  0  0  3  0  0  0  0  0  0
  185.0510  179.1580  139.6360 C   0  0  2  0  0  3  0  0  0  0  0  0
  185.6220  178.0960  144.5350 C   0  0  0  0  0  2  0  0  0  0  0  0
  187.9280  177.4550  141.7490 C   0  0  1  0  0  3  0  0  0  0  0  0
  187.5480  177.4380  139.3480 O   0  0  0  0  0  0  0  0  0  0  0  0
  191.1700  177.4160  139.8400 O   0  0  0  0  0  1  0  0  0  0  0  0
  190.4260  178.0320  143.8010 C   0  0  1  0  0  3  0  0  0  0  0  0
  189.8380  177.1120  140.1300 C   0  0  2  0  0  3  0  0  0  0  0  0
  189.2290  178.0030  144.7590 C   0  0  2  0  0  3  0  0  0  0  0  0
  186.8120  177.5060  145.1680 C   0  0  0  0  0  0  0  0  0  0  0  0
  188.9100  177.6610  139.0340 C   0  0  2  0  0  3  0  0  0  0  0  0
  189.4410  177.6560  141.5070 C   0  0  2  0  0  3  0  0  0  0  0  0
  183.5230  179.1230  139.7740 C   0  0  0  0  0  2  0  0  0  0  0  0
  189.7320  177.2870  145.9980 C   0  0  0  0  0  2  0  0  0  0  0  0
  191.6650  177.7300  144.6310 C   0  0  0  0  0  2  0  0  0  0  0  0
  185.3900  178.7500  138.3450 O   0  0  0  0  0  1  0  0  0  0  0  0
  186.0250  177.9320  143.0870 C   0  0  2  0  0  3  0  0  0  0  0  0
  183.0380  179.0910  141.2050 C   0  0  0  0  0  3  0  0  0  0  0  0
  185.7030  178.2540  140.6910 C   0  0  2  0  0  3  0  0  0  0  0  0
  187.4810  178.0820  143.0060 N   0  0  1  0  0  0  0  0  0  0  0  0
  186.8340  177.1200  146.3250 O   0  0  0  0  0  0  0  0  0  0  0  0
  187.9450  177.3640  144.2010 C   0  0  1  0  0  3  0  0  0  0  0  0
  191.2050  177.6130  146.0690 C   0  0  0  0  0  2  0  0  0  0  0  0
  190.1070  175.6240  142.9270 C   0  0  0  0  0  1  0  0  0  0  0  0
  183.8600  178.9060  142.2480 C   0  0  0  0  0  3  0  0  0  0  0  0
  185.3530  178.8270  142.0660 C   0  0  1  0  0  3  0  0  0  0  0  0
  190.3580  177.0940  142.5920 C   0  0  2  0  0  3  0  0  0  0  0  0
  189.1950  179.1210  138.6680 C   0  0  0  0  0  2  0  0  0  0  0  0
  189.1610  178.3300  136.6100 C   0  0  0  0  0  1  0  0  0  0  0  0
  188.7080  179.3930  137.3900 O   0  0  0  0  0  0  0  0  0  0  0  0
  1  5  1  6  0  0  0
  1 19  1  0  0  0  0
  1  4  1  0  0  0  0
  2 16  1  6  0  0  0
  2 13  1  0  0  0  0
  2 19  1  0  0  0  0
  3 10  1  0  0  0  0
  4 20  1  0  0  0  0
  6  8  1  0  0  0  0
  7 15  1  0  0  0  0
  7  9  1  0  0  0  0
  8 12  1  0  0  0  0
  9 14  1  0  0  0  0
 10 21  2  0  0  0  0
 11  5  1  0  0  0  0
 11  8  1  0  0  0  0
 12  4  1  0  0  0  0
 12 27  1  0  0  0  0
 13 18  1  0  0  0  0
 14 23  1  0  0  0  0
 15 23  1  0  0  0  0
 17  3  1  0  0  0  0
 18 25  2  0  0  0  0
 19 26  1  0  0  0  0
 20 17  1  0  0  0  0
 20 22  1  0  0  0  0
 22  9  1  0  0  0  0
 22 10  1  0  0  0  0
 26 25  1  0  0  0  0
 26 17  1  0  0  0  0
 27 24  1  0  0  0  0
 27  7  1  0  0  0  0
 28 11  1  0  0  0  0
 29 30  1  0  0  0  0
 30 28  1  0  0  0  0
M  END
>  <MODEL>
2

>  <REMARK>
 VINA RESULT:      -8.9      1.782      5.718
  Name = 
  2 active torsions:
  status: ('A' for Active; 'I' for Inactive)
    1  A    between atoms: C_11  and  C_28
    2  A    between atoms: C_28  and  O_30
                            x       y       z     vdW  Elec       q    Type
                         _______ _______ _______ _____ _____    ______ ____

>  <TORSDO>
F 2

$$$$
=
 OpenBabel11122410253D

 30 35  0  0  1  0  0  0  0  0999 V2000
  188.1100  177.8070  142.6850 C   0  0  1  0  0  3  0  0  0  0  0  0
  187.0290  177.7180  145.0150 C   0  0  2  0  0  3  0  0  0  0  0  0
  184.3280  178.8870  140.9170 C   0  0  0  0  0  2  0  0  0  0  0  0
  187.9330  178.2410  141.2000 C   0  0  1  0  0  3  0  0  0  0  0  0
  189.3870  178.1960  143.1470 O   0  0  0  0  0  0  0  0  0  0  0  0
  191.2840  176.7380  140.3830 O   0  0  0  0  0  1  0  0  0  0  0  0
  187.8280  176.8590  138.2230 C   0  0  1  0  0  3  0  0  0  0  0  0
  190.3680  177.6000  140.9930 C   0  0  2  0  0  3  0  0  0  0  0  0
  186.4290  177.4760  138.3350 C   0  0  2  0  0  3  0  0  0  0  0  0
  184.8300  178.9770  139.5370 C   0  0  0  0  0  0  0  0  0  0  0  0
  190.3670  177.3930  142.5160 C   0  0  2  0  0  3  0  0  0  0  0  0
  188.9630  177.4020  140.4120 C   0  0  2  0  0  3  0  0  0  0  0  0
  186.0020  178.4040  145.9260 C   0  0  0  0  0  2  0  0  0  0  0  0
  186.1280  178.0250  136.9530 C   0  0  0  0  0  2  0  0  0  0  0  0
  188.1190  176.6870  136.7390 C   0  0  0  0  0  2  0  0  0  0  0  0
  188.2880  177.8250  145.6060 O   0  0  0  0  0  1  0  0  0  0  0  0
  185.6500  178.7330  141.6340 C   0  0  2  0  0  3  0  0  0  0  0  0
  184.7110  178.7690  145.2290 C   0  0  0  0  0  3  0  0  0  0  0  0
  187.0150  178.3570  143.6200 C   0  0  2  0  0  3  0  0  0  0  0  0
  186.5510  177.9780  140.7570 N   0  0  1  0  0  0  0  0  0  0  0  0
  184.1710  179.4230  138.6120 O   0  0  0  0  0  0  0  0  0  0  0  0
  186.2570  178.5410  139.4330 C   0  0  1  0  0  3  0  0  0  0  0  0
  186.8700  177.1180  136.0000 C   0  0  0  0  0  2  0  0  0  0  0  0
  189.1070  179.0860  138.4810 C   0  0  0  0  0  1  0  0  0  0  0  0
  184.5540  178.6860  143.9000 C   0  0  0  0  0  3  0  0  0  0  0  0
  185.6310  178.1130  143.0160 C   0  0  1  0  0  3  0  0  0  0  0  0
  188.9700  177.6230  138.9000 C   0  0  2  0  0  3  0  0  0  0  0  0
  190.2760  175.9210  142.9330 C   0  0  0  0  0  2  0  0  0  0  0  0
  191.5180  176.3200  144.7110 C   0  0  0  0  0  1  0  0  0  0  0  0
  191.4580  175.5330  143.5620 O   0  0  0  0  0  0  0  0  0  0  0  0
  1  5  1  1  0  0  0
  1 19  1  0  0  0  0
  2 16  1  1  0  0  0
  2 13  1  0  0  0  0
  3 17  1  0  0  0  0
  4  1  1  0  0  0  0
  6  8  1  0  0  0  0
  7  9  1  0  0  0  0
  7 27  1  0  0  0  0
  8 11  1  0  0  0  0
  9 22  1  0  0  0  0
 10  3  1  0  0  0  0
 11 28  1  0  0  0  0
 11  5  1  0  0  0  0
 12  8  1  0  0  0  0
 12  4  1  0  0  0  0
 14  9  1  0  0  0  0
 15  7  1  0  0  0  0
 17 26  1  0  0  0  0
 18 13  1  0  0  0  0
 19  2  1  0  0  0  0
 20  4  1  0  0  0  0
 20 17  1  0  0  0  0
 21 10  2  0  0  0  0
 22 10  1  0  0  0  0
 22 20  1  0  0  0  0
 23 15  1  0  0  0  0
 23 14  1  0  0  0  0
 24 27  1  0  0  0  0
 25 18  2  0  0  0  0
 26 19  1  0  0  0  0
 26 25  1  0  0  0  0
 27 12  1  0  0  0  0
 28 30  1  0  0  0  0
 30 29  1  0  0  0  0
M  END
>  <MODEL>
3

>  <REMARK>
 VINA RESULT:      -8.4      2.341      5.459
  Name = 
  2 active torsions:
  status: ('A' for Active; 'I' for Inactive)
    1  A    between atoms: C_11  and  C_28
    2  A    between atoms: C_28  and  O_30
                            x       y       z     vdW  Elec       q    Type
                         _______ _______ _______ _____ _____    ______ ____

>  <TORSDO>
F 2

$$$$
=
 OpenBabel11122410253D

 30 35  0  0  1  0  0  0  0  0999 V2000
  187.4740  178.0200  140.7440 C   0  0  1  0  0  3  0  0  0  0  0  0
  189.3260  177.3520  142.3960 C   0  0  2  0  0  3  0  0  0  0  0  0
  184.6510  178.3930  143.9820 C   0  0  0  0  0  2  0  0  0  0  0  0
  186.0380  178.6000  140.5870 C   0  0  1  0  0  3  0  0  0  0  0  0
  188.3420  178.6360  139.8150 O   0  0  0  0  0  0  0  0  0  0  0  0
  186.2550  178.0740  136.8680 O   0  0  0  0  0  1  0  0  0  0  0  0
  183.1110  177.6590  139.4310 C   0  0  1  0  0  3  0  0  0  0  0  0
  186.5860  178.5970  138.1200 C   0  0  2  0  0  3  0  0  0  0  0  0
  182.8040  177.9000  140.9140 C   0  0  2  0  0  3  0  0  0  0  0  0
  183.5120  178.7920  143.1400 C   0  0  0  0  0  0  0  0  0  0  0  0
  188.0150  178.1880  138.5140 C   0  0  2  0  0  3  0  0  0  0  0  0
  185.5760  178.1500  139.1830 C   0  0  2  0  0  3  0  0  0  0  0  0
  189.8970  177.6380  143.7910 C   0  0  0  0  0  2  0  0  0  0  0  0
  181.4320  178.5460  140.9330 C   0  0  0  0  0  2  0  0  0  0  0  0
  181.7920  177.7690  138.6810 C   0  0  0  0  0  2  0  0  0  0  0  0
  190.2950  177.6760  141.4450 O   0  0  0  0  0  1  0  0  0  0  0  0
  185.7440  178.4640  142.9400 C   0  0  2  0  0  3  0  0  0  0  0  0
  188.8460  177.7750  144.8680 C   0  0  0  0  0  3  0  0  0  0  0  0
  188.0390  178.1560  142.1710 C   0  0  2  0  0  3  0  0  0  0  0  0
  185.1620  178.0760  141.6510 N   0  0  1  0  0  0  0  0  0  0  0  0
  182.4520  179.1900  143.5930 O   0  0  0  0  0  0  0  0  0  0  0  0
  183.8470  178.7300  141.6830 C   0  0  1  0  0  3  0  0  0  0  0  0
  180.7170  177.9860  139.7260 C   0  0  0  0  0  2  0  0  0  0  0  0
  183.8910  180.0700  138.9410 C   0  0  0  0  0  1  0  0  0  0  0  0
  187.5340  177.8420  144.5980 C   0  0  0  0  0  3  0  0  0  0  0  0
  187.0100  177.6720  143.1960 C   0  0  1  0  0  3  0  0  0  0  0  0
  184.1610  178.5740  138.7920 C   0  0  2  0  0  3  0  0  0  0  0  0
  188.2970  176.6940  138.3200 C   0  0  0  0  0  2  0  0  0  0  0  0
  190.1810  177.0300  137.2250 C   0  0  0  0  0  1  0  0  0  0  0  0
  189.6690  176.4580  138.3890 O   0  0  0  0  0  0  0  0  0  0  0  0
  1  5  1  6  0  0  0
  1 19  1  0  0  0  0
  2 16  1  6  0  0  0
  2 13  1  0  0  0  0
  4  1  1  0  0  0  0
  4 20  1  0  0  0  0
  6  8  1  0  0  0  0
  7  9  1  0  0  0  0
  8 11  1  0  0  0  0
  8 12  1  0  0  0  0
  9 14  1  0  0  0  0
  9 22  1  0  0  0  0
 10 21  2  0  0  0  0
 10  3  1  0  0  0  0
 11  5  1  0  0  0  0
 12  4  1  0  0  0  0
 13 18  1  0  0  0  0
 15  7  1  0  0  0  0
 15 23  1  0  0  0  0
 17 26  1  0  0  0  0
 17  3  1  0  0  0  0
 19  2  1  0  0  0  0
 19 26  1  0  0  0  0
 20 22  1  0  0  0  0
 20 17  1  0  0  0  0
 22 10  1  0  0  0  0
 23 14  1  0  0  0  0
 25 18  2  0  0  0  0
 26 25  1  0  0  0  0
 27 24  1  0  0  0  0
 27 12  1  0  0  0  0
 27  7  1  0  0  0  0
 28 30  1  0  0  0  0
 28 11  1  0  0  0  0
 29 30  1  0  0  0  0
M  END
>  <MODEL>
4

>  <REMARK>
 VINA RESULT:      -8.2      2.467      3.607
  Name = 
  2 active torsions:
  status: ('A' for Active; 'I' for Inactive)
    1  A    between atoms: C_11  and  C_28
    2  A    between atoms: C_28  and  O_30
                            x       y       z     vdW  Elec       q    Type
                         _______ _______ _______ _____ _____    ______ ____

>  <TORSDO>
F 2

$$$$
=
 OpenBabel11122410253D

 30 35  0  0  1  0  0  0  0  0999 V2000
  186.2090  178.2310  140.1620 C   0  0  1  0  0  3  0  0  0  0  0  0
  187.2320  177.5930  137.8920 C   0  0  2  0  0  3  0  0  0  0  0  0
  190.0580  177.8320  142.0650 C   0  0  0  0  0  2  0  0  0  0  0  0
  186.5010  178.6420  141.6350 C   0  0  1  0  0  3  0  0  0  0  0  0
  185.2030  179.0640  139.6240 O   0  0  0  0  0  0  0  0  0  0  0  0
  182.8070  178.6280  142.3490 O   0  0  0  0  0  1  0  0  0  0  0  0
  185.9660  177.4990  144.6670 C   0  0  1  0  0  3  0  0  0  0  0  0
  184.0060  179.0230  141.7510 C   0  0  2  0  0  3  0  0  0  0  0  0
  187.4980  177.5090  144.5970 C   0  0  2  0  0  3  0  0  0  0  0  0
  189.5930  178.1900  143.4150 C   0  0  0  0  0  0  0  0  0  0  0  0
  183.9680  178.7490  140.2380 C   0  0  2  0  0  3  0  0  0  0  0  0
  185.2010  178.3220  142.4050 C   0  0  2  0  0  3  0  0  0  0  0  0
  188.4720  177.7680  137.0050 C   0  0  0  0  0  2  0  0  0  0  0  0
  187.9520  177.9710  145.9690 C   0  0  0  0  0  2  0  0  0  0  0  0
  185.5890  177.5390  146.1400 C   0  0  0  0  0  2  0  0  0  0  0  0
  186.1350  178.1540  137.2380 O   0  0  0  0  0  1  0  0  0  0  0  0
  188.8040  178.1710  141.2920 C   0  0  2  0  0  3  0  0  0  0  0  0
  189.7810  177.6340  137.7480 C   0  0  0  0  0  3  0  0  0  0  0  0
  187.4580  178.2530  139.2590 C   0  0  2  0  0  3  0  0  0  0  0  0
  187.6530  177.8820  142.1540 N   0  0  1  0  0  0  0  0  0  0  0  0
  190.3480  178.3910  144.3520 O   0  0  0  0  0  0  0  0  0  0  0  0
  188.1080  178.3570  143.4680 C   0  0  1  0  0  3  0  0  0  0  0  0
  186.8860  177.4840  146.9210 C   0  0  0  0  0  2  0  0  0  0  0  0
  185.6810  180.0320  144.2580 C   0  0  0  0  0  1  0  0  0  0  0  0
  189.8550  177.5700  139.0850 C   0  0  0  0  0  3  0  0  0  0  0  0
  188.6150  177.5170  139.9390 C   0  0  1  0  0  3  0  0  0  0  0  0
  185.2390  178.6120  143.9050 C   0  0  2  0  0  3  0  0  0  0  0  0
  183.4820  177.3390  139.8860 C   0  0  0  0  0  2  0  0  0  0  0  0
  183.4300  175.9700  138.1580 C   0  0  0  0  0  1  0  0  0  0  0  0
  183.1370  177.2800  138.5360 O   0  0  0  0  0  0  0  0  0  0  0  0
  1  5  1  6  0  0  0
  1  4  1  0  0  0  0
  2 16  1  6  0  0  0
  2 19  1  0  0  0  0
  3 10  1  0  0  0  0
  4 20  1  0  0  0  0
  4 12  1  0  0  0  0
  5 11  1  0  0  0  0
  7 15  1  0  0  0  0
  8  6  1  0  0  0  0
  8 12  1  0  0  0  0
  9  7  1  0  0  0  0
  9 14  1  0  0  0  0
 10 22  1  0  0  0  0
 10 21  2  0  0  0  0
 11  8  1  0  0  0  0
 12 27  1  0  0  0  0
 13 18  1  0  0  0  0
 13  2  1  0  0  0  0
 14 23  1  0  0  0  0
 15 23  1  0  0  0  0
 17  3  1  0  0  0  0
 17 20  1  0  0  0  0
 18 25  2  0  0  0  0
 19 26  1  0  0  0  0
 19  1  1  0  0  0  0
 20 22  1  0  0  0  0
 22  9  1  0  0  0  0
 25 26  1  0  0  0  0
 26 17  1  0  0  0  0
 27 24  1  0  0  0  0
 27  7  1  0  0  0  0
 28 11  1  0  0  0  0
 29 30  1  0  0  0  0
 30 28  1  0  0  0  0
M  END
>  <MODEL>
5

>  <REMARK>
 VINA RESULT:      -7.7      2.317      5.717
  Name = 
  2 active torsions:
  status: ('A' for Active; 'I' for Inactive)
    1  A    between atoms: C_11  and  C_28
    2  A    between atoms: C_28  and  O_30
                            x       y       z     vdW  Elec       q    Type
                         _______ _______ _______ _____ _____    ______ ____

>  <TORSDO>
F 2

$$$$
=
 OpenBabel11122410253D

 30 35  0  0  1  0  0  0  0  0999 V2000
  188.4900  177.8080  143.8850 C   0  0  1  0  0  3  0  0  0  0  0  0
  189.8470  176.9630  145.8980 C   0  0  2  0  0  3  0  0  0  0  0  0
  185.0330  178.3890  146.3970 C   0  0  0  0  0  2  0  0  0  0  0  0
  187.1820  178.5120  143.4200 C   0  0  1  0  0  3  0  0  0  0  0  0
  189.5970  178.3560  143.2010 O   0  0  0  0  0  0  0  0  0  0  0  0
  188.2110  178.0110  139.8360 O   0  0  0  0  0  1  0  0  0  0  0  0
  184.5360  177.8430  141.5940 C   0  0  1  0  0  3  0  0  0  0  0  0
  188.2850  178.4900  141.1470 C   0  0  2  0  0  3  0  0  0  0  0  0
  183.9140  178.0930  142.9720 C   0  0  2  0  0  3  0  0  0  0  0  0
  184.1570  178.8940  145.3290 C   0  0  0  0  0  0  0  0  0  0  0  0
  189.5450  177.9530  141.8460 C   0  0  2  0  0  3  0  0  0  0  0  0
  187.0230  178.1200  141.9350 C   0  0  2  0  0  3  0  0  0  0  0  0
  190.1010  177.1830  147.3950 C   0  0  0  0  0  2  0  0  0  0  0  0
  182.6330  178.8550  142.6950 C   0  0  0  0  0  2  0  0  0  0  0  0
  183.4400  178.0750  140.5640 C   0  0  0  0  0  2  0  0  0  0  0  0
  191.0330  177.2120  145.2060 O   0  0  0  0  0  1  0  0  0  0  0  0
  186.3400  178.3760  145.6370 C   0  0  2  0  0  3  0  0  0  0  0  0
  188.8430  177.3990  148.2040 C   0  0  0  0  0  3  0  0  0  0  0  0
  188.7170  177.8790  145.4080 C   0  0  2  0  0  3  0  0  0  0  0  0
  186.0430  178.0550  144.2380 N   0  0  1  0  0  0  0  0  0  0  0  0
  183.0570  179.3780  145.5370 O   0  0  0  0  0  0  0  0  0  0  0  0
  184.8140  178.8200  143.9870 C   0  0  1  0  0  3  0  0  0  0  0  0
  182.1740  178.3720  141.3400 C   0  0  0  0  0  2  0  0  0  0  0  0
  185.6030  180.1820  141.3700 C   0  0  0  0  0  1  0  0  0  0  0  0
  187.6390  177.5820  147.6430 C   0  0  0  0  0  3  0  0  0  0  0  0
  187.4430  177.4750  146.1530 C   0  0  1  0  0  3  0  0  0  0  0  0
  185.7760  178.6700  141.2420 C   0  0  2  0  0  3  0  0  0  0  0  0
  189.7410  176.4430  141.6760 C   0  0  0  0  0  2  0  0  0  0  0  0
  191.5670  177.1280  140.6470 C   0  0  0  0  0  1  0  0  0  0  0  0
  191.0970  176.1540  141.5280 O   0  0  0  0  0  0  0  0  0  0  0  0
  1  5  1  6  0  0  0
  1 19  1  0  0  0  0
  2 16  1  6  0  0  0
  2 13  1  0  0  0  0
  4  1  1  0  0  0  0
  4 20  1  0  0  0  0
  6  8  1  0  0  0  0
  7  9  1  0  0  0  0
  8 11  1  0  0  0  0
  8 12  1  0  0  0  0
  9 22  1  0  0  0  0
 10 21  2  0  0  0  0
 10  3  1  0  0  0  0
 11  5  1  0  0  0  0
 12  4  1  0  0  0  0
 13 18  1  0  0  0  0
 14  9  1  0  0  0  0
 15 23  1  0  0  0  0
 15  7  1  0  0  0  0
 17 26  1  0  0  0  0
 17  3  1  0  0  0  0
 19  2  1  0  0  0  0
 19 26  1  0  0  0  0
 20 17  1  0  0  0  0
 22 20  1  0  0  0  0
 22 10  1  0  0  0  0
 23 14  1  0  0  0  0
 25 18  2  0  0  0  0
 26 25  1  0  0  0  0
 27 24  1  0  0  0  0
 27  7  1  0  0  0  0
 27 12  1  0  0  0  0
 28 11  1  0  0  0  0
 29 30  1  0  0  0  0
 30 28  1  0  0  0  0
M  END
>  <MODEL>
6

>  <REMARK>
 VINA RESULT:      -7.5      1.214      1.723
  Name = 
  2 active torsions:
  status: ('A' for Active; 'I' for Inactive)
    1  A    between atoms: C_11  and  C_28
    2  A    between atoms: C_28  and  O_30
                            x       y       z     vdW  Elec       q    Type
                         _______ _______ _______ _____ _____    ______ ____

>  <TORSDO>
F 2

$$$$
=
 OpenBabel11122410253D

 30 35  0  0  1  0  0  0  0  0999 V2000
  187.9680  177.8170  139.6230 C   0  0  1  0  0  3  0  0  0  0  0  0
  190.1810  177.1670  140.7580 C   0  0  2  0  0  3  0  0  0  0  0  0
  186.1550  178.5510  143.4670 C   0  0  0  0  0  2  0  0  0  0  0  0
  186.5620  178.4570  139.8170 C   0  0  1  0  0  3  0  0  0  0  0  0
  188.5660  178.3240  138.4480 O   0  0  0  0  0  0  0  0  0  0  0  0
  185.7340  177.6730  136.2320 O   0  0  0  0  0  1  0  0  0  0  0  0
  183.4030  177.5930  139.5760 C   0  0  1  0  0  3  0  0  0  0  0  0
  186.4120  178.2610  137.3020 C   0  0  2  0  0  3  0  0  0  0  0  0
  183.5220  177.9480  141.0630 C   0  0  2  0  0  3  0  0  0  0  0  0
  184.8420  178.9500  142.9360 C   0  0  0  0  0  0  0  0  0  0  0  0
  187.8810  177.8070  137.3240 C   0  0  2  0  0  3  0  0  0  0  0  0
  185.7190  177.9390  138.6310 C   0  0  2  0  0  3  0  0  0  0  0  0
  191.1210  177.5170  141.9190 C   0  0  0  0  0  2  0  0  0  0  0  0
  182.2290  178.6630  141.4020 C   0  0  0  0  0  2  0  0  0  0  0  0
  181.9330  177.7190  139.2060 C   0  0  0  0  0  2  0  0  0  0  0  0
  190.8600  177.3770  139.5580 O   0  0  0  0  0  1  0  0  0  0  0  0
  186.9220  178.4950  142.1640 C   0  0  2  0  0  3  0  0  0  0  0  0
  190.4100  177.7800  143.2260 C   0  0  0  0  0  3  0  0  0  0  0  0
  188.9070  178.0200  140.8290 C   0  0  2  0  0  3  0  0  0  0  0  0
  185.9960  178.0520  141.1170 N   0  0  1  0  0  0  0  0  0  0  0  0
  183.9590  179.4310  143.6270 O   0  0  0  0  0  0  0  0  0  0  0  0
  184.7610  178.7730  141.4530 C   0  0  1  0  0  3  0  0  0  0  0  0
  181.1930  178.0600  140.4830 C   0  0  0  0  0  2  0  0  0  0  0  0
  184.0920  179.9220  138.7050 C   0  0  0  0  0  1  0  0  0  0  0  0
  189.0770  177.8950  143.3190 C   0  0  0  0  0  3  0  0  0  0  0  0
  188.1840  177.6590  142.1290 C   0  0  1  0  0  3  0  0  0  0  0  0
  184.2650  178.4070  138.6070 C   0  0  2  0  0  3  0  0  0  0  0  0
  188.0530  176.2910  137.1790 C   0  0  0  0  0  2  0  0  0  0  0  0
  190.0470  175.5380  136.6150 C   0  0  0  0  0  1  0  0  0  0  0  0
  188.8520  176.0080  136.0720 O   0  0  0  0  0  0  0  0  0  0  0  0
  1  5  1  6  0  0  0
  1  4  1  0  0  0  0
  1 19  1  0  0  0  0
  2 16  1  6  0  0  0
  2 19  1  0  0  0  0
  2 13  1  0  0  0  0
  4 20  1  0  0  0  0
  6  8  1  0  0  0  0
  7  9  1  0  0  0  0
  8 11  1  0  0  0  0
  8 12  1  0  0  0  0
  9 14  1  0  0  0  0
  9 22  1  0  0  0  0
 10  3  1  0  0  0  0
 10 21  2  0  0  0  0
 11  5  1  0  0  0  0
 12  4  1  0  0  0  0
 13 18  1  0  0  0  0
 15  7  1  0  0  0  0
 15 23  1  0  0  0  0
 17  3  1  0  0  0  0
 18 25  2  0  0  0  0
 19 26  1  0  0  0  0
 20 22  1  0  0  0  0
 20 17  1  0  0  0  0
 22 10  1  0  0  0  0
 23 14  1  0  0  0  0
 26 17  1  0  0  0  0
 26 25  1  0  0  0  0
 27 12  1  0  0  0  0
 27 24  1  0  0  0  0
 27  7  1  0  0  0  0
 28 11  1  0  0  0  0
 30 29  1  0  0  0  0
 30 28  1  0  0  0  0
M  END
>  <MODEL>
7

>  <REMARK>
 VINA RESULT:      -7.0      2.696      3.984
  Name = 
  2 active torsions:
  status: ('A' for Active; 'I' for Inactive)
    1  A    between atoms: C_11  and  C_28
    2  A    between atoms: C_28  and  O_30
                            x       y       z     vdW  Elec       q    Type
                         _______ _______ _______ _____ _____    ______ ____

>  <TORSDO>
F 2

$$$$
=
 OpenBabel11122410253D

 30 35  0  0  1  0  0  0  0  0999 V2000
  185.9940  178.4140  141.2690 C   0  0  1  0  0  3  0  0  0  0  0  0
  184.6840  178.5100  143.4790 C   0  0  2  0  0  3  0  0  0  0  0  0
  182.3100  178.2130  139.0370 C   0  0  0  0  0  2  0  0  0  0  0  0
  185.9070  178.5060  139.7180 C   0  0  1  0  0  3  0  0  0  0  0  0
  187.0910  179.1740  141.7330 O   0  0  0  0  0  0  0  0  0  0  0  0
  189.5790  177.7150  139.4880 O   0  0  0  0  0  1  0  0  0  0  0  0
  186.4660  176.6040  137.0990 C   0  0  1  0  0  3  0  0  0  0  0  0
  188.4310  178.4330  139.8320 C   0  0  2  0  0  3  0  0  0  0  0  0
  184.9640  176.8810  136.9750 C   0  0  2  0  0  3  0  0  0  0  0  0
  182.9440  178.1590  137.7100 C   0  0  0  0  0  0  0  0  0  0  0  0
  188.2900  178.5230  141.3600 C   0  0  2  0  0  3  0  0  0  0  0  0
  187.1830  177.8020  139.2040 C   0  0  2  0  0  3  0  0  0  0  0  0
  183.4310  179.0920  144.1460 C   0  0  0  0  0  2  0  0  0  0  0  0
  184.7200  177.0730  135.4900 C   0  0  0  0  0  2  0  0  0  0  0  0
  186.9650  176.2290  135.7120 C   0  0  0  0  0  2  0  0  0  0  0  0
  185.8090  179.0230  144.1260 O   0  0  0  0  0  1  0  0  0  0  0  0
  183.5370  178.5150  139.8670 C   0  0  2  0  0  3  0  0  0  0  0  0
  182.1860  179.0030  143.2940 C   0  0  0  0  0  3  0  0  0  0  0  0
  184.7010  178.8550  141.9830 C   0  0  2  0  0  3  0  0  0  0  0  0
  184.6800  177.8440  139.2390 N   0  0  1  0  0  0  0  0  0  0  0  0
  182.3200  178.2530  136.6660 O   0  0  0  0  0  0  0  0  0  0  0  0
  184.4330  178.0620  137.8070 C   0  0  1  0  0  3  0  0  0  0  0  0
  185.7500  176.2050  134.8070 C   0  0  0  0  0  2  0  0  0  0  0  0
  187.1900  179.0780  136.9770 C   0  0  0  0  0  1  0  0  0  0  0  0
  182.2120  178.6360  142.0040 C   0  0  0  0  0  3  0  0  0  0  0  0
  183.4860  178.1800  141.3430 C   0  0  1  0  0  3  0  0  0  0  0  0
  187.3240  177.7310  137.6830 C   0  0  2  0  0  3  0  0  0  0  0  0
  188.4720  177.1770  142.0700 C   0  0  0  0  0  2  0  0  0  0  0  0
  190.1700  176.0030  142.8440 C   0  0  0  0  0  1  0  0  0  0  0  0
  189.5500  177.2470  142.9510 O   0  0  0  0  0  0  0  0  0  0  0  0
  1  5  1  1  0  0  0
  1 19  1  0  0  0  0
  2 16  1  1  0  0  0
  2 13  1  0  0  0  0
  3 17  1  0  0  0  0
  4  1  1  0  0  0  0
  6  8  1  0  0  0  0
  7 27  1  0  0  0  0
  8 11  1  0  0  0  0
  9  7  1  0  0  0  0
  9 22  1  0  0  0  0
 10 22  1  0  0  0  0
 10  3  1  0  0  0  0
 11  5  1  0  0  0  0
 11 28  1  0  0  0  0
 12  4  1  0  0  0  0
 12  8  1  0  0  0  0
 14  9  1  0  0  0  0
 15  7  1  0  0  0  0
 17 26  1  0  0  0  0
 18 13  1  0  0  0  0
 19  2  1  0  0  0  0
 20  4  1  0  0  0  0
 20 17  1  0  0  0  0
 21 10  2  0  0  0  0
 22 20  1  0  0  0  0
 23 14  1  0  0  0  0
 23 15  1  0  0  0  0
 24 27  1  0  0  0  0
 25 18  2  0  0  0  0
 26 19  1  0  0  0  0
 26 25  1  0  0  0  0
 27 12  1  0  0  0  0
 28 30  1  0  0  0  0
 29 30  1  0  0  0  0
M  END
>  <MODEL>
8

>  <REMARK>
 VINA RESULT:      -6.9      3.541      6.867
  Name = 
  2 active torsions:
  status: ('A' for Active; 'I' for Inactive)
    1  A    between atoms: C_11  and  C_28
    2  A    between atoms: C_28  and  O_30
                            x       y       z     vdW  Elec       q    Type
                         _______ _______ _______ _____ _____    ______ ____

>  <TORSDO>
F 2

$$$$
=
 OpenBabel11122410253D

 30 35  0  0  1  0  0  0  0  0999 V2000
  186.7220  178.2520  143.0370 C   0  0  1  0  0  3  0  0  0  0  0  0
  187.4790  177.8600  145.4620 C   0  0  2  0  0  3  0  0  0  0  0  0
  182.6420  178.7590  144.3400 C   0  0  0  0  0  2  0  0  0  0  0  0
  185.5620  178.7250  142.1120 C   0  0  1  0  0  3  0  0  0  0  0  0
  187.9380  178.8290  142.6100 O   0  0  0  0  0  0  0  0  0  0  0  0
  187.6430  177.8600  139.0980 O   0  0  0  0  0  1  0  0  0  0  0  0
  183.6340  177.5000  139.7520 C   0  0  1  0  0  3  0  0  0  0  0  0
  187.2890  178.5200  140.2780 C   0  0  2  0  0  3  0  0  0  0  0  0
  182.6150  177.8620  140.8380 C   0  0  2  0  0  3  0  0  0  0  0  0
  182.0880  179.0050  142.9990 C   0  0  0  0  0  0  0  0  0  0  0  0
  188.3200  178.2390  141.3820 C   0  0  2  0  0  3  0  0  0  0  0  0
  185.8810  178.1150  140.7280 C   0  0  2  0  0  3  0  0  0  0  0  0
  187.2590  178.3130  146.9110 C   0  0  0  0  0  2  0  0  0  0  0  0
  181.4210  178.4210  140.0880 C   0  0  0  0  0  2  0  0  0  0  0  0
  182.8790  177.4560  138.4320 C   0  0  0  0  0  2  0  0  0  0  0  0
  188.7950  178.1510  145.1000 O   0  0  0  0  0  1  0  0  0  0  0  0
  184.1130  178.7970  143.9920 C   0  0  2  0  0  3  0  0  0  0  0  0
  185.8060  178.4880  147.2860 C   0  0  0  0  0  3  0  0  0  0  0  0
  186.4810  178.5590  144.5280 C   0  0  2  0  0  3  0  0  0  0  0  0
  184.2690  178.2530  142.6390 N   0  0  1  0  0  0  0  0  0  0  0  0
  180.9430  179.3780  142.8060 O   0  0  0  0  0  0  0  0  0  0  0  0
  183.1170  178.8240  141.9290 C   0  0  1  0  0  3  0  0  0  0  0  0
  181.4210  177.7050  138.7580 C   0  0  0  0  0  2  0  0  0  0  0  0
  184.5440  179.8960  139.4520 C   0  0  0  0  0  1  0  0  0  0  0  0
  184.8130  178.4470  146.3850 C   0  0  0  0  0  3  0  0  0  0  0  0
  185.0760  178.1130  144.9400 C   0  0  1  0  0  3  0  0  0  0  0  0
  184.8590  178.4120  139.6310 C   0  0  2  0  0  3  0  0  0  0  0  0
  188.6680  176.7540  141.5290 C   0  0  0  0  0  2  0  0  0  0  0  0
  190.2420  175.8580  142.7880 C   0  0  0  0  0  1  0  0  0  0  0  0
  188.9910  176.4710  142.8550 O   0  0  0  0  0  0  0  0  0  0  0  0
  1  5  1  6  0  0  0
  1 19  1  0  0  0  0
  2 16  1  6  0  0  0
  2 13  1  0  0  0  0
  4 20  1  0  0  0  0
  4  1  1  0  0  0  0
  6  8  1  0  0  0  0
  7  9  1  0  0  0  0
  8 12  1  0  0  0  0
  8 11  1  0  0  0  0
  9 22  1  0  0  0  0
 10  3  1  0  0  0  0
 11 28  1  0  0  0  0
 11  5  1  0  0  0  0
 12  4  1  0  0  0  0
 13 18  1  0  0  0  0
 14  9  1  0  0  0  0
 15 23  1  0  0  0  0
 15  7  1  0  0  0  0
 17  3  1  0  0  0  0
 17 26  1  0  0  0  0
 19 26  1  0  0  0  0
 19  2  1  0  0  0  0
 20 17  1  0  0  0  0
 21 10  2  0  0  0  0
 22 20  1  0  0  0  0
 22 10  1  0  0  0  0
 23 14  1  0  0  0  0
 24 27  1  0  0  0  0
 25 18  2  0  0  0  0
 26 25  1  0  0  0  0
 27  7  1  0  0  0  0
 27 12  1  0  0  0  0
 28 30  1  0  0  0  0
 29 30  1  0  0  0  0
M  END
>  <MODEL>
9

>  <REMARK>
 VINA RESULT:      -6.8      2.313      3.960
  Name = 
  2 active torsions:
  status: ('A' for Active; 'I' for Inactive)
    1  A    between atoms: C_11  and  C_28
    2  A    between atoms: C_28  and  O_30
                            x       y       z     vdW  Elec       q    Type
                         _______ _______ _______ _____ _____    ______ ____

>  <TORSDO>
F 2

$$$$
