=
 OpenBabel11122411563D

 28 32  0  0  1  0  0  0  0  0999 V2000
  182.4860  176.7210  137.6580 C   0  0  0  0  0  0  0  0  0  0  0  0
  184.5560  173.6600  138.0210 O   0  0  0  0  0  0  0  0  0  0  0  0
  188.4090  178.8010  138.1660 O   0  0  0  0  0  0  0  0  0  0  0  0
  181.4590  176.7840  135.0510 C   0  0  0  0  0  3  0  0  0  0  0  0
  188.0090  177.6410  136.1580 N   0  0  0  0  0  0  0  0  0  0  0  0
  183.0080  176.7530  139.0620 C   0  0  0  0  0  2  0  0  0  0  0  0
  184.1280  172.7850  135.7650 O   0  0  0  0  0  0  0  0  0  0  0  0
  185.0980  173.5450  136.6230 S   0  0  0  0  0  0  0  0  0  0  0  0
  187.8220  173.4580  136.6220 C   0  0  0  0  0  0  0  0  0  0  0  0
  185.3580  175.1690  135.9040 C   0  0  2  0  0  3  0  0  0  0  0  0
  184.2490  180.2860  139.1620 O   0  0  0  0  0  1  0  0  0  0  0  0
  185.6290  177.5350  136.3860 C   0  0  2  0  0  3  0  0  0  0  0  0
  187.7820  174.9500  136.6660 C   0  0  0  0  0  2  0  0  0  0  0  0
  186.6100  172.7120  136.6580 N   0  0  0  0  0  2  0  0  0  0  0  0
  184.2060  178.9610  138.7340 C   0  0  1  0  0  3  0  0  0  0  0  0
  183.3500  176.5220  136.5600 C   0  0  0  0  0  0  0  0  0  0  0  0
  187.6080  178.2690  137.3540 C   0  0  0  0  0  0  0  0  0  0  0  0
  188.9550  172.8450  136.6950 N   0  0  0  0  0  2  0  0  0  0  0  0
  185.5860  178.3390  138.8650 C   0  0  0  0  0  2  0  0  0  0  0  0
  182.8230  176.5680  135.2580 C   0  0  0  0  0  3  0  0  0  0  0  0
  181.1200  176.9380  137.4400 C   0  0  0  0  0  3  0  0  0  0  0  0
  180.6080  176.9650  136.1420 C   0  0  0  0  0  3  0  0  0  0  0  0
  183.1860  178.1880  139.5610 C   0  0  0  0  0  2  0  0  0  0  0  0
  186.8280  177.0480  135.5350 C   0  0  2  0  0  3  0  0  0  0  0  0
  186.2110  178.2090  137.5530 N   0  0  0  0  0  0  0  0  0  0  0  0
  186.8180  175.5090  135.6040 C   0  0  2  0  0  3  0  0  0  0  0  0
  189.3490  177.6460  135.5970 C   0  0  0  0  0  1  0  0  0  0  0  0
  184.8250  176.2970  136.7730 C   0  0  1  0  0  3  0  0  0  0  0  0
  1  6  1  0  0  0  0
  4 20  2  0  0  0  0
  4 22  1  0  0  0  0
  5 17  1  0  0  0  0
  6 23  1  0  0  0  0
  7  8  2  0  0  0  0
  8 14  1  0  0  0  0
  8  2  2  0  0  0  0
  9 14  1  0  0  0  0
  9 13  1  0  0  0  0
  9 18  2  0  0  0  0
 10  8  1  1  0  0  0
 10 28  1  0  0  0  0
 12 28  1  0  0  0  0
 12 25  1  1  0  0  0
 15 19  1  0  0  0  0
 15 11  1  1  0  0  0
 15 23  1  0  0  0  0
 16  1  2  0  0  0  0
 17 25  1  0  0  0  0
 17  3  2  0  0  0  0
 20 16  1  0  0  0  0
 21  1  1  0  0  0  0
 22 21  2  0  0  0  0
 24 26  1  0  0  0  0
 24  5  1  1  0  0  0
 24 12  1  0  0  0  0
 25 19  1  0  0  0  0
 26 10  1  0  0  0  0
 26 13  1  1  0  0  0
 27  5  1  0  0  0  0
 28 16  1  6  0  0  0
M  END
>  <MODEL>
1

>  <REMARK>
 VINA RESULT:      -5.7      0.000      0.000
  Name = 
  0 active torsions:
  status: ('A' for Active; 'I' for Inactive)
                            x       y       z     vdW  Elec       q    Type
                         _______ _______ _______ _____ _____    ______ ____

>  <TORSDO>
F 0

$$$$
=
 OpenBabel11122411563D

 28 32  0  0  1  0  0  0  0  0999 V2000
  180.7180  179.2060  142.2820 C   0  0  0  0  0  0  0  0  0  0  0  0
  180.6230  175.9970  140.4160 O   0  0  0  0  0  0  0  0  0  0  0  0
  186.6970  178.0830  140.6500 O   0  0  0  0  0  0  0  0  0  0  0  0
  179.4450  181.1630  140.7310 C   0  0  0  0  0  3  0  0  0  0  0  0
  185.3150  178.5740  138.8080 N   0  0  0  0  0  0  0  0  0  0  0  0
  181.4180  178.2120  143.1580 C   0  0  0  0  0  2  0  0  0  0  0  0
  179.3390  176.8460  138.5010 O   0  0  0  0  0  0  0  0  0  0  0  0
  180.7130  176.5130  139.0070 S   0  0  0  0  0  0  0  0  0  0  0  0
  182.8050  175.3860  137.6730 C   0  0  0  0  0  0  0  0  0  0  0  0
  181.7310  177.9890  138.9310 C   0  0  2  0  0  3  0  0  0  0  0  0
  184.4860  180.1950  143.9890 O   0  0  0  0  0  1  0  0  0  0  0  0
  183.4240  179.2960  140.0840 C   0  0  2  0  0  3  0  0  0  0  0  0
  183.6570  176.4430  138.2950 C   0  0  0  0  0  2  0  0  0  0  0  0
  181.4210  175.3060  137.9960 N   0  0  0  0  0  2  0  0  0  0  0  0
  183.5920  179.5130  143.1660 C   0  0  1  0  0  3  0  0  0  0  0  0
  181.0700  179.3620  140.9250 C   0  0  0  0  0  0  0  0  0  0  0  0
  185.5980  178.4860  140.1860 C   0  0  0  0  0  0  0  0  0  0  0  0
  183.3510  174.4620  136.9570 N   0  0  0  0  0  2  0  0  0  0  0  0
  184.3390  178.4520  142.3750 C   0  0  0  0  0  2  0  0  0  0  0  0
  180.4320  180.3550  140.1620 C   0  0  0  0  0  3  0  0  0  0  0  0
  179.7290  180.0220  142.8440 C   0  0  0  0  0  3  0  0  0  0  0  0
  179.0920  180.9940  142.0700 C   0  0  0  0  0  3  0  0  0  0  0  0
  182.4960  178.8790  144.0140 C   0  0  0  0  0  2  0  0  0  0  0  0
  183.9180  178.9710  138.6530 C   0  0  2  0  0  3  0  0  0  0  0  0
  184.5020  178.8740  140.9870 N   0  0  0  0  0  0  0  0  0  0  0  0
  183.0220  177.8350  138.1260 C   0  0  2  0  0  3  0  0  0  0  0  0
  186.2650  178.3780  137.7270 C   0  0  0  0  0  1  0  0  0  0  0  0
  182.1400  178.5010  140.3030 C   0  0  1  0  0  3  0  0  0  0  0  0
  1 21  1  0  0  0  0
  1  6  1  0  0  0  0
  4 22  1  0  0  0  0
  5 17  1  0  0  0  0
  6 23  1  0  0  0  0
  7  8  2  0  0  0  0
  8  2  2  0  0  0  0
  9 14  1  0  0  0  0
  9 13  1  0  0  0  0
 10  8  1  1  0  0  0
 10 28  1  0  0  0  0
 12 28  1  0  0  0  0
 12 25  1  1  0  0  0
 14  8  1  0  0  0  0
 15 11  1  1  0  0  0
 15 23  1  0  0  0  0
 16  1  2  0  0  0  0
 17  3  2  0  0  0  0
 17 25  1  0  0  0  0
 18  9  2  0  0  0  0
 19 15  1  0  0  0  0
 20  4  2  0  0  0  0
 20 16  1  0  0  0  0
 22 21  2  0  0  0  0
 24  5  1  1  0  0  0
 24 12  1  0  0  0  0
 25 19  1  0  0  0  0
 26 13  1  1  0  0  0
 26 24  1  0  0  0  0
 26 10  1  0  0  0  0
 27  5  1  0  0  0  0
 28 16  1  6  0  0  0
M  END
>  <MODEL>
2

>  <REMARK>
 VINA RESULT:      -5.7      3.704      5.266
  Name = 
  0 active torsions:
  status: ('A' for Active; 'I' for Inactive)
                            x       y       z     vdW  Elec       q    Type
                         _______ _______ _______ _____ _____    ______ ____

>  <TORSDO>
F 0

$$$$
=
 OpenBabel11122411563D

 28 32  0  0  1  0  0  0  0  0999 V2000
  181.3640  178.8680  141.9240 C   0  0  0  0  0  0  0  0  0  0  0  0
  180.4590  181.3360  139.3010 O   0  0  0  0  0  0  0  0  0  0  0  0
  178.9310  175.4490  137.2280 O   0  0  0  0  0  0  0  0  0  0  0  0
  184.1590  178.7610  142.1030 C   0  0  0  0  0  3  0  0  0  0  0  0
  180.9990  176.4310  136.6780 N   0  0  0  0  0  0  0  0  0  0  0  0
  179.8660  178.8700  141.8740 C   0  0  0  0  0  2  0  0  0  0  0  0
  182.7610  182.0220  138.7820 O   0  0  0  0  0  0  0  0  0  0  0  0
  181.6140  181.1490  138.3580 S   0  0  0  0  0  0  0  0  0  0  0  0
  180.7510  180.5530  135.8420 C   0  0  0  0  0  0  0  0  0  0  0  0
  182.1620  179.4400  138.3500 C   0  0  2  0  0  3  0  0  0  0  0  0
  179.2640  175.1750  141.7340 O   0  0  0  0  0  1  0  0  0  0  0  0
  181.5430  177.1530  138.8930 C   0  0  2  0  0  3  0  0  0  0  0  0
  180.6740  179.1330  136.3000 C   0  0  0  0  0  2  0  0  0  0  0  0
  181.1270  181.5770  136.7580 N   0  0  0  0  0  2  0  0  0  0  0  0
  179.7260  176.4100  141.2840 C   0  0  1  0  0  3  0  0  0  0  0  0
  182.1350  178.7170  140.7520 C   0  0  0  0  0  0  0  0  0  0  0  0
  179.9730  176.0670  137.5720 C   0  0  0  0  0  0  0  0  0  0  0  0
  180.3410  180.8680  134.6610 N   0  0  0  0  0  2  0  0  0  0  0  0
  179.1820  176.6790  139.8910 C   0  0  0  0  0  2  0  0  0  0  0  0
  183.5350  178.6530  140.8590 C   0  0  0  0  0  3  0  0  0  0  0  0
  181.9980  178.9750  143.1670 C   0  0  0  0  0  3  0  0  0  0  0  0
  183.3900  178.9260  143.2560 C   0  0  0  0  0  3  0  0  0  0  0  0
  179.2910  177.5040  142.2520 C   0  0  0  0  0  2  0  0  0  0  0  0
  181.9830  177.2230  137.4100 C   0  0  2  0  0  3  0  0  0  0  0  0
  180.2300  176.4960  138.8930 N   0  0  0  0  0  0  0  0  0  0  0  0
  181.9700  178.7130  137.0180 C   0  0  2  0  0  3  0  0  0  0  0  0
  181.1030  176.0260  135.2860 C   0  0  0  0  0  1  0  0  0  0  0  0
  181.4720  178.5890  139.4050 C   0  0  1  0  0  3  0  0  0  0  0  0
  1 21  1  0  0  0  0
  3 17  2  0  0  0  0
  4 22  1  0  0  0  0
  5 17  1  0  0  0  0
  6  1  1  0  0  0  0
  6 23  1  0  0  0  0
  8  7  2  0  0  0  0
  8  2  2  0  0  0  0
  9 13  1  0  0  0  0
  9 14  1  0  0  0  0
 10  8  1  6  0  0  0
 10 28  1  0  0  0  0
 12 25  1  6  0  0  0
 12 28  1  0  0  0  0
 14  8  1  0  0  0  0
 15 11  1  1  0  0  0
 15 23  1  0  0  0  0
 16 20  1  0  0  0  0
 16  1  2  0  0  0  0
 17 25  1  0  0  0  0
 18  9  2  0  0  0  0
 19 15  1  0  0  0  0
 20  4  2  0  0  0  0
 21 22  2  0  0  0  0
 24  5  1  6  0  0  0
 24 12  1  0  0  0  0
 25 19  1  0  0  0  0
 26 13  1  1  0  0  0
 26 24  1  0  0  0  0
 26 10  1  0  0  0  0
 27  5  1  0  0  0  0
 28 16  1  1  0  0  0
M  END
>  <MODEL>
3

>  <REMARK>
 VINA RESULT:      -5.5      4.989      7.473
  Name = 
  0 active torsions:
  status: ('A' for Active; 'I' for Inactive)
                            x       y       z     vdW  Elec       q    Type
                         _______ _______ _______ _____ _____    ______ ____

>  <TORSDO>
F 0

$$$$
=
 OpenBabel11122411563D

 28 32  0  0  1  0  0  0  0  0999 V2000
  182.4770  178.5360  140.2020 C   0  0  0  0  0  0  0  0  0  0  0  0
  182.9990  175.1860  138.6880 O   0  0  0  0  0  0  0  0  0  0  0  0
  188.7270  177.8860  139.7800 O   0  0  0  0  0  0  0  0  0  0  0  0
  181.3560  180.2140  138.2570 C   0  0  0  0  0  3  0  0  0  0  0  0
  187.6760  178.0750  137.6820 N   0  0  0  0  0  0  0  0  0  0  0  0
  183.0820  177.6950  141.2850 C   0  0  0  0  0  2  0  0  0  0  0  0
  182.0270  175.7330  136.4980 O   0  0  0  0  0  0  0  0  0  0  0  0
  183.3060  175.5850  137.2710 S   0  0  0  0  0  0  0  0  0  0  0  0
  185.6980  174.5650  136.4520 C   0  0  0  0  0  0  0  0  0  0  0  0
  184.1940  177.1450  137.2260 C   0  0  2  0  0  3  0  0  0  0  0  0
  185.7650  180.0420  142.4390 O   0  0  0  0  0  1  0  0  0  0  0  0
  185.5270  178.7100  138.5210 C   0  0  2  0  0  3  0  0  0  0  0  0
  186.3270  175.7520  137.1040 C   0  0  0  0  0  2  0  0  0  0  0  0
  184.2880  174.3740  136.5310 N   0  0  0  0  0  2  0  0  0  0  0  0
  185.1000  179.2050  141.5450 C   0  0  1  0  0  3  0  0  0  0  0  0
  183.0610  178.6090  138.9190 C   0  0  0  0  0  0  0  0  0  0  0  0
  187.7040  178.1350  139.0890 C   0  0  0  0  0  0  0  0  0  0  0  0
  186.4420  173.6430  135.9430 N   0  0  0  0  0  2  0  0  0  0  0  0
  186.0680  178.1610  141.0120 C   0  0  0  0  0  2  0  0  0  0  0  0
  182.4950  179.4640  137.9580 C   0  0  0  0  0  3  0  0  0  0  0  0
  181.3360  179.2920  140.4920 C   0  0  0  0  0  3  0  0  0  0  0  0
  180.7750  180.1250  139.5230 C   0  0  0  0  0  3  0  0  0  0  0  0
  183.9220  178.5390  142.2450 C   0  0  0  0  0  2  0  0  0  0  0  0
  186.3050  178.3150  137.2410 C   0  0  2  0  0  3  0  0  0  0  0  0
  186.4500  178.4770  139.6400 N   0  0  0  0  0  0  0  0  0  0  0  0
  185.6210  177.0530  136.6840 C   0  0  2  0  0  3  0  0  0  0  0  0
  188.8240  177.8840  136.8120 C   0  0  0  0  0  1  0  0  0  0  0  0
  184.2960  177.8110  138.5890 C   0  0  1  0  0  3  0  0  0  0  0  0
  1 21  1  0  0  0  0
  1  6  1  0  0  0  0
  4 22  1  0  0  0  0
  5 17  1  0  0  0  0
  6 23  1  0  0  0  0
  7  8  2  0  0  0  0
  8  2  2  0  0  0  0
  9 14  1  0  0  0  0
  9 13  1  0  0  0  0
 10  8  1  1  0  0  0
 10 28  1  0  0  0  0
 12 28  1  0  0  0  0
 12 25  1  1  0  0  0
 14  8  1  0  0  0  0
 15 23  1  0  0  0  0
 15 11  1  1  0  0  0
 16  1  2  0  0  0  0
 17 25  1  0  0  0  0
 17  3  2  0  0  0  0
 18  9  2  0  0  0  0
 19 15  1  0  0  0  0
 20  4  2  0  0  0  0
 20 16  1  0  0  0  0
 22 21  2  0  0  0  0
 24  5  1  1  0  0  0
 24 12  1  0  0  0  0
 25 19  1  0  0  0  0
 26 13  1  1  0  0  0
 26 10  1  0  0  0  0
 26 24  1  0  0  0  0
 27  5  1  0  0  0  0
 28 16  1  6  0  0  0
M  END
>  <MODEL>
4

>  <REMARK>
 VINA RESULT:      -5.5      2.130      2.863
  Name = 
  0 active torsions:
  status: ('A' for Active; 'I' for Inactive)
                            x       y       z     vdW  Elec       q    Type
                         _______ _______ _______ _____ _____    ______ ____

>  <TORSDO>
F 0

$$$$
=
 OpenBabel11122411563D

 28 32  0  0  1  0  0  0  0  0999 V2000
  189.1250  175.2760  136.5000 C   0  0  0  0  0  0  0  0  0  0  0  0
  188.5890  176.9620  139.7650 O   0  0  0  0  0  0  0  0  0  0  0  0
  182.9580  174.7000  137.6480 O   0  0  0  0  0  0  0  0  0  0  0  0
  189.7680  177.2300  134.5970 C   0  0  0  0  0  3  0  0  0  0  0  0
  183.6130  176.9200  137.2190 N   0  0  0  0  0  0  0  0  0  0  0  0
  188.7780  174.1830  137.4650 C   0  0  0  0  0  2  0  0  0  0  0  0
  189.1240  179.2290  138.9800 O   0  0  0  0  0  0  0  0  0  0  0  0
  188.0120  178.2680  139.2920 S   0  0  0  0  0  0  0  0  0  0  0  0
  185.5940  178.7600  140.4500 C   0  0  0  0  0  0  0  0  0  0  0  0
  187.0210  178.0300  137.8140 C   0  0  2  0  0  3  0  0  0  0  0  0
  186.1760  172.3990  135.4450 O   0  0  0  0  0  1  0  0  0  0  0  0
  185.8240  176.4010  136.4660 C   0  0  2  0  0  3  0  0  0  0  0  0
  185.0040  177.9130  139.3710 C   0  0  0  0  0  2  0  0  0  0  0  0
  187.0060  178.9350  140.5260 N   0  0  0  0  0  2  0  0  0  0  0  0
  186.7330  173.4600  136.1560 C   0  0  1  0  0  3  0  0  0  0  0  0
  188.3230  176.4310  136.3840 C   0  0  0  0  0  0  0  0  0  0  0  0
  183.8260  175.5280  137.2640 C   0  0  0  0  0  0  0  0  0  0  0  0
  184.8410  179.2140  141.3920 N   0  0  0  0  0  2  0  0  0  0  0  0
  185.7650  173.9110  137.2370 C   0  0  0  0  0  2  0  0  0  0  0  0
  188.6510  177.3970  135.4170 C   0  0  0  0  0  3  0  0  0  0  0  0
  190.2420  175.1170  135.6720 C   0  0  0  0  0  3  0  0  0  0  0  0
  190.5640  176.0910  134.7270 C   0  0  0  0  0  3  0  0  0  0  0  0
  188.0600  173.0270  136.7680 C   0  0  0  0  0  2  0  0  0  0  0  0
  184.8660  177.5620  136.8320 C   0  0  2  0  0  3  0  0  0  0  0  0
  185.1290  175.1680  136.8560 N   0  0  0  0  0  0  0  0  0  0  0  0
  185.5320  178.3320  137.9870 C   0  0  2  0  0  3  0  0  0  0  0  0
  182.3480  177.5990  137.4440 C   0  0  0  0  0  1  0  0  0  0  0  0
  187.1090  176.6170  137.2590 C   0  0  1  0  0  3  0  0  0  0  0  0
  1  6  1  0  0  0  0
  4 22  2  0  0  0  0
  4 20  1  0  0  0  0
  5 17  1  0  0  0  0
  5 27  1  0  0  0  0
  7  8  2  0  0  0  0
  8  2  2  0  0  0  0
  8 14  1  0  0  0  0
  9 14  1  0  0  0  0
  9 18  2  0  0  0  0
 10 26  1  0  0  0  0
 10  8  1  1  0  0  0
 12 24  1  0  0  0  0
 12 25  1  1  0  0  0
 12 28  1  0  0  0  0
 13  9  1  0  0  0  0
 15 11  1  1  0  0  0
 15 23  1  0  0  0  0
 15 19  1  0  0  0  0
 16  1  1  0  0  0  0
 17  3  2  0  0  0  0
 20 16  2  0  0  0  0
 21  1  2  0  0  0  0
 22 21  1  0  0  0  0
 23  6  1  0  0  0  0
 24  5  1  1  0  0  0
 24 26  1  0  0  0  0
 25 19  1  0  0  0  0
 25 17  1  0  0  0  0
 26 13  1  1  0  0  0
 28 16  1  6  0  0  0
 28 10  1  0  0  0  0
M  END
>  <MODEL>
5

>  <REMARK>
 VINA RESULT:      -5.4      2.459      6.434
  Name = 
  0 active torsions:
  status: ('A' for Active; 'I' for Inactive)
                            x       y       z     vdW  Elec       q    Type
                         _______ _______ _______ _____ _____    ______ ____

>  <TORSDO>
F 0

$$$$
=
 OpenBabel11122411563D

 28 32  0  0  1  0  0  0  0  0999 V2000
  183.2070  176.0720  135.8400 C   0  0  0  0  0  0  0  0  0  0  0  0
  180.8910  178.9570  136.1600 O   0  0  0  0  0  0  0  0  0  0  0  0
  185.4470  179.4430  140.6660 O   0  0  0  0  0  0  0  0  0  0  0  0
  181.8280  173.7510  136.5940 C   0  0  0  0  0  3  0  0  0  0  0  0
  183.3780  178.4220  141.1360 N   0  0  0  0  0  0  0  0  0  0  0  0
  184.0040  177.2730  135.4330 C   0  0  0  0  0  2  0  0  0  0  0  0
  178.9310  177.6450  136.8460 O   0  0  0  0  0  0  0  0  0  0  0  0
  180.0660  178.5000  137.3300 S   0  0  0  0  0  0  0  0  0  0  0  0
  180.0890  180.3440  139.3370 C   0  0  0  0  0  0  0  0  0  0  0  0
  181.0610  177.5450  138.4790 C   0  0  2  0  0  3  0  0  0  0  0  0
  187.0840  176.6740  137.4800 O   0  0  0  0  0  1  0  0  0  0  0  0
  183.3260  177.0290  139.1920 C   0  0  2  0  0  3  0  0  0  0  0  0
  181.3710  179.7180  139.7790 C   0  0  0  0  0  2  0  0  0  0  0  0
  179.4350  179.8750  138.1630 N   0  0  0  0  0  2  0  0  0  0  0  0
  185.7350  176.9370  137.2530 C   0  0  1  0  0  3  0  0  0  0  0  0
  182.4820  176.0500  137.0510 C   0  0  0  0  0  0  0  0  0  0  0  0
  184.5340  178.6320  140.3580 C   0  0  0  0  0  0  0  0  0  0  0  0
  179.6520  181.3980  139.9370 N   0  0  0  0  0  2  0  0  0  0  0  0
  185.3300  178.1960  138.0010 C   0  0  0  0  0  2  0  0  0  0  0  0
  181.8060  174.8750  137.4220 C   0  0  0  0  0  3  0  0  0  0  0  0
  183.2250  174.9390  135.0180 C   0  0  0  0  0  3  0  0  0  0  0  0
  182.5350  173.7850  135.3910 C   0  0  0  0  0  3  0  0  0  0  0  0
  185.4880  177.0980  135.7570 C   0  0  0  0  0  2  0  0  0  0  0  0
  182.5020  177.5030  140.4150 C   0  0  2  0  0  3  0  0  0  0  0  0
  184.5400  177.8540  139.1800 N   0  0  0  0  0  0  0  0  0  0  0  0
  181.2400  178.1860  139.8560 C   0  0  2  0  0  3  0  0  0  0  0  0
  183.1310  178.9630  142.4620 C   0  0  0  0  0  1  0  0  0  0  0  0
  182.4590  177.2550  137.9570 C   0  0  1  0  0  3  0  0  0  0  0  0
  1 16  1  0  0  0  0
  2  8  2  0  0  0  0
  4 20  1  0  0  0  0
  5 27  1  0  0  0  0
  6 23  1  0  0  0  0
  6  1  1  0  0  0  0
  7  8  2  0  0  0  0
  8 14  1  0  0  0  0
  9 13  1  0  0  0  0
  9 18  2  0  0  0  0
 10  8  1  6  0  0  0
 10 26  1  0  0  0  0
 12 25  1  6  0  0  0
 12 24  1  0  0  0  0
 14  9  1  0  0  0  0
 15 11  1  6  0  0  0
 15 19  1  0  0  0  0
 16 20  2  0  0  0  0
 17  3  2  0  0  0  0
 17  5  1  0  0  0  0
 19 25  1  0  0  0  0
 21 22  1  0  0  0  0
 21  1  2  0  0  0  0
 22  4  2  0  0  0  0
 23 15  1  0  0  0  0
 24  5  1  6  0  0  0
 25 17  1  0  0  0  0
 26 13  1  6  0  0  0
 26 24  1  0  0  0  0
 28 16  1  6  0  0  0
 28 10  1  0  0  0  0
 28 12  1  0  0  0  0
M  END
>  <MODEL>
6

>  <REMARK>
 VINA RESULT:      -4.9      3.425      6.149
  Name = 
  0 active torsions:
  status: ('A' for Active; 'I' for Inactive)
                            x       y       z     vdW  Elec       q    Type
                         _______ _______ _______ _____ _____    ______ ____

>  <TORSDO>
F 0

$$$$
=
 OpenBabel11122411563D

 28 32  0  0  1  0  0  0  0  0999 V2000
  189.7500  174.6010  136.3340 C   0  0  0  0  0  0  0  0  0  0  0  0
  188.4790  176.5590  139.2220 O   0  0  0  0  0  0  0  0  0  0  0  0
  183.4830  174.5580  135.7100 O   0  0  0  0  0  0  0  0  0  0  0  0
  191.0720  176.3560  134.5950 C   0  0  0  0  0  3  0  0  0  0  0  0
  184.4280  176.6870  135.3730 N   0  0  0  0  0  0  0  0  0  0  0  0
  189.0510  173.6100  137.2150 C   0  0  0  0  0  2  0  0  0  0  0  0
  189.4140  178.7160  138.5070 O   0  0  0  0  0  0  0  0  0  0  0  0
  188.1780  177.8640  138.5390 S   0  0  0  0  0  0  0  0  0  0  0  0
  185.5870  178.6140  138.9360 C   0  0  0  0  0  0  0  0  0  0  0  0
  187.6210  177.5900  136.8550 C   0  0  2  0  0  3  0  0  0  0  0  0
  186.9650  171.8740  134.6320 O   0  0  0  0  0  1  0  0  0  0  0  0
  186.7050  175.9560  135.3060 C   0  0  2  0  0  3  0  0  0  0  0  0
  185.2470  177.7340  137.7780 C   0  0  0  0  0  2  0  0  0  0  0  0
  186.9310  178.6910  139.4010 N   0  0  0  0  0  2  0  0  0  0  0  0
  187.3960  172.9420  135.4170 C   0  0  1  0  0  3  0  0  0  0  0  0
  189.1200  175.7990  135.9370 C   0  0  0  0  0  0  0  0  0  0  0  0
  184.4940  175.2910  135.5470 C   0  0  0  0  0  0  0  0  0  0  0  0
  184.6450  179.1900  139.6010 N   0  0  0  0  0  2  0  0  0  0  0  0
  186.2090  173.5410  136.1540 C   0  0  0  0  0  2  0  0  0  0  0  0
  189.7900  176.6640  135.0550 C   0  0  0  0  0  3  0  0  0  0  0  0
  191.0350  174.3000  135.8660 C   0  0  0  0  0  3  0  0  0  0  0  0
  191.6950  175.1760  135.0040 C   0  0  0  0  0  3  0  0  0  0  0  0
  188.4540  172.4600  136.4020 C   0  0  0  0  0  2  0  0  0  0  0  0
  185.7920  177.2070  135.3260 C   0  0  2  0  0  3  0  0  0  0  0  0
  185.8210  174.8080  135.5450 N   0  0  0  0  0  0  0  0  0  0  0  0
  186.1760  178.0100  136.5820 C   0  0  2  0  0  3  0  0  0  0  0  0
  183.2170  177.4700  135.1940 C   0  0  0  0  0  1  0  0  0  0  0  0
  187.7320  176.1370  136.4200 C   0  0  1  0  0  3  0  0  0  0  0  0
  1  6  1  0  0  0  0
  4 22  2  0  0  0  0
  4 20  1  0  0  0  0
  5 17  1  0  0  0  0
  7  8  2  0  0  0  0
  8  2  2  0  0  0  0
  8 14  1  0  0  0  0
  9 14  1  0  0  0  0
  9 18  2  0  0  0  0
 10  8  1  1  0  0  0
 12 24  1  0  0  0  0
 12 25  1  1  0  0  0
 12 28  1  0  0  0  0
 13  9  1  0  0  0  0
 15 11  1  1  0  0  0
 15 19  1  0  0  0  0
 15 23  1  0  0  0  0
 16  1  1  0  0  0  0
 17  3  2  0  0  0  0
 20 16  2  0  0  0  0
 21  1  2  0  0  0  0
 22 21  1  0  0  0  0
 23  6  1  0  0  0  0
 24  5  1  1  0  0  0
 24 26  1  0  0  0  0
 25 17  1  0  0  0  0
 25 19  1  0  0  0  0
 26 10  1  0  0  0  0
 26 13  1  1  0  0  0
 27  5  1  0  0  0  0
 28 16  1  6  0  0  0
 28 10  1  0  0  0  0
M  END
>  <MODEL>
7

>  <REMARK>
 VINA RESULT:      -4.9      2.467      6.654
  Name = 
  0 active torsions:
  status: ('A' for Active; 'I' for Inactive)
                            x       y       z     vdW  Elec       q    Type
                         _______ _______ _______ _____ _____    ______ ____

>  <TORSDO>
F 0

$$$$
=
 OpenBabel11122411563D

 28 32  0  0  1  0  0  0  0  0999 V2000
  182.3380  178.2980  141.5700 C   0  0  0  0  0  0  0  0  0  0  0  0
  181.4400  174.9230  140.3090 O   0  0  0  0  0  0  0  0  0  0  0  0
  181.8790  178.9540  135.3220 O   0  0  0  0  0  0  0  0  0  0  0  0
  180.1530  179.3120  143.0010 C   0  0  0  0  0  3  0  0  0  0  0  0
  179.8090  178.5260  136.3590 N   0  0  0  0  0  0  0  0  0  0  0  0
  183.5390  177.8210  140.8120 C   0  0  0  0  0  2  0  0  0  0  0  0
  179.2140  174.8400  141.3450 O   0  0  0  0  0  0  0  0  0  0  0  0
  179.9670  175.1160  140.0750 S   0  0  0  0  0  0  0  0  0  0  0  0
  179.2840  174.5070  137.5080 C   0  0  0  0  0  0  0  0  0  0  0  0
  179.6190  176.7960  139.5490 C   0  0  2  0  0  3  0  0  0  0  0  0
  184.1810  180.8630  138.7210 O   0  0  0  0  0  1  0  0  0  0  0  0
  180.5750  178.8220  138.6070 C   0  0  2  0  0  3  0  0  0  0  0  0
  179.6950  175.9000  137.1610 C   0  0  0  0  0  2  0  0  0  0  0  0
  179.4320  174.0320  138.8430 N   0  0  0  0  0  2  0  0  0  0  0  0
  183.4700  179.7530  139.1750 C   0  0  1  0  0  3  0  0  0  0  0  0
  181.0490  178.2630  140.9970 C   0  0  0  0  0  0  0  0  0  0  0  0
  181.1810  178.8450  136.3650 C   0  0  0  0  0  0  0  0  0  0  0  0
  178.9310  173.6920  136.5730 N   0  0  0  0  0  2  0  0  0  0  0  0
  183.1090  178.8650  137.9950 C   0  0  0  0  0  2  0  0  0  0  0  0
  179.9640  178.7850  141.7220 C   0  0  0  0  0  3  0  0  0  0  0  0
  182.5170  178.8300  142.8520 C   0  0  0  0  0  3  0  0  0  0  0  0
  181.4280  179.3310  143.5670 C   0  0  0  0  0  3  0  0  0  0  0  0
  184.3100  178.9860  140.1890 C   0  0  0  0  0  2  0  0  0  0  0  0
  179.3680  178.3790  137.7440 C   0  0  2  0  0  3  0  0  0  0  0  0
  181.6930  179.0020  137.6720 N   0  0  0  0  0  0  0  0  0  0  0  0
  179.0650  176.9190  138.1290 C   0  0  2  0  0  3  0  0  0  0  0  0
  178.9580  178.4340  135.1850 C   0  0  0  0  0  1  0  0  0  0  0  0
  180.8360  177.7050  139.6130 C   0  0  1  0  0  3  0  0  0  0  0  0
  1 21  1  0  0  0  0
  3 17  2  0  0  0  0
  4 22  1  0  0  0  0
  5 17  1  0  0  0  0
  6  1  1  0  0  0  0
  8  2  2  0  0  0  0
  8  7  2  0  0  0  0
  9 14  1  0  0  0  0
 10 28  1  0  0  0  0
 10  8  1  6  0  0  0
 12 25  1  6  0  0  0
 12 28  1  0  0  0  0
 13  9  1  0  0  0  0
 14  8  1  0  0  0  0
 15 11  1  6  0  0  0
 15 23  1  0  0  0  0
 16  1  2  0  0  0  0
 16 20  1  0  0  0  0
 17 25  1  0  0  0  0
 18  9  2  0  0  0  0
 19 15  1  0  0  0  0
 20  4  2  0  0  0  0
 21 22  2  0  0  0  0
 23  6  1  0  0  0  0
 24  5  1  6  0  0  0
 24 26  1  0  0  0  0
 24 12  1  0  0  0  0
 25 19  1  0  0  0  0
 26 13  1  6  0  0  0
 26 10  1  0  0  0  0
 27  5  1  0  0  0  0
 28 16  1  1  0  0  0
M  END
>  <MODEL>
8

>  <REMARK>
 VINA RESULT:      -4.9      4.742      6.629
  Name = 
  0 active torsions:
  status: ('A' for Active; 'I' for Inactive)
                            x       y       z     vdW  Elec       q    Type
                         _______ _______ _______ _____ _____    ______ ____

>  <TORSDO>
F 0

$$$$
=
 OpenBabel11122411563D

 28 32  0  0  1  0  0  0  0  0999 V2000
  185.7870  174.9840  136.0820 C   0  0  0  0  0  0  0  0  0  0  0  0
  182.6720  176.3520  134.5940 O   0  0  0  0  0  0  0  0  0  0  0  0
  184.4780  180.1300  139.4690 O   0  0  0  0  0  0  0  0  0  0  0  0
  185.1630  172.5700  137.3610 C   0  0  0  0  0  3  0  0  0  0  0  0
  182.9210  178.3940  139.7910 N   0  0  0  0  0  0  0  0  0  0  0  0
  186.1860  176.2700  135.4250 C   0  0  0  0  0  2  0  0  0  0  0  0
  181.2230  174.4810  135.2530 O   0  0  0  0  0  0  0  0  0  0  0  0
  181.6670  175.8710  135.6040 S   0  0  0  0  0  0  0  0  0  0  0  0
  180.2020  177.9400  136.6050 C   0  0  0  0  0  0  0  0  0  0  0  0
  182.3780  175.8520  137.2520 C   0  0  2  0  0  3  0  0  0  0  0  0
  188.1510  177.7920  138.2290 O   0  0  0  0  0  1  0  0  0  0  0  0
  184.1740  176.7030  138.6510 C   0  0  2  0  0  3  0  0  0  0  0  0
  181.3230  178.1520  137.5680 C   0  0  0  0  0  2  0  0  0  0  0  0
  180.3020  176.9280  135.6080 N   0  0  0  0  0  2  0  0  0  0  0  0
  187.0170  177.2980  137.5870 C   0  0  1  0  0  3  0  0  0  0  0  0
  184.6930  174.9250  136.9720 C   0  0  0  0  0  0  0  0  0  0  0  0
  184.1310  178.9300  139.3080 C   0  0  0  0  0  0  0  0  0  0  0  0
  179.2090  178.7620  136.5860 N   0  0  0  0  0  2  0  0  0  0  0  0
  185.9170  178.3460  137.6220 C   0  0  0  0  0  2  0  0  0  0  0  0
  184.4000  173.7110  137.6150 C   0  0  0  0  0  3  0  0  0  0  0  0
  186.5460  173.8350  135.8340 C   0  0  0  0  0  3  0  0  0  0  0  0
  186.2340  172.6310  136.4680 C   0  0  0  0  0  3  0  0  0  0  0  0
  187.3620  176.9280  136.1490 C   0  0  0  0  0  2  0  0  0  0  0  0
  182.8130  177.0150  139.3220 C   0  0  2  0  0  3  0  0  0  0  0  0
  184.8980  177.9800  138.6000 N   0  0  0  0  0  0  0  0  0  0  0  0
  181.7360  176.8290  138.2380 C   0  0  2  0  0  3  0  0  0  0  0  0
  181.9780  179.0670  140.6670 C   0  0  0  0  0  1  0  0  0  0  0  0
  183.8690  176.1540  137.2610 C   0  0  1  0  0  3  0  0  0  0  0  0
  1 16  1  0  0  0  0
  2  8  2  0  0  0  0
  4 20  1  0  0  0  0
  5 27  1  0  0  0  0
  6  1  1  0  0  0  0
  6 23  1  0  0  0  0
  7  8  2  0  0  0  0
  8 14  1  0  0  0  0
  9 13  1  0  0  0  0
 10  8  1  6  0  0  0
 10 28  1  0  0  0  0
 10 26  1  0  0  0  0
 12 25  1  6  0  0  0
 12 24  1  0  0  0  0
 14  9  1  0  0  0  0
 15 19  1  0  0  0  0
 15 11  1  6  0  0  0
 16 20  2  0  0  0  0
 17  3  2  0  0  0  0
 17  5  1  0  0  0  0
 18  9  2  0  0  0  0
 19 25  1  0  0  0  0
 21  1  2  0  0  0  0
 21 22  1  0  0  0  0
 22  4  2  0  0  0  0
 23 15  1  0  0  0  0
 24  5  1  6  0  0  0
 25 17  1  0  0  0  0
 26 13  1  6  0  0  0
 26 24  1  0  0  0  0
 28 16  1  1  0  0  0
 28 12  1  0  0  0  0
M  END
>  <MODEL>
9

>  <REMARK>
 VINA RESULT:      -4.8      2.634      5.585
  Name = 
  0 active torsions:
  status: ('A' for Active; 'I' for Inactive)
                            x       y       z     vdW  Elec       q    Type
                         _______ _______ _______ _____ _____    ______ ____

>  <TORSDO>
F 0

$$$$
