=
 OpenBabel11122411083D

 31 35  0  0  1  0  0  0  0  0999 V2000
  189.7240  177.1420  145.2890 C   0  0  0  0  0  0  0  0  0  0  0  0
  187.0220  178.1940  142.8820 C   0  0  0  0  0  0  0  0  0  0  0  0
  185.8450  178.4430  143.6620 C   0  0  0  0  0  0  0  0  0  0  0  0
  184.6510  178.5420  145.7950 C   0  0  0  0  0  0  0  0  0  0  0  0
  188.2760  177.7720  143.4230 C   0  0  0  0  0  0  0  0  0  0  0  0
  190.7870  176.9350  144.4110 C   0  0  0  0  0  3  0  0  0  0  0  0
  185.8120  178.2920  145.0610 C   0  0  0  0  0  3  0  0  0  0  0  0
  188.0610  178.1500  140.6580 C   0  0  0  0  0  0  0  0  0  0  0  0
  189.8940  176.9420  146.6180 F   0  0  0  0  0  0  0  0  0  0  0  0
  184.6080  179.0290  141.6410 C   0  0  0  0  0  3  0  0  0  0  0  0
  184.6550  178.3840  147.1740 O   0  0  0  0  0  1  0  0  0  0  0  0
  189.2300  177.7490  141.2150 N   0  0  0  0  0  0  0  0  0  0  0  0
  186.9390  178.3790  141.4700 C   0  0  0  0  0  0  0  0  0  0  0  0
  187.9760  178.3330  139.2380 N   0  0  0  0  0  2  0  0  0  0  0  0
  188.4840  177.5550  144.7970 C   0  0  0  0  0  3  0  0  0  0  0  0
  183.4890  178.9510  145.1440 C   0  0  0  0  0  3  0  0  0  0  0  0
  189.3690  177.5570  142.5470 C   0  0  0  0  0  0  0  0  0  0  0  0
  190.6090  177.1420  143.0440 C   0  0  0  0  0  3  0  0  0  0  0  0
  185.7410  178.7900  140.8760 C   0  0  0  0  0  3  0  0  0  0  0  0
  184.6480  178.8600  143.0190 C   0  0  0  0  0  0  0  0  0  0  0  0
  183.4890  179.1080  143.7580 C   0  0  0  0  0  3  0  0  0  0  0  0
  189.0680  179.1590  137.2130 C   0  0  0  0  0  1  0  0  0  0  0  0
  189.1110  178.1450  138.3440 C   0  0  2  0  0  3  0  0  0  0  0  0
  189.1460  174.1360  136.7850 C   0  0  0  0  0  0  0  0  0  0  0  0
  187.9760  176.2170  137.1830 C   0  0  0  0  0  3  0  0  0  0  0  0
  191.3950  176.4550  138.4980 F   0  0  0  0  0  0  0  0  0  0  0  0
  189.1610  172.8430  136.2830 O   0  0  0  0  0  1  0  0  0  0  0  0
  187.9910  174.9150  136.6780 C   0  0  0  0  0  3  0  0  0  0  0  0
  190.2780  175.9640  137.9060 C   0  0  0  0  0  0  0  0  0  0  0  0
  189.1190  176.7490  137.8020 C   0  0  0  0  0  0  0  0  0  0  0  0
  190.2870  174.6600  137.3980 C   0  0  0  0  0  3  0  0  0  0  0  0
  1  9  1  0  0  0  0
  2  5  1  0  0  0  0
  2  3  1  0  0  0  0
  3  7  1  0  0  0  0
  4 11  1  0  0  0  0
  5 15  2  0  0  0  0
  6  1  2  0  0  0  0
  7  4  2  0  0  0  0
  8 12  2  0  0  0  0
  8 13  1  0  0  0  0
 10 20  1  0  0  0  0
 12 17  1  0  0  0  0
 13  2  2  0  0  0  0
 14  8  1  0  0  0  0
 15  1  1  0  0  0  0
 16  4  1  0  0  0  0
 17 18  2  0  0  0  0
 17  5  1  0  0  0  0
 18  6  1  0  0  0  0
 19 13  1  0  0  0  0
 19 10  2  0  0  0  0
 20  3  2  0  0  0  0
 20 21  1  0  0  0  0
 21 16  2  0  0  0  0
 23 22  1  6  0  0  0
 23 14  1  0  0  0  0
 24 31  1  0  0  0  0
 25 30  2  0  0  0  0
 27 24  1  0  0  0  0
 28 24  2  0  0  0  0
 28 25  1  0  0  0  0
 29 26  1  0  0  0  0
 30 29  1  0  0  0  0
 30 23  1  0  0  0  0
 31 29  2  0  0  0  0
M  END
>  <MODEL>
1

>  <REMARK>
 VINA RESULT:     -11.4      0.000      0.000
  Name = 
  2 active torsions:
  status: ('A' for Active; 'I' for Inactive)
    1  A    between atoms: C_5  and  N_16
    2  A    between atoms: C_5  and  C_30
                            x       y       z     vdW  Elec       q    Type
                         _______ _______ _______ _____ _____    ______ ____

>  <TORSDO>
F 2

$$$$
=
 OpenBabel11122411083D

 31 35  0  0  1  0  0  0  0  0999 V2000
  190.7680  177.1400  141.9560 C   0  0  0  0  0  0  0  0  0  0  0  0
  187.3750  178.0610  143.3160 C   0  0  0  0  0  0  0  0  0  0  0  0
  187.4560  177.9490  144.7440 C   0  0  0  0  0  0  0  0  0  0  0  0
  188.6810  177.4600  146.8030 C   0  0  0  0  0  0  0  0  0  0  0  0
  188.4590  177.7950  142.4230 C   0  0  0  0  0  0  0  0  0  0  0  0
  190.5470  177.2890  140.5880 C   0  0  0  0  0  3  0  0  0  0  0  0
  188.6320  177.5590  145.4110 C   0  0  0  0  0  3  0  0  0  0  0  0
  185.9960  178.5900  141.3550 C   0  0  0  0  0  0  0  0  0  0  0  0
  191.9840  176.7530  142.4080 F   0  0  0  0  0  0  0  0  0  0  0  0
  185.1210  178.6270  144.9460 C   0  0  0  0  0  3  0  0  0  0  0  0
  189.8590  177.0730  147.4300 O   0  0  0  0  0  1  0  0  0  0  0  0
  187.0510  178.3260  140.5460 N   0  0  0  0  0  0  0  0  0  0  0  0
  186.1310  178.4640  142.7470 C   0  0  0  0  0  0  0  0  0  0  0  0
  184.7440  178.9920  140.7840 N   0  0  0  0  0  2  0  0  0  0  0  0
  189.7340  177.3910  142.8600 C   0  0  0  0  0  3  0  0  0  0  0  0
  187.5500  177.7470  147.5640 C   0  0  0  0  0  3  0  0  0  0  0  0
  188.2550  177.9410  141.0270 C   0  0  0  0  0  0  0  0  0  0  0  0
  189.2940  177.6880  140.1250 C   0  0  0  0  0  3  0  0  0  0  0  0
  185.0310  178.7380  143.5660 C   0  0  0  0  0  3  0  0  0  0  0  0
  186.3150  178.2370  145.5390 C   0  0  0  0  0  0  0  0  0  0  0  0
  186.3690  178.1350  146.9320 C   0  0  0  0  0  3  0  0  0  0  0  0
  183.3940  180.1300  139.0930 C   0  0  0  0  0  1  0  0  0  0  0  0
  184.5470  179.1740  139.3520 C   0  0  2  0  0  3  0  0  0  0  0  0
  183.8350  175.3870  137.4400 C   0  0  0  0  0  0  0  0  0  0  0  0
  183.2780  177.0060  139.1510 C   0  0  0  0  0  3  0  0  0  0  0  0
  186.0740  178.2610  137.1310 F   0  0  0  0  0  0  0  0  0  0  0  0
  183.6070  174.1660  136.8220 O   0  0  0  0  0  1  0  0  0  0  0  0
  183.0490  175.7770  138.5280 C   0  0  0  0  0  3  0  0  0  0  0  0
  185.0840  177.4590  137.5960 C   0  0  0  0  0  0  0  0  0  0  0  0
  184.2970  177.8540  138.6900 C   0  0  0  0  0  0  0  0  0  0  0  0
  184.8500  176.2270  136.9760 C   0  0  0  0  0  3  0  0  0  0  0  0
  1  9  1  0  0  0  0
  1 15  1  0  0  0  0
  2  3  1  0  0  0  0
  3  7  2  0  0  0  0
  3 20  1  0  0  0  0
  4 11  1  0  0  0  0
  4 16  2  0  0  0  0
  5 15  2  0  0  0  0
  5  2  1  0  0  0  0
  6  1  2  0  0  0  0
  7  4  1  0  0  0  0
  8 13  1  0  0  0  0
 10 20  1  0  0  0  0
 12 17  1  0  0  0  0
 12  8  2  0  0  0  0
 13  2  2  0  0  0  0
 13 19  1  0  0  0  0
 14  8  1  0  0  0  0
 17  5  1  0  0  0  0
 18  6  1  0  0  0  0
 18 17  2  0  0  0  0
 19 10  2  0  0  0  0
 20 21  2  0  0  0  0
 21 16  1  0  0  0  0
 23 22  1  1  0  0  0
 23 14  1  0  0  0  0
 24 28  1  0  0  0  0
 26 29  1  0  0  0  0
 27 24  1  0  0  0  0
 28 25  2  0  0  0  0
 29 30  2  0  0  0  0
 30 25  1  0  0  0  0
 30 23  1  0  0  0  0
 31 24  2  0  0  0  0
 31 29  1  0  0  0  0
M  END
>  <MODEL>
2

>  <REMARK>
 VINA RESULT:     -10.7      2.838      4.118
  Name = 
  2 active torsions:
  status: ('A' for Active; 'I' for Inactive)
    1  A    between atoms: C_5  and  N_16
    2  A    between atoms: C_5  and  C_30
                            x       y       z     vdW  Elec       q    Type
                         _______ _______ _______ _____ _____    ______ ____

>  <TORSDO>
F 2

$$$$
=
 OpenBabel11122411083D

 31 35  0  0  1  0  0  0  0  0999 V2000
  190.0330  177.1040  147.1360 C   0  0  0  0  0  0  0  0  0  0  0  0
  188.0950  177.6480  143.9500 C   0  0  0  0  0  0  0  0  0  0  0  0
  186.7720  178.0500  144.3320 C   0  0  0  0  0  0  0  0  0  0  0  0
  185.0800  178.5780  146.0180 C   0  0  0  0  0  0  0  0  0  0  0  0
  189.1440  177.3440  144.8710 C   0  0  0  0  0  0  0  0  0  0  0  0
  191.2720  176.7250  146.6230 C   0  0  0  0  0  3  0  0  0  0  0  0
  186.3760  178.1850  145.6750 C   0  0  0  0  0  3  0  0  0  0  0  0
  189.6630  177.1550  142.1260 C   0  0  0  0  0  0  0  0  0  0  0  0
  189.8470  177.1770  148.4750 F   0  0  0  0  0  0  0  0  0  0  0  0
  186.1250  178.2160  141.9840 C   0  0  0  0  0  3  0  0  0  0  0  0
  184.7230  178.7020  147.3540 O   0  0  0  0  0  1  0  0  0  0  0  0
  190.6290  176.8750  143.0370 N   0  0  0  0  0  0  0  0  0  0  0  0
  188.3850  177.5440  142.5570 C   0  0  0  0  0  0  0  0  0  0  0  0
  189.9540  177.0490  140.7260 N   0  0  0  0  0  2  0  0  0  0  0  0
  188.9840  177.4090  146.2670 C   0  0  0  0  0  3  0  0  0  0  0  0
  184.1460  178.8470  145.0200 C   0  0  0  0  0  3  0  0  0  0  0  0
  190.4130  176.9560  144.3690 C   0  0  0  0  0  0  0  0  0  0  0  0
  191.4610  176.6510  145.2430 C   0  0  0  0  0  3  0  0  0  0  0  0
  187.4020  177.8270  141.6030 C   0  0  0  0  0  3  0  0  0  0  0  0
  185.8030  178.3280  143.3310 C   0  0  0  0  0  0  0  0  0  0  0  0
  184.5080  178.7210  143.6790 C   0  0  0  0  0  3  0  0  0  0  0  0
  192.2850  177.7610  140.5500 C   0  0  0  0  0  1  0  0  0  0  0  0
  191.2680  176.6830  140.2140 C   0  0  2  0  0  3  0  0  0  0  0  0
  191.1000  176.0410  135.9640 C   0  0  0  0  0  0  0  0  0  0  0  0
  190.0070  176.6640  138.0320 C   0  0  0  0  0  3  0  0  0  0  0  0
  193.5210  175.8400  138.6960 F   0  0  0  0  0  0  0  0  0  0  0  0
  191.0490  175.8330  134.5940 O   0  0  0  0  0  1  0  0  0  0  0  0
  189.9560  176.4550  136.6510 C   0  0  0  0  0  3  0  0  0  0  0  0
  192.3520  176.0440  138.0400 C   0  0  0  0  0  0  0  0  0  0  0  0
  191.2050  176.4590  138.7350 C   0  0  0  0  0  0  0  0  0  0  0  0
  192.2960  175.8360  136.6580 C   0  0  0  0  0  3  0  0  0  0  0  0
  1  9  1  0  0  0  0
  2  3  1  0  0  0  0
  2  5  1  0  0  0  0
  3  7  1  0  0  0  0
  4 11  1  0  0  0  0
  5 15  1  0  0  0  0
  6  1  1  0  0  0  0
  7  4  2  0  0  0  0
  8 13  1  0  0  0  0
  8 12  2  0  0  0  0
 10 20  1  0  0  0  0
 12 17  1  0  0  0  0
 13  2  2  0  0  0  0
 14  8  1  0  0  0  0
 15  1  2  0  0  0  0
 16  4  1  0  0  0  0
 17  5  2  0  0  0  0
 17 18  1  0  0  0  0
 18  6  2  0  0  0  0
 19 10  2  0  0  0  0
 19 13  1  0  0  0  0
 20 21  1  0  0  0  0
 20  3  2  0  0  0  0
 21 16  2  0  0  0  0
 23 22  1  6  0  0  0
 23 14  1  0  0  0  0
 24 28  2  0  0  0  0
 24 31  1  0  0  0  0
 25 30  2  0  0  0  0
 27 24  1  0  0  0  0
 28 25  1  0  0  0  0
 29 26  1  0  0  0  0
 29 30  1  0  0  0  0
 30 23  1  0  0  0  0
 31 29  2  0  0  0  0
M  END
>  <MODEL>
3

>  <REMARK>
 VINA RESULT:     -10.5      1.646      2.247
  Name = 
  2 active torsions:
  status: ('A' for Active; 'I' for Inactive)
    1  A    between atoms: C_5  and  N_16
    2  A    between atoms: C_5  and  C_30
                            x       y       z     vdW  Elec       q    Type
                         _______ _______ _______ _____ _____    ______ ____

>  <TORSDO>
F 2

$$$$
=
 OpenBabel11122411083D

 31 35  0  0  1  0  0  0  0  0999 V2000
  184.5940  178.6280  144.6620 C   0  0  0  0  0  0  0  0  0  0  0  0
  188.1590  177.8130  143.7500 C   0  0  0  0  0  0  0  0  0  0  0  0
  188.8350  177.4830  144.9710 C   0  0  0  0  0  0  0  0  0  0  0  0
  188.8770  177.1670  147.3960 C   0  0  0  0  0  0  0  0  0  0  0  0
  186.7810  178.1830  143.6640 C   0  0  0  0  0  0  0  0  0  0  0  0
  184.0670  178.9240  143.4060 C   0  0  0  0  0  3  0  0  0  0  0  0
  188.1930  177.4930  146.2230 C   0  0  0  0  0  3  0  0  0  0  0  0
  188.2990  178.0830  141.3140 C   0  0  0  0  0  0  0  0  0  0  0  0
  183.8060  178.6940  145.7610 F   0  0  0  0  0  0  0  0  0  0  0  0
  190.9070  177.0980  143.7400 C   0  0  0  0  0  3  0  0  0  0  0  0
  188.2120  177.1870  148.6150 O   0  0  0  0  0  1  0  0  0  0  0  0
  186.9880  178.4300  141.2800 N   0  0  0  0  0  0  0  0  0  0  0  0
  188.9090  177.7700  142.5380 C   0  0  0  0  0  0  0  0  0  0  0  0
  189.0550  178.0420  140.0960 N   0  0  0  0  0  2  0  0  0  0  0  0
  185.9360  178.2620  144.7860 C   0  0  0  0  0  3  0  0  0  0  0  0
  190.2260  176.8220  147.3440 C   0  0  0  0  0  3  0  0  0  0  0  0
  186.2250  178.4880  142.3950 C   0  0  0  0  0  0  0  0  0  0  0  0
  184.8810  178.8550  142.2760 C   0  0  0  0  0  3  0  0  0  0  0  0
  190.2630  177.4160  142.5520 C   0  0  0  0  0  3  0  0  0  0  0  0
  190.2110  177.1290  144.9410 C   0  0  0  0  0  0  0  0  0  0  0  0
  190.8910  176.8040  146.1180 C   0  0  0  0  0  3  0  0  0  0  0  0
  187.0190  177.8780  138.7520 C   0  0  0  0  0  1  0  0  0  0  0  0
  188.4720  178.3230  138.7900 C   0  0  2  0  0  3  0  0  0  0  0  0
  190.7270  176.3780  135.6870 C   0  0  0  0  0  0  0  0  0  0  0  0
  190.3460  176.8170  138.0360 C   0  0  0  0  0  3  0  0  0  0  0  0
  187.8660  178.6290  136.0280 F   0  0  0  0  0  0  0  0  0  0  0  0
  191.4530  175.7510  134.6840 O   0  0  0  0  0  1  0  0  0  0  0  0
  191.0770  176.1860  137.0260 C   0  0  0  0  0  3  0  0  0  0  0  0
  188.9120  177.8340  136.3660 C   0  0  0  0  0  0  0  0  0  0  0  0
  189.2610  177.6460  137.7130 C   0  0  0  0  0  0  0  0  0  0  0  0
  189.6460  177.2000  135.3580 C   0  0  0  0  0  3  0  0  0  0  0  0
  1 15  1  0  0  0  0
  1  9  1  0  0  0  0
  2  3  1  0  0  0  0
  3  7  1  0  0  0  0
  4 11  1  0  0  0  0
  5  2  1  0  0  0  0
  5 15  2  0  0  0  0
  6  1  2  0  0  0  0
  7  4  2  0  0  0  0
  8 13  1  0  0  0  0
 10 20  1  0  0  0  0
 12  8  2  0  0  0  0
 12 17  1  0  0  0  0
 13 19  1  0  0  0  0
 13  2  2  0  0  0  0
 14  8  1  0  0  0  0
 16  4  1  0  0  0  0
 17  5  1  0  0  0  0
 18 17  2  0  0  0  0
 18  6  1  0  0  0  0
 19 10  2  0  0  0  0
 20  3  2  0  0  0  0
 20 21  1  0  0  0  0
 21 16  2  0  0  0  0
 23 22  1  1  0  0  0
 23 14  1  0  0  0  0
 24 28  1  0  0  0  0
 26 29  1  0  0  0  0
 27 24  1  0  0  0  0
 28 25  2  0  0  0  0
 29 30  2  0  0  0  0
 30 25  1  0  0  0  0
 30 23  1  0  0  0  0
 31 24  2  0  0  0  0
 31 29  1  0  0  0  0
M  END
>  <MODEL>
4

>  <REMARK>
 VINA RESULT:     -10.2      2.169      4.308
  Name = 
  2 active torsions:
  status: ('A' for Active; 'I' for Inactive)
    1  A    between atoms: C_5  and  N_16
    2  A    between atoms: C_5  and  C_30
                            x       y       z     vdW  Elec       q    Type
                         _______ _______ _______ _____ _____    ______ ____

>  <TORSDO>
F 2

$$$$
=
 OpenBabel11122411083D

 31 35  0  0  1  0  0  0  0  0999 V2000
  190.9310  177.2720  142.2850 C   0  0  0  0  0  0  0  0  0  0  0  0
  187.6550  177.8180  144.0670 C   0  0  0  0  0  0  0  0  0  0  0  0
  187.9430  177.8250  145.4730 C   0  0  0  0  0  0  0  0  0  0  0  0
  189.4920  177.6630  147.3580 C   0  0  0  0  0  0  0  0  0  0  0  0
  188.6350  177.6380  143.0430 C   0  0  0  0  0  0  0  0  0  0  0  0
  190.5080  177.2860  140.9570 C   0  0  0  0  0  3  0  0  0  0  0  0
  189.2420  177.6510  145.9840 C   0  0  0  0  0  3  0  0  0  0  0  0
  185.9610  178.0060  142.3000 C   0  0  0  0  0  0  0  0  0  0  0  0
  192.2400  177.0890  142.5780 F   0  0  0  0  0  0  0  0  0  0  0  0
  185.5820  178.1910  145.9720 C   0  0  0  0  0  3  0  0  0  0  0  0
  190.7870  177.4880  147.8290 O   0  0  0  0  0  1  0  0  0  0  0  0
  186.9250  177.8300  141.3620 N   0  0  0  0  0  0  0  0  0  0  0  0
  186.3000  178.0040  143.6620 C   0  0  0  0  0  0  0  0  0  0  0  0
  184.5990  178.1910  141.8930 N   0  0  0  0  0  2  0  0  0  0  0  0
  190.0020  177.4460  143.3140 C   0  0  0  0  0  3  0  0  0  0  0  0
  188.4440  177.8490  148.2570 C   0  0  0  0  0  3  0  0  0  0  0  0
  188.2260  177.6500  141.6850 C   0  0  0  0  0  0  0  0  0  0  0  0
  189.1590  177.4750  140.6590 C   0  0  0  0  0  3  0  0  0  0  0  0
  185.2920  178.1860  144.6150 C   0  0  0  0  0  3  0  0  0  0  0  0
  186.8890  178.0130  146.4070 C   0  0  0  0  0  0  0  0  0  0  0  0
  187.1450  178.0240  147.7810 C   0  0  0  0  0  3  0  0  0  0  0  0
  184.1610  179.6730  139.9990 C   0  0  0  0  0  1  0  0  0  0  0  0
  184.1870  178.2360  140.4970 C   0  0  2  0  0  3  0  0  0  0  0  0
  180.3230  176.4040  140.0310 C   0  0  0  0  0  0  0  0  0  0  0  0
  182.6920  176.4490  139.5370 C   0  0  0  0  0  3  0  0  0  0  0  0
  181.8430  179.2510  141.7490 F   0  0  0  0  0  0  0  0  0  0  0  0
  179.0760  175.8150  139.8820 O   0  0  0  0  0  1  0  0  0  0  0  0
  181.4360  175.8550  139.3870 C   0  0  0  0  0  3  0  0  0  0  0  0
  181.7230  178.1430  140.9760 C   0  0  0  0  0  0  0  0  0  0  0  0
  182.8430  177.5970  140.3300 C   0  0  0  0  0  0  0  0  0  0  0  0
  180.4670  177.5460  140.8230 C   0  0  0  0  0  3  0  0  0  0  0  0
  1  9  1  0  0  0  0
  1 15  1  0  0  0  0
  2  3  1  0  0  0  0
  3  7  2  0  0  0  0
  3 20  1  0  0  0  0
  4 11  1  0  0  0  0
  4 16  2  0  0  0  0
  5 15  2  0  0  0  0
  5  2  1  0  0  0  0
  6  1  2  0  0  0  0
  7  4  1  0  0  0  0
  8 13  1  0  0  0  0
 10 20  1  0  0  0  0
 12 17  1  0  0  0  0
 12  8  2  0  0  0  0
 13  2  2  0  0  0  0
 13 19  1  0  0  0  0
 14  8  1  0  0  0  0
 17  5  1  0  0  0  0
 18  6  1  0  0  0  0
 18 17  2  0  0  0  0
 19 10  2  0  0  0  0
 20 21  2  0  0  0  0
 21 16  1  0  0  0  0
 23 22  1  1  0  0  0
 23 14  1  0  0  0  0
 24 31  1  0  0  0  0
 25 30  2  0  0  0  0
 27 24  1  0  0  0  0
 28 25  1  0  0  0  0
 28 24  2  0  0  0  0
 29 26  1  0  0  0  0
 30 23  1  0  0  0  0
 30 29  1  0  0  0  0
 31 29  2  0  0  0  0
M  END
>  <MODEL>
5

>  <REMARK>
 VINA RESULT:     -10.1      3.668      5.750
  Name = 
  2 active torsions:
  status: ('A' for Active; 'I' for Inactive)
    1  A    between atoms: C_5  and  N_16
    2  A    between atoms: C_5  and  C_30
                            x       y       z     vdW  Elec       q    Type
                         _______ _______ _______ _____ _____    ______ ____

>  <TORSDO>
F 2

$$$$
=
 OpenBabel11122411083D

 31 35  0  0  1  0  0  0  0  0999 V2000
  191.3260  176.6930  145.1460 C   0  0  0  0  0  0  0  0  0  0  0  0
  188.0090  177.7580  143.7090 C   0  0  0  0  0  0  0  0  0  0  0  0
  187.1400  178.0210  144.8200 C   0  0  0  0  0  0  0  0  0  0  0  0
  186.6830  178.1410  147.2200 C   0  0  0  0  0  0  0  0  0  0  0  0
  189.3660  177.3270  143.8300 C   0  0  0  0  0  0  0  0  0  0  0  0
  192.0550  176.4730  143.9780 C   0  0  0  0  0  3  0  0  0  0  0  0
  187.5510  177.8770  146.1580 C   0  0  0  0  0  3  0  0  0  0  0  0
  188.2900  177.6940  141.2710 C   0  0  0  0  0  0  0  0  0  0  0  0
  191.9060  176.4980  146.3540 F   0  0  0  0  0  0  0  0  0  0  0  0
  185.3320  178.6090  143.2900 C   0  0  0  0  0  3  0  0  0  0  0  0
  187.1220  177.9880  148.5290 O   0  0  0  0  0  1  0  0  0  0  0  0
  189.5730  177.2850  141.4330 N   0  0  0  0  0  0  0  0  0  0  0  0
  187.4850  177.9370  142.3950 C   0  0  0  0  0  0  0  0  0  0  0  0
  187.7620  177.8720  139.9500 N   0  0  0  0  0  2  0  0  0  0  0  0
  189.9970  177.1150  145.0680 C   0  0  0  0  0  3  0  0  0  0  0  0
  185.3780  178.5560  146.9680 C   0  0  0  0  0  3  0  0  0  0  0  0
  190.1250  177.0980  142.6530 C   0  0  0  0  0  0  0  0  0  0  0  0
  191.4550  176.6760  142.7360 C   0  0  0  0  0  3  0  0  0  0  0  0
  186.1630  178.3560  142.2080 C   0  0  0  0  0  3  0  0  0  0  0  0
  185.8050  178.4450  144.5860 C   0  0  0  0  0  0  0  0  0  0  0  0
  184.9400  178.7080  145.6520 C   0  0  0  0  0  3  0  0  0  0  0  0
  189.0550  179.0010  138.2100 C   0  0  0  0  0  1  0  0  0  0  0  0
  188.5540  177.6690  138.7440 C   0  0  2  0  0  3  0  0  0  0  0  0
  186.2230  175.6210  135.7670 C   0  0  0  0  0  0  0  0  0  0  0  0
  188.2140  175.7600  137.1350 C   0  0  0  0  0  3  0  0  0  0  0  0
  186.0340  178.6280  137.8380 F   0  0  0  0  0  0  0  0  0  0  0  0
  185.4690  174.9620  134.8060 O   0  0  0  0  0  1  0  0  0  0  0  0
  187.4540  175.0970  136.1680 C   0  0  0  0  0  3  0  0  0  0  0  0
  186.5080  177.4760  137.3000 C   0  0  0  0  0  0  0  0  0  0  0  0
  187.7470  176.9540  137.7060 C   0  0  0  0  0  0  0  0  0  0  0  0
  185.7510  176.8090  136.3320 C   0  0  0  0  0  3  0  0  0  0  0  0
  1  9  1  0  0  0  0
  2  5  1  0  0  0  0
  2  3  1  0  0  0  0
  3  7  1  0  0  0  0
  4 11  1  0  0  0  0
  5 15  2  0  0  0  0
  6  1  2  0  0  0  0
  7  4  2  0  0  0  0
  8 12  2  0  0  0  0
  8 13  1  0  0  0  0
 10 20  1  0  0  0  0
 12 17  1  0  0  0  0
 13  2  2  0  0  0  0
 14  8  1  0  0  0  0
 15  1  1  0  0  0  0
 16  4  1  0  0  0  0
 17 18  2  0  0  0  0
 17  5  1  0  0  0  0
 18  6  1  0  0  0  0
 19 13  1  0  0  0  0
 19 10  2  0  0  0  0
 20  3  2  0  0  0  0
 20 21  1  0  0  0  0
 21 16  2  0  0  0  0
 23 22  1  6  0  0  0
 23 14  1  0  0  0  0
 24 28  2  0  0  0  0
 24 31  1  0  0  0  0
 25 30  2  0  0  0  0
 27 24  1  0  0  0  0
 28 25  1  0  0  0  0
 29 30  1  0  0  0  0
 29 26  1  0  0  0  0
 30 23  1  0  0  0  0
 31 29  2  0  0  0  0
M  END
>  <MODEL>
6

>  <REMARK>
 VINA RESULT:     -10.1      1.853      2.397
  Name = 
  2 active torsions:
  status: ('A' for Active; 'I' for Inactive)
    1  A    between atoms: C_5  and  N_16
    2  A    between atoms: C_5  and  C_30
                            x       y       z     vdW  Elec       q    Type
                         _______ _______ _______ _____ _____    ______ ____

>  <TORSDO>
F 2

$$$$
=
 OpenBabel11122411083D

 31 35  0  0  1  0  0  0  0  0999 V2000
  185.3180  178.5350  143.7360 C   0  0  0  0  0  0  0  0  0  0  0  0
  188.9510  177.5800  143.4270 C   0  0  0  0  0  0  0  0  0  0  0  0
  189.4230  177.3070  144.7540 C   0  0  0  0  0  0  0  0  0  0  0  0
  189.0870  177.1370  147.1710 C   0  0  0  0  0  0  0  0  0  0  0  0
  187.6150  177.9770  143.1110 C   0  0  0  0  0  0  0  0  0  0  0  0
  184.9970  178.7680  142.4000 C   0  0  0  0  0  3  0  0  0  0  0  0
  188.6000  177.4090  145.8910 C   0  0  0  0  0  3  0  0  0  0  0  0
  189.4670  177.6990  141.0300 C   0  0  0  0  0  0  0  0  0  0  0  0
  184.3750  178.6860  144.6970 F   0  0  0  0  0  0  0  0  0  0  0  0
  191.6440  176.7990  143.8780 C   0  0  0  0  0  3  0  0  0  0  0  0
  188.2470  177.2460  148.2710 O   0  0  0  0  0  1  0  0  0  0  0  0
  188.1890  178.0750  140.7770 N   0  0  0  0  0  0  0  0  0  0  0  0
  189.8750  177.4450  142.3490 C   0  0  0  0  0  0  0  0  0  0  0  0
  190.3970  177.5660  139.9470 N   0  0  0  0  0  2  0  0  0  0  0  0
  186.6130  178.1440  144.0840 C   0  0  0  0  0  3  0  0  0  0  0  0
  190.4160  176.7570  147.3450 C   0  0  0  0  0  3  0  0  0  0  0  0
  187.2680  178.2190  141.7570 C   0  0  0  0  0  0  0  0  0  0  0  0
  185.9700  178.6100  141.4140 C   0  0  0  0  0  3  0  0  0  0  0  0
  191.1980  177.0600  142.5900 C   0  0  0  0  0  3  0  0  0  0  0  0
  190.7750  176.9190  144.9550 C   0  0  0  0  0  0  0  0  0  0  0  0
  191.2580  176.6480  146.2380 C   0  0  0  0  0  3  0  0  0  0  0  0
  189.0190  178.9130  138.4430 C   0  0  0  0  0  1  0  0  0  0  0  0
  190.0280  177.7820  138.5530 C   0  0  2  0  0  3  0  0  0  0  0  0
  188.4590  174.1610  136.8460 C   0  0  0  0  0  0  0  0  0  0  0  0
  188.1210  176.4310  137.6110 C   0  0  0  0  0  3  0  0  0  0  0  0
  191.6370  175.4860  138.0730 F   0  0  0  0  0  0  0  0  0  0  0  0
  187.9550  172.9910  136.2950 O   0  0  0  0  0  1  0  0  0  0  0  0
  187.6140  175.2540  137.0560 C   0  0  0  0  0  3  0  0  0  0  0  0
  190.3230  175.4220  137.7450 C   0  0  0  0  0  0  0  0  0  0  0  0
  189.4780  176.5230  137.9610 C   0  0  0  0  0  0  0  0  0  0  0  0
  189.8110  174.2450  137.1900 C   0  0  0  0  0  3  0  0  0  0  0  0
  1 15  1  0  0  0  0
  1  9  1  0  0  0  0
  2  3  1  0  0  0  0
  3 20  2  0  0  0  0
  3  7  1  0  0  0  0
  4 16  1  0  0  0  0
  4 11  1  0  0  0  0
  5  2  1  0  0  0  0
  5 15  2  0  0  0  0
  6  1  2  0  0  0  0
  7  4  2  0  0  0  0
  8 13  1  0  0  0  0
 10 20  1  0  0  0  0
 12  8  2  0  0  0  0
 12 17  1  0  0  0  0
 13 19  1  0  0  0  0
 13  2  2  0  0  0  0
 14  8  1  0  0  0  0
 17  5  1  0  0  0  0
 18 17  2  0  0  0  0
 18  6  1  0  0  0  0
 19 10  2  0  0  0  0
 20 21  1  0  0  0  0
 21 16  2  0  0  0  0
 23 22  1  1  0  0  0
 23 14  1  0  0  0  0
 24 28  2  0  0  0  0
 24 31  1  0  0  0  0
 25 30  2  0  0  0  0
 27 24  1  0  0  0  0
 28 25  1  0  0  0  0
 29 30  1  0  0  0  0
 29 26  1  0  0  0  0
 30 23  1  0  0  0  0
 31 29  2  0  0  0  0
M  END
>  <MODEL>
7

>  <REMARK>
 VINA RESULT:     -10.0      1.669      4.037
  Name = 
  2 active torsions:
  status: ('A' for Active; 'I' for Inactive)
    1  A    between atoms: C_5  and  N_16
    2  A    between atoms: C_5  and  C_30
                            x       y       z     vdW  Elec       q    Type
                         _______ _______ _______ _____ _____    ______ ____

>  <TORSDO>
F 2

$$$$
=
 OpenBabel11122411083D

 31 35  0  0  1  0  0  0  0  0999 V2000
  190.2250  177.5750  140.4220 C   0  0  0  0  0  0  0  0  0  0  0  0
  187.0250  178.1740  142.3200 C   0  0  0  0  0  0  0  0  0  0  0  0
  187.3310  178.0100  143.7120 C   0  0  0  0  0  0  0  0  0  0  0  0
  188.8870  177.5320  145.5370 C   0  0  0  0  0  0  0  0  0  0  0  0
  187.9750  178.0300  141.2620 C   0  0  0  0  0  0  0  0  0  0  0  0
  189.7880  177.7620  139.1120 C   0  0  0  0  0  3  0  0  0  0  0  0
  188.6190  177.6850  144.1750 C   0  0  0  0  0  3  0  0  0  0  0  0
  185.3280  178.6760  140.6180 C   0  0  0  0  0  0  0  0  0  0  0  0
  191.5200  177.2640  140.6670 F   0  0  0  0  0  0  0  0  0  0  0  0
  185.0120  178.4980  144.2960 C   0  0  0  0  0  3  0  0  0  0  0  0
  190.1710  177.2110  145.9590 O   0  0  0  0  0  1  0  0  0  0  0  0
  186.2630  178.5280  139.6470 N   0  0  0  0  0  0  0  0  0  0  0  0
  185.6830  178.5040  141.9650 C   0  0  0  0  0  0  0  0  0  0  0  0
  183.9780  179.0050  140.2620 N   0  0  0  0  0  2  0  0  0  0  0  0
  189.3260  177.7080  141.4820 C   0  0  0  0  0  3  0  0  0  0  0  0
  187.8680  177.7000  146.4720 C   0  0  0  0  0  3  0  0  0  0  0  0
  187.5500  178.2170  139.9220 C   0  0  0  0  0  0  0  0  0  0  0  0
  188.4540  178.0820  138.8630 C   0  0  0  0  0  3  0  0  0  0  0  0
  184.7040  178.6580  142.9530 C   0  0  0  0  0  3  0  0  0  0  0  0
  186.3070  178.1760  144.6830 C   0  0  0  0  0  0  0  0  0  0  0  0
  186.5800  178.0220  146.0440 C   0  0  0  0  0  3  0  0  0  0  0  0
  182.5670  180.3850  138.8200 C   0  0  0  0  0  1  0  0  0  0  0  0
  183.5530  179.2300  138.8870 C   0  0  2  0  0  3  0  0  0  0  0  0
  181.8170  175.6510  137.2490 C   0  0  0  0  0  0  0  0  0  0  0  0
  181.6470  177.5940  138.6830 C   0  0  0  0  0  3  0  0  0  0  0  0
  184.9330  177.5540  137.0480 F   0  0  0  0  0  0  0  0  0  0  0  0
  181.2600  174.4960  136.7200 O   0  0  0  0  0  1  0  0  0  0  0  0
  181.0860  176.4310  138.1490 C   0  0  0  0  0  3  0  0  0  0  0  0
  183.6760  177.1980  137.4150 C   0  0  0  0  0  0  0  0  0  0  0  0
  182.9460  177.9840  138.3210 C   0  0  0  0  0  0  0  0  0  0  0  0
  183.1100  176.0340  136.8830 C   0  0  0  0  0  3  0  0  0  0  0  0
  1  9  1  0  0  0  0
  1 15  1  0  0  0  0
  2  3  1  0  0  0  0
  3  7  2  0  0  0  0
  3 20  1  0  0  0  0
  4 11  1  0  0  0  0
  4 16  2  0  0  0  0
  5 15  2  0  0  0  0
  5  2  1  0  0  0  0
  6  1  2  0  0  0  0
  7  4  1  0  0  0  0
  8 13  1  0  0  0  0
 10 20  1  0  0  0  0
 12 17  1  0  0  0  0
 12  8  2  0  0  0  0
 13  2  2  0  0  0  0
 13 19  1  0  0  0  0
 14  8  1  0  0  0  0
 17  5  1  0  0  0  0
 18  6  1  0  0  0  0
 18 17  2  0  0  0  0
 19 10  2  0  0  0  0
 20 21  2  0  0  0  0
 21 16  1  0  0  0  0
 23 22  1  1  0  0  0
 23 14  1  0  0  0  0
 24 28  1  0  0  0  0
 26 29  1  0  0  0  0
 27 24  1  0  0  0  0
 28 25  2  0  0  0  0
 29 30  2  0  0  0  0
 30 25  1  0  0  0  0
 30 23  1  0  0  0  0
 31 24  2  0  0  0  0
 31 29  1  0  0  0  0
M  END
>  <MODEL>
8

>  <REMARK>
 VINA RESULT:      -9.9      3.401      5.026
  Name = 
  2 active torsions:
  status: ('A' for Active; 'I' for Inactive)
    1  A    between atoms: C_5  and  N_16
    2  A    between atoms: C_5  and  C_30
                            x       y       z     vdW  Elec       q    Type
                         _______ _______ _______ _____ _____    ______ ____

>  <TORSDO>
F 2

$$$$
=
 OpenBabel11122411083D

 31 35  0  0  1  0  0  0  0  0999 V2000
  185.0200  178.6800  144.0550 C   0  0  0  0  0  0  0  0  0  0  0  0
  188.6250  177.6150  143.7840 C   0  0  0  0  0  0  0  0  0  0  0  0
  189.0920  177.3850  145.1220 C   0  0  0  0  0  0  0  0  0  0  0  0
  188.7550  177.3250  147.5430 C   0  0  0  0  0  0  0  0  0  0  0  0
  187.3000  178.0350  143.4530 C   0  0  0  0  0  0  0  0  0  0  0  0
  184.7040  178.8660  142.7100 C   0  0  0  0  0  3  0  0  0  0  0  0
  188.2730  177.5560  146.2530 C   0  0  0  0  0  3  0  0  0  0  0  0
  189.1410  177.6190  141.3840 C   0  0  0  0  0  0  0  0  0  0  0  0
  184.0830  178.8980  145.0080 F   0  0  0  0  0  0  0  0  0  0  0  0
  191.2960  176.7800  144.2670 C   0  0  0  0  0  3  0  0  0  0  0  0
  187.9190  177.5030  148.6380 O   0  0  0  0  0  1  0  0  0  0  0  0
  187.8730  178.0200  141.1160 N   0  0  0  0  0  0  0  0  0  0  0  0
  189.5430  177.4100  142.7120 C   0  0  0  0  0  0  0  0  0  0  0  0
  190.0650  177.4160  140.3070 N   0  0  0  0  0  2  0  0  0  0  0  0
  186.3040  178.2700  144.4180 C   0  0  0  0  0  3  0  0  0  0  0  0
  190.0730  176.9160  147.7330 C   0  0  0  0  0  3  0  0  0  0  0  0
  186.9580  178.2290  142.0900 C   0  0  0  0  0  0  0  0  0  0  0  0
  185.6710  178.6410  141.7310 C   0  0  0  0  0  3  0  0  0  0  0  0
  190.8560  176.9990  142.9690 C   0  0  0  0  0  3  0  0  0  0  0  0
  190.4330  176.9680  145.3380 C   0  0  0  0  0  0  0  0  0  0  0  0
  190.9100  176.7390  146.6310 C   0  0  0  0  0  3  0  0  0  0  0  0
  188.3190  177.0060  138.6460 C   0  0  0  0  0  1  0  0  0  0  0  0
  189.7010  177.5840  138.9060 C   0  0  2  0  0  3  0  0  0  0  0  0
  192.6380  175.7220  136.3760 C   0  0  0  0  0  0  0  0  0  0  0  0
  190.3760  176.5030  136.7320 C   0  0  0  0  0  3  0  0  0  0  0  0
  192.3920  177.1640  139.7260 F   0  0  0  0  0  0  0  0  0  0  0  0
  193.5880  175.1220  135.5620 O   0  0  0  0  0  1  0  0  0  0  0  0
  191.3320  175.8980  135.9120 C   0  0  0  0  0  3  0  0  0  0  0  0
  192.0340  176.7550  138.4840 C   0  0  0  0  0  0  0  0  0  0  0  0
  190.7200  176.9340  138.0230 C   0  0  0  0  0  0  0  0  0  0  0  0
  192.9880  176.1500  137.6590 C   0  0  0  0  0  3  0  0  0  0  0  0
  1 15  1  0  0  0  0
  1  9  1  0  0  0  0
  2  3  1  0  0  0  0
  3 20  2  0  0  0  0
  3  7  1  0  0  0  0
  4 16  1  0  0  0  0
  4 11  1  0  0  0  0
  5  2  1  0  0  0  0
  5 15  2  0  0  0  0
  6  1  2  0  0  0  0
  7  4  2  0  0  0  0
  8 13  1  0  0  0  0
 10 20  1  0  0  0  0
 12  8  2  0  0  0  0
 12 17  1  0  0  0  0
 13 19  1  0  0  0  0
 13  2  2  0  0  0  0
 14  8  1  0  0  0  0
 17  5  1  0  0  0  0
 18 17  2  0  0  0  0
 18  6  1  0  0  0  0
 19 10  2  0  0  0  0
 20 21  1  0  0  0  0
 21 16  2  0  0  0  0
 23 22  1  1  0  0  0
 23 14  1  0  0  0  0
 24 31  1  0  0  0  0
 25 30  2  0  0  0  0
 27 24  1  0  0  0  0
 28 24  2  0  0  0  0
 28 25  1  0  0  0  0
 29 26  1  0  0  0  0
 30 29  1  0  0  0  0
 30 23  1  0  0  0  0
 31 29  2  0  0  0  0
M  END
>  <MODEL>
9

>  <REMARK>
 VINA RESULT:      -9.8      2.118      4.301
  Name = 
  2 active torsions:
  status: ('A' for Active; 'I' for Inactive)
    1  A    between atoms: C_5  and  N_16
    2  A    between atoms: C_5  and  C_30
                            x       y       z     vdW  Elec       q    Type
                         _______ _______ _______ _____ _____    ______ ____

>  <TORSDO>
F 2

$$$$
