=
 OpenBabel11122411343D

 37 44  0  0  1  0  0  0  0  0999 V2000
  189.2280  176.6020  142.6960 C   0  0  0  0  0  2  0  0  0  0  0  0
  188.4520  177.7460  147.2470 C   0  0  0  0  0  0  0  0  0  0  0  0
  185.4610  178.4610  144.4480 C   0  0  0  0  0  0  0  0  0  0  0  0
  190.5860  176.5420  142.0660 C   0  0  0  0  0  0  0  0  0  0  0  0
  186.3220  178.7020  140.7020 C   0  0  0  0  0  2  0  0  0  0  0  0
  186.0660  178.4680  146.7700 C   0  0  0  0  0  0  0  0  0  0  0  0
  186.1550  178.3610  143.2420 C   0  0  0  0  0  0  0  0  0  0  0  0
  189.6910  176.9820  139.8500 C   0  0  0  0  0  0  0  0  0  0  0  0
  186.3940  178.4010  145.4330 C   0  0  0  0  0  0  0  0  0  0  0  0
  185.5460  178.4150  141.9170 N   0  0  0  0  0  0  0  0  0  0  0  0
  184.7510  178.6230  147.1030 N   0  0  0  0  0  0  0  0  0  0  0  0
  190.7380  176.6890  140.7850 N   0  0  0  0  0  0  0  0  0  0  0  0
  187.6280  178.2380  144.9600 N   0  0  0  0  0  0  0  0  0  0  0  0
  188.2590  176.2400  147.2600 C   0  0  0  0  0  1  0  0  0  0  0  0
  183.0190  178.5710  143.7360 C   0  0  0  0  0  2  0  0  0  0  0  0
  183.7730  178.6830  146.1400 C   0  0  0  0  0  3  0  0  0  0  0  0
  188.8170  178.2010  145.8140 C   0  0  0  0  0  2  0  0  0  0  0  0
  188.7890  178.1830  139.9670 C   0  0  1  0  0  3  0  0  0  0  0  0
  187.5180  177.8030  140.6870 C   0  0  1  0  0  3  0  0  0  0  0  0
  184.1040  178.6110  144.7690 C   0  0  0  0  0  0  0  0  0  0  0  0
  187.5290  178.2220  143.6100 C   0  0  0  0  0  0  0  0  0  0  0  0
  187.1720  178.4360  147.7880 C   0  0  0  0  0  2  0  0  0  0  0  0
  184.0890  178.2130  141.8240 C   0  0  1  0  0  3  0  0  0  0  0  0
  189.6050  178.0850  148.1670 C   0  0  0  0  0  1  0  0  0  0  0  0
  188.5220  178.7080  141.3750 C   0  0  1  0  0  3  0  0  0  0  0  0
  189.5980  176.2750  138.8120 O   0  0  0  0  0  0  0  0  0  0  0  0
  188.7450  178.0450  142.7260 C   0  0  2  0  0  3  0  0  0  0  0  0
  183.4200  179.2040  142.5540 O   0  0  0  0  0  0  0  0  0  0  0  0
  183.2890  179.3130  139.7200 C   0  0  0  0  0  3  0  0  0  0  0  0
  183.5650  178.1310  140.4170 C   0  0  0  0  0  0  0  0  0  0  0  0
  183.3110  176.8920  139.8110 C   0  0  0  0  0  3  0  0  0  0  0  0
  182.4850  175.2910  137.7590 Cl  0  0  0  0  0  0  0  0  0  0  0  0
  182.5300  178.0220  137.8180 C   0  0  0  0  0  3  0  0  0  0  0  0
  182.7970  176.8390  138.5130 C   0  0  0  0  0  0  0  0  0  0  0  0
  182.7750  179.2580  138.4210 C   0  0  0  0  0  3  0  0  0  0  0  0
  191.5280  176.3650  144.2580 O   0  0  0  0  0  1  0  0  0  0  0  0
  191.7930  176.2280  142.8940 C   0  0  0  0  0  2  0  0  0  0  0  0
  1 27  1  0  0  0  0
  2 14  1  0  0  0  0
  2 22  1  0  0  0  0
  2 24  1  0  0  0  0
  3 20  2  0  0  0  0
  3  9  1  0  0  0  0
  4  1  1  0  0  0  0
  4 37  1  0  0  0  0
  5 10  1  0  0  0  0
  6 11  1  0  0  0  0
  6 22  1  0  0  0  0
  7 21  2  0  0  0  0
  7  3  1  0  0  0  0
  8 12  1  0  0  0  0
  9  6  2  0  0  0  0
 10  7  1  0  0  0  0
 12  4  2  0  0  0  0
 13  9  1  0  0  0  0
 13 17  1  0  0  0  0
 15 20  1  0  0  0  0
 16 11  2  0  0  0  0
 17  2  1  0  0  0  0
 18  8  1  1  0  0  0
 18 19  1  0  0  0  0
 18 25  1  0  0  0  0
 19  5  1  6  0  0  0
 19 25  1  0  0  0  0
 20 16  1  0  0  0  0
 21 13  1  0  0  0  0
 23 30  1  6  0  0  0
 23 10  1  0  0  0  0
 23 28  1  0  0  0  0
 25 27  1  0  0  0  0
 26  8  2  0  0  0  0
 27 21  1  0  0  0  0
 28 15  1  0  0  0  0
 29 30  1  0  0  0  0
 31 30  2  0  0  0  0
 32 34  1  0  0  0  0
 33 35  1  0  0  0  0
 33 34  2  0  0  0  0
 34 31  1  0  0  0  0
 35 29  2  0  0  0  0
 37 36  1  0  0  0  0
M  END
>  <MODEL>
1

>  <REMARK>
 VINA RESULT:      -9.6      0.000      0.000
  Name = 
  2 active torsions:
  status: ('A' for Active; 'I' for Inactive)
    1  A    between atoms: CA_4  and  C_37
    2  A    between atoms: C_23  and  C_30
                            x       y       z     vdW  Elec       q    Type
                         _______ _______ _______ _____ _____    ______ ____

>  <TORSDO>
F 2

$$$$
=
 OpenBabel11122411343D

 37 44  0  0  1  0  0  0  0  0999 V2000
  184.2840  177.7760  140.8900 C   0  0  0  0  0  2  0  0  0  0  0  0
  186.8190  177.5500  136.8710 C   0  0  0  0  0  0  0  0  0  0  0  0
  188.8100  177.4760  140.5210 C   0  0  0  0  0  0  0  0  0  0  0  0
  182.9370  178.4230  140.9960 C   0  0  0  0  0  0  0  0  0  0  0  0
  187.0890  178.8010  143.7010 C   0  0  0  0  0  2  0  0  0  0  0  0
  189.0010  177.2750  138.1380 C   0  0  0  0  0  0  0  0  0  0  0  0
  187.8260  177.9220  141.4030 C   0  0  0  0  0  0  0  0  0  0  0  0
  183.2270  178.8760  143.3660 C   0  0  0  0  0  0  0  0  0  0  0  0
  188.2980  177.6210  139.2710 C   0  0  0  0  0  0  0  0  0  0  0  0
  187.9650  177.9760  142.8550 N   0  0  0  0  0  0  0  0  0  0  0  0
  190.2680  176.7890  138.2880 N   0  0  0  0  0  0  0  0  0  0  0  0
  182.4970  178.8730  142.1320 N   0  0  0  0  0  0  0  0  0  0  0  0
  187.0530  178.0940  139.2790 N   0  0  0  0  0  0  0  0  0  0  0  0
  186.2810  176.1350  136.9880 C   0  0  0  0  0  1  0  0  0  0  0  0
  190.6840  176.6830  142.0510 C   0  0  0  0  0  2  0  0  0  0  0  0
  190.8240  176.6200  139.5330 C   0  0  0  0  0  3  0  0  0  0  0  0
  186.3000  178.3930  138.0610 C   0  0  0  0  0  2  0  0  0  0  0  0
  184.5730  179.5320  143.5290 C   0  0  1  0  0  3  0  0  0  0  0  0
  185.6700  178.5150  143.3250 C   0  0  1  0  0  3  0  0  0  0  0  0
  190.1060  176.9710  140.6990 C   0  0  0  0  0  0  0  0  0  0  0  0
  186.7260  178.3070  140.5760 C   0  0  0  0  0  0  0  0  0  0  0  0
  188.3670  177.5110  136.7940 C   0  0  0  0  0  2  0  0  0  0  0  0
  189.0560  177.2000  143.4690 C   0  0  1  0  0  3  0  0  0  0  0  0
  186.2890  178.1540  135.5880 C   0  0  0  0  0  1  0  0  0  0  0  0
  185.4600  179.6020  142.2890 C   0  0  1  0  0  3  0  0  0  0  0  0
  182.6670  178.4190  144.3970 O   0  0  0  0  0  0  0  0  0  0  0  0
  185.3670  178.8410  140.9750 C   0  0  2  0  0  3  0  0  0  0  0  0
  190.2930  177.6480  142.9860 O   0  0  0  0  0  0  0  0  0  0  0  0
  187.8180  177.3570  145.6410 C   0  0  0  0  0  3  0  0  0  0  0  0
  189.0360  177.1870  144.9720 C   0  0  0  0  0  0  0  0  0  0  0  0
  190.2200  177.0500  145.7110 C   0  0  0  0  0  3  0  0  0  0  0  0
  191.6610  176.8930  148.0240 Cl  0  0  0  0  0  0  0  0  0  0  0  0
  188.9620  177.2310  147.7710 C   0  0  0  0  0  3  0  0  0  0  0  0
  190.1810  177.0680  147.1070 C   0  0  0  0  0  0  0  0  0  0  0  0
  187.7810  177.3760  147.0380 C   0  0  0  0  0  3  0  0  0  0  0  0
  182.6580  179.1060  138.7200 O   0  0  0  0  0  1  0  0  0  0  0  0
  182.0320  178.4910  139.8060 C   0  0  0  0  0  2  0  0  0  0  0  0
  1 27  1  0  0  0  0
  1  4  1  0  0  0  0
  2 14  1  0  0  0  0
  2 17  1  0  0  0  0
  3 20  1  0  0  0  0
  3  7  1  0  0  0  0
  4 12  2  0  0  0  0
  6 11  2  0  0  0  0
  6  9  1  0  0  0  0
  7 10  1  0  0  0  0
  8 26  2  0  0  0  0
  9 13  1  0  0  0  0
  9  3  2  0  0  0  0
 10 23  1  0  0  0  0
 10  5  1  0  0  0  0
 11 16  1  0  0  0  0
 12  8  1  0  0  0  0
 13 21  1  0  0  0  0
 15 28  1  0  0  0  0
 16 20  2  0  0  0  0
 17 13  1  0  0  0  0
 18  8  1  6  0  0  0
 19 18  1  0  0  0  0
 19  5  1  1  0  0  0
 20 15  1  0  0  0  0
 21 27  1  0  0  0  0
 21  7  2  0  0  0  0
 22  2  1  0  0  0  0
 22  6  1  0  0  0  0
 23 30  1  1  0  0  0
 24  2  1  0  0  0  0
 25 19  1  0  0  0  0
 25 18  1  0  0  0  0
 27 25  1  0  0  0  0
 28 23  1  0  0  0  0
 29 35  1  0  0  0  0
 30 29  2  0  0  0  0
 30 31  1  0  0  0  0
 31 34  2  0  0  0  0
 34 33  1  0  0  0  0
 34 32  1  0  0  0  0
 35 33  2  0  0  0  0
 36 37  1  0  0  0  0
 37  4  1  0  0  0  0
M  END
>  <MODEL>
2

>  <REMARK>
 VINA RESULT:      -9.2      3.051      8.332
  Name = 
  2 active torsions:
  status: ('A' for Active; 'I' for Inactive)
    1  A    between atoms: CA_4  and  C_37
    2  A    between atoms: C_23  and  C_30
                            x       y       z     vdW  Elec       q    Type
                         _______ _______ _______ _____ _____    ______ ____

>  <TORSDO>
F 2

$$$$
=
 OpenBabel11122411343D

 37 44  0  0  1  0  0  0  0  0999 V2000
  189.2450  176.5370  138.6930 C   0  0  0  0  0  2  0  0  0  0  0  0
  190.2330  177.0530  143.3170 C   0  0  0  0  0  0  0  0  0  0  0  0
  186.4880  178.1910  141.9140 C   0  0  0  0  0  0  0  0  0  0  0  0
  190.2780  176.5450  137.6090 C   0  0  0  0  0  0  0  0  0  0  0  0
  185.9570  178.9340  138.1730 C   0  0  0  0  0  2  0  0  0  0  0  0
  187.8870  177.8690  143.8370 C   0  0  0  0  0  0  0  0  0  0  0  0
  186.6930  178.2480  140.5360 C   0  0  0  0  0  0  0  0  0  0  0  0
  188.6760  177.3000  135.9440 C   0  0  0  0  0  0  0  0  0  0  0  0
  187.7070  177.9810  142.4750 C   0  0  0  0  0  0  0  0  0  0  0  0
  185.6530  178.4940  139.5420 N   0  0  0  0  0  0  0  0  0  0  0  0
  186.7930  177.9950  144.6440 N   0  0  0  0  0  0  0  0  0  0  0  0
  189.9680  176.8650  136.3890 N   0  0  0  0  0  0  0  0  0  0  0  0
  188.6750  177.8680  141.5680 N   0  0  0  0  0  0  0  0  0  0  0  0
  189.9630  175.5630  143.2130 C   0  0  0  0  0  1  0  0  0  0  0  0
  183.9660  178.4340  142.1620 C   0  0  0  0  0  2  0  0  0  0  0  0
  185.5390  178.2010  144.1190 C   0  0  0  0  0  3  0  0  0  0  0  0
  190.0860  177.6970  141.9170 C   0  0  0  0  0  2  0  0  0  0  0  0
  187.9560  178.4860  136.5300 C   0  0  1  0  0  3  0  0  0  0  0  0
  187.0070  178.0290  137.6120 C   0  0  1  0  0  3  0  0  0  0  0  0
  185.3500  178.3150  142.7240 C   0  0  0  0  0  0  0  0  0  0  0  0
  188.0960  178.0400  140.3570 C   0  0  0  0  0  0  0  0  0  0  0  0
  189.2810  177.6800  144.3680 C   0  0  0  0  0  2  0  0  0  0  0  0
  184.2510  178.3280  139.9630 C   0  0  1  0  0  3  0  0  0  0  0  0
  191.6600  177.2450  143.7860 C   0  0  0  0  0  1  0  0  0  0  0  0
  188.2470  178.8160  137.9920 C   0  0  1  0  0  3  0  0  0  0  0  0
  188.1700  176.7440  134.9330 O   0  0  0  0  0  0  0  0  0  0  0  0
  188.8980  177.9690  139.0750 C   0  0  2  0  0  3  0  0  0  0  0  0
  183.9540  179.2180  141.0030 O   0  0  0  0  0  0  0  0  0  0  0  0
  183.0840  177.3780  137.9600 C   0  0  0  0  0  3  0  0  0  0  0  0
  183.2520  178.4480  138.8460 C   0  0  0  0  0  0  0  0  0  0  0  0
  182.5190  179.6290  138.6560 C   0  0  0  0  0  3  0  0  0  0  0  0
  180.7010  181.2030  137.3630 Cl  0  0  0  0  0  0  0  0  0  0  0  0
  181.4470  178.6560  136.7160 C   0  0  0  0  0  3  0  0  0  0  0  0
  181.6150  179.7300  137.5940 C   0  0  0  0  0  0  0  0  0  0  0  0
  182.1810  177.4810  136.8980 C   0  0  0  0  0  3  0  0  0  0  0  0
  191.7680  174.7130  137.9910 O   0  0  0  0  0  1  0  0  0  0  0  0
  191.6800  176.1030  137.8930 C   0  0  0  0  0  2  0  0  0  0  0  0
  1 27  1  0  0  0  0
  2 24  1  0  0  0  0
  2 22  1  0  0  0  0
  3  9  2  0  0  0  0
  3 20  1  0  0  0  0
  4 37  1  0  0  0  0
  4  1  1  0  0  0  0
  5 10  1  0  0  0  0
  6 22  1  0  0  0  0
  6 11  2  0  0  0  0
  7  3  1  0  0  0  0
  8 12  1  0  0  0  0
  9  6  1  0  0  0  0
 10 23  1  0  0  0  0
 10  7  1  0  0  0  0
 12  4  2  0  0  0  0
 13 17  1  0  0  0  0
 13  9  1  0  0  0  0
 14  2  1  0  0  0  0
 15 20  1  0  0  0  0
 16 11  1  0  0  0  0
 17  2  1  0  0  0  0
 18  8  1  1  0  0  0
 18 19  1  0  0  0  0
 18 25  1  0  0  0  0
 19 25  1  0  0  0  0
 19  5  1  6  0  0  0
 20 16  2  0  0  0  0
 21  7  2  0  0  0  0
 21 13  1  0  0  0  0
 23 30  1  6  0  0  0
 23 28  1  0  0  0  0
 25 27  1  0  0  0  0
 26  8  2  0  0  0  0
 27 21  1  0  0  0  0
 28 15  1  0  0  0  0
 29 30  1  0  0  0  0
 31 30  2  0  0  0  0
 32 34  1  0  0  0  0
 33 35  1  0  0  0  0
 33 34  2  0  0  0  0
 34 31  1  0  0  0  0
 35 29  2  0  0  0  0
 37 36  1  0  0  0  0
M  END
>  <MODEL>
3

>  <REMARK>
 VINA RESULT:      -9.0      2.389      3.619
  Name = 
  2 active torsions:
  status: ('A' for Active; 'I' for Inactive)
    1  A    between atoms: CA_4  and  C_37
    2  A    between atoms: C_23  and  C_30
                            x       y       z     vdW  Elec       q    Type
                         _______ _______ _______ _____ _____    ______ ____

>  <TORSDO>
F 2

$$$$
=
 OpenBabel11122411343D

 37 44  0  0  1  0  0  0  0  0999 V2000
  184.3530  177.2480  138.5960 C   0  0  0  0  0  2  0  0  0  0  0  0
  188.3760  177.0920  136.0620 C   0  0  0  0  0  0  0  0  0  0  0  0
  188.5990  177.7250  140.1660 C   0  0  0  0  0  0  0  0  0  0  0  0
  183.0250  177.6520  138.0350 C   0  0  0  0  0  0  0  0  0  0  0  0
  185.5330  179.0220  142.1020 C   0  0  0  0  0  2  0  0  0  0  0  0
  189.8180  177.3330  138.1370 C   0  0  0  0  0  0  0  0  0  0  0  0
  187.2850  178.0720  140.4830 C   0  0  0  0  0  0  0  0  0  0  0  0
  182.2110  178.3760  140.2090 C   0  0  0  0  0  0  0  0  0  0  0  0
  188.6600  177.6550  138.8100 C   0  0  0  0  0  0  0  0  0  0  0  0
  186.7790  178.2900  141.8340 N   0  0  0  0  0  0  0  0  0  0  0  0
  190.9450  177.0970  138.8690 N   0  0  0  0  0  0  0  0  0  0  0  0
  182.0890  178.1240  138.8020 N   0  0  0  0  0  0  0  0  0  0  0  0
  187.4850  177.8980  138.2320 N   0  0  0  0  0  0  0  0  0  0  0  0
  188.0150  175.6220  136.1780 C   0  0  0  0  0  1  0  0  0  0  0  0
  189.7140  177.4300  142.4350 C   0  0  0  0  0  2  0  0  0  0  0  0
  190.9280  177.1510  140.2420 C   0  0  0  0  0  3  0  0  0  0  0  0
  187.2980  177.9400  136.7810 C   0  0  0  0  0  2  0  0  0  0  0  0
  183.2670  179.2740  140.7990 C   0  0  1  0  0  3  0  0  0  0  0  0
  184.4580  178.4540  141.2300 C   0  0  1  0  0  3  0  0  0  0  0  0
  189.7430  177.4790  140.9380 C   0  0  0  0  0  0  0  0  0  0  0  0
  186.6100  178.1730  139.2270 C   0  0  0  0  0  0  0  0  0  0  0  0
  189.8000  177.3220  136.6330 C   0  0  0  0  0  2  0  0  0  0  0  0
  187.5860  177.7830  142.9580 C   0  0  1  0  0  3  0  0  0  0  0  0
  188.3800  177.4650  134.5950 C   0  0  0  0  0  1  0  0  0  0  0  0
  184.5850  179.3810  140.0370 C   0  0  1  0  0  3  0  0  0  0  0  0
  181.3220  177.9270  140.9790 O   0  0  0  0  0  0  0  0  0  0  0  0
  185.1580  178.4930  138.9430 C   0  0  2  0  0  3  0  0  0  0  0  0
  188.8460  178.3950  142.9570 O   0  0  0  0  0  0  0  0  0  0  0  0
  185.5680  178.2560  144.3660 C   0  0  0  0  0  3  0  0  0  0  0  0
  186.9230  177.9110  144.3020 C   0  0  0  0  0  0  0  0  0  0  0  0
  187.6510  177.7320  145.4870 C   0  0  0  0  0  3  0  0  0  0  0  0
  187.9320  177.6550  148.2020 Cl  0  0  0  0  0  0  0  0  0  0  0  0
  185.6670  178.2210  146.7850 C   0  0  0  0  0  3  0  0  0  0  0  0
  187.0210  177.8830  146.7260 C   0  0  0  0  0  0  0  0  0  0  0  0
  184.9400  178.4080  145.6060 C   0  0  0  0  0  3  0  0  0  0  0  0
  183.8670  177.1240  135.8590 O   0  0  0  0  0  1  0  0  0  0  0  0
  182.7170  177.4430  136.5850 C   0  0  0  0  0  2  0  0  0  0  0  0
  1 27  1  0  0  0  0
  2 14  1  0  0  0  0
  2 22  1  0  0  0  0
  2 17  1  0  0  0  0
  3  7  1  0  0  0  0
  3 20  1  0  0  0  0
  4  1  1  0  0  0  0
  4 12  2  0  0  0  0
  6  9  1  0  0  0  0
  6 11  2  0  0  0  0
  7 10  1  0  0  0  0
  8 26  2  0  0  0  0
  9  3  2  0  0  0  0
 10  5  1  0  0  0  0
 10 23  1  0  0  0  0
 11 16  1  0  0  0  0
 12  8  1  0  0  0  0
 13  9  1  0  0  0  0
 13 21  1  0  0  0  0
 15 28  1  0  0  0  0
 16 20  2  0  0  0  0
 17 13  1  0  0  0  0
 18  8  1  6  0  0  0
 18 19  1  0  0  0  0
 19  5  1  1  0  0  0
 20 15  1  0  0  0  0
 21  7  2  0  0  0  0
 22  6  1  0  0  0  0
 23 30  1  1  0  0  0
 24  2  1  0  0  0  0
 25 18  1  0  0  0  0
 25 19  1  0  0  0  0
 27 21  1  0  0  0  0
 27 25  1  0  0  0  0
 28 23  1  0  0  0  0
 29 35  1  0  0  0  0
 30 29  2  0  0  0  0
 30 31  1  0  0  0  0
 31 34  2  0  0  0  0
 34 33  1  0  0  0  0
 34 32  1  0  0  0  0
 35 33  2  0  0  0  0
 36 37  1  0  0  0  0
 37  4  1  0  0  0  0
M  END
>  <MODEL>
4

>  <REMARK>
 VINA RESULT:      -8.8      3.182      8.037
  Name = 
  2 active torsions:
  status: ('A' for Active; 'I' for Inactive)
    1  A    between atoms: CA_4  and  C_37
    2  A    between atoms: C_23  and  C_30
                            x       y       z     vdW  Elec       q    Type
                         _______ _______ _______ _____ _____    ______ ____

>  <TORSDO>
F 2

$$$$
=
 OpenBabel11122411343D

 37 44  0  0  1  0  0  0  0  0999 V2000
  184.5370  177.6460  140.5510 C   0  0  0  0  0  2  0  0  0  0  0  0
  187.0030  177.4840  136.4870 C   0  0  0  0  0  0  0  0  0  0  0  0
  189.0620  177.4870  140.0990 C   0  0  0  0  0  0  0  0  0  0  0  0
  183.1720  178.2510  140.6810 C   0  0  0  0  0  0  0  0  0  0  0  0
  187.3600  178.7710  143.3060 C   0  0  0  0  0  2  0  0  0  0  0  0
  189.2150  177.2830  137.7140 C   0  0  0  0  0  0  0  0  0  0  0  0
  188.0810  177.9060  140.9980 C   0  0  0  0  0  0  0  0  0  0  0  0
  183.4920  178.7230  143.0430 C   0  0  0  0  0  0  0  0  0  0  0  0
  188.5230  177.6110  138.8590 C   0  0  0  0  0  0  0  0  0  0  0  0
  188.2450  177.9710  142.4480 N   0  0  0  0  0  0  0  0  0  0  0  0
  190.4990  176.8380  137.8420 N   0  0  0  0  0  0  0  0  0  0  0  0
  182.7390  178.6920  141.8230 N   0  0  0  0  0  0  0  0  0  0  0  0
  187.2640  178.0450  138.8890 N   0  0  0  0  0  0  0  0  0  0  0  0
  186.5120  176.0530  136.6200 C   0  0  0  0  0  1  0  0  0  0  0  0
  190.9880  176.7600  141.5970 C   0  0  0  0  0  2  0  0  0  0  0  0
  191.0840  176.6920  139.0780 C   0  0  0  0  0  3  0  0  0  0  0  0
  186.4790  178.3150  137.6830 C   0  0  0  0  0  2  0  0  0  0  0  0
  184.8190  179.4220  143.1790 C   0  0  1  0  0  3  0  0  0  0  0  0
  185.9440  178.4390  142.9580 C   0  0  1  0  0  3  0  0  0  0  0  0
  190.3770  177.0240  140.2550 C   0  0  0  0  0  0  0  0  0  0  0  0
  186.9550  178.2530  140.1900 C   0  0  0  0  0  0  0  0  0  0  0  0
  188.5500  177.4930  136.3810 C   0  0  0  0  0  2  0  0  0  0  0  0
  189.3720  177.2320  143.0430 C   0  0  1  0  0  3  0  0  0  0  0  0
  186.4300  178.0650  135.2120 C   0  0  0  0  0  1  0  0  0  0  0  0
  185.6800  179.5150  141.9220 C   0  0  1  0  0  3  0  0  0  0  0  0
  182.9650  178.2530  144.0860 O   0  0  0  0  0  0  0  0  0  0  0  0
  185.5870  178.7460  140.6130 C   0  0  2  0  0  3  0  0  0  0  0  0
  190.5840  177.7160  142.5360 O   0  0  0  0  0  0  0  0  0  0  0  0
  190.5470  176.8530  145.2230 C   0  0  0  0  0  3  0  0  0  0  0  0
  189.3790  177.2250  144.5470 C   0  0  0  0  0  0  0  0  0  0  0  0
  188.2250  177.5430  145.2780 C   0  0  0  0  0  3  0  0  0  0  0  0
  186.8050  177.9040  147.5820 Cl  0  0  0  0  0  0  0  0  0  0  0  0
  189.4160  177.1370  147.3450 C   0  0  0  0  0  3  0  0  0  0  0  0
  188.2460  177.5020  146.6740 C   0  0  0  0  0  0  0  0  0  0  0  0
  190.5660  176.8130  146.6200 C   0  0  0  0  0  3  0  0  0  0  0  0
  182.9340  178.4980  138.3130 O   0  0  0  0  0  1  0  0  0  0  0  0
  182.2430  178.2860  139.5070 C   0  0  0  0  0  2  0  0  0  0  0  0
  1 27  1  0  0  0  0
  1  4  1  0  0  0  0
  2 14  1  0  0  0  0
  2 17  1  0  0  0  0
  3 20  1  0  0  0  0
  3  7  1  0  0  0  0
  4 12  2  0  0  0  0
  6 11  2  0  0  0  0
  6  9  1  0  0  0  0
  7 10  1  0  0  0  0
  8 26  2  0  0  0  0
  9 13  1  0  0  0  0
  9  3  2  0  0  0  0
 10 23  1  0  0  0  0
 10  5  1  0  0  0  0
 11 16  1  0  0  0  0
 12  8  1  0  0  0  0
 13 21  1  0  0  0  0
 15 28  1  0  0  0  0
 16 20  2  0  0  0  0
 17 13  1  0  0  0  0
 18  8  1  6  0  0  0
 19 18  1  0  0  0  0
 19  5  1  1  0  0  0
 20 15  1  0  0  0  0
 21 27  1  0  0  0  0
 21  7  2  0  0  0  0
 22  2  1  0  0  0  0
 22  6  1  0  0  0  0
 23 30  1  1  0  0  0
 24  2  1  0  0  0  0
 25 19  1  0  0  0  0
 25 18  1  0  0  0  0
 27 25  1  0  0  0  0
 28 23  1  0  0  0  0
 29 35  1  0  0  0  0
 30 29  2  0  0  0  0
 30 31  1  0  0  0  0
 31 34  2  0  0  0  0
 34 33  1  0  0  0  0
 34 32  1  0  0  0  0
 35 33  2  0  0  0  0
 36 37  1  0  0  0  0
 37  4  1  0  0  0  0
M  END
>  <MODEL>
5

>  <REMARK>
 VINA RESULT:      -8.6      2.863      8.322
  Name = 
  2 active torsions:
  status: ('A' for Active; 'I' for Inactive)
    1  A    between atoms: CA_4  and  C_37
    2  A    between atoms: C_23  and  C_30
                            x       y       z     vdW  Elec       q    Type
                         _______ _______ _______ _____ _____    ______ ____

>  <TORSDO>
F 2

$$$$
=
 OpenBabel11122411343D

 37 44  0  0  1  0  0  0  0  0999 V2000
  188.3460  178.6530  140.3390 C   0  0  0  0  0  2  0  0  0  0  0  0
  183.7160  178.9370  139.2850 C   0  0  0  0  0  0  0  0  0  0  0  0
  184.8530  178.3160  143.2370 C   0  0  0  0  0  0  0  0  0  0  0  0
  189.4000  178.2050  139.3730 C   0  0  0  0  0  0  0  0  0  0  0  0
  188.3470  176.9210  144.0580 C   0  0  0  0  0  2  0  0  0  0  0  0
  183.0410  178.7450  141.7240 C   0  0  0  0  0  0  0  0  0  0  0  0
  186.1860  177.9270  143.1030 C   0  0  0  0  0  0  0  0  0  0  0  0
  190.8680  177.4580  141.1610 C   0  0  0  0  0  0  0  0  0  0  0  0
  184.3460  178.3860  141.9780 C   0  0  0  0  0  0  0  0  0  0  0  0
  187.1060  177.6940  144.2120 N   0  0  0  0  0  0  0  0  0  0  0  0
  182.2290  179.0180  142.7870 N   0  0  0  0  0  0  0  0  0  0  0  0
  190.5230  177.7040  139.7900 N   0  0  0  0  0  0  0  0  0  0  0  0
  185.2540  178.1050  141.0450 N   0  0  0  0  0  0  0  0  0  0  0  0
  184.1400  180.3950  139.2570 C   0  0  0  0  0  1  0  0  0  0  0  0
  184.5660  178.6490  145.7440 C   0  0  0  0  0  2  0  0  0  0  0  0
  182.7000  178.9650  144.0770 C   0  0  0  0  0  3  0  0  0  0  0  0
  184.9450  178.0560  139.6150 C   0  0  0  0  0  2  0  0  0  0  0  0
  190.0420  176.5950  142.0780 C   0  0  1  0  0  3  0  0  0  0  0  0
  189.0870  177.4540  142.8720 C   0  0  1  0  0  3  0  0  0  0  0  0
  184.0390  178.6000  144.3420 C   0  0  0  0  0  0  0  0  0  0  0  0
  186.4010  177.8020  141.6950 C   0  0  0  0  0  0  0  0  0  0  0  0
  182.5580  178.7540  140.3000 C   0  0  0  0  0  2  0  0  0  0  0  0
  186.7350  178.2270  145.5340 C   0  0  1  0  0  3  0  0  0  0  0  0
  183.2130  178.5630  137.9080 C   0  0  0  0  0  1  0  0  0  0  0  0
  188.5430  176.5300  141.7990 C   0  0  1  0  0  3  0  0  0  0  0  0
  191.9760  177.8780  141.5860 O   0  0  0  0  0  0  0  0  0  0  0  0
  187.6660  177.4350  140.9480 C   0  0  2  0  0  3  0  0  0  0  0  0
  185.5290  177.6570  145.9590 O   0  0  0  0  0  0  0  0  0  0  0  0
  187.5520  178.5280  147.8830 C   0  0  0  0  0  3  0  0  0  0  0  0
  187.8030  178.0790  146.5820 C   0  0  0  0  0  0  0  0  0  0  0  0
  189.0570  177.5360  146.2650 C   0  0  0  0  0  3  0  0  0  0  0  0
  191.6070  176.7530  146.8490 Cl  0  0  0  0  0  0  0  0  0  0  0  0
  189.7870  177.8780  148.5470 C   0  0  0  0  0  3  0  0  0  0  0  0
  190.0450  177.4330  147.2480 C   0  0  0  0  0  0  0  0  0  0  0  0
  188.5410  178.4250  148.8650 C   0  0  0  0  0  3  0  0  0  0  0  0
  189.0520  179.7530  137.5820 O   0  0  0  0  0  1  0  0  0  0  0  0
  189.2130  178.4030  137.9010 C   0  0  0  0  0  2  0  0  0  0  0  0
  1 27  1  0  0  0  0
  2 17  1  0  0  0  0
  2 22  1  0  0  0  0
  3 20  1  0  0  0  0
  4 12  2  0  0  0  0
  4  1  1  0  0  0  0
  5 10  1  0  0  0  0
  6  9  1  0  0  0  0
  6 11  2  0  0  0  0
  7  3  1  0  0  0  0
  7 10  1  0  0  0  0
  8 26  2  0  0  0  0
  9  3  2  0  0  0  0
 10 23  1  0  0  0  0
 11 16  1  0  0  0  0
 12  8  1  0  0  0  0
 13 21  1  0  0  0  0
 13  9  1  0  0  0  0
 14  2  1  0  0  0  0
 15 28  1  0  0  0  0
 16 20  2  0  0  0  0
 17 13  1  0  0  0  0
 18  8  1  6  0  0  0
 18 19  1  0  0  0  0
 19  5  1  1  0  0  0
 20 15  1  0  0  0  0
 21  7  2  0  0  0  0
 22  6  1  0  0  0  0
 23 28  1  0  0  0  0
 23 30  1  1  0  0  0
 24  2  1  0  0  0  0
 25 18  1  0  0  0  0
 25 19  1  0  0  0  0
 27 21  1  0  0  0  0
 27 25  1  0  0  0  0
 29 35  1  0  0  0  0
 30 29  2  0  0  0  0
 31 30  1  0  0  0  0
 31 34  2  0  0  0  0
 32 34  1  0  0  0  0
 33 35  2  0  0  0  0
 34 33  1  0  0  0  0
 36 37  1  0  0  0  0
 37  4  1  0  0  0  0
M  END
>  <MODEL>
6

>  <REMARK>
 VINA RESULT:      -8.2      2.672      6.651
  Name = 
  2 active torsions:
  status: ('A' for Active; 'I' for Inactive)
    1  A    between atoms: CA_4  and  C_37
    2  A    between atoms: C_23  and  C_30
                            x       y       z     vdW  Elec       q    Type
                         _______ _______ _______ _____ _____    ______ ____

>  <TORSDO>
F 2

$$$$
=
 OpenBabel11122411343D

 37 44  0  0  1  0  0  0  0  0999 V2000
  188.5060  176.8070  143.7660 C   0  0  0  0  0  2  0  0  0  0  0  0
  184.5550  178.9380  142.1910 C   0  0  0  0  0  0  0  0  0  0  0  0
  187.5630  178.0020  139.4770 C   0  0  0  0  0  0  0  0  0  0  0  0
  189.0290  176.9390  145.1640 C   0  0  0  0  0  0  0  0  0  0  0  0
  191.1650  177.3970  140.6990 C   0  0  0  0  0  2  0  0  0  0  0  0
  185.3310  178.8270  139.7770 C   0  0  0  0  0  0  0  0  0  0  0  0
  188.6510  177.7560  140.3150 C   0  0  0  0  0  0  0  0  0  0  0  0
  191.3100  176.4770  144.4630 C   0  0  0  0  0  0  0  0  0  0  0  0
  186.5680  178.4750  140.2710 C   0  0  0  0  0  0  0  0  0  0  0  0
  189.9550  177.2670  139.8750 N   0  0  0  0  0  0  0  0  0  0  0  0
  185.1160  178.7110  138.4340 N   0  0  0  0  0  0  0  0  0  0  0  0
  190.2860  176.7530  145.4290 N   0  0  0  0  0  0  0  0  0  0  0  0
  186.9160  178.5240  141.5550 N   0  0  0  0  0  0  0  0  0  0  0  0
  184.0930  177.5030  142.3710 C   0  0  0  0  0  1  0  0  0  0  0  0
  188.3780  177.2460  137.1860 C   0  0  0  0  0  2  0  0  0  0  0  0
  186.0920  178.2310  137.5940 C   0  0  0  0  0  3  0  0  0  0  0  0
  186.0430  179.0500  142.6050 C   0  0  0  0  0  2  0  0  0  0  0  0
  191.6020  177.3740  143.2890 C   0  0  1  0  0  3  0  0  0  0  0  0
  190.8550  176.8860  142.0710 C   0  0  1  0  0  3  0  0  0  0  0  0
  187.3610  177.8660  138.0960 C   0  0  0  0  0  0  0  0  0  0  0  0
  188.2000  178.1010  141.6270 C   0  0  0  0  0  0  0  0  0  0  0  0
  184.3050  179.3820  140.7270 C   0  0  0  0  0  2  0  0  0  0  0  0
  190.0430  176.6640  138.5340 C   0  0  1  0  0  3  0  0  0  0  0  0
  183.7340  179.8190  143.1080 C   0  0  0  0  0  1  0  0  0  0  0  0
  190.4330  178.1840  142.7330 C   0  0  1  0  0  3  0  0  0  0  0  0
  192.0870  175.5080  144.6710 O   0  0  0  0  0  0  0  0  0  0  0  0
  188.9370  178.0150  142.9470 C   0  0  2  0  0  3  0  0  0  0  0  0
  189.6780  177.6030  137.5610 O   0  0  0  0  0  0  0  0  0  0  0  0
  192.5470  176.7530  138.5390 C   0  0  0  0  0  3  0  0  0  0  0  0
  191.3790  176.0500  138.2200 C   0  0  0  0  0  0  0  0  0  0  0  0
  191.4710  174.8070  137.5760 C   0  0  0  0  0  3  0  0  0  0  0  0
  192.8320  172.7160  136.4680 Cl  0  0  0  0  0  0  0  0  0  0  0  0
  193.8860  174.9700  137.5950 C   0  0  0  0  0  3  0  0  0  0  0  0
  192.7230  174.2680  137.2680 C   0  0  0  0  0  0  0  0  0  0  0  0
  193.7980  176.2120  138.2290 C   0  0  0  0  0  3  0  0  0  0  0  0
  186.8360  177.6070  145.8480 O   0  0  0  0  0  1  0  0  0  0  0  0
  188.0940  177.2080  146.3020 C   0  0  0  0  0  2  0  0  0  0  0  0
  1  4  1  0  0  0  0
  2 14  1  0  0  0  0
  2 17  1  0  0  0  0
  2 24  1  0  0  0  0
  3  9  1  0  0  0  0
  3  7  1  0  0  0  0
  4 12  2  0  0  0  0
  4 37  1  0  0  0  0
  6  9  2  0  0  0  0
  6 22  1  0  0  0  0
  7 21  2  0  0  0  0
  8 26  2  0  0  0  0
  8 12  1  0  0  0  0
  9 13  1  0  0  0  0
 10  7  1  0  0  0  0
 10  5  1  0  0  0  0
 11  6  1  0  0  0  0
 13 21  1  0  0  0  0
 13 17  1  0  0  0  0
 15 28  1  0  0  0  0
 15 20  1  0  0  0  0
 16 20  1  0  0  0  0
 16 11  2  0  0  0  0
 18  8  1  1  0  0  0
 19  5  1  6  0  0  0
 19 25  1  0  0  0  0
 19 18  1  0  0  0  0
 20  3  2  0  0  0  0
 21 27  1  0  0  0  0
 22  2  1  0  0  0  0
 23 30  1  6  0  0  0
 23 10  1  0  0  0  0
 25 27  1  0  0  0  0
 25 18  1  0  0  0  0
 27  1  1  0  0  0  0
 28 23  1  0  0  0  0
 30 29  2  0  0  0  0
 31 30  1  0  0  0  0
 32 34  1  0  0  0  0
 33 35  2  0  0  0  0
 34 31  2  0  0  0  0
 34 33  1  0  0  0  0
 35 29  1  0  0  0  0
 36 37  1  0  0  0  0
M  END
>  <MODEL>
7

>  <REMARK>
 VINA RESULT:      -8.1      2.957      6.848
  Name = 
  2 active torsions:
  status: ('A' for Active; 'I' for Inactive)
    1  A    between atoms: CA_4  and  C_37
    2  A    between atoms: C_23  and  C_30
                            x       y       z     vdW  Elec       q    Type
                         _______ _______ _______ _____ _____    ______ ____

>  <TORSDO>
F 2

$$$$
=
 OpenBabel11122411343D

 37 44  0  0  1  0  0  0  0  0999 V2000
  189.1070  176.6580  139.7320 C   0  0  0  0  0  2  0  0  0  0  0  0
  190.3810  177.5430  144.2290 C   0  0  0  0  0  0  0  0  0  0  0  0
  186.4480  178.2380  143.0710 C   0  0  0  0  0  0  0  0  0  0  0  0
  190.0510  176.6970  138.5700 C   0  0  0  0  0  0  0  0  0  0  0  0
  185.5710  178.7010  139.3500 C   0  0  0  0  0  2  0  0  0  0  0  0
  188.0110  178.1650  144.8900 C   0  0  0  0  0  0  0  0  0  0  0  0
  186.5440  178.2320  141.6790 C   0  0  0  0  0  0  0  0  0  0  0  0
  188.2630  177.1960  137.0010 C   0  0  0  0  0  0  0  0  0  0  0  0
  187.7210  178.1780  143.5430 C   0  0  0  0  0  0  0  0  0  0  0  0
  185.4130  178.3180  140.7600 N   0  0  0  0  0  0  0  0  0  0  0  0
  186.9730  178.2380  145.7740 N   0  0  0  0  0  0  0  0  0  0  0  0
  189.6220  176.9120  137.3640 N   0  0  0  0  0  0  0  0  0  0  0  0
  188.6250  178.1010  142.5690 N   0  0  0  0  0  0  0  0  0  0  0  0
  190.2500  176.0300  144.2260 C   0  0  0  0  0  1  0  0  0  0  0  0
  183.9400  178.2590  143.5060 C   0  0  0  0  0  2  0  0  0  0  0  0
  185.6700  178.2940  145.3410 C   0  0  0  0  0  3  0  0  0  0  0  0
  190.0680  178.0840  142.8130 C   0  0  0  0  0  2  0  0  0  0  0  0
  187.4760  178.3430  137.5790 C   0  0  1  0  0  3  0  0  0  0  0  0
  186.6600  177.8660  138.7550 C   0  0  1  0  0  3  0  0  0  0  0  0
  185.3670  178.3050  143.9610 C   0  0  0  0  0  0  0  0  0  0  0  0
  187.9440  178.1450  141.4000 C   0  0  0  0  0  0  0  0  0  0  0  0
  189.4530  178.1410  145.3180 C   0  0  0  0  0  2  0  0  0  0  0  0
  184.0700  178.0480  141.3000 C   0  0  1  0  0  3  0  0  0  0  0  0
  191.8120  177.8940  144.5720 C   0  0  0  0  0  1  0  0  0  0  0  0
  187.8410  178.7870  138.9930 C   0  0  1  0  0  3  0  0  0  0  0  0
  187.7410  176.5360  136.0650 O   0  0  0  0  0  0  0  0  0  0  0  0
  188.6510  178.0720  140.0640 C   0  0  2  0  0  3  0  0  0  0  0  0
  183.7660  178.9670  142.3120 O   0  0  0  0  0  0  0  0  0  0  0  0
  182.1450  179.1160  140.1040 C   0  0  0  0  0  3  0  0  0  0  0  0
  182.9830  178.0070  140.2610 C   0  0  0  0  0  0  0  0  0  0  0  0
  182.7720  176.8610  139.4800 C   0  0  0  0  0  3  0  0  0  0  0  0
  181.4820  175.4040  137.5660 Cl  0  0  0  0  0  0  0  0  0  0  0  0
  180.9090  177.9470  138.3820 C   0  0  0  0  0  3  0  0  0  0  0  0
  181.7390  176.8340  138.5400 C   0  0  0  0  0  0  0  0  0  0  0  0
  181.1120  179.0880  139.1640 C   0  0  0  0  0  3  0  0  0  0  0  0
  192.0490  177.1730  139.7970 O   0  0  0  0  0  1  0  0  0  0  0  0
  191.5070  176.4050  138.7650 C   0  0  0  0  0  2  0  0  0  0  0  0
  1 27  1  0  0  0  0
  2 24  1  0  0  0  0
  2 22  1  0  0  0  0
  3  9  2  0  0  0  0
  3 20  1  0  0  0  0
  4 37  1  0  0  0  0
  4  1  1  0  0  0  0
  5 10  1  0  0  0  0
  6 22  1  0  0  0  0
  6 11  2  0  0  0  0
  7  3  1  0  0  0  0
  8 12  1  0  0  0  0
  9  6  1  0  0  0  0
 10 23  1  0  0  0  0
 10  7  1  0  0  0  0
 12  4  2  0  0  0  0
 13 17  1  0  0  0  0
 13  9  1  0  0  0  0
 14  2  1  0  0  0  0
 15 20  1  0  0  0  0
 16 11  1  0  0  0  0
 17  2  1  0  0  0  0
 18  8  1  1  0  0  0
 18 19  1  0  0  0  0
 18 25  1  0  0  0  0
 19 25  1  0  0  0  0
 19  5  1  6  0  0  0
 20 16  2  0  0  0  0
 21  7  2  0  0  0  0
 21 13  1  0  0  0  0
 23 30  1  6  0  0  0
 23 28  1  0  0  0  0
 25 27  1  0  0  0  0
 26  8  2  0  0  0  0
 27 21  1  0  0  0  0
 28 15  1  0  0  0  0
 29 30  1  0  0  0  0
 31 30  2  0  0  0  0
 32 34  1  0  0  0  0
 33 34  2  0  0  0  0
 33 35  1  0  0  0  0
 34 31  1  0  0  0  0
 35 29  2  0  0  0  0
 37 36  1  0  0  0  0
M  END
>  <MODEL>
8

>  <REMARK>
 VINA RESULT:      -8.1      1.759      2.570
  Name = 
  2 active torsions:
  status: ('A' for Active; 'I' for Inactive)
    1  A    between atoms: CA_4  and  C_37
    2  A    between atoms: C_23  and  C_30
                            x       y       z     vdW  Elec       q    Type
                         _______ _______ _______ _____ _____    ______ ____

>  <TORSDO>
F 2

$$$$
=
 OpenBabel11122411343D

 37 44  0  0  1  0  0  0  0  0999 V2000
  188.7200  176.7330  142.2130 C   0  0  0  0  0  2  0  0  0  0  0  0
  187.0350  178.1860  146.4180 C   0  0  0  0  0  0  0  0  0  0  0  0
  184.6620  178.6260  143.0310 C   0  0  0  0  0  0  0  0  0  0  0  0
  190.1770  176.6590  141.8740 C   0  0  0  0  0  0  0  0  0  0  0  0
  186.2570  178.6140  139.5260 C   0  0  0  0  0  2  0  0  0  0  0  0
  184.7880  178.8160  145.4190 C   0  0  0  0  0  0  0  0  0  0  0  0
  185.5860  178.4550  141.9990 C   0  0  0  0  0  0  0  0  0  0  0  0
  189.7430  176.9160  139.4970 C   0  0  0  0  0  0  0  0  0  0  0  0
  185.3790  178.6590  144.1850 C   0  0  0  0  0  0  0  0  0  0  0  0
  185.2550  178.3980  140.5790 N   0  0  0  0  0  0  0  0  0  0  0  0
  183.4320  178.9640  145.4710 N   0  0  0  0  0  0  0  0  0  0  0  0
  190.5820  176.7160  140.6420 N   0  0  0  0  0  0  0  0  0  0  0  0
  186.6840  178.4920  143.9820 N   0  0  0  0  0  0  0  0  0  0  0  0
  186.8560  176.6810  146.5060 C   0  0  0  0  0  1  0  0  0  0  0  0
  182.4130  178.6270  141.8390 C   0  0  0  0  0  2  0  0  0  0  0  0
  182.6670  178.9310  144.3300 C   0  0  0  0  0  3  0  0  0  0  0  0
  187.6770  178.5440  145.0560 C   0  0  0  0  0  2  0  0  0  0  0  0
  188.8260  178.1010  139.3410 C   0  0  1  0  0  3  0  0  0  0  0  0
  187.4390  177.7450  139.8180 C   0  0  1  0  0  3  0  0  0  0  0  0
  183.2680  178.7670  143.0620 C   0  0  0  0  0  0  0  0  0  0  0  0
  186.8590  178.3750  142.6440 C   0  0  0  0  0  0  0  0  0  0  0  0
  185.6670  178.8840  146.6380 C   0  0  0  0  0  2  0  0  0  0  0  0
  183.8480  178.1560  140.2120 C   0  0  1  0  0  3  0  0  0  0  0  0
  187.9770  178.6170  147.5210 C   0  0  0  0  0  1  0  0  0  0  0  0
  188.2760  178.7210  140.6230 C   0  0  1  0  0  3  0  0  0  0  0  0
  189.8660  176.1340  138.5180 O   0  0  0  0  0  0  0  0  0  0  0  0
  188.2290  178.1630  142.0370 C   0  0  2  0  0  3  0  0  0  0  0  0
  183.0380  179.1820  140.7170 O   0  0  0  0  0  0  0  0  0  0  0  0
  182.5450  178.6110  138.1220 C   0  0  0  0  0  3  0  0  0  0  0  0
  183.6190  177.9600  138.7400 C   0  0  0  0  0  0  0  0  0  0  0  0
  184.4370  177.1040  137.9880 C   0  0  0  0  0  3  0  0  0  0  0  0
  185.2150  175.8500  135.6910 Cl  0  0  0  0  0  0  0  0  0  0  0  0
  183.1190  177.5720  136.0120 C   0  0  0  0  0  3  0  0  0  0  0  0
  184.1890  176.9150  136.6250 C   0  0  0  0  0  0  0  0  0  0  0  0
  182.2970  178.4200  136.7600 C   0  0  0  0  0  3  0  0  0  0  0  0
  191.6630  177.6420  143.4710 O   0  0  0  0  0  1  0  0  0  0  0  0
  191.1950  176.4350  142.9480 C   0  0  0  0  0  2  0  0  0  0  0  0
  2 14  1  0  0  0  0
  2 22  1  0  0  0  0
  2 24  1  0  0  0  0
  3 20  2  0  0  0  0
  3  9  1  0  0  0  0
  4  1  1  0  0  0  0
  4 37  1  0  0  0  0
  5 10  1  0  0  0  0
  6 11  1  0  0  0  0
  6 22  1  0  0  0  0
  7 21  2  0  0  0  0
  7  3  1  0  0  0  0
  8 12  1  0  0  0  0
  9  6  2  0  0  0  0
 10  7  1  0  0  0  0
 12  4  2  0  0  0  0
 13  9  1  0  0  0  0
 13 17  1  0  0  0  0
 15 20  1  0  0  0  0
 16 11  2  0  0  0  0
 17  2  1  0  0  0  0
 18  8  1  1  0  0  0
 18 19  1  0  0  0  0
 18 25  1  0  0  0  0
 19  5  1  6  0  0  0
 19 25  1  0  0  0  0
 20 16  1  0  0  0  0
 21 13  1  0  0  0  0
 23 30  1  6  0  0  0
 23 10  1  0  0  0  0
 23 28  1  0  0  0  0
 25 27  1  0  0  0  0
 26  8  2  0  0  0  0
 27  1  1  0  0  0  0
 27 21  1  0  0  0  0
 28 15  1  0  0  0  0
 29 30  1  0  0  0  0
 31 30  2  0  0  0  0
 32 34  1  0  0  0  0
 33 34  2  0  0  0  0
 33 35  1  0  0  0  0
 34 31  1  0  0  0  0
 35 29  2  0  0  0  0
 37 36  1  0  0  0  0
M  END
>  <MODEL>
9

>  <REMARK>
 VINA RESULT:      -8.0      1.319      1.623
  Name = 
  2 active torsions:
  status: ('A' for Active; 'I' for Inactive)
    1  A    between atoms: CA_4  and  C_37
    2  A    between atoms: C_23  and  C_30
                            x       y       z     vdW  Elec       q    Type
                         _______ _______ _______ _____ _____    ______ ____

>  <TORSDO>
F 2

$$$$
