=
 OpenBabel11122410523D

 32 36  0  0  1  0  0  0  0  0999 V2000
  188.4620  177.0860  138.6580 C   0  0  1  0  0  3  0  0  0  0  0  0
  184.0900  179.1750  139.4990 C   0  0  0  0  0  3  0  0  0  0  0  0
  184.3570  179.1620  140.8690 C   0  0  0  0  0  3  0  0  0  0  0  0
  190.2540  177.0410  140.4950 C   0  0  0  0  0  0  0  0  0  0  0  0
  190.8170  177.5770  141.7910 C   0  0  2  0  0  3  0  0  0  0  0  0
  188.7780  175.9800  136.7080 C   0  0  2  0  0  3  0  0  0  0  0  0
  186.9350  177.6390  136.7790 O   0  0  0  0  0  0  0  0  0  0  0  0
  189.7420  177.2560  143.7940 C   0  0  2  0  0  3  0  0  0  0  0  0
  185.0770  178.7880  138.5910 C   0  0  0  0  0  3  0  0  0  0  0  0
  187.4200  178.0310  138.0610 C   0  0  1  0  0  3  0  0  0  0  0  0
  186.3360  178.3740  139.0470 C   0  0  0  0  0  0  0  0  0  0  0  0
  187.9520  177.8910  140.9660 C   0  0  2  0  0  3  0  0  0  0  0  0
  190.8860  176.3680  143.6970 C   0  0  0  0  0  3  0  0  0  0  0  0
  187.2650  176.2910  136.4600 C   0  0  2  0  0  3  0  0  0  0  0  0
  191.4890  176.5350  142.5650 N   0  0  0  0  0  0  0  0  0  0  0  0
  185.6150  178.7720  141.3330 C   0  0  0  0  0  3  0  0  0  0  0  0
  186.6270  178.4070  140.4330 C   0  0  0  0  0  0  0  0  0  0  0  0
  188.4710  178.6810  142.1720 C   0  0  0  0  0  2  0  0  0  0  0  0
  189.4020  176.8290  137.6560 O   0  0  0  0  0  0  0  0  0  0  0  0
  190.8020  176.1140  139.9190 O   0  0  0  0  0  0  0  0  0  0  0  0
  188.6940  177.1910  144.8500 C   0  0  0  0  0  1  0  0  0  0  0  0
  189.0580  177.7550  139.8930 C   0  0  2  0  0  3  0  0  0  0  0  0
  189.6840  177.9700  142.6850 C   0  0  2  0  0  3  0  0  0  0  0  0
  185.0190  175.6140  136.7750 C   0  0  0  0  0  1  0  0  0  0  0  0
  186.3920  175.3590  137.1880 N   0  0  0  0  0  0  0  0  0  0  0  0
  186.6890  173.9960  136.7590 C   0  0  0  0  0  2  0  0  0  0  0  0
  185.9020  172.9980  137.5960 C   0  0  0  0  0  2  0  0  0  0  0  0
  185.0390  172.1420  136.7310 C   0  0  0  0  0  0  0  0  0  0  0  0
  185.4660  171.7340  135.6200 O   0  0  0  0  0  0  0  0  0  0  0  0
  183.7750  171.7690  137.1670 O   0  0  0  0  0  1  0  0  0  0  0  0
  191.0180  175.9110  135.6280 C   0  0  0  0  0  1  0  0  0  0  0  0
  189.5270  176.0470  135.3890 C   0  0  0  0  0  2  0  0  0  0  0  0
  1 19  1  6  0  0  0
  1 22  1  0  0  0  0
  2  3  1  0  0  0  0
  3 16  2  0  0  0  0
  5  4  1  6  0  0  0
  5 15  1  0  0  0  0
  5 23  1  0  0  0  0
  6 32  1  6  0  0  0
  6 19  1  0  0  0  0
  8 21  1  6  0  0  0
  9 11  1  0  0  0  0
  9  2  2  0  0  0  0
 10  7  1  6  0  0  0
 10  1  1  0  0  0  0
 10 11  1  0  0  0  0
 11 17  2  0  0  0  0
 12 18  1  1  0  0  0
 13  8  1  0  0  0  0
 14  6  1  0  0  0  0
 14  7  1  0  0  0  0
 14 25  1  1  0  0  0
 15 13  2  0  0  0  0
 17 12  1  0  0  0  0
 17 16  1  0  0  0  0
 20  4  2  0  0  0  0
 22  4  1  1  0  0  0
 22 12  1  0  0  0  0
 23 18  1  6  0  0  0
 23  8  1  0  0  0  0
 24 25  1  0  0  0  0
 26 25  1  0  0  0  0
 26 27  1  0  0  0  0
 28 30  1  0  0  0  0
 28 27  1  0  0  0  0
 29 28  2  0  0  0  0
 32 31  1  0  0  0  0
M  END
>  <MODEL>
1

>  <REMARK>
 VINA RESULT:      -7.0      0.000      0.000
  Name = 
  5 active torsions:
  status: ('A' for Active; 'I' for Inactive)
    1  A    between atoms: C_7  and  C_19
    2  A    between atoms: N_10  and  C_17
    3  A    between atoms: N_10  and  C_20
    4  A    between atoms: C_20  and  C_29
    5  A    between atoms: C_29  and  C_30
                            x       y       z     vdW  Elec       q    Type
                         _______ _______ _______ _____ _____    ______ ____

>  <TORSDO>
F 5

$$$$
=
 OpenBabel11122410523D

 32 36  0  0  1  0  0  0  0  0999 V2000
  185.7900  178.2930  139.9870 C   0  0  1  0  0  3  0  0  0  0  0  0
  181.1510  179.1160  141.3970 C   0  0  0  0  0  3  0  0  0  0  0  0
  181.5100  178.8330  142.7150 C   0  0  0  0  0  3  0  0  0  0  0  0
  187.6770  178.2020  141.7240 C   0  0  0  0  0  0  0  0  0  0  0  0
  188.2070  178.5210  143.1020 C   0  0  2  0  0  3  0  0  0  0  0  0
  186.1900  177.7830  137.8170 C   0  0  2  0  0  3  0  0  0  0  0  0
  184.0530  178.9340  138.3310 O   0  0  0  0  0  0  0  0  0  0  0  0
  187.3660  177.5020  144.9800 C   0  0  2  0  0  3  0  0  0  0  0  0
  182.1300  179.1830  140.4040 C   0  0  0  0  0  3  0  0  0  0  0  0
  184.5350  179.1040  139.6620 C   0  0  1  0  0  3  0  0  0  0  0  0
  183.4770  178.9560  140.7200 C   0  0  0  0  0  0  0  0  0  0  0  0
  185.2880  178.3910  142.4310 C   0  0  2  0  0  3  0  0  0  0  0  0
  188.6590  176.9350  144.6460 C   0  0  0  0  0  3  0  0  0  0  0  0
  184.6310  177.8080  137.6810 C   0  0  2  0  0  3  0  0  0  0  0  0
  189.1330  177.4960  143.5810 N   0  0  0  0  0  0  0  0  0  0  0  0
  182.8520  178.6280  143.0460 C   0  0  0  0  0  3  0  0  0  0  0  0
  183.8510  178.7180  142.0650 C   0  0  0  0  0  0  0  0  0  0  0  0
  185.7160  178.9630  143.7870 C   0  0  0  0  0  2  0  0  0  0  0  0
  186.6900  178.4960  138.9360 O   0  0  0  0  0  0  0  0  0  0  0  0
  188.3630  177.5810  140.9260 O   0  0  0  0  0  0  0  0  0  0  0  0
  186.4300  176.9600  146.0050 C   0  0  0  0  0  1  0  0  0  0  0  0
  186.3200  178.7610  141.3390 C   0  0  2  0  0  3  0  0  0  0  0  0
  187.0830  178.4310  144.0850 C   0  0  2  0  0  3  0  0  0  0  0  0
  182.6240  176.5560  137.7670 C   0  0  0  0  0  1  0  0  0  0  0  0
  184.0240  176.5610  138.1680 N   0  0  0  0  0  0  0  0  0  0  0  0
  184.6380  175.4310  137.4790 C   0  0  0  0  0  2  0  0  0  0  0  0
  183.7820  174.1840  137.6450 C   0  0  0  0  0  2  0  0  0  0  0  0
  184.6200  172.9520  137.5870 C   0  0  0  0  0  0  0  0  0  0  0  0
  184.1280  171.8730  137.1650 O   0  0  0  0  0  0  0  0  0  0  0  0
  185.9540  173.0030  137.9680 O   0  0  0  0  0  1  0  0  0  0  0  0
  188.2820  178.6300  136.7700 C   0  0  0  0  0  1  0  0  0  0  0  0
  186.8130  178.3260  136.5440 C   0  0  0  0  0  2  0  0  0  0  0  0
  1 19  1  6  0  0  0
  1 22  1  0  0  0  0
  2  3  1  0  0  0  0
  3 16  2  0  0  0  0
  5  4  1  6  0  0  0
  5 15  1  0  0  0  0
  5 23  1  0  0  0  0
  6 32  1  6  0  0  0
  6 19  1  0  0  0  0
  8 21  1  6  0  0  0
  9 11  1  0  0  0  0
  9  2  2  0  0  0  0
 10  7  1  6  0  0  0
 10  1  1  0  0  0  0
 10 11  1  0  0  0  0
 11 17  2  0  0  0  0
 12 18  1  1  0  0  0
 13  8  1  0  0  0  0
 14  6  1  0  0  0  0
 14 25  1  1  0  0  0
 14  7  1  0  0  0  0
 15 13  2  0  0  0  0
 17 12  1  0  0  0  0
 17 16  1  0  0  0  0
 20  4  2  0  0  0  0
 22  4  1  1  0  0  0
 22 12  1  0  0  0  0
 23 18  1  6  0  0  0
 23  8  1  0  0  0  0
 24 25  1  0  0  0  0
 26 27  1  0  0  0  0
 26 25  1  0  0  0  0
 28 27  1  0  0  0  0
 28 30  1  0  0  0  0
 29 28  2  0  0  0  0
 32 31  1  0  0  0  0
M  END
>  <MODEL>
2

>  <REMARK>
 VINA RESULT:      -6.9      2.121      3.075
  Name = 
  5 active torsions:
  status: ('A' for Active; 'I' for Inactive)
    1  A    between atoms: C_7  and  C_19
    2  A    between atoms: N_10  and  C_17
    3  A    between atoms: N_10  and  C_20
    4  A    between atoms: C_20  and  C_29
    5  A    between atoms: C_29  and  C_30
                            x       y       z     vdW  Elec       q    Type
                         _______ _______ _______ _____ _____    ______ ____

>  <TORSDO>
F 5

$$$$
=
 OpenBabel11122410523D

 32 36  0  0  1  0  0  0  0  0999 V2000
  190.2660  177.1390  139.5100 C   0  0  1  0  0  3  0  0  0  0  0  0
  185.9940  178.4060  137.4280 C   0  0  0  0  0  3  0  0  0  0  0  0
  185.3970  178.4330  138.6890 C   0  0  0  0  0  3  0  0  0  0  0  0
  190.6060  177.4060  142.0400 C   0  0  0  0  0  0  0  0  0  0  0  0
  190.2060  178.0270  143.3580 C   0  0  2  0  0  3  0  0  0  0  0  0
  191.8340  176.1190  138.2340 C   0  0  2  0  0  3  0  0  0  0  0  0
  190.0860  177.4210  137.0490 O   0  0  0  0  0  0  0  0  0  0  0  0
  188.2170  177.5070  144.3790 C   0  0  2  0  0  3  0  0  0  0  0  0
  187.3710  178.2080  137.3100 C   0  0  0  0  0  3  0  0  0  0  0  0
  189.6530  177.8860  138.3250 C   0  0  1  0  0  3  0  0  0  0  0  0
  188.1610  178.0230  138.4540 C   0  0  0  0  0  0  0  0  0  0  0  0
  188.3770  177.8270  140.9920 C   0  0  2  0  0  3  0  0  0  0  0  0
  189.3120  176.8390  145.0580 C   0  0  0  0  0  3  0  0  0  0  0  0
  190.7350  176.1560  137.1200 C   0  0  2  0  0  3  0  0  0  0  0  0
  190.4350  177.1180  144.4790 N   0  0  0  0  0  0  0  0  0  0  0  0
  186.1780  178.2730  139.8360 C   0  0  0  0  0  3  0  0  0  0  0  0
  187.5670  178.1000  139.7370 C   0  0  0  0  0  0  0  0  0  0  0  0
  187.9590  178.6910  142.1860 C   0  0  0  0  0  2  0  0  0  0  0  0
  191.6420  177.0610  139.2760 O   0  0  0  0  0  0  0  0  0  0  0  0
  191.5180  176.5950  141.9890 O   0  0  0  0  0  0  0  0  0  0  0  0
  186.7710  177.2490  144.6260 C   0  0  0  0  0  1  0  0  0  0  0  0
  189.9090  177.8980  140.7840 C   0  0  2  0  0  3  0  0  0  0  0  0
  188.7220  178.2050  143.3790 C   0  0  2  0  0  3  0  0  0  0  0  0
  188.8500  175.1040  136.1500 C   0  0  0  0  0  1  0  0  0  0  0  0
  189.7500  175.0780  137.2940 N   0  0  0  0  0  0  0  0  0  0  0  0
  190.4370  173.7920  137.2290 C   0  0  0  0  0  2  0  0  0  0  0  0
  190.6590  173.3870  135.7790 C   0  0  0  0  0  2  0  0  0  0  0  0
  192.1090  173.1760  135.5020 C   0  0  0  0  0  0  0  0  0  0  0  0
  192.7370  173.9850  134.7710 O   0  0  0  0  0  0  0  0  0  0  0  0
  192.7750  172.1020  136.0770 O   0  0  0  0  0  1  0  0  0  0  0  0
  194.1060  175.1560  137.9210 C   0  0  0  0  0  1  0  0  0  0  0  0
  193.1970  176.3270  137.6000 C   0  0  0  0  0  2  0  0  0  0  0  0
  1 19  1  6  0  0  0
  1 22  1  0  0  0  0
  2  3  1  0  0  0  0
  3 16  2  0  0  0  0
  5  4  1  6  0  0  0
  5 23  1  0  0  0  0
  5 15  1  0  0  0  0
  6 32  1  6  0  0  0
  6 19  1  0  0  0  0
  7 14  1  0  0  0  0
  8 21  1  6  0  0  0
  8 13  1  0  0  0  0
  9  2  2  0  0  0  0
  9 11  1  0  0  0  0
 10  7  1  6  0  0  0
 10 11  1  0  0  0  0
 10  1  1  0  0  0  0
 11 17  2  0  0  0  0
 12 18  1  1  0  0  0
 14 25  1  1  0  0  0
 14  6  1  0  0  0  0
 15 13  2  0  0  0  0
 17 16  1  0  0  0  0
 17 12  1  0  0  0  0
 20  4  2  0  0  0  0
 22 12  1  0  0  0  0
 22  4  1  1  0  0  0
 23 18  1  6  0  0  0
 23  8  1  0  0  0  0
 24 25  1  0  0  0  0
 26 25  1  0  0  0  0
 27 26  1  0  0  0  0
 28 27  1  0  0  0  0
 28 30  1  0  0  0  0
 29 28  2  0  0  0  0
 32 31  1  0  0  0  0
M  END
>  <MODEL>
3

>  <REMARK>
 VINA RESULT:      -6.9      2.748      3.561
  Name = 
  5 active torsions:
  status: ('A' for Active; 'I' for Inactive)
    1  A    between atoms: C_7  and  C_19
    2  A    between atoms: N_10  and  C_17
    3  A    between atoms: N_10  and  C_20
    4  A    between atoms: C_20  and  C_29
    5  A    between atoms: C_29  and  C_30
                            x       y       z     vdW  Elec       q    Type
                         _______ _______ _______ _____ _____    ______ ____

>  <TORSDO>
F 5

$$$$
=
 OpenBabel11122410523D

 32 36  0  0  1  0  0  0  0  0999 V2000
  184.5060  178.3130  139.6360 C   0  0  1  0  0  3  0  0  0  0  0  0
  183.1850  178.8320  144.3450 C   0  0  0  0  0  3  0  0  0  0  0  0
  184.4710  178.4580  144.7380 C   0  0  0  0  0  3  0  0  0  0  0  0
  186.9850  178.1570  138.9940 C   0  0  0  0  0  0  0  0  0  0  0  0
  188.4420  178.3840  139.3240 C   0  0  2  0  0  3  0  0  0  0  0  0
  182.8870  177.9970  138.0850 C   0  0  2  0  0  3  0  0  0  0  0  0
  182.2010  179.0170  140.2400 O   0  0  0  0  0  0  0  0  0  0  0  0
  189.5050  177.1840  140.9670 C   0  0  2  0  0  3  0  0  0  0  0  0
  182.8940  179.0190  142.9930 C   0  0  0  0  0  3  0  0  0  0  0  0
  183.5850  179.0970  140.5720 C   0  0  1  0  0  3  0  0  0  0  0  0
  183.8840  178.8210  142.0200 C   0  0  0  0  0  0  0  0  0  0  0  0
  186.2790  178.1920  141.3900 C   0  0  2  0  0  3  0  0  0  0  0  0
  189.9070  176.6980  139.6600 C   0  0  0  0  0  3  0  0  0  0  0  0
  181.9210  177.9700  139.3160 C   0  0  2  0  0  3  0  0  0  0  0  0
  189.3010  177.3620  138.7290 N   0  0  0  0  0  0  0  0  0  0  0  0
  185.4720  178.2810  143.7800 C   0  0  0  0  0  3  0  0  0  0  0  0
  185.2030  178.4900  142.4190 C   0  0  0  0  0  0  0  0  0  0  0  0
  187.6730  178.6690  141.8120 C   0  0  0  0  0  2  0  0  0  0  0  0
  184.1280  178.6360  138.3290 O   0  0  0  0  0  0  0  0  0  0  0  0
  186.6650  177.6310  137.9380 O   0  0  0  0  0  0  0  0  0  0  0  0
  189.8250  176.5230  142.2630 C   0  0  0  0  0  1  0  0  0  0  0  0
  185.9470  178.6910  139.9630 C   0  0  2  0  0  3  0  0  0  0  0  0
  188.6450  178.1700  140.7900 C   0  0  2  0  0  3  0  0  0  0  0  0
  180.5850  176.3700  140.4350 C   0  0  0  0  0  1  0  0  0  0  0  0
  181.9400  176.6650  139.9910 N   0  0  0  0  0  0  0  0  0  0  0  0
  182.2720  175.6300  139.0180 C   0  0  0  0  0  2  0  0  0  0  0  0
  181.0080  174.9260  138.5460 C   0  0  0  0  0  2  0  0  0  0  0  0
  181.0030  174.7790  137.0610 C   0  0  0  0  0  0  0  0  0  0  0  0
  179.9300  174.5300  136.4550 O   0  0  0  0  0  1  0  0  0  0  0  0
  182.1810  174.9500  136.3450 O   0  0  0  0  0  0  0  0  0  0  0  0
  180.6900  178.4570  137.0120 C   0  0  0  0  0  1  0  0  0  0  0  0
  182.1890  178.6660  136.9150 C   0  0  0  0  0  2  0  0  0  0  0  0
  1 19  1  6  0  0  0
  1 22  1  0  0  0  0
  1 10  1  0  0  0  0
  2  3  1  0  0  0  0
  4  5  1  0  0  0  0
  5 15  1  6  0  0  0
  5 23  1  0  0  0  0
  6 32  1  6  0  0  0
  6 19  1  0  0  0  0
  6 14  1  0  0  0  0
  8 21  1  1  0  0  0
  9  2  2  0  0  0  0
 10  7  1  6  0  0  0
 10 11  1  0  0  0  0
 11 17  2  0  0  0  0
 11  9  1  0  0  0  0
 12 18  1  1  0  0  0
 12 17  1  0  0  0  0
 13  8  1  0  0  0  0
 14 25  1  1  0  0  0
 14  7  1  0  0  0  0
 15 13  2  0  0  0  0
 16  3  2  0  0  0  0
 17 16  1  0  0  0  0
 20  4  2  0  0  0  0
 22  4  1  6  0  0  0
 22 12  1  0  0  0  0
 23  8  1  0  0  0  0
 23 18  1  1  0  0  0
 25 24  1  0  0  0  0
 26 25  1  0  0  0  0
 27 26  1  0  0  0  0
 28 27  1  0  0  0  0
 29 28  1  0  0  0  0
 30 28  2  0  0  0  0
 32 31  1  0  0  0  0
M  END
>  <MODEL>
4

>  <REMARK>
 VINA RESULT:      -6.8      3.022      4.923
  Name = 
  5 active torsions:
  status: ('A' for Active; 'I' for Inactive)
    1  A    between atoms: C_7  and  C_19
    2  A    between atoms: N_10  and  C_17
    3  A    between atoms: N_10  and  C_20
    4  A    between atoms: C_20  and  C_29
    5  A    between atoms: C_29  and  C_30
                            x       y       z     vdW  Elec       q    Type
                         _______ _______ _______ _____ _____    ______ ____

>  <TORSDO>
F 5

$$$$
=
 OpenBabel11122410523D

 32 36  0  0  1  0  0  0  0  0999 V2000
  188.3730  177.3090  138.6110 C   0  0  1  0  0  3  0  0  0  0  0  0
  183.9380  179.1400  139.6920 C   0  0  0  0  0  3  0  0  0  0  0  0
  184.2250  179.0120  141.0520 C   0  0  0  0  0  3  0  0  0  0  0  0
  190.1920  177.1660  140.4150 C   0  0  0  0  0  0  0  0  0  0  0  0
  190.7540  177.6030  141.7480 C   0  0  2  0  0  3  0  0  0  0  0  0
  188.7010  176.4000  136.5630 C   0  0  2  0  0  3  0  0  0  0  0  0
  186.7980  177.9730  136.8090 O   0  0  0  0  0  0  0  0  0  0  0  0
  189.7230  177.0570  143.7250 C   0  0  2  0  0  3  0  0  0  0  0  0
  184.9250  178.8770  138.7410 C   0  0  0  0  0  3  0  0  0  0  0  0
  187.2860  178.2640  138.1160 C   0  0  1  0  0  3  0  0  0  0  0  0
  186.2060  178.4720  139.1420 C   0  0  0  0  0  0  0  0  0  0  0  0
  187.8670  177.8780  140.9890 C   0  0  2  0  0  3  0  0  0  0  0  0
  190.8980  176.2270  143.5340 C   0  0  0  0  0  3  0  0  0  0  0  0
  187.1730  176.6740  136.3630 C   0  0  2  0  0  3  0  0  0  0  0  0
  191.4760  176.5210  142.4150 N   0  0  0  0  0  0  0  0  0  0  0  0
  185.5050  178.6300  141.4630 C   0  0  0  0  0  3  0  0  0  0  0  0
  186.5160  178.3890  140.5210 C   0  0  0  0  0  0  0  0  0  0  0  0
  188.3740  178.5740  142.2570 C   0  0  0  0  0  2  0  0  0  0  0  0
  189.3060  177.1830  137.5780 O   0  0  0  0  0  0  0  0  0  0  0  0
  190.7660  176.3170  139.7500 O   0  0  0  0  0  0  0  0  0  0  0  0
  188.6930  176.8550  144.7830 C   0  0  0  0  0  1  0  0  0  0  0  0
  188.9610  177.8850  139.8950 C   0  0  2  0  0  3  0  0  0  0  0  0
  189.6210  177.8670  142.6880 C   0  0  2  0  0  3  0  0  0  0  0  0
  184.9510  176.0240  136.8520 C   0  0  0  0  0  1  0  0  0  0  0  0
  186.3480  175.6460  137.0120 N   0  0  0  0  0  0  0  0  0  0  0  0
  186.5030  174.3870  136.2900 C   0  0  0  0  0  2  0  0  0  0  0  0
  186.7820  173.2520  137.2660 C   0  0  0  0  0  2  0  0  0  0  0  0
  188.0200  172.5130  136.8820 C   0  0  0  0  0  0  0  0  0  0  0  0
  187.9380  171.4400  136.2310 O   0  0  0  0  0  0  0  0  0  0  0  0
  189.2650  173.0280  137.2150 O   0  0  0  0  0  1  0  0  0  0  0  0
  190.8490  176.1020  135.3450 C   0  0  0  0  0  1  0  0  0  0  0  0
  189.4260  176.6170  135.2480 C   0  0  0  0  0  2  0  0  0  0  0  0
  1 19  1  6  0  0  0
  1 22  1  0  0  0  0
  2  3  1  0  0  0  0
  3 16  2  0  0  0  0
  5  4  1  6  0  0  0
  5 15  1  0  0  0  0
  5 23  1  0  0  0  0
  6 32  1  6  0  0  0
  6 19  1  0  0  0  0
  8 21  1  6  0  0  0
  9 11  1  0  0  0  0
  9  2  2  0  0  0  0
 10  7  1  6  0  0  0
 10  1  1  0  0  0  0
 10 11  1  0  0  0  0
 11 17  2  0  0  0  0
 12 18  1  1  0  0  0
 13  8  1  0  0  0  0
 14  6  1  0  0  0  0
 14  7  1  0  0  0  0
 14 25  1  1  0  0  0
 15 13  2  0  0  0  0
 17 12  1  0  0  0  0
 17 16  1  0  0  0  0
 20  4  2  0  0  0  0
 22  4  1  1  0  0  0
 22 12  1  0  0  0  0
 23 18  1  6  0  0  0
 23  8  1  0  0  0  0
 24 25  1  0  0  0  0
 26 25  1  0  0  0  0
 26 27  1  0  0  0  0
 28 30  1  0  0  0  0
 28 27  1  0  0  0  0
 29 28  2  0  0  0  0
 32 31  1  0  0  0  0
M  END
>  <MODEL>
5

>  <REMARK>
 VINA RESULT:      -6.7      1.017      1.262
  Name = 
  5 active torsions:
  status: ('A' for Active; 'I' for Inactive)
    1  A    between atoms: C_7  and  C_19
    2  A    between atoms: N_10  and  C_17
    3  A    between atoms: N_10  and  C_20
    4  A    between atoms: C_20  and  C_29
    5  A    between atoms: C_29  and  C_30
                            x       y       z     vdW  Elec       q    Type
                         _______ _______ _______ _____ _____    ______ ____

>  <TORSDO>
F 5

$$$$
=
 OpenBabel11122410523D

 32 36  0  0  1  0  0  0  0  0999 V2000
  187.3700  177.8430  139.5910 C   0  0  1  0  0  3  0  0  0  0  0  0
  192.1440  176.7530  139.1300 C   0  0  0  0  0  3  0  0  0  0  0  0
  191.8510  175.9810  138.0040 C   0  0  0  0  0  3  0  0  0  0  0  0
  185.7470  177.4080  137.6510 C   0  0  0  0  0  0  0  0  0  0  0  0
  185.4960  177.1610  136.1820 C   0  0  2  0  0  3  0  0  0  0  0  0
  186.6040  178.5260  141.6090 C   0  0  2  0  0  3  0  0  0  0  0  0
  189.0400  178.7430  141.1940 O   0  0  0  0  0  0  0  0  0  0  0  0
  186.1490  175.2100  135.1620 C   0  0  2  0  0  3  0  0  0  0  0  0
  191.1430  177.5130  139.7360 C   0  0  0  0  0  3  0  0  0  0  0  0
  188.7800  178.3790  139.8400 C   0  0  1  0  0  3  0  0  0  0  0  0
  189.8360  177.4990  139.2290 C   0  0  0  0  0  0  0  0  0  0  0  0
  188.1270  176.6570  137.5280 C   0  0  2  0  0  3  0  0  0  0  0  0
  184.7140  175.1990  135.3790 C   0  0  0  0  0  3  0  0  0  0  0  0
  188.0630  178.2320  142.0940 C   0  0  2  0  0  3  0  0  0  0  0  0
  184.3410  176.2910  135.9660 N   0  0  0  0  0  0  0  0  0  0  0  0
  190.5570  175.9770  137.4770 C   0  0  0  0  0  3  0  0  0  0  0  0
  189.5460  176.7570  138.0580 C   0  0  0  0  0  0  0  0  0  0  0  0
  188.0510  176.6100  135.9980 C   0  0  0  0  0  2  0  0  0  0  0  0
  186.4820  178.7270  140.2110 O   0  0  0  0  0  0  0  0  0  0  0  0
  184.8180  177.4220  138.4440 O   0  0  0  0  0  0  0  0  0  0  0  0
  186.9570  174.0410  134.7140 C   0  0  0  0  0  1  0  0  0  0  0  0
  187.1650  177.7340  138.0830 C   0  0  2  0  0  3  0  0  0  0  0  0
  186.6240  176.3500  135.6280 C   0  0  2  0  0  3  0  0  0  0  0  0
  189.7020  176.5860  142.5460 C   0  0  0  0  0  1  0  0  0  0  0  0
  188.2770  176.7970  142.3310 N   0  0  0  0  0  0  0  0  0  0  0  0
  187.6280  176.4200  143.5820 C   0  0  0  0  0  2  0  0  0  0  0  0
  188.2910  177.1280  144.7540 C   0  0  0  0  0  2  0  0  0  0  0  0
  187.2820  177.5150  145.7820 C   0  0  0  0  0  0  0  0  0  0  0  0
  186.0560  177.5030  145.5000 O   0  0  0  0  0  0  0  0  0  0  0  0
  187.6940  177.8590  147.0630 O   0  0  0  0  0  1  0  0  0  0  0  0
  184.7730  179.3780  143.0620 C   0  0  0  0  0  1  0  0  0  0  0  0
  186.0630  179.7350  142.3490 C   0  0  0  0  0  2  0  0  0  0  0  0
  1 10  1  0  0  0  0
  1 19  1  6  0  0  0
  2  9  1  0  0  0  0
  3  2  2  0  0  0  0
  4 20  2  0  0  0  0
  5 15  1  1  0  0  0
  5  4  1  0  0  0  0
  6 14  1  0  0  0  0
  6 32  1  1  0  0  0
  7 14  1  0  0  0  0
  8 21  1  1  0  0  0
  8 13  1  0  0  0  0
  8 23  1  0  0  0  0
 10 11  1  1  0  0  0
 10  7  1  0  0  0  0
 11  9  2  0  0  0  0
 12 18  1  6  0  0  0
 12 17  1  0  0  0  0
 12 22  1  0  0  0  0
 13 15  2  0  0  0  0
 14 25  1  6  0  0  0
 16  3  1  0  0  0  0
 16 17  2  0  0  0  0
 17 11  1  0  0  0  0
 19  6  1  0  0  0  0
 22  4  1  1  0  0  0
 22  1  1  0  0  0  0
 23 18  1  1  0  0  0
 23  5  1  0  0  0  0
 25 24  1  0  0  0  0
 25 26  1  0  0  0  0
 26 27  1  0  0  0  0
 27 28  1  0  0  0  0
 28 30  1  0  0  0  0
 29 28  2  0  0  0  0
 32 31  1  0  0  0  0
M  END
>  <MODEL>
6

>  <REMARK>
 VINA RESULT:      -6.4      2.663      7.587
  Name = 
  5 active torsions:
  status: ('A' for Active; 'I' for Inactive)
    1  A    between atoms: C_7  and  C_19
    2  A    between atoms: N_10  and  C_17
    3  A    between atoms: N_10  and  C_20
    4  A    between atoms: C_20  and  C_29
    5  A    between atoms: C_29  and  C_30
                            x       y       z     vdW  Elec       q    Type
                         _______ _______ _______ _____ _____    ______ ____

>  <TORSDO>
F 5

$$$$
=
 OpenBabel11122410523D

 32 36  0  0  1  0  0  0  0  0999 V2000
  182.7360  178.4420  139.8420 C   0  0  1  0  0  3  0  0  0  0  0  0
  179.3410  178.8620  143.3760 C   0  0  0  0  0  3  0  0  0  0  0  0
  180.3340  178.6830  144.3400 C   0  0  0  0  0  3  0  0  0  0  0  0
  185.2310  178.6260  140.4130 C   0  0  0  0  0  0  0  0  0  0  0  0
  186.3340  179.0640  141.3480 C   0  0  2  0  0  3  0  0  0  0  0  0
  182.0650  177.8680  137.7570 C   0  0  2  0  0  3  0  0  0  0  0  0
  180.3490  178.8230  139.2720 O   0  0  0  0  0  0  0  0  0  0  0  0
  186.6500  178.0600  143.3880 C   0  0  2  0  0  3  0  0  0  0  0  0
  179.6870  178.9780  142.0290 C   0  0  0  0  0  3  0  0  0  0  0  0
  181.4030  179.1050  140.1890 C   0  0  1  0  0  3  0  0  0  0  0  0
  181.0300  178.9040  141.6330 C   0  0  0  0  0  0  0  0  0  0  0  0
  183.5000  178.6090  142.2140 C   0  0  2  0  0  3  0  0  0  0  0  0
  187.6630  177.6100  142.4520 C   0  0  0  0  0  3  0  0  0  0  0  0
  180.6510  177.7290  138.4130 C   0  0  2  0  0  3  0  0  0  0  0  0
  187.4830  178.1620  141.2960 N   0  0  0  0  0  0  0  0  0  0  0  0
  181.6770  178.6300  143.9590 C   0  0  0  0  0  3  0  0  0  0  0  0
  182.0440  178.7720  142.6120 C   0  0  0  0  0  0  0  0  0  0  0  0
  184.4750  179.2870  143.1820 C   0  0  0  0  0  2  0  0  0  0  0  0
  182.9700  178.6810  138.4850 O   0  0  0  0  0  0  0  0  0  0  0  0
  185.4980  178.0390  139.3750 O   0  0  0  0  0  0  0  0  0  0  0  0
  186.4110  177.4780  144.7390 C   0  0  0  0  0  1  0  0  0  0  0  0
  183.8080  179.0260  140.7560 C   0  0  2  0  0  3  0  0  0  0  0  0
  185.8610  178.9110  142.7590 C   0  0  2  0  0  3  0  0  0  0  0  0
  179.1040  176.2890  139.4780 C   0  0  0  0  0  1  0  0  0  0  0  0
  180.5080  176.4530  139.1290 N   0  0  0  0  0  0  0  0  0  0  0  0
  180.8200  175.3580  138.2160 C   0  0  0  0  0  2  0  0  0  0  0  0
  180.1400  174.0780  138.6780 C   0  0  0  0  0  2  0  0  0  0  0  0
  180.2810  173.0010  137.6550 C   0  0  0  0  0  0  0  0  0  0  0  0
  181.4150  172.7130  137.1950 O   0  0  0  0  0  0  0  0  0  0  0  0
  179.1620  172.2950  137.2340 O   0  0  0  0  0  1  0  0  0  0  0  0
  180.4810  178.2410  135.8750 C   0  0  0  0  0  1  0  0  0  0  0  0
  181.9130  178.4070  136.3470 C   0  0  0  0  0  2  0  0  0  0  0  0
  1 19  1  6  0  0  0
  1 10  1  0  0  0  0
  1 22  1  0  0  0  0
  2  3  1  0  0  0  0
  5  4  1  6  0  0  0
  5 23  1  0  0  0  0
  6 32  1  6  0  0  0
  6 14  1  0  0  0  0
  6 19  1  0  0  0  0
  8 21  1  6  0  0  0
  9  2  2  0  0  0  0
 10  7  1  6  0  0  0
 10 11  1  0  0  0  0
 11  9  1  0  0  0  0
 11 17  2  0  0  0  0
 12 17  1  0  0  0  0
 12 18  1  1  0  0  0
 13  8  1  0  0  0  0
 14 25  1  1  0  0  0
 14  7  1  0  0  0  0
 15  5  1  0  0  0  0
 15 13  2  0  0  0  0
 16  3  2  0  0  0  0
 17 16  1  0  0  0  0
 20  4  2  0  0  0  0
 22  4  1  6  0  0  0
 22 12  1  0  0  0  0
 23 18  1  6  0  0  0
 23  8  1  0  0  0  0
 25 24  1  0  0  0  0
 26 27  1  0  0  0  0
 26 25  1  0  0  0  0
 28 27  1  0  0  0  0
 29 28  2  0  0  0  0
 30 28  1  0  0  0  0
 31 32  1  0  0  0  0
M  END
>  <MODEL>
7

>  <REMARK>
 VINA RESULT:      -6.4      3.993      5.819
  Name = 
  5 active torsions:
  status: ('A' for Active; 'I' for Inactive)
    1  A    between atoms: C_7  and  C_19
    2  A    between atoms: N_10  and  C_17
    3  A    between atoms: N_10  and  C_20
    4  A    between atoms: C_20  and  C_29
    5  A    between atoms: C_29  and  C_30
                            x       y       z     vdW  Elec       q    Type
                         _______ _______ _______ _____ _____    ______ ____

>  <TORSDO>
F 5

$$$$
=
 OpenBabel11122410523D

 32 36  0  0  1  0  0  0  0  0999 V2000
  182.5490  177.1740  138.8930 C   0  0  1  0  0  3  0  0  0  0  0  0
  187.1320  177.7120  137.1890 C   0  0  0  0  0  3  0  0  0  0  0  0
  187.1130  176.3890  136.7450 C   0  0  0  0  0  3  0  0  0  0  0  0
  181.1150  175.1810  138.1490 C   0  0  0  0  0  0  0  0  0  0  0  0
  180.8280  174.0630  137.1740 C   0  0  2  0  0  3  0  0  0  0  0  0
  181.8180  178.5890  140.5020 C   0  0  2  0  0  3  0  0  0  0  0  0
  183.7510  179.3340  139.1370 O   0  0  0  0  0  0  0  0  0  0  0  0
  182.2180  172.2450  136.9860 C   0  0  2  0  0  3  0  0  0  0  0  0
  185.9750  178.2890  137.7160 C   0  0  0  0  0  3  0  0  0  0  0  0
  183.5300  178.1930  138.3120 C   0  0  1  0  0  3  0  0  0  0  0  0
  184.7920  177.5440  137.8140 C   0  0  0  0  0  0  0  0  0  0  0  0
  183.5150  175.3560  137.4790 C   0  0  2  0  0  3  0  0  0  0  0  0
  181.0190  171.8780  137.7150 C   0  0  0  0  0  3  0  0  0  0  0  0
  183.2810  179.1450  140.4680 C   0  0  2  0  0  3  0  0  0  0  0  0
  180.2370  172.9020  137.8360 N   0  0  0  0  0  0  0  0  0  0  0  0
  185.9340  175.6440  136.8160 C   0  0  0  0  0  3  0  0  0  0  0  0
  184.7560  176.2180  137.3180 C   0  0  0  0  0  0  0  0  0  0  0  0
  183.2730  174.4110  136.2970 C   0  0  0  0  0  2  0  0  0  0  0  0
  181.4310  177.8890  139.3320 O   0  0  0  0  0  0  0  0  0  0  0  0
  180.4120  175.3360  139.1360 O   0  0  0  0  0  0  0  0  0  0  0  0
  183.4310  171.3920  136.8460 C   0  0  0  0  0  1  0  0  0  0  0  0
  182.2300  176.1520  137.8060 C   0  0  2  0  0  3  0  0  0  0  0  0
  182.1260  173.5220  136.6630 C   0  0  2  0  0  3  0  0  0  0  0  0
  185.5120  178.9300  141.2270 C   0  0  0  0  0  1  0  0  0  0  0  0
  184.2040  178.2890  141.2260 N   0  0  0  0  0  0  0  0  0  0  0  0
  183.7800  178.2530  142.6220 C   0  0  0  0  0  2  0  0  0  0  0  0
  184.5510  179.2840  143.4340 C   0  0  0  0  0  2  0  0  0  0  0  0
  184.7790  178.8020  144.8270 C   0  0  0  0  0  0  0  0  0  0  0  0
  185.8630  178.2400  145.1310 O   0  0  0  0  0  0  0  0  0  0  0  0
  183.8070  179.0030  145.7970 O   0  0  0  0  0  1  0  0  0  0  0  0
  180.3550  179.6870  142.1890 C   0  0  0  0  0  1  0  0  0  0  0  0
  180.8530  179.7320  140.7570 C   0  0  0  0  0  2  0  0  0  0  0  0
  1 19  1  6  0  0  0
  2  9  1  0  0  0  0
  3 16  1  0  0  0  0
  3  2  2  0  0  0  0
  4 20  2  0  0  0  0
  5 15  1  1  0  0  0
  5  4  1  0  0  0  0
  6 32  1  6  0  0  0
  7 14  1  0  0  0  0
  8 21  1  1  0  0  0
  8 13  1  0  0  0  0
  9 11  2  0  0  0  0
 10 11  1  1  0  0  0
 10  1  1  0  0  0  0
 10  7  1  0  0  0  0
 12 18  1  6  0  0  0
 12 22  1  0  0  0  0
 13 15  2  0  0  0  0
 14  6  1  0  0  0  0
 14 25  1  6  0  0  0
 16 17  2  0  0  0  0
 17 12  1  0  0  0  0
 17 11  1  0  0  0  0
 19  6  1  0  0  0  0
 22  4  1  1  0  0  0
 22  1  1  0  0  0  0
 23 18  1  1  0  0  0
 23  8  1  0  0  0  0
 23  5  1  0  0  0  0
 25 24  1  0  0  0  0
 25 26  1  0  0  0  0
 26 27  1  0  0  0  0
 27 28  1  0  0  0  0
 28 29  2  0  0  0  0
 28 30  1  0  0  0  0
 32 31  1  0  0  0  0
M  END
>  <MODEL>
8

>  <REMARK>
 VINA RESULT:      -6.4      4.048      8.649
  Name = 
  5 active torsions:
  status: ('A' for Active; 'I' for Inactive)
    1  A    between atoms: C_7  and  C_19
    2  A    between atoms: N_10  and  C_17
    3  A    between atoms: N_10  and  C_20
    4  A    between atoms: C_20  and  C_29
    5  A    between atoms: C_29  and  C_30
                            x       y       z     vdW  Elec       q    Type
                         _______ _______ _______ _____ _____    ______ ____

>  <TORSDO>
F 5

$$$$
=
 OpenBabel11122410523D

 32 36  0  0  1  0  0  0  0  0999 V2000
  183.9330  177.3670  138.0770 C   0  0  1  0  0  3  0  0  0  0  0  0
  188.8410  177.6000  137.8470 C   0  0  0  0  0  3  0  0  0  0  0  0
  188.8740  176.2830  137.3870 C   0  0  0  0  0  3  0  0  0  0  0  0
  182.6680  175.4770  136.8890 C   0  0  0  0  0  0  0  0  0  0  0  0
  182.6190  174.3830  135.8470 C   0  0  2  0  0  3  0  0  0  0  0  0
  182.8410  178.8230  139.4230 C   0  0  2  0  0  3  0  0  0  0  0  0
  185.1390  179.4400  138.7220 O   0  0  0  0  0  0  0  0  0  0  0  0
  183.8830  172.4770  136.0450 C   0  0  2  0  0  3  0  0  0  0  0  0
  187.6180  178.2520  138.0140 C   0  0  0  0  0  3  0  0  0  0  0  0
  185.1060  178.3190  137.8420 C   0  0  1  0  0  3  0  0  0  0  0  0
  186.4160  177.5870  137.7330 C   0  0  0  0  0  0  0  0  0  0  0  0
  185.1640  175.4920  136.9790 C   0  0  2  0  0  3  0  0  0  0  0  0
  182.4980  172.1890  136.3700 C   0  0  0  0  0  3  0  0  0  0  0  0
  184.2770  179.2790  139.8440 C   0  0  2  0  0  3  0  0  0  0  0  0
  181.7830  173.2630  136.2730 N   0  0  0  0  0  0  0  0  0  0  0  0
  187.6830  175.6180  137.0830 C   0  0  0  0  0  3  0  0  0  0  0  0
  186.4470  176.2680  137.2190 C   0  0  0  0  0  0  0  0  0  0  0  0
  185.2310  174.5690  135.7570 C   0  0  0  0  0  2  0  0  0  0  0  0
  182.7820  178.1540  138.1740 O   0  0  0  0  0  0  0  0  0  0  0  0
  181.7100  175.6760  137.6220 O   0  0  0  0  0  0  0  0  0  0  0  0
  185.0250  171.5440  136.2580 C   0  0  0  0  0  1  0  0  0  0  0  0
  183.8930  176.3720  136.9210 C   0  0  2  0  0  3  0  0  0  0  0  0
  183.9730  173.7580  135.7390 C   0  0  2  0  0  3  0  0  0  0  0  0
  186.0570  179.0010  141.3790 C   0  0  0  0  0  1  0  0  0  0  0  0
  184.8720  178.3610  140.8260 N   0  0  0  0  0  0  0  0  0  0  0  0
  183.9500  178.1990  141.9450 C   0  0  0  0  0  2  0  0  0  0  0  0
  184.4190  179.0220  143.1360 C   0  0  0  0  0  2  0  0  0  0  0  0
  183.4020  179.0040  144.2280 C   0  0  0  0  0  0  0  0  0  0  0  0
  182.1760  178.9600  143.9490 O   0  0  0  0  0  0  0  0  0  0  0  0
  183.8110  179.0020  145.5550 O   0  0  0  0  0  1  0  0  0  0  0  0
  181.5560  180.3840  137.9720 C   0  0  0  0  0  1  0  0  0  0  0  0
  181.9180  180.0280  139.4020 C   0  0  0  0  0  2  0  0  0  0  0  0
  1 19  1  6  0  0  0
  2  9  1  0  0  0  0
  3  2  2  0  0  0  0
  4 20  2  0  0  0  0
  5 15  1  1  0  0  0
  5  4  1  0  0  0  0
  6 32  1  6  0  0  0
  6 14  1  0  0  0  0
  7 14  1  0  0  0  0
  8 21  1  1  0  0  0
  8 13  1  0  0  0  0
 10 11  1  1  0  0  0
 10  1  1  0  0  0  0
 10  7  1  0  0  0  0
 11  9  2  0  0  0  0
 12 18  1  6  0  0  0
 12 17  1  0  0  0  0
 14 25  1  1  0  0  0
 15 13  2  0  0  0  0
 16 17  2  0  0  0  0
 16  3  1  0  0  0  0
 17 11  1  0  0  0  0
 19  6  1  0  0  0  0
 22  4  1  1  0  0  0
 22 12  1  0  0  0  0
 22  1  1  0  0  0  0
 23 18  1  1  0  0  0
 23  5  1  0  0  0  0
 23  8  1  0  0  0  0
 25 24  1  0  0  0  0
 25 26  1  0  0  0  0
 26 27  1  0  0  0  0
 27 28  1  0  0  0  0
 28 30  1  0  0  0  0
 29 28  2  0  0  0  0
 31 32  1  0  0  0  0
M  END
>  <MODEL>
9

>  <REMARK>
 VINA RESULT:      -6.3      3.446      8.030
  Name = 
  5 active torsions:
  status: ('A' for Active; 'I' for Inactive)
    1  A    between atoms: C_7  and  C_19
    2  A    between atoms: N_10  and  C_17
    3  A    between atoms: N_10  and  C_20
    4  A    between atoms: C_20  and  C_29
    5  A    between atoms: C_29  and  C_30
                            x       y       z     vdW  Elec       q    Type
                         _______ _______ _______ _____ _____    ______ ____

>  <TORSDO>
F 5

$$$$
