=
 OpenBabel11122410503D

 32 37  0  0  1  0  0  0  0  0999 V2000
  183.2450  178.2860  140.9470 C   0  0  1  0  0  3  0  0  0  0  0  0
  186.4470  178.2210  137.2350 C   0  0  0  0  0  3  0  0  0  0  0  0
  185.6200  177.3290  136.5530 C   0  0  0  0  0  3  0  0  0  0  0  0
  180.8850  177.3920  140.7040 C   0  0  2  0  0  3  0  0  0  0  0  0
  180.0790  176.3980  139.8490 C   0  0  2  0  0  3  0  0  0  0  0  0
  183.9690  178.8740  142.9960 C   0  0  2  0  0  3  0  0  0  0  0  0
  185.3070  179.6710  141.0360 O   0  0  0  0  0  0  0  0  0  0  0  0
  179.8610  175.2150  137.8000 N   0  0  0  0  0  0  0  0  0  0  0  0
  186.0180  178.7970  138.4330 C   0  0  0  0  0  3  0  0  0  0  0  0
  184.2680  179.1490  140.2130 C   0  0  1  0  0  3  0  0  0  0  0  0
  184.7600  178.4750  138.9620 C   0  0  0  0  0  0  0  0  0  0  0  0
  182.5610  177.1760  138.8250 C   0  0  2  0  0  3  0  0  0  0  0  0
  180.4910  174.2950  138.7390 C   0  0  0  0  0  2  0  0  0  0  0  0
  185.3580  179.0700  142.3240 C   0  0  2  0  0  3  0  0  0  0  0  0
  180.5210  174.9730  140.0990 C   0  0  0  0  0  2  0  0  0  0  0  0
  184.3570  177.0170  137.0610 C   0  0  0  0  0  3  0  0  0  0  0  0
  183.8990  177.6050  138.2490 C   0  0  0  0  0  0  0  0  0  0  0  0
  181.4490  177.1860  137.7870 C   0  0  0  0  0  2  0  0  0  0  0  0
  182.8760  178.9760  142.1040 O   0  0  0  0  0  0  0  0  0  0  0  0
  180.0340  178.3900  141.1800 O   0  0  0  0  0  1  0  0  0  0  0  0
  180.4110  174.9780  136.4680 C   0  0  0  0  0  1  0  0  0  0  0  0
  182.0820  178.0370  139.9980 C   0  0  2  0  0  3  0  0  0  0  0  0
  180.1310  176.5630  138.3230 C   0  0  2  0  0  3  0  0  0  0  0  0
  187.5160  177.9920  141.7210 C   0  0  0  0  0  2  0  0  0  0  0  0
  186.1260  177.7570  142.2760 C   0  0  1  0  0  3  0  0  0  0  0  0
  187.3130  177.8390  143.2140 C   0  0  1  0  0  3  0  0  0  0  0  0
  187.7020  176.4370  143.6380 C   0  0  0  0  0  2  0  0  0  0  0  0
  189.1800  176.3450  143.7880 C   0  0  0  0  0  0  0  0  0  0  0  0
  189.7530  176.9210  144.7490 O   0  0  0  0  0  1  0  0  0  0  0  0
  189.9240  175.5910  142.8900 O   0  0  0  0  0  0  0  0  0  0  0  0
  183.7000  179.2130  145.3400 O   0  0  0  0  0  1  0  0  0  0  0  0
  183.8080  179.8800  144.1200 C   0  0  0  0  0  2  0  0  0  0  0  0
  1 19  1  1  0  0  0
  2  9  1  0  0  0  0
  3 16  1  0  0  0  0
  3  2  2  0  0  0  0
  4 20  1  6  0  0  0
  5 15  1  6  0  0  0
  5  4  1  0  0  0  0
  6 32  1  1  0  0  0
  8 23  1  0  0  0  0
  8 13  1  0  0  0  0
  9 11  2  0  0  0  0
 10 11  1  6  0  0  0
 10  1  1  0  0  0  0
 10  7  1  0  0  0  0
 12 18  1  6  0  0  0
 12 22  1  0  0  0  0
 13 15  1  0  0  0  0
 14  7  1  6  0  0  0
 14  6  1  0  0  0  0
 16 17  2  0  0  0  0
 17 12  1  0  0  0  0
 17 11  1  0  0  0  0
 18 23  1  0  0  0  0
 19  6  1  0  0  0  0
 21  8  1  0  0  0  0
 22  4  1  0  0  0  0
 22  1  1  0  0  0  0
 23  5  1  0  0  0  0
 24 25  1  0  0  0  0
 24 26  1  0  0  0  0
 25 14  1  0  0  0  0
 25 26  1  0  0  0  0
 26 27  1  0  0  0  0
 27 28  1  0  0  0  0
 28 29  1  0  0  0  0
 30 28  2  0  0  0  0
 32 31  1  0  0  0  0
M  END
>  <MODEL>
1

>  <REMARK>
 VINA RESULT:      -7.1      0.000      0.000
  Name = 
  4 active torsions:
  status: ('A' for Active; 'I' for Inactive)
    1  A    between atoms: C_7  and  C_19
    2  A    between atoms: C_10  and  C_17
    3  A    between atoms: C_20  and  C_29
    4  A    between atoms: C_29  and  C_30
                            x       y       z     vdW  Elec       q    Type
                         _______ _______ _______ _____ _____    ______ ____

>  <TORSDO>
F 4

$$$$
=
 OpenBabel11122410503D

 32 37  0  0  1  0  0  0  0  0999 V2000
  188.9520  177.0890  138.9310 C   0  0  1  0  0  3  0  0  0  0  0  0
  184.5530  179.0410  139.8660 C   0  0  0  0  0  3  0  0  0  0  0  0
  184.8360  178.9930  141.2320 C   0  0  0  0  0  3  0  0  0  0  0  0
  190.7810  176.9890  140.6850 C   0  0  2  0  0  3  0  0  0  0  0  0
  190.9530  176.9830  142.2140 C   0  0  2  0  0  3  0  0  0  0  0  0
  189.2690  176.0080  136.9810 C   0  0  2  0  0  3  0  0  0  0  0  0
  187.4190  177.6930  137.0710 O   0  0  0  0  0  0  0  0  0  0  0  0
  190.0720  177.5540  144.3450 N   0  0  0  0  0  0  0  0  0  0  0  0
  185.5410  178.7120  138.9360 C   0  0  0  0  0  3  0  0  0  0  0  0
  187.9030  178.0410  138.3640 C   0  0  1  0  0  3  0  0  0  0  0  0
  186.8180  178.3250  139.3660 C   0  0  0  0  0  0  0  0  0  0  0  0
  188.4690  177.8370  141.2570 C   0  0  2  0  0  3  0  0  0  0  0  0
  189.7240  176.1570  144.1200 C   0  0  0  0  0  2  0  0  0  0  0  0
  187.7920  176.3810  136.6660 C   0  0  2  0  0  3  0  0  0  0  0  0
  190.3910  175.7180  142.8260 C   0  0  0  0  0  2  0  0  0  0  0  0
  186.1100  178.6280  141.6710 C   0  0  0  0  0  3  0  0  0  0  0  0
  187.1220  178.3200  140.7500 C   0  0  0  0  0  0  0  0  0  0  0  0
  189.0310  178.7240  142.3570 C   0  0  0  0  0  2  0  0  0  0  0  0
  189.8920  176.8610  137.9230 O   0  0  0  0  0  0  0  0  0  0  0  0
  191.9260  177.5200  140.0910 O   0  0  0  0  0  1  0  0  0  0  0  0
  188.9850  178.1970  145.0790 C   0  0  0  0  0  1  0  0  0  0  0  0
  189.5460  177.7390  140.1720 C   0  0  2  0  0  3  0  0  0  0  0  0
  190.3060  178.1260  143.0110 C   0  0  2  0  0  3  0  0  0  0  0  0
  185.7280  175.0570  136.2550 C   0  0  0  0  0  2  0  0  0  0  0  0
  186.8370  175.3470  137.2460 C   0  0  1  0  0  3  0  0  0  0  0  0
  186.8860  174.0930  136.3970 C   0  0  1  0  0  3  0  0  0  0  0  0
  186.4630  172.9100  137.2430 C   0  0  0  0  0  2  0  0  0  0  0  0
  185.2730  172.2530  136.6360 C   0  0  0  0  0  0  0  0  0  0  0  0
  185.3620  171.7110  135.5030 O   0  0  0  0  0  0  0  0  0  0  0  0
  184.0740  172.2030  137.3340 O   0  0  0  0  0  1  0  0  0  0  0  0
  189.2400  176.3140  134.6180 O   0  0  0  0  0  1  0  0  0  0  0  0
  190.0700  175.9960  135.6940 C   0  0  0  0  0  2  0  0  0  0  0  0
  1 19  1  6  0  0  0
  1 22  1  0  0  0  0
  2  3  1  0  0  0  0
  3 16  2  0  0  0  0
  4 20  1  6  0  0  0
  4  5  1  0  0  0  0
  5 15  1  1  0  0  0
  5 23  1  0  0  0  0
  6 32  1  6  0  0  0
  6 19  1  0  0  0  0
  8 21  1  0  0  0  0
  9 11  1  0  0  0  0
  9  2  2  0  0  0  0
 10  7  1  6  0  0  0
 10  1  1  0  0  0  0
 10 11  1  0  0  0  0
 11 17  2  0  0  0  0
 12 18  1  1  0  0  0
 13  8  1  0  0  0  0
 14  6  1  0  0  0  0
 14  7  1  1  0  0  0
 14 25  1  0  0  0  0
 15 13  1  0  0  0  0
 17 12  1  0  0  0  0
 17 16  1  0  0  0  0
 18 23  1  0  0  0  0
 22  4  1  0  0  0  0
 22 12  1  0  0  0  0
 23  8  1  0  0  0  0
 24 26  1  0  0  0  0
 24 25  1  0  0  0  0
 26 27  1  0  0  0  0
 26 25  1  0  0  0  0
 28 27  1  0  0  0  0
 28 30  1  0  0  0  0
 29 28  2  0  0  0  0
 31 32  1  0  0  0  0
M  END
>  <MODEL>
2

>  <REMARK>
 VINA RESULT:      -7.1      4.572      8.513
  Name = 
  4 active torsions:
  status: ('A' for Active; 'I' for Inactive)
    1  A    between atoms: C_7  and  C_19
    2  A    between atoms: C_10  and  C_17
    3  A    between atoms: C_20  and  C_29
    4  A    between atoms: C_29  and  C_30
                            x       y       z     vdW  Elec       q    Type
                         _______ _______ _______ _____ _____    ______ ____

>  <TORSDO>
F 4

$$$$
=
 OpenBabel11122410503D

 32 37  0  0  1  0  0  0  0  0999 V2000
  185.4790  178.3540  140.1230 C   0  0  1  0  0  3  0  0  0  0  0  0
  180.8010  179.0540  141.4120 C   0  0  0  0  0  3  0  0  0  0  0  0
  181.1420  178.8020  142.7410 C   0  0  0  0  0  3  0  0  0  0  0  0
  187.3540  178.3180  141.8290 C   0  0  2  0  0  3  0  0  0  0  0  0
  187.5860  178.0480  143.3260 C   0  0  2  0  0  3  0  0  0  0  0  0
  185.9450  177.7790  137.9960 C   0  0  2  0  0  3  0  0  0  0  0  0
  183.7770  178.9580  138.4160 O   0  0  0  0  0  0  0  0  0  0  0  0
  186.6870  177.9760  145.5250 N   0  0  0  0  0  0  0  0  0  0  0  0
  181.7990  179.1450  140.4390 C   0  0  0  0  0  3  0  0  0  0  0  0
  184.2250  179.1420  139.7550 C   0  0  1  0  0  3  0  0  0  0  0  0
  183.1450  178.9740  140.7880 C   0  0  0  0  0  0  0  0  0  0  0  0
  184.9390  178.5000  142.5500 C   0  0  2  0  0  3  0  0  0  0  0  0
  186.6450  176.6090  145.0200 C   0  0  0  0  0  2  0  0  0  0  0  0
  184.4110  177.8690  137.7560 C   0  0  2  0  0  3  0  0  0  0  0  0
  187.3390  176.5950  143.6670 C   0  0  0  0  0  2  0  0  0  0  0  0
  182.4820  178.6500  143.1030 C   0  0  0  0  0  3  0  0  0  0  0  0
  183.4990  178.7630  142.1440 C   0  0  0  0  0  0  0  0  0  0  0  0
  185.3360  179.2550  143.8090 C   0  0  0  0  0  2  0  0  0  0  0  0
  186.4050  178.5450  139.0940 O   0  0  0  0  0  0  0  0  0  0  0  0
  188.3310  179.1970  141.3600 O   0  0  0  0  0  1  0  0  0  0  0  0
  185.5170  178.2020  146.3680 C   0  0  0  0  0  1  0  0  0  0  0  0
  185.9660  178.8610  141.4720 C   0  0  2  0  0  3  0  0  0  0  0  0
  186.7370  178.8370  144.3340 C   0  0  2  0  0  3  0  0  0  0  0  0
  182.8360  176.1130  136.9690 C   0  0  0  0  0  2  0  0  0  0  0  0
  183.7300  176.5540  138.1100 C   0  0  1  0  0  3  0  0  0  0  0  0
  184.1980  175.4770  137.1530 C   0  0  1  0  0  3  0  0  0  0  0  0
  184.0420  174.1260  137.8200 C   0  0  0  0  0  2  0  0  0  0  0  0
  185.0570  173.1770  137.2860 C   0  0  0  0  0  0  0  0  0  0  0  0
  186.0400  172.8400  137.9960 O   0  0  0  0  0  1  0  0  0  0  0  0
  184.9010  172.6330  136.0170 O   0  0  0  0  0  0  0  0  0  0  0  0
  187.6010  179.2010  137.0380 O   0  0  0  0  0  1  0  0  0  0  0  0
  186.6770  178.2000  136.7370 C   0  0  0  0  0  2  0  0  0  0  0  0
  1 19  1  6  0  0  0
  1 22  1  0  0  0  0
  2  3  1  0  0  0  0
  3 16  2  0  0  0  0
  4 20  1  1  0  0  0
  4  5  1  0  0  0  0
  5 15  1  6  0  0  0
  5 23  1  0  0  0  0
  6 32  1  6  0  0  0
  6 19  1  0  0  0  0
  8 21  1  0  0  0  0
  9 11  1  0  0  0  0
  9  2  2  0  0  0  0
 10  7  1  6  0  0  0
 10  1  1  0  0  0  0
 10 11  1  0  0  0  0
 11 17  2  0  0  0  0
 12 18  1  1  0  0  0
 13  8  1  0  0  0  0
 14  6  1  0  0  0  0
 14 25  1  0  0  0  0
 14  7  1  1  0  0  0
 15 13  1  0  0  0  0
 17 12  1  0  0  0  0
 17 16  1  0  0  0  0
 18 23  1  0  0  0  0
 22  4  1  0  0  0  0
 22 12  1  0  0  0  0
 23  8  1  0  0  0  0
 24 26  1  0  0  0  0
 24 25  1  0  0  0  0
 26 27  1  0  0  0  0
 26 25  1  0  0  0  0
 28 27  1  0  0  0  0
 28 29  1  0  0  0  0
 30 28  2  0  0  0  0
 32 31  1  0  0  0  0
M  END
>  <MODEL>
3

>  <REMARK>
 VINA RESULT:      -6.9      3.320      7.070
  Name = 
  4 active torsions:
  status: ('A' for Active; 'I' for Inactive)
    1  A    between atoms: C_7  and  C_19
    2  A    between atoms: C_10  and  C_17
    3  A    between atoms: C_20  and  C_29
    4  A    between atoms: C_29  and  C_30
                            x       y       z     vdW  Elec       q    Type
                         _______ _______ _______ _____ _____    ______ ____

>  <TORSDO>
F 4

$$$$
=
 OpenBabel11122410503D

 32 37  0  0  1  0  0  0  0  0999 V2000
  184.2090  177.3220  137.9300 C   0  0  1  0  0  3  0  0  0  0  0  0
  189.0800  177.6310  138.3890 C   0  0  0  0  0  3  0  0  0  0  0  0
  189.1980  176.3350  137.8880 C   0  0  0  0  0  3  0  0  0  0  0  0
  183.1000  175.5050  136.5520 C   0  0  2  0  0  3  0  0  0  0  0  0
  183.3750  174.0840  136.0280 C   0  0  2  0  0  3  0  0  0  0  0  0
  182.9110  178.6610  139.1920 C   0  0  2  0  0  3  0  0  0  0  0  0
  185.2660  179.4050  138.7790 O   0  0  0  0  0  0  0  0  0  0  0  0
  184.9710  172.4340  135.4170 N   0  0  0  0  0  0  0  0  0  0  0  0
  187.8360  178.2650  138.4040 C   0  0  0  0  0  3  0  0  0  0  0  0
  185.3710  178.3090  137.8750 C   0  0  1  0  0  3  0  0  0  0  0  0
  186.6980  177.6020  137.9260 C   0  0  0  0  0  0  0  0  0  0  0  0
  185.6010  175.5240  136.9130 C   0  0  2  0  0  3  0  0  0  0  0  0
  184.5720  172.1300  136.7860 C   0  0  0  0  0  2  0  0  0  0  0  0
  184.2450  179.2320  139.7540 C   0  0  2  0  0  3  0  0  0  0  0  0
  183.4500  173.0850  137.1620 C   0  0  0  0  0  2  0  0  0  0  0  0
  188.0740  175.6720  137.3900 C   0  0  0  0  0  3  0  0  0  0  0  0
  186.8220  176.3030  137.3740 C   0  0  0  0  0  0  0  0  0  0  0  0
  185.8310  174.8080  135.5920 C   0  0  0  0  0  2  0  0  0  0  0  0
  183.0290  178.0700  137.9120 O   0  0  0  0  0  0  0  0  0  0  0  0
  182.2040  176.1490  135.6990 O   0  0  0  0  0  1  0  0  0  0  0  0
  186.3860  172.1120  135.2580 C   0  0  0  0  0  1  0  0  0  0  0  0
  184.3430  176.3810  136.7420 C   0  0  2  0  0  3  0  0  0  0  0  0
  184.6600  173.8580  135.2190 C   0  0  2  0  0  3  0  0  0  0  0  0
  186.0120  178.9970  141.4870 C   0  0  0  0  0  2  0  0  0  0  0  0
  184.7480  178.3880  140.9170 C   0  0  1  0  0  3  0  0  0  0  0  0
  184.6880  179.2070  142.1900 C   0  0  1  0  0  3  0  0  0  0  0  0
  184.5860  178.2680  143.3740 C   0  0  0  0  0  2  0  0  0  0  0  0
  183.5260  178.7400  144.3060 C   0  0  0  0  0  0  0  0  0  0  0  0
  182.3370  178.8500  143.9050 O   0  0  0  0  0  0  0  0  0  0  0  0
  183.8390  179.0250  145.6290 O   0  0  0  0  0  1  0  0  0  0  0  0
  182.4200  180.9140  138.5910 O   0  0  0  0  0  1  0  0  0  0  0  0
  181.8700  179.7620  139.1540 C   0  0  0  0  0  2  0  0  0  0  0  0
  1 19  1  6  0  0  0
  2  9  1  0  0  0  0
  3  2  2  0  0  0  0
  4 20  1  6  0  0  0
  4 22  1  0  0  0  0
  5  4  1  0  0  0  0
  5 15  1  1  0  0  0
  6 32  1  6  0  0  0
  6 14  1  0  0  0  0
  8 13  1  0  0  0  0
 10 11  1  1  0  0  0
 10  1  1  0  0  0  0
 10  7  1  0  0  0  0
 11  9  2  0  0  0  0
 12 18  1  6  0  0  0
 12 17  1  0  0  0  0
 13 15  1  0  0  0  0
 14  7  1  6  0  0  0
 14 25  1  0  0  0  0
 16  3  1  0  0  0  0
 17 16  2  0  0  0  0
 17 11  1  0  0  0  0
 19  6  1  0  0  0  0
 21  8  1  0  0  0  0
 22 12  1  0  0  0  0
 22  1  1  0  0  0  0
 23  8  1  0  0  0  0
 23 18  1  0  0  0  0
 23  5  1  0  0  0  0
 24 26  1  0  0  0  0
 25 24  1  0  0  0  0
 25 26  1  0  0  0  0
 26 27  1  0  0  0  0
 27 28  1  0  0  0  0
 28 30  1  0  0  0  0
 29 28  2  0  0  0  0
 31 32  1  0  0  0  0
M  END
>  <MODEL>
4

>  <REMARK>
 VINA RESULT:      -6.7      3.053      4.732
  Name = 
  4 active torsions:
  status: ('A' for Active; 'I' for Inactive)
    1  A    between atoms: C_7  and  C_19
    2  A    between atoms: C_10  and  C_17
    3  A    between atoms: C_20  and  C_29
    4  A    between atoms: C_29  and  C_30
                            x       y       z     vdW  Elec       q    Type
                         _______ _______ _______ _____ _____    ______ ____

>  <TORSDO>
F 4

$$$$
=
 OpenBabel11122410503D

 32 37  0  0  1  0  0  0  0  0999 V2000
  189.7180  177.0070  138.6490 C   0  0  1  0  0  3  0  0  0  0  0  0
  185.1020  178.6310  138.3490 C   0  0  0  0  0  3  0  0  0  0  0  0
  185.0270  178.6370  139.7420 C   0  0  0  0  0  3  0  0  0  0  0  0
  191.0370  177.0900  140.8130 C   0  0  2  0  0  3  0  0  0  0  0  0
  190.8100  177.1310  142.3350 C   0  0  2  0  0  3  0  0  0  0  0  0
  190.6010  175.9120  136.8900 C   0  0  2  0  0  3  0  0  0  0  0  0
  188.6780  177.4490  136.4350 O   0  0  0  0  0  0  0  0  0  0  0  0
  189.3720  177.6800  144.1450 N   0  0  0  0  0  0  0  0  0  0  0  0
  186.3170  178.3600  137.7150 C   0  0  0  0  0  3  0  0  0  0  0  0
  188.7870  177.8620  137.7930 C   0  0  1  0  0  3  0  0  0  0  0  0
  187.4640  178.0830  138.4730 C   0  0  0  0  0  0  0  0  0  0  0  0
  188.6030  177.7680  140.7410 C   0  0  2  0  0  3  0  0  0  0  0  0
  189.1920  176.2550  143.8970 C   0  0  0  0  0  2  0  0  0  0  0  0
  189.2320  176.1610  136.1940 C   0  0  2  0  0  3  0  0  0  0  0  0
  190.1980  175.8410  142.8350 C   0  0  0  0  0  2  0  0  0  0  0  0
  186.1680  178.3820  140.5060 C   0  0  0  0  0  3  0  0  0  0  0  0
  187.4010  178.1330  139.8870 C   0  0  0  0  0  0  0  0  0  0  0  0
  188.7990  178.7200  141.9100 C   0  0  0  0  0  2  0  0  0  0  0  0
  190.9000  176.8310  137.9230 O   0  0  0  0  0  0  0  0  0  0  0  0
  192.2560  177.6950  140.5090 O   0  0  0  0  0  1  0  0  0  0  0  0
  188.0910  178.2520  144.5500 C   0  0  0  0  0  1  0  0  0  0  0  0
  189.9260  177.7290  139.9710 C   0  0  2  0  0  3  0  0  0  0  0  0
  189.9020  178.2370  142.8910 C   0  0  2  0  0  3  0  0  0  0  0  0
  187.5990  174.5170  135.2940 C   0  0  0  0  0  2  0  0  0  0  0  0
  188.2350  175.0690  136.5530 C   0  0  1  0  0  3  0  0  0  0  0  0
  188.7120  173.7510  135.9780 C   0  0  1  0  0  3  0  0  0  0  0  0
  188.1220  172.6180  136.7930 C   0  0  0  0  0  2  0  0  0  0  0  0
  187.3010  171.7380  135.9170 C   0  0  0  0  0  0  0  0  0  0  0  0
  186.0500  171.7020  136.0540 O   0  0  0  0  0  1  0  0  0  0  0  0
  187.9100  170.9840  134.9220 O   0  0  0  0  0  0  0  0  0  0  0  0
  192.9440  176.0640  136.4790 O   0  0  0  0  0  1  0  0  0  0  0  0
  191.7050  175.9330  135.8510 C   0  0  0  0  0  2  0  0  0  0  0  0
  1 19  1  6  0  0  0
  1 22  1  0  0  0  0
  2  3  1  0  0  0  0
  3 16  2  0  0  0  0
  4 20  1  1  0  0  0
  4  5  1  0  0  0  0
  5 15  1  6  0  0  0
  5 23  1  0  0  0  0
  6 32  1  6  0  0  0
  6 19  1  0  0  0  0
  8 21  1  0  0  0  0
  9  2  2  0  0  0  0
  9 11  1  0  0  0  0
 10  7  1  6  0  0  0
 10 11  1  0  0  0  0
 10  1  1  0  0  0  0
 11 17  2  0  0  0  0
 12 18  1  1  0  0  0
 13  8  1  0  0  0  0
 14  7  1  1  0  0  0
 14 25  1  0  0  0  0
 14  6  1  0  0  0  0
 15 13  1  0  0  0  0
 17 16  1  0  0  0  0
 17 12  1  0  0  0  0
 18 23  1  0  0  0  0
 22 12  1  0  0  0  0
 22  4  1  0  0  0  0
 23  8  1  0  0  0  0
 24 26  1  0  0  0  0
 24 25  1  0  0  0  0
 26 25  1  0  0  0  0
 26 27  1  0  0  0  0
 28 29  1  0  0  0  0
 28 27  1  0  0  0  0
 30 28  2  0  0  0  0
 32 31  1  0  0  0  0
M  END
>  <MODEL>
5

>  <REMARK>
 VINA RESULT:      -6.7      4.903      8.661
  Name = 
  4 active torsions:
  status: ('A' for Active; 'I' for Inactive)
    1  A    between atoms: C_7  and  C_19
    2  A    between atoms: C_10  and  C_17
    3  A    between atoms: C_20  and  C_29
    4  A    between atoms: C_29  and  C_30
                            x       y       z     vdW  Elec       q    Type
                         _______ _______ _______ _____ _____    ______ ____

>  <TORSDO>
F 4

$$$$
=
 OpenBabel11122410503D

 32 37  0  0  1  0  0  0  0  0999 V2000
  186.6400  178.2530  140.1290 C   0  0  1  0  0  3  0  0  0  0  0  0
  183.2600  178.9400  143.6140 C   0  0  0  0  0  3  0  0  0  0  0  0
  184.1700  178.4850  144.5690 C   0  0  0  0  0  3  0  0  0  0  0  0
  189.0890  177.8970  140.6810 C   0  0  2  0  0  3  0  0  0  0  0  0
  189.9820  177.4040  141.8330 C   0  0  2  0  0  3  0  0  0  0  0  0
  185.9640  177.9740  138.0000 C   0  0  2  0  0  3  0  0  0  0  0  0
  184.4010  179.1640  139.5520 O   0  0  0  0  0  0  0  0  0  0  0  0
  190.2490  177.0490  144.1670 N   0  0  0  0  0  0  0  0  0  0  0  0
  183.6710  179.1320  142.2930 C   0  0  0  0  0  3  0  0  0  0  0  0
  185.4540  179.1340  140.5110 C   0  0  1  0  0  3  0  0  0  0  0  0
  184.9930  178.8600  141.9160 C   0  0  0  0  0  0  0  0  0  0  0  0
  187.3520  178.0670  142.5090 C   0  0  2  0  0  3  0  0  0  0  0  0
  189.8270  175.7720  143.6050 C   0  0  0  0  0  2  0  0  0  0  0  0
  184.5210  178.1580  138.5540 C   0  0  2  0  0  3  0  0  0  0  0  0
  189.7780  175.9270  142.0930 C   0  0  0  0  0  2  0  0  0  0  0  0
  185.4950  178.2300  144.2080 C   0  0  0  0  0  3  0  0  0  0  0  0
  185.9300  178.4410  142.8920 C   0  0  0  0  0  0  0  0  0  0  0  0
  188.3820  178.6150  143.4830 C   0  0  0  0  0  2  0  0  0  0  0  0
  186.9710  178.5540  138.8060 O   0  0  0  0  0  0  0  0  0  0  0  0
  189.8060  178.7960  139.8910 O   0  0  0  0  0  1  0  0  0  0  0  0
  189.6600  177.1960  145.4950 C   0  0  0  0  0  1  0  0  0  0  0  0
  187.7650  178.5390  141.1120 C   0  0  2  0  0  3  0  0  0  0  0  0
  189.8100  178.0710  143.2060 C   0  0  2  0  0  3  0  0  0  0  0  0
  182.4610  176.7960  138.8420 C   0  0  0  0  0  2  0  0  0  0  0  0
  183.9610  176.8340  139.0530 C   0  0  1  0  0  3  0  0  0  0  0  0
  183.3790  176.0670  137.8830 C   0  0  1  0  0  3  0  0  0  0  0  0
  183.3870  174.5880  138.2130 C   0  0  0  0  0  2  0  0  0  0  0  0
  184.5730  173.9370  137.5930 C   0  0  0  0  0  0  0  0  0  0  0  0
  184.9300  172.7890  137.9680 O   0  0  0  0  0  1  0  0  0  0  0  0
  185.2650  174.5780  136.5740 O   0  0  0  0  0  0  0  0  0  0  0  0
  187.1810  179.3360  136.4690 O   0  0  0  0  0  1  0  0  0  0  0  0
  186.0390  178.5450  136.5970 C   0  0  0  0  0  2  0  0  0  0  0  0
  1 19  1  6  0  0  0
  1 10  1  0  0  0  0
  1 22  1  0  0  0  0
  2  3  1  0  0  0  0
  4 20  1  1  0  0  0
  4 22  1  0  0  0  0
  4  5  1  0  0  0  0
  5 15  1  1  0  0  0
  5 23  1  0  0  0  0
  6 32  1  6  0  0  0
  6 14  1  0  0  0  0
  6 19  1  0  0  0  0
  8 21  1  0  0  0  0
  9  2  2  0  0  0  0
 10  7  1  6  0  0  0
 10 11  1  0  0  0  0
 11  9  1  0  0  0  0
 11 17  2  0  0  0  0
 12 17  1  0  0  0  0
 12 18  1  1  0  0  0
 13  8  1  0  0  0  0
 14 25  1  0  0  0  0
 14  7  1  1  0  0  0
 15 13  1  0  0  0  0
 16  3  2  0  0  0  0
 17 16  1  0  0  0  0
 22 12  1  0  0  0  0
 23 18  1  0  0  0  0
 23  8  1  0  0  0  0
 24 25  1  0  0  0  0
 26 27  1  0  0  0  0
 26 24  1  0  0  0  0
 26 25  1  0  0  0  0
 28 29  1  0  0  0  0
 28 27  1  0  0  0  0
 30 28  2  0  0  0  0
 31 32  1  0  0  0  0
M  END
>  <MODEL>
6

>  <REMARK>
 VINA RESULT:      -6.3      3.410      7.718
  Name = 
  4 active torsions:
  status: ('A' for Active; 'I' for Inactive)
    1  A    between atoms: C_7  and  C_19
    2  A    between atoms: C_10  and  C_17
    3  A    between atoms: C_20  and  C_29
    4  A    between atoms: C_29  and  C_30
                            x       y       z     vdW  Elec       q    Type
                         _______ _______ _______ _____ _____    ______ ____

>  <TORSDO>
F 4

$$$$
=
 OpenBabel11122410503D

 32 37  0  0  1  0  0  0  0  0999 V2000
  187.8650  176.5410  137.7960 C   0  0  1  0  0  3  0  0  0  0  0  0
  192.7380  176.3850  138.3100 C   0  0  0  0  0  3  0  0  0  0  0  0
  192.7510  175.1320  137.6950 C   0  0  0  0  0  3  0  0  0  0  0  0
  186.6230  174.9560  136.2550 C   0  0  2  0  0  3  0  0  0  0  0  0
  186.7820  173.5680  135.6080 C   0  0  2  0  0  3  0  0  0  0  0  0
  186.6700  177.8710  139.1640 C   0  0  2  0  0  3  0  0  0  0  0  0
  189.0860  178.4410  138.8330 O   0  0  0  0  0  0  0  0  0  0  0  0
  188.2390  171.8460  134.8620 N   0  0  0  0  0  0  0  0  0  0  0  0
  191.5530  177.1200  138.3740 C   0  0  0  0  0  3  0  0  0  0  0  0
  189.1090  177.4240  137.8360 C   0  0  1  0  0  3  0  0  0  0  0  0
  190.3690  176.6030  137.8310 C   0  0  0  0  0  0  0  0  0  0  0  0
  189.1110  174.7260  136.6310 C   0  0  2  0  0  3  0  0  0  0  0  0
  187.7960  171.4590  136.1960 C   0  0  0  0  0  2  0  0  0  0  0  0
  188.0410  178.2730  139.7830 C   0  0  2  0  0  3  0  0  0  0  0  0
  186.7550  172.4700  136.6490 C   0  0  0  0  0  2  0  0  0  0  0  0
  191.5810  174.6160  137.1340 C   0  0  0  0  0  3  0  0  0  0  0  0
  190.3880  175.3520  137.1660 C   0  0  0  0  0  0  0  0  0  0  0  0
  189.2970  174.1120  135.2520 C   0  0  0  0  0  2  0  0  0  0  0  0
  186.7550  177.3880  137.8370 O   0  0  0  0  0  0  0  0  0  0  0  0
  185.7980  175.7480  135.4570 O   0  0  0  0  0  1  0  0  0  0  0  0
  189.6230  171.4170  134.6830 C   0  0  0  0  0  1  0  0  0  0  0  0
  187.9340  175.7000  136.5290 C   0  0  2  0  0  3  0  0  0  0  0  0
  188.0540  173.3030  134.7900 C   0  0  2  0  0  3  0  0  0  0  0  0
  189.4560  177.9390  141.7990 C   0  0  0  0  0  2  0  0  0  0  0  0
  188.4530  177.2890  140.8680 C   0  0  1  0  0  3  0  0  0  0  0  0
  188.0060  177.8180  142.2160 C   0  0  1  0  0  3  0  0  0  0  0  0
  187.8480  176.6540  143.1730 C   0  0  0  0  0  2  0  0  0  0  0  0
  188.0080  177.1260  144.5750 C   0  0  0  0  0  0  0  0  0  0  0  0
  187.0470  177.6840  145.1660 O   0  0  0  0  0  0  0  0  0  0  0  0
  189.2050  176.9170  145.2470 O   0  0  0  0  0  1  0  0  0  0  0  0
  185.4640  179.3930  140.5460 O   0  0  0  0  0  1  0  0  0  0  0  0
  185.7280  179.0580  139.2180 C   0  0  0  0  0  2  0  0  0  0  0  0
  1 10  1  0  0  0  0
  1 19  1  6  0  0  0
  2  9  1  0  0  0  0
  3  2  2  0  0  0  0
  4 20  1  6  0  0  0
  4 22  1  0  0  0  0
  5  4  1  0  0  0  0
  5 15  1  1  0  0  0
  6 32  1  6  0  0  0
  6 14  1  0  0  0  0
  8 13  1  0  0  0  0
 10 11  1  1  0  0  0
 10  7  1  0  0  0  0
 11  9  2  0  0  0  0
 12 18  1  6  0  0  0
 12 17  1  0  0  0  0
 13 15  1  0  0  0  0
 14  7  1  6  0  0  0
 14 25  1  0  0  0  0
 16 17  2  0  0  0  0
 16  3  1  0  0  0  0
 17 11  1  0  0  0  0
 19  6  1  0  0  0  0
 21  8  1  0  0  0  0
 22 12  1  0  0  0  0
 22  1  1  0  0  0  0
 23  8  1  0  0  0  0
 23 18  1  0  0  0  0
 23  5  1  0  0  0  0
 24 26  1  0  0  0  0
 25 24  1  0  0  0  0
 25 26  1  0  0  0  0
 26 27  1  0  0  0  0
 27 28  1  0  0  0  0
 28 29  2  0  0  0  0
 28 30  1  0  0  0  0
 32 31  1  0  0  0  0
M  END
>  <MODEL>
7

>  <REMARK>
 VINA RESULT:      -6.2      4.446      6.400
  Name = 
  4 active torsions:
  status: ('A' for Active; 'I' for Inactive)
    1  A    between atoms: C_7  and  C_19
    2  A    between atoms: C_10  and  C_17
    3  A    between atoms: C_20  and  C_29
    4  A    between atoms: C_29  and  C_30
                            x       y       z     vdW  Elec       q    Type
                         _______ _______ _______ _____ _____    ______ ____

>  <TORSDO>
F 4

$$$$
=
 OpenBabel11122410503D

 32 37  0  0  1  0  0  0  0  0999 V2000
  184.1170  178.2160  140.6600 C   0  0  1  0  0  3  0  0  0  0  0  0
  179.7030  178.7960  142.7150 C   0  0  0  0  0  3  0  0  0  0  0  0
  180.2890  178.6800  143.9760 C   0  0  0  0  0  3  0  0  0  0  0  0
  186.2610  178.4260  141.9960 C   0  0  2  0  0  3  0  0  0  0  0  0
  186.7700  178.3020  143.4430 C   0  0  2  0  0  3  0  0  0  0  0  0
  184.2380  177.4770  138.5360 C   0  0  2  0  0  3  0  0  0  0  0  0
  182.1050  178.5800  139.2460 O   0  0  0  0  0  0  0  0  0  0  0  0
  186.2790  178.3820  145.7670 N   0  0  0  0  0  0  0  0  0  0  0  0
  180.5060  178.8480  141.5730 C   0  0  0  0  0  3  0  0  0  0  0  0
  182.7690  178.9050  140.4640 C   0  0  1  0  0  3  0  0  0  0  0  0
  181.9020  178.7760  141.6860 C   0  0  0  0  0  0  0  0  0  0  0  0
  184.0040  178.5520  143.1250 C   0  0  2  0  0  3  0  0  0  0  0  0
  186.2380  176.9750  145.3880 C   0  0  0  0  0  2  0  0  0  0  0  0
  182.6820  177.4690  138.5710 C   0  0  2  0  0  3  0  0  0  0  0  0
  186.6810  176.8750  143.9370 C   0  0  0  0  0  2  0  0  0  0  0  0
  181.6790  178.6280  144.1010 C   0  0  0  0  0  3  0  0  0  0  0  0
  182.5010  178.7050  142.9670 C   0  0  0  0  0  0  0  0  0  0  0  0
  184.5670  179.4340  144.2280 C   0  0  0  0  0  2  0  0  0  0  0  0
  184.8320  178.3600  139.4680 O   0  0  0  0  0  0  0  0  0  0  0  0
  187.0810  179.3070  141.2900 O   0  0  0  0  0  1  0  0  0  0  0  0
  185.2640  178.6250  146.7870 C   0  0  0  0  0  1  0  0  0  0  0  0
  184.7990  178.8650  141.8550 C   0  0  2  0  0  3  0  0  0  0  0  0
  186.0630  179.1350  144.5220 C   0  0  2  0  0  3  0  0  0  0  0  0
  180.6470  176.1810  139.1870 C   0  0  0  0  0  2  0  0  0  0  0  0
  182.1610  176.1590  139.1450 C   0  0  1  0  0  3  0  0  0  0  0  0
  181.3620  175.4320  138.0830 C   0  0  1  0  0  3  0  0  0  0  0  0
  181.3660  173.9490  138.3940 C   0  0  0  0  0  2  0  0  0  0  0  0
  180.5140  173.2240  137.4140 C   0  0  0  0  0  0  0  0  0  0  0  0
  180.0530  173.8280  136.4100 O   0  0  0  0  0  0  0  0  0  0  0  0
  180.2560  171.8690  137.5840 O   0  0  0  0  0  1  0  0  0  0  0  0
  183.7150  177.4930  136.2110 O   0  0  0  0  0  1  0  0  0  0  0  0
  184.7070  177.8200  137.1360 C   0  0  0  0  0  2  0  0  0  0  0  0
  1 19  1  6  0  0  0
  1 22  1  0  0  0  0
  2  3  1  0  0  0  0
  3 16  2  0  0  0  0
  4 20  1  6  0  0  0
  4  5  1  0  0  0  0
  5 15  1  1  0  0  0
  5 23  1  0  0  0  0
  6 32  1  6  0  0  0
  6 14  1  0  0  0  0
  6 19  1  0  0  0  0
  8 21  1  0  0  0  0
  9 11  1  0  0  0  0
  9  2  2  0  0  0  0
 10  7  1  6  0  0  0
 10  1  1  0  0  0  0
 10 11  1  0  0  0  0
 11 17  2  0  0  0  0
 12 18  1  1  0  0  0
 13  8  1  0  0  0  0
 14 25  1  0  0  0  0
 14  7  1  1  0  0  0
 15 13  1  0  0  0  0
 17 12  1  0  0  0  0
 17 16  1  0  0  0  0
 18 23  1  0  0  0  0
 22  4  1  0  0  0  0
 22 12  1  0  0  0  0
 23  8  1  0  0  0  0
 25 24  1  0  0  0  0
 26 27  1  0  0  0  0
 26 25  1  0  0  0  0
 26 24  1  0  0  0  0
 28 30  1  0  0  0  0
 28 27  1  0  0  0  0
 29 28  2  0  0  0  0
 31 32  1  0  0  0  0
M  END
>  <MODEL>
8

>  <REMARK>
 VINA RESULT:      -6.0      3.214      7.685
  Name = 
  4 active torsions:
  status: ('A' for Active; 'I' for Inactive)
    1  A    between atoms: C_7  and  C_19
    2  A    between atoms: C_10  and  C_17
    3  A    between atoms: C_20  and  C_29
    4  A    between atoms: C_29  and  C_30
                            x       y       z     vdW  Elec       q    Type
                         _______ _______ _______ _____ _____    ______ ____

>  <TORSDO>
F 4

$$$$
=
 OpenBabel11122410503D

 32 37  0  0  1  0  0  0  0  0999 V2000
  188.0760  176.9480  138.7080 C   0  0  1  0  0  3  0  0  0  0  0  0
  192.8700  176.2980  137.9150 C   0  0  0  0  0  3  0  0  0  0  0  0
  192.5790  175.1630  137.1570 C   0  0  0  0  0  3  0  0  0  0  0  0
  186.3100  175.7410  137.3470 C   0  0  2  0  0  3  0  0  0  0  0  0
  186.1350  174.4660  136.5020 C   0  0  2  0  0  3  0  0  0  0  0  0
  187.4240  178.1390  140.5050 C   0  0  2  0  0  3  0  0  0  0  0  0
  189.7360  178.5480  139.6370 O   0  0  0  0  0  0  0  0  0  0  0  0
  187.1430  172.7680  135.1810 N   0  0  0  0  0  0  0  0  0  0  0  0
  191.8360  177.1120  138.3820 C   0  0  0  0  0  3  0  0  0  0  0  0
  189.3910  177.7050  138.5420 C   0  0  1  0  0  3  0  0  0  0  0  0
  190.5000  176.7910  138.1010 C   0  0  0  0  0  0  0  0  0  0  0  0
  188.7680  175.2440  137.0300 C   0  0  2  0  0  3  0  0  0  0  0  0
  186.9950  172.2110  136.5210 C   0  0  0  0  0  2  0  0  0  0  0  0
  188.9420  178.3190  140.7940 C   0  0  2  0  0  3  0  0  0  0  0  0
  186.2290  173.2220  137.3580 C   0  0  0  0  0  2  0  0  0  0  0  0
  191.2520  174.8450  136.8550 C   0  0  0  0  0  3  0  0  0  0  0  0
  190.2030  175.6650  137.2940 C   0  0  0  0  0  0  0  0  0  0  0  0
  188.5350  174.8440  135.5810 C   0  0  0  0  0  2  0  0  0  0  0  0
  187.1220  177.8690  139.1490 O   0  0  0  0  0  0  0  0  0  0  0  0
  185.4190  176.7180  136.9020 O   0  0  0  0  0  1  0  0  0  0  0  0
  188.3780  172.2570  134.5940 C   0  0  0  0  0  1  0  0  0  0  0  0
  187.7300  176.3180  137.3680 C   0  0  2  0  0  3  0  0  0  0  0  0
  187.1270  174.2280  135.3540 C   0  0  2  0  0  3  0  0  0  0  0  0
  190.9680  177.3210  141.8340 C   0  0  0  0  0  2  0  0  0  0  0  0
  189.4830  177.1430  141.5950 C   0  0  1  0  0  3  0  0  0  0  0  0
  189.9810  177.6400  142.9360 C   0  0  1  0  0  3  0  0  0  0  0  0
  189.9420  176.4970  143.9300 C   0  0  0  0  0  2  0  0  0  0  0  0
  191.2670  176.3570  144.5930 C   0  0  0  0  0  0  0  0  0  0  0  0
  191.6590  177.2320  145.4090 O   0  0  0  0  0  1  0  0  0  0  0  0
  192.0550  175.2410  144.3420 O   0  0  0  0  0  0  0  0  0  0  0  0
  185.3900  179.3780  140.4180 O   0  0  0  0  0  1  0  0  0  0  0  0
  186.6760  179.3780  140.9580 C   0  0  0  0  0  2  0  0  0  0  0  0
  1 19  1  6  0  0  0
  2  9  1  0  0  0  0
  3  2  2  0  0  0  0
  4 20  1  6  0  0  0
  4 22  1  0  0  0  0
  5  4  1  0  0  0  0
  5 15  1  1  0  0  0
  6 14  1  0  0  0  0
  6 32  1  6  0  0  0
  8 23  1  0  0  0  0
  8 13  1  0  0  0  0
 10 11  1  1  0  0  0
 10  1  1  0  0  0  0
 10  7  1  0  0  0  0
 11  9  2  0  0  0  0
 12 18  1  6  0  0  0
 12 17  1  0  0  0  0
 12 22  1  0  0  0  0
 13 15  1  0  0  0  0
 14  7  1  6  0  0  0
 14 25  1  0  0  0  0
 16  3  1  0  0  0  0
 16 17  2  0  0  0  0
 17 11  1  0  0  0  0
 19  6  1  0  0  0  0
 21  8  1  0  0  0  0
 22  1  1  0  0  0  0
 23 18  1  0  0  0  0
 23  5  1  0  0  0  0
 24 26  1  0  0  0  0
 25 24  1  0  0  0  0
 25 26  1  0  0  0  0
 26 27  1  0  0  0  0
 27 28  1  0  0  0  0
 28 29  1  0  0  0  0
 30 28  2  0  0  0  0
 31 32  1  0  0  0  0
M  END
>  <MODEL>
9

>  <REMARK>
 VINA RESULT:      -5.8      4.175      5.876
  Name = 
  4 active torsions:
  status: ('A' for Active; 'I' for Inactive)
    1  A    between atoms: C_7  and  C_19
    2  A    between atoms: C_10  and  C_17
    3  A    between atoms: C_20  and  C_29
    4  A    between atoms: C_29  and  C_30
                            x       y       z     vdW  Elec       q    Type
                         _______ _______ _______ _____ _____    ______ ____

>  <TORSDO>
F 4

$$$$
