=
 OpenBabel11122410303D

 30 35  0  0  1  0  0  0  0  0999 V2000
  186.7840  178.0390  144.9200 C   0  0  0  0  0  0  0  0  0  0  0  0
  184.3630  178.6320  145.2310 C   0  0  0  0  0  0  0  0  0  0  0  0
  186.4430  178.3940  140.8290 N   0  0  0  0  0  2  0  0  0  0  0  0
  187.8880  177.8350  144.0430 C   0  0  0  0  0  0  0  0  0  0  0  0
  187.0410  177.9710  146.4020 C   0  0  0  0  0  2  0  0  0  0  0  0
  190.3760  176.5650  146.3720 O   0  0  0  0  0  0  0  0  0  0  0  0
  190.5860  176.8300  142.7360 C   0  0  1  0  0  3  0  0  0  0  0  0
  189.2730  176.9920  145.9310 C   0  0  0  0  0  0  0  0  0  0  0  0
  189.8420  177.1890  141.4680 C   0  0  2  0  0  3  0  0  0  0  0  0
  187.7090  178.0400  140.5240 C   0  0  0  0  0  0  0  0  0  0  0  0
  188.0250  176.8610  146.7590 C   0  0  1  0  0  3  0  0  0  0  0  0
  189.1840  177.5360  144.6030 N   0  0  0  0  0  0  0  0  0  0  0  0
  183.1400  178.9980  144.6620 C   0  0  0  0  0  3  0  0  0  0  0  0
  190.6750  178.0050  140.6890 O   0  0  0  0  0  0  0  0  0  0  0  0
  192.0160  176.8420  142.2760 C   0  0  0  0  0  2  0  0  0  0  0  0
  184.4130  178.4930  146.6130 O   0  0  0  0  0  1  0  0  0  0  0  0
  186.4350  178.3320  142.1730 C   0  0  0  0  0  0  0  0  0  0  0  0
  183.0090  179.1470  143.2830 C   0  0  0  0  0  3  0  0  0  0  0  0
  185.4990  178.4070  144.4060 C   0  0  0  0  0  0  0  0  0  0  0  0
  187.6640  177.9610  142.6560 C   0  0  0  0  0  0  0  0  0  0  0  0
  188.1120  177.9440  139.3340 O   0  0  0  0  0  0  0  0  0  0  0  0
  188.4950  177.7700  141.5980 N   0  0  0  0  0  0  0  0  0  0  0  0
  191.9700  177.5070  140.9130 C   0  0  0  0  0  2  0  0  0  0  0  0
  190.5480  179.2900  143.5200 C   0  0  0  0  0  1  0  0  0  0  0  0
  184.1050  178.9260  142.4540 C   0  0  0  0  0  3  0  0  0  0  0  0
  185.3410  178.5610  143.0000 C   0  0  0  0  0  0  0  0  0  0  0  0
  190.4180  177.8130  143.8860 C   0  0  2  0  0  3  0  0  0  0  0  0
  188.2980  176.8370  148.2660 C   0  0  0  0  0  2  0  0  0  0  0  0
  189.6830  178.6630  148.9140 O   0  0  0  0  0  1  0  0  0  0  0  0
  188.3580  178.2320  148.8710 C   0  0  0  0  0  2  0  0  0  0  0  0
  1  5  1  0  0  0  0
  2 16  1  0  0  0  0
  3 17  1  0  0  0  0
  4 12  1  0  0  0  0
  4  1  2  0  0  0  0
  5 11  1  0  0  0  0
  7 15  1  6  0  0  0
  7 27  1  0  0  0  0
  8  6  2  0  0  0  0
  8 11  1  0  0  0  0
  9 14  1  1  0  0  0
  9 22  1  0  0  0  0
  9  7  1  0  0  0  0
 10  3  1  0  0  0  0
 10 22  1  0  0  0  0
 11 28  1  1  0  0  0
 12  8  1  0  0  0  0
 13  2  1  0  0  0  0
 14 23  1  0  0  0  0
 17 20  2  0  0  0  0
 17 26  1  0  0  0  0
 18 13  2  0  0  0  0
 19  1  1  0  0  0  0
 19  2  2  0  0  0  0
 20  4  1  0  0  0  0
 21 10  2  0  0  0  0
 22 20  1  0  0  0  0
 23 15  1  0  0  0  0
 25 26  2  0  0  0  0
 25 18  1  0  0  0  0
 26 19  1  0  0  0  0
 27 24  1  6  0  0  0
 27 12  1  0  0  0  0
 28 30  1  0  0  0  0
 30 29  1  0  0  0  0
M  END
>  <MODEL>
1

>  <REMARK>
 VINA RESULT:     -10.4      0.000      0.000
  Name = 
  2 active torsions:
  status: ('A' for Active; 'I' for Inactive)
    1  A    between atoms: C_11  and  C_28
    2  A    between atoms: C_28  and  C_30
                            x       y       z     vdW  Elec       q    Type
                         _______ _______ _______ _____ _____    ______ ____

>  <TORSDO>
F 2

$$$$
=
 OpenBabel11122410303D

 30 35  0  0  1  0  0  0  0  0999 V2000
  186.5830  178.1700  141.9950 C   0  0  0  0  0  0  0  0  0  0  0  0
  184.1570  178.6670  141.5760 C   0  0  0  0  0  0  0  0  0  0  0  0
  185.9820  178.1950  146.0710 N   0  0  0  0  0  2  0  0  0  0  0  0
  187.6360  177.9180  142.9220 C   0  0  0  0  0  0  0  0  0  0  0  0
  186.8950  178.0490  140.5270 C   0  0  0  0  0  2  0  0  0  0  0  0
  190.5070  177.8750  140.6900 O   0  0  0  0  0  0  0  0  0  0  0  0
  190.4560  177.7210  144.3380 C   0  0  1  0  0  3  0  0  0  0  0  0
  189.3130  177.9890  141.0850 C   0  0  0  0  0  0  0  0  0  0  0  0
  189.5860  177.7800  145.5750 C   0  0  2  0  0  3  0  0  0  0  0  0
  187.2650  177.9810  146.4320 C   0  0  0  0  0  0  0  0  0  0  0  0
  188.2750  178.6060  140.1900 C   0  0  1  0  0  3  0  0  0  0  0  0
  188.9510  177.6010  142.4220 N   0  0  0  0  0  0  0  0  0  0  0  0
  182.8770  178.8930  142.0920 C   0  0  0  0  0  3  0  0  0  0  0  0
  189.9560  176.7240  146.4200 O   0  0  0  0  0  0  0  0  0  0  0  0
  191.7220  177.1150  144.8720 C   0  0  0  0  0  2  0  0  0  0  0  0
  184.3100  178.7040  140.1950 O   0  0  0  0  0  1  0  0  0  0  0  0
  186.0480  178.1890  144.7280 C   0  0  0  0  0  0  0  0  0  0  0  0
  182.6480  178.8820  143.4650 C   0  0  0  0  0  3  0  0  0  0  0  0
  185.2490  178.4180  142.4530 C   0  0  0  0  0  0  0  0  0  0  0  0
  187.3320  177.9680  144.2990 C   0  0  0  0  0  0  0  0  0  0  0  0
  187.6280  177.9520  147.6380 O   0  0  0  0  0  0  0  0  0  0  0  0
  188.1260  177.8330  145.3920 N   0  0  0  0  0  0  0  0  0  0  0  0
  191.3460  176.6010  146.2490 C   0  0  0  0  0  2  0  0  0  0  0  0
  189.3810  175.4840  143.6230 C   0  0  0  0  0  1  0  0  0  0  0  0
  183.7020  178.6470  144.3430 C   0  0  0  0  0  3  0  0  0  0  0  0
  184.9910  178.4160  143.8520 C   0  0  0  0  0  0  0  0  0  0  0  0
  189.9180  176.8530  143.2100 C   0  0  2  0  0  3  0  0  0  0  0  0
  188.5830  178.4370  138.7000 C   0  0  0  0  0  2  0  0  0  0  0  0
  186.8700  178.9840  137.1370 O   0  0  0  0  0  1  0  0  0  0  0  0
  187.3810  177.9410  137.9070 C   0  0  0  0  0  2  0  0  0  0  0  0
  1 19  2  0  0  0  0
  1  4  1  0  0  0  0
  2 13  2  0  0  0  0
  2 19  1  0  0  0  0
  3 10  1  0  0  0  0
  4 20  2  0  0  0  0
  5  1  1  0  0  0  0
  6  8  2  0  0  0  0
  7 15  1  1  0  0  0
  7  9  1  0  0  0  0
  8 12  1  0  0  0  0
  9 14  1  1  0  0  0
 10 21  2  0  0  0  0
 11 28  1  6  0  0  0
 11  5  1  0  0  0  0
 11  8  1  0  0  0  0
 12  4  1  0  0  0  0
 12 27  1  0  0  0  0
 13 18  1  0  0  0  0
 15 23  1  0  0  0  0
 16  2  1  0  0  0  0
 17  3  1  0  0  0  0
 18 25  2  0  0  0  0
 19 26  1  0  0  0  0
 20 17  1  0  0  0  0
 20 22  1  0  0  0  0
 22  9  1  0  0  0  0
 22 10  1  0  0  0  0
 23 14  1  0  0  0  0
 26 25  1  0  0  0  0
 26 17  2  0  0  0  0
 27 24  1  1  0  0  0
 27  7  1  0  0  0  0
 29 30  1  0  0  0  0
 30 28  1  0  0  0  0
M  END
>  <MODEL>
2

>  <REMARK>
 VINA RESULT:      -9.4      1.609      5.329
  Name = 
  2 active torsions:
  status: ('A' for Active; 'I' for Inactive)
    1  A    between atoms: C_11  and  C_28
    2  A    between atoms: C_28  and  C_30
                            x       y       z     vdW  Elec       q    Type
                         _______ _______ _______ _____ _____    ______ ____

>  <TORSDO>
F 2

$$$$
=
 OpenBabel11122410303D

 30 35  0  0  1  0  0  0  0  0999 V2000
  187.6120  177.6710  143.1130 C   0  0  0  0  0  0  0  0  0  0  0  0
  186.4910  178.0420  145.3310 C   0  0  0  0  0  0  0  0  0  0  0  0
  184.3170  179.1080  141.1000 N   0  0  0  0  0  2  0  0  0  0  0  0
  187.5690  177.7660  141.6920 C   0  0  0  0  0  0  0  0  0  0  0  0
  188.8980  177.2150  143.7490 C   0  0  0  0  0  2  0  0  0  0  0  0
  190.6390  176.0300  140.8050 O   0  0  0  0  0  0  0  0  0  0  0  0
  188.0120  177.2820  138.5990 C   0  0  1  0  0  3  0  0  0  0  0  0
  189.7080  176.5070  141.5120 C   0  0  0  0  0  0  0  0  0  0  0  0
  186.6500  177.9370  138.5320 C   0  0  2  0  0  3  0  0  0  0  0  0
  184.7840  178.9100  139.8500 C   0  0  0  0  0  0  0  0  0  0  0  0
  189.5640  176.0980  142.9510 C   0  0  1  0  0  3  0  0  0  0  0  0
  188.7330  177.3870  140.9280 N   0  0  0  0  0  0  0  0  0  0  0  0
  185.3770  178.4910  146.0460 C   0  0  0  0  0  3  0  0  0  0  0  0
  186.7080  178.9720  137.5880 O   0  0  0  0  0  0  0  0  0  0  0  0
  188.5290  177.4860  137.2040 C   0  0  0  0  0  2  0  0  0  0  0  0
  187.5610  177.5360  146.0580 O   0  0  0  0  0  1  0  0  0  0  0  0
  185.3370  178.6830  141.8670 C   0  0  0  0  0  0  0  0  0  0  0  0
  184.2620  179.0020  145.3860 C   0  0  0  0  0  3  0  0  0  0  0  0
  186.5040  178.1040  143.9100 C   0  0  0  0  0  0  0  0  0  0  0  0
  186.3870  178.2530  141.0970 C   0  0  0  0  0  0  0  0  0  0  0  0
  184.0930  179.1600  138.8270 O   0  0  0  0  0  0  0  0  0  0  0  0
  186.0400  178.3960  139.7920 N   0  0  0  0  0  0  0  0  0  0  0  0
  187.5750  178.4930  136.5900 C   0  0  0  0  0  2  0  0  0  0  0  0
  189.0570  179.4320  139.5770 C   0  0  0  0  0  1  0  0  0  0  0  0
  184.2490  179.0670  143.9960 C   0  0  0  0  0  3  0  0  0  0  0  0
  185.3520  178.6260  143.2570 C   0  0  0  0  0  0  0  0  0  0  0  0
  188.9820  177.9060  139.5930 C   0  0  2  0  0  3  0  0  0  0  0  0
  190.8870  175.6780  143.5970 C   0  0  0  0  0  2  0  0  0  0  0  0
  191.6870  176.3430  145.7400 O   0  0  0  0  0  1  0  0  0  0  0  0
  191.5080  176.7890  144.4320 C   0  0  0  0  0  2  0  0  0  0  0  0
  1  5  1  0  0  0  0
  1 19  1  0  0  0  0
  2 13  1  0  0  0  0
  2 16  1  0  0  0  0
  3 17  1  0  0  0  0
  4  1  2  0  0  0  0
  6  8  2  0  0  0  0
  7 15  1  6  0  0  0
  7 27  1  0  0  0  0
  8 11  1  0  0  0  0
  9 14  1  6  0  0  0
  9  7  1  0  0  0  0
  9 22  1  0  0  0  0
 10  3  1  0  0  0  0
 11 28  1  1  0  0  0
 11  5  1  0  0  0  0
 12  8  1  0  0  0  0
 12  4  1  0  0  0  0
 17 26  1  0  0  0  0
 18 13  2  0  0  0  0
 19  2  2  0  0  0  0
 20  4  1  0  0  0  0
 20 17  2  0  0  0  0
 21 10  2  0  0  0  0
 22 10  1  0  0  0  0
 22 20  1  0  0  0  0
 23 15  1  0  0  0  0
 23 14  1  0  0  0  0
 25 18  1  0  0  0  0
 26 19  1  0  0  0  0
 26 25  2  0  0  0  0
 27 24  1  1  0  0  0
 27 12  1  0  0  0  0
 28 30  1  0  0  0  0
 30 29  1  0  0  0  0
M  END
>  <MODEL>
3

>  <REMARK>
 VINA RESULT:      -8.7      2.069      3.875
  Name = 
  2 active torsions:
  status: ('A' for Active; 'I' for Inactive)
    1  A    between atoms: C_11  and  C_28
    2  A    between atoms: C_28  and  C_30
                            x       y       z     vdW  Elec       q    Type
                         _______ _______ _______ _____ _____    ______ ____

>  <TORSDO>
F 2

$$$$
=
 OpenBabel11122410303D

 30 35  0  0  1  0  0  0  0  0999 V2000
  188.8860  177.6660  143.5920 C   0  0  0  0  0  0  0  0  0  0  0  0
  191.0150  177.0420  144.7710 C   0  0  0  0  0  0  0  0  0  0  0  0
  186.8010  177.6430  147.1450 N   0  0  0  0  0  2  0  0  0  0  0  0
  187.4980  177.9780  143.6620 C   0  0  0  0  0  0  0  0  0  0  0  0
  189.5680  177.7900  142.2550 C   0  0  0  0  0  2  0  0  0  0  0  0
  186.6630  178.1500  140.1270 O   0  0  0  0  0  0  0  0  0  0  0  0
  184.4250  178.3300  143.0060 C   0  0  1  0  0  3  0  0  0  0  0  0
  187.3400  177.9780  141.1790 C   0  0  0  0  0  0  0  0  0  0  0  0
  184.3250  178.2360  144.5140 C   0  0  2  0  0  3  0  0  0  0  0  0
  185.5860  177.9240  146.6290 C   0  0  0  0  0  0  0  0  0  0  0  0
  188.6810  177.3020  141.1150 C   0  0  1  0  0  3  0  0  0  0  0  0
  186.8020  178.3580  142.4570 N   0  0  0  0  0  0  0  0  0  0  0  0
  191.6780  176.7550  145.9680 C   0  0  0  0  0  3  0  0  0  0  0  0
  183.5550  179.3170  144.9680 O   0  0  0  0  0  0  0  0  0  0  0  0
  183.1330  179.0040  142.6460 C   0  0  0  0  0  2  0  0  0  0  0  0
  191.7590  177.0020  143.5980 O   0  0  0  0  0  1  0  0  0  0  0  0
  187.5910  177.6410  146.0570 C   0  0  0  0  0  0  0  0  0  0  0  0
  190.9970  176.7650  147.1820 C   0  0  0  0  0  3  0  0  0  0  0  0
  189.6270  177.3530  144.7770 C   0  0  0  0  0  0  0  0  0  0  0  0
  186.8700  177.9230  144.9250 C   0  0  0  0  0  0  0  0  0  0  0  0
  184.5490  177.9820  147.3430 O   0  0  0  0  0  0  0  0  0  0  0  0
  185.5740  178.1080  145.2830 N   0  0  0  0  0  0  0  0  0  0  0  0
  182.5860  179.5090  143.9690 C   0  0  0  0  0  2  0  0  0  0  0  0
  185.8090  180.5030  143.1790 C   0  0  0  0  0  1  0  0  0  0  0  0
  189.6380  177.0610  147.2130 C   0  0  0  0  0  3  0  0  0  0  0  0
  188.9520  177.3530  146.0290 C   0  0  0  0  0  0  0  0  0  0  0  0
  185.5890  179.1600  142.4860 C   0  0  2  0  0  3  0  0  0  0  0  0
  189.3820  177.4740  139.7640 C   0  0  0  0  0  2  0  0  0  0  0  0
  190.8140  175.7070  139.0580 O   0  0  0  0  0  1  0  0  0  0  0  0
  190.7950  176.9090  139.7630 C   0  0  0  0  0  2  0  0  0  0  0  0
  1  4  2  0  0  0  0
  1 19  1  0  0  0  0
  2 19  2  0  0  0  0
  2 13  1  0  0  0  0
  4 20  1  0  0  0  0
  5  1  1  0  0  0  0
  6  8  2  0  0  0  0
  7 15  1  1  0  0  0
  7  9  1  0  0  0  0
  8 12  1  0  0  0  0
  9 14  1  1  0  0  0
  9 22  1  0  0  0  0
 10  3  1  0  0  0  0
 10 21  2  0  0  0  0
 11 28  1  6  0  0  0
 11  8  1  0  0  0  0
 11  5  1  0  0  0  0
 12 27  1  0  0  0  0
 12  4  1  0  0  0  0
 13 18  2  0  0  0  0
 15 23  1  0  0  0  0
 16  2  1  0  0  0  0
 17  3  1  0  0  0  0
 18 25  1  0  0  0  0
 19 26  1  0  0  0  0
 20 22  1  0  0  0  0
 20 17  2  0  0  0  0
 22 10  1  0  0  0  0
 23 14  1  0  0  0  0
 26 17  1  0  0  0  0
 26 25  2  0  0  0  0
 27  7  1  0  0  0  0
 27 24  1  1  0  0  0
 29 30  1  0  0  0  0
 30 28  1  0  0  0  0
M  END
>  <MODEL>
4

>  <REMARK>
 VINA RESULT:      -8.6      1.890      6.820
  Name = 
  2 active torsions:
  status: ('A' for Active; 'I' for Inactive)
    1  A    between atoms: C_11  and  C_28
    2  A    between atoms: C_28  and  C_30
                            x       y       z     vdW  Elec       q    Type
                         _______ _______ _______ _____ _____    ______ ____

>  <TORSDO>
F 2

$$$$
=
 OpenBabel11122410303D

 30 35  0  0  1  0  0  0  0  0999 V2000
  186.4740  178.0260  142.8580 C   0  0  0  0  0  0  0  0  0  0  0  0
  188.7940  177.4590  143.6380 C   0  0  0  0  0  0  0  0  0  0  0  0
  187.7440  178.2580  138.9450 N   0  0  0  0  0  2  0  0  0  0  0  0
  185.5850  178.3210  141.7850 C   0  0  0  0  0  0  0  0  0  0  0  0
  185.8880  177.8780  144.2370 C   0  0  0  0  0  2  0  0  0  0  0  0
  182.5680  179.1850  143.6230 O   0  0  0  0  0  0  0  0  0  0  0  0
  183.1950  179.4290  140.0340 C   0  0  1  0  0  3  0  0  0  0  0  0
  183.7650  178.8540  143.3970 C   0  0  0  0  0  0  0  0  0  0  0  0
  184.2250  179.2710  138.9370 C   0  0  2  0  0  3  0  0  0  0  0  0
  186.5610  178.6180  138.4050 C   0  0  0  0  0  0  0  0  0  0  0  0
  184.7860  178.9000  144.5000 C   0  0  1  0  0  3  0  0  0  0  0  0
  184.1810  178.5040  142.0660 N   0  0  0  0  0  0  0  0  0  0  0  0
  190.1330  177.2090  143.3230 C   0  0  0  0  0  3  0  0  0  0  0  0
  183.6370  178.5510  137.8860 O   0  0  0  0  0  0  0  0  0  0  0  0
  181.9090  179.4440  139.2600 C   0  0  0  0  0  2  0  0  0  0  0  0
  188.4270  177.4010  144.9770 O   0  0  0  0  0  1  0  0  0  0  0  0
  187.4470  178.1310  140.2510 C   0  0  0  0  0  0  0  0  0  0  0  0
  190.5780  177.2590  142.0040 C   0  0  0  0  0  3  0  0  0  0  0  0
  187.8600  177.7670  142.6100 C   0  0  0  0  0  0  0  0  0  0  0  0
  186.1210  178.3970  140.4820 C   0  0  0  0  0  0  0  0  0  0  0  0
  186.4310  178.8700  137.1780 O   0  0  0  0  0  0  0  0  0  0  0  0
  185.5400  178.7130  139.2960 N   0  0  0  0  0  0  0  0  0  0  0  0
  182.2980  178.9780  137.8690 C   0  0  0  0  0  2  0  0  0  0  0  0
  183.1990  176.8840  140.4780 C   0  0  0  0  0  1  0  0  0  0  0  0
  189.6840  177.5650  140.9810 C   0  0  0  0  0  3  0  0  0  0  0  0
  188.3390  177.8170  141.2710 C   0  0  0  0  0  0  0  0  0  0  0  0
  183.1580  178.2990  141.0530 C   0  0  2  0  0  3  0  0  0  0  0  0
  184.1810  178.7050  145.8930 C   0  0  0  0  0  2  0  0  0  0  0  0
  185.7520  179.7520  147.3450 O   0  0  0  0  0  1  0  0  0  0  0  0
  185.2400  178.5120  146.9680 C   0  0  0  0  0  2  0  0  0  0  0  0
  1  5  1  0  0  0  0
  2 16  1  0  0  0  0
  3 17  1  0  0  0  0
  4 12  1  0  0  0  0
  4  1  2  0  0  0  0
  5 11  1  0  0  0  0
  7 15  1  6  0  0  0
  7 27  1  0  0  0  0
  8  6  2  0  0  0  0
  8 11  1  0  0  0  0
  9 14  1  6  0  0  0
  9 22  1  0  0  0  0
  9  7  1  0  0  0  0
 10  3  1  0  0  0  0
 10 22  1  0  0  0  0
 11 28  1  1  0  0  0
 12  8  1  0  0  0  0
 13  2  1  0  0  0  0
 17 20  2  0  0  0  0
 17 26  1  0  0  0  0
 18 13  2  0  0  0  0
 19  1  1  0  0  0  0
 19  2  2  0  0  0  0
 20  4  1  0  0  0  0
 21 10  2  0  0  0  0
 22 20  1  0  0  0  0
 23 14  1  0  0  0  0
 23 15  1  0  0  0  0
 25 26  2  0  0  0  0
 25 18  1  0  0  0  0
 26 19  1  0  0  0  0
 27 24  1  6  0  0  0
 27 12  1  0  0  0  0
 28 30  1  0  0  0  0
 30 29  1  0  0  0  0
M  END
>  <MODEL>
5

>  <REMARK>
 VINA RESULT:      -8.6      2.404      5.867
  Name = 
  2 active torsions:
  status: ('A' for Active; 'I' for Inactive)
    1  A    between atoms: C_11  and  C_28
    2  A    between atoms: C_28  and  C_30
                            x       y       z     vdW  Elec       q    Type
                         _______ _______ _______ _____ _____    ______ ____

>  <TORSDO>
F 2

$$$$
=
 OpenBabel11122410303D

 30 35  0  0  1  0  0  0  0  0999 V2000
  186.1990  178.3790  140.8640 C   0  0  0  0  0  0  0  0  0  0  0  0
  184.3670  178.8190  139.2030 C   0  0  0  0  0  0  0  0  0  0  0  0
  183.5910  178.8760  144.0140 N   0  0  0  0  0  2  0  0  0  0  0  0
  186.6090  178.2390  142.2220 C   0  0  0  0  0  0  0  0  0  0  0  0
  187.2140  178.0890  139.7900 C   0  0  0  0  0  2  0  0  0  0  0  0
  190.2110  177.9430  141.8150 O   0  0  0  0  0  0  0  0  0  0  0  0
  188.2830  178.2140  144.9040 C   0  0  1  0  0  3  0  0  0  0  0  0
  188.9930  178.0990  141.5210 C   0  0  0  0  0  0  0  0  0  0  0  0
  186.9060  178.4150  145.4990 C   0  0  2  0  0  3  0  0  0  0  0  0
  184.4910  178.7090  145.0060 C   0  0  0  0  0  0  0  0  0  0  0  0
  188.6000  178.6060  140.1610 C   0  0  1  0  0  3  0  0  0  0  0  0
  187.9730  177.8680  142.5090 N   0  0  0  0  0  0  0  0  0  0  0  0
  183.0200  179.1010  138.9560 C   0  0  0  0  0  3  0  0  0  0  0  0
  186.7260  177.4640  146.5150 O   0  0  0  0  0  0  0  0  0  0  0  0
  189.0570  177.6770  146.0730 C   0  0  0  0  0  2  0  0  0  0  0  0
  185.2100  178.6950  138.1050 O   0  0  0  0  0  1  0  0  0  0  0  0
  184.3380  178.7150  142.9070 C   0  0  0  0  0  0  0  0  0  0  0  0
  182.1170  179.2490  140.0060 C   0  0  0  0  0  3  0  0  0  0  0  0
  184.8370  178.6760  140.5380 C   0  0  0  0  0  0  0  0  0  0  0  0
  185.6440  178.4490  143.2300 C   0  0  0  0  0  0  0  0  0  0  0  0
  184.1800  178.8210  146.2220 O   0  0  0  0  0  0  0  0  0  0  0  0
  185.7530  178.4420  144.5830 N   0  0  0  0  0  0  0  0  0  0  0  0
  187.9960  177.3260  147.1010 C   0  0  0  0  0  2  0  0  0  0  0  0
  187.6000  175.9070  143.9660 C   0  0  0  0  0  1  0  0  0  0  0  0
  182.5550  179.1200  141.3210 C   0  0  0  0  0  3  0  0  0  0  0  0
  183.8970  178.8360  141.5940 C   0  0  0  0  0  0  0  0  0  0  0  0
  188.3520  177.2200  143.7540 C   0  0  2  0  0  3  0  0  0  0  0  0
  189.6200  178.2650  139.0710 C   0  0  0  0  0  2  0  0  0  0  0  0
  188.9240  179.7480  137.3420 O   0  0  0  0  0  1  0  0  0  0  0  0
  189.0430  178.3990  137.6690 C   0  0  0  0  0  2  0  0  0  0  0  0
  1  4  1  0  0  0  0
  2 19  1  0  0  0  0
  3 10  1  0  0  0  0
  4 12  1  0  0  0  0
  4 20  2  0  0  0  0
  5 11  1  0  0  0  0
  5  1  1  0  0  0  0
  7  9  1  0  0  0  0
  7 15  1  1  0  0  0
  8  6  2  0  0  0  0
  8 12  1  0  0  0  0
  9 14  1  1  0  0  0
 10 21  2  0  0  0  0
 11 28  1  6  0  0  0
 11  8  1  0  0  0  0
 12 27  1  0  0  0  0
 13  2  2  0  0  0  0
 13 18  1  0  0  0  0
 14 23  1  0  0  0  0
 15 23  1  0  0  0  0
 16  2  1  0  0  0  0
 17 20  1  0  0  0  0
 17  3  1  0  0  0  0
 18 25  2  0  0  0  0
 19  1  2  0  0  0  0
 19 26  1  0  0  0  0
 20 22  1  0  0  0  0
 22 10  1  0  0  0  0
 22  9  1  0  0  0  0
 25 26  1  0  0  0  0
 26 17  2  0  0  0  0
 27 24  1  1  0  0  0
 27  7  1  0  0  0  0
 29 30  1  0  0  0  0
 30 28  1  0  0  0  0
M  END
>  <MODEL>
6

>  <REMARK>
 VINA RESULT:      -8.5      2.085      5.830
  Name = 
  2 active torsions:
  status: ('A' for Active; 'I' for Inactive)
    1  A    between atoms: C_11  and  C_28
    2  A    between atoms: C_28  and  C_30
                            x       y       z     vdW  Elec       q    Type
                         _______ _______ _______ _____ _____    ______ ____

>  <TORSDO>
F 2

$$$$
=
 OpenBabel11122410303D

 30 35  0  0  1  0  0  0  0  0999 V2000
  186.1420  178.3160  142.7990 C   0  0  0  0  0  0  0  0  0  0  0  0
  183.8530  178.9530  141.9830 C   0  0  0  0  0  0  0  0  0  0  0  0
  187.5870  178.1950  138.9430 N   0  0  0  0  0  2  0  0  0  0  0  0
  187.5010  178.0060  142.5040 C   0  0  0  0  0  0  0  0  0  0  0  0
  185.7420  178.4190  144.2470 C   0  0  0  0  0  2  0  0  0  0  0  0
  188.6950  177.0030  145.7890 O   0  0  0  0  0  0  0  0  0  0  0  0
  190.4400  176.8430  142.5860 C   0  0  1  0  0  3  0  0  0  0  0  0
  187.9070  177.3810  144.8780 C   0  0  0  0  0  0  0  0  0  0  0  0
  190.3230  177.0560  141.0920 C   0  0  2  0  0  3  0  0  0  0  0  0
  188.8420  177.8020  139.2450 C   0  0  0  0  0  0  0  0  0  0  0  0
  186.4200  177.3530  145.1030 C   0  0  1  0  0  3  0  0  0  0  0  0
  188.4190  177.7680  143.5920 N   0  0  0  0  0  0  0  0  0  0  0  0
  183.0080  179.2560  140.9110 C   0  0  0  0  0  3  0  0  0  0  0  0
  191.4510  177.7720  140.6640 O   0  0  0  0  0  0  0  0  0  0  0  0
  191.9280  176.7940  142.7830 C   0  0  0  0  0  2  0  0  0  0  0  0
  183.3050  178.9750  143.2600 O   0  0  0  0  0  1  0  0  0  0  0  0
  187.0070  178.2900  140.1520 C   0  0  0  0  0  0  0  0  0  0  0  0
  183.4820  179.2450  139.6020 C   0  0  0  0  0  3  0  0  0  0  0  0
  185.2180  178.6280  141.7500 C   0  0  0  0  0  0  0  0  0  0  0  0
  187.8930  177.9720  141.1490 C   0  0  0  0  0  0  0  0  0  0  0  0
  189.7050  177.5660  138.3580 O   0  0  0  0  0  0  0  0  0  0  0  0
  189.0820  177.6550  140.5740 N   0  0  0  0  0  0  0  0  0  0  0  0
  192.5000  177.2970  141.4700 C   0  0  0  0  0  2  0  0  0  0  0  0
  190.2050  179.3780  143.0210 C   0  0  0  0  0  1  0  0  0  0  0  0
  184.8130  178.9240  139.3490 C   0  0  0  0  0  3  0  0  0  0  0  0
  185.6790  178.6180  140.4040 C   0  0  0  0  0  0  0  0  0  0  0  0
  189.8540  177.9530  143.4460 C   0  0  2  0  0  3  0  0  0  0  0  0
  186.0270  177.5030  146.5750 C   0  0  0  0  0  2  0  0  0  0  0  0
  185.6810  179.7270  147.3550 O   0  0  0  0  0  1  0  0  0  0  0  0
  185.0270  178.6280  146.8010 C   0  0  0  0  0  2  0  0  0  0  0  0
  1  5  1  0  0  0  0
  2 16  1  0  0  0  0
  3 10  1  0  0  0  0
  3 17  1  0  0  0  0
  4  1  1  0  0  0  0
  4 12  1  0  0  0  0
  5 11  1  0  0  0  0
  7 15  1  6  0  0  0
  7 27  1  0  0  0  0
  8 11  1  0  0  0  0
  8  6  2  0  0  0  0
  9 14  1  1  0  0  0
  9  7  1  0  0  0  0
 10 22  1  0  0  0  0
 11 28  1  1  0  0  0
 12  8  1  0  0  0  0
 13  2  2  0  0  0  0
 14 23  1  0  0  0  0
 17 26  2  0  0  0  0
 17 20  1  0  0  0  0
 18 13  1  0  0  0  0
 19  2  1  0  0  0  0
 19  1  2  0  0  0  0
 20  4  2  0  0  0  0
 21 10  2  0  0  0  0
 22  9  1  0  0  0  0
 22 20  1  0  0  0  0
 23 15  1  0  0  0  0
 25 18  2  0  0  0  0
 25 26  1  0  0  0  0
 26 19  1  0  0  0  0
 27 24  1  6  0  0  0
 27 12  1  0  0  0  0
 28 30  1  0  0  0  0
 30 29  1  0  0  0  0
M  END
>  <MODEL>
7

>  <REMARK>
 VINA RESULT:      -8.4      1.625      2.378
  Name = 
  2 active torsions:
  status: ('A' for Active; 'I' for Inactive)
    1  A    between atoms: C_11  and  C_28
    2  A    between atoms: C_28  and  C_30
                            x       y       z     vdW  Elec       q    Type
                         _______ _______ _______ _____ _____    ______ ____

>  <TORSDO>
F 2

$$$$
=
 OpenBabel11122410303D

 30 35  0  0  1  0  0  0  0  0999 V2000
  188.0950  177.7500  142.5640 C   0  0  0  0  0  0  0  0  0  0  0  0
  188.5780  177.4140  145.0060 C   0  0  0  0  0  0  0  0  0  0  0  0
  192.0520  177.1300  141.5990 N   0  0  0  0  0  2  0  0  0  0  0  0
  188.5650  177.7830  141.2200 C   0  0  0  0  0  0  0  0  0  0  0  0
  186.6150  177.9020  142.7960 C   0  0  0  0  0  2  0  0  0  0  0  0
  185.5960  178.9790  139.4930 O   0  0  0  0  0  0  0  0  0  0  0  0
  188.9450  178.4300  138.1480 C   0  0  1  0  0  3  0  0  0  0  0  0
  186.3590  178.6280  140.4360 C   0  0  0  0  0  0  0  0  0  0  0  0
  190.3730  178.0510  138.4770 C   0  0  2  0  0  3  0  0  0  0  0  0
  191.9360  177.3390  140.2700 C   0  0  0  0  0  0  0  0  0  0  0  0
  185.9950  178.9360  141.8610 C   0  0  1  0  0  3  0  0  0  0  0  0
  187.6200  177.9980  140.1500 N   0  0  0  0  0  0  0  0  0  0  0  0
  189.5050  177.1250  146.0120 C   0  0  0  0  0  3  0  0  0  0  0  0
  190.8020  177.1050  137.5350 O   0  0  0  0  0  0  0  0  0  0  0  0
  188.9070  178.2490  136.6580 C   0  0  0  0  0  2  0  0  0  0  0  0
  187.2630  177.6480  145.3910 O   0  0  0  0  0  1  0  0  0  0  0  0
  190.7890  177.2910  142.0350 C   0  0  0  0  0  0  0  0  0  0  0  0
  190.8420  176.8880  145.7050 C   0  0  0  0  0  3  0  0  0  0  0  0
  188.9900  177.4680  143.6460 C   0  0  0  0  0  0  0  0  0  0  0  0
  189.9430  177.5780  140.9950 C   0  0  0  0  0  0  0  0  0  0  0  0
  192.9290  177.3100  139.4960 O   0  0  0  0  0  0  0  0  0  0  0  0
  190.6730  177.6110  139.8510 N   0  0  0  0  0  0  0  0  0  0  0  0
  190.1820  177.4930  136.3350 C   0  0  0  0  0  2  0  0  0  0  0  0
  188.1250  176.0480  138.7180 C   0  0  0  0  0  1  0  0  0  0  0  0
  191.2700  176.9430  144.3820 C   0  0  0  0  0  3  0  0  0  0  0  0
  190.3620  177.2280  143.3570 C   0  0  0  0  0  0  0  0  0  0  0  0
  187.8790  177.5540  138.7900 C   0  0  2  0  0  3  0  0  0  0  0  0
  184.4850  179.0450  142.0900 C   0  0  0  0  0  2  0  0  0  0  0  0
  183.7100  179.7540  144.2280 O   0  0  0  0  0  1  0  0  0  0  0  0
  184.0750  178.6260  143.4950 C   0  0  0  0  0  2  0  0  0  0  0  0
  1  5  1  0  0  0  0
  1 19  1  0  0  0  0
  2 16  1  0  0  0  0
  2 13  1  0  0  0  0
  3 17  1  0  0  0  0
  4  1  2  0  0  0  0
  6  8  2  0  0  0  0
  7 15  1  6  0  0  0
  7  9  1  0  0  0  0
  7 27  1  0  0  0  0
  8 11  1  0  0  0  0
  9 14  1  6  0  0  0
  9 22  1  0  0  0  0
 10  3  1  0  0  0  0
 11 28  1  6  0  0  0
 11  5  1  0  0  0  0
 12  8  1  0  0  0  0
 12  4  1  0  0  0  0
 17 26  1  0  0  0  0
 18 13  2  0  0  0  0
 19  2  2  0  0  0  0
 20  4  1  0  0  0  0
 20 17  2  0  0  0  0
 21 10  2  0  0  0  0
 22 10  1  0  0  0  0
 22 20  1  0  0  0  0
 23 15  1  0  0  0  0
 23 14  1  0  0  0  0
 25 18  1  0  0  0  0
 26 19  1  0  0  0  0
 26 25  2  0  0  0  0
 27 24  1  1  0  0  0
 27 12  1  0  0  0  0
 28 30  1  0  0  0  0
 30 29  1  0  0  0  0
M  END
>  <MODEL>
8

>  <REMARK>
 VINA RESULT:      -8.4      2.231      5.509
  Name = 
  2 active torsions:
  status: ('A' for Active; 'I' for Inactive)
    1  A    between atoms: C_11  and  C_28
    2  A    between atoms: C_28  and  C_30
                            x       y       z     vdW  Elec       q    Type
                         _______ _______ _______ _____ _____    ______ ____

>  <TORSDO>
F 2

$$$$
=
 OpenBabel11122410303D

 30 35  0  0  1  0  0  0  0  0999 V2000
  188.4730  177.4530  145.1850 C   0  0  0  0  0  0  0  0  0  0  0  0
  186.7720  177.9190  146.9740 C   0  0  0  0  0  0  0  0  0  0  0  0
  185.8200  178.5720  142.2380 N   0  0  0  0  0  2  0  0  0  0  0  0
  188.8210  177.4460  143.8040 C   0  0  0  0  0  0  0  0  0  0  0  0
  189.5460  177.1100  146.1830 C   0  0  0  0  0  2  0  0  0  0  0  0
  192.0690  175.8150  143.9330 O   0  0  0  0  0  0  0  0  0  0  0  0
  190.1170  176.7720  140.9990 C   0  0  1  0  0  3  0  0  0  0  0  0
  190.9650  176.2910  144.3180 C   0  0  0  0  0  0  0  0  0  0  0  0
  188.8060  177.3480  140.5100 C   0  0  2  0  0  3  0  0  0  0  0  0
  186.6210  178.3130  141.1830 C   0  0  0  0  0  0  0  0  0  0  0  0
  190.4410  175.9760  145.6910 C   0  0  1  0  0  3  0  0  0  0  0  0
  190.1620  177.0770  143.4200 N   0  0  0  0  0  0  0  0  0  0  0  0
  185.4900  178.3580  147.3190 C   0  0  0  0  0  3  0  0  0  0  0  0
  189.0920  178.3170  139.5360 O   0  0  0  0  0  0  0  0  0  0  0  0
  190.9930  176.9040  139.7870 C   0  0  0  0  0  2  0  0  0  0  0  0
  187.6140  177.5210  148.0050 O   0  0  0  0  0  1  0  0  0  0  0  0
  186.6000  178.2560  143.2870 C   0  0  0  0  0  0  0  0  0  0  0  0
  184.5860  178.7630  146.3400 C   0  0  0  0  0  3  0  0  0  0  0  0
  187.1740  177.8820  145.6100 C   0  0  0  0  0  0  0  0  0  0  0  0
  187.8350  177.8290  142.8700 C   0  0  0  0  0  0  0  0  0  0  0  0
  186.2320  178.4540  139.9940 O   0  0  0  0  0  0  0  0  0  0  0  0
  187.8590  177.8620  141.5130 N   0  0  0  0  0  0  0  0  0  0  0  0
  190.2150  177.8160  138.8550 C   0  0  0  0  0  2  0  0  0  0  0  0
  190.7840  179.0360  142.0480 C   0  0  0  0  0  1  0  0  0  0  0  0
  184.9550  178.7300  144.9980 C   0  0  0  0  0  3  0  0  0  0  0  0
  186.2320  178.2970  144.6280 C   0  0  0  0  0  0  0  0  0  0  0  0
  190.7550  177.5130  142.1660 C   0  0  2  0  0  3  0  0  0  0  0  0
  191.5460  175.6720  146.7060 C   0  0  0  0  0  2  0  0  0  0  0  0
  192.8100  176.5080  148.5440 O   0  0  0  0  0  1  0  0  0  0  0  0
  191.6800  176.7560  147.7660 C   0  0  0  0  0  2  0  0  0  0  0  0
  1 19  1  0  0  0  0
  1  5  1  0  0  0  0
  2 13  1  0  0  0  0
  2 16  1  0  0  0  0
  3 17  1  0  0  0  0
  4  1  2  0  0  0  0
  6  8  2  0  0  0  0
  7 15  1  6  0  0  0
  7 27  1  0  0  0  0
  8 11  1  0  0  0  0
  9 14  1  6  0  0  0
  9  7  1  0  0  0  0
  9 22  1  0  0  0  0
 10 22  1  0  0  0  0
 10  3  1  0  0  0  0
 11  5  1  0  0  0  0
 11 28  1  1  0  0  0
 12  4  1  0  0  0  0
 12  8  1  0  0  0  0
 17 26  1  0  0  0  0
 18 13  2  0  0  0  0
 19  2  2  0  0  0  0
 20 17  2  0  0  0  0
 20  4  1  0  0  0  0
 21 10  2  0  0  0  0
 22 20  1  0  0  0  0
 23 14  1  0  0  0  0
 23 15  1  0  0  0  0
 25 18  1  0  0  0  0
 26 25  2  0  0  0  0
 26 19  1  0  0  0  0
 27 24  1  6  0  0  0
 27 12  1  0  0  0  0
 28 30  1  0  0  0  0
 30 29  1  0  0  0  0
M  END
>  <MODEL>
9

>  <REMARK>
 VINA RESULT:      -8.2      1.729      2.467
  Name = 
  2 active torsions:
  status: ('A' for Active; 'I' for Inactive)
    1  A    between atoms: C_11  and  C_28
    2  A    between atoms: C_28  and  C_30
                            x       y       z     vdW  Elec       q    Type
                         _______ _______ _______ _____ _____    ______ ____

>  <TORSDO>
F 2

$$$$
