=
 OpenBabel11122411313D

 37 44  0  0  1  0  0  0  0  0999 V2000
  187.1150  177.5360  139.7900 C   0  0  0  0  0  2  0  0  0  0  0  0
  190.1160  177.4030  143.0920 C   0  0  0  0  0  0  0  0  0  0  0  0
  186.1800  178.1290  144.3010 C   0  0  0  0  0  0  0  0  0  0  0  0
  187.3290  177.9800  138.4110 N   0  0  0  0  0  0  0  0  0  0  0  0
  183.5200  178.2930  141.5350 O   0  0  0  0  0  0  0  0  0  0  0  0
  188.4810  177.7920  145.0130 C   0  0  0  0  0  0  0  0  0  0  0  0
  185.5590  178.3280  143.0630 C   0  0  0  0  0  0  0  0  0  0  0  0
  184.9000  177.8810  138.0610 C   0  0  0  0  0  0  0  0  0  0  0  0
  187.5130  177.9930  144.0490 C   0  0  0  0  0  0  0  0  0  0  0  0
  184.0520  178.4480  142.8320 C   0  0  0  0  0  0  0  0  0  0  0  0
  188.0600  177.7460  146.3470 C   0  0  0  0  0  3  0  0  0  0  0  0
  186.2220  178.3580  137.5340 C   0  0  0  0  0  2  0  0  0  0  0  0
  187.7320  178.1220  142.7290 C   0  0  0  0  0  0  0  0  0  0  0  0
  189.9530  175.9050  142.9010 C   0  0  0  0  0  1  0  0  0  0  0  0
  184.3720  178.4060  146.0320 C   0  0  0  0  0  3  0  0  0  0  0  0
  186.6880  177.9040  146.6470 C   0  0  0  0  0  3  0  0  0  0  0  0
  189.1250  178.1510  142.1630 C   0  0  0  0  0  2  0  0  0  0  0  0
  184.1910  178.6300  139.1520 C   0  0  1  0  0  3  0  0  0  0  0  0
  184.3350  177.9090  140.4650 C   0  0  1  0  0  3  0  0  0  0  0  0
  185.7330  178.1070  145.6230 C   0  0  0  0  0  0  0  0  0  0  0  0
  186.5600  178.3450  142.0890 N   0  0  0  0  0  0  0  0  0  0  0  0
  189.9300  177.7530  144.5940 C   0  0  0  0  0  2  0  0  0  0  0  0
  183.1270  178.6760  143.8020 C   0  0  0  0  0  0  0  0  0  0  0  0
  191.5250  177.7780  142.6850 C   0  0  0  0  0  1  0  0  0  0  0  0
  185.1490  179.1600  140.2250 C   0  0  1  0  0  3  0  0  0  0  0  0
  184.4000  176.8680  137.5990 O   0  0  0  0  0  0  0  0  0  0  0  0
  186.5250  178.6690  140.6440 C   0  0  2  0  0  3  0  0  0  0  0  0
  183.3190  178.6530  145.2680 C   0  0  0  0  0  3  0  0  0  0  0  0
  189.6580  177.9120  138.6450 O   0  0  0  0  0  0  0  0  0  0  0  0
  188.6580  178.1740  137.9250 C   0  0  0  0  0  3  0  0  0  0  0  0
  180.6590  178.3980  144.1690 C   0  0  0  0  0  3  0  0  0  0  0  0
  181.7140  178.9330  143.4160 C   0  0  0  0  0  0  0  0  0  0  0  0
  181.4040  179.7490  142.3190 C   0  0  0  0  0  3  0  0  0  0  0  0
  179.6830  181.0050  140.6080 Cl  0  0  0  0  0  0  0  0  0  0  0  0
  179.0570  179.4340  142.7570 C   0  0  0  0  0  3  0  0  0  0  0  0
  180.0730  179.9980  141.9840 C   0  0  0  0  0  0  0  0  0  0  0  0
  179.3680  178.6550  143.8260 N   0  0  0  0  0  0  0  0  0  0  0  0
  1 27  1  0  0  0  0
  2 22  1  0  0  0  0
  3 20  1  0  0  0  0
  4  1  1  0  0  0  0
  5 10  1  0  0  0  0
  6 11  2  0  0  0  0
  7  3  2  0  0  0  0
  9  3  1  0  0  0  0
  9  6  1  0  0  0  0
 10  7  1  0  0  0  0
 10 23  2  0  0  0  0
 11 16  1  0  0  0  0
 12  8  1  0  0  0  0
 12  4  1  0  0  0  0
 13  9  2  0  0  0  0
 14  2  1  0  0  0  0
 17 13  1  0  0  0  0
 17  2  1  0  0  0  0
 18  8  1  6  0  0  0
 18 25  1  0  0  0  0
 18 19  1  0  0  0  0
 19  5  1  1  0  0  0
 20 15  1  0  0  0  0
 20 16  2  0  0  0  0
 21 13  1  0  0  0  0
 21  7  1  0  0  0  0
 22  6  1  0  0  0  0
 23 28  1  0  0  0  0
 24  2  1  0  0  0  0
 25 19  1  0  0  0  0
 25 27  1  0  0  0  0
 26  8  2  0  0  0  0
 27 21  1  0  0  0  0
 28 15  2  0  0  0  0
 30  4  1  0  0  0  0
 30 29  2  0  0  0  0
 32 23  1  0  0  0  0
 32 31  2  0  0  0  0
 33 32  1  0  0  0  0
 34 36  1  0  0  0  0
 35 37  2  0  0  0  0
 36 33  2  0  0  0  0
 36 35  1  0  0  0  0
 37 31  1  0  0  0  0
M  END
>  <MODEL>
1

>  <REMARK>
 VINA RESULT:     -11.8      0.000      0.000
  Name = 
  1 active torsions:
  status: ('A' for Active; 'I' for Inactive)
    1  A    between atoms: C_23  and  C_30
                            x       y       z     vdW  Elec       q    Type
                         _______ _______ _______ _____ _____    ______ ____

>  <TORSDO>
F 1

$$$$
=
 OpenBabel11122411313D

 37 44  0  0  1  0  0  0  0  0999 V2000
  187.3460  177.5720  139.6050 C   0  0  0  0  0  2  0  0  0  0  0  0
  189.9200  177.4370  143.2490 C   0  0  0  0  0  0  0  0  0  0  0  0
  185.8730  178.2030  143.9640 C   0  0  0  0  0  0  0  0  0  0  0  0
  187.7300  178.0050  138.2600 N   0  0  0  0  0  0  0  0  0  0  0  0
  183.5710  178.3700  140.8940 O   0  0  0  0  0  0  0  0  0  0  0  0
  188.0670  177.8530  144.9540 C   0  0  0  0  0  0  0  0  0  0  0  0
  185.4090  178.3990  142.6590 C   0  0  0  0  0  0  0  0  0  0  0  0
  185.3610  177.9240  137.6170 C   0  0  0  0  0  0  0  0  0  0  0  0
  187.2250  178.0550  143.8780 C   0  0  0  0  0  0  0  0  0  0  0  0
  183.9430  178.5300  142.2450 C   0  0  0  0  0  0  0  0  0  0  0  0
  187.4860  177.8190  146.2270 C   0  0  0  0  0  3  0  0  0  0  0  0
  186.7410  178.3870  137.2520 C   0  0  0  0  0  2  0  0  0  0  0  0
  187.6050  178.1730  142.5940 C   0  0  0  0  0  0  0  0  0  0  0  0
  189.7690  175.9390  143.0470 C   0  0  0  0  0  1  0  0  0  0  0  0
  183.8700  178.5070  145.4610 C   0  0  0  0  0  3  0  0  0  0  0  0
  186.0900  177.9900  146.3560 C   0  0  0  0  0  3  0  0  0  0  0  0
  189.0560  178.1870  142.2020 C   0  0  0  0  0  2  0  0  0  0  0  0
  184.5310  178.6870  138.6090 C   0  0  1  0  0  3  0  0  0  0  0  0
  184.5070  177.9730  139.9330 C   0  0  1  0  0  3  0  0  0  0  0  0
  185.2680  178.1940  145.2230 C   0  0  0  0  0  0  0  0  0  0  0  0
  186.5220  178.4020  141.8150 N   0  0  0  0  0  0  0  0  0  0  0  0
  189.5550  177.7990  144.7150 C   0  0  0  0  0  2  0  0  0  0  0  0
  182.9080  178.7720  143.0940 C   0  0  0  0  0  0  0  0  0  0  0  0
  191.3710  177.7970  143.0150 C   0  0  0  0  0  1  0  0  0  0  0  0
  185.3560  179.2160  139.7870 C   0  0  1  0  0  3  0  0  0  0  0  0
  184.9120  176.9130  137.1030 O   0  0  0  0  0  0  0  0  0  0  0  0
  186.6660  178.7160  140.3740 C   0  0  2  0  0  3  0  0  0  0  0  0
  182.9200  178.7580  144.5720 C   0  0  0  0  0  3  0  0  0  0  0  0
  190.0120  177.9200  138.7760 O   0  0  0  0  0  0  0  0  0  0  0  0
  189.1100  178.1850  137.9380 C   0  0  0  0  0  3  0  0  0  0  0  0
  180.7700  180.0870  143.0380 C   0  0  0  0  0  3  0  0  0  0  0  0
  181.5560  179.0380  142.5370 C   0  0  0  0  0  0  0  0  0  0  0  0
  181.0520  178.2770  141.4730 C   0  0  0  0  0  3  0  0  0  0  0  0
  179.1540  177.5990  139.6280 Cl  0  0  0  0  0  0  0  0  0  0  0  0
  179.0410  179.6020  141.4860 C   0  0  0  0  0  3  0  0  0  0  0  0
  179.7900  178.5550  140.9480 C   0  0  0  0  0  0  0  0  0  0  0  0
  179.5430  180.3410  142.5100 N   0  0  0  0  0  0  0  0  0  0  0  0
  1 27  1  0  0  0  0
  2 22  1  0  0  0  0
  3 20  1  0  0  0  0
  4  1  1  0  0  0  0
  5 10  1  0  0  0  0
  6 11  2  0  0  0  0
  7  3  2  0  0  0  0
  9  3  1  0  0  0  0
  9  6  1  0  0  0  0
 10  7  1  0  0  0  0
 10 23  2  0  0  0  0
 11 16  1  0  0  0  0
 12  8  1  0  0  0  0
 12  4  1  0  0  0  0
 13  9  2  0  0  0  0
 14  2  1  0  0  0  0
 17 13  1  0  0  0  0
 17  2  1  0  0  0  0
 18  8  1  6  0  0  0
 18 25  1  0  0  0  0
 18 19  1  0  0  0  0
 19  5  1  1  0  0  0
 20 15  1  0  0  0  0
 20 16  2  0  0  0  0
 21 13  1  0  0  0  0
 21  7  1  0  0  0  0
 22  6  1  0  0  0  0
 23 28  1  0  0  0  0
 24  2  1  0  0  0  0
 25 19  1  0  0  0  0
 25 27  1  0  0  0  0
 26  8  2  0  0  0  0
 27 21  1  0  0  0  0
 28 15  2  0  0  0  0
 30  4  1  0  0  0  0
 30 29  2  0  0  0  0
 32 31  1  0  0  0  0
 32 23  1  0  0  0  0
 33 32  2  0  0  0  0
 34 36  1  0  0  0  0
 35 37  1  0  0  0  0
 36 33  1  0  0  0  0
 36 35  2  0  0  0  0
 37 31  2  0  0  0  0
M  END
>  <MODEL>
2

>  <REMARK>
 VINA RESULT:     -11.0      0.965      1.017
  Name = 
  1 active torsions:
  status: ('A' for Active; 'I' for Inactive)
    1  A    between atoms: C_23  and  C_30
                            x       y       z     vdW  Elec       q    Type
                         _______ _______ _______ _____ _____    ______ ____

>  <TORSDO>
F 1

$$$$
=
 OpenBabel11122411313D

 37 44  0  0  1  0  0  0  0  0999 V2000
  188.9220  177.8650  141.2420 C   0  0  0  0  0  2  0  0  0  0  0  0
  184.6240  178.6970  142.1190 C   0  0  0  0  0  0  0  0  0  0  0  0
  186.9910  177.8780  145.4660 C   0  0  0  0  0  0  0  0  0  0  0  0
  189.4790  177.2400  140.0410 N   0  0  0  0  0  0  0  0  0  0  0  0
  190.7010  177.1180  144.8220 O   0  0  0  0  0  0  0  0  0  0  0  0
  184.7780  178.4790  144.6570 C   0  0  0  0  0  0  0  0  0  0  0  0
  188.1750  177.4540  144.8520 C   0  0  0  0  0  0  0  0  0  0  0  0
  191.6500  177.1120  141.1830 C   0  0  0  0  0  0  0  0  0  0  0  0
  186.0830  178.0700  144.4680 C   0  0  0  0  0  0  0  0  0  0  0  0
  189.5030  177.1940  145.5630 C   0  0  0  0  0  0  0  0  0  0  0  0
  184.3550  178.6910  145.9750 C   0  0  0  0  0  3  0  0  0  0  0  0
  190.8200  176.6580  140.0180 C   0  0  0  0  0  2  0  0  0  0  0  0
  186.6480  177.7640  143.2880 C   0  0  0  0  0  0  0  0  0  0  0  0
  185.0820  180.1350  141.9450 C   0  0  0  0  0  1  0  0  0  0  0  0
  187.4090  177.7300  147.9450 C   0  0  0  0  0  3  0  0  0  0  0  0
  185.2640  178.4810  147.0360 C   0  0  0  0  0  3  0  0  0  0  0  0
  185.8490  177.7520  142.0140 C   0  0  0  0  0  2  0  0  0  0  0  0
  191.4840  176.4820  142.5360 C   0  0  1  0  0  3  0  0  0  0  0  0
  190.7160  177.3970  143.4510 C   0  0  1  0  0  3  0  0  0  0  0  0
  186.5920  178.0620  146.7920 C   0  0  0  0  0  0  0  0  0  0  0  0
  187.9270  177.3660  143.4800 N   0  0  0  0  0  0  0  0  0  0  0  0
  183.8590  178.5600  143.4640 C   0  0  0  0  0  2  0  0  0  0  0  0
  189.6560  177.0460  146.9070 C   0  0  0  0  0  0  0  0  0  0  0  0
  183.6710  178.3690  140.9910 C   0  0  0  0  0  1  0  0  0  0  0  0
  190.0190  176.1860  142.8750 C   0  0  1  0  0  3  0  0  0  0  0  0
  192.4640  178.0070  141.0280 O   0  0  0  0  0  0  0  0  0  0  0  0
  188.7410  176.8310  142.3640 C   0  0  2  0  0  3  0  0  0  0  0  0
  188.6610  177.2980  147.9700 C   0  0  0  0  0  3  0  0  0  0  0  0
  187.4800  177.5080  138.8520 O   0  0  0  0  0  0  0  0  0  0  0  0
  188.6610  177.0720  138.8820 C   0  0  0  0  0  3  0  0  0  0  0  0
  191.6890  175.5730  146.8690 C   0  0  0  0  0  3  0  0  0  0  0  0
  190.9780  176.6340  147.4490 C   0  0  0  0  0  0  0  0  0  0  0  0
  191.5640  177.3220  148.5210 C   0  0  0  0  0  3  0  0  0  0  0  0
  193.5420  177.7850  150.3480 Cl  0  0  0  0  0  0  0  0  0  0  0  0
  193.4790  175.8670  148.4000 C   0  0  0  0  0  3  0  0  0  0  0  0
  192.8150  176.9360  149.0020 C   0  0  0  0  0  0  0  0  0  0  0  0
  192.9080  175.2150  147.3530 N   0  0  0  0  0  0  0  0  0  0  0  0
  1 27  1  0  0  0  0
  2 22  1  0  0  0  0
  3 20  1  0  0  0  0
  4  1  1  0  0  0  0
  5 10  1  0  0  0  0
  6 11  2  0  0  0  0
  7  3  2  0  0  0  0
  7 10  1  0  0  0  0
  9  6  1  0  0  0  0
  9  3  1  0  0  0  0
 10 23  2  0  0  0  0
 11 16  1  0  0  0  0
 12  4  1  0  0  0  0
 12  8  1  0  0  0  0
 13 21  1  0  0  0  0
 13  9  2  0  0  0  0
 14  2  1  0  0  0  0
 15 28  2  0  0  0  0
 17  2  1  0  0  0  0
 17 13  1  0  0  0  0
 18  8  1  6  0  0  0
 18 25  1  0  0  0  0
 18 19  1  0  0  0  0
 19  5  1  1  0  0  0
 20 16  2  0  0  0  0
 20 15  1  0  0  0  0
 21  7  1  0  0  0  0
 22  6  1  0  0  0  0
 23 32  1  0  0  0  0
 23 28  1  0  0  0  0
 24  2  1  0  0  0  0
 25 19  1  0  0  0  0
 26  8  2  0  0  0  0
 27 25  1  0  0  0  0
 27 21  1  0  0  0  0
 29 30  2  0  0  0  0
 30  4  1  0  0  0  0
 31 37  2  0  0  0  0
 31 32  1  0  0  0  0
 32 33  2  0  0  0  0
 33 36  1  0  0  0  0
 35 36  2  0  0  0  0
 36 34  1  0  0  0  0
 37 35  1  0  0  0  0
M  END
>  <MODEL>
3

>  <REMARK>
 VINA RESULT:     -10.6      3.992      7.673
  Name = 
  1 active torsions:
  status: ('A' for Active; 'I' for Inactive)
    1  A    between atoms: C_23  and  C_30
                            x       y       z     vdW  Elec       q    Type
                         _______ _______ _______ _____ _____    ______ ____

>  <TORSDO>
F 1

$$$$
=
 OpenBabel11122411313D

 37 44  0  0  1  0  0  0  0  0999 V2000
  189.0820  176.8740  138.9040 C   0  0  0  0  0  2  0  0  0  0  0  0
  190.1550  176.9740  143.2360 C   0  0  0  0  0  0  0  0  0  0  0  0
  186.2530  178.1810  142.3480 C   0  0  0  0  0  0  0  0  0  0  0  0
  189.9700  177.0960  137.7630 N   0  0  0  0  0  0  0  0  0  0  0  0
  185.2320  178.1620  138.6450 O   0  0  0  0  0  0  0  0  0  0  0  0
  187.8880  177.7660  144.1000 C   0  0  0  0  0  0  0  0  0  0  0  0
  186.3120  178.2510  140.9520 C   0  0  0  0  0  0  0  0  0  0  0  0
  187.9950  177.1450  136.3050 C   0  0  0  0  0  0  0  0  0  0  0  0
  187.5160  177.9030  142.7770 C   0  0  0  0  0  0  0  0  0  0  0  0
  185.1180  178.4580  140.0190 C   0  0  0  0  0  0  0  0  0  0  0  0
  186.8940  177.9460  145.0690 C   0  0  0  0  0  3  0  0  0  0  0  0
  189.4620  177.4340  136.4340 C   0  0  0  0  0  2  0  0  0  0  0  0
  188.3390  177.8240  141.7170 C   0  0  0  0  0  0  0  0  0  0  0  0
  189.8930  175.4820  143.1230 C   0  0  0  0  0  1  0  0  0  0  0  0
  183.9060  178.8500  142.9730 C   0  0  0  0  0  3  0  0  0  0  0  0
  185.5770  178.2550  144.6620 C   0  0  0  0  0  3  0  0  0  0  0  0
  189.8240  177.6580  141.8850 C   0  0  0  0  0  2  0  0  0  0  0  0
  186.9730  178.0990  136.8540 C   0  0  1  0  0  3  0  0  0  0  0  0
  186.3890  177.5640  138.1330 C   0  0  1  0  0  3  0  0  0  0  0  0
  185.2450  178.3860  143.2930 C   0  0  0  0  0  0  0  0  0  0  0  0
  187.6420  178.0470  140.5780 N   0  0  0  0  0  0  0  0  0  0  0  0
  189.3440  177.5500  144.4300 C   0  0  0  0  0  2  0  0  0  0  0  0
  183.8890  178.8970  140.4060 C   0  0  0  0  0  0  0  0  0  0  0  0
  191.6290  177.1710  143.5210 C   0  0  0  0  0  1  0  0  0  0  0  0
  187.3870  178.6970  138.2030 C   0  0  1  0  0  3  0  0  0  0  0  0
  187.6300  176.1210  135.7510 O   0  0  0  0  0  0  0  0  0  0  0  0
  188.3270  178.1620  139.2700 C   0  0  2  0  0  3  0  0  0  0  0  0
  183.3740  179.0690  141.7800 C   0  0  0  0  0  3  0  0  0  0  0  0
  191.8900  176.8750  139.0860 O   0  0  0  0  0  0  0  0  0  0  0  0
  191.3860  177.1100  137.9560 C   0  0  0  0  0  3  0  0  0  0  0  0
  182.1390  178.1830  138.7540 C   0  0  0  0  0  3  0  0  0  0  0  0
  182.8690  179.2100  139.3710 C   0  0  0  0  0  0  0  0  0  0  0  0
  182.5830  180.5360  139.0180 C   0  0  0  0  0  3  0  0  0  0  0  0
  181.2560  182.4660  137.6110 Cl  0  0  0  0  0  0  0  0  0  0  0  0
  180.9130  179.7560  137.4670 C   0  0  0  0  0  3  0  0  0  0  0  0
  181.6070  180.8120  138.0610 C   0  0  0  0  0  0  0  0  0  0  0  0
  181.1910  178.4750  137.8240 N   0  0  0  0  0  0  0  0  0  0  0  0
  1 27  1  0  0  0  0
  2 24  1  0  0  0  0
  2 22  1  0  0  0  0
  3  9  1  0  0  0  0
  3 20  1  0  0  0  0
  4 30  1  0  0  0  0
  4  1  1  0  0  0  0
  5 10  1  0  0  0  0
  6 22  1  0  0  0  0
  6 11  2  0  0  0  0
  7  3  2  0  0  0  0
  8 12  1  0  0  0  0
  9  6  1  0  0  0  0
 10 23  2  0  0  0  0
 10  7  1  0  0  0  0
 12  4  1  0  0  0  0
 13 17  1  0  0  0  0
 13  9  2  0  0  0  0
 14  2  1  0  0  0  0
 15 20  1  0  0  0  0
 16 11  1  0  0  0  0
 17  2  1  0  0  0  0
 18  8  1  1  0  0  0
 18 19  1  0  0  0  0
 18 25  1  0  0  0  0
 19 25  1  0  0  0  0
 19  5  1  6  0  0  0
 20 16  2  0  0  0  0
 21  7  1  0  0  0  0
 21 13  1  0  0  0  0
 23 28  1  0  0  0  0
 25 27  1  0  0  0  0
 26  8  2  0  0  0  0
 27 21  1  0  0  0  0
 28 15  2  0  0  0  0
 30 29  2  0  0  0  0
 31 32  1  0  0  0  0
 32 23  1  0  0  0  0
 33 32  2  0  0  0  0
 34 36  1  0  0  0  0
 35 37  1  0  0  0  0
 35 36  2  0  0  0  0
 36 33  1  0  0  0  0
 37 31  2  0  0  0  0
M  END
>  <MODEL>
4

>  <REMARK>
 VINA RESULT:     -10.5      2.134      3.116
  Name = 
  1 active torsions:
  status: ('A' for Active; 'I' for Inactive)
    1  A    between atoms: C_23  and  C_30
                            x       y       z     vdW  Elec       q    Type
                         _______ _______ _______ _____ _____    ______ ____

>  <TORSDO>
F 1

$$$$
=
 OpenBabel11122411313D

 37 44  0  0  1  0  0  0  0  0999 V2000
  183.7530  179.2220  142.3120 C   0  0  0  0  0  2  0  0  0  0  0  0
  185.6790  178.3440  146.2420 C   0  0  0  0  0  0  0  0  0  0  0  0
  188.1310  177.7880  142.9020 C   0  0  0  0  0  0  0  0  0  0  0  0
  182.3420  179.0600  141.9570 N   0  0  0  0  0  0  0  0  0  0  0  0
  186.5650  178.4880  139.4650 O   0  0  0  0  0  0  0  0  0  0  0  0
  187.9810  177.7270  145.3290 C   0  0  0  0  0  0  0  0  0  0  0  0
  187.1980  177.9200  141.8680 C   0  0  0  0  0  0  0  0  0  0  0  0
  182.9400  179.4800  139.6120 C   0  0  0  0  0  0  0  0  0  0  0  0
  187.4280  177.8360  144.0680 C   0  0  0  0  0  0  0  0  0  0  0  0
  187.5280  178.0070  140.3770 C   0  0  0  0  0  0  0  0  0  0  0  0
  189.3650  177.5330  145.4080 C   0  0  0  0  0  3  0  0  0  0  0  0
  181.8910  178.9920  140.5670 C   0  0  0  0  0  2  0  0  0  0  0  0
  186.1180  177.9670  143.7930 C   0  0  0  0  0  0  0  0  0  0  0  0
  185.8030  179.8570  146.2850 C   0  0  0  0  0  1  0  0  0  0  0  0
  190.3420  177.3390  141.7830 C   0  0  0  0  0  3  0  0  0  0  0  0
  190.1240  177.4580  144.2190 C   0  0  0  0  0  3  0  0  0  0  0  0
  185.0790  177.9150  144.8780 C   0  0  0  0  0  2  0  0  0  0  0  0
  184.0820  178.5940  139.2050 C   0  0  1  0  0  3  0  0  0  0  0  0
  185.3440  179.0030  139.9150 C   0  0  1  0  0  3  0  0  0  0  0  0
  189.5110  177.5750  142.9490 C   0  0  0  0  0  0  0  0  0  0  0  0
  185.9330  178.0060  142.4530 N   0  0  0  0  0  0  0  0  0  0  0  0
  187.0660  177.7050  146.5280 C   0  0  0  0  0  2  0  0  0  0  0  0
  188.7230  177.6760  139.8180 C   0  0  0  0  0  0  0  0  0  0  0  0
  184.7240  177.9210  147.3370 C   0  0  0  0  0  1  0  0  0  0  0  0
  184.6220  177.7540  140.3670 C   0  0  1  0  0  3  0  0  0  0  0  0
  182.8660  180.6140  139.1660 O   0  0  0  0  0  0  0  0  0  0  0  0
  184.5730  178.0010  141.8660 C   0  0  2  0  0  3  0  0  0  0  0  0
  189.9950  177.3680  140.5050 C   0  0  0  0  0  3  0  0  0  0  0  0
  181.7010  178.8370  144.1980 O   0  0  0  0  0  0  0  0  0  0  0  0
  181.3730  178.8380  142.9820 C   0  0  0  0  0  3  0  0  0  0  0  0
  189.1090  178.8340  137.6250 C   0  0  0  0  0  3  0  0  0  0  0  0
  188.8540  177.6530  138.3380 C   0  0  0  0  0  0  0  0  0  0  0  0
  188.7680  176.4490  137.6250 C   0  0  0  0  0  3  0  0  0  0  0  0
  188.7970  174.9430  135.3450 Cl  0  0  0  0  0  0  0  0  0  0  0  0
  189.1580  177.6450  135.5710 C   0  0  0  0  0  3  0  0  0  0  0  0
  188.9150  176.4430  136.2380 C   0  0  0  0  0  0  0  0  0  0  0  0
  189.2510  178.8050  136.2720 N   0  0  0  0  0  0  0  0  0  0  0  0
  2 14  1  0  0  0  0
  2 22  1  0  0  0  0
  2 24  1  0  0  0  0
  3 20  1  0  0  0  0
  3  9  1  0  0  0  0
  4  1  1  0  0  0  0
  4 30  1  0  0  0  0
  5 10  1  0  0  0  0
  6 11  2  0  0  0  0
  6 22  1  0  0  0  0
  7 21  1  0  0  0  0
  7  3  2  0  0  0  0
  8 12  1  0  0  0  0
  9  6  1  0  0  0  0
 10  7  1  0  0  0  0
 12  4  1  0  0  0  0
 13  9  2  0  0  0  0
 13 17  1  0  0  0  0
 15 20  1  0  0  0  0
 16 11  1  0  0  0  0
 17  2  1  0  0  0  0
 18  8  1  1  0  0  0
 18 19  1  0  0  0  0
 18 25  1  0  0  0  0
 19  5  1  6  0  0  0
 19 25  1  0  0  0  0
 20 16  2  0  0  0  0
 21 13  1  0  0  0  0
 23 10  2  0  0  0  0
 23 28  1  0  0  0  0
 25 27  1  0  0  0  0
 26  8  2  0  0  0  0
 27  1  1  0  0  0  0
 27 21  1  0  0  0  0
 28 15  2  0  0  0  0
 30 29  2  0  0  0  0
 31 32  1  0  0  0  0
 32 23  1  0  0  0  0
 33 32  2  0  0  0  0
 34 36  1  0  0  0  0
 35 36  2  0  0  0  0
 35 37  1  0  0  0  0
 36 33  1  0  0  0  0
 37 31  2  0  0  0  0
M  END
>  <MODEL>
5

>  <REMARK>
 VINA RESULT:     -10.1      2.589      6.580
  Name = 
  1 active torsions:
  status: ('A' for Active; 'I' for Inactive)
    1  A    between atoms: C_23  and  C_30
                            x       y       z     vdW  Elec       q    Type
                         _______ _______ _______ _____ _____    ______ ____

>  <TORSDO>
F 1

$$$$
=
 OpenBabel11122411313D

 37 44  0  0  1  0  0  0  0  0999 V2000
  186.7470  178.7330  144.6360 C   0  0  0  0  0  2  0  0  0  0  0  0
  190.9670  177.5430  143.7990 C   0  0  0  0  0  0  0  0  0  0  0  0
  188.5170  177.8740  140.4280 C   0  0  0  0  0  0  0  0  0  0  0  0
  185.9560  178.4250  145.8290 N   0  0  0  0  0  0  0  0  0  0  0  0
  184.8560  178.8650  141.0370 O   0  0  0  0  0  0  0  0  0  0  0  0
  190.7560  177.4160  141.2590 C   0  0  0  0  0  0  0  0  0  0  0  0
  187.2630  178.0290  141.0310 C   0  0  0  0  0  0  0  0  0  0  0  0
  183.9710  179.2870  144.6680 C   0  0  0  0  0  0  0  0  0  0  0  0
  189.4050  177.6380  141.4350 C   0  0  0  0  0  0  0  0  0  0  0  0
  185.9670  178.3930  140.3070 C   0  0  0  0  0  0  0  0  0  0  0  0
  191.2420  177.4140  139.9460 C   0  0  0  0  0  3  0  0  0  0  0  0
  184.4960  178.5090  145.8390 C   0  0  0  0  0  2  0  0  0  0  0  0
  188.7510  177.6190  142.6090 C   0  0  0  0  0  0  0  0  0  0  0  0
  191.2040  179.0330  143.9750 C   0  0  0  0  0  1  0  0  0  0  0  0
  188.1010  177.9290  137.9450 C   0  0  0  0  0  3  0  0  0  0  0  0
  190.3460  177.6360  138.8750 C   0  0  0  0  0  3  0  0  0  0  0  0
  189.4480  177.2490  143.8900 C   0  0  0  0  0  2  0  0  0  0  0  0
  183.8490  178.6490  143.3140 C   0  0  1  0  0  3  0  0  0  0  0  0
  184.9540  179.1210  142.4090 C   0  0  1  0  0  3  0  0  0  0  0  0
  188.9680  177.8590  139.1070 C   0  0  0  0  0  0  0  0  0  0  0  0
  187.4320  177.8380  142.4040 N   0  0  0  0  0  0  0  0  0  0  0  0
  191.6020  177.0750  142.4600 C   0  0  0  0  0  2  0  0  0  0  0  0
  185.7760  178.3300  138.9610 C   0  0  0  0  0  0  0  0  0  0  0  0
  191.6610  176.8200  144.9340 C   0  0  0  0  0  1  0  0  0  0  0  0
  185.0280  177.7260  142.9860 C   0  0  1  0  0  3  0  0  0  0  0  0
  183.6450  180.4530  144.8190 O   0  0  0  0  0  0  0  0  0  0  0  0
  186.4540  177.7280  143.5110 C   0  0  2  0  0  3  0  0  0  0  0  0
  186.7880  178.1060  137.9080 C   0  0  0  0  0  3  0  0  0  0  0  0
  187.8510  177.7660  147.0370 O   0  0  0  0  0  0  0  0  0  0  0  0
  186.6000  177.9080  146.9940 C   0  0  0  0  0  3  0  0  0  0  0  0
  183.8230  177.6100  137.5580 C   0  0  0  0  0  3  0  0  0  0  0  0
  184.4160  178.5560  138.4070 C   0  0  0  0  0  0  0  0  0  0  0  0
  183.6780  179.6980  138.7520 C   0  0  0  0  0  3  0  0  0  0  0  0
  181.4750  181.3130  138.6590 Cl  0  0  0  0  0  0  0  0  0  0  0  0
  181.8500  178.9190  137.3900 C   0  0  0  0  0  3  0  0  0  0  0  0
  182.3940  179.8840  138.2400 C   0  0  0  0  0  0  0  0  0  0  0  0
  182.5690  177.8110  137.0710 N   0  0  0  0  0  0  0  0  0  0  0  0
  1  4  1  0  0  0  0
  2 17  1  0  0  0  0
  2 14  1  0  0  0  0
  2 24  1  0  0  0  0
  3  7  2  0  0  0  0
  3  9  1  0  0  0  0
  4 12  1  0  0  0  0
  4 30  1  0  0  0  0
  6  9  1  0  0  0  0
  6 22  1  0  0  0  0
  7 21  1  0  0  0  0
  8 26  2  0  0  0  0
  8 12  1  0  0  0  0
  9 13  2  0  0  0  0
 10  7  1  0  0  0  0
 10  5  1  0  0  0  0
 11  6  2  0  0  0  0
 13 17  1  0  0  0  0
 15 20  1  0  0  0  0
 16 20  2  0  0  0  0
 16 11  1  0  0  0  0
 18  8  1  1  0  0  0
 19  5  1  6  0  0  0
 19 25  1  0  0  0  0
 19 18  1  0  0  0  0
 20  3  1  0  0  0  0
 21 13  1  0  0  0  0
 21 27  1  0  0  0  0
 22  2  1  0  0  0  0
 23 10  2  0  0  0  0
 25 18  1  0  0  0  0
 25 27  1  0  0  0  0
 27  1  1  0  0  0  0
 28 15  2  0  0  0  0
 28 23  1  0  0  0  0
 30 29  2  0  0  0  0
 31 32  1  0  0  0  0
 32 33  2  0  0  0  0
 32 23  1  0  0  0  0
 35 36  2  0  0  0  0
 36 34  1  0  0  0  0
 36 33  1  0  0  0  0
 37 35  1  0  0  0  0
 37 31  2  0  0  0  0
M  END
>  <MODEL>
6

>  <REMARK>
 VINA RESULT:      -9.9      2.404      5.579
  Name = 
  1 active torsions:
  status: ('A' for Active; 'I' for Inactive)
    1  A    between atoms: C_23  and  C_30
                            x       y       z     vdW  Elec       q    Type
                         _______ _______ _______ _____ _____    ______ ____

>  <TORSDO>
F 1

$$$$
=
 OpenBabel11122411313D

 37 44  0  0  1  0  0  0  0  0999 V2000
  188.2860  177.8760  140.2760 C   0  0  0  0  0  2  0  0  0  0  0  0
  183.8670  178.4960  140.1700 C   0  0  0  0  0  0  0  0  0  0  0  0
  185.5420  178.3270  143.9960 C   0  0  0  0  0  0  0  0  0  0  0  0
  189.1040  177.1350  139.3140 N   0  0  0  0  0  0  0  0  0  0  0  0
  189.3370  177.7670  144.2040 O   0  0  0  0  0  0  0  0  0  0  0  0
  183.5130  178.6420  142.6930 C   0  0  0  0  0  0  0  0  0  0  0  0
  186.8440  177.9130  143.6930 C   0  0  0  0  0  0  0  0  0  0  0  0
  191.0020  177.3290  140.8600 C   0  0  0  0  0  0  0  0  0  0  0  0
  184.8470  178.3110  142.8240 C   0  0  0  0  0  0  0  0  0  0  0  0
  188.0120  177.8540  144.6790 C   0  0  0  0  0  0  0  0  0  0  0  0
  182.8230  179.0020  143.8560 C   0  0  0  0  0  3  0  0  0  0  0  0
  190.4480  176.6570  139.6380 C   0  0  0  0  0  2  0  0  0  0  0  0
  185.6530  177.8870  141.8340 C   0  0  0  0  0  0  0  0  0  0  0  0
  184.2830  179.9260  139.8730 C   0  0  0  0  0  1  0  0  0  0  0  0
  185.4560  178.5550  146.5020 C   0  0  0  0  0  3  0  0  0  0  0  0
  183.5070  179.0100  145.0930 C   0  0  0  0  0  3  0  0  0  0  0  0
  185.1290  177.6400  140.4470 C   0  0  0  0  0  2  0  0  0  0  0  0
  190.5950  176.8820  142.2340 C   0  0  1  0  0  3  0  0  0  0  0  0
  189.6170  177.8540  142.8360 C   0  0  1  0  0  3  0  0  0  0  0  0
  184.8750  178.6620  145.1760 C   0  0  0  0  0  0  0  0  0  0  0  0
  186.8830  177.6170  142.3290 N   0  0  0  0  0  0  0  0  0  0  0  0
  182.8520  178.4880  141.3460 C   0  0  0  0  0  2  0  0  0  0  0  0
  187.8960  177.9050  146.0340 C   0  0  0  0  0  0  0  0  0  0  0  0
  183.1780  177.9440  138.9410 C   0  0  0  0  0  1  0  0  0  0  0  0
  189.1060  176.5260  142.3240 C   0  0  1  0  0  3  0  0  0  0  0  0
  191.7890  178.2530  140.7330 O   0  0  0  0  0  0  0  0  0  0  0  0
  187.9300  176.9960  141.4850 C   0  0  2  0  0  3  0  0  0  0  0  0
  186.6960  178.2260  146.8340 C   0  0  0  0  0  3  0  0  0  0  0  0
  187.3770  177.0840  137.7330 O   0  0  0  0  0  0  0  0  0  0  0  0
  188.5460  176.7470  138.0570 C   0  0  0  0  0  3  0  0  0  0  0  0
  189.2530  178.3390  148.1010 C   0  0  0  0  0  3  0  0  0  0  0  0
  189.0980  177.6730  146.8760 C   0  0  0  0  0  0  0  0  0  0  0  0
  190.0830  176.7530  146.4890 C   0  0  0  0  0  3  0  0  0  0  0  0
  192.4300  175.3920  146.8170 Cl  0  0  0  0  0  0  0  0  0  0  0  0
  191.3090  177.2260  148.5080 C   0  0  0  0  0  3  0  0  0  0  0  0
  191.1940  176.5310  147.3030 C   0  0  0  0  0  0  0  0  0  0  0  0
  190.3430  178.1070  148.8790 N   0  0  0  0  0  0  0  0  0  0  0  0
  1 27  1  0  0  0  0
  2 17  1  0  0  0  0
  2 22  1  0  0  0  0
  3 20  1  0  0  0  0
  4 12  1  0  0  0  0
  4  1  1  0  0  0  0
  5 10  1  0  0  0  0
  6  9  1  0  0  0  0
  6 11  2  0  0  0  0
  7  3  2  0  0  0  0
  7 10  1  0  0  0  0
  9  3  1  0  0  0  0
 10 23  2  0  0  0  0
 11 16  1  0  0  0  0
 12  8  1  0  0  0  0
 13 21  1  0  0  0  0
 13  9  2  0  0  0  0
 14  2  1  0  0  0  0
 15 28  2  0  0  0  0
 16 20  2  0  0  0  0
 17 13  1  0  0  0  0
 18  8  1  6  0  0  0
 18 25  1  0  0  0  0
 18 19  1  0  0  0  0
 19  5  1  1  0  0  0
 20 15  1  0  0  0  0
 21  7  1  0  0  0  0
 22  6  1  0  0  0  0
 23 28  1  0  0  0  0
 23 32  1  0  0  0  0
 24  2  1  0  0  0  0
 25 19  1  0  0  0  0
 26  8  2  0  0  0  0
 27 25  1  0  0  0  0
 27 21  1  0  0  0  0
 29 30  2  0  0  0  0
 30  4  1  0  0  0  0
 31 37  1  0  0  0  0
 32 31  2  0  0  0  0
 33 32  1  0  0  0  0
 33 36  2  0  0  0  0
 34 36  1  0  0  0  0
 35 37  2  0  0  0  0
 36 35  1  0  0  0  0
M  END
>  <MODEL>
7

>  <REMARK>
 VINA RESULT:      -9.6      3.363      6.847
  Name = 
  1 active torsions:
  status: ('A' for Active; 'I' for Inactive)
    1  A    between atoms: C_23  and  C_30
                            x       y       z     vdW  Elec       q    Type
                         _______ _______ _______ _____ _____    ______ ____

>  <TORSDO>
F 1

$$$$
=
 OpenBabel11122411313D

 37 44  0  0  1  0  0  0  0  0999 V2000
  188.1350  178.2480  145.5520 C   0  0  0  0  0  2  0  0  0  0  0  0
  191.2730  177.1810  142.5620 C   0  0  0  0  0  0  0  0  0  0  0  0
  187.5050  178.0180  140.9560 C   0  0  0  0  0  0  0  0  0  0  0  0
  188.0210  177.7690  146.9310 N   0  0  0  0  0  0  0  0  0  0  0  0
  184.7210  178.9190  143.4450 O   0  0  0  0  0  0  0  0  0  0  0  0
  189.8180  177.4340  140.4810 C   0  0  0  0  0  0  0  0  0  0  0  0
  186.7330  178.0850  142.1220 C   0  0  0  0  0  0  0  0  0  0  0  0
  185.7950  178.8000  147.0470 C   0  0  0  0  0  0  0  0  0  0  0  0
  188.7550  177.6320  141.3400 C   0  0  0  0  0  0  0  0  0  0  0  0
  185.2810  178.5580  142.2020 C   0  0  0  0  0  0  0  0  0  0  0  0
  189.5840  177.6260  139.1140 C   0  0  0  0  0  3  0  0  0  0  0  0
  186.7710  177.8550  147.6850 C   0  0  0  0  0  2  0  0  0  0  0  0
  188.7720  177.4400  142.6700 C   0  0  0  0  0  0  0  0  0  0  0  0
  191.6810  178.6280  142.7820 C   0  0  0  0  0  1  0  0  0  0  0  0
  185.9150  178.4430  139.0500 C   0  0  0  0  0  3  0  0  0  0  0  0
  188.2950  178.0070  138.6780 C   0  0  0  0  0  3  0  0  0  0  0  0
  189.9820  176.8820  143.3670 C   0  0  0  0  0  2  0  0  0  0  0  0
  184.9670  178.3710  145.8700 C   0  0  1  0  0  3  0  0  0  0  0  0
  185.5080  178.9680  144.6000 C   0  0  1  0  0  3  0  0  0  0  0  0
  187.2370  178.1970  139.5970 C   0  0  0  0  0  0  0  0  0  0  0  0
  187.5470  177.6930  143.1860 N   0  0  0  0  0  0  0  0  0  0  0  0
  191.1190  176.9160  141.0390 C   0  0  0  0  0  2  0  0  0  0  0  0
  184.4420  178.6950  141.1390 C   0  0  0  0  0  0  0  0  0  0  0  0
  192.3800  176.2960  143.0920 C   0  0  0  0  0  1  0  0  0  0  0  0
  185.7510  177.5030  144.8800 C   0  0  1  0  0  3  0  0  0  0  0  0
  185.6790  179.9310  147.4880 O   0  0  0  0  0  0  0  0  0  0  0  0
  187.2440  177.4220  144.6110 C   0  0  2  0  0  3  0  0  0  0  0  0
  184.7760  178.6280  139.7010 C   0  0  0  0  0  3  0  0  0  0  0  0
  190.2080  176.9310  146.9260 O   0  0  0  0  0  0  0  0  0  0  0  0
  189.1170  177.0820  147.5380 C   0  0  0  0  0  3  0  0  0  0  0  0
  182.2200  179.5670  140.3630 C   0  0  0  0  0  3  0  0  0  0  0  0
  183.0090  179.0060  141.3790 C   0  0  0  0  0  0  0  0  0  0  0  0
  182.4020  178.7090  142.6070 C   0  0  0  0  0  3  0  0  0  0  0  0
  180.2930  178.6280  144.3430 Cl  0  0  0  0  0  0  0  0  0  0  0  0
  180.3080  179.5550  141.7710 C   0  0  0  0  0  3  0  0  0  0  0  0
  181.0500  178.9870  142.8070 C   0  0  0  0  0  0  0  0  0  0  0  0
  180.9030  179.8280  140.5800 N   0  0  0  0  0  0  0  0  0  0  0  0
  1  4  1  0  0  0  0
  2 14  1  0  0  0  0
  2 24  1  0  0  0  0
  2 17  1  0  0  0  0
  3  9  1  0  0  0  0
  3  7  2  0  0  0  0
  4 30  1  0  0  0  0
  4 12  1  0  0  0  0
  6 22  1  0  0  0  0
  6  9  1  0  0  0  0
  7 10  1  0  0  0  0
  7 21  1  0  0  0  0
  8 26  2  0  0  0  0
  8 12  1  0  0  0  0
  9 13  2  0  0  0  0
 10  5  1  0  0  0  0
 11  6  2  0  0  0  0
 13 21  1  0  0  0  0
 13 17  1  0  0  0  0
 15 20  1  0  0  0  0
 15 28  2  0  0  0  0
 16 11  1  0  0  0  0
 16 20  2  0  0  0  0
 18  8  1  1  0  0  0
 19  5  1  6  0  0  0
 19 25  1  0  0  0  0
 19 18  1  0  0  0  0
 20  3  1  0  0  0  0
 21 27  1  0  0  0  0
 22  2  1  0  0  0  0
 23 32  1  0  0  0  0
 23 10  2  0  0  0  0
 25 18  1  0  0  0  0
 27 25  1  0  0  0  0
 27  1  1  0  0  0  0
 28 23  1  0  0  0  0
 29 30  2  0  0  0  0
 31 37  2  0  0  0  0
 31 32  1  0  0  0  0
 32 33  2  0  0  0  0
 33 36  1  0  0  0  0
 35 36  2  0  0  0  0
 36 34  1  0  0  0  0
 37 35  1  0  0  0  0
M  END
>  <MODEL>
8

>  <REMARK>
 VINA RESULT:      -9.4      2.474      5.414
  Name = 
  1 active torsions:
  status: ('A' for Active; 'I' for Inactive)
    1  A    between atoms: C_23  and  C_30
                            x       y       z     vdW  Elec       q    Type
                         _______ _______ _______ _____ _____    ______ ____

>  <TORSDO>
F 1

$$$$
=
 OpenBabel11122411313D

 37 44  0  0  1  0  0  0  0  0999 V2000
  189.5220  176.6230  145.4470 C   0  0  0  0  0  2  0  0  0  0  0  0
  185.5430  178.6180  145.7860 C   0  0  0  0  0  0  0  0  0  0  0  0
  186.9690  178.1580  141.8830 C   0  0  0  0  0  0  0  0  0  0  0  0
  190.6280  176.6750  146.4050 N   0  0  0  0  0  0  0  0  0  0  0  0
  190.4000  176.4790  141.4790 O   0  0  0  0  0  0  0  0  0  0  0  0
  185.1400  178.9330  143.2860 C   0  0  0  0  0  0  0  0  0  0  0  0
  188.2780  177.7290  142.1320 C   0  0  0  0  0  0  0  0  0  0  0  0
  192.0550  175.5810  144.7340 C   0  0  0  0  0  0  0  0  0  0  0  0
  186.4220  178.4580  143.0950 C   0  0  0  0  0  0  0  0  0  0  0  0
  189.2580  177.2050  141.0820 C   0  0  0  0  0  0  0  0  0  0  0  0
  184.3540  179.1390  142.1450 C   0  0  0  0  0  3  0  0  0  0  0  0
  191.9990  176.3320  146.0320 C   0  0  0  0  0  2  0  0  0  0  0  0
  187.3370  178.2540  144.0590 C   0  0  0  0  0  0  0  0  0  0  0  0
  185.0700  177.1840  145.9560 C   0  0  0  0  0  1  0  0  0  0  0  0
  186.7400  178.2530  139.3770 C   0  0  0  0  0  3  0  0  0  0  0  0
  184.8960  178.8580  140.8710 C   0  0  0  0  0  3  0  0  0  0  0  0
  187.0650  178.6260  145.4910 C   0  0  0  0  0  2  0  0  0  0  0  0
  191.9610  176.3050  143.4220 C   0  0  1  0  0  3  0  0  0  0  0  0
  190.5960  176.1220  142.8170 C   0  0  1  0  0  3  0  0  0  0  0  0
  186.2170  178.3730  140.7270 C   0  0  0  0  0  0  0  0  0  0  0  0
  188.4950  177.8220  143.5090 N   0  0  0  0  0  0  0  0  0  0  0  0
  184.7010  179.3100  144.6780 C   0  0  0  0  0  2  0  0  0  0  0  0
  189.1180  177.3540  139.7370 C   0  0  0  0  0  0  0  0  0  0  0  0
  185.3070  179.3470  147.0910 C   0  0  0  0  0  1  0  0  0  0  0  0
  190.9420  177.4500  143.4510 C   0  0  1  0  0  3  0  0  0  0  0  0
  192.1740  174.3670  144.7470 O   0  0  0  0  0  0  0  0  0  0  0  0
  189.7180  177.6560  144.3270 C   0  0  2  0  0  3  0  0  0  0  0  0
  187.9410  177.8480  138.9930 C   0  0  0  0  0  3  0  0  0  0  0  0
  189.2570  177.5510  148.0900 O   0  0  0  0  0  0  0  0  0  0  0  0
  190.4060  177.1930  147.7180 C   0  0  0  0  0  3  0  0  0  0  0  0
  191.5640  177.1550  139.2070 C   0  0  0  0  0  3  0  0  0  0  0  0
  190.2280  176.9390  138.8390 C   0  0  0  0  0  0  0  0  0  0  0  0
  189.9680  176.2850  137.6270 C   0  0  0  0  0  3  0  0  0  0  0  0
  190.6990  175.0760  135.2880 Cl  0  0  0  0  0  0  0  0  0  0  0  0
  192.3350  176.1280  137.2100 C   0  0  0  0  0  3  0  0  0  0  0  0
  191.0210  175.8820  136.8070 C   0  0  0  0  0  0  0  0  0  0  0  0
  192.5760  176.7530  138.3930 N   0  0  0  0  0  0  0  0  0  0  0  0
  1  4  1  0  0  0  0
  2 14  1  0  0  0  0
  2 24  1  0  0  0  0
  3  7  2  0  0  0  0
  3  9  1  0  0  0  0
  4 30  1  0  0  0  0
  6 22  1  0  0  0  0
  7 21  1  0  0  0  0
  8 26  2  0  0  0  0
  8 12  1  0  0  0  0
  9  6  1  0  0  0  0
  9 13  2  0  0  0  0
 10  5  1  0  0  0  0
 10  7  1  0  0  0  0
 11  6  2  0  0  0  0
 12  4  1  0  0  0  0
 13 17  1  0  0  0  0
 15 20  1  0  0  0  0
 16 11  1  0  0  0  0
 17  2  1  0  0  0  0
 18 25  1  0  0  0  0
 18  8  1  1  0  0  0
 19  5  1  6  0  0  0
 19 18  1  0  0  0  0
 19 25  1  0  0  0  0
 20 16  2  0  0  0  0
 20  3  1  0  0  0  0
 21 13  1  0  0  0  0
 21 27  1  0  0  0  0
 22  2  1  0  0  0  0
 23 10  2  0  0  0  0
 25 27  1  0  0  0  0
 27  1  1  0  0  0  0
 28 15  2  0  0  0  0
 28 23  1  0  0  0  0
 30 29  2  0  0  0  0
 32 31  1  0  0  0  0
 32 23  1  0  0  0  0
 33 32  2  0  0  0  0
 34 36  1  0  0  0  0
 35 37  1  0  0  0  0
 36 35  2  0  0  0  0
 36 33  1  0  0  0  0
 37 31  2  0  0  0  0
M  END
>  <MODEL>
9

>  <REMARK>
 VINA RESULT:      -9.0      3.808      8.244
  Name = 
  1 active torsions:
  status: ('A' for Active; 'I' for Inactive)
    1  A    between atoms: C_23  and  C_30
                            x       y       z     vdW  Elec       q    Type
                         _______ _______ _______ _____ _____    ______ ____

>  <TORSDO>
F 1

$$$$
