=
 OpenBabel11122410563D

 31 35  0  0  1  0  0  0  0  0999 V2000
  184.8660  178.6060  144.0790 C   0  0  0  0  0  0  0  0  0  0  0  0
  188.4530  177.8130  143.2450 C   0  0  0  0  0  0  0  0  0  0  0  0
  189.1030  177.4860  144.4760 C   0  0  0  0  0  0  0  0  0  0  0  0
  189.1040  177.1420  146.8960 C   0  0  0  0  0  0  0  0  0  0  0  0
  187.0760  178.1710  143.1280 C   0  0  0  0  0  0  0  0  0  0  0  0
  184.3620  178.8880  142.8110 C   0  0  0  0  0  3  0  0  0  0  0  0
  188.4370  177.4710  145.7140 C   0  0  0  0  0  3  0  0  0  0  0  0
  188.6400  178.0640  140.8110 C   0  0  0  0  0  0  0  0  0  0  0  0
  183.8210  178.6950  145.4790 Cl  0  0  0  0  0  0  0  0  0  0  0  0
  191.1770  177.1490  143.3020 N   0  0  0  0  0  0  0  0  0  0  0  0
  188.2370  177.1360  148.4150 Cl  0  0  0  0  0  0  0  0  0  0  0  0
  187.3280  178.3950  140.7460 N   0  0  0  0  0  0  0  0  0  0  0  0
  189.2320  177.7770  142.0540 C   0  0  0  0  0  0  0  0  0  0  0  0
  186.2080  178.2520  144.2330 C   0  0  0  0  0  3  0  0  0  0  0  0
  190.4600  176.8190  146.8640 C   0  0  0  0  0  3  0  0  0  0  0  0
  186.5440  178.4630  141.8470 C   0  0  0  0  0  0  0  0  0  0  0  0
  185.1980  178.8160  141.6980 C   0  0  0  0  0  3  0  0  0  0  0  0
  190.5910  177.4490  142.1210 C   0  0  0  0  0  3  0  0  0  0  0  0
  190.4830  177.1530  144.4640 C   0  0  0  0  0  0  0  0  0  0  0  0
  191.1460  176.8250  145.6500 C   0  0  0  0  0  3  0  0  0  0  0  0
  189.4110  177.9490  139.5290 C   0  0  0  0  0  2  0  0  0  0  0  0
  189.0560  179.0030  137.2870 C   0  0  0  0  0  1  0  0  0  0  0  0
  188.4760  178.0650  138.3290 C   0  0  1  0  0  3  0  0  0  0  0  0
  187.8790  174.7230  135.8260 C   0  0  0  0  0  0  0  0  0  0  0  0
  189.2670  175.7970  137.5940 C   0  0  0  0  0  2  0  0  0  0  0  0
  185.8630  177.0600  137.4950 O   0  0  0  0  0  0  0  0  0  0  0  0
  187.7420  173.5890  134.8760 C   0  0  0  0  0  1  0  0  0  0  0  0
  189.2540  175.2260  136.1770 C   0  0  0  0  0  2  0  0  0  0  0  0
  186.8970  176.4060  137.1990 C   0  0  0  0  0  0  0  0  0  0  0  0
  188.1790  176.7550  137.7510 N   0  0  0  0  0  0  0  0  0  0  0  0
  186.8110  175.3100  136.2810 N   0  0  0  0  0  0  0  0  0  0  0  0
  1 14  1  0  0  0  0
  1  9  1  0  0  0  0
  2  3  1  0  0  0  0
  3  7  1  0  0  0  0
  4 11  1  0  0  0  0
  5  2  1  0  0  0  0
  5 14  2  0  0  0  0
  6  1  2  0  0  0  0
  7  4  2  0  0  0  0
  8 13  1  0  0  0  0
 10 19  1  0  0  0  0
 12  8  2  0  0  0  0
 12 16  1  0  0  0  0
 13 18  1  0  0  0  0
 13  2  2  0  0  0  0
 15  4  1  0  0  0  0
 16  5  1  0  0  0  0
 17 16  2  0  0  0  0
 17  6  1  0  0  0  0
 18 10  2  0  0  0  0
 19  3  2  0  0  0  0
 19 20  1  0  0  0  0
 20 15  2  0  0  0  0
 21  8  1  0  0  0  0
 23 22  1  6  0  0  0
 23 21  1  0  0  0  0
 24 28  1  0  0  0  0
 24 31  2  0  0  0  0
 25 30  1  0  0  0  0
 27 24  1  0  0  0  0
 28 25  1  0  0  0  0
 29 26  2  0  0  0  0
 29 30  1  0  0  0  0
 30 23  1  0  0  0  0
 31 29  1  0  0  0  0
M  END
>  <MODEL>
1

>  <REMARK>
 VINA RESULT:     -10.4      0.000      0.000
  Name = 
  3 active torsions:
  status: ('A' for Active; 'I' for Inactive)
    1  A    between atoms: C_5  and  C_16
    2  A    between atoms: C_5  and  N_30
    3  A    between atoms: C_10  and  C_16
                            x       y       z     vdW  Elec       q    Type
                         _______ _______ _______ _____ _____    ______ ____

>  <TORSDO>
F 3

$$$$
=
 OpenBabel11122410563D

 31 35  0  0  1  0  0  0  0  0999 V2000
  184.9790  178.5570  143.5750 C   0  0  0  0  0  0  0  0  0  0  0  0
  188.6080  177.7850  142.9240 C   0  0  0  0  0  0  0  0  0  0  0  0
  189.1970  177.4620  144.1870 C   0  0  0  0  0  0  0  0  0  0  0  0
  189.0770  177.1190  146.6040 C   0  0  0  0  0  0  0  0  0  0  0  0
  187.2360  178.1350  142.7370 C   0  0  0  0  0  0  0  0  0  0  0  0
  184.5380  178.8350  142.2820 C   0  0  0  0  0  3  0  0  0  0  0  0
  188.4680  177.4430  145.3890 C   0  0  0  0  0  3  0  0  0  0  0  0
  188.9170  178.0360  140.5030 C   0  0  0  0  0  0  0  0  0  0  0  0
  183.8630  178.6400  144.9200 Cl  0  0  0  0  0  0  0  0  0  0  0  0
  191.3300  177.1370  143.1190 N   0  0  0  0  0  0  0  0  0  0  0  0
  188.1350  177.1080  148.0770 Cl  0  0  0  0  0  0  0  0  0  0  0  0
  187.6080  178.3590  140.3710 N   0  0  0  0  0  0  0  0  0  0  0  0
  189.4470  177.7540  141.7740 C   0  0  0  0  0  0  0  0  0  0  0  0
  186.3140  178.2110  143.7970 C   0  0  0  0  0  3  0  0  0  0  0  0
  190.4350  176.8040  146.6410 C   0  0  0  0  0  3  0  0  0  0  0  0
  186.7680  178.4230  141.4300 C   0  0  0  0  0  0  0  0  0  0  0  0
  185.4300  178.7680  141.2140 C   0  0  0  0  0  3  0  0  0  0  0  0
  190.8020  177.4340  141.9100 C   0  0  0  0  0  3  0  0  0  0  0  0
  190.5770  177.1370  144.2440 C   0  0  0  0  0  0  0  0  0  0  0  0
  191.1820  176.8140  145.4630 C   0  0  0  0  0  3  0  0  0  0  0  0
  189.7530  177.9260  139.2610 C   0  0  0  0  0  2  0  0  0  0  0  0
  188.6890  176.8490  137.2680 C   0  0  0  0  0  1  0  0  0  0  0  0
  189.4750  176.6080  138.5440 C   0  0  1  0  0  3  0  0  0  0  0  0
  192.9950  174.9660  136.9010 C   0  0  0  0  0  0  0  0  0  0  0  0
  191.9850  176.5160  138.5690 C   0  0  0  0  0  2  0  0  0  0  0  0
  189.7140  173.8850  137.5140 O   0  0  0  0  0  0  0  0  0  0  0  0
  194.2430  174.4760  136.2600 C   0  0  0  0  0  1  0  0  0  0  0  0
  192.9190  176.3960  137.3660 C   0  0  0  0  0  2  0  0  0  0  0  0
  190.7430  174.6060  137.5930 C   0  0  0  0  0  0  0  0  0  0  0  0
  190.7100  175.8750  138.2710 N   0  0  0  0  0  0  0  0  0  0  0  0
  191.9650  174.1760  136.9830 N   0  0  0  0  0  0  0  0  0  0  0  0
  1 14  1  0  0  0  0
  1  9  1  0  0  0  0
  2  3  1  0  0  0  0
  3 19  2  0  0  0  0
  3  7  1  0  0  0  0
  4 15  1  0  0  0  0
  4 11  1  0  0  0  0
  5  2  1  0  0  0  0
  5 14  2  0  0  0  0
  6  1  2  0  0  0  0
  7  4  2  0  0  0  0
  8 13  1  0  0  0  0
 10 19  1  0  0  0  0
 12  8  2  0  0  0  0
 12 16  1  0  0  0  0
 13 18  1  0  0  0  0
 13  2  2  0  0  0  0
 16  5  1  0  0  0  0
 17 16  2  0  0  0  0
 17  6  1  0  0  0  0
 18 10  2  0  0  0  0
 19 20  1  0  0  0  0
 20 15  2  0  0  0  0
 21  8  1  0  0  0  0
 23 22  1  6  0  0  0
 23 21  1  0  0  0  0
 24 31  2  0  0  0  0
 24 28  1  0  0  0  0
 26 29  2  0  0  0  0
 27 24  1  0  0  0  0
 28 25  1  0  0  0  0
 29 30  1  0  0  0  0
 30 23  1  0  0  0  0
 30 25  1  0  0  0  0
 31 29  1  0  0  0  0
M  END
>  <MODEL>
2

>  <REMARK>
 VINA RESULT:     -10.2      2.021      2.460
  Name = 
  3 active torsions:
  status: ('A' for Active; 'I' for Inactive)
    1  A    between atoms: C_5  and  C_16
    2  A    between atoms: C_5  and  N_30
    3  A    between atoms: C_10  and  C_16
                            x       y       z     vdW  Elec       q    Type
                         _______ _______ _______ _____ _____    ______ ____

>  <TORSDO>
F 3

$$$$
=
 OpenBabel11122410563D

 31 35  0  0  1  0  0  0  0  0999 V2000
  189.9720  176.8780  145.6370 C   0  0  0  0  0  0  0  0  0  0  0  0
  188.2770  177.8180  142.4070 C   0  0  0  0  0  0  0  0  0  0  0  0
  186.9410  178.2110  142.7380 C   0  0  0  0  0  0  0  0  0  0  0  0
  185.1430  178.6210  144.3420 C   0  0  0  0  0  0  0  0  0  0  0  0
  189.2530  177.3920  143.3580 C   0  0  0  0  0  0  0  0  0  0  0  0
  191.2410  176.5370  145.1730 C   0  0  0  0  0  3  0  0  0  0  0  0
  186.4520  178.2280  144.0560 C   0  0  0  0  0  3  0  0  0  0  0  0
  189.9660  177.5090  140.6550 C   0  0  0  0  0  0  0  0  0  0  0  0
  189.6060  176.7780  147.3450 Cl  0  0  0  0  0  0  0  0  0  0  0  0
  186.4740  178.6140  140.4120 N   0  0  0  0  0  0  0  0  0  0  0  0
  184.5740  178.6280  145.9960 Cl  0  0  0  0  0  0  0  0  0  0  0  0
  190.8630  177.1140  141.5910 N   0  0  0  0  0  0  0  0  0  0  0  0
  188.6580  177.8580  141.0370 C   0  0  0  0  0  0  0  0  0  0  0  0
  188.9910  177.3000  144.7370 C   0  0  0  0  0  3  0  0  0  0  0  0
  184.2910  179.0080  143.3080 C   0  0  0  0  0  3  0  0  0  0  0  0
  190.5500  177.0390  142.9060 C   0  0  0  0  0  0  0  0  0  0  0  0
  191.5290  176.6180  143.8120 C   0  0  0  0  0  3  0  0  0  0  0  0
  187.7310  178.2530  140.0670 C   0  0  0  0  0  3  0  0  0  0  0  0
  186.0590  178.6090  141.7000 C   0  0  0  0  0  0  0  0  0  0  0  0
  184.7490  179.0010  141.9920 C   0  0  0  0  0  3  0  0  0  0  0  0
  190.4260  177.6250  139.2320 C   0  0  0  0  0  2  0  0  0  0  0  0
  189.4940  175.6750  137.9690 C   0  0  0  0  0  1  0  0  0  0  0  0
  190.7240  176.2450  138.6510 C   0  0  1  0  0  3  0  0  0  0  0  0
  194.0370  175.3890  136.1870 C   0  0  0  0  0  0  0  0  0  0  0  0
  191.6320  176.0230  136.3190 C   0  0  0  0  0  2  0  0  0  0  0  0
  193.4960  176.8780  139.3170 O   0  0  0  0  0  0  0  0  0  0  0  0
  195.1670  174.9860  135.3090 C   0  0  0  0  0  1  0  0  0  0  0  0
  192.6350  174.9890  135.8120 C   0  0  0  0  0  2  0  0  0  0  0  0
  193.2260  176.4230  138.1750 C   0  0  0  0  0  0  0  0  0  0  0  0
  191.8630  176.2820  137.7360 N   0  0  0  0  0  0  0  0  0  0  0  0
  194.2840  176.0160  137.3000 N   0  0  0  0  0  0  0  0  0  0  0  0
  1  9  1  0  0  0  0
  2  3  1  0  0  0  0
  2  5  1  0  0  0  0
  3  7  2  0  0  0  0
  4 11  1  0  0  0  0
  5 14  1  0  0  0  0
  6  1  1  0  0  0  0
  7  4  1  0  0  0  0
  8 13  1  0  0  0  0
  8 12  2  0  0  0  0
 10 19  1  0  0  0  0
 12 16  1  0  0  0  0
 13  2  2  0  0  0  0
 14  1  2  0  0  0  0
 15  4  2  0  0  0  0
 16  5  2  0  0  0  0
 16 17  1  0  0  0  0
 17  6  2  0  0  0  0
 18 10  2  0  0  0  0
 18 13  1  0  0  0  0
 19 20  2  0  0  0  0
 19  3  1  0  0  0  0
 20 15  1  0  0  0  0
 21  8  1  0  0  0  0
 23 22  1  6  0  0  0
 23 21  1  0  0  0  0
 24 31  2  0  0  0  0
 25 30  1  0  0  0  0
 27 24  1  0  0  0  0
 28 24  1  0  0  0  0
 28 25  1  0  0  0  0
 29 26  2  0  0  0  0
 30 29  1  0  0  0  0
 30 23  1  0  0  0  0
 31 29  1  0  0  0  0
M  END
>  <MODEL>
3

>  <REMARK>
 VINA RESULT:     -10.0      2.722      5.058
  Name = 
  3 active torsions:
  status: ('A' for Active; 'I' for Inactive)
    1  A    between atoms: C_5  and  C_16
    2  A    between atoms: C_5  and  N_30
    3  A    between atoms: C_10  and  C_16
                            x       y       z     vdW  Elec       q    Type
                         _______ _______ _______ _____ _____    ______ ____

>  <TORSDO>
F 3

$$$$
=
 OpenBabel11122410563D

 31 35  0  0  1  0  0  0  0  0999 V2000
  190.0630  177.0400  145.2340 C   0  0  0  0  0  0  0  0  0  0  0  0
  187.4740  178.0630  142.6960 C   0  0  0  0  0  0  0  0  0  0  0  0
  186.2610  178.3050  143.4160 C   0  0  0  0  0  0  0  0  0  0  0  0
  184.9600  178.4270  145.4810 C   0  0  0  0  0  0  0  0  0  0  0  0
  188.7030  177.6570  143.2980 C   0  0  0  0  0  0  0  0  0  0  0  0
  191.1720  176.8520  144.4100 C   0  0  0  0  0  3  0  0  0  0  0  0
  186.1600  178.1780  144.8120 C   0  0  0  0  0  3  0  0  0  0  0  0
  188.6230  178.0430  140.5290 C   0  0  0  0  0  0  0  0  0  0  0  0
  190.1960  176.7770  146.9580 Cl  0  0  0  0  0  0  0  0  0  0  0  0
  185.1360  178.8390  141.3560 N   0  0  0  0  0  0  0  0  0  0  0  0
  184.8770  178.2570  147.2200 Cl  0  0  0  0  0  0  0  0  0  0  0  0
  189.7700  177.6620  141.1420 N   0  0  0  0  0  0  0  0  0  0  0  0
  187.4540  178.2410  141.2850 C   0  0  0  0  0  0  0  0  0  0  0  0
  188.8440  177.4370  144.6810 C   0  0  0  0  0  3  0  0  0  0  0  0
  183.8280  178.8110  144.7620 C   0  0  0  0  0  3  0  0  0  0  0  0
  189.8420  177.4590  142.4780 C   0  0  0  0  0  0  0  0  0  0  0  0
  191.0610  177.0620  143.0370 C   0  0  0  0  0  3  0  0  0  0  0  0
  186.2680  178.6220  140.6480 C   0  0  0  0  0  3  0  0  0  0  0  0
  185.0990  178.6990  142.7020 C   0  0  0  0  0  0  0  0  0  0  0  0
  183.9000  178.9460  143.3760 C   0  0  0  0  0  3  0  0  0  0  0  0
  188.6580  178.3080  139.0520 C   0  0  0  0  0  2  0  0  0  0  0  0
  187.2510  177.0180  137.4330 C   0  0  0  0  0  1  0  0  0  0  0  0
  188.5170  177.0050  138.2710 C   0  0  1  0  0  3  0  0  0  0  0  0
  191.3930  175.4770  135.5920 C   0  0  0  0  0  0  0  0  0  0  0  0
  189.7110  177.2490  136.0750 C   0  0  0  0  0  2  0  0  0  0  0  0
  190.9610  175.6200  139.0710 O   0  0  0  0  0  0  0  0  0  0  0  0
  192.3250  174.8900  134.5940 C   0  0  0  0  0  1  0  0  0  0  0  0
  190.1250  176.1340  135.1170 C   0  0  0  0  0  2  0  0  0  0  0  0
  190.7800  175.8980  137.8570 C   0  0  0  0  0  0  0  0  0  0  0  0
  189.6930  176.7450  137.4430 N   0  0  0  0  0  0  0  0  0  0  0  0
  191.6500  175.3480  136.8610 N   0  0  0  0  0  0  0  0  0  0  0  0
  1  9  1  0  0  0  0
  2  5  1  0  0  0  0
  2  3  1  0  0  0  0
  3  7  1  0  0  0  0
  4 11  1  0  0  0  0
  5 14  2  0  0  0  0
  6  1  2  0  0  0  0
  7  4  2  0  0  0  0
  8 12  2  0  0  0  0
  8 13  1  0  0  0  0
 10 19  1  0  0  0  0
 12 16  1  0  0  0  0
 13  2  2  0  0  0  0
 14  1  1  0  0  0  0
 15  4  1  0  0  0  0
 16 17  2  0  0  0  0
 16  5  1  0  0  0  0
 17  6  1  0  0  0  0
 18 13  1  0  0  0  0
 18 10  2  0  0  0  0
 19 20  1  0  0  0  0
 19  3  2  0  0  0  0
 20 15  2  0  0  0  0
 21  8  1  0  0  0  0
 23 22  1  6  0  0  0
 23 21  1  0  0  0  0
 24 31  2  0  0  0  0
 25 30  1  0  0  0  0
 27 24  1  0  0  0  0
 28 24  1  0  0  0  0
 28 25  1  0  0  0  0
 29 26  2  0  0  0  0
 30 29  1  0  0  0  0
 30 23  1  0  0  0  0
 31 29  1  0  0  0  0
M  END
>  <MODEL>
4

>  <REMARK>
 VINA RESULT:      -9.8      1.921      4.381
  Name = 
  3 active torsions:
  status: ('A' for Active; 'I' for Inactive)
    1  A    between atoms: C_5  and  C_16
    2  A    between atoms: C_5  and  N_30
    3  A    between atoms: C_10  and  C_16
                            x       y       z     vdW  Elec       q    Type
                         _______ _______ _______ _____ _____    ______ ____

>  <TORSDO>
F 3

$$$$
=
 OpenBabel11122410563D

 31 35  0  0  1  0  0  0  0  0999 V2000
  183.3560  178.8340  141.6020 C   0  0  0  0  0  0  0  0  0  0  0  0
  187.0260  178.2320  142.1970 C   0  0  0  0  0  0  0  0  0  0  0  0
  187.1920  178.0400  143.6050 C   0  0  0  0  0  0  0  0  0  0  0  0
  186.3210  177.8730  145.8820 C   0  0  0  0  0  0  0  0  0  0  0  0
  185.7750  178.4840  141.5580 C   0  0  0  0  0  0  0  0  0  0  0  0
  183.3400  178.9880  140.2170 C   0  0  0  0  0  3  0  0  0  0  0  0
  186.1200  178.0690  144.5140 C   0  0  0  0  0  3  0  0  0  0  0  0
  188.0810  178.3180  139.9840 C   0  0  0  0  0  0  0  0  0  0  0  0
  181.8680  178.9520  142.5150 Cl  0  0  0  0  0  0  0  0  0  0  0  0
  189.5640  177.7630  143.2960 N   0  0  0  0  0  0  0  0  0  0  0  0
  184.9590  177.9180  146.9800 Cl  0  0  0  0  0  0  0  0  0  0  0  0
  186.8720  178.5520  139.4180 N   0  0  0  0  0  0  0  0  0  0  0  0
  188.1880  178.1630  141.3780 C   0  0  0  0  0  0  0  0  0  0  0  0
  184.5610  178.5850  142.2630 C   0  0  0  0  0  3  0  0  0  0  0  0
  187.6060  177.6430  146.3730 C   0  0  0  0  0  3  0  0  0  0  0  0
  185.7380  178.6450  140.1500 C   0  0  0  0  0  0  0  0  0  0  0  0
  184.5280  178.8930  139.4940 C   0  0  0  0  0  3  0  0  0  0  0  0
  189.4390  177.9350  141.9600 C   0  0  0  0  0  3  0  0  0  0  0  0
  188.4930  177.8030  144.1230 C   0  0  0  0  0  0  0  0  0  0  0  0
  188.6880  177.6090  145.4940 C   0  0  0  0  0  3  0  0  0  0  0  0
  189.2720  178.1640  139.0830 C   0  0  0  0  0  2  0  0  0  0  0  0
  188.9060  177.5210  136.6920 C   0  0  0  0  0  1  0  0  0  0  0  0
  189.0620  177.0060  138.1110 C   0  0  1  0  0  3  0  0  0  0  0  0
  192.4920  174.6170  137.5450 C   0  0  0  0  0  0  0  0  0  0  0  0
  191.3830  176.4130  138.8690 C   0  0  0  0  0  2  0  0  0  0  0  0
  189.0250  174.2470  137.1530 O   0  0  0  0  0  0  0  0  0  0  0  0
  193.7430  173.8590  137.2900 C   0  0  0  0  0  1  0  0  0  0  0  0
  192.5800  176.0530  137.9900 C   0  0  0  0  0  2  0  0  0  0  0  0
  190.1120  174.7490  137.5420 C   0  0  0  0  0  0  0  0  0  0  0  0
  190.1450  176.0280  138.2000 N   0  0  0  0  0  0  0  0  0  0  0  0
  191.3420  174.0550  137.3090 N   0  0  0  0  0  0  0  0  0  0  0  0
  1 14  1  0  0  0  0
  1  9  1  0  0  0  0
  2  3  1  0  0  0  0
  3 19  2  0  0  0  0
  3  7  1  0  0  0  0
  4 15  1  0  0  0  0
  4 11  1  0  0  0  0
  5  2  1  0  0  0  0
  5 14  2  0  0  0  0
  6  1  2  0  0  0  0
  7  4  2  0  0  0  0
  8 13  1  0  0  0  0
 10 19  1  0  0  0  0
 12  8  2  0  0  0  0
 12 16  1  0  0  0  0
 13 18  1  0  0  0  0
 13  2  2  0  0  0  0
 16  5  1  0  0  0  0
 17 16  2  0  0  0  0
 17  6  1  0  0  0  0
 18 10  2  0  0  0  0
 19 20  1  0  0  0  0
 20 15  2  0  0  0  0
 21  8  1  0  0  0  0
 23 22  1  6  0  0  0
 23 30  1  0  0  0  0
 23 21  1  0  0  0  0
 24 28  1  0  0  0  0
 26 29  2  0  0  0  0
 27 24  1  0  0  0  0
 28 25  1  0  0  0  0
 29 30  1  0  0  0  0
 30 25  1  0  0  0  0
 31 29  1  0  0  0  0
 31 24  2  0  0  0  0
M  END
>  <MODEL>
5

>  <REMARK>
 VINA RESULT:      -9.6      2.163      2.936
  Name = 
  3 active torsions:
  status: ('A' for Active; 'I' for Inactive)
    1  A    between atoms: C_5  and  C_16
    2  A    between atoms: C_5  and  N_30
    3  A    between atoms: C_10  and  C_16
                            x       y       z     vdW  Elec       q    Type
                         _______ _______ _______ _____ _____    ______ ____

>  <TORSDO>
F 3

$$$$
=
 OpenBabel11122410563D

 31 35  0  0  1  0  0  0  0  0999 V2000
  190.3400  177.6480  140.9490 C   0  0  0  0  0  0  0  0  0  0  0  0
  187.4290  177.9600  143.3190 C   0  0  0  0  0  0  0  0  0  0  0  0
  187.9310  177.6870  144.6310 C   0  0  0  0  0  0  0  0  0  0  0  0
  189.7350  177.1300  146.1830 C   0  0  0  0  0  0  0  0  0  0  0  0
  188.2220  177.9490  142.1320 C   0  0  0  0  0  0  0  0  0  0  0  0
  189.7200  177.9470  139.7370 C   0  0  0  0  0  3  0  0  0  0  0  0
  189.2800  177.3870  144.8880 C   0  0  0  0  0  3  0  0  0  0  0  0
  185.5020  178.5700  141.9280 C   0  0  0  0  0  0  0  0  0  0  0  0
  192.0480  177.2700  140.9910 Cl  0  0  0  0  0  0  0  0  0  0  0  0
  185.7290  178.0060  145.5490 N   0  0  0  0  0  0  0  0  0  0  0  0
  191.4220  176.7610  146.4600 Cl  0  0  0  0  0  0  0  0  0  0  0  0
  186.2920  178.5510  140.8280 N   0  0  0  0  0  0  0  0  0  0  0  0
  186.0460  178.2670  143.1900 C   0  0  0  0  0  0  0  0  0  0  0  0
  189.5970  177.6490  142.1310 C   0  0  0  0  0  3  0  0  0  0  0  0
  188.8430  177.1670  147.2550 C   0  0  0  0  0  3  0  0  0  0  0  0
  187.6100  178.2490  140.8890 C   0  0  0  0  0  0  0  0  0  0  0  0
  188.3590  178.2470  139.7080 C   0  0  0  0  0  3  0  0  0  0  0  0
  185.2250  178.2730  144.3230 C   0  0  0  0  0  3  0  0  0  0  0  0
  187.0390  177.7220  145.7340 C   0  0  0  0  0  0  0  0  0  0  0  0
  187.4990  177.4620  147.0290 C   0  0  0  0  0  3  0  0  0  0  0  0
  184.0680  178.9830  141.7700 C   0  0  0  0  0  2  0  0  0  0  0  0
  182.8760  177.1310  140.5800 C   0  0  0  0  0  1  0  0  0  0  0  0
  183.5160  178.4990  140.4320 C   0  0  1  0  0  3  0  0  0  0  0  0
  180.7070  180.5940  138.0850 C   0  0  0  0  0  0  0  0  0  0  0  0
  181.1600  179.3350  140.1860 C   0  0  0  0  0  2  0  0  0  0  0  0
  184.1530  180.7780  138.7190 O   0  0  0  0  0  0  0  0  0  0  0  0
  179.6830  181.2360  137.2200 C   0  0  0  0  0  1  0  0  0  0  0  0
  180.3270  179.3910  138.9070 C   0  0  0  0  0  2  0  0  0  0  0  0
  182.9500  180.4450  138.8790 C   0  0  0  0  0  0  0  0  0  0  0  0
  182.5760  179.4610  139.8600 N   0  0  0  0  0  0  0  0  0  0  0  0
  181.9310  181.0340  138.0620 N   0  0  0  0  0  0  0  0  0  0  0  0
  1  9  1  0  0  0  0
  1 14  1  0  0  0  0
  2  3  1  0  0  0  0
  3  7  2  0  0  0  0
  3 19  1  0  0  0  0
  4 11  1  0  0  0  0
  4 15  2  0  0  0  0
  5  2  1  0  0  0  0
  6  1  2  0  0  0  0
  7  4  1  0  0  0  0
  8 13  1  0  0  0  0
 10 19  1  0  0  0  0
 12 16  1  0  0  0  0
 12  8  2  0  0  0  0
 13  2  2  0  0  0  0
 13 18  1  0  0  0  0
 14  5  2  0  0  0  0
 16  5  1  0  0  0  0
 17  6  1  0  0  0  0
 17 16  2  0  0  0  0
 18 10  2  0  0  0  0
 19 20  2  0  0  0  0
 20 15  1  0  0  0  0
 21  8  1  0  0  0  0
 23 22  1  1  0  0  0
 23 21  1  0  0  0  0
 24 28  1  0  0  0  0
 26 29  2  0  0  0  0
 27 24  1  0  0  0  0
 28 25  1  0  0  0  0
 29 30  1  0  0  0  0
 30 25  1  0  0  0  0
 30 23  1  0  0  0  0
 31 24  2  0  0  0  0
 31 29  1  0  0  0  0
M  END
>  <MODEL>
6

>  <REMARK>
 VINA RESULT:      -9.4      3.518      5.768
  Name = 
  3 active torsions:
  status: ('A' for Active; 'I' for Inactive)
    1  A    between atoms: C_5  and  C_16
    2  A    between atoms: C_5  and  N_30
    3  A    between atoms: C_10  and  C_16
                            x       y       z     vdW  Elec       q    Type
                         _______ _______ _______ _____ _____    ______ ____

>  <TORSDO>
F 3

$$$$
=
 OpenBabel11122410563D

 31 35  0  0  1  0  0  0  0  0999 V2000
  186.2530  178.2460  146.4470 C   0  0  0  0  0  0  0  0  0  0  0  0
  187.5390  178.0530  142.9110 C   0  0  0  0  0  0  0  0  0  0  0  0
  188.9120  177.6570  142.9900 C   0  0  0  0  0  0  0  0  0  0  0  0
  190.9050  177.0060  144.2440 C   0  0  0  0  0  0  0  0  0  0  0  0
  186.6850  178.2360  144.0410 C   0  0  0  0  0  0  0  0  0  0  0  0
  184.9300  178.6210  146.2210 C   0  0  0  0  0  3  0  0  0  0  0  0
  189.5640  177.3940  144.2070 C   0  0  0  0  0  3  0  0  0  0  0  0
  185.6350  178.6400  141.4790 C   0  0  0  0  0  0  0  0  0  0  0  0
  186.8320  178.0130  148.0810 Cl  0  0  0  0  0  0  0  0  0  0  0  0
  189.0860  177.7550  140.5910 N   0  0  0  0  0  0  0  0  0  0  0  0
  191.6800  176.6870  145.7790 Cl  0  0  0  0  0  0  0  0  0  0  0  0
  184.8590  178.7990  142.5780 N   0  0  0  0  0  0  0  0  0  0  0  0
  186.9870  178.2750  141.6190 C   0  0  0  0  0  0  0  0  0  0  0  0
  187.1190  178.0570  145.3670 C   0  0  0  0  0  3  0  0  0  0  0  0
  191.6260  176.8730  143.0570 C   0  0  0  0  0  3  0  0  0  0  0  0
  185.3360  178.6180  143.8320 C   0  0  0  0  0  0  0  0  0  0  0  0
  184.4730  178.8060  144.9170 C   0  0  0  0  0  3  0  0  0  0  0  0
  187.7900  178.1250  140.4830 C   0  0  0  0  0  3  0  0  0  0  0  0
  189.6610  177.5150  141.7930 C   0  0  0  0  0  0  0  0  0  0  0  0
  191.0040  177.1280  141.8360 C   0  0  0  0  0  3  0  0  0  0  0  0
  185.0000  178.7960  140.1290 C   0  0  0  0  0  2  0  0  0  0  0  0
  183.1510  180.1280  139.0930 C   0  0  0  0  0  1  0  0  0  0  0  0
  183.5510  179.2540  140.2680 C   0  0  1  0  0  3  0  0  0  0  0  0
  180.5650  176.3070  139.8430 C   0  0  0  0  0  0  0  0  0  0  0  0
  182.9940  176.8530  139.7850 C   0  0  0  0  0  2  0  0  0  0  0  0
  181.0590  179.1820  141.7910 O   0  0  0  0  0  0  0  0  0  0  0  0
  179.5170  175.2850  139.5850 C   0  0  0  0  0  1  0  0  0  0  0  0
  181.8050  176.3200  138.9890 C   0  0  0  0  0  2  0  0  0  0  0  0
  181.3450  178.2200  141.0310 C   0  0  0  0  0  0  0  0  0  0  0  0
  182.6410  178.1200  140.4150 N   0  0  0  0  0  0  0  0  0  0  0  0
  180.3620  177.2170  140.7500 N   0  0  0  0  0  0  0  0  0  0  0  0
  1  9  1  0  0  0  0
  2  3  1  0  0  0  0
  2  5  1  0  0  0  0
  3  7  2  0  0  0  0
  4 11  1  0  0  0  0
  5 14  1  0  0  0  0
  6  1  1  0  0  0  0
  7  4  1  0  0  0  0
  8 13  1  0  0  0  0
  8 12  2  0  0  0  0
 10 19  1  0  0  0  0
 12 16  1  0  0  0  0
 13  2  2  0  0  0  0
 14  1  2  0  0  0  0
 15  4  2  0  0  0  0
 16  5  2  0  0  0  0
 16 17  1  0  0  0  0
 17  6  2  0  0  0  0
 18 10  2  0  0  0  0
 18 13  1  0  0  0  0
 19 20  2  0  0  0  0
 19  3  1  0  0  0  0
 20 15  1  0  0  0  0
 21 23  1  0  0  0  0
 21  8  1  0  0  0  0
 23 22  1  6  0  0  0
 23 30  1  0  0  0  0
 24 31  2  0  0  0  0
 25 30  1  0  0  0  0
 27 24  1  0  0  0  0
 28 25  1  0  0  0  0
 28 24  1  0  0  0  0
 29 26  2  0  0  0  0
 30 29  1  0  0  0  0
 31 29  1  0  0  0  0
M  END
>  <MODEL>
7

>  <REMARK>
 VINA RESULT:      -9.3      3.206      4.892
  Name = 
  3 active torsions:
  status: ('A' for Active; 'I' for Inactive)
    1  A    between atoms: C_5  and  C_16
    2  A    between atoms: C_5  and  N_30
    3  A    between atoms: C_10  and  C_16
                            x       y       z     vdW  Elec       q    Type
                         _______ _______ _______ _____ _____    ______ ____

>  <TORSDO>
F 3

$$$$
=
 OpenBabel11122410563D

 31 35  0  0  1  0  0  0  0  0999 V2000
  186.4540  178.0130  146.7140 C   0  0  0  0  0  0  0  0  0  0  0  0
  187.3500  178.0260  143.0550 C   0  0  0  0  0  0  0  0  0  0  0  0
  188.7110  177.5970  142.9600 C   0  0  0  0  0  0  0  0  0  0  0  0
  190.8080  176.8230  143.9470 C   0  0  0  0  0  0  0  0  0  0  0  0
  186.6260  178.1520  144.2790 C   0  0  0  0  0  0  0  0  0  0  0  0
  185.1250  178.4290  146.6560 C   0  0  0  0  0  3  0  0  0  0  0  0
  189.4820  177.2400  144.0800 C   0  0  0  0  0  3  0  0  0  0  0  0
  185.3210  178.7460  141.8770 C   0  0  0  0  0  0  0  0  0  0  0  0
  187.1970  177.6600  148.2580 Cl  0  0  0  0  0  0  0  0  0  0  0  0
  188.6310  177.8490  140.5670 N   0  0  0  0  0  0  0  0  0  0  0  0
  191.7330  176.3870  145.3660 Cl  0  0  0  0  0  0  0  0  0  0  0  0
  184.6720  178.8490  143.0610 N   0  0  0  0  0  0  0  0  0  0  0  0
  186.6690  178.3450  141.8470 C   0  0  0  0  0  0  0  0  0  0  0  0
  187.1940  177.8770  145.5370 C   0  0  0  0  0  3  0  0  0  0  0  0
  191.3940  176.7530  142.6840 C   0  0  0  0  0  3  0  0  0  0  0  0
  185.2740  178.5760  144.2420 C   0  0  0  0  0  0  0  0  0  0  0  0
  184.5370  178.7090  145.4240 C   0  0  0  0  0  3  0  0  0  0  0  0
  187.3420  178.2530  140.6230 C   0  0  0  0  0  3  0  0  0  0  0  0
  189.3240  177.5190  141.6820 C   0  0  0  0  0  0  0  0  0  0  0  0
  190.6530  177.1010  141.5550 C   0  0  0  0  0  3  0  0  0  0  0  0
  184.5500  179.0040  140.6160 C   0  0  0  0  0  2  0  0  0  0  0  0
  182.0530  178.8600  140.5250 C   0  0  0  0  0  1  0  0  0  0  0  0
  183.3480  178.0690  140.5220 C   0  0  1  0  0  3  0  0  0  0  0  0
  182.9600  176.2140  136.7540 C   0  0  0  0  0  0  0  0  0  0  0  0
  184.3990  177.5290  138.3050 C   0  0  0  0  0  2  0  0  0  0  0  0
  181.8240  175.6280  140.0210 O   0  0  0  0  0  0  0  0  0  0  0  0
  182.7970  175.6580  135.3860 C   0  0  0  0  0  1  0  0  0  0  0  0
  183.7160  177.5030  136.9380 C   0  0  0  0  0  2  0  0  0  0  0  0
  182.5180  176.1210  139.0940 C   0  0  0  0  0  0  0  0  0  0  0  0
  183.4330  177.2030  139.3470 N   0  0  0  0  0  0  0  0  0  0  0  0
  182.3860  175.6200  137.7590 N   0  0  0  0  0  0  0  0  0  0  0  0
  1  9  1  0  0  0  0
  2  5  1  0  0  0  0
  3  2  1  0  0  0  0
  3  7  2  0  0  0  0
  4  7  1  0  0  0  0
  4 11  1  0  0  0  0
  5 14  1  0  0  0  0
  6  1  1  0  0  0  0
  8 12  2  0  0  0  0
 10 18  2  0  0  0  0
 10 19  1  0  0  0  0
 12 16  1  0  0  0  0
 13  8  1  0  0  0  0
 13  2  2  0  0  0  0
 14  1  2  0  0  0  0
 15  4  2  0  0  0  0
 16  5  2  0  0  0  0
 16 17  1  0  0  0  0
 17  6  2  0  0  0  0
 18 13  1  0  0  0  0
 19  3  1  0  0  0  0
 20 19  2  0  0  0  0
 20 15  1  0  0  0  0
 21  8  1  0  0  0  0
 23 22  1  6  0  0  0
 23 21  1  0  0  0  0
 24 28  1  0  0  0  0
 24 31  2  0  0  0  0
 25 30  1  0  0  0  0
 27 24  1  0  0  0  0
 28 25  1  0  0  0  0
 29 30  1  0  0  0  0
 29 26  2  0  0  0  0
 30 23  1  0  0  0  0
 31 29  1  0  0  0  0
M  END
>  <MODEL>
8

>  <REMARK>
 VINA RESULT:      -9.3      2.898      4.208
  Name = 
  3 active torsions:
  status: ('A' for Active; 'I' for Inactive)
    1  A    between atoms: C_5  and  C_16
    2  A    between atoms: C_5  and  N_30
    3  A    between atoms: C_10  and  C_16
                            x       y       z     vdW  Elec       q    Type
                         _______ _______ _______ _____ _____    ______ ____

>  <TORSDO>
F 3

$$$$
=
 OpenBabel11122410563D

 31 35  0  0  1  0  0  0  0  0999 V2000
  190.3280  177.5310  140.9490 C   0  0  0  0  0  0  0  0  0  0  0  0
  187.0580  178.1290  142.7200 C   0  0  0  0  0  0  0  0  0  0  0  0
  187.2940  177.9090  144.1140 C   0  0  0  0  0  0  0  0  0  0  0  0
  188.7470  177.3550  145.9990 C   0  0  0  0  0  0  0  0  0  0  0  0
  188.0520  178.0070  141.7020 C   0  0  0  0  0  0  0  0  0  0  0  0
  189.9590  177.7880  139.6300 C   0  0  0  0  0  3  0  0  0  0  0  0
  188.5530  177.5570  144.6310 C   0  0  0  0  0  3  0  0  0  0  0  0
  185.4570  178.7510  140.9670 C   0  0  0  0  0  0  0  0  0  0  0  0
  191.9740  177.0710  141.3260 Cl  0  0  0  0  0  0  0  0  0  0  0  0
  184.9850  178.3910  144.5900 N   0  0  0  0  0  0  0  0  0  0  0  0
  190.3300  176.9180  146.6020 Cl  0  0  0  0  0  0  0  0  0  0  0  0
  186.4330  178.6280  140.0350 N   0  0  0  0  0  0  0  0  0  0  0  0
  185.7420  178.4960  142.3210 C   0  0  0  0  0  0  0  0  0  0  0  0
  189.3830  177.6390  141.9720 C   0  0  0  0  0  3  0  0  0  0  0  0
  187.6790  177.5000  146.8830 C   0  0  0  0  0  3  0  0  0  0  0  0
  187.6960  178.2640  140.3540 C   0  0  0  0  0  0  0  0  0  0  0  0
  188.6470  178.1540  139.3340 C   0  0  0  0  0  3  0  0  0  0  0  0
  184.7300  178.6110  143.2800 C   0  0  0  0  0  3  0  0  0  0  0  0
  186.2200  178.0540  145.0290 C   0  0  0  0  0  0  0  0  0  0  0  0
  186.4190  177.8480  146.3980 C   0  0  0  0  0  3  0  0  0  0  0  0
  184.1040  179.2250  140.5250 C   0  0  0  0  0  2  0  0  0  0  0  0
  182.0170  177.8500  140.6630 C   0  0  0  0  0  1  0  0  0  0  0  0
  183.3110  178.0790  139.9040 C   0  0  1  0  0  3  0  0  0  0  0  0
  181.8500  178.1050  135.9480 C   0  0  0  0  0  0  0  0  0  0  0  0
  182.0770  179.3270  138.1060 C   0  0  0  0  0  2  0  0  0  0  0  0
  184.6200  176.7750  137.6410 O   0  0  0  0  0  0  0  0  0  0  0  0
  181.2380  178.0830  134.5940 C   0  0  0  0  0  1  0  0  0  0  0  0
  181.1010  178.7500  137.0830 C   0  0  0  0  0  2  0  0  0  0  0  0
  183.6110  177.4990  137.4350 C   0  0  0  0  0  0  0  0  0  0  0  0
  183.0540  178.3120  138.4830 N   0  0  0  0  0  0  0  0  0  0  0  0
  182.9860  177.5020  136.1470 N   0  0  0  0  0  0  0  0  0  0  0  0
  1  9  1  0  0  0  0
  1 14  1  0  0  0  0
  2  3  1  0  0  0  0
  3  7  2  0  0  0  0
  3 19  1  0  0  0  0
  4 11  1  0  0  0  0
  4 15  2  0  0  0  0
  5 14  2  0  0  0  0
  5  2  1  0  0  0  0
  6  1  2  0  0  0  0
  7  4  1  0  0  0  0
  8 13  1  0  0  0  0
 10 19  1  0  0  0  0
 12 16  1  0  0  0  0
 12  8  2  0  0  0  0
 13  2  2  0  0  0  0
 13 18  1  0  0  0  0
 16  5  1  0  0  0  0
 17  6  1  0  0  0  0
 17 16  2  0  0  0  0
 18 10  2  0  0  0  0
 19 20  2  0  0  0  0
 20 15  1  0  0  0  0
 21  8  1  0  0  0  0
 23 21  1  0  0  0  0
 23 22  1  1  0  0  0
 24 31  2  0  0  0  0
 24 28  1  0  0  0  0
 25 30  1  0  0  0  0
 27 24  1  0  0  0  0
 28 25  1  0  0  0  0
 29 26  2  0  0  0  0
 29 30  1  0  0  0  0
 30 23  1  0  0  0  0
 31 29  1  0  0  0  0
M  END
>  <MODEL>
9

>  <REMARK>
 VINA RESULT:      -9.2      3.211      5.142
  Name = 
  3 active torsions:
  status: ('A' for Active; 'I' for Inactive)
    1  A    between atoms: C_5  and  C_16
    2  A    between atoms: C_5  and  N_30
    3  A    between atoms: C_10  and  C_16
                            x       y       z     vdW  Elec       q    Type
                         _______ _______ _______ _____ _____    ______ ____

>  <TORSDO>
F 3

$$$$
