=
 OpenBabel11122410303D

 30 35  0  0  1  0  0  0  0  0999 V2000
  186.9730  178.0240  142.5860 C   0  0  0  0  0  0  0  0  0  0  0  0
  188.1400  177.5460  144.7600 C   0  0  0  0  0  0  0  0  0  0  0  0
  183.3860  178.8750  144.6200 N   0  0  0  0  0  2  0  0  0  0  0  0
  185.7800  178.3980  141.9040 C   0  0  0  0  0  0  0  0  0  0  0  0
  188.1800  177.6370  141.7730 C   0  0  0  0  0  2  0  0  0  0  0  0
  187.1110  178.7860  138.4160 O   0  0  0  0  0  1  0  0  0  0  0  0
  183.5690  177.2870  140.2720 C   0  0  1  0  0  3  0  0  0  0  0  0
  187.0150  178.1510  139.6580 C   0  0  1  0  0  3  0  0  0  0  0  0
  182.6870  177.8270  141.4000 C   0  0  2  0  0  3  0  0  0  0  0  0
  182.5660  179.1600  143.4920 C   0  0  0  0  0  0  0  0  0  0  0  0
  188.2780  178.4140  140.4700 C   0  0  2  0  0  3  0  0  0  0  0  0
  185.7820  178.6740  140.4000 C   0  0  1  0  0  3  0  0  0  0  0  0
  188.0830  177.4630  146.1550 C   0  0  0  0  0  3  0  0  0  0  0  0
  181.3970  178.1610  140.8180 N   0  0  0  0  0  2  0  0  0  0  0  0
  182.5850  176.7580  139.2540 C   0  0  0  0  0  2  0  0  0  0  0  0
  189.3550  177.2600  144.1510 O   0  0  0  0  0  1  0  0  0  0  0  0
  184.6460  178.5700  144.0420 C   0  0  0  0  0  0  0  0  0  0  0  0
  186.9040  177.7440  146.8400 C   0  0  0  0  0  3  0  0  0  0  0  0
  186.9860  177.9180  144.0150 C   0  0  0  0  0  0  0  0  0  0  0  0
  184.6400  178.6660  142.6700 C   0  0  0  0  0  0  0  0  0  0  0  0
  181.3640  179.5170  143.6060 O   0  0  0  0  0  0  0  0  0  0  0  0
  183.2710  179.0120  142.1770 C   0  0  1  0  0  3  0  0  0  0  0  0
  181.2140  177.2080  139.7310 C   0  0  0  0  0  2  0  0  0  0  0  0
  183.8000  179.5840  139.1270 C   0  0  0  0  0  1  0  0  0  0  0  0
  185.7620  178.1150  146.1350 C   0  0  0  0  0  3  0  0  0  0  0  0
  185.7930  178.2060  144.7400 C   0  0  0  0  0  0  0  0  0  0  0  0
  184.5030  178.3220  139.6160 C   0  0  2  0  0  3  0  0  0  0  0  0
  189.5090  177.9530  139.7050 C   0  0  0  0  0  2  0  0  0  0  0  0
  191.7270  177.4090  140.6590 C   0  0  0  0  0  1  0  0  0  0  0  0
  190.2930  176.9440  140.5240 C   0  0  0  0  0  2  0  0  0  0  0  0
  1 19  1  0  0  0  0
  2 13  1  0  0  0  0
  4  1  2  0  0  0  0
  4 20  1  0  0  0  0
  5  1  1  0  0  0  0
  7 15  1  6  0  0  0
  7  9  1  0  0  0  0
  8  6  1  6  0  0  0
  8 12  1  0  0  0  0
  8 11  1  0  0  0  0
  9 14  1  6  0  0  0
  9 22  1  0  0  0  0
 10 21  2  0  0  0  0
 10  3  1  0  0  0  0
 11 28  1  6  0  0  0
 11  5  1  0  0  0  0
 12  4  1  1  0  0  0
 13 18  2  0  0  0  0
 15 23  1  0  0  0  0
 16  2  1  0  0  0  0
 17  3  1  0  0  0  0
 17 26  1  0  0  0  0
 19 26  1  0  0  0  0
 19  2  2  0  0  0  0
 20 17  2  0  0  0  0
 22 20  1  1  0  0  0
 22 10  1  0  0  0  0
 23 14  1  0  0  0  0
 25 18  1  0  0  0  0
 26 25  2  0  0  0  0
 27 24  1  1  0  0  0
 27  7  1  0  0  0  0
 27 12  1  0  0  0  0
 28 30  1  0  0  0  0
 30 29  1  0  0  0  0
M  END
>  <MODEL>
1

>  <REMARK>
 VINA RESULT:      -9.9      0.000      0.000
  Name = 
  2 active torsions:
  status: ('A' for Active; 'I' for Inactive)
    1  A    between atoms: C_11  and  C_28
    2  A    between atoms: C_28  and  C_30
                            x       y       z     vdW  Elec       q    Type
                         _______ _______ _______ _____ _____    ______ ____

>  <TORSDO>
F 2

$$$$
=
 OpenBabel11122410303D

 30 35  0  0  1  0  0  0  0  0999 V2000
  186.1980  178.2610  142.1190 C   0  0  0  0  0  0  0  0  0  0  0  0
  183.8340  179.0340  142.4800 C   0  0  0  0  0  0  0  0  0  0  0  0
  186.6510  177.5030  146.2360 N   0  0  0  0  0  2  0  0  0  0  0  0
  187.4110  177.7610  142.6730 C   0  0  0  0  0  0  0  0  0  0  0  0
  186.1590  178.6010  140.6530 C   0  0  0  0  0  2  0  0  0  0  0  0
  189.3200  177.0280  139.5250 O   0  0  0  0  0  1  0  0  0  0  0  0
  190.1610  178.5840  143.4130 C   0  0  1  0  0  3  0  0  0  0  0  0
  188.4700  177.7980  140.3260 C   0  0  1  0  0  3  0  0  0  0  0  0
  189.7380  178.1420  144.8150 C   0  0  2  0  0  3  0  0  0  0  0  0
  188.0020  177.0550  146.2210 C   0  0  0  0  0  0  0  0  0  0  0  0
  187.0380  177.6830  139.8180 C   0  0  2  0  0  3  0  0  0  0  0  0
  188.5650  177.3130  141.7760 C   0  0  1  0  0  3  0  0  0  0  0  0
  182.7760  179.2750  143.3620 C   0  0  0  0  0  3  0  0  0  0  0  0
  190.9350  177.6900  145.5060 N   0  0  0  0  0  2  0  0  0  0  0  0
  191.6190  178.9500  143.5650 C   0  0  0  0  0  2  0  0  0  0  0  0
  183.6170  179.2990  141.1330 O   0  0  0  0  0  1  0  0  0  0  0  0
  186.3840  177.7900  144.8710 C   0  0  0  0  0  0  0  0  0  0  0  0
  182.9120  179.0270  144.7250 C   0  0  0  0  0  3  0  0  0  0  0  0
  185.0730  178.5320  142.9650 C   0  0  0  0  0  0  0  0  0  0  0  0
  187.4610  177.5360  144.0540 C   0  0  0  0  0  0  0  0  0  0  0  0
  188.5930  176.6650  147.2610 O   0  0  0  0  0  0  0  0  0  0  0  0
  188.6340  177.0790  144.8610 C   0  0  1  0  0  3  0  0  0  0  0  0
  192.0150  178.5020  144.9620 C   0  0  0  0  0  2  0  0  0  0  0  0
  190.6570  176.1820  142.6230 C   0  0  0  0  0  1  0  0  0  0  0  0
  184.1120  178.5310  145.2250 C   0  0  0  0  0  3  0  0  0  0  0  0
  185.1850  178.2800  144.3640 C   0  0  0  0  0  0  0  0  0  0  0  0
  189.9960  177.5190  142.3100 C   0  0  2  0  0  3  0  0  0  0  0  0
  186.9550  178.1040  138.3580 C   0  0  0  0  0  2  0  0  0  0  0  0
  185.0830  176.9600  137.2160 C   0  0  0  0  0  1  0  0  0  0  0  0
  185.5060  178.2280  137.9260 C   0  0  0  0  0  2  0  0  0  0  0  0
  1  4  2  0  0  0  0
  1 19  1  0  0  0  0
  2 19  2  0  0  0  0
  2 13  1  0  0  0  0
  4 20  1  0  0  0  0
  5  1  1  0  0  0  0
  7 15  1  1  0  0  0
  7  9  1  0  0  0  0
  8  6  1  6  0  0  0
  8 12  1  0  0  0  0
  9 22  1  0  0  0  0
  9 14  1  6  0  0  0
 10  3  1  0  0  0  0
 10 21  2  0  0  0  0
 11 28  1  6  0  0  0
 11  8  1  0  0  0  0
 11  5  1  0  0  0  0
 12 27  1  0  0  0  0
 12  4  1  1  0  0  0
 13 18  2  0  0  0  0
 15 23  1  0  0  0  0
 16  2  1  0  0  0  0
 17  3  1  0  0  0  0
 18 25  1  0  0  0  0
 19 26  1  0  0  0  0
 20 17  2  0  0  0  0
 22 20  1  6  0  0  0
 22 10  1  0  0  0  0
 23 14  1  0  0  0  0
 26 17  1  0  0  0  0
 26 25  2  0  0  0  0
 27 24  1  1  0  0  0
 27  7  1  0  0  0  0
 29 30  1  0  0  0  0
 30 28  1  0  0  0  0
M  END
>  <MODEL>
2

>  <REMARK>
 VINA RESULT:      -9.1      2.403      5.916
  Name = 
  2 active torsions:
  status: ('A' for Active; 'I' for Inactive)
    1  A    between atoms: C_11  and  C_28
    2  A    between atoms: C_28  and  C_30
                            x       y       z     vdW  Elec       q    Type
                         _______ _______ _______ _____ _____    ______ ____

>  <TORSDO>
F 2

$$$$
=
 OpenBabel11122410303D

 30 35  0  0  1  0  0  0  0  0999 V2000
  187.9830  177.7610  142.6410 C   0  0  0  0  0  0  0  0  0  0  0  0
  186.8800  177.7010  144.8990 C   0  0  0  0  0  0  0  0  0  0  0  0
  184.4590  179.2510  140.8830 N   0  0  0  0  0  2  0  0  0  0  0  0
  187.8880  178.0480  141.2490 C   0  0  0  0  0  0  0  0  0  0  0  0
  189.2480  177.1340  143.1650 C   0  0  0  0  0  2  0  0  0  0  0  0
  191.4710  177.5820  140.2340 O   0  0  0  0  0  1  0  0  0  0  0  0
  187.6150  176.7430  138.6020 C   0  0  1  0  0  3  0  0  0  0  0  0
  190.3140  177.2420  140.9410 C   0  0  1  0  0  3  0  0  0  0  0  0
  186.3310  177.5680  138.5130 C   0  0  2  0  0  3  0  0  0  0  0  0
  184.9130  179.3320  139.5370 C   0  0  0  0  0  0  0  0  0  0  0  0
  190.4840  177.5990  142.4120 C   0  0  2  0  0  3  0  0  0  0  0  0
  189.1180  177.9880  140.3430 C   0  0  1  0  0  3  0  0  0  0  0  0
  185.7440  177.9290  145.6810 C   0  0  0  0  0  3  0  0  0  0  0  0
  186.0910  177.8440  137.1050 N   0  0  0  0  0  2  0  0  0  0  0  0
  187.7130  176.0650  137.2550 C   0  0  0  0  0  2  0  0  0  0  0  0
  188.0130  177.2160  145.5410 O   0  0  0  0  0  1  0  0  0  0  0  0
  185.5900  178.7520  141.5820 C   0  0  0  0  0  0  0  0  0  0  0  0
  184.5730  178.4240  145.1130 C   0  0  0  0  0  3  0  0  0  0  0  0
  186.8570  177.9690  143.5020 C   0  0  0  0  0  0  0  0  0  0  0  0
  186.6740  178.5460  140.7610 C   0  0  0  0  0  0  0  0  0  0  0  0
  184.1890  179.7770  138.6080 O   0  0  0  0  0  0  0  0  0  0  0  0
  186.3220  178.8570  139.3420 C   0  0  1  0  0  3  0  0  0  0  0  0
  186.6270  176.6900  136.3960 C   0  0  0  0  0  2  0  0  0  0  0  0
  189.1290  178.7150  137.9250 C   0  0  0  0  0  1  0  0  0  0  0  0
  184.5250  178.6990  143.7490 C   0  0  0  0  0  3  0  0  0  0  0  0
  185.6480  178.4810  142.9450 C   0  0  0  0  0  0  0  0  0  0  0  0
  188.8980  177.5510  138.8820 C   0  0  2  0  0  3  0  0  0  0  0  0
  191.7110  176.9080  142.9900 C   0  0  0  0  0  2  0  0  0  0  0  0
  191.6640  176.9200  145.4640 C   0  0  0  0  0  1  0  0  0  0  0  0
  191.3350  176.1130  144.2260 C   0  0  0  0  0  2  0  0  0  0  0  0
  1  5  1  0  0  0  0
  1 19  1  0  0  0  0
  2 16  1  0  0  0  0
  2 13  1  0  0  0  0
  3 17  1  0  0  0  0
  4  1  2  0  0  0  0
  7 15  1  6  0  0  0
  7 27  1  0  0  0  0
  8  6  1  6  0  0  0
  8 11  1  0  0  0  0
  9 14  1  6  0  0  0
  9  7  1  0  0  0  0
  9 22  1  0  0  0  0
 10  3  1  0  0  0  0
 11 28  1  1  0  0  0
 11  5  1  0  0  0  0
 12  8  1  0  0  0  0
 12  4  1  1  0  0  0
 17 26  1  0  0  0  0
 18 13  2  0  0  0  0
 19  2  2  0  0  0  0
 20  4  1  0  0  0  0
 20 17  2  0  0  0  0
 21 10  2  0  0  0  0
 22 10  1  1  0  0  0
 22 20  1  0  0  0  0
 23 14  1  0  0  0  0
 23 15  1  0  0  0  0
 25 18  1  0  0  0  0
 26 19  1  0  0  0  0
 26 25  2  0  0  0  0
 27 24  1  6  0  0  0
 27 12  1  0  0  0  0
 28 30  1  0  0  0  0
 30 29  1  0  0  0  0
M  END
>  <MODEL>
3

>  <REMARK>
 VINA RESULT:      -8.8      2.326      3.896
  Name = 
  2 active torsions:
  status: ('A' for Active; 'I' for Inactive)
    1  A    between atoms: C_11  and  C_28
    2  A    between atoms: C_28  and  C_30
                            x       y       z     vdW  Elec       q    Type
                         _______ _______ _______ _____ _____    ______ ____

>  <TORSDO>
F 2

$$$$
=
 OpenBabel11122410303D

 30 35  0  0  1  0  0  0  0  0999 V2000
  186.2590  178.1610  142.5460 C   0  0  0  0  0  0  0  0  0  0  0  0
  187.3590  177.8520  144.7850 C   0  0  0  0  0  0  0  0  0  0  0  0
  182.5790  179.0310  144.3980 N   0  0  0  0  0  2  0  0  0  0  0  0
  185.0820  178.4570  141.8010 C   0  0  0  0  0  0  0  0  0  0  0  0
  187.5040  177.7600  141.8010 C   0  0  0  0  0  2  0  0  0  0  0  0
  186.5270  178.6680  138.3430 O   0  0  0  0  0  1  0  0  0  0  0  0
  182.9620  177.1840  140.1670 C   0  0  1  0  0  3  0  0  0  0  0  0
  186.4030  178.1080  139.6190 C   0  0  1  0  0  3  0  0  0  0  0  0
  182.0260  177.7660  141.2280 C   0  0  2  0  0  3  0  0  0  0  0  0
  181.7930  179.2230  143.2270 C   0  0  0  0  0  0  0  0  0  0  0  0
  187.6280  178.4570  140.4550 C   0  0  2  0  0  3  0  0  0  0  0  0
  185.1310  178.6400  140.2840 C   0  0  1  0  0  3  0  0  0  0  0  0
  187.2540  177.8540  146.1790 C   0  0  0  0  0  3  0  0  0  0  0  0
  180.7490  178.0270  140.5820 N   0  0  0  0  0  2  0  0  0  0  0  0
  182.0290  176.5650  139.1510 C   0  0  0  0  0  2  0  0  0  0  0  0
  188.6030  177.5640  144.2360 O   0  0  0  0  0  1  0  0  0  0  0  0
  183.8670  178.7280  143.8830 C   0  0  0  0  0  0  0  0  0  0  0  0
  186.0440  178.1420  146.8040 C   0  0  0  0  0  3  0  0  0  0  0  0
  186.2240  178.1430  143.9780 C   0  0  0  0  0  0  0  0  0  0  0  0
  183.9080  178.7390  142.5090 C   0  0  0  0  0  0  0  0  0  0  0  0
  180.5790  179.5510  143.2770 O   0  0  0  0  0  0  0  0  0  0  0  0
  182.5490  179.0140  141.9480 C   0  0  1  0  0  3  0  0  0  0  0  0
  180.6300  177.0040  139.5510 C   0  0  0  0  0  2  0  0  0  0  0  0
  183.1730  179.4120  138.8890 C   0  0  0  0  0  1  0  0  0  0  0  0
  184.9190  178.4350  146.0380 C   0  0  0  0  0  3  0  0  0  0  0  0
  184.9980  178.4410  144.6420 C   0  0  0  0  0  0  0  0  0  0  0  0
  183.8910  178.2030  139.4790 C   0  0  2  0  0  3  0  0  0  0  0  0
  188.8990  177.9850  139.7630 C   0  0  0  0  0  2  0  0  0  0  0  0
  189.5930  178.0200  137.3890 C   0  0  0  0  0  1  0  0  0  0  0  0
  189.2180  178.8780  138.5780 C   0  0  0  0  0  2  0  0  0  0  0  0
  1 19  1  0  0  0  0
  2 13  1  0  0  0  0
  4 20  1  0  0  0  0
  4  1  2  0  0  0  0
  5  1  1  0  0  0  0
  7 15  1  6  0  0  0
  7  9  1  0  0  0  0
  8  6  1  6  0  0  0
  8 12  1  0  0  0  0
  8 11  1  0  0  0  0
  9 14  1  6  0  0  0
  9 22  1  0  0  0  0
 10 21  2  0  0  0  0
 10  3  1  0  0  0  0
 11 28  1  6  0  0  0
 11  5  1  0  0  0  0
 12  4  1  1  0  0  0
 13 18  2  0  0  0  0
 15 23  1  0  0  0  0
 16  2  1  0  0  0  0
 17  3  1  0  0  0  0
 17 26  1  0  0  0  0
 19 26  1  0  0  0  0
 19  2  2  0  0  0  0
 20 17  2  0  0  0  0
 22 20  1  1  0  0  0
 22 10  1  0  0  0  0
 23 14  1  0  0  0  0
 25 18  1  0  0  0  0
 26 25  2  0  0  0  0
 27 24  1  1  0  0  0
 27  7  1  0  0  0  0
 27 12  1  0  0  0  0
 29 30  1  0  0  0  0
 30 28  1  0  0  0  0
M  END
>  <MODEL>
4

>  <REMARK>
 VINA RESULT:      -8.7      0.960      1.154
  Name = 
  2 active torsions:
  status: ('A' for Active; 'I' for Inactive)
    1  A    between atoms: C_11  and  C_28
    2  A    between atoms: C_28  and  C_30
                            x       y       z     vdW  Elec       q    Type
                         _______ _______ _______ _____ _____    ______ ____

>  <TORSDO>
F 2

$$$$
=
 OpenBabel11122410303D

 30 35  0  0  1  0  0  0  0  0999 V2000
  187.1810  178.1060  140.6070 C   0  0  0  0  0  0  0  0  0  0  0  0
  184.9300  178.9920  139.9210 C   0  0  0  0  0  0  0  0  0  0  0  0
  185.9410  177.8790  144.6250 N   0  0  0  0  0  2  0  0  0  0  0  0
  188.0410  177.6470  141.6450 C   0  0  0  0  0  0  0  0  0  0  0  0
  187.7400  178.2530  139.2170 C   0  0  0  0  0  2  0  0  0  0  0  0
  190.9550  176.4520  139.6050 O   0  0  0  0  0  1  0  0  0  0  0  0
  190.3450  178.4750  143.3160 C   0  0  1  0  0  3  0  0  0  0  0  0
  189.9260  177.3450  139.9180 C   0  0  1  0  0  3  0  0  0  0  0  0
  189.3780  178.2340  144.4760 C   0  0  2  0  0  3  0  0  0  0  0  0
  187.1530  177.3920  145.1930 C   0  0  0  0  0  0  0  0  0  0  0  0
  188.7980  177.2080  138.9020 C   0  0  2  0  0  3  0  0  0  0  0  0
  189.4130  177.0510  141.3300 C   0  0  1  0  0  3  0  0  0  0  0  0
  183.6360  179.3780  140.2830 C   0  0  0  0  0  3  0  0  0  0  0  0
  190.1740  177.8390  145.6280 N   0  0  0  0  0  2  0  0  0  0  0  0
  191.6540  178.8140  143.9910 C   0  0  0  0  0  2  0  0  0  0  0  0
  185.2740  179.0840  138.5780 O   0  0  0  0  0  1  0  0  0  0  0  0
  186.2480  177.9940  143.2440 C   0  0  0  0  0  0  0  0  0  0  0  0
  183.2130  179.3050  141.6070 C   0  0  0  0  0  3  0  0  0  0  0  0
  185.8410  178.5190  140.9070 C   0  0  0  0  0  0  0  0  0  0  0  0
  187.5330  177.6030  142.9500 C   0  0  0  0  0  0  0  0  0  0  0  0
  187.2620  177.1240  146.4170 O   0  0  0  0  0  0  0  0  0  0  0  0
  188.2620  177.2200  144.1980 C   0  0  1  0  0  3  0  0  0  0  0  0
  191.4410  178.5400  145.4700 C   0  0  0  0  0  2  0  0  0  0  0  0
  190.9160  175.9770  143.0510 C   0  0  0  0  0  1  0  0  0  0  0  0
  184.0830  178.8420  142.5900 C   0  0  0  0  0  3  0  0  0  0  0  0
  185.3820  178.4490  142.2550 C   0  0  0  0  0  0  0  0  0  0  0  0
  190.5360  177.2810  142.3600 C   0  0  2  0  0  3  0  0  0  0  0  0
  189.3210  177.4360  137.4910 C   0  0  0  0  0  2  0  0  0  0  0  0
  187.7350  177.8780  135.6450 C   0  0  0  0  0  1  0  0  0  0  0  0
  188.5010  178.5030  136.7900 C   0  0  0  0  0  2  0  0  0  0  0  0
  1 19  2  0  0  0  0
  1  4  1  0  0  0  0
  2 13  2  0  0  0  0
  2 19  1  0  0  0  0
  3 10  1  0  0  0  0
  4 20  2  0  0  0  0
  5  1  1  0  0  0  0
  7 15  1  1  0  0  0
  7  9  1  0  0  0  0
  8  6  1  6  0  0  0
  8 12  1  0  0  0  0
  9 14  1  1  0  0  0
 10 21  2  0  0  0  0
 11 28  1  6  0  0  0
 11  5  1  0  0  0  0
 11  8  1  0  0  0  0
 12  4  1  1  0  0  0
 12 27  1  0  0  0  0
 13 18  1  0  0  0  0
 15 23  1  0  0  0  0
 16  2  1  0  0  0  0
 17  3  1  0  0  0  0
 18 25  2  0  0  0  0
 19 26  1  0  0  0  0
 20 17  1  0  0  0  0
 22 20  1  6  0  0  0
 22  9  1  0  0  0  0
 22 10  1  0  0  0  0
 23 14  1  0  0  0  0
 26 25  1  0  0  0  0
 26 17  2  0  0  0  0
 27 24  1  1  0  0  0
 27  7  1  0  0  0  0
 29 30  1  0  0  0  0
 30 28  1  0  0  0  0
M  END
>  <MODEL>
5

>  <REMARK>
 VINA RESULT:      -8.5      2.455      5.967
  Name = 
  2 active torsions:
  status: ('A' for Active; 'I' for Inactive)
    1  A    between atoms: C_11  and  C_28
    2  A    between atoms: C_28  and  C_30
                            x       y       z     vdW  Elec       q    Type
                         _______ _______ _______ _____ _____    ______ ____

>  <TORSDO>
F 2

$$$$
=
 OpenBabel11122410303D

 30 35  0  0  1  0  0  0  0  0999 V2000
  188.1100  177.6630  142.5440 C   0  0  0  0  0  0  0  0  0  0  0  0
  186.0480  177.9990  143.9420 C   0  0  0  0  0  0  0  0  0  0  0  0
  186.0320  178.8400  139.0760 N   0  0  0  0  0  2  0  0  0  0  0  0
  188.7290  177.7050  141.2620 C   0  0  0  0  0  0  0  0  0  0  0  0
  188.8980  177.1310  143.7100 C   0  0  0  0  0  2  0  0  0  0  0  0
  192.2960  177.0580  142.2320 O   0  0  0  0  0  1  0  0  0  0  0  0
  189.6630  175.9630  139.0530 C   0  0  1  0  0  3  0  0  0  0  0  0
  190.9160  176.8490  142.3160 C   0  0  1  0  0  3  0  0  0  0  0  0
  188.6620  176.7650  138.2190 C   0  0  2  0  0  3  0  0  0  0  0  0
  187.0880  178.6850  138.1340 C   0  0  0  0  0  0  0  0  0  0  0  0
  190.3810  177.4550  143.6070 C   0  0  2  0  0  3  0  0  0  0  0  0
  190.2330  177.4850  141.1020 C   0  0  1  0  0  3  0  0  0  0  0  0
  184.7000  178.3630  144.0170 C   0  0  0  0  0  3  0  0  0  0  0  0
  189.1630  176.7950  136.8540 N   0  0  0  0  0  2  0  0  0  0  0  0
  190.3420  175.0620  138.0490 C   0  0  0  0  0  2  0  0  0  0  0  0
  186.6770  177.6280  145.1240 O   0  0  0  0  0  1  0  0  0  0  0  0
  186.6320  178.4650  140.3070 C   0  0  0  0  0  0  0  0  0  0  0  0
  184.0020  178.7560  142.8780 C   0  0  0  0  0  3  0  0  0  0  0  0
  186.7300  178.0220  142.6940 C   0  0  0  0  0  0  0  0  0  0  0  0
  187.9550  178.1160  140.1700 C   0  0  0  0  0  0  0  0  0  0  0  0
  186.9490  178.9650  136.9150 O   0  0  0  0  0  0  0  0  0  0  0  0
  188.3660  178.1790  138.7340 C   0  0  1  0  0  3  0  0  0  0  0  0
  189.8710  175.5330  136.6830 C   0  0  0  0  0  2  0  0  0  0  0  0
  191.4820  177.7830  138.9280 C   0  0  0  0  0  1  0  0  0  0  0  0
  184.6470  178.7920  141.6450 C   0  0  0  0  0  3  0  0  0  0  0  0
  185.9950  178.4330  141.5440 C   0  0  0  0  0  0  0  0  0  0  0  0
  190.7130  176.8020  139.8060 C   0  0  2  0  0  3  0  0  0  0  0  0
  191.1050  176.8700  144.8110 C   0  0  0  0  0  2  0  0  0  0  0  0
  191.0430  176.5220  147.2600 C   0  0  0  0  0  1  0  0  0  0  0  0
  190.2960  177.0960  146.0750 C   0  0  0  0  0  2  0  0  0  0  0  0
  1 19  1  0  0  0  0
  1  5  1  0  0  0  0
  2 13  1  0  0  0  0
  2 16  1  0  0  0  0
  3 17  1  0  0  0  0
  4  1  2  0  0  0  0
  7 15  1  6  0  0  0
  7 27  1  0  0  0  0
  8  6  1  6  0  0  0
  8 11  1  0  0  0  0
  9 14  1  6  0  0  0
  9 22  1  0  0  0  0
  9  7  1  0  0  0  0
 10  3  1  0  0  0  0
 11  5  1  0  0  0  0
 11 28  1  1  0  0  0
 12  4  1  1  0  0  0
 12  8  1  0  0  0  0
 17 26  1  0  0  0  0
 18 13  2  0  0  0  0
 19  2  2  0  0  0  0
 20 17  2  0  0  0  0
 20  4  1  0  0  0  0
 21 10  2  0  0  0  0
 22 10  1  6  0  0  0
 22 20  1  0  0  0  0
 23 14  1  0  0  0  0
 23 15  1  0  0  0  0
 25 18  1  0  0  0  0
 26 25  2  0  0  0  0
 26 19  1  0  0  0  0
 27 24  1  6  0  0  0
 27 12  1  0  0  0  0
 28 30  1  0  0  0  0
 30 29  1  0  0  0  0
M  END
>  <MODEL>
6

>  <REMARK>
 VINA RESULT:      -8.3      2.643      5.695
  Name = 
  2 active torsions:
  status: ('A' for Active; 'I' for Inactive)
    1  A    between atoms: C_11  and  C_28
    2  A    between atoms: C_28  and  C_30
                            x       y       z     vdW  Elec       q    Type
                         _______ _______ _______ _____ _____    ______ ____

>  <TORSDO>
F 2

$$$$
=
 OpenBabel11122410303D

 30 35  0  0  1  0  0  0  0  0999 V2000
  184.8110  178.6520  141.3070 C   0  0  0  0  0  0  0  0  0  0  0  0
  187.2840  178.5620  140.8640 C   0  0  0  0  0  0  0  0  0  0  0  0
  183.9880  177.8390  137.2590 N   0  0  0  0  0  2  0  0  0  0  0  0
  183.4820  178.5570  140.8040 C   0  0  0  0  0  0  0  0  0  0  0  0
  185.0130  179.0480  142.7450 C   0  0  0  0  0  2  0  0  0  0  0  0
  181.5490  178.7030  144.0170 O   0  0  0  0  0  1  0  0  0  0  0  0
  181.1420  180.2090  140.0420 C   0  0  1  0  0  3  0  0  0  0  0  0
  182.5790  179.0910  143.1550 C   0  0  1  0  0  3  0  0  0  0  0  0
  181.3440  179.5650  138.6690 C   0  0  2  0  0  3  0  0  0  0  0  0
  182.5660  177.8730  137.3210 C   0  0  0  0  0  0  0  0  0  0  0  0
  183.9060  178.5330  143.6520 C   0  0  2  0  0  3  0  0  0  0  0  0
  182.2770  178.5790  141.7440 C   0  0  1  0  0  3  0  0  0  0  0  0
  188.3300  178.3780  139.9540 C   0  0  0  0  0  3  0  0  0  0  0  0
  180.0410  179.5000  138.0260 N   0  0  0  0  0  2  0  0  0  0  0  0
  179.8860  181.0340  139.8820 C   0  0  0  0  0  2  0  0  0  0  0  0
  187.6230  178.8200  142.1870 O   0  0  0  0  0  1  0  0  0  0  0  0
  184.3820  178.1030  138.5970 C   0  0  0  0  0  0  0  0  0  0  0  0
  188.0710  178.1070  138.6140 C   0  0  0  0  0  3  0  0  0  0  0  0
  185.9310  178.4770  140.4310 C   0  0  0  0  0  0  0  0  0  0  0  0
  183.3120  178.2770  139.4430 C   0  0  0  0  0  0  0  0  0  0  0  0
  181.8420  177.6420  136.3180 O   0  0  0  0  0  0  0  0  0  0  0  0
  182.0260  178.1930  138.6840 C   0  0  1  0  0  3  0  0  0  0  0  0
  179.3140  180.6600  138.5250 C   0  0  0  0  0  2  0  0  0  0  0  0
  179.8990  178.1670  141.0020 C   0  0  0  0  0  1  0  0  0  0  0  0
  186.7570  178.0130  138.1650 C   0  0  0  0  0  3  0  0  0  0  0  0
  185.6930  178.1920  139.0540 C   0  0  0  0  0  0  0  0  0  0  0  0
  180.9800  179.2210  141.2140 C   0  0  2  0  0  3  0  0  0  0  0  0
  184.1760  178.9900  145.0780 C   0  0  0  0  0  2  0  0  0  0  0  0
  185.7540  178.6240  146.9480 C   0  0  0  0  0  1  0  0  0  0  0  0
  185.6280  178.7470  145.4450 C   0  0  0  0  0  2  0  0  0  0  0  0
  1  5  1  0  0  0  0
  2 16  1  0  0  0  0
  3 10  1  0  0  0  0
  3 17  1  0  0  0  0
  4  1  1  0  0  0  0
  5 11  1  0  0  0  0
  7 15  1  6  0  0  0
  7 27  1  0  0  0  0
  8 11  1  0  0  0  0
  8  6  1  1  0  0  0
  9 14  1  1  0  0  0
  9 22  1  0  0  0  0
  9  7  1  0  0  0  0
 11 28  1  1  0  0  0
 12  4  1  6  0  0  0
 12  8  1  0  0  0  0
 13  2  2  0  0  0  0
 14 23  1  0  0  0  0
 17 26  2  0  0  0  0
 17 20  1  0  0  0  0
 18 13  1  0  0  0  0
 19  2  1  0  0  0  0
 19  1  2  0  0  0  0
 20  4  2  0  0  0  0
 21 10  2  0  0  0  0
 22 10  1  6  0  0  0
 22 20  1  0  0  0  0
 23 15  1  0  0  0  0
 25 18  2  0  0  0  0
 25 26  1  0  0  0  0
 26 19  1  0  0  0  0
 27 24  1  6  0  0  0
 27 12  1  0  0  0  0
 28 30  1  0  0  0  0
 30 29  1  0  0  0  0
M  END
>  <MODEL>
7

>  <REMARK>
 VINA RESULT:      -7.9      2.301      5.542
  Name = 
  2 active torsions:
  status: ('A' for Active; 'I' for Inactive)
    1  A    between atoms: C_11  and  C_28
    2  A    between atoms: C_28  and  C_30
                            x       y       z     vdW  Elec       q    Type
                         _______ _______ _______ _____ _____    ______ ____

>  <TORSDO>
F 2

$$$$
=
 OpenBabel11122410303D

 30 35  0  0  1  0  0  0  0  0999 V2000
  186.3830  178.3580  143.2030 C   0  0  0  0  0  0  0  0  0  0  0  0
  185.9910  178.2530  140.7230 C   0  0  0  0  0  0  0  0  0  0  0  0
  190.5520  178.3530  142.6120 N   0  0  0  0  0  2  0  0  0  0  0  0
  187.3070  178.4030  144.2870 C   0  0  0  0  0  0  0  0  0  0  0  0
  184.9130  178.2590  143.5100 C   0  0  0  0  0  2  0  0  0  0  0  0
  184.9450  179.0030  147.1410 O   0  0  0  0  0  1  0  0  0  0  0  0
  188.4880  176.7280  146.4280 C   0  0  1  0  0  3  0  0  0  0  0  0
  185.3330  178.4030  145.9390 C   0  0  1  0  0  3  0  0  0  0  0  0
  189.8090  177.0660  145.7340 C   0  0  2  0  0  3  0  0  0  0  0  0
  190.9590  178.3910  143.9750 C   0  0  0  0  0  0  0  0  0  0  0  0
  184.5330  178.9960  144.7860 C   0  0  2  0  0  3  0  0  0  0  0  0
  186.8320  178.6250  145.7230 C   0  0  1  0  0  3  0  0  0  0  0  0
  186.5200  178.2010  139.4290 C   0  0  0  0  0  3  0  0  0  0  0  0
  190.8480  177.0500  146.7520 N   0  0  0  0  0  2  0  0  0  0  0  0
  188.9030  175.9400  147.6490 C   0  0  0  0  0  2  0  0  0  0  0  0
  184.6070  178.2590  140.8490 O   0  0  0  0  0  1  0  0  0  0  0  0
  189.1350  178.3540  142.6920 C   0  0  0  0  0  0  0  0  0  0  0  0
  187.8960  178.2010  139.2200 C   0  0  0  0  0  3  0  0  0  0  0  0
  186.8550  178.3030  141.8510 C   0  0  0  0  0  0  0  0  0  0  0  0
  188.6740  178.4030  143.9860 C   0  0  0  0  0  0  0  0  0  0  0  0
  192.1700  178.4410  144.3150 O   0  0  0  0  0  0  0  0  0  0  0  0
  189.8180  178.3820  144.9490 C   0  0  1  0  0  3  0  0  0  0  0  0
  190.4170  176.0490  147.7180 C   0  0  0  0  0  2  0  0  0  0  0  0
  188.3810  178.9740  147.6860 C   0  0  0  0  0  1  0  0  0  0  0  0
  188.7640  178.2540  140.3070 C   0  0  0  0  0  3  0  0  0  0  0  0
  188.2610  178.3070  141.6100 C   0  0  0  0  0  0  0  0  0  0  0  0
  187.6360  177.9420  146.8460 C   0  0  2  0  0  3  0  0  0  0  0  0
  183.0400  178.8320  145.0310 C   0  0  0  0  0  2  0  0  0  0  0  0
  180.8210  178.6280  143.9580 C   0  0  0  0  0  1  0  0  0  0  0  0
  182.2700  179.0030  143.7350 C   0  0  0  0  0  2  0  0  0  0  0  0
  1  5  1  0  0  0  0
  1  4  1  0  0  0  0
  2 16  1  0  0  0  0
  2 19  1  0  0  0  0
  3 17  1  0  0  0  0
  3 10  1  0  0  0  0
  5 11  1  0  0  0  0
  7 27  1  0  0  0  0
  7 15  1  1  0  0  0
  8  6  1  1  0  0  0
  9  7  1  0  0  0  0
  9 14  1  1  0  0  0
 10 21  2  0  0  0  0
 11 28  1  1  0  0  0
 11  8  1  0  0  0  0
 12  4  1  6  0  0  0
 12  8  1  0  0  0  0
 12 27  1  0  0  0  0
 13  2  2  0  0  0  0
 14 23  1  0  0  0  0
 15 23  1  0  0  0  0
 17 20  1  0  0  0  0
 18 13  1  0  0  0  0
 18 25  2  0  0  0  0
 19  1  2  0  0  0  0
 20  4  2  0  0  0  0
 20 22  1  0  0  0  0
 22 10  1  6  0  0  0
 22  9  1  0  0  0  0
 25 26  1  0  0  0  0
 26 19  1  0  0  0  0
 26 17  2  0  0  0  0
 27 24  1  6  0  0  0
 30 29  1  0  0  0  0
 30 28  1  0  0  0  0
M  END
>  <MODEL>
8

>  <REMARK>
 VINA RESULT:      -7.7      3.029      7.592
  Name = 
  2 active torsions:
  status: ('A' for Active; 'I' for Inactive)
    1  A    between atoms: C_11  and  C_28
    2  A    between atoms: C_28  and  C_30
                            x       y       z     vdW  Elec       q    Type
                         _______ _______ _______ _____ _____    ______ ____

>  <TORSDO>
F 2

$$$$
=
 OpenBabel11122410303D

 30 35  0  0  1  0  0  0  0  0999 V2000
  189.5840  177.1130  143.5900 C   0  0  0  0  0  0  0  0  0  0  0  0
  191.3300  175.9320  144.9590 C   0  0  0  0  0  0  0  0  0  0  0  0
  187.5350  178.2720  147.0810 N   0  0  0  0  0  2  0  0  0  0  0  0
  188.3840  177.8790  143.5500 C   0  0  0  0  0  0  0  0  0  0  0  0
  190.1930  176.6550  142.2920 C   0  0  0  0  0  2  0  0  0  0  0  0
  188.2530  178.7090  139.8930 O   0  0  0  0  0  1  0  0  0  0  0  0
  185.4850  177.6610  142.9710 C   0  0  1  0  0  3  0  0  0  0  0  0
  188.4830  177.8580  140.9780 C   0  0  1  0  0  3  0  0  0  0  0  0
  185.3300  178.1250  144.4210 C   0  0  2  0  0  3  0  0  0  0  0  0
  186.4540  178.9680  146.4700 C   0  0  0  0  0  0  0  0  0  0  0  0
  189.9820  177.6550  141.1650 C   0  0  2  0  0  3  0  0  0  0  0  0
  187.8630  178.4660  142.2390 C   0  0  1  0  0  3  0  0  0  0  0  0
  191.8160  175.5640  146.2180 C   0  0  0  0  0  3  0  0  0  0  0  0
  184.0740  178.8520  144.5100 N   0  0  0  0  0  2  0  0  0  0  0  0
  184.0680  177.5950  142.4510 C   0  0  0  0  0  2  0  0  0  0  0  0
  192.0580  175.5240  143.8470 O   0  0  0  0  0  1  0  0  0  0  0  0
  188.3080  177.8300  145.9750 C   0  0  0  0  0  0  0  0  0  0  0  0
  191.1500  175.9420  147.3790 C   0  0  0  0  0  3  0  0  0  0  0  0
  190.1380  176.7000  144.8450 C   0  0  0  0  0  0  0  0  0  0  0  0
  187.7800  178.2190  144.7660 C   0  0  0  0  0  0  0  0  0  0  0  0
  185.5600  179.5470  147.1410 O   0  0  0  0  0  0  0  0  0  0  0  0
  186.4950  178.9560  144.9700 C   0  0  1  0  0  3  0  0  0  0  0  0
  183.2000  178.2220  143.5290 C   0  0  0  0  0  2  0  0  0  0  0  0
  185.8980  180.0430  142.0780 C   0  0  0  0  0  1  0  0  0  0  0  0
  189.9840  176.6980  147.2960 C   0  0  0  0  0  3  0  0  0  0  0  0
  189.4770  177.0800  146.0500 C   0  0  0  0  0  0  0  0  0  0  0  0
  186.3360  178.5820  142.0740 C   0  0  2  0  0  3  0  0  0  0  0  0
  190.6100  177.1100  139.8900 C   0  0  0  0  0  2  0  0  0  0  0  0
  192.7270  176.6430  138.6980 C   0  0  0  0  0  1  0  0  0  0  0  0
  192.1180  177.2720  139.9330 C   0  0  0  0  0  2  0  0  0  0  0  0
  1 19  1  0  0  0  0
  2 13  1  0  0  0  0
  4  1  2  0  0  0  0
  4 20  1  0  0  0  0
  5  1  1  0  0  0  0
  7 15  1  6  0  0  0
  7  9  1  0  0  0  0
  8  6  1  6  0  0  0
  8 11  1  0  0  0  0
  8 12  1  0  0  0  0
  9 14  1  6  0  0  0
  9 22  1  0  0  0  0
 10  3  1  0  0  0  0
 10 21  2  0  0  0  0
 11 28  1  6  0  0  0
 11  5  1  0  0  0  0
 12  4  1  1  0  0  0
 13 18  2  0  0  0  0
 15 23  1  0  0  0  0
 16  2  1  0  0  0  0
 17 26  1  0  0  0  0
 17  3  1  0  0  0  0
 19  2  2  0  0  0  0
 19 26  1  0  0  0  0
 20 17  2  0  0  0  0
 22 20  1  1  0  0  0
 22 10  1  0  0  0  0
 23 14  1  0  0  0  0
 25 18  1  0  0  0  0
 26 25  2  0  0  0  0
 27 24  1  1  0  0  0
 27 12  1  0  0  0  0
 27  7  1  0  0  0  0
 28 30  1  0  0  0  0
 29 30  1  0  0  0  0
M  END
>  <MODEL>
9

>  <REMARK>
 VINA RESULT:      -7.3      2.247      3.643
  Name = 
  2 active torsions:
  status: ('A' for Active; 'I' for Inactive)
    1  A    between atoms: C_11  and  C_28
    2  A    between atoms: C_28  and  C_30
                            x       y       z     vdW  Elec       q    Type
                         _______ _______ _______ _____ _____    ______ ____

>  <TORSDO>
F 2

$$$$
