=
 OpenBabel11122410373D

 32 37  0  0  1  0  0  0  0  0999 V2000
  191.7130  175.9470  137.0900 N   0  0  0  0  0  2  0  0  0  0  0  0
  189.1580  177.5480  141.6520 C   0  0  1  0  0  3  0  0  0  0  0  0
  184.4130  179.0200  141.5380 C   0  0  0  0  0  3  0  0  0  0  0  0
  184.2430  178.5270  142.8310 C   0  0  0  0  0  3  0  0  0  0  0  0
  190.3050  177.0910  143.9070 C   0  0  2  0  0  3  0  0  0  0  0  0
  190.0460  177.1240  145.3890 C   0  0  0  0  0  0  0  0  0  0  0  0
  190.3950  177.1810  139.8060 C   0  0  1  0  0  3  0  0  0  0  0  0
  188.0580  178.0560  139.4780 C   0  0  0  0  0  2  0  0  0  0  0  0
  188.9160  177.2270  147.3470 C   0  0  0  0  0  0  0  0  0  0  0  0
  189.4150  177.5020  137.4950 N   0  0  0  0  0  2  0  0  0  0  0  0
  185.6720  178.9810  140.9380 C   0  0  0  0  0  3  0  0  0  0  0  0
  188.1320  178.4580  140.9540 C   0  0  1  0  0  3  0  0  0  0  0  0
  186.7750  178.4390  141.6170 C   0  0  0  0  0  0  0  0  0  0  0  0
  187.7710  177.3810  143.7120 C   0  0  2  0  0  3  0  0  0  0  0  0
  190.1500  177.6760  147.5070 C   0  0  0  0  0  3  0  0  0  0  0  0
  191.9910  175.7660  138.5140 C   0  0  0  0  0  2  0  0  0  0  0  0
  189.4630  177.9940  138.8760 C   0  0  2  0  0  3  0  0  0  0  0  0
  190.8480  177.6350  146.2680 N   0  0  0  0  0  0  0  0  0  0  0  0
  191.8100  177.0810  139.2590 C   0  0  0  0  0  2  0  0  0  0  0  0
  189.2370  176.0520  137.4660 C   0  0  0  0  0  2  0  0  0  0  0  0
  185.3360  178.0130  143.5300 C   0  0  0  0  0  3  0  0  0  0  0  0
  186.6160  177.9950  142.9520 C   0  0  0  0  0  0  0  0  0  0  0  0
  187.6760  177.6410  145.2230 C   0  0  0  0  0  2  0  0  0  0  0  0
  190.4240  177.7730  141.0800 O   0  0  0  0  0  0  0  0  0  0  0  0
  191.6590  177.7170  143.5840 C   0  0  0  0  0  1  0  0  0  0  0  0
  187.9180  177.1130  148.4440 C   0  0  0  0  0  1  0  0  0  0  0  0
  189.1540  177.8170  143.1630 C   0  0  2  0  0  3  0  0  0  0  0  0
  188.7080  176.7840  145.9420 C   0  0  1  0  0  3  0  0  0  0  0  0
  190.4000  175.4010  136.7180 C   0  0  2  0  0  3  0  0  0  0  0  0
  190.3640  173.9080  136.8110 C   0  0  0  0  0  0  0  0  0  0  0  0
  191.3620  173.1360  136.2270 O   0  0  0  0  0  0  0  0  0  0  0  0
  189.4050  173.3440  137.4000 O   0  0  0  0  0  1  0  0  0  0  0  0
  1 16  1  0  0  0  0
  2 24  1  6  0  0  0
  2 27  1  0  0  0  0
  3  4  1  0  0  0  0
  4 21  2  0  0  0  0
  5 25  1  1  0  0  0
  5  6  1  0  0  0  0
  6 28  1  0  0  0  0
  6 18  2  0  0  0  0
  7 19  1  6  0  0  0
  7 24  1  0  0  0  0
  9 15  2  0  0  0  0
  9 26  1  0  0  0  0
 10 17  1  0  0  0  0
 11  3  2  0  0  0  0
 11 13  1  0  0  0  0
 12  8  1  6  0  0  0
 12 13  1  0  0  0  0
 12  2  1  0  0  0  0
 13 22  2  0  0  0  0
 14 23  1  1  0  0  0
 16 19  1  0  0  0  0
 17  8  1  1  0  0  0
 17  7  1  0  0  0  0
 18 15  1  0  0  0  0
 20 10  1  0  0  0  0
 22 21  1  0  0  0  0
 22 14  1  0  0  0  0
 23 28  1  0  0  0  0
 27 14  1  0  0  0  0
 27  5  1  0  0  0  0
 28  9  1  0  0  0  0
 29 30  1  0  0  0  0
 29  1  1  0  0  0  0
 29 20  1  0  0  0  0
 30 32  1  0  0  0  0
 31 30  2  0  0  0  0
M  END
>  <MODEL>
1

>  <REMARK>
 VINA RESULT:     -11.1      0.000      0.000
  Name = 
  1 active torsions:
  status: ('A' for Active; 'I' for Inactive)
    1  A    between atoms: CA_29  and  C_30
                            x       y       z     vdW  Elec       q    Type
                         _______ _______ _______ _____ _____    ______ ____

>  <TORSDO>
F 1

$$$$
=
 OpenBabel11122410373D

 32 37  0  0  1  0  0  0  0  0999 V2000
  183.0980  177.7850  137.0450 N   0  0  0  0  0  2  0  0  0  0  0  0
  186.1720  178.1600  141.5510 C   0  0  1  0  0  3  0  0  0  0  0  0
  184.0950  178.9300  146.0010 C   0  0  0  0  0  3  0  0  0  0  0  0
  185.1220  178.1950  146.5920 C   0  0  0  0  0  3  0  0  0  0  0  0
  188.6450  177.4780  141.3910 C   0  0  2  0  0  3  0  0  0  0  0  0
  189.8510  177.2080  142.2500 C   0  0  0  0  0  0  0  0  0  0  0  0
  185.0450  178.3110  139.6070 C   0  0  1  0  0  3  0  0  0  0  0  0
  183.7950  178.8850  141.7150 C   0  0  0  0  0  2  0  0  0  0  0  0
  191.0990  176.7960  144.0920 C   0  0  0  0  0  0  0  0  0  0  0  0
  182.5840  178.8950  139.5670 N   0  0  0  0  0  2  0  0  0  0  0  0
  184.1200  179.1800  144.6280 C   0  0  0  0  0  3  0  0  0  0  0  0
  185.1810  179.0230  142.3530 C   0  0  1  0  0  3  0  0  0  0  0  0
  185.1630  178.6900  143.8270 C   0  0  0  0  0  0  0  0  0  0  0  0
  187.3690  177.4300  143.6080 C   0  0  2  0  0  3  0  0  0  0  0  0
  191.8350  177.3830  143.1630 C   0  0  0  0  0  3  0  0  0  0  0  0
  184.4710  177.3950  137.3600 C   0  0  0  0  0  2  0  0  0  0  0  0
  183.8810  179.1340  140.2080 C   0  0  2  0  0  3  0  0  0  0  0  0
  191.0410  177.6640  142.0180 N   0  0  0  0  0  0  0  0  0  0  0  0
  185.1810  178.5160  138.1060 C   0  0  0  0  0  2  0  0  0  0  0  0
  182.3370  177.4640  139.4110 C   0  0  0  0  0  2  0  0  0  0  0  0
  186.1810  177.7270  145.8140 C   0  0  0  0  0  3  0  0  0  0  0  0
  186.2370  177.9970  144.4360 C   0  0  0  0  0  0  0  0  0  0  0  0
  188.6960  177.3990  144.3810 C   0  0  0  0  0  2  0  0  0  0  0  0
  186.2500  178.6640  140.2400 O   0  0  0  0  0  0  0  0  0  0  0  0
  189.0230  178.3400  140.1900 C   0  0  0  0  0  1  0  0  0  0  0  0
  191.6180  176.3450  145.4110 C   0  0  0  0  0  1  0  0  0  0  0  0
  187.5400  178.1510  142.2460 C   0  0  2  0  0  3  0  0  0  0  0  0
  189.7130  176.5860  143.5930 C   0  0  1  0  0  3  0  0  0  0  0  0
  182.1270  177.1310  137.9340 C   0  0  2  0  0  3  0  0  0  0  0  0
  182.0490  175.6560  137.6950 C   0  0  0  0  0  0  0  0  0  0  0  0
  181.8930  175.1540  136.4080 O   0  0  0  0  0  0  0  0  0  0  0  0
  182.0970  174.8640  138.6720 O   0  0  0  0  0  1  0  0  0  0  0  0
  1 16  1  0  0  0  0
  1 29  1  0  0  0  0
  2 24  1  6  0  0  0
  2 27  1  0  0  0  0
  2 12  1  0  0  0  0
  3  4  1  0  0  0  0
  5 25  1  6  0  0  0
  5 27  1  0  0  0  0
  5  6  1  0  0  0  0
  6 28  1  0  0  0  0
  7 19  1  6  0  0  0
  7 17  1  0  0  0  0
  7 24  1  0  0  0  0
  9 26  1  0  0  0  0
 10 17  1  0  0  0  0
 11  3  2  0  0  0  0
 12  8  1  6  0  0  0
 12 13  1  0  0  0  0
 13 22  2  0  0  0  0
 13 11  1  0  0  0  0
 14 23  1  1  0  0  0
 14 22  1  0  0  0  0
 15  9  2  0  0  0  0
 16 19  1  0  0  0  0
 17  8  1  1  0  0  0
 18  6  2  0  0  0  0
 18 15  1  0  0  0  0
 20 10  1  0  0  0  0
 21  4  2  0  0  0  0
 22 21  1  0  0  0  0
 27 14  1  0  0  0  0
 28  9  1  0  0  0  0
 28 23  1  0  0  0  0
 29 20  1  0  0  0  0
 30 29  1  0  0  0  0
 30 32  1  0  0  0  0
 31 30  2  0  0  0  0
M  END
>  <MODEL>
2

>  <REMARK>
 VINA RESULT:     -10.9      3.449      5.339
  Name = 
  1 active torsions:
  status: ('A' for Active; 'I' for Inactive)
    1  A    between atoms: CA_29  and  C_30
                            x       y       z     vdW  Elec       q    Type
                         _______ _______ _______ _____ _____    ______ ____

>  <TORSDO>
F 1

$$$$
=
 OpenBabel11122410373D

 32 37  0  0  1  0  0  0  0  0999 V2000
  190.2450  175.9800  135.8300 N   0  0  0  0  0  2  0  0  0  0  0  0
  188.8300  177.5260  140.8810 C   0  0  1  0  0  3  0  0  0  0  0  0
  184.2350  179.1470  141.8600 C   0  0  0  0  0  3  0  0  0  0  0  0
  184.3390  178.6230  143.1480 C   0  0  0  0  0  3  0  0  0  0  0  0
  190.4320  176.9680  142.8120 C   0  0  2  0  0  3  0  0  0  0  0  0
  190.5110  176.9660  144.3150 C   0  0  0  0  0  0  0  0  0  0  0  0
  189.6100  177.1740  138.7970 C   0  0  1  0  0  3  0  0  0  0  0  0
  187.2930  178.1310  139.0180 C   0  0  0  0  0  2  0  0  0  0  0  0
  189.8490  177.0470  146.4780 C   0  0  0  0  0  0  0  0  0  0  0  0
  188.1540  177.5930  136.7710 N   0  0  0  0  0  2  0  0  0  0  0  0
  185.3280  179.0860  140.9940 C   0  0  0  0  0  3  0  0  0  0  0  0
  187.7090  178.4870  140.4490 C   0  0  1  0  0  3  0  0  0  0  0  0
  186.5330  178.4910  141.3980 C   0  0  0  0  0  0  0  0  0  0  0  0
  187.9310  177.3420  143.1940 C   0  0  2  0  0  3  0  0  0  0  0  0
  191.1030  177.4530  146.3670 C   0  0  0  0  0  3  0  0  0  0  0  0
  190.8260  175.7490  137.1520 C   0  0  0  0  0  2  0  0  0  0  0  0
  188.5260  178.0430  138.1160 C   0  0  2  0  0  3  0  0  0  0  0  0
  191.5060  177.4260  145.0040 N   0  0  0  0  0  0  0  0  0  0  0  0
  190.8640  177.0470  137.9460 C   0  0  0  0  0  2  0  0  0  0  0  0
  187.9200  176.1510  136.7520 C   0  0  0  0  0  2  0  0  0  0  0  0
  185.5400  178.0550  143.5740 C   0  0  0  0  0  3  0  0  0  0  0  0
  186.6590  178.0140  142.7250 C   0  0  0  0  0  0  0  0  0  0  0  0
  188.1830  177.5610  144.6940 C   0  0  0  0  0  2  0  0  0  0  0  0
  189.9440  177.7280  140.0450 O   0  0  0  0  0  0  0  0  0  0  0  0
  191.7020  177.5610  142.2090 C   0  0  0  0  0  1  0  0  0  0  0  0
  189.1170  176.9320  147.7670 C   0  0  0  0  0  1  0  0  0  0  0  0
  189.1720  177.7510  142.3600 C   0  0  2  0  0  3  0  0  0  0  0  0
  189.3180  176.6520  145.1460 C   0  0  1  0  0  3  0  0  0  0  0  0
  188.8630  175.4860  135.7490 C   0  0  2  0  0  3  0  0  0  0  0  0
  188.7940  173.9930  135.8160 C   0  0  0  0  0  0  0  0  0  0  0  0
  189.5250  173.2080  134.9310 O   0  0  0  0  0  0  0  0  0  0  0  0
  188.0440  173.4420  136.6630 O   0  0  0  0  0  1  0  0  0  0  0  0
  1 16  1  0  0  0  0
  2 24  1  6  0  0  0
  2 27  1  0  0  0  0
  3  4  1  0  0  0  0
  4 21  2  0  0  0  0
  5 25  1  6  0  0  0
  5  6  1  0  0  0  0
  6 18  2  0  0  0  0
  6 28  1  0  0  0  0
  7 19  1  6  0  0  0
  7 24  1  0  0  0  0
  9 26  1  0  0  0  0
 10 17  1  0  0  0  0
 11 13  1  0  0  0  0
 11  3  2  0  0  0  0
 12  8  1  6  0  0  0
 12  2  1  0  0  0  0
 12 13  1  0  0  0  0
 13 22  2  0  0  0  0
 14 23  1  1  0  0  0
 15  9  2  0  0  0  0
 16 19  1  0  0  0  0
 17  7  1  0  0  0  0
 17  8  1  1  0  0  0
 18 15  1  0  0  0  0
 20 10  1  0  0  0  0
 22 14  1  0  0  0  0
 22 21  1  0  0  0  0
 23 28  1  0  0  0  0
 27  5  1  0  0  0  0
 27 14  1  0  0  0  0
 28  9  1  0  0  0  0
 29 30  1  0  0  0  0
 29  1  1  0  0  0  0
 29 20  1  0  0  0  0
 30 32  1  0  0  0  0
 31 30  2  0  0  0  0
M  END
>  <MODEL>
3

>  <REMARK>
 VINA RESULT:     -10.3      1.157      1.251
  Name = 
  1 active torsions:
  status: ('A' for Active; 'I' for Inactive)
    1  A    between atoms: CA_29  and  C_30
                            x       y       z     vdW  Elec       q    Type
                         _______ _______ _______ _____ _____    ______ ____

>  <TORSDO>
F 1

$$$$
=
 OpenBabel11122410373D

 32 37  0  0  1  0  0  0  0  0999 V2000
  186.4360  176.8630  136.0430 N   0  0  0  0  0  2  0  0  0  0  0  0
  187.3360  177.8810  141.3400 C   0  0  1  0  0  3  0  0  0  0  0  0
  183.6260  179.2810  144.3360 C   0  0  0  0  0  3  0  0  0  0  0  0
  184.2600  178.6390  145.3990 C   0  0  0  0  0  3  0  0  0  0  0  0
  189.5980  177.1830  142.3400 C   0  0  2  0  0  3  0  0  0  0  0  0
  190.3100  177.0400  143.6580 C   0  0  0  0  0  0  0  0  0  0  0  0
  187.1480  177.7510  139.0990 C   0  0  1  0  0  3  0  0  0  0  0  0
  185.1620  178.6220  140.3780 C   0  0  0  0  0  2  0  0  0  0  0  0
  190.6350  176.8960  145.8930 C   0  0  0  0  0  0  0  0  0  0  0  0
  184.9740  178.3240  137.9370 N   0  0  0  0  0  2  0  0  0  0  0  0
  184.2430  179.3320  143.0850 C   0  0  0  0  0  3  0  0  0  0  0  0
  186.1540  178.8500  141.5230 C   0  0  1  0  0  3  0  0  0  0  0  0
  185.4950  178.7330  142.8770 C   0  0  0  0  0  0  0  0  0  0  0  0
  187.5060  177.4530  143.7860 C   0  0  2  0  0  3  0  0  0  0  0  0
  191.7290  177.3430  145.3000 C   0  0  0  0  0  3  0  0  0  0  0  0
  187.5210  176.5230  136.9620 C   0  0  0  0  0  2  0  0  0  0  0  0
  185.8910  178.6520  139.0330 C   0  0  2  0  0  3  0  0  0  0  0  0
  191.5120  177.4570  143.8990 N   0  0  0  0  0  0  0  0  0  0  0  0
  187.9170  177.7390  137.7870 C   0  0  0  0  0  2  0  0  0  0  0  0
  184.7290  176.8850  137.8780 C   0  0  0  0  0  2  0  0  0  0  0  0
  185.5180  178.0640  145.2150 C   0  0  0  0  0  3  0  0  0  0  0  0
  186.1670  178.1340  143.9710 C   0  0  0  0  0  0  0  0  0  0  0  0
  188.3770  177.5340  145.0480 C   0  0  0  0  0  2  0  0  0  0  0  0
  187.9910  178.1920  140.1330 O   0  0  0  0  0  0  0  0  0  0  0  0
  190.5000  177.8640  141.3150 C   0  0  0  0  0  1  0  0  0  0  0  0
  190.5200  176.6390  147.3540 C   0  0  0  0  0  1  0  0  0  0  0  0
  188.2790  177.9720  142.5470 C   0  0  2  0  0  3  0  0  0  0  0  0
  189.5800  176.6170  144.8830 C   0  0  1  0  0  3  0  0  0  0  0  0
  185.1430  176.3430  136.5100 C   0  0  2  0  0  3  0  0  0  0  0  0
  185.0830  174.8490  136.4540 C   0  0  0  0  0  0  0  0  0  0  0  0
  184.7930  174.1090  137.5940 O   0  0  0  0  0  1  0  0  0  0  0  0
  185.3270  174.2570  135.3710 O   0  0  0  0  0  0  0  0  0  0  0  0
  1 29  1  0  0  0  0
  1 16  1  0  0  0  0
  2 24  1  6  0  0  0
  2 12  1  0  0  0  0
  2 27  1  0  0  0  0
  3  4  1  0  0  0  0
  5 25  1  6  0  0  0
  5 27  1  0  0  0  0
  5  6  1  0  0  0  0
  6 18  2  0  0  0  0
  6 28  1  0  0  0  0
  7 19  1  6  0  0  0
  7 24  1  0  0  0  0
  9 26  1  0  0  0  0
 10 17  1  0  0  0  0
 11  3  2  0  0  0  0
 12  8  1  6  0  0  0
 12 13  1  0  0  0  0
 13 11  1  0  0  0  0
 13 22  2  0  0  0  0
 14 22  1  0  0  0  0
 14 23  1  1  0  0  0
 15  9  2  0  0  0  0
 16 19  1  0  0  0  0
 17  7  1  0  0  0  0
 17  8  1  1  0  0  0
 18 15  1  0  0  0  0
 20 10  1  0  0  0  0
 21  4  2  0  0  0  0
 22 21  1  0  0  0  0
 27 14  1  0  0  0  0
 28 23  1  0  0  0  0
 28  9  1  0  0  0  0
 29 20  1  0  0  0  0
 30 29  1  0  0  0  0
 30 31  1  0  0  0  0
 32 30  2  0  0  0  0
M  END
>  <MODEL>
4

>  <REMARK>
 VINA RESULT:     -10.1      2.483      3.349
  Name = 
  1 active torsions:
  status: ('A' for Active; 'I' for Inactive)
    1  A    between atoms: CA_29  and  C_30
                            x       y       z     vdW  Elec       q    Type
                         _______ _______ _______ _____ _____    ______ ____

>  <TORSDO>
F 1

$$$$
=
 OpenBabel11122410373D

 32 37  0  0  1  0  0  0  0  0999 V2000
  180.5140  178.8330  140.6040 N   0  0  0  0  0  2  0  0  0  0  0  0
  185.4260  178.4130  142.9690 C   0  0  1  0  0  3  0  0  0  0  0  0
  185.9180  178.7260  147.9050 C   0  0  0  0  0  3  0  0  0  0  0  0
  187.0040  177.8540  147.8380 C   0  0  0  0  0  3  0  0  0  0  0  0
  187.3960  177.5980  141.5330 C   0  0  2  0  0  3  0  0  0  0  0  0
  188.8250  177.1390  141.6440 C   0  0  0  0  0  0  0  0  0  0  0  0
  183.5170  178.8900  141.8740 C   0  0  1  0  0  3  0  0  0  0  0  0
  183.5460  179.2630  144.3620 C   0  0  0  0  0  2  0  0  0  0  0  0
  190.7560  176.4080  142.5700 C   0  0  0  0  0  0  0  0  0  0  0  0
  181.4470  179.6340  143.1240 N   0  0  0  0  0  2  0  0  0  0  0  0
  185.2940  179.1520  146.7310 C   0  0  0  0  0  3  0  0  0  0  0  0
  185.0720  179.2260  144.2270 C   0  0  1  0  0  3  0  0  0  0  0  0
  185.7400  178.7050  145.4770 C   0  0  0  0  0  0  0  0  0  0  0  0
  187.3800  177.3420  144.0780 C   0  0  2  0  0  3  0  0  0  0  0  0
  191.0060  177.0620  141.4480 C   0  0  0  0  0  3  0  0  0  0  0  0
  181.8050  178.3170  140.1540 C   0  0  0  0  0  2  0  0  0  0  0  0
  182.9090  179.7020  143.0420 C   0  0  2  0  0  3  0  0  0  0  0  0
  189.7920  177.5430  140.8840 N   0  0  0  0  0  0  0  0  0  0  0  0
  182.9210  179.2810  140.5300 C   0  0  0  0  0  2  0  0  0  0  0  0
  180.9830  178.2550  142.9980 C   0  0  0  0  0  2  0  0  0  0  0  0
  187.4770  177.4240  146.5980 C   0  0  0  0  0  3  0  0  0  0  0  0
  186.8810  177.8690  145.4070 C   0  0  0  0  0  0  0  0  0  0  0  0
  188.9010  177.1240  144.0750 C   0  0  0  0  0  2  0  0  0  0  0  0
  184.9090  179.0780  141.8420 O   0  0  0  0  0  0  0  0  0  0  0  0
  187.2360  178.5830  140.3790 C   0  0  0  0  0  1  0  0  0  0  0  0
  191.7980  175.7550  143.4080 C   0  0  0  0  0  1  0  0  0  0  0  0
  186.9460  178.2230  142.8790 C   0  0  2  0  0  3  0  0  0  0  0  0
  189.2910  176.3570  142.8200 C   0  0  1  0  0  3  0  0  0  0  0  0
  180.0350  178.1330  141.8040 C   0  0  2  0  0  3  0  0  0  0  0  0
  179.6700  176.7110  141.5180 C   0  0  0  0  0  0  0  0  0  0  0  0
  179.1960  176.3380  140.2660 O   0  0  0  0  0  0  0  0  0  0  0  0
  179.7650  175.8480  142.4300 O   0  0  0  0  0  1  0  0  0  0  0  0
  1 29  1  0  0  0  0
  2 24  1  6  0  0  0
  2 12  1  0  0  0  0
  4  3  1  0  0  0  0
  5 25  1  6  0  0  0
  5  6  1  0  0  0  0
  5 27  1  0  0  0  0
  6 28  1  0  0  0  0
  7 19  1  6  0  0  0
  7 17  1  0  0  0  0
  9 28  1  0  0  0  0
  9 26  1  0  0  0  0
 11  3  2  0  0  0  0
 12  8  1  1  0  0  0
 12 13  1  0  0  0  0
 13 11  1  0  0  0  0
 14 23  1  1  0  0  0
 14 22  1  0  0  0  0
 15  9  2  0  0  0  0
 16 19  1  0  0  0  0
 16  1  1  0  0  0  0
 17 10  1  0  0  0  0
 17  8  1  1  0  0  0
 18 15  1  0  0  0  0
 18  6  2  0  0  0  0
 20 10  1  0  0  0  0
 21  4  2  0  0  0  0
 22 13  2  0  0  0  0
 22 21  1  0  0  0  0
 24  7  1  0  0  0  0
 27  2  1  0  0  0  0
 27 14  1  0  0  0  0
 28 23  1  0  0  0  0
 29 20  1  0  0  0  0
 30 29  1  0  0  0  0
 30 32  1  0  0  0  0
 31 30  2  0  0  0  0
M  END
>  <MODEL>
5

>  <REMARK>
 VINA RESULT:      -8.3      4.314      7.348
  Name = 
  1 active torsions:
  status: ('A' for Active; 'I' for Inactive)
    1  A    between atoms: CA_29  and  C_30
                            x       y       z     vdW  Elec       q    Type
                         _______ _______ _______ _____ _____    ______ ____

>  <TORSDO>
F 1

$$$$
=
 OpenBabel11122410373D

 32 37  0  0  1  0  0  0  0  0999 V2000
  189.8170  175.9730  136.0970 N   0  0  0  0  0  2  0  0  0  0  0  0
  187.2330  177.8890  140.5190 C   0  0  1  0  0  3  0  0  0  0  0  0
  182.5100  179.4120  140.2550 C   0  0  0  0  0  3  0  0  0  0  0  0
  182.3180  179.0030  141.5750 C   0  0  0  0  0  3  0  0  0  0  0  0
  188.3490  177.5610  142.8110 C   0  0  2  0  0  3  0  0  0  0  0  0
  188.0740  177.6900  144.2850 C   0  0  0  0  0  0  0  0  0  0  0  0
  188.4850  177.3920  138.7140 C   0  0  1  0  0  3  0  0  0  0  0  0
  186.1640  178.2740  138.3030 C   0  0  0  0  0  2  0  0  0  0  0  0
  186.9240  177.9300  146.2190 C   0  0  0  0  0  0  0  0  0  0  0  0
  187.5360  177.5800  136.3760 N   0  0  0  0  0  2  0  0  0  0  0  0
  183.7750  179.3190  139.6740 C   0  0  0  0  0  3  0  0  0  0  0  0
  186.2270  178.7670  139.7530 C   0  0  1  0  0  3  0  0  0  0  0  0
  184.8630  178.8070  140.3990 C   0  0  0  0  0  0  0  0  0  0  0  0
  185.8210  177.8700  142.5680 C   0  0  2  0  0  3  0  0  0  0  0  0
  188.1610  178.3730  146.3650 C   0  0  0  0  0  3  0  0  0  0  0  0
  190.0770  175.8790  137.5320 C   0  0  0  0  0  2  0  0  0  0  0  0
  187.5750  178.1570  137.7240 C   0  0  2  0  0  3  0  0  0  0  0  0
  188.8720  178.2450  145.1400 N   0  0  0  0  0  0  0  0  0  0  0  0
  189.9060  177.2400  138.1910 C   0  0  0  0  0  2  0  0  0  0  0  0
  187.3390  176.1330  136.4350 C   0  0  0  0  0  2  0  0  0  0  0  0
  183.3960  178.5200  142.3180 C   0  0  0  0  0  3  0  0  0  0  0  0
  184.6830  178.4500  141.7580 C   0  0  0  0  0  0  0  0  0  0  0  0
  185.7120  178.2250  144.0590 C   0  0  0  0  0  2  0  0  0  0  0  0
  188.5090  178.0630  139.9490 O   0  0  0  0  0  0  0  0  0  0  0  0
  189.7140  178.1480  142.4660 C   0  0  0  0  0  1  0  0  0  0  0  0
  185.9120  177.8970  147.3100 C   0  0  0  0  0  1  0  0  0  0  0  0
  187.2160  178.2530  142.0100 C   0  0  2  0  0  3  0  0  0  0  0  0
  186.7250  177.4030  144.8420 C   0  0  1  0  0  3  0  0  0  0  0  0
  188.5010  175.4220  135.7430 C   0  0  2  0  0  3  0  0  0  0  0  0
  188.4440  173.9380  135.9300 C   0  0  0  0  0  0  0  0  0  0  0  0
  187.5000  173.3660  136.7740 O   0  0  0  0  0  1  0  0  0  0  0  0
  189.2780  173.2040  135.3390 O   0  0  0  0  0  0  0  0  0  0  0  0
  1 16  1  0  0  0  0
  2 24  1  6  0  0  0
  2 27  1  0  0  0  0
  3  4  1  0  0  0  0
  4 21  2  0  0  0  0
  5 25  1  1  0  0  0
  5  6  1  0  0  0  0
  6 28  1  0  0  0  0
  6 18  2  0  0  0  0
  7 19  1  6  0  0  0
  7 24  1  0  0  0  0
  9 15  2  0  0  0  0
  9 26  1  0  0  0  0
 10 20  1  0  0  0  0
 10 17  1  0  0  0  0
 11  3  2  0  0  0  0
 11 13  1  0  0  0  0
 12  8  1  6  0  0  0
 12 13  1  0  0  0  0
 12  2  1  0  0  0  0
 13 22  2  0  0  0  0
 14 23  1  1  0  0  0
 16 19  1  0  0  0  0
 17  8  1  1  0  0  0
 17  7  1  0  0  0  0
 18 15  1  0  0  0  0
 22 21  1  0  0  0  0
 22 14  1  0  0  0  0
 23 28  1  0  0  0  0
 27 14  1  0  0  0  0
 27  5  1  0  0  0  0
 28  9  1  0  0  0  0
 29 30  1  0  0  0  0
 29  1  1  0  0  0  0
 29 20  1  0  0  0  0
 30 31  1  0  0  0  0
 32 30  2  0  0  0  0
M  END
>  <MODEL>
6

>  <REMARK>
 VINA RESULT:      -8.2      1.682      2.339
  Name = 
  1 active torsions:
  status: ('A' for Active; 'I' for Inactive)
    1  A    between atoms: CA_29  and  C_30
                            x       y       z     vdW  Elec       q    Type
                         _______ _______ _______ _____ _____    ______ ____

>  <TORSDO>
F 1

$$$$
