=
 OpenBabel11122411373D

 37 42  0  0  1  0  0  0  0  0999 V2000
  189.2760  177.9520  143.5570 C   0  0  0  0  0  0  0  0  0  0  0  0
  185.4210  178.1450  141.9400 C   0  0  0  0  0  0  0  0  0  0  0  0
  185.1920  179.3610  138.3570 O   0  0  0  0  0  0  0  0  0  0  0  0
  186.7610  178.1700  143.9420 C   0  0  0  0  0  0  0  0  0  0  0  0
  185.6320  178.1550  140.4620 C   0  0  1  0  0  3  0  0  0  0  0  0
  186.6260  178.1220  142.5640 C   0  0  0  0  0  0  0  0  0  0  0  0
  184.8090  179.2270  139.7170 C   0  0  2  0  0  3  0  0  0  0  0  0
  185.5870  178.2120  144.7160 C   0  0  0  0  0  3  0  0  0  0  0  0
  187.7030  178.1580  141.6660 N   0  0  0  0  0  0  0  0  0  0  0  0
  189.4180  176.4400  143.4960 C   0  0  0  0  0  1  0  0  0  0  0  0
  182.9210  178.2490  141.9730 C   0  0  0  0  0  2  0  0  0  0  0  0
  184.3230  178.2050  144.0820 C   0  0  0  0  0  3  0  0  0  0  0  0
  189.0420  178.5060  142.1330 C   0  0  0  0  0  2  0  0  0  0  0  0
  186.4820  177.7550  137.0870 C   0  0  1  0  0  3  0  0  0  0  0  0
  185.1420  178.0970  137.7400 C   0  0  0  0  0  2  0  0  0  0  0  0
  184.2350  178.1710  142.6750 C   0  0  0  0  0  0  0  0  0  0  0  0
  187.1570  178.4030  140.3320 C   0  0  1  0  0  3  0  0  0  0  0  0
  188.1350  178.3250  144.5360 C   0  0  0  0  0  2  0  0  0  0  0  0
  183.2820  179.0280  139.8970 C   0  0  1  0  0  3  0  0  0  0  0  0
  190.5710  178.5270  144.0880 C   0  0  0  0  0  1  0  0  0  0  0  0
  187.7250  178.1010  137.9220 C   0  0  0  0  0  2  0  0  0  0  0  0
  187.7610  177.4580  139.3060 C   0  0  0  0  0  2  0  0  0  0  0  0
  182.8850  179.4100  141.1900 O   0  0  0  0  0  0  0  0  0  0  0  0
  182.3790  181.1910  139.0220 C   0  0  0  0  0  3  0  0  0  0  0  0
  182.4850  179.8020  138.8900 C   0  0  0  0  0  0  0  0  0  0  0  0
  181.8420  179.1530  137.8260 C   0  0  0  0  0  3  0  0  0  0  0  0
  180.4180  179.2010  135.7760 C   0  0  0  0  0  1  0  0  0  0  0  0
  180.9940  181.2790  137.0380 C   0  0  0  0  0  3  0  0  0  0  0  0
  181.0980  179.8910  136.9020 C   0  0  0  0  0  0  0  0  0  0  0  0
  181.6330  181.9280  138.0970 C   0  0  0  0  0  3  0  0  0  0  0  0
  186.2740  173.5080  135.9910 O   0  0  0  0  0  0  0  0  0  0  0  0
  185.5890  173.9840  136.9350 C   0  0  0  0  0  0  0  0  0  0  0  0
  186.5050  176.3360  136.6180 C   0  0  0  0  0  0  0  0  0  0  0  0
  185.6750  175.3740  137.2750 N   0  0  0  0  0  2  0  0  0  0  0  0
  187.2390  176.0020  135.6470 O   0  0  0  0  0  0  0  0  0  0  0  0
  184.0640  172.0830  137.0980 C   0  0  0  0  0  2  0  0  0  0  0  0
  184.6990  173.0910  137.6830 C   0  0  0  0  0  3  0  0  0  0  0  0
  1 20  1  0  0  0  0
  1 18  1  0  0  0  0
  2  6  2  0  0  0  0
  2 16  1  0  0  0  0
  4 18  1  0  0  0  0
  4  8  2  0  0  0  0
  5  2  1  1  0  0  0
  6  4  1  0  0  0  0
  7  3  1  6  0  0  0
  7 19  1  0  0  0  0
  7  5  1  0  0  0  0
  9 13  1  0  0  0  0
  9  6  1  0  0  0  0
 10  1  1  0  0  0  0
 11 16  1  0  0  0  0
 12  8  1  0  0  0  0
 13  1  1  0  0  0  0
 14 33  1  1  0  0  0
 14 15  1  0  0  0  0
 14 21  1  0  0  0  0
 15  3  1  0  0  0  0
 16 12  2  0  0  0  0
 17 22  1  6  0  0  0
 17  5  1  0  0  0  0
 17  9  1  0  0  0  0
 19 25  1  6  0  0  0
 19 23  1  0  0  0  0
 21 22  1  0  0  0  0
 23 11  1  0  0  0  0
 25 24  1  0  0  0  0
 26 25  2  0  0  0  0
 27 29  1  0  0  0  0
 28 30  1  0  0  0  0
 29 28  2  0  0  0  0
 29 26  1  0  0  0  0
 30 24  2  0  0  0  0
 31 32  2  0  0  0  0
 32 34  1  0  0  0  0
 32 37  1  0  0  0  0
 33 34  1  0  0  0  0
 35 33  2  0  0  0  0
 36 37  2  0  0  0  0
M  END
>  <MODEL>
1

>  <REMARK>
 VINA RESULT:      -7.9      0.000      0.000
  Name = 
  3 active torsions:
  status: ('A' for Active; 'I' for Inactive)
    1  A    between atoms: C_4  and  C_37
    2  A    between atoms: C_8  and  C_18
    3  A    between atoms: C_23  and  C_30
                            x       y       z     vdW  Elec       q    Type
                         _______ _______ _______ _____ _____    ______ ____

>  <TORSDO>
F 3

$$$$
=
 OpenBabel11122411373D

 37 42  0  0  1  0  0  0  0  0999 V2000
  188.9350  177.9540  143.6010 C   0  0  0  0  0  0  0  0  0  0  0  0
  185.1330  178.1950  141.8690 C   0  0  0  0  0  0  0  0  0  0  0  0
  185.0270  179.4100  138.2800 O   0  0  0  0  0  0  0  0  0  0  0  0
  186.4120  178.2060  143.9110 C   0  0  0  0  0  0  0  0  0  0  0  0
  185.3880  178.2000  140.3990 C   0  0  1  0  0  3  0  0  0  0  0  0
  186.3180  178.1570  142.5290 C   0  0  0  0  0  0  0  0  0  0  0  0
  184.6010  179.2830  139.6280 C   0  0  2  0  0  3  0  0  0  0  0  0
  185.2170  178.2640  144.6490 C   0  0  0  0  0  3  0  0  0  0  0  0
  187.4220  178.1780  141.6630 N   0  0  0  0  0  0  0  0  0  0  0  0
  189.0580  176.4400  143.5460 C   0  0  0  0  0  1  0  0  0  0  0  0
  182.6350  178.3320  141.8280 C   0  0  0  0  0  2  0  0  0  0  0  0
  183.9720  178.2720  143.9780 C   0  0  0  0  0  3  0  0  0  0  0  0
  188.7500  178.5090  142.1710 C   0  0  0  0  0  2  0  0  0  0  0  0
  186.3330  177.7850  137.0500 C   0  0  1  0  0  3  0  0  0  0  0  0
  184.9780  178.1450  137.6630 C   0  0  0  0  0  2  0  0  0  0  0  0
  183.9260  178.2380  142.5690 C   0  0  0  0  0  0  0  0  0  0  0  0
  186.9190  178.4290  140.3140 C   0  0  1  0  0  3  0  0  0  0  0  0
  187.7700  178.3430  144.5450 C   0  0  0  0  0  2  0  0  0  0  0  0
  183.0680  179.1040  139.7620 C   0  0  1  0  0  3  0  0  0  0  0  0
  190.2210  178.5120  144.1700 C   0  0  0  0  0  1  0  0  0  0  0  0
  187.5550  178.1160  137.9220 C   0  0  0  0  0  2  0  0  0  0  0  0
  187.5420  177.4740  139.3070 C   0  0  0  0  0  2  0  0  0  0  0  0
  182.6370  179.4920  141.0420 O   0  0  0  0  0  0  0  0  0  0  0  0
  181.6380  179.2050  137.7120 C   0  0  0  0  0  3  0  0  0  0  0  0
  182.3110  179.8870  138.7320 C   0  0  0  0  0  0  0  0  0  0  0  0
  182.2760  181.2880  138.7730 C   0  0  0  0  0  3  0  0  0  0  0  0
  181.5350  183.4840  137.8440 C   0  0  0  0  0  1  0  0  0  0  0  0
  180.9000  181.3150  136.7810 C   0  0  0  0  0  3  0  0  0  0  0  0
  181.5710  182.0000  137.7990 C   0  0  0  0  0  0  0  0  0  0  0  0
  180.9340  179.9180  136.7370 C   0  0  0  0  0  3  0  0  0  0  0  0
  186.1120  173.5370  135.9620 O   0  0  0  0  0  0  0  0  0  0  0  0
  185.4310  174.0150  136.9080 C   0  0  0  0  0  0  0  0  0  0  0  0
  186.3520  176.3660  136.5840 C   0  0  0  0  0  0  0  0  0  0  0  0
  185.5220  175.4060  137.2460 N   0  0  0  0  0  2  0  0  0  0  0  0
  187.0810  176.0290  135.6110 O   0  0  0  0  0  0  0  0  0  0  0  0
  183.9860  172.0570  137.1050 C   0  0  0  0  0  2  0  0  0  0  0  0
  184.5430  173.1250  137.6600 C   0  0  0  0  0  3  0  0  0  0  0  0
  1 20  1  0  0  0  0
  1 18  1  0  0  0  0
  2  6  2  0  0  0  0
  2 16  1  0  0  0  0
  4 18  1  0  0  0  0
  4  8  2  0  0  0  0
  5  2  1  1  0  0  0
  6  4  1  0  0  0  0
  7  3  1  6  0  0  0
  7 19  1  0  0  0  0
  7  5  1  0  0  0  0
  9 13  1  0  0  0  0
  9  6  1  0  0  0  0
 10  1  1  0  0  0  0
 11 16  1  0  0  0  0
 12  8  1  0  0  0  0
 13  1  1  0  0  0  0
 14 33  1  1  0  0  0
 14 15  1  0  0  0  0
 14 21  1  0  0  0  0
 15  3  1  0  0  0  0
 16 12  2  0  0  0  0
 17 22  1  6  0  0  0
 17  5  1  0  0  0  0
 17  9  1  0  0  0  0
 19 25  1  6  0  0  0
 19 23  1  0  0  0  0
 21 22  1  0  0  0  0
 23 11  1  0  0  0  0
 24 25  1  0  0  0  0
 25 26  2  0  0  0  0
 28 29  2  0  0  0  0
 29 27  1  0  0  0  0
 29 26  1  0  0  0  0
 30 28  1  0  0  0  0
 30 24  2  0  0  0  0
 31 32  2  0  0  0  0
 32 34  1  0  0  0  0
 32 37  1  0  0  0  0
 33 34  1  0  0  0  0
 35 33  2  0  0  0  0
 36 37  2  0  0  0  0
M  END
>  <MODEL>
2

>  <REMARK>
 VINA RESULT:      -7.7      0.371      1.161
  Name = 
  3 active torsions:
  status: ('A' for Active; 'I' for Inactive)
    1  A    between atoms: C_4  and  C_37
    2  A    between atoms: C_8  and  C_18
    3  A    between atoms: C_23  and  C_30
                            x       y       z     vdW  Elec       q    Type
                         _______ _______ _______ _____ _____    ______ ____

>  <TORSDO>
F 3

$$$$
=
 OpenBabel11122411373D

 37 42  0  0  1  0  0  0  0  0999 V2000
  189.1400  177.9530  143.7140 C   0  0  0  0  0  0  0  0  0  0  0  0
  185.3100  178.1720  142.0430 C   0  0  0  0  0  0  0  0  0  0  0  0
  185.1450  179.3250  138.4360 O   0  0  0  0  0  0  0  0  0  0  0  0
  186.6240  178.2150  144.0620 C   0  0  0  0  0  0  0  0  0  0  0  0
  185.5400  178.1520  140.5690 C   0  0  1  0  0  3  0  0  0  0  0  0
  186.5060  178.1430  142.6840 C   0  0  0  0  0  0  0  0  0  0  0  0
  184.7420  179.2220  139.7940 C   0  0  2  0  0  3  0  0  0  0  0  0
  185.4410  178.2880  144.8200 C   0  0  0  0  0  3  0  0  0  0  0  0
  187.5950  178.1470  141.7990 N   0  0  0  0  0  0  0  0  0  0  0  0
  189.2600  176.4390  143.6830 C   0  0  0  0  0  1  0  0  0  0  0  0
  182.8120  178.3130  142.0420 C   0  0  0  0  0  2  0  0  0  0  0  0
  184.1850  178.2870  144.1700 C   0  0  0  0  0  3  0  0  0  0  0  0
  188.9330  178.4850  142.2780 C   0  0  0  0  0  2  0  0  0  0  0  0
  186.4280  177.6770  137.2130 C   0  0  1  0  0  3  0  0  0  0  0  0
  185.0840  178.0510  137.8420 C   0  0  0  0  0  2  0  0  0  0  0  0
  184.1150  178.2290  142.7630 C   0  0  0  0  0  0  0  0  0  0  0  0
  187.0700  178.3760  140.4540 C   0  0  1  0  0  3  0  0  0  0  0  0
  187.9920  178.3610  144.6720 C   0  0  0  0  0  2  0  0  0  0  0  0
  183.2110  179.0480  139.9570 C   0  0  1  0  0  3  0  0  0  0  0  0
  190.4360  178.5190  144.2520 C   0  0  0  0  0  1  0  0  0  0  0  0
  187.6640  178.0210  138.0570 C   0  0  0  0  0  2  0  0  0  0  0  0
  187.6740  177.4030  139.4530 C   0  0  0  0  0  2  0  0  0  0  0  0
  182.8020  179.4600  141.2370 O   0  0  0  0  0  0  0  0  0  0  0  0
  182.3450  181.2070  139.0340 C   0  0  0  0  0  3  0  0  0  0  0  0
  182.4380  179.8150  138.9250 C   0  0  0  0  0  0  0  0  0  0  0  0
  181.8050  179.1560  137.8610 C   0  0  0  0  0  3  0  0  0  0  0  0
  180.4140  179.1880  135.7880 C   0  0  0  0  0  1  0  0  0  0  0  0
  180.9920  181.2790  137.0270 C   0  0  0  0  0  3  0  0  0  0  0  0
  181.0840  179.8880  136.9140 C   0  0  0  0  0  0  0  0  0  0  0  0
  181.6220  181.9370  138.0870 C   0  0  0  0  0  3  0  0  0  0  0  0
  186.8460  173.4780  136.0010 O   0  0  0  0  0  0  0  0  0  0  0  0
  187.8290  174.1510  136.4100 C   0  0  0  0  0  0  0  0  0  0  0  0
  186.4360  176.2500  136.7700 C   0  0  0  0  0  0  0  0  0  0  0  0
  187.6680  175.5220  136.7990 N   0  0  0  0  0  2  0  0  0  0  0  0
  185.3670  175.6980  136.3920 O   0  0  0  0  0  0  0  0  0  0  0  0
  190.1800  174.0960  137.0700 C   0  0  0  0  0  2  0  0  0  0  0  0
  189.1450  173.5090  136.4830 C   0  0  0  0  0  3  0  0  0  0  0  0
  1 20  1  0  0  0  0
  1 18  1  0  0  0  0
  2  6  2  0  0  0  0
  2 16  1  0  0  0  0
  4 18  1  0  0  0  0
  4  8  2  0  0  0  0
  5  2  1  1  0  0  0
  6  4  1  0  0  0  0
  7  3  1  6  0  0  0
  7 19  1  0  0  0  0
  7  5  1  0  0  0  0
  9 13  1  0  0  0  0
  9  6  1  0  0  0  0
 10  1  1  0  0  0  0
 11 16  1  0  0  0  0
 12  8  1  0  0  0  0
 13  1  1  0  0  0  0
 14 33  1  1  0  0  0
 14 15  1  0  0  0  0
 14 21  1  0  0  0  0
 15  3  1  0  0  0  0
 16 12  2  0  0  0  0
 17 22  1  6  0  0  0
 17  5  1  0  0  0  0
 17  9  1  0  0  0  0
 19 25  1  6  0  0  0
 19 23  1  0  0  0  0
 21 22  1  0  0  0  0
 23 11  1  0  0  0  0
 25 24  1  0  0  0  0
 26 25  2  0  0  0  0
 27 29  1  0  0  0  0
 28 30  1  0  0  0  0
 29 28  2  0  0  0  0
 29 26  1  0  0  0  0
 30 24  2  0  0  0  0
 31 32  2  0  0  0  0
 32 37  1  0  0  0  0
 32 34  1  0  0  0  0
 33 34  1  0  0  0  0
 35 33  2  0  0  0  0
 37 36  2  0  0  0  0
M  END
>  <MODEL>
3

>  <REMARK>
 VINA RESULT:      -7.4      1.121      1.448
  Name = 
  3 active torsions:
  status: ('A' for Active; 'I' for Inactive)
    1  A    between atoms: C_4  and  C_37
    2  A    between atoms: C_8  and  C_18
    3  A    between atoms: C_23  and  C_30
                            x       y       z     vdW  Elec       q    Type
                         _______ _______ _______ _____ _____    ______ ____

>  <TORSDO>
F 3

$$$$
=
 OpenBabel11122411373D

 37 42  0  0  1  0  0  0  0  0999 V2000
  179.8800  178.7920  142.4770 C   0  0  0  0  0  0  0  0  0  0  0  0
  182.4220  176.8630  139.7700 C   0  0  0  0  0  0  0  0  0  0  0  0
  185.6800  178.6430  139.0070 O   0  0  0  0  0  0  0  0  0  0  0  0
  180.1570  177.1520  140.5390 C   0  0  0  0  0  0  0  0  0  0  0  0
  183.7640  177.4650  140.0190 C   0  0  1  0  0  3  0  0  0  0  0  0
  181.5090  177.4550  140.5810 C   0  0  0  0  0  0  0  0  0  0  0  0
  184.5150  177.8790  138.7350 C   0  0  2  0  0  3  0  0  0  0  0  0
  179.7320  176.1630  139.6340 C   0  0  0  0  0  3  0  0  0  0  0  0
  182.0640  178.4710  141.3730 N   0  0  0  0  0  0  0  0  0  0  0  0
  180.1500  177.8750  143.6580 C   0  0  0  0  0  1  0  0  0  0  0  0
  183.0470  175.2640  137.9500 C   0  0  0  0  0  2  0  0  0  0  0  0
  180.6760  175.5150  138.8040 C   0  0  0  0  0  3  0  0  0  0  0  0
  181.2010  179.4530  142.0230 C   0  0  0  0  0  2  0  0  0  0  0  0
  186.8040  178.7960  141.1450 C   0  0  1  0  0  3  0  0  0  0  0  0
  186.4880  177.9380  139.9190 C   0  0  0  0  0  2  0  0  0  0  0  0
  182.0400  175.8670  138.8700 C   0  0  0  0  0  0  0  0  0  0  0  0
  183.4350  178.6870  140.9150 C   0  0  1  0  0  3  0  0  0  0  0  0
  179.1970  177.9880  141.3430 C   0  0  0  0  0  2  0  0  0  0  0  0
  184.7900  176.6740  137.7990 C   0  0  1  0  0  3  0  0  0  0  0  0
  178.9310  179.8800  142.9310 C   0  0  0  0  0  1  0  0  0  0  0  0
  185.6190  179.6000  141.7040 C   0  0  0  0  0  2  0  0  0  0  0  0
  184.4030  178.7600  142.0860 C   0  0  0  0  0  2  0  0  0  0  0  0
  183.6080  176.2720  137.1550 O   0  0  0  0  0  0  0  0  0  0  0  0
  185.4520  177.6190  135.5790 C   0  0  0  0  0  3  0  0  0  0  0  0
  185.8310  176.9820  136.7660 C   0  0  0  0  0  0  0  0  0  0  0  0
  187.1750  176.6360  136.9700 C   0  0  0  0  0  3  0  0  0  0  0  0
  189.5530  176.5580  136.2100 C   0  0  0  0  0  1  0  0  0  0  0  0
  187.7460  177.5610  134.8070 C   0  0  0  0  0  3  0  0  0  0  0  0
  188.1300  176.9260  135.9920 C   0  0  0  0  0  0  0  0  0  0  0  0
  186.4080  177.9070  134.6010 C   0  0  0  0  0  3  0  0  0  0  0  0
  188.5220  176.5860  144.5280 O   0  0  0  0  0  0  0  0  0  0  0  0
  187.5630  177.3890  144.6790 C   0  0  0  0  0  0  0  0  0  0  0  0
  187.4770  177.9900  142.2080 C   0  0  0  0  0  0  0  0  0  0  0  0
  187.0200  178.1010  143.5590 N   0  0  0  0  0  2  0  0  0  0  0  0
  188.4260  177.2140  141.9070 O   0  0  0  0  0  0  0  0  0  0  0  0
  185.9780  178.3900  146.2450 C   0  0  0  0  0  2  0  0  0  0  0  0
  187.0090  177.5850  146.0220 C   0  0  0  0  0  3  0  0  0  0  0  0
  1 20  1  0  0  0  0
  1 10  1  0  0  0  0
  2  6  1  0  0  0  0
  3 15  1  0  0  0  0
  4  6  2  0  0  0  0
  4 18  1  0  0  0  0
  5  2  1  6  0  0  0
  5 17  1  0  0  0  0
  6  9  1  0  0  0  0
  7  3  1  1  0  0  0
  7  5  1  0  0  0  0
  8  4  1  0  0  0  0
  9 13  1  0  0  0  0
 11 16  1  0  0  0  0
 12 16  1  0  0  0  0
 12  8  2  0  0  0  0
 13  1  1  0  0  0  0
 14 21  1  0  0  0  0
 14 33  1  1  0  0  0
 15 14  1  0  0  0  0
 16  2  2  0  0  0  0
 17  9  1  0  0  0  0
 17 22  1  1  0  0  0
 18  1  1  0  0  0  0
 19 25  1  6  0  0  0
 19  7  1  0  0  0  0
 21 22  1  0  0  0  0
 23 19  1  0  0  0  0
 23 11  1  0  0  0  0
 24 25  1  0  0  0  0
 25 26  2  0  0  0  0
 28 29  2  0  0  0  0
 29 27  1  0  0  0  0
 29 26  1  0  0  0  0
 30 28  1  0  0  0  0
 30 24  2  0  0  0  0
 31 32  2  0  0  0  0
 32 37  1  0  0  0  0
 33 34  1  0  0  0  0
 34 32  1  0  0  0  0
 35 33  2  0  0  0  0
 37 36  2  0  0  0  0
M  END
>  <MODEL>
4

>  <REMARK>
 VINA RESULT:      -7.3      2.898      6.902
  Name = 
  3 active torsions:
  status: ('A' for Active; 'I' for Inactive)
    1  A    between atoms: C_4  and  C_37
    2  A    between atoms: C_8  and  C_18
    3  A    between atoms: C_23  and  C_30
                            x       y       z     vdW  Elec       q    Type
                         _______ _______ _______ _____ _____    ______ ____

>  <TORSDO>
F 3

$$$$
=
 OpenBabel11122411373D

 37 42  0  0  1  0  0  0  0  0999 V2000
  184.2110  176.6030  136.0020 C   0  0  0  0  0  0  0  0  0  0  0  0
  187.9000  174.6630  136.3690 C   0  0  0  0  0  0  0  0  0  0  0  0
  190.7630  176.7870  137.6580 O   0  0  0  0  0  0  0  0  0  0  0  0
  185.7590  174.7100  135.2650 C   0  0  0  0  0  0  0  0  0  0  0  0
  188.6800  175.5110  137.3170 C   0  0  1  0  0  3  0  0  0  0  0  0
  186.6880  175.2320  136.1510 C   0  0  0  0  0  0  0  0  0  0  0  0
  190.1240  175.8050  136.8560 C   0  0  2  0  0  3  0  0  0  0  0  0
  186.0880  173.5190  134.5940 C   0  0  0  0  0  3  0  0  0  0  0  0
  186.5320  176.4510  136.8280 N   0  0  0  0  0  0  0  0  0  0  0  0
  183.5560  175.9690  137.2180 C   0  0  0  0  0  1  0  0  0  0  0  0
  189.6120  172.8880  135.9420 C   0  0  0  0  0  2  0  0  0  0  0  0
  187.3340  172.8950  134.8330 C   0  0  0  0  0  3  0  0  0  0  0  0
  185.4730  177.3790  136.4410 C   0  0  0  0  0  2  0  0  0  0  0  0
  190.0460  177.5030  139.8560 C   0  0  1  0  0  3  0  0  0  0  0  0
  190.6810  176.3990  139.0080 C   0  0  0  0  0  2  0  0  0  0  0  0
  188.2560  173.4720  135.7320 C   0  0  0  0  0  0  0  0  0  0  0  0
  187.8280  176.8030  137.4070 C   0  0  1  0  0  3  0  0  0  0  0  0
  184.5210  175.5070  134.9520 C   0  0  0  0  0  2  0  0  0  0  0  0
  190.9660  174.5140  136.6970 C   0  0  1  0  0  3  0  0  0  0  0  0
  183.2320  177.5840  135.3960 C   0  0  0  0  0  1  0  0  0  0  0  0
  188.8230  178.1880  139.2270 C   0  0  0  0  0  2  0  0  0  0  0  0
  187.6830  177.2420  138.8550 C   0  0  0  0  0  2  0  0  0  0  0  0
  190.5820  173.8150  135.5400 O   0  0  0  0  0  0  0  0  0  0  0  0
  192.9390  175.5720  135.5800 C   0  0  0  0  0  3  0  0  0  0  0  0
  192.4370  174.7980  136.6320 C   0  0  0  0  0  0  0  0  0  0  0  0
  193.3120  174.2950  137.6060 C   0  0  0  0  0  3  0  0  0  0  0  0
  195.6060  174.0320  138.5560 C   0  0  0  0  0  1  0  0  0  0  0  0
  195.1790  175.3390  136.4700 C   0  0  0  0  0  3  0  0  0  0  0  0
  194.6810  174.5660  137.5240 C   0  0  0  0  0  0  0  0  0  0  0  0
  194.3090  175.8410  135.4990 C   0  0  0  0  0  3  0  0  0  0  0  0
  188.8940  176.3350  143.9290 O   0  0  0  0  0  0  0  0  0  0  0  0
  188.2520  177.2050  143.2810 C   0  0  0  0  0  0  0  0  0  0  0  0
  189.7620  177.0210  141.2410 C   0  0  0  0  0  0  0  0  0  0  0  0
  188.6490  177.5710  141.9520 N   0  0  0  0  0  2  0  0  0  0  0  0
  190.4890  176.1320  141.7640 O   0  0  0  0  0  0  0  0  0  0  0  0
  186.7380  177.5760  145.1620 C   0  0  0  0  0  2  0  0  0  0  0  0
  187.0890  177.8390  143.9090 C   0  0  0  0  0  3  0  0  0  0  0  0
  1 13  1  0  0  0  0
  1 10  1  0  0  0  0
  3 15  1  0  0  0  0
  4  6  2  0  0  0  0
  5  2  1  6  0  0  0
  5 17  1  0  0  0  0
  6  2  1  0  0  0  0
  6  9  1  0  0  0  0
  7  5  1  0  0  0  0
  7  3  1  1  0  0  0
  8 12  2  0  0  0  0
  8  4  1  0  0  0  0
  9 17  1  0  0  0  0
 12 16  1  0  0  0  0
 13  9  1  0  0  0  0
 14 33  1  1  0  0  0
 15 14  1  0  0  0  0
 16 11  1  0  0  0  0
 16  2  2  0  0  0  0
 17 22  1  1  0  0  0
 18  4  1  0  0  0  0
 18  1  1  0  0  0  0
 19 25  1  6  0  0  0
 19  7  1  0  0  0  0
 20  1  1  0  0  0  0
 21 14  1  0  0  0  0
 22 21  1  0  0  0  0
 23 11  1  0  0  0  0
 23 19  1  0  0  0  0
 24 25  1  0  0  0  0
 25 26  2  0  0  0  0
 28 29  2  0  0  0  0
 29 26  1  0  0  0  0
 29 27  1  0  0  0  0
 30 24  2  0  0  0  0
 30 28  1  0  0  0  0
 32 37  1  0  0  0  0
 32 31  2  0  0  0  0
 33 35  2  0  0  0  0
 33 34  1  0  0  0  0
 34 32  1  0  0  0  0
 37 36  2  0  0  0  0
M  END
>  <MODEL>
5

>  <REMARK>
 VINA RESULT:      -7.2      4.201      9.418
  Name = 
  3 active torsions:
  status: ('A' for Active; 'I' for Inactive)
    1  A    between atoms: C_4  and  C_37
    2  A    between atoms: C_8  and  C_18
    3  A    between atoms: C_23  and  C_30
                            x       y       z     vdW  Elec       q    Type
                         _______ _______ _______ _____ _____    ______ ____

>  <TORSDO>
F 3

$$$$
=
 OpenBabel11122411373D

 37 42  0  0  1  0  0  0  0  0999 V2000
  185.1520  178.8360  144.9850 C   0  0  0  0  0  0  0  0  0  0  0  0
  182.5100  178.5630  141.7520 C   0  0  0  0  0  0  0  0  0  0  0  0
  183.8800  179.6870  138.4010 O   0  0  0  0  0  0  0  0  0  0  0  0
  182.7430  178.7730  144.1400 C   0  0  0  0  0  0  0  0  0  0  0  0
  183.3890  178.5730  140.5450 C   0  0  1  0  0  3  0  0  0  0  0  0
  183.2770  178.6870  142.8650 C   0  0  0  0  0  0  0  0  0  0  0  0
  182.9160  179.5330  139.4320 C   0  0  2  0  0  3  0  0  0  0  0  0
  181.3450  178.6930  144.2750 C   0  0  0  0  0  3  0  0  0  0  0  0
  184.6410  178.8310  142.5710 N   0  0  0  0  0  0  0  0  0  0  0  0
  185.4460  177.3500  145.1000 C   0  0  0  0  0  1  0  0  0  0  0  0
  180.2900  178.3830  140.6110 C   0  0  0  0  0  2  0  0  0  0  0  0
  180.5340  178.5320  143.1280 C   0  0  0  0  0  3  0  0  0  0  0  0
  185.5640  179.3370  143.5830 C   0  0  0  0  0  2  0  0  0  0  0  0
  185.7580  178.2180  137.9880 C   0  0  1  0  0  3  0  0  0  0  0  0
  184.2420  178.4160  137.9190 C   0  0  0  0  0  2  0  0  0  0  0  0
  181.1210  178.4660  141.8470 C   0  0  0  0  0  0  0  0  0  0  0  0
  184.7650  178.9920  141.1230 C   0  0  1  0  0  3  0  0  0  0  0  0
  183.6560  179.0930  145.2940 C   0  0  0  0  0  2  0  0  0  0  0  0
  181.5100  179.1640  138.8940 C   0  0  1  0  0  3  0  0  0  0  0  0
  185.9860  179.5630  146.0180 C   0  0  0  0  0  1  0  0  0  0  0  0
  186.4240  178.7170  139.2800 C   0  0  0  0  0  2  0  0  0  0  0  0
  185.8660  178.1050  140.5620 C   0  0  0  0  0  2  0  0  0  0  0  0
  180.5190  179.5190  139.8240 O   0  0  0  0  0  0  0  0  0  0  0  0
  181.1040  179.0420  136.4280 C   0  0  0  0  0  3  0  0  0  0  0  0
  181.2120  179.8260  137.5820 C   0  0  0  0  0  0  0  0  0  0  0  0
  181.0460  181.2160  137.4960 C   0  0  0  0  0  3  0  0  0  0  0  0
  180.6000  183.2870  136.1750 C   0  0  0  0  0  1  0  0  0  0  0  0
  180.6690  181.0270  135.1120 C   0  0  0  0  0  3  0  0  0  0  0  0
  180.7750  181.8140  136.2630 C   0  0  0  0  0  0  0  0  0  0  0  0
  180.8340  179.6420  135.1950 C   0  0  0  0  0  3  0  0  0  0  0  0
  186.4600  173.9860  137.0520 O   0  0  0  0  0  0  0  0  0  0  0  0
  185.2960  174.4630  137.1370 C   0  0  0  0  0  0  0  0  0  0  0  0
  186.1310  176.8040  137.6810 C   0  0  0  0  0  0  0  0  0  0  0  0
  185.0920  175.8480  137.4460 N   0  0  0  0  0  2  0  0  0  0  0  0
  187.3460  176.4690  137.6190 O   0  0  0  0  0  0  0  0  0  0  0  0
  184.1990  172.2810  137.2030 C   0  0  0  0  0  2  0  0  0  0  0  0
  184.1510  173.5760  136.9140 C   0  0  0  0  0  3  0  0  0  0  0  0
  1 10  1  0  0  0  0
  1 18  1  0  0  0  0
  1 20  1  0  0  0  0
  2 16  2  0  0  0  0
  2  6  1  0  0  0  0
  4  8  1  0  0  0  0
  4 18  1  0  0  0  0
  5 17  1  0  0  0  0
  5  2  1  1  0  0  0
  6  4  2  0  0  0  0
  7  3  1  6  0  0  0
  7  5  1  0  0  0  0
  9  6  1  0  0  0  0
  9 13  1  0  0  0  0
 11 16  1  0  0  0  0
 12  8  2  0  0  0  0
 13  1  1  0  0  0  0
 14 33  1  1  0  0  0
 14 21  1  0  0  0  0
 15 14  1  0  0  0  0
 15  3  1  0  0  0  0
 16 12  1  0  0  0  0
 17 22  1  6  0  0  0
 17  9  1  0  0  0  0
 19 25  1  6  0  0  0
 19  7  1  0  0  0  0
 19 23  1  0  0  0  0
 21 22  1  0  0  0  0
 23 11  1  0  0  0  0
 24 25  1  0  0  0  0
 26 25  2  0  0  0  0
 27 29  1  0  0  0  0
 28 30  1  0  0  0  0
 28 29  2  0  0  0  0
 29 26  1  0  0  0  0
 30 24  2  0  0  0  0
 31 32  2  0  0  0  0
 32 34  1  0  0  0  0
 34 33  1  0  0  0  0
 35 33  2  0  0  0  0
 37 32  1  0  0  0  0
 37 36  2  0  0  0  0
M  END
>  <MODEL>
6

>  <REMARK>
 VINA RESULT:      -6.8      1.974      2.905
  Name = 
  3 active torsions:
  status: ('A' for Active; 'I' for Inactive)
    1  A    between atoms: C_4  and  C_37
    2  A    between atoms: C_8  and  C_18
    3  A    between atoms: C_23  and  C_30
                            x       y       z     vdW  Elec       q    Type
                         _______ _______ _______ _____ _____    ______ ____

>  <TORSDO>
F 3

$$$$
=
 OpenBabel11122411373D

 37 42  0  0  1  0  0  0  0  0999 V2000
  184.9500  178.7830  144.7710 C   0  0  0  0  0  0  0  0  0  0  0  0
  184.9400  178.4790  140.5980 C   0  0  0  0  0  0  0  0  0  0  0  0
  181.6550  177.4270  139.0260 O   0  0  0  0  0  0  0  0  0  0  0  0
  186.2630  178.4230  142.6100 C   0  0  0  0  0  0  0  0  0  0  0  0
  183.4990  178.5510  140.2180 C   0  0  1  0  0  3  0  0  0  0  0  0
  185.0500  178.5310  141.9490 C   0  0  0  0  0  0  0  0  0  0  0  0
  183.0630  177.4760  139.1980 C   0  0  2  0  0  3  0  0  0  0  0  0
  187.4260  178.2860  141.8310 C   0  0  0  0  0  3  0  0  0  0  0  0
  183.8050  178.5910  142.5930 N   0  0  0  0  0  0  0  0  0  0  0  0
  184.9350  180.3010  144.8370 C   0  0  0  0  0  1  0  0  0  0  0  0
  185.9310  178.2500  138.3110 C   0  0  0  0  0  2  0  0  0  0  0  0
  187.3320  178.2620  140.4210 C   0  0  0  0  0  3  0  0  0  0  0  0
  183.6960  178.2870  144.0170 C   0  0  0  0  0  2  0  0  0  0  0  0
  180.0890  179.1540  139.6770 C   0  0  1  0  0  3  0  0  0  0  0  0
  181.1870  178.7160  138.7060 C   0  0  0  0  0  2  0  0  0  0  0  0
  186.0740  178.3590  139.7920 C   0  0  0  0  0  0  0  0  0  0  0  0
  182.7730  178.3840  141.5780 C   0  0  1  0  0  3  0  0  0  0  0  0
  186.2680  178.3070  144.1110 C   0  0  0  0  0  2  0  0  0  0  0  0
  183.8310  177.5910  137.8570 C   0  0  1  0  0  3  0  0  0  0  0  0
  184.9020  178.2480  146.1850 C   0  0  0  0  0  1  0  0  0  0  0  0
  180.3550  178.8290  141.1560 C   0  0  0  0  0  2  0  0  0  0  0  0
  181.6560  179.4060  141.7110 C   0  0  0  0  0  2  0  0  0  0  0  0
  185.1500  177.1280  138.0040 O   0  0  0  0  0  0  0  0  0  0  0  0
  182.6810  177.5210  135.6360 C   0  0  0  0  0  3  0  0  0  0  0  0
  183.1640  176.8290  136.7520 C   0  0  0  0  0  0  0  0  0  0  0  0
  183.0120  175.4360  136.8260 C   0  0  0  0  0  3  0  0  0  0  0  0
  182.2210  173.2700  135.8690 C   0  0  0  0  0  1  0  0  0  0  0  0
  181.8990  175.4410  134.6750 C   0  0  0  0  0  3  0  0  0  0  0  0
  182.3810  174.7440  135.7880 C   0  0  0  0  0  0  0  0  0  0  0  0
  182.0490  176.8280  134.5990 C   0  0  0  0  0  3  0  0  0  0  0  0
  179.2970  183.3760  138.7690 O   0  0  0  0  0  0  0  0  0  0  0  0
  180.0760  182.6810  138.0640 C   0  0  0  0  0  0  0  0  0  0  0  0
  179.7390  180.5930  139.4790 C   0  0  0  0  0  0  0  0  0  0  0  0
  180.3210  181.3040  138.3820 N   0  0  0  0  0  2  0  0  0  0  0  0
  178.9310  181.1620  140.2630 O   0  0  0  0  0  0  0  0  0  0  0  0
  181.2210  184.5360  136.9630 C   0  0  0  0  0  2  0  0  0  0  0  0
  180.7320  183.3040  136.9110 C   0  0  0  0  0  3  0  0  0  0  0  0
  1 10  1  0  0  0  0
  1 20  1  0  0  0  0
  2  6  1  0  0  0  0
  4 18  1  0  0  0  0
  5  2  1  1  0  0  0
  5 17  1  0  0  0  0
  6  9  1  0  0  0  0
  6  4  2  0  0  0  0
  7  3  1  6  0  0  0
  7  5  1  0  0  0  0
  8  4  1  0  0  0  0
  9 13  1  0  0  0  0
 11 16  1  0  0  0  0
 12  8  2  0  0  0  0
 13  1  1  0  0  0  0
 14 33  1  1  0  0  0
 14 21  1  0  0  0  0
 15  3  1  0  0  0  0
 15 14  1  0  0  0  0
 16 12  1  0  0  0  0
 16  2  2  0  0  0  0
 17 22  1  1  0  0  0
 17  9  1  0  0  0  0
 18  1  1  0  0  0  0
 19 25  1  6  0  0  0
 19 23  1  0  0  0  0
 19  7  1  0  0  0  0
 21 22  1  0  0  0  0
 23 11  1  0  0  0  0
 24 25  1  0  0  0  0
 25 26  2  0  0  0  0
 28 29  2  0  0  0  0
 29 27  1  0  0  0  0
 29 26  1  0  0  0  0
 30 28  1  0  0  0  0
 30 24  2  0  0  0  0
 32 34  1  0  0  0  0
 32 31  2  0  0  0  0
 33 35  2  0  0  0  0
 34 33  1  0  0  0  0
 37 36  2  0  0  0  0
 37 32  1  0  0  0  0
M  END
>  <MODEL>
7

>  <REMARK>
 VINA RESULT:      -6.8      2.744      6.318
  Name = 
  3 active torsions:
  status: ('A' for Active; 'I' for Inactive)
    1  A    between atoms: C_4  and  C_37
    2  A    between atoms: C_8  and  C_18
    3  A    between atoms: C_23  and  C_30
                            x       y       z     vdW  Elec       q    Type
                         _______ _______ _______ _____ _____    ______ ____

>  <TORSDO>
F 3

$$$$
=
 OpenBabel11122411373D

 37 42  0  0  1  0  0  0  0  0999 V2000
  189.7350  176.3010  136.0900 C   0  0  0  0  0  0  0  0  0  0  0  0
  186.7480  177.5950  138.7180 C   0  0  0  0  0  0  0  0  0  0  0  0
  183.2760  177.9320  137.2350 O   0  0  0  0  0  0  0  0  0  0  0  0
  189.1040  177.5640  138.2180 C   0  0  0  0  0  0  0  0  0  0  0  0
  185.4700  177.1770  138.0710 C   0  0  1  0  0  3  0  0  0  0  0  0
  187.7880  177.2520  137.9180 C   0  0  0  0  0  0  0  0  0  0  0  0
  184.3890  178.2790  138.0450 C   0  0  2  0  0  3  0  0  0  0  0  0
  189.3610  178.2380  139.4250 C   0  0  0  0  0  3  0  0  0  0  0  0
  187.3750  176.6550  136.7170 N   0  0  0  0  0  0  0  0  0  0  0  0
  189.8440  174.8850  136.6290 C   0  0  0  0  0  1  0  0  0  0  0  0
  185.8070  178.6680  140.7740 C   0  0  0  0  0  2  0  0  0  0  0  0
  188.2910  178.5750  140.2860 C   0  0  0  0  0  3  0  0  0  0  0  0
  188.2960  176.5540  135.5890 C   0  0  0  0  0  2  0  0  0  0  0  0
  182.7210  175.7020  136.4750 C   0  0  1  0  0  3  0  0  0  0  0  0
  182.7810  176.6810  137.6490 C   0  0  0  0  0  2  0  0  0  0  0  0
  186.9650  178.2510  139.9310 C   0  0  0  0  0  0  0  0  0  0  0  0
  185.9200  176.7750  136.6430 C   0  0  1  0  0  3  0  0  0  0  0  0
  190.1690  177.3060  137.1860 C   0  0  0  0  0  2  0  0  0  0  0  0
  183.9800  178.7370  139.4680 C   0  0  1  0  0  3  0  0  0  0  0  0
  190.6820  176.4340  134.9170 C   0  0  0  0  0  1  0  0  0  0  0  0
  183.9440  175.7220  135.5430 C   0  0  0  0  0  2  0  0  0  0  0  0
  185.2780  175.4580  136.2370 C   0  0  0  0  0  2  0  0  0  0  0  0
  184.9880  179.5340  140.0370 O   0  0  0  0  0  0  0  0  0  0  0  0
  181.6220  179.0400  140.2470 C   0  0  0  0  0  3  0  0  0  0  0  0
  182.6900  179.5020  139.4710 C   0  0  0  0  0  0  0  0  0  0  0  0
  182.5400  180.6660  138.7030 C   0  0  0  0  0  3  0  0  0  0  0  0
  181.1710  182.5930  137.9000 C   0  0  0  0  0  1  0  0  0  0  0  0
  180.2620  180.8950  139.4910 C   0  0  0  0  0  3  0  0  0  0  0  0
  181.3280  181.3610  138.7140 C   0  0  0  0  0  0  0  0  0  0  0  0
  180.4090  179.7350  140.2570 C   0  0  0  0  0  3  0  0  0  0  0  0
  182.0670  171.5070  137.5940 O   0  0  0  0  0  0  0  0  0  0  0  0
  182.9100  171.8360  136.7180 C   0  0  0  0  0  0  0  0  0  0  0  0
  182.4020  174.3190  136.9420 C   0  0  0  0  0  0  0  0  0  0  0  0
  183.1050  173.2130  136.3680 N   0  0  0  0  0  2  0  0  0  0  0  0
  181.5350  174.1390  137.8410 O   0  0  0  0  0  0  0  0  0  0  0  0
  184.8480  171.0410  135.4620 C   0  0  0  0  0  2  0  0  0  0  0  0
  183.6910  170.7850  136.0590 C   0  0  0  0  0  3  0  0  0  0  0  0
  1 10  1  0  0  0  0
  1 18  1  0  0  0  0
  2 16  1  0  0  0  0
  3 15  1  0  0  0  0
  4  8  2  0  0  0  0
  5  2  1  1  0  0  0
  6  4  1  0  0  0  0
  6  2  2  0  0  0  0
  7  3  1  1  0  0  0
  7  5  1  0  0  0  0
  7 19  1  0  0  0  0
  8 12  1  0  0  0  0
  9  6  1  0  0  0  0
 13  1  1  0  0  0  0
 13  9  1  0  0  0  0
 14 33  1  1  0  0  0
 14 15  1  0  0  0  0
 16 12  2  0  0  0  0
 16 11  1  0  0  0  0
 17 22  1  1  0  0  0
 17  9  1  0  0  0  0
 17  5  1  0  0  0  0
 18  4  1  0  0  0  0
 19 25  1  6  0  0  0
 19 23  1  0  0  0  0
 20  1  1  0  0  0  0
 21 22  1  0  0  0  0
 21 14  1  0  0  0  0
 23 11  1  0  0  0  0
 24 30  1  0  0  0  0
 25 24  2  0  0  0  0
 26 29  2  0  0  0  0
 26 25  1  0  0  0  0
 27 29  1  0  0  0  0
 28 30  2  0  0  0  0
 29 28  1  0  0  0  0
 32 31  2  0  0  0  0
 33 35  2  0  0  0  0
 34 32  1  0  0  0  0
 34 33  1  0  0  0  0
 36 37  2  0  0  0  0
 37 32  1  0  0  0  0
M  END
>  <MODEL>
8

>  <REMARK>
 VINA RESULT:      -6.4      2.645      4.620
  Name = 
  3 active torsions:
  status: ('A' for Active; 'I' for Inactive)
    1  A    between atoms: C_4  and  C_37
    2  A    between atoms: C_8  and  C_18
    3  A    between atoms: C_23  and  C_30
                            x       y       z     vdW  Elec       q    Type
                         _______ _______ _______ _____ _____    ______ ____

>  <TORSDO>
F 3

$$$$
=
 OpenBabel11122411373D

 37 42  0  0  1  0  0  0  0  0999 V2000
  187.3520  177.8970  143.6090 C   0  0  0  0  0  0  0  0  0  0  0  0
  183.5260  178.5600  142.0500 C   0  0  0  0  0  0  0  0  0  0  0  0
  183.3890  179.6890  138.4340 O   0  0  0  0  0  0  0  0  0  0  0  0
  184.8970  178.4640  144.0280 C   0  0  0  0  0  0  0  0  0  0  0  0
  183.7060  178.4970  140.5690 C   0  0  1  0  0  3  0  0  0  0  0  0
  184.7290  178.3930  142.6540 C   0  0  0  0  0  0  0  0  0  0  0  0
  183.0190  179.6480  139.8030 C   0  0  2  0  0  3  0  0  0  0  0  0
  183.7560  178.6860  144.8190 C   0  0  0  0  0  3  0  0  0  0  0  0
  185.7830  178.2570  141.7380 N   0  0  0  0  0  0  0  0  0  0  0  0
  187.2880  176.3790  143.5940 C   0  0  0  0  0  1  0  0  0  0  0  0
  181.0640  179.0010  142.1200 C   0  0  0  0  0  2  0  0  0  0  0  0
  182.4900  178.8310  144.2060 C   0  0  0  0  0  3  0  0  0  0  0  0
  187.1650  178.4360  142.1730 C   0  0  0  0  0  2  0  0  0  0  0  0
  184.4250  177.8860  137.1950 C   0  0  1  0  0  3  0  0  0  0  0  0
  183.1570  178.4250  137.8590 C   0  0  0  0  0  2  0  0  0  0  0  0
  182.3690  178.7680  142.8030 C   0  0  0  0  0  0  0  0  0  0  0  0
  185.2470  178.5340  140.4060 C   0  0  1  0  0  3  0  0  0  0  0  0
  186.2920  178.4500  144.5940 C   0  0  0  0  0  2  0  0  0  0  0  0
  181.4830  179.6620  140.0140 C   0  0  1  0  0  3  0  0  0  0  0  0
  188.7230  178.3080  144.1000 C   0  0  0  0  0  1  0  0  0  0  0  0
  185.7200  178.0870  137.9980 C   0  0  0  0  0  2  0  0  0  0  0  0
  185.6980  177.4860  139.4010 C   0  0  0  0  0  2  0  0  0  0  0  0
  181.1670  180.1320  141.3000 O   0  0  0  0  0  0  0  0  0  0  0  0
  179.5990  180.0290  138.4100 C   0  0  0  0  0  3  0  0  0  0  0  0
  180.7770  180.5060  138.9960 C   0  0  0  0  0  0  0  0  0  0  0  0
  181.2830  181.7590  138.6200 C   0  0  0  0  0  3  0  0  0  0  0  0
  181.1520  183.8540  137.2680 C   0  0  0  0  0  1  0  0  0  0  0  0
  179.4370  182.0470  137.0810 C   0  0  0  0  0  3  0  0  0  0  0  0
  180.6140  182.5270  137.6650 C   0  0  0  0  0  0  0  0  0  0  0  0
  178.9310  180.7990  137.4530 C   0  0  0  0  0  3  0  0  0  0  0  0
  184.2860  173.6440  136.0690 O   0  0  0  0  0  0  0  0  0  0  0  0
  185.3290  174.1720  136.5410 C   0  0  0  0  0  0  0  0  0  0  0  0
  184.2490  176.4640  136.7720 C   0  0  0  0  0  0  0  0  0  0  0  0
  185.3500  175.5600  136.9000 N   0  0  0  0  0  2  0  0  0  0  0  0
  183.1370  176.0710  136.3220 O   0  0  0  0  0  0  0  0  0  0  0  0
  187.7360  173.8700  136.8260 C   0  0  0  0  0  2  0  0  0  0  0  0
  186.5230  173.3410  136.7180 C   0  0  0  0  0  3  0  0  0  0  0  0
  1 20  1  0  0  0  0
  1 18  1  0  0  0  0
  2  6  2  0  0  0  0
  2 16  1  0  0  0  0
  4 18  1  0  0  0  0
  4  8  2  0  0  0  0
  5  2  1  1  0  0  0
  6  4  1  0  0  0  0
  7  3  1  6  0  0  0
  7 19  1  0  0  0  0
  7  5  1  0  0  0  0
  9 13  1  0  0  0  0
  9  6  1  0  0  0  0
 10  1  1  0  0  0  0
 11 16  1  0  0  0  0
 12  8  1  0  0  0  0
 13  1  1  0  0  0  0
 14 33  1  1  0  0  0
 14 15  1  0  0  0  0
 14 21  1  0  0  0  0
 15  3  1  0  0  0  0
 16 12  2  0  0  0  0
 17 22  1  6  0  0  0
 17  5  1  0  0  0  0
 17  9  1  0  0  0  0
 19 25  1  6  0  0  0
 19 23  1  0  0  0  0
 21 22  1  0  0  0  0
 23 11  1  0  0  0  0
 24 25  1  0  0  0  0
 26 25  2  0  0  0  0
 27 29  1  0  0  0  0
 28 30  1  0  0  0  0
 28 29  2  0  0  0  0
 29 26  1  0  0  0  0
 30 24  2  0  0  0  0
 31 32  2  0  0  0  0
 32 37  1  0  0  0  0
 32 34  1  0  0  0  0
 33 34  1  0  0  0  0
 35 33  2  0  0  0  0
 37 36  2  0  0  0  0
M  END
>  <MODEL>
9

>  <REMARK>
 VINA RESULT:      -6.3      1.606      2.322
  Name = 
  3 active torsions:
  status: ('A' for Active; 'I' for Inactive)
    1  A    between atoms: C_4  and  C_37
    2  A    between atoms: C_8  and  C_18
    3  A    between atoms: C_23  and  C_30
                            x       y       z     vdW  Elec       q    Type
                         _______ _______ _______ _____ _____    ______ ____

>  <TORSDO>
F 3

$$$$
