=
 OpenBabel11122411293D

 37 43  0  0  1  0  0  0  0  0999 V2000
  180.9450  181.2970  138.4000 C   0  0  0  0  0  2  0  0  0  0  0  0
  179.5110  179.5080  142.8990 C   0  0  1  0  0  0  0  0  0  0  0  0
  182.1310  178.3530  139.7520 C   0  0  1  0  0  3  0  0  0  0  0  0
  180.6800  182.7400  137.9430 C   0  0  2  0  0  3  0  0  0  0  0  0
  180.5980  178.0840  136.1710 C   0  0  0  0  0  2  0  0  0  0  0  0
  181.8010  178.5500  142.2890 C   0  0  1  0  0  3  0  0  0  0  0  0
  181.1250  178.1660  138.6310 C   0  0  2  0  0  3  0  0  0  0  0  0
  180.3730  181.7170  135.6410 C   0  0  0  0  0  0  0  0  0  0  0  0
  181.1870  178.3630  140.8980 C   0  0  1  0  0  3  0  0  0  0  0  0
  181.6550  178.4650  137.2080 C   0  0  1  0  0  3  0  0  0  0  0  0
  183.3180  178.7720  142.2120 C   0  0  0  0  0  2  0  0  0  0  0  0
  180.0620  182.8760  136.5400 C   0  0  0  0  0  2  0  0  0  0  0  0
  180.2180  179.3670  140.5480 N   0  0  2  0  0  0  0  0  0  0  0  0
  178.9310  180.7020  143.2830 F   0  0  0  0  0  0  0  0  0  0  0  0
  184.0350  176.8910  139.0120 O   0  0  0  0  0  0  0  0  0  0  0  0
  184.0140  177.7120  141.3180 C   0  0  0  0  0  2  0  0  0  0  0  0
  179.0820  179.1960  141.4430 C   0  0  0  0  0  2  0  0  0  0  0  0
  179.8650  180.4140  135.9630 N   0  0  0  0  0  0  0  0  0  0  0  0
  180.3120  179.2400  135.2230 C   0  0  0  0  0  2  0  0  0  0  0  0
  183.1970  177.3020  140.0690 C   0  0  1  0  0  3  0  0  0  0  0  0
  179.9250  179.0600  139.1430 C   0  0  1  0  0  3  0  0  0  0  0  0
  181.0490  179.6360  143.0700 C   0  0  0  0  0  2  0  0  0  0  0  0
  183.0030  177.8080  136.8320 C   0  0  1  0  0  3  0  0  0  0  0  0
  179.0430  178.4940  143.7330 O   0  0  0  0  0  1  0  0  0  0  0  0
  178.9500  180.2540  137.0930 C   0  0  0  0  0  2  0  0  0  0  0  0
  181.1030  181.8910  134.6300 O   0  0  0  0  0  0  0  0  0  0  0  0
  179.6890  180.4070  138.4290 C   0  0  2  0  0  3  0  0  0  0  0  0
  184.3910  178.2150  137.9550 S   0  0  0  0  0  0  0  0  0  0  0  0
  183.9320  175.8390  135.5910 C   0  0  0  0  0  3  0  0  0  0  0  0
  182.9530  176.3500  136.4510 C   0  0  0  0  0  0  0  0  0  0  0  0
  181.9650  175.4930  136.9590 C   0  0  0  0  0  3  0  0  0  0  0  0
  180.7150  173.0830  137.2380 Cl  0  0  0  0  0  0  0  0  0  0  0  0
  182.9310  173.6400  135.7390 C   0  0  0  0  0  3  0  0  0  0  0  0
  181.9530  174.1430  136.6020 C   0  0  0  0  0  0  0  0  0  0  0  0
  183.9200  174.4880  135.2350 C   0  0  0  0  0  3  0  0  0  0  0  0
  181.6080  184.6420  137.2970 C   0  0  0  0  0  1  0  0  0  0  0  0
  181.8730  183.4630  137.9950 O   0  0  0  0  0  0  0  0  0  0  0  0
  1 27  1  0  0  0  0
  2 22  1  0  0  0  0
  2 14  1  1  0  0  0
  2 24  1  0  0  0  0
  3 20  1  0  0  0  0
  3  9  1  0  0  0  0
  4 37  1  0  0  0  0
  4  1  1  0  0  0  0
  5 10  1  0  0  0  0
  6 22  1  0  0  0  0
  7 21  1  0  0  0  0
  7  3  1  0  0  0  0
  8 18  1  0  0  0  0
  8 12  1  0  0  0  0
  9  6  1  0  0  0  0
 10  7  1  0  0  0  0
 11  6  1  0  0  0  0
 12  4  1  0  0  0  0
 13  9  1  0  0  0  0
 13 17  1  0  0  0  0
 15 20  1  0  0  0  0
 16 11  1  0  0  0  0
 17  2  1  0  0  0  0
 18 25  1  0  0  0  0
 19 18  1  0  0  0  0
 19  5  1  0  0  0  0
 20 16  1  0  0  0  0
 21 13  1  0  0  0  0
 23 10  1  0  0  0  0
 23 28  1  0  0  0  0
 25 27  1  0  0  0  0
 26  8  2  0  0  0  0
 27 21  1  0  0  0  0
 28 15  1  0  0  0  0
 29 30  1  0  0  0  0
 30 23  1  0  0  0  0
 30 31  2  0  0  0  0
 33 34  2  0  0  0  0
 34 31  1  0  0  0  0
 34 32  1  0  0  0  0
 35 29  2  0  0  0  0
 35 33  1  0  0  0  0
 36 37  1  0  0  0  0
M  END
>  <MODEL>
1

>  <REMARK>
 VINA RESULT:      -6.0      0.000      0.000
  Name = 
  2 active torsions:
  status: ('A' for Active; 'I' for Inactive)
    1  A    between atoms: C_4  and  O_37
    2  A    between atoms: C_23  and  C_30
                            x       y       z     vdW  Elec       q    Type
                         _______ _______ _______ _____ _____    ______ ____

>  <TORSDO>
F 2

$$$$
=
 OpenBabel11122411293D

 37 43  0  0  1  0  0  0  0  0999 V2000
  184.6090  175.3370  137.3100 C   0  0  0  0  0  2  0  0  0  0  0  0
  188.6460  178.3350  137.7790 C   0  0  1  0  0  0  0  0  0  0  0  0
  184.6620  178.1780  139.2660 C   0  0  1  0  0  3  0  0  0  0  0  0
  184.6750  173.9210  136.7180 C   0  0  2  0  0  3  0  0  0  0  0  0
  181.7880  177.9800  136.6310 C   0  0  0  0  0  2  0  0  0  0  0  0
  187.1290  178.6190  139.8170 C   0  0  1  0  0  3  0  0  0  0  0  0
  183.8930  178.3280  137.9660 C   0  0  2  0  0  3  0  0  0  0  0  0
  182.3850  174.4550  135.7640 C   0  0  0  0  0  0  0  0  0  0  0  0
  185.9940  178.6240  138.7870 C   0  0  1  0  0  3  0  0  0  0  0  0
  182.5190  177.6160  137.9240 C   0  0  1  0  0  3  0  0  0  0  0  0
  186.6620  178.0630  141.1700 C   0  0  0  0  0  2  0  0  0  0  0  0
  183.6210  173.6170  135.6370 C   0  0  0  0  0  2  0  0  0  0  0  0
  186.2490  177.8010  137.6340 N   0  0  2  0  0  0  0  0  0  0  0  0
  189.5040  177.4080  137.2180 F   0  0  0  0  0  0  0  0  0  0  0  0
  183.0040  178.9970  140.9660 O   0  0  0  0  0  0  0  0  0  0  0  0
  185.3410  178.7250  141.6420 C   0  0  0  0  0  2  0  0  0  0  0  0
  187.3610  178.4060  136.9140 C   0  0  0  0  0  2  0  0  0  0  0  0
  182.4690  175.8750  135.5750 N   0  0  0  0  0  0  0  0  0  0  0  0
  181.3320  176.7340  135.8840 C   0  0  0  0  0  2  0  0  0  0  0  0
  184.3360  179.0180  140.5030 C   0  0  1  0  0  3  0  0  0  0  0  0
  184.9720  177.8480  136.9140 C   0  0  1  0  0  3  0  0  0  0  0  0
  188.3710  177.9190  139.2490 C   0  0  0  0  0  2  0  0  0  0  0  0
  181.5850  177.8680  139.1300 C   0  0  1  0  0  3  0  0  0  0  0  0
  189.2640  179.5840  137.7660 O   0  0  0  0  0  1  0  0  0  0  0  0
  183.7310  176.4730  135.1390 C   0  0  0  0  0  2  0  0  0  0  0  0
  181.2910  173.9110  136.0670 O   0  0  0  0  0  0  0  0  0  0  0  0
  184.7680  176.4610  136.2700 C   0  0  2  0  0  3  0  0  0  0  0  0
  182.3020  177.4280  140.7560 S   0  0  0  0  0  0  0  0  0  0  0  0
  179.6320  179.2730  139.8300 C   0  0  0  0  0  3  0  0  0  0  0  0
  180.8470  179.1830  139.1410 C   0  0  0  0  0  0  0  0  0  0  0  0
  181.3620  180.3180  138.4980 C   0  0  0  0  0  3  0  0  0  0  0  0
  181.3140  182.9380  137.7320 Cl  0  0  0  0  0  0  0  0  0  0  0  0
  179.4500  181.6110  139.2250 C   0  0  0  0  0  3  0  0  0  0  0  0
  180.6640  181.5280  138.5390 C   0  0  0  0  0  0  0  0  0  0  0  0
  178.9340  180.4840  139.8720 C   0  0  0  0  0  3  0  0  0  0  0  0
  184.0650  171.8360  137.1370 C   0  0  0  0  0  1  0  0  0  0  0  0
  184.5630  172.9870  137.7490 O   0  0  0  0  0  0  0  0  0  0  0  0
  2 14  1  6  0  0  0
  2 22  1  0  0  0  0
  3 20  1  0  0  0  0
  4  1  1  0  0  0  0
  4 37  1  0  0  0  0
  5 10  1  0  0  0  0
  6 11  1  0  0  0  0
  7  3  1  0  0  0  0
  8 26  2  0  0  0  0
  9  3  1  0  0  0  0
  9  6  1  0  0  0  0
 10  7  1  0  0  0  0
 10 23  1  0  0  0  0
 11 16  1  0  0  0  0
 12  8  1  0  0  0  0
 12  4  1  0  0  0  0
 13  9  1  0  0  0  0
 17 13  1  0  0  0  0
 17  2  1  0  0  0  0
 18  8  1  0  0  0  0
 18 19  1  0  0  0  0
 19  5  1  0  0  0  0
 20 15  1  0  0  0  0
 20 16  1  0  0  0  0
 21 13  1  0  0  0  0
 21  7  1  0  0  0  0
 22  6  1  0  0  0  0
 23 30  1  0  0  0  0
 23 28  1  0  0  0  0
 24  2  1  0  0  0  0
 25 18  1  0  0  0  0
 25 27  1  0  0  0  0
 27 21  1  0  0  0  0
 27  1  1  0  0  0  0
 28 15  1  0  0  0  0
 29 35  1  0  0  0  0
 30 29  2  0  0  0  0
 31 34  2  0  0  0  0
 31 30  1  0  0  0  0
 32 34  1  0  0  0  0
 33 35  2  0  0  0  0
 34 33  1  0  0  0  0
 36 37  1  0  0  0  0
M  END
>  <MODEL>
2

>  <REMARK>
 VINA RESULT:      -5.7      3.973      7.316
  Name = 
  2 active torsions:
  status: ('A' for Active; 'I' for Inactive)
    1  A    between atoms: C_4  and  O_37
    2  A    between atoms: C_23  and  C_30
                            x       y       z     vdW  Elec       q    Type
                         _______ _______ _______ _____ _____    ______ ____

>  <TORSDO>
F 2

$$$$
=
 OpenBabel11122411293D

 37 43  0  0  1  0  0  0  0  0999 V2000
  180.9130  180.6670  138.5040 C   0  0  0  0  0  2  0  0  0  0  0  0
  179.8420  178.9250  143.1210 C   0  0  1  0  0  0  0  0  0  0  0  0
  182.8090  178.2920  140.1380 C   0  0  1  0  0  3  0  0  0  0  0  0
  180.2800  181.9360  137.9140 C   0  0  2  0  0  3  0  0  0  0  0  0
  181.5620  177.3130  136.5700 C   0  0  0  0  0  2  0  0  0  0  0  0
  182.3310  178.5970  142.6410 C   0  0  1  0  0  3  0  0  0  0  0  0
  181.9420  177.7400  139.0210 C   0  0  2  0  0  3  0  0  0  0  0  0
  180.3630  180.6830  135.7090 C   0  0  0  0  0  0  0  0  0  0  0  0
  181.8520  178.1320  141.2610 C   0  0  1  0  0  3  0  0  0  0  0  0
  182.4280  178.0580  137.5860 C   0  0  1  0  0  3  0  0  0  0  0  0
  183.7300  179.2270  142.5700 C   0  0  0  0  0  2  0  0  0  0  0  0
  179.7070  181.7780  136.4930 C   0  0  0  0  0  2  0  0  0  0  0  0
  180.6580  178.7940  140.8050 N   0  0  2  0  0  0  0  0  0  0  0  0
  178.9380  179.9370  143.3850 F   0  0  0  0  0  0  0  0  0  0  0  0
  185.0720  177.3640  139.5660 O   0  0  0  0  0  0  0  0  0  0  0  0
  184.7280  178.3330  141.7880 C   0  0  0  0  0  2  0  0  0  0  0  0
  179.5770  178.3860  141.6920 C   0  0  0  0  0  2  0  0  0  0  0  0
  180.2230  179.3210  136.1390 N   0  0  0  0  0  0  0  0  0  0  0  0
  181.0070  178.2610  135.5160 C   0  0  0  0  0  2  0  0  0  0  0  0
  184.1100  177.6100  140.5680 C   0  0  1  0  0  3  0  0  0  0  0  0
  180.5210  178.3030  139.4290 C   0  0  1  0  0  3  0  0  0  0  0  0
  181.2760  179.4900  143.3060 C   0  0  0  0  0  2  0  0  0  0  0  0
  183.9200  177.7750  137.2950 C   0  0  1  0  0  3  0  0  0  0  0  0
  179.6380  177.8920  144.0350 O   0  0  0  0  0  1  0  0  0  0  0  0
  179.3410  179.0050  137.2620 C   0  0  0  0  0  2  0  0  0  0  0  0
  181.0590  180.9700  134.6990 O   0  0  0  0  0  0  0  0  0  0  0  0
  179.9520  179.4670  138.5910 C   0  0  2  0  0  3  0  0  0  0  0  0
  185.0920  178.6430  138.4010 S   0  0  0  0  0  0  0  0  0  0  0  0
  183.4940  175.3240  137.5980 C   0  0  0  0  0  3  0  0  0  0  0  0
  184.2900  176.3340  137.0470 C   0  0  0  0  0  0  0  0  0  0  0  0
  185.3970  175.9870  136.2580 C   0  0  0  0  0  3  0  0  0  0  0  0
  187.0920  174.2220  135.0490 Cl  0  0  0  0  0  0  0  0  0  0  0  0
  184.9110  173.6400  136.5880 C   0  0  0  0  0  3  0  0  0  0  0  0
  185.7070  174.6440  136.0320 C   0  0  0  0  0  0  0  0  0  0  0  0
  183.8040  173.9800  137.3700 C   0  0  0  0  0  3  0  0  0  0  0  0
  180.5810  184.0420  137.3080 C   0  0  0  0  0  1  0  0  0  0  0  0
  181.2230  182.9650  137.9210 O   0  0  0  0  0  0  0  0  0  0  0  0
  1 27  1  0  0  0  0
  2 22  1  0  0  0  0
  2 14  1  1  0  0  0
  2 24  1  0  0  0  0
  3 20  1  0  0  0  0
  3  9  1  0  0  0  0
  4 37  1  0  0  0  0
  4  1  1  0  0  0  0
  5 10  1  0  0  0  0
  6 22  1  0  0  0  0
  7 21  1  0  0  0  0
  7  3  1  0  0  0  0
  8 18  1  0  0  0  0
  8 12  1  0  0  0  0
  9  6  1  0  0  0  0
 10  7  1  0  0  0  0
 11  6  1  0  0  0  0
 12  4  1  0  0  0  0
 13  9  1  0  0  0  0
 13 17  1  0  0  0  0
 15 20  1  0  0  0  0
 16 11  1  0  0  0  0
 17  2  1  0  0  0  0
 18 25  1  0  0  0  0
 19 18  1  0  0  0  0
 19  5  1  0  0  0  0
 20 16  1  0  0  0  0
 21 13  1  0  0  0  0
 23 10  1  0  0  0  0
 23 28  1  0  0  0  0
 25 27  1  0  0  0  0
 26  8  2  0  0  0  0
 27 21  1  0  0  0  0
 28 15  1  0  0  0  0
 30 23  1  0  0  0  0
 30 29  2  0  0  0  0
 31 30  1  0  0  0  0
 32 34  1  0  0  0  0
 33 35  2  0  0  0  0
 34 31  2  0  0  0  0
 34 33  1  0  0  0  0
 35 29  1  0  0  0  0
 36 37  1  0  0  0  0
M  END
>  <MODEL>
3

>  <REMARK>
 VINA RESULT:      -5.2      1.571      1.789
  Name = 
  2 active torsions:
  status: ('A' for Active; 'I' for Inactive)
    1  A    between atoms: C_4  and  O_37
    2  A    between atoms: C_23  and  C_30
                            x       y       z     vdW  Elec       q    Type
                         _______ _______ _______ _____ _____    ______ ____

>  <TORSDO>
F 2

$$$$
=
 OpenBabel11122411293D

 37 43  0  0  1  0  0  0  0  0999 V2000
  182.5890  180.5080  138.8820 C   0  0  0  0  0  2  0  0  0  0  0  0
  183.5910  179.0400  143.6080 C   0  0  1  0  0  0  0  0  0  0  0  0
  185.1610  178.3640  139.7120 C   0  0  1  0  0  3  0  0  0  0  0  0
  181.6740  181.6950  138.5440 C   0  0  2  0  0  3  0  0  0  0  0  0
  182.6750  177.0680  136.9940 C   0  0  0  0  0  2  0  0  0  0  0  0
  185.7000  178.8170  142.1800 C   0  0  1  0  0  3  0  0  0  0  0  0
  183.9670  177.6880  139.0640 C   0  0  2  0  0  3  0  0  0  0  0  0
  180.9700  180.2960  136.5470 C   0  0  0  0  0  0  0  0  0  0  0  0
  184.7480  178.2310  141.1310 C   0  0  1  0  0  3  0  0  0  0  0  0
  183.8130  177.9300  137.5430 C   0  0  1  0  0  3  0  0  0  0  0  0
  186.8990  179.5180  141.5250 C   0  0  0  0  0  2  0  0  0  0  0  0
  180.5970  181.4070  137.4830 C   0  0  0  0  0  2  0  0  0  0  0  0
  183.4230  178.7910  141.1670 N   0  0  2  0  0  0  0  0  0  0  0  0
  182.7910  180.0160  144.1710 F   0  0  0  0  0  0  0  0  0  0  0  0
  187.0740  177.5250  138.3170 O   0  0  0  0  0  0  0  0  0  0  0  0
  187.5690  178.6280  140.4460 C   0  0  0  0  0  2  0  0  0  0  0  0
  182.8220  178.3880  142.4310 C   0  0  0  0  0  2  0  0  0  0  0  0
  181.1210  178.9620  137.0540 N   0  0  0  0  0  0  0  0  0  0  0  0
  181.6730  177.9070  136.2140 C   0  0  0  0  0  2  0  0  0  0  0  0
  186.5750  177.7870  139.6090 C   0  0  1  0  0  3  0  0  0  0  0  0
  182.7870  178.1980  139.9850 C   0  0  1  0  0  3  0  0  0  0  0  0
  184.9300  179.6960  143.1750 C   0  0  0  0  0  2  0  0  0  0  0  0
  185.0820  177.7090  136.6870 C   0  0  1  0  0  3  0  0  0  0  0  0
  183.8510  178.0640  144.5700 O   0  0  0  0  0  1  0  0  0  0  0  0
  180.7890  178.6780  138.4500 C   0  0  0  0  0  2  0  0  0  0  0  0
  181.1800  180.5500  135.3320 O   0  0  0  0  0  0  0  0  0  0  0  0
  181.8410  179.2660  139.4000 C   0  0  2  0  0  3  0  0  0  0  0  0
  186.5260  178.7170  137.1890 S   0  0  0  0  0  0  0  0  0  0  0  0
  186.1830  176.0010  135.2210 C   0  0  0  0  0  3  0  0  0  0  0  0
  185.4360  176.2780  136.3720 C   0  0  0  0  0  0  0  0  0  0  0  0
  185.0560  175.2250  137.2170 C   0  0  0  0  0  3  0  0  0  0  0  0
  184.9300  172.6040  137.9680 Cl  0  0  0  0  0  0  0  0  0  0  0  0
  186.1540  173.6400  135.7560 C   0  0  0  0  0  3  0  0  0  0  0  0
  185.4120  173.9100  136.9090 C   0  0  0  0  0  0  0  0  0  0  0  0
  186.5400  174.6850  134.9130 C   0  0  0  0  0  3  0  0  0  0  0  0
  181.5500  183.6900  137.5930 C   0  0  0  0  0  1  0  0  0  0  0  0
  182.4570  182.7730  138.1270 O   0  0  0  0  0  0  0  0  0  0  0  0
  1 27  1  0  0  0  0
  2 14  1  1  0  0  0
  2 24  1  0  0  0  0
  3  9  1  0  0  0  0
  4  1  1  0  0  0  0
  5 10  1  0  0  0  0
  6 22  1  0  0  0  0
  7  3  1  0  0  0  0
  7 21  1  0  0  0  0
  8 18  1  0  0  0  0
  8 12  1  0  0  0  0
  9 13  1  0  0  0  0
  9  6  1  0  0  0  0
 10  7  1  0  0  0  0
 11  6  1  0  0  0  0
 12  4  1  0  0  0  0
 13 17  1  0  0  0  0
 15 20  1  0  0  0  0
 16 11  1  0  0  0  0
 17  2  1  0  0  0  0
 18 25  1  0  0  0  0
 19  5  1  0  0  0  0
 19 18  1  0  0  0  0
 20  3  1  0  0  0  0
 20 16  1  0  0  0  0
 21 13  1  0  0  0  0
 22  2  1  0  0  0  0
 23 28  1  0  0  0  0
 23 10  1  0  0  0  0
 25 27  1  0  0  0  0
 26  8  2  0  0  0  0
 27 21  1  0  0  0  0
 28 15  1  0  0  0  0
 29 30  1  0  0  0  0
 30 23  1  0  0  0  0
 30 31  2  0  0  0  0
 33 34  2  0  0  0  0
 34 31  1  0  0  0  0
 34 32  1  0  0  0  0
 35 29  2  0  0  0  0
 35 33  1  0  0  0  0
 36 37  1  0  0  0  0
 37  4  1  0  0  0  0
M  END
>  <MODEL>
4

>  <REMARK>
 VINA RESULT:      -4.6      2.307      3.010
  Name = 
  2 active torsions:
  status: ('A' for Active; 'I' for Inactive)
    1  A    between atoms: C_4  and  O_37
    2  A    between atoms: C_23  and  C_30
                            x       y       z     vdW  Elec       q    Type
                         _______ _______ _______ _____ _____    ______ ____

>  <TORSDO>
F 2

$$$$
=
 OpenBabel11122411293D

 37 43  0  0  1  0  0  0  0  0999 V2000
  185.1800  175.0310  136.6980 C   0  0  0  0  0  2  0  0  0  0  0  0
  189.1140  178.1970  136.7170 C   0  0  1  0  0  0  0  0  0  0  0  0
  185.2960  177.9230  138.5760 C   0  0  1  0  0  3  0  0  0  0  0  0
  185.2490  173.6040  136.1340 C   0  0  2  0  0  3  0  0  0  0  0  0
  182.2000  177.5420  136.2280 C   0  0  0  0  0  2  0  0  0  0  0  0
  187.7840  178.4740  138.8820 C   0  0  1  0  0  3  0  0  0  0  0  0
  184.4040  178.0080  137.3510 C   0  0  2  0  0  3  0  0  0  0  0  0
  182.8600  174.0230  135.3880 C   0  0  0  0  0  0  0  0  0  0  0  0
  186.5590  178.4080  137.9640 C   0  0  1  0  0  3  0  0  0  0  0  0
  183.0630  177.2420  137.4540 C   0  0  1  0  0  3  0  0  0  0  0  0
  187.4680  177.9360  140.2850 C   0  0  0  0  0  2  0  0  0  0  0  0
  184.1120  173.2300  135.1640 C   0  0  0  0  0  2  0  0  0  0  0  0
  186.7390  177.5660  136.8110 N   0  0  2  0  0  0  0  0  0  0  0  0
  189.9540  177.2900  136.0980 F   0  0  0  0  0  0  0  0  0  0  0  0
  183.7710  178.7190  140.4050 O   0  0  0  0  0  0  0  0  0  0  0  0
  186.1710  178.5580  140.8650 C   0  0  0  0  0  2  0  0  0  0  0  0
  187.7520  178.1940  135.9750 C   0  0  0  0  0  2  0  0  0  0  0  0
  182.8660  175.4400  135.1600 N   0  0  0  0  0  0  0  0  0  0  0  0
  181.7290  176.2600  135.5560 C   0  0  0  0  0  2  0  0  0  0  0  0
  185.0520  178.7820  139.8190 C   0  0  1  0  0  3  0  0  0  0  0  0
  185.3990  177.5430  136.2130 C   0  0  1  0  0  3  0  0  0  0  0  0
  188.9950  177.8090  138.2160 C   0  0  0  0  0  2  0  0  0  0  0  0
  182.2350  177.4880  138.7370 C   0  0  1  0  0  3  0  0  0  0  0  0
  189.6760  179.4690  136.6180 O   0  0  0  0  0  1  0  0  0  0  0  0
  184.0560  176.0740  134.5940 C   0  0  0  0  0  2  0  0  0  0  0  0
  181.8220  173.4440  135.8050 O   0  0  0  0  0  0  0  0  0  0  0  0
  185.1930  176.1330  135.6230 C   0  0  2  0  0  3  0  0  0  0  0  0
  183.1190  177.1200  140.2980 S   0  0  0  0  0  0  0  0  0  0  0  0
  181.4900  179.6390  137.6890 C   0  0  0  0  0  3  0  0  0  0  0  0
  181.4470  178.7730  138.7880 C   0  0  0  0  0  0  0  0  0  0  0  0
  180.6560  179.1050  139.8980 C   0  0  0  0  0  3  0  0  0  0  0  0
  178.9430  180.7000  141.3010 Cl  0  0  0  0  0  0  0  0  0  0  0  0
  179.9740  181.1560  138.8120 C   0  0  0  0  0  3  0  0  0  0  0  0
  179.9230  180.2940  139.9100 C   0  0  0  0  0  0  0  0  0  0  0  0
  180.7560  180.8280  137.7010 C   0  0  0  0  0  3  0  0  0  0  0  0
  186.6270  172.4560  137.4290 C   0  0  0  0  0  1  0  0  0  0  0  0
  185.2720  172.6930  137.1920 O   0  0  0  0  0  0  0  0  0  0  0  0
  2 14  1  6  0  0  0
  2 22  1  0  0  0  0
  3 20  1  0  0  0  0
  4  1  1  0  0  0  0
  4 37  1  0  0  0  0
  5 10  1  0  0  0  0
  6 11  1  0  0  0  0
  7 10  1  0  0  0  0
  7  3  1  0  0  0  0
  8 26  2  0  0  0  0
  9  3  1  0  0  0  0
  9  6  1  0  0  0  0
 10 23  1  0  0  0  0
 11 16  1  0  0  0  0
 12  8  1  0  0  0  0
 12  4  1  0  0  0  0
 13  9  1  0  0  0  0
 17  2  1  0  0  0  0
 17 13  1  0  0  0  0
 18  8  1  0  0  0  0
 18 19  1  0  0  0  0
 19  5  1  0  0  0  0
 20 15  1  0  0  0  0
 20 16  1  0  0  0  0
 21 13  1  0  0  0  0
 21  7  1  0  0  0  0
 22  6  1  0  0  0  0
 23 30  1  0  0  0  0
 23 28  1  0  0  0  0
 24  2  1  0  0  0  0
 25 18  1  0  0  0  0
 25 27  1  0  0  0  0
 27 21  1  0  0  0  0
 27  1  1  0  0  0  0
 28 15  1  0  0  0  0
 29 35  2  0  0  0  0
 29 30  1  0  0  0  0
 30 31  2  0  0  0  0
 31 34  1  0  0  0  0
 33 34  2  0  0  0  0
 34 32  1  0  0  0  0
 35 33  1  0  0  0  0
 37 36  1  0  0  0  0
M  END
>  <MODEL>
5

>  <REMARK>
 VINA RESULT:      -4.1      4.230      7.603
  Name = 
  2 active torsions:
  status: ('A' for Active; 'I' for Inactive)
    1  A    between atoms: C_4  and  O_37
    2  A    between atoms: C_23  and  C_30
                            x       y       z     vdW  Elec       q    Type
                         _______ _______ _______ _____ _____    ______ ____

>  <TORSDO>
F 2

$$$$
=
 OpenBabel11122411293D

 37 43  0  0  1  0  0  0  0  0999 V2000
  181.9830  180.4120  138.4710 C   0  0  0  0  0  2  0  0  0  0  0  0
  185.0340  178.9570  142.2230 C   0  0  1  0  0  0  0  0  0  0  0  0
  184.0790  177.6790  138.2780 C   0  0  1  0  0  3  0  0  0  0  0  0
  181.3030  181.7890  138.4230 C   0  0  2  0  0  3  0  0  0  0  0  0
  180.3160  176.9950  137.4930 C   0  0  0  0  0  2  0  0  0  0  0  0
  185.9410  178.0850  139.9970 C   0  0  1  0  0  3  0  0  0  0  0  0
  182.6140  177.3310  138.4650 C   0  0  2  0  0  3  0  0  0  0  0  0
  179.3620  180.5450  137.3640 C   0  0  0  0  0  0  0  0  0  0  0  0
  184.4770  177.7360  139.7070 C   0  0  1  0  0  3  0  0  0  0  0  0
  181.7210  177.5310  137.2160 C   0  0  1  0  0  3  0  0  0  0  0  0
  186.7150  178.3890  138.7070 C   0  0  0  0  0  2  0  0  0  0  0  0
  179.7930  181.7600  138.1290 C   0  0  0  0  0  2  0  0  0  0  0  0
  183.5320  178.6450  140.3010 N   0  0  2  0  0  0  0  0  0  0  0  0
  184.8870  180.1440  142.9150 F   0  0  0  0  0  0  0  0  0  0  0  0
  184.7150  176.2710  136.2980 O   0  0  0  0  0  0  0  0  0  0  0  0
  186.4960  177.2960  137.6290 C   0  0  0  0  0  2  0  0  0  0  0  0
  183.6350  178.4880  141.7450 C   0  0  0  0  0  2  0  0  0  0  0  0
  179.4770  179.2490  137.9690 N   0  0  0  0  0  0  0  0  0  0  0  0
  179.2540  178.0410  137.1830 C   0  0  0  0  0  2  0  0  0  0  0  0
  185.0570  176.7250  137.5880 C   0  0  1  0  0  3  0  0  0  0  0  0
  182.2530  178.1950  139.7390 C   0  0  1  0  0  3  0  0  0  0  0  0
  186.0330  179.1910  141.0570 C   0  0  0  0  0  2  0  0  0  0  0  0
  182.2510  176.9240  135.8960 C   0  0  1  0  0  3  0  0  0  0  0  0
  185.5580  177.9960  143.0870 O   0  0  0  0  0  1  0  0  0  0  0  0
  179.8970  179.1380  139.3650 C   0  0  0  0  0  2  0  0  0  0  0  0
  178.9330  180.6700  136.1870 O   0  0  0  0  0  0  0  0  0  0  0  0
  181.3900  179.4550  139.5210 C   0  0  2  0  0  3  0  0  0  0  0  0
  183.9120  177.5120  135.3980 S   0  0  0  0  0  0  0  0  0  0  0  0
  181.1430  174.9700  134.7860 C   0  0  0  0  0  3  0  0  0  0  0  0
  182.0700  175.4370  135.7250 C   0  0  0  0  0  0  0  0  0  0  0  0
  182.8260  174.5160  136.4650 C   0  0  0  0  0  3  0  0  0  0  0  0
  183.5950  172.0020  137.2030 Cl  0  0  0  0  0  0  0  0  0  0  0  0
  181.7180  172.6840  135.3370 C   0  0  0  0  0  3  0  0  0  0  0  0
  182.6490  173.1430  136.2730 C   0  0  0  0  0  0  0  0  0  0  0  0
  180.9660  173.5970  134.5940 C   0  0  0  0  0  3  0  0  0  0  0  0
  181.1520  183.7270  137.3670 C   0  0  0  0  0  1  0  0  0  0  0  0
  181.9450  182.5830  137.4710 O   0  0  0  0  0  0  0  0  0  0  0  0
  1 27  1  0  0  0  0
  2 14  1  1  0  0  0
  2 24  1  0  0  0  0
  3  7  1  0  0  0  0
  3  9  1  0  0  0  0
  4  1  1  0  0  0  0
  6 22  1  0  0  0  0
  7 21  1  0  0  0  0
  8 18  1  0  0  0  0
  8 12  1  0  0  0  0
  9  6  1  0  0  0  0
  9 13  1  0  0  0  0
 10  5  1  0  0  0  0
 10  7  1  0  0  0  0
 11  6  1  0  0  0  0
 12  4  1  0  0  0  0
 13 17  1  0  0  0  0
 15 20  1  0  0  0  0
 16 11  1  0  0  0  0
 17  2  1  0  0  0  0
 18 25  1  0  0  0  0
 19  5  1  0  0  0  0
 19 18  1  0  0  0  0
 20 16  1  0  0  0  0
 20  3  1  0  0  0  0
 21 13  1  0  0  0  0
 22  2  1  0  0  0  0
 23 10  1  0  0  0  0
 25 27  1  0  0  0  0
 26  8  2  0  0  0  0
 27 21  1  0  0  0  0
 28 23  1  0  0  0  0
 28 15  1  0  0  0  0
 29 30  1  0  0  0  0
 30 23  1  0  0  0  0
 30 31  2  0  0  0  0
 33 34  2  0  0  0  0
 34 31  1  0  0  0  0
 34 32  1  0  0  0  0
 35 29  2  0  0  0  0
 35 33  1  0  0  0  0
 36 37  1  0  0  0  0
 37  4  1  0  0  0  0
M  END
>  <MODEL>
6

>  <REMARK>
 VINA RESULT:      -4.1      2.329      3.218
  Name = 
  2 active torsions:
  status: ('A' for Active; 'I' for Inactive)
    1  A    between atoms: C_4  and  O_37
    2  A    between atoms: C_23  and  C_30
                            x       y       z     vdW  Elec       q    Type
                         _______ _______ _______ _____ _____    ______ ____

>  <TORSDO>
F 2

$$$$
=
 OpenBabel11122411293D

 37 43  0  0  1  0  0  0  0  0999 V2000
  183.9400  176.4640  136.8790 C   0  0  0  0  0  2  0  0  0  0  0  0
  180.1590  173.1830  137.5410 C   0  0  1  0  0  0  0  0  0  0  0  0
  180.6110  177.2800  136.4870 C   0  0  1  0  0  3  0  0  0  0  0  0
  185.4090  176.0390  136.7310 C   0  0  2  0  0  3  0  0  0  0  0  0
  182.6380  179.5350  138.9480 C   0  0  0  0  0  2  0  0  0  0  0  0
  179.3880  175.0760  136.0060 C   0  0  1  0  0  3  0  0  0  0  0  0
  181.2390  177.8100  137.7640 C   0  0  2  0  0  3  0  0  0  0  0  0
  185.9210  178.1710  138.0090 C   0  0  0  0  0  0  0  0  0  0  0  0
  180.1110  175.9830  137.0080 C   0  0  1  0  0  3  0  0  0  0  0  0
  182.2070  179.0030  137.5800 C   0  0  1  0  0  3  0  0  0  0  0  0
  179.3900  175.6800  134.5940 C   0  0  0  0  0  2  0  0  0  0  0  0
  186.4020  176.8040  137.6250 C   0  0  0  0  0  2  0  0  0  0  0  0
  181.2670  175.3780  137.6150 N   0  0  2  0  0  0  0  0  0  0  0  0
  180.9980  172.0850  137.5300 F   0  0  0  0  0  0  0  0  0  0  0  0
  179.5610  179.3440  135.5120 O   0  0  0  0  0  0  0  0  0  0  0  0
  178.9310  177.1610  134.5980 C   0  0  0  0  0  2  0  0  0  0  0  0
  180.7900  174.2770  138.4410 C   0  0  0  0  0  2  0  0  0  0  0  0
  184.7550  178.3070  138.8340 N   0  0  0  0  0  0  0  0  0  0  0  0
  184.1530  179.6160  139.0580 C   0  0  0  0  0  2  0  0  0  0  0  0
  179.4210  177.9740  135.8200 C   0  0  1  0  0  3  0  0  0  0  0  0
  181.8530  176.4870  138.3750 C   0  0  1  0  0  3  0  0  0  0  0  0
  179.9410  173.6470  136.0750 C   0  0  0  0  0  2  0  0  0  0  0  0
  181.6870  180.1740  136.7140 C   0  0  1  0  0  3  0  0  0  0  0  0
  178.9330  172.8050  138.0870 O   0  0  0  0  0  1  0  0  0  0  0  0
  184.1230  177.1130  139.3930 C   0  0  0  0  0  2  0  0  0  0  0  0
  186.5260  179.1880  137.5760 O   0  0  0  0  0  0  0  0  0  0  0  0
  183.3850  176.3190  138.3080 C   0  0  2  0  0  3  0  0  0  0  0  0
  181.1800  179.7040  135.0190 S   0  0  0  0  0  0  0  0  0  0  0  0
  179.8580  180.6310  138.3640 C   0  0  0  0  0  3  0  0  0  0  0  0
  180.7250  181.1240  137.3820 C   0  0  0  0  0  0  0  0  0  0  0  0
  180.6970  182.4880  137.0580 C   0  0  0  0  0  3  0  0  0  0  0  0
  179.7770  185.0480  137.2920 Cl  0  0  0  0  0  0  0  0  0  0  0  0
  178.9400  182.8490  138.6820 C   0  0  0  0  0  3  0  0  0  0  0  0
  179.8060  183.3480  137.7050 C   0  0  0  0  0  0  0  0  0  0  0  0
  178.9670  181.4910  139.0120 C   0  0  0  0  0  3  0  0  0  0  0  0
  184.7430  176.8660  134.7900 C   0  0  0  0  0  1  0  0  0  0  0  0
  185.7920  176.1720  135.3950 O   0  0  0  0  0  0  0  0  0  0  0  0
  1 27  1  0  0  0  0
  2 14  1  6  0  0  0
  2 24  1  0  0  0  0
  2 17  1  0  0  0  0
  3  9  1  0  0  0  0
  3  7  1  0  0  0  0
  4  1  1  0  0  0  0
  4 12  1  0  0  0  0
  5 19  1  0  0  0  0
  6 22  1  0  0  0  0
  6  9  1  0  0  0  0
  7 21  1  0  0  0  0
  8 18  1  0  0  0  0
  9 13  1  0  0  0  0
 10  7  1  0  0  0  0
 10  5  1  0  0  0  0
 11 16  1  0  0  0  0
 11  6  1  0  0  0  0
 12  8  1  0  0  0  0
 13 21  1  0  0  0  0
 13 17  1  0  0  0  0
 15 20  1  0  0  0  0
 16 20  1  0  0  0  0
 18 19  1  0  0  0  0
 18 25  1  0  0  0  0
 20  3  1  0  0  0  0
 22  2  1  0  0  0  0
 23 30  1  0  0  0  0
 23 10  1  0  0  0  0
 26  8  2  0  0  0  0
 27 21  1  0  0  0  0
 27 25  1  0  0  0  0
 28 15  1  0  0  0  0
 28 23  1  0  0  0  0
 29 35  1  0  0  0  0
 30 29  2  0  0  0  0
 31 30  1  0  0  0  0
 31 34  2  0  0  0  0
 32 34  1  0  0  0  0
 33 35  2  0  0  0  0
 34 33  1  0  0  0  0
 36 37  1  0  0  0  0
 37  4  1  0  0  0  0
M  END
>  <MODEL>
7

>  <REMARK>
 VINA RESULT:      -4.1      3.984      7.149
  Name = 
  2 active torsions:
  status: ('A' for Active; 'I' for Inactive)
    1  A    between atoms: C_4  and  O_37
    2  A    between atoms: C_23  and  C_30
                            x       y       z     vdW  Elec       q    Type
                         _______ _______ _______ _____ _____    ______ ____

>  <TORSDO>
F 2

$$$$
=
 OpenBabel11122411293D

 37 43  0  0  1  0  0  0  0  0999 V2000
  185.2650  175.3940  137.5890 C   0  0  0  0  0  2  0  0  0  0  0  0
  188.2160  178.4390  140.3300 C   0  0  1  0  0  0  0  0  0  0  0  0
  184.0920  178.1300  139.3320 C   0  0  1  0  0  3  0  0  0  0  0  0
  185.7120  174.0120  137.0880 C   0  0  2  0  0  3  0  0  0  0  0  0
  183.1850  178.0150  135.5360 C   0  0  0  0  0  2  0  0  0  0  0  0
  185.8100  178.5880  141.1820 C   0  0  1  0  0  3  0  0  0  0  0  0
  184.1710  178.3330  137.8300 C   0  0  2  0  0  3  0  0  0  0  0  0
  184.3210  174.5520  135.0360 C   0  0  0  0  0  0  0  0  0  0  0  0
  185.4430  178.6260  139.6940 C   0  0  1  0  0  3  0  0  0  0  0  0
  183.0880  177.5990  137.0040 C   0  0  1  0  0  3  0  0  0  0  0  0
  184.6940  177.9540  142.0230 C   0  0  0  0  0  2  0  0  0  0  0  0
  185.4540  173.7450  135.5940 C   0  0  0  0  0  2  0  0  0  0  0  0
  186.3330  177.8690  138.8540 N   0  0  2  0  0  0  0  0  0  0  0  0
  189.2820  177.5590  140.3140 F   0  0  0  0  0  0  0  0  0  0  0  0
  181.7330  178.8270  139.8410 O   0  0  0  0  0  0  0  0  0  0  0  0
  183.3060  178.5660  141.6980 C   0  0  0  0  0  2  0  0  0  0  0  0
  187.6300  178.5310  138.8980 C   0  0  0  0  0  2  0  0  0  0  0  0
  184.4330  175.9820  134.9720 N   0  0  0  0  0  0  0  0  0  0  0  0
  183.2790  176.8010  134.6220 C   0  0  0  0  0  2  0  0  0  0  0  0
  183.0940  178.8990  140.2020 C   0  0  1  0  0  3  0  0  0  0  0  0
  185.6740  177.9290  137.5450 C   0  0  1  0  0  3  0  0  0  0  0  0
  187.1880  177.9420  141.3820 C   0  0  0  0  0  2  0  0  0  0  0  0
  181.6290  177.7700  137.4900 C   0  0  1  0  0  3  0  0  0  0  0  0
  188.6800  179.6990  140.7060 O   0  0  0  0  0  1  0  0  0  0  0  0
  185.6950  176.6250  135.3360 C   0  0  0  0  0  2  0  0  0  0  0  0
  183.2690  173.9720  134.6590 O   0  0  0  0  0  0  0  0  0  0  0  0
  185.9250  176.5740  136.8520 C   0  0  2  0  0  3  0  0  0  0  0  0
  181.3380  177.2590  139.2240 S   0  0  0  0  0  0  0  0  0  0  0  0
  179.7740  179.0320  136.3760 C   0  0  0  0  0  3  0  0  0  0  0  0
  180.9530  179.0680  137.1290 C   0  0  0  0  0  0  0  0  0  0  0  0
  181.4640  180.3040  137.5530 C   0  0  0  0  0  3  0  0  0  0  0  0
  181.4530  183.0260  137.7480 Cl  0  0  0  0  0  0  0  0  0  0  0  0
  179.6320  181.4470  136.4610 C   0  0  0  0  0  3  0  0  0  0  0  0
  180.8060  181.4900  137.2180 C   0  0  0  0  0  0  0  0  0  0  0  0
  179.1150  180.2190  136.0410 C   0  0  0  0  0  3  0  0  0  0  0  0
  183.7620  173.4480  137.9680 C   0  0  0  0  0  1  0  0  0  0  0  0
  185.0870  173.0240  137.8500 O   0  0  0  0  0  0  0  0  0  0  0  0
  2 14  1  6  0  0  0
  2 24  1  0  0  0  0
  2 22  1  0  0  0  0
  3  9  1  0  0  0  0
  3 20  1  0  0  0  0
  4  1  1  0  0  0  0
  4 37  1  0  0  0  0
  5 10  1  0  0  0  0
  6 22  1  0  0  0  0
  6 11  1  0  0  0  0
  7  3  1  0  0  0  0
  8 12  1  0  0  0  0
  9  6  1  0  0  0  0
 10 23  1  0  0  0  0
 10  7  1  0  0  0  0
 12  4  1  0  0  0  0
 13 17  1  0  0  0  0
 13  9  1  0  0  0  0
 15 20  1  0  0  0  0
 16 11  1  0  0  0  0
 17  2  1  0  0  0  0
 18  8  1  0  0  0  0
 18 25  1  0  0  0  0
 19 18  1  0  0  0  0
 19  5  1  0  0  0  0
 20 16  1  0  0  0  0
 21  7  1  0  0  0  0
 21 13  1  0  0  0  0
 23 28  1  0  0  0  0
 25 27  1  0  0  0  0
 26  8  2  0  0  0  0
 27 21  1  0  0  0  0
 27  1  1  0  0  0  0
 28 15  1  0  0  0  0
 29 30  1  0  0  0  0
 30 23  1  0  0  0  0
 30 31  2  0  0  0  0
 33 34  2  0  0  0  0
 34 31  1  0  0  0  0
 34 32  1  0  0  0  0
 35 29  2  0  0  0  0
 35 33  1  0  0  0  0
 37 36  1  0  0  0  0
M  END
>  <MODEL>
8

>  <REMARK>
 VINA RESULT:      -3.8      3.774      6.943
  Name = 
  2 active torsions:
  status: ('A' for Active; 'I' for Inactive)
    1  A    between atoms: C_4  and  O_37
    2  A    between atoms: C_23  and  C_30
                            x       y       z     vdW  Elec       q    Type
                         _______ _______ _______ _____ _____    ______ ____

>  <TORSDO>
F 2

$$$$
=
 OpenBabel11122411293D

 37 43  0  0  1  0  0  0  0  0999 V2000
  184.1910  176.6060  136.5020 C   0  0  0  0  0  2  0  0  0  0  0  0
  180.6880  173.0080  137.0340 C   0  0  1  0  0  0  0  0  0  0  0  0
  180.8000  177.2370  136.5760 C   0  0  1  0  0  3  0  0  0  0  0  0
  185.6550  176.3110  136.1440 C   0  0  2  0  0  3  0  0  0  0  0  0
  182.9600  179.2450  139.1340 C   0  0  0  0  0  2  0  0  0  0  0  0
  179.6520  175.0470  135.8910 C   0  0  1  0  0  3  0  0  0  0  0  0
  181.5350  177.6170  137.8480 C   0  0  2  0  0  3  0  0  0  0  0  0
  186.1890  178.2640  137.6730 C   0  0  0  0  0  0  0  0  0  0  0  0
  180.4310  175.8460  136.9410 C   0  0  1  0  0  3  0  0  0  0  0  0
  182.4110  178.8890  137.7520 C   0  0  1  0  0  3  0  0  0  0  0  0
  179.4660  175.8480  134.5940 C   0  0  0  0  0  2  0  0  0  0  0  0
  186.6980  177.0040  137.0400 C   0  0  0  0  0  2  0  0  0  0  0  0
  181.6770  175.2410  137.3290 N   0  0  2  0  0  0  0  0  0  0  0  0
  181.5780  171.9850  136.7710 F   0  0  0  0  0  0  0  0  0  0  0  0
  179.5390  179.3420  136.0370 O   0  0  0  0  0  0  0  0  0  0  0  0
  178.9310  177.2780  134.8690 C   0  0  0  0  0  2  0  0  0  0  0  0
  181.3530  174.0010  138.0220 C   0  0  0  0  0  2  0  0  0  0  0  0
  185.1150  178.1980  138.6230 N   0  0  0  0  0  0  0  0  0  0  0  0
  184.4720  179.4150  139.1020 C   0  0  0  0  0  2  0  0  0  0  0  0
  179.5080  177.9360  136.1450 C   0  0  1  0  0  3  0  0  0  0  0  0
  182.2820  176.2650  138.1870 C   0  0  1  0  0  3  0  0  0  0  0  0
  180.2850  173.6640  135.6850 C   0  0  0  0  0  2  0  0  0  0  0  0
  181.7370  180.1350  137.1310 C   0  0  1  0  0  3  0  0  0  0  0  0
  179.5510  172.4700  137.6370 O   0  0  0  0  0  1  0  0  0  0  0  0
  184.6130  176.8930  139.0540 C   0  0  0  0  0  2  0  0  0  0  0  0
  186.6870  179.3730  137.3420 O   0  0  0  0  0  0  0  0  0  0  0  0
  183.8040  176.2160  137.9410 C   0  0  2  0  0  3  0  0  0  0  0  0
  181.0730  179.8820  135.4440 S   0  0  0  0  0  0  0  0  0  0  0  0
  180.3390  182.1590  137.6080 C   0  0  0  0  0  3  0  0  0  0  0  0
  180.8040  180.9070  138.0290 C   0  0  0  0  0  0  0  0  0  0  0  0
  180.3740  180.3890  139.2600 C   0  0  0  0  0  3  0  0  0  0  0  0
  178.9680  180.4670  141.5980 Cl  0  0  0  0  0  0  0  0  0  0  0  0
  179.0380  182.3710  139.6400 C   0  0  0  0  0  3  0  0  0  0  0  0
  179.4950  181.1200  140.0640 C   0  0  0  0  0  0  0  0  0  0  0  0
  179.4590  182.8900  138.4120 C   0  0  0  0  0  3  0  0  0  0  0  0
  187.2510  176.4730  134.6200 C   0  0  0  0  0  1  0  0  0  0  0  0
  185.8810  176.6630  134.8120 O   0  0  0  0  0  0  0  0  0  0  0  0
  1 27  1  0  0  0  0
  2 14  1  6  0  0  0
  2 24  1  0  0  0  0
  2 17  1  0  0  0  0
  3  9  1  0  0  0  0
  3  7  1  0  0  0  0
  4  1  1  0  0  0  0
  4 12  1  0  0  0  0
  6  9  1  0  0  0  0
  7 21  1  0  0  0  0
  8 18  1  0  0  0  0
  9 13  1  0  0  0  0
 10  7  1  0  0  0  0
 10  5  1  0  0  0  0
 11 16  1  0  0  0  0
 11  6  1  0  0  0  0
 12  8  1  0  0  0  0
 13 17  1  0  0  0  0
 13 21  1  0  0  0  0
 15 20  1  0  0  0  0
 16 20  1  0  0  0  0
 18 25  1  0  0  0  0
 18 19  1  0  0  0  0
 19  5  1  0  0  0  0
 20  3  1  0  0  0  0
 22  6  1  0  0  0  0
 22  2  1  0  0  0  0
 23 10  1  0  0  0  0
 23 30  1  0  0  0  0
 26  8  2  0  0  0  0
 27 21  1  0  0  0  0
 27 25  1  0  0  0  0
 28 15  1  0  0  0  0
 28 23  1  0  0  0  0
 29 30  2  0  0  0  0
 29 35  1  0  0  0  0
 30 31  1  0  0  0  0
 31 34  2  0  0  0  0
 33 34  1  0  0  0  0
 34 32  1  0  0  0  0
 35 33  2  0  0  0  0
 36 37  1  0  0  0  0
 37  4  1  0  0  0  0
M  END
>  <MODEL>
9

>  <REMARK>
 VINA RESULT:      -3.4      3.743      7.139
  Name = 
  2 active torsions:
  status: ('A' for Active; 'I' for Inactive)
    1  A    between atoms: C_4  and  O_37
    2  A    between atoms: C_23  and  C_30
                            x       y       z     vdW  Elec       q    Type
                         _______ _______ _______ _____ _____    ______ ____

>  <TORSDO>
F 2

$$$$
