=
 OpenBabel11122411323D

 37 43  0  0  1  0  0  0  0  0999 V2000
  184.0300  175.2010  137.2900 C   0  0  0  0  0  2  0  0  0  0  0  0
  188.4950  178.5860  137.6270 S   0  0  0  0  0  0  0  0  0  0  0  0
  184.5490  178.1480  139.2910 C   0  0  0  0  0  0  0  0  0  0  0  0
  184.4780  173.8840  136.6440 C   0  0  2  0  0  3  0  0  0  0  0  0
  181.4510  177.6730  137.3820 N   0  0  0  0  0  0  0  0  0  0  0  0
  186.8990  178.2710  139.8180 C   0  0  0  0  0  0  0  0  0  0  0  0
  183.6860  177.9470  138.1810 N   0  0  0  0  0  0  0  0  0  0  0  0
  182.5050  174.2520  135.0870 C   0  0  0  0  0  0  0  0  0  0  0  0
  185.8550  177.9710  138.9420 C   0  0  0  0  0  0  0  0  0  0  0  0
  182.3040  178.3450  138.0990 C   0  0  0  0  0  0  0  0  0  0  0  0
  186.5740  178.6630  141.1260 C   0  0  0  0  0  3  0  0  0  0  0  0
  183.8020  173.5400  135.3090 C   0  0  0  0  0  2  0  0  0  0  0  0
  185.9810  177.5690  137.5200 C   0  0  2  0  0  3  0  0  0  0  0  0
  189.4180  177.5980  136.9740 O   0  0  0  0  0  0  0  0  0  0  0  0
  182.7670  178.6370  141.0020 C   0  0  0  0  0  2  0  0  0  0  0  0
  185.2230  178.7830  141.5140 C   0  0  0  0  0  3  0  0  0  0  0  0
  186.9030  178.5420  136.8010 C   0  0  0  0  0  2  0  0  0  0  0  0
  182.5290  175.6680  134.5940 C   0  0  0  0  0  2  0  0  0  0  0  0
  181.7590  176.5910  136.5780 O   0  0  0  0  0  0  0  0  0  0  0  0
  184.1950  178.5340  140.5870 C   0  0  0  0  0  0  0  0  0  0  0  0
  184.5250  177.6690  137.0100 C   0  0  1  0  0  3  0  0  0  0  0  0
  188.3250  178.1700  139.3680 C   0  0  0  0  0  2  0  0  0  0  0  0
  181.8100  179.5230  138.8600 C   0  0  0  0  0  0  0  0  0  0  0  0
  189.0740  179.9650  137.5010 O   0  0  0  0  0  0  0  0  0  0  0  0
  182.7940  176.6400  135.6610 N   0  0  1  0  0  0  0  0  0  0  0  0
  181.4480  173.7120  135.3680 O   0  0  0  0  0  0  0  0  0  0  0  0
  184.0860  176.3900  136.3150 C   0  0  2  0  0  3  0  0  0  0  0  0
  182.0410  179.6480  140.1750 C   0  0  0  0  0  3  0  0  0  0  0  0
  179.7360  180.3360  137.6840 C   0  0  0  0  0  3  0  0  0  0  0  0
  181.0380  180.5840  138.1570 C   0  0  0  0  0  0  0  0  0  0  0  0
  181.5910  181.8620  137.9700 C   0  0  0  0  0  3  0  0  0  0  0  0
  181.4270  184.1220  137.1450 O   0  0  0  0  0  1  0  0  0  0  0  0
  179.5760  182.6050  136.8550 C   0  0  0  0  0  3  0  0  0  0  0  0
  180.8650  182.8650  137.3220 C   0  0  0  0  0  0  0  0  0  0  0  0
  179.0110  181.3400  137.0360 C   0  0  0  0  0  3  0  0  0  0  0  0
  183.7950  171.4980  136.8910 C   0  0  0  0  0  1  0  0  0  0  0  0
  184.2850  172.7350  137.6190 C   0  0  0  0  0  2  0  0  0  0  0  0
  2 22  1  0  0  0  0
  3 20  1  0  0  0  0
  4  1  1  0  0  0  0
  4 37  1  1  0  0  0
  5 10  2  0  0  0  0
  6 11  2  0  0  0  0
  7  3  1  0  0  0  0
  8 12  1  0  0  0  0
  8 26  2  0  0  0  0
  9  3  2  0  0  0  0
  9  6  1  0  0  0  0
 10  7  1  0  0  0  0
 10 23  1  0  0  0  0
 11 16  1  0  0  0  0
 12  4  1  0  0  0  0
 13 17  1  6  0  0  0
 13  9  1  0  0  0  0
 14  2  2  0  0  0  0
 17  2  1  0  0  0  0
 18  8  1  0  0  0  0
 19  5  1  0  0  0  0
 20 15  1  0  0  0  0
 20 16  2  0  0  0  0
 21 13  1  0  0  0  0
 21  7  1  1  0  0  0
 22  6  1  0  0  0  0
 23 28  2  0  0  0  0
 24  2  2  0  0  0  0
 25 18  1  6  0  0  0
 25 27  1  0  0  0  0
 25 19  1  0  0  0  0
 27 21  1  0  0  0  0
 27  1  1  1  0  0  0
 28 15  1  0  0  0  0
 29 30  1  0  0  0  0
 30 23  1  0  0  0  0
 31 30  2  0  0  0  0
 32 34  1  0  0  0  0
 33 35  1  0  0  0  0
 33 34  2  0  0  0  0
 34 31  1  0  0  0  0
 35 29  2  0  0  0  0
 36 37  1  0  0  0  0
M  END
>  <MODEL>
1

>  <REMARK>
 VINA RESULT:      -6.7      0.000      0.000
  Name = 
  2 active torsions:
  status: ('A' for Active; 'I' for Inactive)
    1  A    between atoms: C_4  and  C_37
    2  A    between atoms: C_23  and  C_30
                            x       y       z     vdW  Elec       q    Type
                         _______ _______ _______ _____ _____    ______ ____

>  <TORSDO>
F 2

$$$$
=
 OpenBabel11122411323D

 37 43  0  0  1  0  0  0  0  0999 V2000
  181.0400  181.3000  137.8750 C   0  0  0  0  0  2  0  0  0  0  0  0
  179.9040  178.8190  142.7800 S   0  0  0  0  0  0  0  0  0  0  0  0
  182.7170  178.5790  139.5300 C   0  0  0  0  0  0  0  0  0  0  0  0
  180.3160  182.6520  137.8450 C   0  0  2  0  0  3  0  0  0  0  0  0
  181.8720  178.3970  135.9630 N   0  0  0  0  0  0  0  0  0  0  0  0
  182.4880  178.9150  141.9070 C   0  0  0  0  0  0  0  0  0  0  0  0
  181.9330  178.5740  138.3450 N   0  0  0  0  0  0  0  0  0  0  0  0
  179.4380  181.8650  135.5950 C   0  0  0  0  0  0  0  0  0  0  0  0
  181.9840  178.9820  140.6070 C   0  0  0  0  0  0  0  0  0  0  0  0
  182.2740  177.9230  137.1070 C   0  0  0  0  0  0  0  0  0  0  0  0
  183.8240  178.5190  142.0800 C   0  0  0  0  0  3  0  0  0  0  0  0
  179.2630  182.8130  136.7390 C   0  0  0  0  0  2  0  0  0  0  0  0
  180.6020  179.3470  140.2100 C   0  0  2  0  0  3  0  0  0  0  0  0
  179.0190  179.9370  143.2540 O   0  0  0  0  0  0  0  0  0  0  0  0
  184.8840  177.8330  138.4870 C   0  0  0  0  0  2  0  0  0  0  0  0
  184.6070  178.1650  140.9630 C   0  0  0  0  0  3  0  0  0  0  0  0
  179.6130  178.5360  141.0330 C   0  0  0  0  0  2  0  0  0  0  0  0
  178.9310  180.4600  135.7330 C   0  0  0  0  0  2  0  0  0  0  0  0
  181.0350  179.4860  135.7990 O   0  0  0  0  0  0  0  0  0  0  0  0
  184.0500  178.1840  139.6710 C   0  0  0  0  0  0  0  0  0  0  0  0
  180.5660  178.9580  138.7150 C   0  0  1  0  0  3  0  0  0  0  0  0
  181.6210  179.2620  143.0790 C   0  0  0  0  0  2  0  0  0  0  0  0
  183.1250  176.7030  137.1020 C   0  0  0  0  0  0  0  0  0  0  0  0
  179.5750  177.5680  143.5410 O   0  0  0  0  0  0  0  0  0  0  0  0
  179.8420  179.5950  136.4910 N   0  0  1  0  0  0  0  0  0  0  0  0
  180.0440  182.2090  134.5950 O   0  0  0  0  0  0  0  0  0  0  0  0
  180.0700  180.1060  137.8500 C   0  0  2  0  0  3  0  0  0  0  0  0
  184.3000  176.6730  137.7460 C   0  0  0  0  0  3  0  0  0  0  0  0
  183.5230  174.8420  135.4530 C   0  0  0  0  0  3  0  0  0  0  0  0
  182.6720  175.4920  136.3650 C   0  0  0  0  0  0  0  0  0  0  0  0
  181.3890  174.9630  136.5840 C   0  0  0  0  0  3  0  0  0  0  0  0
  179.6930  173.3090  136.1330 O   0  0  0  0  0  1  0  0  0  0  0  0
  181.8180  173.1850  135.0000 C   0  0  0  0  0  3  0  0  0  0  0  0
  180.9640  173.8180  135.9050 C   0  0  0  0  0  0  0  0  0  0  0  0
  183.0980  173.6970  134.7730 C   0  0  0  0  0  3  0  0  0  0  0  0
  180.7930  184.9000  136.8750 C   0  0  0  0  0  1  0  0  0  0  0  0
  181.3270  183.7810  137.7490 C   0  0  0  0  0  2  0  0  0  0  0  0
  2 22  1  0  0  0  0
  2 14  2  0  0  0  0
  2 24  2  0  0  0  0
  3 20  2  0  0  0  0
  3  9  1  0  0  0  0
  4 37  1  6  0  0  0
  4  1  1  0  0  0  0
  5 10  2  0  0  0  0
  6 11  1  0  0  0  0
  6 22  1  0  0  0  0
  7  3  1  0  0  0  0
  8 18  1  0  0  0  0
  8 12  1  0  0  0  0
  9  6  2  0  0  0  0
 10  7  1  0  0  0  0
 12  4  1  0  0  0  0
 13  9  1  0  0  0  0
 13 17  1  1  0  0  0
 15 20  1  0  0  0  0
 16 11  2  0  0  0  0
 17  2  1  0  0  0  0
 19  5  1  0  0  0  0
 19 25  1  0  0  0  0
 20 16  1  0  0  0  0
 21  7  1  6  0  0  0
 21 13  1  0  0  0  0
 23 10  1  0  0  0  0
 23 28  2  0  0  0  0
 25 18  1  6  0  0  0
 25 27  1  0  0  0  0
 26  8  2  0  0  0  0
 27  1  1  6  0  0  0
 27 21  1  0  0  0  0
 28 15  1  0  0  0  0
 29 30  1  0  0  0  0
 30 31  2  0  0  0  0
 30 23  1  0  0  0  0
 33 34  2  0  0  0  0
 34 32  1  0  0  0  0
 34 31  1  0  0  0  0
 35 33  1  0  0  0  0
 35 29  2  0  0  0  0
 36 37  1  0  0  0  0
M  END
>  <MODEL>
2

>  <REMARK>
 VINA RESULT:      -6.7      3.099      7.367
  Name = 
  2 active torsions:
  status: ('A' for Active; 'I' for Inactive)
    1  A    between atoms: C_4  and  C_37
    2  A    between atoms: C_23  and  C_30
                            x       y       z     vdW  Elec       q    Type
                         _______ _______ _______ _____ _____    ______ ____

>  <TORSDO>
F 2

$$$$
=
 OpenBabel11122411323D

 37 43  0  0  1  0  0  0  0  0999 V2000
  182.7160  176.2350  138.0190 C   0  0  0  0  0  2  0  0  0  0  0  0
  185.1870  178.8260  142.3410 S   0  0  0  0  0  0  0  0  0  0  0  0
  181.5150  178.9180  140.0970 C   0  0  0  0  0  0  0  0  0  0  0  0
  183.4490  174.9100  137.7750 C   0  0  2  0  0  3  0  0  0  0  0  0
  181.2320  179.0780  136.4420 N   0  0  0  0  0  0  0  0  0  0  0  0
  182.4660  178.6250  142.2940 C   0  0  0  0  0  0  0  0  0  0  0  0
  181.9020  178.9330  138.7310 N   0  0  0  0  0  0  0  0  0  0  0  0
  183.5720  175.6950  135.3630 C   0  0  0  0  0  0  0  0  0  0  0  0
  182.5550  178.5570  140.9030 C   0  0  0  0  0  0  0  0  0  0  0  0
  181.1770  179.5540  137.6520 C   0  0  0  0  0  0  0  0  0  0  0  0
  181.2310  178.9750  142.8630 C   0  0  0  0  0  3  0  0  0  0  0  0
  184.1220  174.7710  136.4020 C   0  0  0  0  0  2  0  0  0  0  0  0
  183.7640  178.2360  140.1070 C   0  0  2  0  0  3  0  0  0  0  0  0
  186.2170  177.7480  142.5280 O   0  0  0  0  0  0  0  0  0  0  0  0
  179.1070  179.5700  139.7580 C   0  0  0  0  0  2  0  0  0  0  0  0
  180.1330  179.2840  142.0350 C   0  0  0  0  0  3  0  0  0  0  0  0
  184.9240  179.0950  140.5870 C   0  0  0  0  0  2  0  0  0  0  0  0
  184.0430  177.1190  135.3360 C   0  0  0  0  0  2  0  0  0  0  0  0
  182.0210  178.0180  136.0350 O   0  0  0  0  0  0  0  0  0  0  0  0
  180.2730  179.2670  140.6350 C   0  0  0  0  0  0  0  0  0  0  0  0
  183.3310  178.6040  138.6700 C   0  0  1  0  0  3  0  0  0  0  0  0
  183.6600  178.3260  143.1490 C   0  0  0  0  0  2  0  0  0  0  0  0
  180.3180  180.7420  137.9020 C   0  0  0  0  0  0  0  0  0  0  0  0
  185.6820  180.0990  142.9630 O   0  0  0  0  0  0  0  0  0  0  0  0
  183.3710  177.9610  136.3320 N   0  0  1  0  0  0  0  0  0  0  0  0
  182.7060  175.3150  134.5940 O   0  0  0  0  0  0  0  0  0  0  0  0
  183.5860  177.4630  137.6980 C   0  0  2  0  0  3  0  0  0  0  0  0
  179.3930  180.7390  138.8720 C   0  0  0  0  0  3  0  0  0  0  0  0
  179.9650  182.0030  135.7510 C   0  0  0  0  0  3  0  0  0  0  0  0
  180.4790  181.9580  137.0590 C   0  0  0  0  0  0  0  0  0  0  0  0
  181.1340  183.0940  137.5660 C   0  0  0  0  0  3  0  0  0  0  0  0
  181.9250  185.3560  137.2990 O   0  0  0  0  0  1  0  0  0  0  0  0
  180.7630  184.2730  135.4850 C   0  0  0  0  0  3  0  0  0  0  0  0
  181.2760  184.2430  136.7830 C   0  0  0  0  0  0  0  0  0  0  0  0
  180.1070  183.1530  134.9680 C   0  0  0  0  0  3  0  0  0  0  0  0
  181.0780  174.1460  137.6540 C   0  0  0  0  0  1  0  0  0  0  0  0
  182.5000  173.7440  137.9940 C   0  0  0  0  0  2  0  0  0  0  0  0
  2 14  2  0  0  0  0
  2 24  2  0  0  0  0
  2 22  1  0  0  0  0
  3 20  2  0  0  0  0
  3  9  1  0  0  0  0
  4 37  1  6  0  0  0
  4  1  1  0  0  0  0
  5 10  2  0  0  0  0
  6 11  1  0  0  0  0
  6 22  1  0  0  0  0
  7  3  1  0  0  0  0
  8 12  1  0  0  0  0
  9  6  2  0  0  0  0
 10 23  1  0  0  0  0
 10  7  1  0  0  0  0
 12  4  1  0  0  0  0
 13 17  1  1  0  0  0
 13  9  1  0  0  0  0
 15 20  1  0  0  0  0
 16 11  2  0  0  0  0
 17  2  1  0  0  0  0
 18  8  1  0  0  0  0
 19 25  1  0  0  0  0
 19  5  1  0  0  0  0
 20 16  1  0  0  0  0
 21  7  1  1  0  0  0
 21 13  1  0  0  0  0
 23 28  2  0  0  0  0
 25 18  1  6  0  0  0
 25 27  1  0  0  0  0
 26  8  2  0  0  0  0
 27  1  1  1  0  0  0
 27 21  1  0  0  0  0
 28 15  1  0  0  0  0
 29 30  1  0  0  0  0
 30 31  2  0  0  0  0
 30 23  1  0  0  0  0
 33 34  2  0  0  0  0
 34 32  1  0  0  0  0
 34 31  1  0  0  0  0
 35 33  1  0  0  0  0
 35 29  2  0  0  0  0
 36 37  1  0  0  0  0
M  END
>  <MODEL>
3

>  <REMARK>
 VINA RESULT:      -6.6      2.408      3.427
  Name = 
  2 active torsions:
  status: ('A' for Active; 'I' for Inactive)
    1  A    between atoms: C_4  and  C_37
    2  A    between atoms: C_23  and  C_30
                            x       y       z     vdW  Elec       q    Type
                         _______ _______ _______ _____ _____    ______ ____

>  <TORSDO>
F 2

$$$$
=
 OpenBabel11122411323D

 37 43  0  0  1  0  0  0  0  0999 V2000
  182.0650  180.5840  138.2810 C   0  0  0  0  0  2  0  0  0  0  0  0
  184.9490  178.7350  142.7260 S   0  0  0  0  0  0  0  0  0  0  0  0
  184.6660  178.1040  138.4770 C   0  0  0  0  0  0  0  0  0  0  0  0
  181.4060  181.9160  138.6600 C   0  0  2  0  0  3  0  0  0  0  0  0
  181.5790  177.4670  136.5990 N   0  0  0  0  0  0  0  0  0  0  0  0
  186.1470  178.7360  140.2730 C   0  0  0  0  0  0  0  0  0  0  0  0
  183.2820  177.9450  138.2060 N   0  0  0  0  0  0  0  0  0  0  0  0
  179.2790  180.8460  137.7760 C   0  0  0  0  0  0  0  0  0  0  0  0
  184.8710  178.6350  139.7170 C   0  0  0  0  0  0  0  0  0  0  0  0
  182.7120  177.1440  137.1520 C   0  0  0  0  0  0  0  0  0  0  0  0
  187.2470  178.3740  139.4800 C   0  0  0  0  0  3  0  0  0  0  0  0
  179.8720  181.9290  138.6200 C   0  0  0  0  0  2  0  0  0  0  0  0
  183.5840  178.9380  140.3890 C   0  0  2  0  0  3  0  0  0  0  0  0
  184.5550  179.8980  143.5910 O   0  0  0  0  0  0  0  0  0  0  0  0
  185.5290  177.2460  136.2730 C   0  0  0  0  0  2  0  0  0  0  0  0
  187.0450  177.8870  138.1720 C   0  0  0  0  0  3  0  0  0  0  0  0
  183.5420  178.2310  141.7350 C   0  0  0  0  0  2  0  0  0  0  0  0
  179.1510  179.4660  138.3510 C   0  0  0  0  0  2  0  0  0  0  0  0
  180.7720  178.5220  136.9860 O   0  0  0  0  0  0  0  0  0  0  0  0
  185.7430  177.7380  137.6630 C   0  0  0  0  0  0  0  0  0  0  0  0
  182.5430  178.3630  139.4030 C   0  0  1  0  0  3  0  0  0  0  0  0
  186.3280  179.2230  141.6790 C   0  0  0  0  0  2  0  0  0  0  0  0
  183.4220  175.9390  136.6480 C   0  0  0  0  0  0  0  0  0  0  0  0
  185.3710  177.5880  143.5970 O   0  0  0  0  0  0  0  0  0  0  0  0
  180.4080  178.7100  138.3070 N   0  0  1  0  0  0  0  0  0  0  0  0
  178.9700  181.0640  136.6170 O   0  0  0  0  0  0  0  0  0  0  0  0
  181.4770  179.3890  139.0530 C   0  0  2  0  0  3  0  0  0  0  0  0
  184.7060  175.9990  136.2670 C   0  0  0  0  0  3  0  0  0  0  0  0
  183.0400  173.6930  135.5760 C   0  0  0  0  0  3  0  0  0  0  0  0
  182.6990  174.6420  136.5570 C   0  0  0  0  0  0  0  0  0  0  0  0
  181.6730  174.3330  137.4650 C   0  0  0  0  0  3  0  0  0  0  0  0
  179.9880  172.8210  138.2960 O   0  0  0  0  0  1  0  0  0  0  0  0
  181.3460  172.1790  136.4100 C   0  0  0  0  0  3  0  0  0  0  0  0
  181.0000  173.1100  137.3910 C   0  0  0  0  0  0  0  0  0  0  0  0
  182.3670  172.4700  135.5020 C   0  0  0  0  0  3  0  0  0  0  0  0
  180.8480  184.0260  137.4530 C   0  0  0  0  0  1  0  0  0  0  0  0
  181.9450  183.0300  137.7790 C   0  0  0  0  0  2  0  0  0  0  0  0
  1  4  1  0  0  0  0
  2 14  2  0  0  0  0
  2 24  2  0  0  0  0
  3  9  1  0  0  0  0
  4 37  1  6  0  0  0
  5 19  1  0  0  0  0
  5 10  2  0  0  0  0
  6 22  1  0  0  0  0
  7  3  1  0  0  0  0
  8 18  1  0  0  0  0
  8 12  1  0  0  0  0
  9  6  2  0  0  0  0
  9 13  1  0  0  0  0
 10  7  1  0  0  0  0
 11  6  1  0  0  0  0
 12  4  1  0  0  0  0
 13 17  1  1  0  0  0
 15 20  1  0  0  0  0
 16 11  2  0  0  0  0
 17  2  1  0  0  0  0
 19 25  1  0  0  0  0
 20 16  1  0  0  0  0
 20  3  2  0  0  0  0
 21  7  1  6  0  0  0
 21 13  1  0  0  0  0
 22  2  1  0  0  0  0
 23 10  1  0  0  0  0
 25 18  1  6  0  0  0
 25 27  1  0  0  0  0
 26  8  2  0  0  0  0
 27  1  1  6  0  0  0
 27 21  1  0  0  0  0
 28 15  1  0  0  0  0
 28 23  2  0  0  0  0
 29 30  1  0  0  0  0
 30 23  1  0  0  0  0
 30 31  2  0  0  0  0
 33 34  2  0  0  0  0
 34 31  1  0  0  0  0
 34 32  1  0  0  0  0
 35 29  2  0  0  0  0
 35 33  1  0  0  0  0
 36 37  1  0  0  0  0
M  END
>  <MODEL>
4

>  <REMARK>
 VINA RESULT:      -6.4      2.550      6.672
  Name = 
  2 active torsions:
  status: ('A' for Active; 'I' for Inactive)
    1  A    between atoms: C_4  and  C_37
    2  A    between atoms: C_23  and  C_30
                            x       y       z     vdW  Elec       q    Type
                         _______ _______ _______ _____ _____    ______ ____

>  <TORSDO>
F 2

$$$$
=
 OpenBabel11122411323D

 37 43  0  0  1  0  0  0  0  0999 V2000
  184.3700  177.8780  138.8840 C   0  0  0  0  0  2  0  0  0  0  0  0
  180.2560  181.6080  138.0700 S   0  0  0  0  0  0  0  0  0  0  0  0
  180.8350  177.5890  139.4980 C   0  0  0  0  0  0  0  0  0  0  0  0
  185.7050  178.6320  138.8790 C   0  0  2  0  0  3  0  0  0  0  0  0
  182.6810  174.9340  137.7610 N   0  0  0  0  0  0  0  0  0  0  0  0
  180.0110  179.7790  140.0810 C   0  0  0  0  0  0  0  0  0  0  0  0
  181.6400  176.9470  138.5190 N   0  0  0  0  0  0  0  0  0  0  0  0
  186.4180  176.8800  137.1840 C   0  0  0  0  0  0  0  0  0  0  0  0
  180.8500  178.9430  139.3420 C   0  0  0  0  0  0  0  0  0  0  0  0
  181.6130  175.5460  138.1870 C   0  0  0  0  0  0  0  0  0  0  0  0
  179.2120  179.2010  141.0800 C   0  0  0  0  0  3  0  0  0  0  0  0
  186.6860  178.2300  137.7690 C   0  0  0  0  0  2  0  0  0  0  0  0
  181.7460  179.3460  138.2310 C   0  0  2  0  0  3  0  0  0  0  0  0
  181.1980  182.7720  137.9530 O   0  0  0  0  0  0  0  0  0  0  0  0
  180.1030  175.5150  140.7250 C   0  0  0  0  0  2  0  0  0  0  0  0
  179.2420  177.8070  141.2910 C   0  0  0  0  0  3  0  0  0  0  0  0
  180.9650  180.1880  137.2340 C   0  0  0  0  0  2  0  0  0  0  0  0
  185.3440  176.7390  136.1460 C   0  0  0  0  0  2  0  0  0  0  0  0
  183.8990  175.5370  137.5060 O   0  0  0  0  0  0  0  0  0  0  0  0
  180.0530  176.9850  140.4870 C   0  0  0  0  0  0  0  0  0  0  0  0
  182.1710  177.9870  137.6310 C   0  0  1  0  0  3  0  0  0  0  0  0
  179.9730  181.2530  139.8100 C   0  0  0  0  0  2  0  0  0  0  0  0
  180.3660  174.7530  138.3500 C   0  0  0  0  0  0  0  0  0  0  0  0
  178.9500  181.9590  137.4180 O   0  0  0  0  0  0  0  0  0  0  0  0
  183.9960  176.6740  136.7240 N   0  0  1  0  0  0  0  0  0  0  0  0
  187.0150  175.8990  137.5940 O   0  0  0  0  0  0  0  0  0  0  0  0
  183.6830  177.8770  137.5070 C   0  0  2  0  0  3  0  0  0  0  0  0
  179.6840  174.7610  139.5040 C   0  0  0  0  0  3  0  0  0  0  0  0
  179.4690  174.5250  136.0080 C   0  0  0  0  0  3  0  0  0  0  0  0
  179.8640  173.9270  137.2180 C   0  0  0  0  0  0  0  0  0  0  0  0
  179.7930  172.5290  137.3340 C   0  0  0  0  0  3  0  0  0  0  0  0
  179.2700  170.3670  136.4000 O   0  0  0  0  0  1  0  0  0  0  0  0
  178.9420  172.3540  135.0750 C   0  0  0  0  0  3  0  0  0  0  0  0
  179.3340  171.7480  136.2690 C   0  0  0  0  0  0  0  0  0  0  0  0
  179.0100  173.7440  134.9440 C   0  0  0  0  0  3  0  0  0  0  0  0
  185.4810  179.0030  141.3360 C   0  0  0  0  0  1  0  0  0  0  0  0
  186.3850  178.4920  140.2300 C   0  0  0  0  0  2  0  0  0  0  0  0
  2 22  1  0  0  0  0
  3 20  1  0  0  0  0
  4  1  1  0  0  0  0
  4 37  1  1  0  0  0
  5 10  2  0  0  0  0
  6 11  2  0  0  0  0
  7  3  1  0  0  0  0
  8 26  2  0  0  0  0
  8 12  1  0  0  0  0
  9  3  2  0  0  0  0
  9  6  1  0  0  0  0
 10 23  1  0  0  0  0
 10  7  1  0  0  0  0
 11 16  1  0  0  0  0
 12  4  1  0  0  0  0
 13 17  1  6  0  0  0
 13  9  1  0  0  0  0
 14  2  2  0  0  0  0
 17  2  1  0  0  0  0
 18  8  1  0  0  0  0
 19  5  1  0  0  0  0
 20 15  1  0  0  0  0
 20 16  2  0  0  0  0
 21 13  1  0  0  0  0
 21  7  1  1  0  0  0
 22  6  1  0  0  0  0
 23 28  2  0  0  0  0
 24  2  2  0  0  0  0
 25 18  1  1  0  0  0
 25 19  1  0  0  0  0
 25 27  1  0  0  0  0
 27 21  1  0  0  0  0
 27  1  1  1  0  0  0
 28 15  1  0  0  0  0
 29 30  1  0  0  0  0
 30 31  2  0  0  0  0
 30 23  1  0  0  0  0
 33 34  2  0  0  0  0
 34 32  1  0  0  0  0
 34 31  1  0  0  0  0
 35 33  1  0  0  0  0
 35 29  2  0  0  0  0
 37 36  1  0  0  0  0
M  END
>  <MODEL>
5

>  <REMARK>
 VINA RESULT:      -6.1      3.000      6.731
  Name = 
  2 active torsions:
  status: ('A' for Active; 'I' for Inactive)
    1  A    between atoms: C_4  and  C_37
    2  A    between atoms: C_23  and  C_30
                            x       y       z     vdW  Elec       q    Type
                         _______ _______ _______ _____ _____    ______ ____

>  <TORSDO>
F 2

$$$$
=
 OpenBabel11122411323D

 37 43  0  0  1  0  0  0  0  0999 V2000
  183.7450  175.8000  137.8760 C   0  0  0  0  0  2  0  0  0  0  0  0
  187.2770  178.5380  141.2720 S   0  0  0  0  0  0  0  0  0  0  0  0
  183.1080  178.4710  140.2040 C   0  0  0  0  0  0  0  0  0  0  0  0
  184.4230  174.4980  137.4330 C   0  0  2  0  0  3  0  0  0  0  0  0
  181.7600  178.5680  136.7920 N   0  0  0  0  0  0  0  0  0  0  0  0
  184.6700  178.2430  142.0260 C   0  0  0  0  0  0  0  0  0  0  0  0
  183.0760  178.4800  138.7840 N   0  0  0  0  0  0  0  0  0  0  0  0
  183.8050  175.2510  135.0870 C   0  0  0  0  0  0  0  0  0  0  0  0
  184.3500  178.1580  140.6710 C   0  0  0  0  0  0  0  0  0  0  0  0
  182.0440  179.0590  137.9630 C   0  0  0  0  0  0  0  0  0  0  0  0
  183.6450  178.5590  142.9310 C   0  0  0  0  0  3  0  0  0  0  0  0
  184.6690  174.3610  135.9240 C   0  0  0  0  0  2  0  0  0  0  0  0
  185.2840  177.8670  139.5560 C   0  0  2  0  0  3  0  0  0  0  0  0
  188.3550  177.4980  141.1530 O   0  0  0  0  0  0  0  0  0  0  0  0
  180.6830  179.0350  140.5840 C   0  0  0  0  0  2  0  0  0  0  0  0
  182.3410  178.8180  142.4600 C   0  0  0  0  0  3  0  0  0  0  0  0
  186.5020  178.7710  139.6720 C   0  0  0  0  0  2  0  0  0  0  0  0
  184.1940  176.6900  134.9180 C   0  0  0  0  0  2  0  0  0  0  0  0
  182.4340  177.5290  136.1750 O   0  0  0  0  0  0  0  0  0  0  0  0
  182.0650  178.7850  141.0810 C   0  0  0  0  0  0  0  0  0  0  0  0
  184.4360  178.1990  138.3080 C   0  0  1  0  0  3  0  0  0  0  0  0
  186.0730  177.9970  142.4940 C   0  0  0  0  0  2  0  0  0  0  0  0
  181.2530  180.2210  138.4490 C   0  0  0  0  0  0  0  0  0  0  0  0
  187.8850  179.8360  141.7170 O   0  0  0  0  0  0  0  0  0  0  0  0
  183.8130  177.5230  136.0640 N   0  0  1  0  0  0  0  0  0  0  0  0
  182.7660  174.8300  134.6080 O   0  0  0  0  0  0  0  0  0  0  0  0
  184.4370  177.0520  137.3090 C   0  0  2  0  0  3  0  0  0  0  0  0
  180.6540  180.2000  139.6480 C   0  0  0  0  0  3  0  0  0  0  0  0
  180.4000  181.3780  136.3810 C   0  0  0  0  0  3  0  0  0  0  0  0
  181.1150  181.4290  137.5910 C   0  0  0  0  0  0  0  0  0  0  0  0
  181.6830  182.6520  137.9870 C   0  0  0  0  0  3  0  0  0  0  0  0
  182.1130  184.9920  137.5980 O   0  0  0  0  0  1  0  0  0  0  0  0
  180.8360  183.7270  135.9920 C   0  0  0  0  0  3  0  0  0  0  0  0
  181.5450  183.7930  137.1920 C   0  0  0  0  0  0  0  0  0  0  0  0
  180.2620  182.5190  135.5860 C   0  0  0  0  0  3  0  0  0  0  0  0
  183.9500  172.0710  137.1030 C   0  0  0  0  0  1  0  0  0  0  0  0
  183.6240  173.3030  137.9250 C   0  0  0  0  0  2  0  0  0  0  0  0
  2 24  2  0  0  0  0
  2 22  1  0  0  0  0
  3  9  2  0  0  0  0
  3 20  1  0  0  0  0
  4  1  1  0  0  0  0
  4 37  1  6  0  0  0
  5 10  2  0  0  0  0
  6 22  1  0  0  0  0
  6 11  2  0  0  0  0
  7  3  1  0  0  0  0
  8 12  1  0  0  0  0
  9  6  1  0  0  0  0
 10 23  1  0  0  0  0
 10  7  1  0  0  0  0
 12  4  1  0  0  0  0
 13 17  1  1  0  0  0
 13  9  1  0  0  0  0
 14  2  2  0  0  0  0
 15 20  1  0  0  0  0
 16 11  1  0  0  0  0
 17  2  1  0  0  0  0
 18  8  1  0  0  0  0
 19  5  1  0  0  0  0
 20 16  2  0  0  0  0
 21  7  1  1  0  0  0
 21 13  1  0  0  0  0
 23 28  2  0  0  0  0
 25 18  1  6  0  0  0
 25 19  1  0  0  0  0
 25 27  1  0  0  0  0
 26  8  2  0  0  0  0
 27  1  1  1  0  0  0
 27 21  1  0  0  0  0
 28 15  1  0  0  0  0
 29 30  1  0  0  0  0
 30 31  2  0  0  0  0
 30 23  1  0  0  0  0
 33 34  2  0  0  0  0
 34 32  1  0  0  0  0
 34 31  1  0  0  0  0
 35 33  1  0  0  0  0
 35 29  2  0  0  0  0
 36 37  1  0  0  0  0
M  END
>  <MODEL>
6

>  <REMARK>
 VINA RESULT:      -5.9      1.704      2.169
  Name = 
  2 active torsions:
  status: ('A' for Active; 'I' for Inactive)
    1  A    between atoms: C_4  and  C_37
    2  A    between atoms: C_23  and  C_30
                            x       y       z     vdW  Elec       q    Type
                         _______ _______ _______ _____ _____    ______ ____

>  <TORSDO>
F 2

$$$$
=
 OpenBabel11122411323D

 37 43  0  0  1  0  0  0  0  0999 V2000
  182.1180  178.7490  141.1570 C   0  0  0  0  0  2  0  0  0  0  0  0
  180.3880  182.4770  137.3340 S   0  0  0  0  0  0  0  0  0  0  0  0
  182.0390  178.5080  137.5670 C   0  0  0  0  0  0  0  0  0  0  0  0
  181.5440  179.1610  142.5190 C   0  0  2  0  0  3  0  0  0  0  0  0
  185.0210  177.5270  139.4680 N   0  0  0  0  0  0  0  0  0  0  0  0
  180.1670  179.8120  136.7860 C   0  0  0  0  0  0  0  0  0  0  0  0
  183.1510  178.6070  138.4440 N   0  0  0  0  0  0  0  0  0  0  0  0
  183.9390  178.9360  143.3320 C   0  0  0  0  0  0  0  0  0  0  0  0
  181.2330  179.6040  137.6620 C   0  0  0  0  0  0  0  0  0  0  0  0
  184.3470  177.8060  138.3890 C   0  0  0  0  0  0  0  0  0  0  0  0
  179.8660  178.8040  135.8570 C   0  0  0  0  0  3  0  0  0  0  0  0
  182.5810  179.5050  143.5960 C   0  0  0  0  0  2  0  0  0  0  0  0
  181.7310  180.5480  138.6920 C   0  0  2  0  0  3  0  0  0  0  0  0
  179.6370  183.3060  138.3370 O   0  0  0  0  0  0  0  0  0  0  0  0
  182.5820  176.2430  136.6100 C   0  0  0  0  0  2  0  0  0  0  0  0
  180.6550  177.6370  135.7990 C   0  0  0  0  0  3  0  0  0  0  0  0
  181.9290  181.9190  138.0640 C   0  0  0  0  0  2  0  0  0  0  0  0
  184.8490  179.6460  142.3730 C   0  0  0  0  0  2  0  0  0  0  0  0
  184.7390  178.0080  140.7330 O   0  0  0  0  0  0  0  0  0  0  0  0
  181.7610  177.4860  136.6540 C   0  0  0  0  0  0  0  0  0  0  0  0
  183.0720  179.9080  139.1170 C   0  0  1  0  0  3  0  0  0  0  0  0
  179.3670  181.0790  136.8470 C   0  0  0  0  0  2  0  0  0  0  0  0
  184.8270  177.2490  137.0970 C   0  0  0  0  0  0  0  0  0  0  0  0
  180.6930  183.3130  136.1260 O   0  0  0  0  0  0  0  0  0  0  0  0
  184.5370  179.3560  140.9690 N   0  0  1  0  0  0  0  0  0  0  0  0
  184.2750  177.8780  143.8340 O   0  0  0  0  0  0  0  0  0  0  0  0
  183.1620  179.7470  140.6270 C   0  0  2  0  0  3  0  0  0  0  0  0
  184.0090  176.5550  136.2930 C   0  0  0  0  0  3  0  0  0  0  0  0
  186.8430  176.6260  135.7230 C   0  0  0  0  0  3  0  0  0  0  0  0
  186.2420  177.4580  136.6840 C   0  0  0  0  0  0  0  0  0  0  0  0
  186.9980  178.5050  137.2370 C   0  0  0  0  0  3  0  0  0  0  0  0
  189.0550  179.7520  137.4000 O   0  0  0  0  0  1  0  0  0  0  0  0
  188.9080  177.8780  135.8900 C   0  0  0  0  0  3  0  0  0  0  0  0
  188.3230  178.7130  136.8440 C   0  0  0  0  0  0  0  0  0  0  0  0
  188.1680  176.8340  135.3290 C   0  0  0  0  0  3  0  0  0  0  0  0
  179.7160  178.6280  144.1310 C   0  0  0  0  0  1  0  0  0  0  0  0
  180.6150  178.0770  143.0400 C   0  0  0  0  0  2  0  0  0  0  0  0
  1  4  1  0  0  0  0
  2 17  1  0  0  0  0
  2 14  2  0  0  0  0
  3  9  1  0  0  0  0
  3  7  1  0  0  0  0
  4 37  1  1  0  0  0
  4 12  1  0  0  0  0
  5 19  1  0  0  0  0
  6 22  1  0  0  0  0
  6  9  2  0  0  0  0
  8 12  1  0  0  0  0
  8 26  2  0  0  0  0
  9 13  1  0  0  0  0
 10  7  1  0  0  0  0
 10  5  2  0  0  0  0
 11  6  1  0  0  0  0
 13 17  1  6  0  0  0
 13 21  1  0  0  0  0
 15 20  1  0  0  0  0
 16 11  2  0  0  0  0
 16 20  1  0  0  0  0
 18  8  1  0  0  0  0
 19 25  1  0  0  0  0
 20  3  2  0  0  0  0
 21  7  1  6  0  0  0
 21 27  1  0  0  0  0
 22  2  1  0  0  0  0
 23 10  1  0  0  0  0
 24  2  2  0  0  0  0
 25 18  1  1  0  0  0
 27 25  1  0  0  0  0
 27  1  1  6  0  0  0
 28 15  1  0  0  0  0
 28 23  2  0  0  0  0
 29 30  1  0  0  0  0
 30 23  1  0  0  0  0
 30 31  2  0  0  0  0
 33 34  2  0  0  0  0
 34 31  1  0  0  0  0
 34 32  1  0  0  0  0
 35 29  2  0  0  0  0
 35 33  1  0  0  0  0
 37 36  1  0  0  0  0
M  END
>  <MODEL>
7

>  <REMARK>
 VINA RESULT:      -5.7      2.855      7.508
  Name = 
  2 active torsions:
  status: ('A' for Active; 'I' for Inactive)
    1  A    between atoms: C_4  and  C_37
    2  A    between atoms: C_23  and  C_30
                            x       y       z     vdW  Elec       q    Type
                         _______ _______ _______ _____ _____    ______ ____

>  <TORSDO>
F 2

$$$$
=
 OpenBabel11122411323D

 37 43  0  0  1  0  0  0  0  0999 V2000
  186.5590  177.2430  136.4140 C   0  0  0  0  0  2  0  0  0  0  0  0
  183.7660  172.3770  136.5590 S   0  0  0  0  0  0  0  0  0  0  0  0
  183.0150  176.6110  136.3750 C   0  0  0  0  0  0  0  0  0  0  0  0
  188.0100  176.9490  136.0170 C   0  0  2  0  0  3  0  0  0  0  0  0
  184.4640  179.1510  138.5930 N   0  0  0  0  0  0  0  0  0  0  0  0
  182.6590  174.5050  135.2560 C   0  0  0  0  0  0  0  0  0  0  0  0
  183.8210  177.1870  137.3920 N   0  0  0  0  0  0  0  0  0  0  0  0
  188.6030  178.3310  138.0640 C   0  0  0  0  0  0  0  0  0  0  0  0
  183.4000  175.3310  136.1030 C   0  0  0  0  0  0  0  0  0  0  0  0
  183.5170  178.3800  138.1400 C   0  0  0  0  0  0  0  0  0  0  0  0
  181.5510  175.0560  134.5940 C   0  0  0  0  0  3  0  0  0  0  0  0
  189.0710  177.3230  137.0630 C   0  0  0  0  0  2  0  0  0  0  0  0
  184.5790  174.9420  136.9130 C   0  0  2  0  0  3  0  0  0  0  0  0
  184.9710  171.5590  136.1900 O   0  0  0  0  0  0  0  0  0  0  0  0
  181.5510  178.6150  135.9490 C   0  0  0  0  0  2  0  0  0  0  0  0
  181.1890  176.4000  134.8200 C   0  0  0  0  0  3  0  0  0  0  0  0
  184.2580  173.6760  137.6930 C   0  0  0  0  0  2  0  0  0  0  0  0
  187.7690  177.8700  139.2230 C   0  0  0  0  0  2  0  0  0  0  0  0
  185.8190  178.8950  138.4940 O   0  0  0  0  0  0  0  0  0  0  0  0
  181.9190  177.1880  135.7270 C   0  0  0  0  0  0  0  0  0  0  0  0
  184.7680  176.1610  137.8430 C   0  0  1  0  0  3  0  0  0  0  0  0
  183.0470  173.0700  135.0630 C   0  0  0  0  0  2  0  0  0  0  0  0
  182.1070  178.7790  138.3890 C   0  0  0  0  0  0  0  0  0  0  0  0
  182.7550  171.4950  137.2320 O   0  0  0  0  0  0  0  0  0  0  0  0
  186.3580  177.6770  138.8690 N   0  0  1  0  0  0  0  0  0  0  0  0
  188.8380  179.5160  137.9030 O   0  0  0  0  0  0  0  0  0  0  0  0
  186.1970  176.6820  137.8010 C   0  0  2  0  0  3  0  0  0  0  0  0
  181.2220  178.8660  137.3850 C   0  0  0  0  0  3  0  0  0  0  0  0
  180.4520  179.7710  140.0080 C   0  0  0  0  0  3  0  0  0  0  0  0
  181.6630  179.0930  139.7740 C   0  0  0  0  0  0  0  0  0  0  0  0
  182.4390  178.7000  140.8780 C   0  0  0  0  0  3  0  0  0  0  0  0
  182.7980  178.5870  143.2590 O   0  0  0  0  0  1  0  0  0  0  0  0
  180.8180  179.6590  142.3980 C   0  0  0  0  0  3  0  0  0  0  0  0
  182.0200  178.9820  142.1810 C   0  0  0  0  0  0  0  0  0  0  0  0
  180.0330  180.0530  141.3110 C   0  0  0  0  0  3  0  0  0  0  0  0
  189.8270  177.8950  134.5940 C   0  0  0  0  0  1  0  0  0  0  0  0
  188.3370  177.6310  134.7000 C   0  0  0  0  0  2  0  0  0  0  0  0
  2 24  2  0  0  0  0
  2 17  1  0  0  0  0
  3  7  1  0  0  0  0
  4 37  1  6  0  0  0
  4  1  1  0  0  0  0
  4 12  1  0  0  0  0
  6  9  2  0  0  0  0
  7 10  1  0  0  0  0
  8 18  1  0  0  0  0
  9  3  1  0  0  0  0
  9 13  1  0  0  0  0
 10 23  1  0  0  0  0
 10  5  2  0  0  0  0
 11 16  2  0  0  0  0
 11  6  1  0  0  0  0
 12  8  1  0  0  0  0
 13 17  1  1  0  0  0
 13 21  1  0  0  0  0
 14  2  2  0  0  0  0
 15 28  1  0  0  0  0
 16 20  1  0  0  0  0
 19  5  1  0  0  0  0
 19 25  1  0  0  0  0
 20 15  1  0  0  0  0
 20  3  2  0  0  0  0
 21  7  1  6  0  0  0
 22  6  1  0  0  0  0
 22  2  1  0  0  0  0
 23 30  1  0  0  0  0
 25 18  1  6  0  0  0
 26  8  2  0  0  0  0
 27  1  1  6  0  0  0
 27 21  1  0  0  0  0
 27 25  1  0  0  0  0
 28 23  2  0  0  0  0
 29 35  1  0  0  0  0
 30 29  2  0  0  0  0
 30 31  1  0  0  0  0
 31 34  2  0  0  0  0
 34 33  1  0  0  0  0
 34 32  1  0  0  0  0
 35 33  2  0  0  0  0
 36 37  1  0  0  0  0
M  END
>  <MODEL>
8

>  <REMARK>
 VINA RESULT:      -5.7      2.691      6.029
  Name = 
  2 active torsions:
  status: ('A' for Active; 'I' for Inactive)
    1  A    between atoms: C_4  and  C_37
    2  A    between atoms: C_23  and  C_30
                            x       y       z     vdW  Elec       q    Type
                         _______ _______ _______ _____ _____    ______ ____

>  <TORSDO>
F 2

$$$$
=
 OpenBabel11122411323D

 37 43  0  0  1  0  0  0  0  0999 V2000
  193.1880  175.4520  136.4490 C   0  0  0  0  0  2  0  0  0  0  0  0
  188.3740  172.7150  135.5340 S   0  0  0  0  0  0  0  0  0  0  0  0
  189.7950  176.4650  137.0980 C   0  0  0  0  0  0  0  0  0  0  0  0
  194.2840  174.7820  135.6120 C   0  0  2  0  0  3  0  0  0  0  0  0
  192.4170  176.8830  139.6320 N   0  0  0  0  0  0  0  0  0  0  0  0
  188.3920  175.4420  135.4240 C   0  0  0  0  0  0  0  0  0  0  0  0
  190.8310  176.1310  138.0100 N   0  0  0  0  0  0  0  0  0  0  0  0
  195.5840  174.7220  137.7930 C   0  0  0  0  0  0  0  0  0  0  0  0
  189.4860  175.4100  136.2910 C   0  0  0  0  0  0  0  0  0  0  0  0
  191.1920  176.8730  139.1910 C   0  0  0  0  0  0  0  0  0  0  0  0
  187.6670  176.6390  135.3160 C   0  0  0  0  0  3  0  0  0  0  0  0
  195.4430  174.1680  136.4100 C   0  0  0  0  0  2  0  0  0  0  0  0
  190.3610  174.2460  136.5710 C   0  0  2  0  0  3  0  0  0  0  0  0
  189.0010  171.7220  134.5970 O   0  0  0  0  0  0  0  0  0  0  0  0
  189.4870  178.8570  137.8210 C   0  0  0  0  0  2  0  0  0  0  0  0
  188.0240  177.7560  136.0990 C   0  0  0  0  0  3  0  0  0  0  0  0
  189.4990  173.0350  136.8940 C   0  0  0  0  0  2  0  0  0  0  0  0
  194.6920  174.1970  138.8790 C   0  0  0  0  0  2  0  0  0  0  0  0
  193.4640  176.1530  139.1010 O   0  0  0  0  0  0  0  0  0  0  0  0
  189.0930  177.6710  137.0100 C   0  0  0  0  0  0  0  0  0  0  0  0
  191.1720  174.7200  137.7980 C   0  0  1  0  0  3  0  0  0  0  0  0
  188.0140  174.2280  134.6310 C   0  0  0  0  0  2  0  0  0  0  0  0
  190.1750  177.6740  139.9220 C   0  0  0  0  0  0  0  0  0  0  0  0
  187.0960  172.1460  136.0780 O   0  0  0  0  0  0  0  0  0  0  0  0
  193.3520  174.7960  138.8570 N   0  0  1  0  0  0  0  0  0  0  0  0
  196.3630  175.6320  138.0180 O   0  0  0  0  0  0  0  0  0  0  0  0
  192.6680  174.5480  137.5800 C   0  0  2  0  0  3  0  0  0  0  0  0
  189.3980  178.5600  139.2820 C   0  0  0  0  0  3  0  0  0  0  0  0
  191.0550  177.8350  142.2760 C   0  0  0  0  0  3  0  0  0  0  0  0
  190.0140  177.4980  141.3910 C   0  0  0  0  0  0  0  0  0  0  0  0
  188.8090  177.0090  141.9220 C   0  0  0  0  0  3  0  0  0  0  0  0
  187.4520  176.3700  143.8100 O   0  0  0  0  0  1  0  0  0  0  0  0
  189.6910  177.1890  144.1690 C   0  0  0  0  0  3  0  0  0  0  0  0
  188.6490  176.8550  143.3020 C   0  0  0  0  0  0  0  0  0  0  0  0
  190.8940  177.6800  143.6560 C   0  0  0  0  0  3  0  0  0  0  0  0
  194.9770  177.1450  135.2130 C   0  0  0  0  0  1  0  0  0  0  0  0
  194.8360  175.7660  134.5950 C   0  0  0  0  0  2  0  0  0  0  0  0
  2 24  2  0  0  0  0
  2 17  1  0  0  0  0
  3  7  1  0  0  0  0
  4 37  1  6  0  0  0
  4 12  1  0  0  0  0
  4  1  1  0  0  0  0
  6  9  1  0  0  0  0
  7 10  1  0  0  0  0
  8 26  2  0  0  0  0
  8 18  1  0  0  0  0
  9 13  1  0  0  0  0
  9  3  2  0  0  0  0
 10  5  2  0  0  0  0
 10 23  1  0  0  0  0
 11  6  2  0  0  0  0
 11 16  1  0  0  0  0
 12  8  1  0  0  0  0
 13 17  1  1  0  0  0
 13 21  1  0  0  0  0
 14  2  2  0  0  0  0
 15 28  1  0  0  0  0
 16 20  2  0  0  0  0
 19  5  1  0  0  0  0
 20  3  1  0  0  0  0
 20 15  1  0  0  0  0
 21  7  1  6  0  0  0
 22  6  1  0  0  0  0
 22  2  1  0  0  0  0
 23 30  1  0  0  0  0
 25 18  1  6  0  0  0
 25 19  1  0  0  0  0
 27  1  1  6  0  0  0
 27 21  1  0  0  0  0
 27 25  1  0  0  0  0
 28 23  2  0  0  0  0
 29 35  1  0  0  0  0
 30 31  1  0  0  0  0
 30 29  2  0  0  0  0
 31 34  2  0  0  0  0
 34 32  1  0  0  0  0
 34 33  1  0  0  0  0
 35 33  2  0  0  0  0
 37 36  1  0  0  0  0
M  END
>  <MODEL>
9

>  <REMARK>
 VINA RESULT:      -5.3      6.340      9.728
  Name = 
  2 active torsions:
  status: ('A' for Active; 'I' for Inactive)
    1  A    between atoms: C_4  and  C_37
    2  A    between atoms: C_23  and  C_30
                            x       y       z     vdW  Elec       q    Type
                         _______ _______ _______ _____ _____    ______ ____

>  <TORSDO>
F 2

$$$$
