=
 OpenBabel11122411173D

 31 35  0  0  1  0  0  0  0  0999 V2000
  193.4770  175.4780  135.8130 C   0  0  0  0  0  0  0  0  0  0  0  0
  190.1130  176.8480  136.9390 C   0  0  2  0  0  3  0  0  0  0  0  0
  189.1020  175.7240  136.7550 C   0  0  0  0  0  0  0  0  0  0  0  0
  188.4460  173.6000  135.7700 C   0  0  0  0  0  0  0  0  0  0  0  0
  191.5400  176.3550  136.9890 C   0  0  0  0  0  0  0  0  0  0  0  0
  194.1530  175.3330  137.0260 C   0  0  0  0  0  3  0  0  0  0  0  0
  189.3930  174.6080  135.9550 C   0  0  0  0  0  3  0  0  0  0  0  0
  190.1550  176.9760  139.4560 C   0  0  2  0  0  3  0  0  0  0  0  0
  194.1090  175.1010  134.5960 N   0  0  0  0  0  1  0  0  0  0  0  0
  187.4810  176.9530  138.1000 O   0  0  0  0  0  0  0  0  0  0  0  0
  188.7740  172.4170  134.9310 C   0  0  0  0  0  1  0  0  0  0  0  0
  191.6620  176.7240  139.5080 C   0  0  0  0  0  2  0  0  0  0  0  0
  189.7870  177.7220  138.1660 C   0  0  2  0  0  3  0  0  0  0  0  0
  192.1770  175.9880  135.7950 C   0  0  0  0  0  3  0  0  0  0  0  0
  187.1890  173.7020  136.3710 C   0  0  0  0  0  3  0  0  0  0  0  0
  192.2300  176.2110  138.2150 C   0  0  0  0  0  0  0  0  0  0  0  0
  193.5340  175.7080  138.2210 C   0  0  0  0  0  3  0  0  0  0  0  0
  188.3090  178.1140  138.1380 C   0  0  0  0  0  2  0  0  0  0  0  0
  187.8180  175.8360  137.3300 C   0  0  0  0  0  0  0  0  0  0  0  0
  186.8760  174.8190  137.1490 C   0  0  0  0  0  3  0  0  0  0  0  0
  190.0140  175.9790  142.1260 O   0  0  0  0  0  0  0  0  0  0  0  0
  189.7160  177.1910  141.9380 C   0  0  0  0  0  0  0  0  0  0  0  0
  189.7560  177.7490  140.6250 N   0  0  0  0  0  2  0  0  0  0  0  0
  190.2910  177.4280  145.8410 C   0  0  1  0  0  3  0  0  0  0  0  0
  190.5340  178.7210  143.7350 C   0  0  0  0  0  2  0  0  0  0  0  0
  187.3020  176.9690  143.7910 O   0  0  0  0  0  0  0  0  0  0  0  0
  190.8970  176.5150  146.7010 O   0  0  0  0  0  1  0  0  0  0  0  0
  191.2390  177.7750  144.7020 C   0  0  0  0  0  2  0  0  0  0  0  0
  188.4820  177.2940  144.0820 C   0  0  0  0  0  0  0  0  0  0  0  0
  189.3130  178.0590  143.0880 C   0  0  2  0  0  3  0  0  0  0  0  0
  189.0460  176.8670  145.3270 N   0  0  0  0  0  2  0  0  0  0  0  0
  1  6  1  0  0  0  0
  2  3  1  1  0  0  0
  2  5  1  0  0  0  0
  2 13  1  0  0  0  0
  3 19  1  0  0  0  0
  4  7  1  0  0  0  0
  4 15  2  0  0  0  0
  5 16  2  0  0  0  0
  6 17  2  0  0  0  0
  7  3  2  0  0  0  0
  8 12  1  0  0  0  0
  8 23  1  1  0  0  0
  9  1  1  0  0  0  0
 10 18  1  0  0  0  0
 11  4  1  0  0  0  0
 13 18  1  1  0  0  0
 13  8  1  0  0  0  0
 14  1  2  0  0  0  0
 14  5  1  0  0  0  0
 15 20  1  0  0  0  0
 16 17  1  0  0  0  0
 16 12  1  0  0  0  0
 19 10  1  0  0  0  0
 20 19  2  0  0  0  0
 22 21  2  0  0  0  0
 23 22  1  0  0  0  0
 24 27  1  1  0  0  0
 25 28  1  0  0  0  0
 26 29  2  0  0  0  0
 28 24  1  0  0  0  0
 29 31  1  0  0  0  0
 30 22  1  6  0  0  0
 30 25  1  0  0  0  0
 30 29  1  0  0  0  0
 31 24  1  0  0  0  0
M  END
>  <MODEL>
1

>  <REMARK>
 VINA RESULT:      -8.0      0.000      0.000
  Name = 
  2 active torsions:
  status: ('A' for Active; 'I' for Inactive)
    1  A    between atoms: C_5  and  C_30
    2  A    between atoms: C_10  and  N_16
                            x       y       z     vdW  Elec       q    Type
                         _______ _______ _______ _____ _____    ______ ____

>  <TORSDO>
F 2

$$$$
=
 OpenBabel11122411173D

 31 35  0  0  1  0  0  0  0  0999 V2000
  186.5300  177.9570  138.1660 C   0  0  0  0  0  0  0  0  0  0  0  0
  190.0580  177.8190  139.5790 C   0  0  2  0  0  3  0  0  0  0  0  0
  189.9390  177.2680  140.9940 C   0  0  0  0  0  0  0  0  0  0  0  0
  188.6140  176.7600  142.9690 C   0  0  0  0  0  0  0  0  0  0  0  0
  188.8530  177.5100  138.7220 C   0  0  0  0  0  0  0  0  0  0  0  0
  186.5480  176.9150  137.2370 C   0  0  0  0  0  3  0  0  0  0  0  0
  188.7040  177.2390  141.6610 C   0  0  0  0  0  3  0  0  0  0  0  0
  191.2400  175.8890  138.4690 C   0  0  2  0  0  3  0  0  0  0  0  0
  185.3420  178.7130  138.3660 N   0  0  0  0  0  1  0  0  0  0  0  0
  192.3490  176.9040  141.0640 O   0  0  0  0  0  0  0  0  0  0  0  0
  187.2970  176.7230  143.6570 C   0  0  0  0  0  1  0  0  0  0  0  0
  190.1320  175.7260  137.4280 C   0  0  0  0  0  2  0  0  0  0  0  0
  191.3590  177.3600  138.8890 C   0  0  2  0  0  3  0  0  0  0  0  0
  187.6790  178.2540  138.9050 C   0  0  0  0  0  3  0  0  0  0  0  0
  189.7610  176.3180  143.6330 C   0  0  0  0  0  3  0  0  0  0  0  0
  188.8680  176.4590  137.7770 C   0  0  0  0  0  0  0  0  0  0  0  0
  187.7160  176.1760  137.0370 C   0  0  0  0  0  3  0  0  0  0  0  0
  192.5450  177.5900  139.8280 C   0  0  0  0  0  2  0  0  0  0  0  0
  191.0970  176.8520  141.6840 C   0  0  0  0  0  0  0  0  0  0  0  0
  191.0010  176.3640  142.9910 C   0  0  0  0  0  3  0  0  0  0  0  0
  191.5990  173.4370  137.0550 O   0  0  0  0  0  0  0  0  0  0  0  0
  192.6090  174.1800  137.2030 C   0  0  0  0  0  0  0  0  0  0  0  0
  192.5000  175.4150  137.9100 N   0  0  0  0  0  2  0  0  0  0  0  0
  196.4320  174.3130  138.1970 C   0  0  1  0  0  3  0  0  0  0  0  0
  194.6240  172.7420  137.5430 C   0  0  0  0  0  2  0  0  0  0  0  0
  194.5320  175.7480  135.4270 O   0  0  0  0  0  0  0  0  0  0  0  0
  197.0450  174.9750  139.2590 O   0  0  0  0  0  1  0  0  0  0  0  0
  195.3280  173.4050  138.7220 C   0  0  0  0  0  2  0  0  0  0  0  0
  194.8060  174.9760  136.3820 C   0  0  0  0  0  0  0  0  0  0  0  0
  193.9360  173.7750  136.6430 C   0  0  2  0  0  3  0  0  0  0  0  0
  195.8970  175.2880  137.2540 N   0  0  0  0  0  2  0  0  0  0  0  0
  1  9  1  0  0  0  0
  1 14  1  0  0  0  0
  2  5  1  6  0  0  0
  2  3  1  0  0  0  0
  3  7  2  0  0  0  0
  3 19  1  0  0  0  0
  4 15  2  0  0  0  0
  4 11  1  0  0  0  0
  5 14  2  0  0  0  0
  6  1  2  0  0  0  0
  7  4  1  0  0  0  0
  8 23  1  6  0  0  0
  8 13  1  0  0  0  0
 10 19  1  0  0  0  0
 12 16  1  0  0  0  0
 12  8  1  0  0  0  0
 13  2  1  0  0  0  0
 13 18  1  1  0  0  0
 16  5  1  0  0  0  0
 17  6  1  0  0  0  0
 17 16  2  0  0  0  0
 18 10  1  0  0  0  0
 19 20  2  0  0  0  0
 20 15  1  0  0  0  0
 21 22  2  0  0  0  0
 22 23  1  0  0  0  0
 24 28  1  0  0  0  0
 24 27  1  1  0  0  0
 25 28  1  0  0  0  0
 26 29  2  0  0  0  0
 29 30  1  0  0  0  0
 29 31  1  0  0  0  0
 30 22  1  1  0  0  0
 30 25  1  0  0  0  0
 31 24  1  0  0  0  0
M  END
>  <MODEL>
2

>  <REMARK>
 VINA RESULT:      -7.6      3.049      7.288
  Name = 
  2 active torsions:
  status: ('A' for Active; 'I' for Inactive)
    1  A    between atoms: C_5  and  C_30
    2  A    between atoms: C_10  and  N_16
                            x       y       z     vdW  Elec       q    Type
                         _______ _______ _______ _____ _____    ______ ____

>  <TORSDO>
F 2

$$$$
=
 OpenBabel11122411173D

 31 35  0  0  1  0  0  0  0  0999 V2000
  191.0930  176.2230  143.6430 C   0  0  0  0  0  0  0  0  0  0  0  0
  187.3630  176.9650  143.6990 C   0  0  2  0  0  3  0  0  0  0  0  0
  187.0910  177.7250  144.9890 C   0  0  0  0  0  0  0  0  0  0  0  0
  187.7450  178.4080  147.2300 C   0  0  0  0  0  0  0  0  0  0  0  0
  188.8180  176.9990  143.2900 C   0  0  0  0  0  0  0  0  0  0  0  0
  191.5480  177.0940  142.6510 C   0  0  0  0  0  3  0  0  0  0  0  0
  188.0220  177.7320  146.0400 C   0  0  0  0  0  3  0  0  0  0  0  0
  186.9340  178.7990  142.0240 C   0  0  2  0  0  3  0  0  0  0  0  0
  192.0140  175.3890  144.3360 N   0  0  0  0  0  1  0  0  0  0  0  0
  184.8820  178.3480  144.1630 O   0  0  0  0  0  0  0  0  0  0  0  0
  188.7480  178.4190  148.3270 C   0  0  0  0  0  1  0  0  0  0  0  0
  188.3360  178.6710  141.4280 C   0  0  0  0  0  2  0  0  0  0  0  0
  186.4550  177.4380  142.5460 C   0  0  2  0  0  3  0  0  0  0  0  0
  189.7330  176.1750  143.9600 C   0  0  0  0  0  3  0  0  0  0  0  0
  186.5270  179.0720  147.3900 C   0  0  0  0  0  3  0  0  0  0  0  0
  189.2820  177.8750  142.2830 C   0  0  0  0  0  0  0  0  0  0  0  0
  190.6440  177.9090  141.9670 C   0  0  0  0  0  3  0  0  0  0  0  0
  185.0040  177.4930  143.0280 C   0  0  0  0  0  2  0  0  0  0  0  0
  185.8490  178.3690  145.1730 C   0  0  0  0  0  0  0  0  0  0  0  0
  185.5800  179.0520  146.3630 C   0  0  0  0  0  3  0  0  0  0  0  0
  186.5300  177.6390  139.4490 O   0  0  0  0  0  0  0  0  0  0  0  0
  185.8610  178.6690  139.7380 C   0  0  0  0  0  0  0  0  0  0  0  0
  186.0230  179.3050  141.0060 N   0  0  0  0  0  2  0  0  0  0  0  0
  182.1670  178.0370  138.4790 C   0  0  1  0  0  3  0  0  0  0  0  0
  183.6390  179.7790  139.4610 C   0  0  0  0  0  2  0  0  0  0  0  0
  185.4130  177.9580  136.8040 O   0  0  0  0  0  0  0  0  0  0  0  0
  181.3110  176.9720  138.7540 O   0  0  0  0  0  1  0  0  0  0  0  0
  182.6510  178.6620  139.7800 C   0  0  0  0  0  2  0  0  0  0  0  0
  184.5540  178.2460  137.6770 C   0  0  0  0  0  0  0  0  0  0  0  0
  184.8890  179.2420  138.7540 C   0  0  2  0  0  3  0  0  0  0  0  0
  183.2940  177.5670  137.6790 N   0  0  0  0  0  2  0  0  0  0  0  0
  1 14  1  0  0  0  0
  1  9  1  0  0  0  0
  2  5  1  6  0  0  0
  2  3  1  0  0  0  0
  3 19  2  0  0  0  0
  3  7  1  0  0  0  0
  4 15  1  0  0  0  0
  4 11  1  0  0  0  0
  5 14  2  0  0  0  0
  6  1  2  0  0  0  0
  7  4  2  0  0  0  0
  8 23  1  6  0  0  0
  8 13  1  0  0  0  0
 10 19  1  0  0  0  0
 12  8  1  0  0  0  0
 12 16  1  0  0  0  0
 13 18  1  1  0  0  0
 13  2  1  0  0  0  0
 16  5  1  0  0  0  0
 17 16  2  0  0  0  0
 17  6  1  0  0  0  0
 18 10  1  0  0  0  0
 19 20  1  0  0  0  0
 20 15  2  0  0  0  0
 21 22  2  0  0  0  0
 22 23  1  0  0  0  0
 24 27  1  1  0  0  0
 24 28  1  0  0  0  0
 25 28  1  0  0  0  0
 26 29  2  0  0  0  0
 29 31  1  0  0  0  0
 29 30  1  0  0  0  0
 30 25  1  0  0  0  0
 30 22  1  1  0  0  0
 31 24  1  0  0  0  0
M  END
>  <MODEL>
3

>  <REMARK>
 VINA RESULT:      -7.4      4.845      8.459
  Name = 
  2 active torsions:
  status: ('A' for Active; 'I' for Inactive)
    1  A    between atoms: C_5  and  C_30
    2  A    between atoms: C_10  and  N_16
                            x       y       z     vdW  Elec       q    Type
                         _______ _______ _______ _____ _____    ______ ____

>  <TORSDO>
F 2

$$$$
=
 OpenBabel11122411173D

 31 35  0  0  1  0  0  0  0  0999 V2000
  191.3560  176.7450  145.4050 C   0  0  0  0  0  0  0  0  0  0  0  0
  187.8250  176.9670  144.0090 C   0  0  2  0  0  3  0  0  0  0  0  0
  187.0060  177.7530  145.0240 C   0  0  0  0  0  0  0  0  0  0  0  0
  186.6890  178.6420  147.2650 C   0  0  0  0  0  0  0  0  0  0  0  0
  189.3130  177.1790  144.1630 C   0  0  0  0  0  0  0  0  0  0  0  0
  192.0550  177.6130  144.5660 C   0  0  0  0  0  3  0  0  0  0  0  0
  187.4640  177.9470  146.3360 C   0  0  0  0  0  3  0  0  0  0  0  0
  187.8660  178.6300  142.1160 C   0  0  2  0  0  3  0  0  0  0  0  0
  192.0300  176.0850  146.4690 N   0  0  0  0  0  1  0  0  0  0  0  0
  185.2190  178.0190  143.3850 O   0  0  0  0  0  0  0  0  0  0  0  0
  187.1950  178.8520  148.6470 C   0  0  0  0  0  1  0  0  0  0  0  0
  189.3950  178.6630  142.0920 C   0  0  0  0  0  2  0  0  0  0  0  0
  187.3740  177.2470  142.5620 C   0  0  2  0  0  3  0  0  0  0  0  0
  189.9900  176.5280  145.2030 C   0  0  0  0  0  3  0  0  0  0  0  0
  185.4370  179.1400  146.8980 C   0  0  0  0  0  3  0  0  0  0  0  0
  190.0260  178.0540  143.3120 C   0  0  0  0  0  0  0  0  0  0  0  0
  191.3940  178.2570  143.5170 C   0  0  0  0  0  3  0  0  0  0  0  0
  185.8520  177.1280  142.4680 C   0  0  0  0  0  2  0  0  0  0  0  0
  185.7250  178.2290  144.6720 C   0  0  0  0  0  0  0  0  0  0  0  0
  184.9560  178.9330  145.6030 C   0  0  0  0  0  3  0  0  0  0  0  0
  188.6470  177.3340  139.6960 O   0  0  0  0  0  0  0  0  0  0  0  0
  187.7850  178.2520  139.6160 C   0  0  0  0  0  0  0  0  0  0  0  0
  187.3580  178.9480  140.7870 N   0  0  0  0  0  2  0  0  0  0  0  0
  187.4330  176.7520  135.9760 C   0  0  1  0  0  3  0  0  0  0  0  0
  186.1010  177.6440  137.8720 C   0  0  0  0  0  2  0  0  0  0  0  0
  189.0560  179.7530  137.2820 O   0  0  0  0  0  0  0  0  0  0  0  0
  188.0290  175.6170  135.4280 O   0  0  0  0  0  1  0  0  0  0  0  0
  186.6880  176.3800  137.2500 C   0  0  0  0  0  2  0  0  0  0  0  0
  188.2710  178.7700  137.2430 C   0  0  0  0  0  0  0  0  0  0  0  0
  187.1990  178.6280  138.2910 C   0  0  2  0  0  3  0  0  0  0  0  0
  188.4540  177.7590  136.2470 N   0  0  0  0  0  2  0  0  0  0  0  0
  1  9  1  0  0  0  0
  2  5  1  6  0  0  0
  2  3  1  0  0  0  0
  3  7  1  0  0  0  0
  4 11  1  0  0  0  0
  5 14  2  0  0  0  0
  6  1  2  0  0  0  0
  7  4  2  0  0  0  0
  8 23  1  6  0  0  0
  8 13  1  0  0  0  0
 10 19  1  0  0  0  0
 12  8  1  0  0  0  0
 12 16  1  0  0  0  0
 13 18  1  1  0  0  0
 13  2  1  0  0  0  0
 14  1  1  0  0  0  0
 15  4  1  0  0  0  0
 16 17  2  0  0  0  0
 16  5  1  0  0  0  0
 17  6  1  0  0  0  0
 18 10  1  0  0  0  0
 19  3  2  0  0  0  0
 19 20  1  0  0  0  0
 20 15  2  0  0  0  0
 22 21  2  0  0  0  0
 22 23  1  0  0  0  0
 24 27  1  1  0  0  0
 24 31  1  0  0  0  0
 24 28  1  0  0  0  0
 25 30  1  0  0  0  0
 28 25  1  0  0  0  0
 29 26  2  0  0  0  0
 29 30  1  0  0  0  0
 30 22  1  1  0  0  0
 31 29  1  0  0  0  0
M  END
>  <MODEL>
4

>  <REMARK>
 VINA RESULT:      -7.4      3.636      8.451
  Name = 
  2 active torsions:
  status: ('A' for Active; 'I' for Inactive)
    1  A    between atoms: C_5  and  C_30
    2  A    between atoms: C_10  and  N_16
                            x       y       z     vdW  Elec       q    Type
                         _______ _______ _______ _____ _____    ______ ____

>  <TORSDO>
F 2

$$$$
=
 OpenBabel11122411173D

 31 35  0  0  1  0  0  0  0  0999 V2000
  188.9620  178.0850  142.7540 C   0  0  0  0  0  0  0  0  0  0  0  0
  186.3050  179.0030  140.1920 C   0  0  2  0  0  3  0  0  0  0  0  0
  186.4920  178.0560  139.0140 C   0  0  0  0  0  0  0  0  0  0  0  0
  187.8470  176.4790  137.7520 C   0  0  0  0  0  0  0  0  0  0  0  0
  186.9450  178.4960  141.4640 C   0  0  0  0  0  0  0  0  0  0  0  0
  188.2030  177.4750  143.7540 C   0  0  0  0  0  3  0  0  0  0  0  0
  187.6770  177.3200  138.8530 C   0  0  0  0  0  3  0  0  0  0  0  0
  184.0940  178.1660  141.0650 C   0  0  2  0  0  3  0  0  0  0  0  0
  190.3740  178.1840  142.8910 N   0  0  0  0  0  1  0  0  0  0  0  0
  184.3200  178.7200  138.1270 O   0  0  0  0  0  0  0  0  0  0  0  0
  189.1010  175.6960  137.6030 C   0  0  0  0  0  1  0  0  0  0  0  0
  184.6770  177.8790  142.4500 C   0  0  0  0  0  2  0  0  0  0  0  0
  184.8220  179.3540  140.4210 C   0  0  2  0  0  3  0  0  0  0  0  0
  188.3350  178.5940  141.6140 C   0  0  0  0  0  3  0  0  0  0  0  0
  186.8400  176.3750  136.7890 C   0  0  0  0  0  3  0  0  0  0  0  0
  186.1790  177.8820  142.4810 C   0  0  0  0  0  0  0  0  0  0  0  0
  186.8160  177.3840  143.6220 C   0  0  0  0  0  3  0  0  0  0  0  0
  184.1810  179.7610  139.0940 C   0  0  0  0  0  2  0  0  0  0  0  0
  185.4950  177.9710  138.0190 C   0  0  0  0  0  0  0  0  0  0  0  0
  185.6660  177.1200  136.9230 C   0  0  0  0  0  3  0  0  0  0  0  0
  182.0180  176.8630  139.6040 O   0  0  0  0  0  0  0  0  0  0  0  0
  181.6800  177.7510  140.4360 C   0  0  0  0  0  0  0  0  0  0  0  0
  182.6700  178.4480  141.1920 N   0  0  0  0  0  2  0  0  0  0  0  0
  179.2870  179.0040  143.3220 C   0  0  1  0  0  3  0  0  0  0  0  0
  180.0620  179.5600  141.0300 C   0  0  0  0  0  2  0  0  0  0  0  0
  179.3660  175.9600  141.3030 O   0  0  0  0  0  0  0  0  0  0  0  0
  179.5450  179.1440  144.6840 O   0  0  0  0  0  1  0  0  0  0  0  0
  180.3190  179.7810  142.5170 C   0  0  0  0  0  2  0  0  0  0  0  0
  179.5930  177.1540  141.6290 C   0  0  0  0  0  0  0  0  0  0  0  0
  180.2360  178.0880  140.6390 C   0  0  2  0  0  3  0  0  0  0  0  0
  179.3060  177.5900  142.9620 N   0  0  0  0  0  2  0  0  0  0  0  0
  1  9  1  0  0  0  0
  1  6  1  0  0  0  0
  2  3  1  6  0  0  0
  2 13  1  0  0  0  0
  2  5  1  0  0  0  0
  4  7  2  0  0  0  0
  5 14  1  0  0  0  0
  5 16  2  0  0  0  0
  7  3  1  0  0  0  0
  8 23  1  1  0  0  0
  8 12  1  0  0  0  0
 10 18  1  0  0  0  0
 11  4  1  0  0  0  0
 12 16  1  0  0  0  0
 13 18  1  6  0  0  0
 13  8  1  0  0  0  0
 14  1  2  0  0  0  0
 15 20  2  0  0  0  0
 15  4  1  0  0  0  0
 16 17  1  0  0  0  0
 17  6  2  0  0  0  0
 19 10  1  0  0  0  0
 19  3  2  0  0  0  0
 20 19  1  0  0  0  0
 21 22  2  0  0  0  0
 22 23  1  0  0  0  0
 24 27  1  1  0  0  0
 25 28  1  0  0  0  0
 26 29  2  0  0  0  0
 28 24  1  0  0  0  0
 29 31  1  0  0  0  0
 30 22  1  1  0  0  0
 30 25  1  0  0  0  0
 30 29  1  0  0  0  0
 31 24  1  0  0  0  0
M  END
>  <MODEL>
5

>  <REMARK>
 VINA RESULT:      -6.9      5.422      7.672
  Name = 
  2 active torsions:
  status: ('A' for Active; 'I' for Inactive)
    1  A    between atoms: C_5  and  C_30
    2  A    between atoms: C_10  and  N_16
                            x       y       z     vdW  Elec       q    Type
                         _______ _______ _______ _____ _____    ______ ____

>  <TORSDO>
F 2

$$$$
=
 OpenBabel11122411173D

 31 35  0  0  1  0  0  0  0  0999 V2000
  179.7320  178.3920  142.2170 C   0  0  0  0  0  0  0  0  0  0  0  0
  183.0590  179.0840  140.5110 C   0  0  2  0  0  3  0  0  0  0  0  0
  184.1440  178.7850  141.5360 C   0  0  0  0  0  0  0  0  0  0  0  0
  184.8520  178.4330  143.8360 C   0  0  0  0  0  0  0  0  0  0  0  0
  181.7360  178.4350  140.8450 C   0  0  0  0  0  0  0  0  0  0  0  0
  179.3200  177.2170  141.5860 C   0  0  0  0  0  3  0  0  0  0  0  0
  183.8430  178.6770  142.9030 C   0  0  0  0  0  3  0  0  0  0  0  0
  183.4790  177.2040  138.8850 C   0  0  2  0  0  3  0  0  0  0  0  0
  178.9310  178.9680  143.2410 N   0  0  0  0  0  1  0  0  0  0  0  0
  185.8310  178.8360  139.7760 O   0  0  0  0  0  0  0  0  0  0  0  0
  184.5150  178.3070  145.2780 C   0  0  0  0  0  1  0  0  0  0  0  0
  182.0500  176.6790  139.0250 C   0  0  0  0  0  2  0  0  0  0  0  0
  183.5040  178.7270  139.0790 C   0  0  2  0  0  3  0  0  0  0  0  0
  180.9350  178.9990  141.8470 C   0  0  0  0  0  3  0  0  0  0  0  0
  186.1780  178.3100  143.4160 C   0  0  0  0  0  3  0  0  0  0  0  0
  181.3140  177.2480  140.2050 C   0  0  0  0  0  0  0  0  0  0  0  0
  180.1040  176.6530  140.5760 C   0  0  0  0  0  3  0  0  0  0  0  0
  184.8920  179.3100  138.8130 C   0  0  0  0  0  2  0  0  0  0  0  0
  185.4910  178.6940  141.1250 C   0  0  0  0  0  0  0  0  0  0  0  0
  186.4970  178.4400  142.0620 C   0  0  0  0  0  3  0  0  0  0  0  0
  184.0900  174.5570  138.0140 O   0  0  0  0  0  0  0  0  0  0  0  0
  184.2720  175.5000  137.1940 C   0  0  0  0  0  0  0  0  0  0  0  0
  183.9960  176.8490  137.5700 N   0  0  0  0  0  2  0  0  0  0  0  0
  187.4600  176.2580  134.9820 C   0  0  1  0  0  3  0  0  0  0  0  0
  186.0760  174.3940  135.8640 C   0  0  0  0  0  2  0  0  0  0  0  0
  183.9240  177.1050  134.6210 O   0  0  0  0  0  0  0  0  0  0  0  0
  188.5310  177.1110  135.2410 O   0  0  0  0  0  1  0  0  0  0  0  0
  187.2940  175.2740  136.1320 C   0  0  0  0  0  2  0  0  0  0  0  0
  184.9440  176.4880  135.0240 C   0  0  0  0  0  0  0  0  0  0  0  0
  184.7840  175.2180  135.8160 C   0  0  2  0  0  3  0  0  0  0  0  0
  186.2440  177.0400  134.7890 N   0  0  0  0  0  2  0  0  0  0  0  0
  1  9  1  0  0  0  0
  2  5  1  1  0  0  0
  2  3  1  0  0  0  0
  3  7  1  0  0  0  0
  4 11  1  0  0  0  0
  5 14  2  0  0  0  0
  6  1  2  0  0  0  0
  7  4  2  0  0  0  0
  8 23  1  6  0  0  0
  8 12  1  0  0  0  0
  8 13  1  0  0  0  0
 10 19  1  0  0  0  0
 12 16  1  0  0  0  0
 13 18  1  1  0  0  0
 13  2  1  0  0  0  0
 14  1  1  0  0  0  0
 15  4  1  0  0  0  0
 16 17  2  0  0  0  0
 16  5  1  0  0  0  0
 17  6  1  0  0  0  0
 18 10  1  0  0  0  0
 19  3  2  0  0  0  0
 19 20  1  0  0  0  0
 20 15  2  0  0  0  0
 22 23  1  0  0  0  0
 22 21  2  0  0  0  0
 24 27  1  1  0  0  0
 24 28  1  0  0  0  0
 25 28  1  0  0  0  0
 26 29  2  0  0  0  0
 29 30  1  0  0  0  0
 30 25  1  0  0  0  0
 30 22  1  1  0  0  0
 31 24  1  0  0  0  0
 31 29  1  0  0  0  0
M  END
>  <MODEL>
6

>  <REMARK>
 VINA RESULT:      -6.9      5.455     10.200
  Name = 
  2 active torsions:
  status: ('A' for Active; 'I' for Inactive)
    1  A    between atoms: C_5  and  C_30
    2  A    between atoms: C_10  and  N_16
                            x       y       z     vdW  Elec       q    Type
                         _______ _______ _______ _____ _____    ______ ____

>  <TORSDO>
F 2

$$$$
=
 OpenBabel11122411173D

 31 35  0  0  1  0  0  0  0  0999 V2000
  179.7240  178.3310  142.1890 C   0  0  0  0  0  0  0  0  0  0  0  0
  183.0140  179.0420  140.4180 C   0  0  2  0  0  3  0  0  0  0  0  0
  184.1190  178.7760  141.4310 C   0  0  0  0  0  0  0  0  0  0  0  0
  184.8680  178.4740  143.7250 C   0  0  0  0  0  0  0  0  0  0  0  0
  181.7060  178.3800  140.7840 C   0  0  0  0  0  0  0  0  0  0  0  0
  179.3200  177.1400  141.5840 C   0  0  0  0  0  3  0  0  0  0  0  0
  183.8410  178.6870  142.8040 C   0  0  0  0  0  3  0  0  0  0  0  0
  183.4350  177.1410  138.8180 C   0  0  2  0  0  3  0  0  0  0  0  0
  178.9310  178.9140  143.2160 N   0  0  0  0  0  1  0  0  0  0  0  0
  185.7770  178.8210  139.6440 O   0  0  0  0  0  0  0  0  0  0  0  0
  184.5560  178.3680  145.1740 C   0  0  0  0  0  1  0  0  0  0  0  0
  182.0160  176.5970  138.9890 C   0  0  0  0  0  2  0  0  0  0  0  0
  183.4410  178.6660  138.9850 C   0  0  2  0  0  3  0  0  0  0  0  0
  180.9120  178.9490  141.7890 C   0  0  0  0  0  3  0  0  0  0  0  0
  186.1890  178.3620  143.2850 C   0  0  0  0  0  3  0  0  0  0  0  0
  181.2910  177.1760  140.1710 C   0  0  0  0  0  0  0  0  0  0  0  0
  180.0960  176.5710  140.5720 C   0  0  0  0  0  3  0  0  0  0  0  0
  184.8160  179.2650  138.6870 C   0  0  0  0  0  2  0  0  0  0  0  0
  185.4600  178.6970  140.9990 C   0  0  0  0  0  0  0  0  0  0  0  0
  186.4840  178.4740  141.9250 C   0  0  0  0  0  3  0  0  0  0  0  0
  184.2090  174.5100  138.0280 O   0  0  0  0  0  0  0  0  0  0  0  0
  184.2980  175.4300  137.1670 C   0  0  0  0  0  0  0  0  0  0  0  0
  183.9360  176.7700  137.5010 N   0  0  0  0  0  2  0  0  0  0  0  0
  185.1010  172.2900  134.9040 C   0  0  1  0  0  3  0  0  0  0  0  0
  183.7320  174.3600  134.9810 C   0  0  0  0  0  2  0  0  0  0  0  0
  187.1500  175.0440  136.1530 O   0  0  0  0  0  0  0  0  0  0  0  0
  185.1590  170.9420  135.2540 O   0  0  0  0  0  1  0  0  0  0  0  0
  183.7520  172.8700  135.3080 C   0  0  0  0  0  2  0  0  0  0  0  0
  186.1120  174.4160  135.8200 C   0  0  0  0  0  0  0  0  0  0  0  0
  184.7870  175.1290  135.7850 C   0  0  2  0  0  3  0  0  0  0  0  0
  186.1910  173.0120  135.5500 N   0  0  0  0  0  2  0  0  0  0  0  0
  1  9  1  0  0  0  0
  2  5  1  1  0  0  0
  2  3  1  0  0  0  0
  3  7  1  0  0  0  0
  4 11  1  0  0  0  0
  5 14  2  0  0  0  0
  6  1  2  0  0  0  0
  7  4  2  0  0  0  0
  8 23  1  6  0  0  0
  8 13  1  0  0  0  0
  8 12  1  0  0  0  0
 10 19  1  0  0  0  0
 12 16  1  0  0  0  0
 13 18  1  1  0  0  0
 13  2  1  0  0  0  0
 14  1  1  0  0  0  0
 15  4  1  0  0  0  0
 16 17  2  0  0  0  0
 16  5  1  0  0  0  0
 17  6  1  0  0  0  0
 18 10  1  0  0  0  0
 19  3  2  0  0  0  0
 19 20  1  0  0  0  0
 20 15  2  0  0  0  0
 22 23  1  0  0  0  0
 22 21  2  0  0  0  0
 24 27  1  1  0  0  0
 24 28  1  0  0  0  0
 24 31  1  0  0  0  0
 25 28  1  0  0  0  0
 25 30  1  0  0  0  0
 29 26  2  0  0  0  0
 30 29  1  0  0  0  0
 30 22  1  1  0  0  0
 31 29  1  0  0  0  0
M  END
>  <MODEL>
7

>  <REMARK>
 VINA RESULT:      -6.8      5.619     10.455
  Name = 
  2 active torsions:
  status: ('A' for Active; 'I' for Inactive)
    1  A    between atoms: C_5  and  C_30
    2  A    between atoms: C_10  and  N_16
                            x       y       z     vdW  Elec       q    Type
                         _______ _______ _______ _____ _____    ______ ____

>  <TORSDO>
F 2

$$$$
=
 OpenBabel11122411173D

 31 35  0  0  1  0  0  0  0  0999 V2000
  186.9320  176.6360  136.6670 C   0  0  0  0  0  0  0  0  0  0  0  0
  190.4210  177.1880  138.0740 C   0  0  2  0  0  3  0  0  0  0  0  0
  190.2650  177.3230  139.5830 C   0  0  0  0  0  0  0  0  0  0  0  0
  188.8900  177.7320  141.5460 C   0  0  0  0  0  0  0  0  0  0  0  0
  189.2390  176.5140  137.4170 C   0  0  0  0  0  0  0  0  0  0  0  0
  186.9750  175.2900  136.3000 C   0  0  0  0  0  3  0  0  0  0  0  0
  189.0130  177.5790  140.1650 C   0  0  0  0  0  3  0  0  0  0  0  0
  191.6350  174.9820  137.9680 C   0  0  2  0  0  3  0  0  0  0  0  0
  185.7380  177.3860  136.4820 N   0  0  0  0  0  1  0  0  0  0  0  0
  192.6730  177.0610  139.8620 O   0  0  0  0  0  0  0  0  0  0  0  0
  187.5550  177.9870  142.1490 C   0  0  0  0  0  1  0  0  0  0  0  0
  190.5550  174.3570  137.0830 C   0  0  0  0  0  2  0  0  0  0  0  0
  191.7400  176.4870  137.6910 C   0  0  2  0  0  3  0  0  0  0  0  0
  188.0600  177.2460  137.2220 C   0  0  0  0  0  3  0  0  0  0  0  0
  190.0190  177.6460  142.3630 C   0  0  0  0  0  3  0  0  0  0  0  0
  189.2810  175.1520  137.0400 C   0  0  0  0  0  0  0  0  0  0  0  0
  188.1490  174.5550  136.4770 C   0  0  0  0  0  3  0  0  0  0  0  0
  192.9000  177.1260  138.4560 C   0  0  0  0  0  2  0  0  0  0  0  0
  191.4060  177.2740  140.4120 C   0  0  0  0  0  0  0  0  0  0  0  0
  191.2750  177.4180  141.7970 C   0  0  0  0  0  3  0  0  0  0  0  0
  193.0550  175.0590  135.4940 O   0  0  0  0  0  0  0  0  0  0  0  0
  193.5730  174.4120  136.4460 C   0  0  0  0  0  0  0  0  0  0  0  0
  192.9090  174.3250  137.7070 N   0  0  0  0  0  2  0  0  0  0  0  0
  195.4400  171.1670  137.7160 C   0  0  1  0  0  3  0  0  0  0  0  0
  194.7050  172.3310  135.6500 C   0  0  0  0  0  2  0  0  0  0  0  0
  196.1700  174.7340  138.0170 O   0  0  0  0  0  0  0  0  0  0  0  0
  195.0720  170.2730  138.7190 O   0  0  0  0  0  1  0  0  0  0  0  0
  194.3130  171.2980  136.7010 C   0  0  0  0  0  2  0  0  0  0  0  0
  195.6620  173.6780  137.5580 C   0  0  0  0  0  0  0  0  0  0  0  0
  194.8900  173.7230  136.2660 C   0  0  2  0  0  3  0  0  0  0  0  0
  195.7600  172.4620  138.3060 N   0  0  0  0  0  2  0  0  0  0  0  0
  1 14  1  0  0  0  0
  2  5  1  1  0  0  0
  2  3  1  0  0  0  0
  3  7  2  0  0  0  0
  3 19  1  0  0  0  0
  4 11  1  0  0  0  0
  4 15  2  0  0  0  0
  6 17  1  0  0  0  0
  6  1  2  0  0  0  0
  7  4  1  0  0  0  0
  8 23  1  6  0  0  0
  9  1  1  0  0  0  0
 10 19  1  0  0  0  0
 12  8  1  0  0  0  0
 13  8  1  0  0  0  0
 13  2  1  0  0  0  0
 13 18  1  1  0  0  0
 14  5  2  0  0  0  0
 16 12  1  0  0  0  0
 16  5  1  0  0  0  0
 17 16  2  0  0  0  0
 18 10  1  0  0  0  0
 19 20  2  0  0  0  0
 20 15  1  0  0  0  0
 21 22  2  0  0  0  0
 22 23  1  0  0  0  0
 24 31  1  0  0  0  0
 24 27  1  1  0  0  0
 25 30  1  0  0  0  0
 25 28  1  0  0  0  0
 28 24  1  0  0  0  0
 29 26  2  0  0  0  0
 29 31  1  0  0  0  0
 30 22  1  1  0  0  0
 30 29  1  0  0  0  0
M  END
>  <MODEL>
8

>  <REMARK>
 VINA RESULT:      -6.8      3.279      7.393
  Name = 
  2 active torsions:
  status: ('A' for Active; 'I' for Inactive)
    1  A    between atoms: C_5  and  C_30
    2  A    between atoms: C_10  and  N_16
                            x       y       z     vdW  Elec       q    Type
                         _______ _______ _______ _____ _____    ______ ____

>  <TORSDO>
F 2

$$$$
=
 OpenBabel11122411173D

 31 35  0  0  1  0  0  0  0  0999 V2000
  193.7880  174.9400  135.7120 C   0  0  0  0  0  0  0  0  0  0  0  0
  190.3080  176.3080  136.4110 C   0  0  2  0  0  3  0  0  0  0  0  0
  189.3610  175.1170  136.3910 C   0  0  0  0  0  0  0  0  0  0  0  0
  188.8550  172.8160  135.7840 C   0  0  0  0  0  0  0  0  0  0  0  0
  191.7520  175.9100  136.6160 C   0  0  0  0  0  0  0  0  0  0  0  0
  194.4010  175.0540  136.9610 C   0  0  0  0  0  3  0  0  0  0  0  0
  189.7450  173.8910  135.8230 C   0  0  0  0  0  3  0  0  0  0  0  0
  190.2060  176.8920  138.8600 C   0  0  2  0  0  3  0  0  0  0  0  0
  194.5020  174.3840  134.6150 N   0  0  0  0  0  1  0  0  0  0  0  0
  187.6150  176.4790  137.4100 O   0  0  0  0  0  0  0  0  0  0  0  0
  189.2820  171.5210  135.1930 C   0  0  0  0  0  1  0  0  0  0  0  0
  191.7180  176.7360  139.0270 C   0  0  0  0  0  2  0  0  0  0  0  0
  189.8770  177.3720  137.4400 C   0  0  2  0  0  3  0  0  0  0  0  0
  192.4680  175.3680  135.5400 C   0  0  0  0  0  3  0  0  0  0  0  0
  187.5640  172.9580  136.2970 C   0  0  0  0  0  3  0  0  0  0  0  0
  192.3780  176.0280  137.8780 C   0  0  0  0  0  0  0  0  0  0  0  0
  193.7010  175.6060  138.0360 C   0  0  0  0  0  3  0  0  0  0  0  0
  188.3860  177.6710  137.2730 C   0  0  0  0  0  2  0  0  0  0  0  0
  188.0430  175.2610  136.8750 C   0  0  0  0  0  0  0  0  0  0  0  0
  187.1590  174.1790  136.8410 C   0  0  0  0  0  3  0  0  0  0  0  0
  189.6990  176.3060  141.6060 O   0  0  0  0  0  0  0  0  0  0  0  0
  189.4850  177.4860  141.2110 C   0  0  0  0  0  0  0  0  0  0  0  0
  189.7090  177.8430  139.8470 N   0  0  0  0  0  2  0  0  0  0  0  0
  187.4750  177.7050  144.6080 C   0  0  1  0  0  3  0  0  0  0  0  0
  189.6260  178.3530  143.5500 C   0  0  0  0  0  2  0  0  0  0  0  0
  186.8300  178.9890  141.2490 O   0  0  0  0  0  0  0  0  0  0  0  0
  186.7930  176.7030  145.2960 O   0  0  0  0  0  1  0  0  0  0  0  0
  188.9150  177.2760  144.3630 C   0  0  0  0  0  2  0  0  0  0  0  0
  187.4870  178.5420  142.2240 C   0  0  0  0  0  0  0  0  0  0  0  0
  188.9910  178.5270  142.1660 C   0  0  2  0  0  3  0  0  0  0  0  0
  186.7960  177.9840  143.3470 N   0  0  0  0  0  2  0  0  0  0  0  0
  1  6  1  0  0  0  0
  2  3  1  1  0  0  0
  2  5  1  0  0  0  0
  2 13  1  0  0  0  0
  3 19  1  0  0  0  0
  4  7  1  0  0  0  0
  4 15  2  0  0  0  0
  5 16  2  0  0  0  0
  6 17  2  0  0  0  0
  7  3  2  0  0  0  0
  8 12  1  0  0  0  0
  8 23  1  1  0  0  0
  9  1  1  0  0  0  0
 11  4  1  0  0  0  0
 13 18  1  1  0  0  0
 13  8  1  0  0  0  0
 14  1  2  0  0  0  0
 14  5  1  0  0  0  0
 15 20  1  0  0  0  0
 16 17  1  0  0  0  0
 16 12  1  0  0  0  0
 18 10  1  0  0  0  0
 19 10  1  0  0  0  0
 20 19  2  0  0  0  0
 22 21  2  0  0  0  0
 23 22  1  0  0  0  0
 24 27  1  6  0  0  0
 25 28  1  0  0  0  0
 26 29  2  0  0  0  0
 28 24  1  0  0  0  0
 29 31  1  0  0  0  0
 30 22  1  6  0  0  0
 30 29  1  0  0  0  0
 30 25  1  0  0  0  0
 31 24  1  0  0  0  0
M  END
>  <MODEL>
9

>  <REMARK>
 VINA RESULT:      -6.7      1.316      1.566
  Name = 
  2 active torsions:
  status: ('A' for Active; 'I' for Inactive)
    1  A    between atoms: C_5  and  C_30
    2  A    between atoms: C_10  and  N_16
                            x       y       z     vdW  Elec       q    Type
                         _______ _______ _______ _____ _____    ______ ____

>  <TORSDO>
F 2

$$$$
