=
 OpenBabel11122412233D

 34 40  0  0  1  0  0  0  0  0999 V2000
  187.5050  178.4340  139.2100 C   0  0  1  0  0  3  0  0  0  0  0  0
  186.7100  178.2730  141.6480 C   0  0  0  0  0  2  0  0  0  0  0  0
  190.5190  174.1570  135.6530 C   0  0  1  0  0  3  0  0  0  0  0  0
  188.3890  177.7240  136.8590 C   0  0  0  0  0  0  0  0  0  0  0  0
  190.5840  176.3920  136.7640 C   0  0  2  0  0  3  0  0  0  0  0  0
  191.1280  174.3820  137.9780 O   0  0  0  0  0  1  0  0  0  0  0  0
  191.2850  173.0010  135.8230 O   0  0  0  0  0  1  0  0  0  0  0  0
  187.9280  175.0920  134.9890 S   0  0  0  0  0  0  0  0  0  0  0  0
  189.0200  178.1080  141.1510 C   0  0  2  0  0  3  0  0  0  0  0  0
  191.2030  177.2200  143.4060 C   0  0  0  0  0  2  0  0  0  0  0  0
  190.9340  177.0770  138.0160 N   0  0  0  0  0  2  0  0  0  0  0  0
  189.0510  176.4970  134.6740 C   0  0  0  0  0  2  0  0  0  0  0  0
  190.1950  177.5850  140.2980 C   0  0  2  0  0  3  0  0  0  0  0  0
  187.4860  178.1470  142.9620 C   0  0  0  0  0  2  0  0  0  0  0  0
  189.5010  177.1740  135.9800 C   0  0  1  0  0  3  0  0  0  0  0  0
  189.2140  173.7910  134.9540 C   0  0  0  0  0  2  0  0  0  0  0  0
  190.0290  178.1990  143.4570 C   0  0  1  0  0  3  0  0  0  0  0  0
  188.7320  178.1290  138.2840 C   0  0  2  0  0  3  0  0  0  0  0  0
  190.2930  174.8950  136.9790 C   0  0  2  0  0  3  0  0  0  0  0  0
  189.7630  177.1510  138.8880 C   0  0  1  0  0  3  0  0  0  0  0  0
  186.0870  178.6000  137.1750 C   0  0  0  0  0  2  0  0  0  0  0  0
  191.9110  177.1900  142.0550 C   0  0  0  0  0  2  0  0  0  0  0  0
  187.1740  177.9850  136.3460 C   0  0  0  0  0  3  0  0  0  0  0  0
  191.0510  176.5290  140.9870 C   0  0  0  0  0  2  0  0  0  0  0  0
  188.8870  177.6560  142.5890 C   0  0  2  0  0  3  0  0  0  0  0  0
  186.1640  178.0450  138.5880 C   0  0  0  0  0  2  0  0  0  0  0  0
  187.6680  177.7830  140.5800 C   0  0  2  0  0  3  0  0  0  0  0  0
  189.6090  178.3570  144.9120 C   0  0  0  0  0  2  0  0  0  0  0  0
  190.0510  177.1490  145.7220 C   0  0  0  0  0  2  0  0  0  0  0  0
  188.4310  178.3250  148.6150 C   0  0  0  0  0  2  0  0  0  0  0  0
  187.8530  177.5580  146.4320 C   0  0  0  0  0  2  0  0  0  0  0  0
  189.0980  176.8940  146.7890 N   0  0  0  0  0  0  0  0  0  0  0  0
  187.2510  178.0920  147.7070 C   0  0  0  0  0  2  0  0  0  0  0  0
  189.5910  177.5880  147.9730 C   0  0  0  0  0  2  0  0  0  0  0  0
  1 26  1  6  0  0  0
  1 27  1  0  0  0  0
  2 14  1  0  0  0  0
  3  7  1  1  0  0  0
  3 19  1  0  0  0  0
  4 18  1  0  0  0  0
  5 19  1  0  0  0  0
  5 11  1  1  0  0  0
  9 25  1  0  0  0  0
 10 17  1  0  0  0  0
 11 20  1  0  0  0  0
 12  8  1  0  0  0  0
 12 15  1  0  0  0  0
 13 24  1  0  0  0  0
 13  9  1  0  0  0  0
 15  5  1  0  0  0  0
 15  4  1  0  0  0  0
 16  8  1  0  0  0  0
 16  3  1  0  0  0  0
 17 28  1  0  0  0  0
 18 20  1  0  0  0  0
 18  1  1  0  0  0  0
 19  6  1  0  0  0  0
 20 13  1  0  0  0  0
 21 26  1  0  0  0  0
 22 10  1  0  0  0  0
 23  4  2  0  0  0  0
 23 21  1  0  0  0  0
 24 22  1  0  0  0  0
 25 14  1  0  0  0  0
 25 17  1  0  0  0  0
 27  9  1  0  0  0  0
 27  2  1  0  0  0  0
 28 29  1  0  0  0  0
 29 32  1  0  0  0  0
 31 32  1  0  0  0  0
 31 33  1  0  0  0  0
 32 34  1  0  0  0  0
 33 30  1  0  0  0  0
 34 30  1  0  0  0  0
M  END
>  <MODEL>
1

>  <REMARK>
 VINA RESULT:      -8.6      0.000      0.000
  Name = 
  3 active torsions:
  status: ('A' for Active; 'I' for Inactive)
    1  A    between atoms: C_17  and  C_28
    2  A    between atoms: C_28  and  C_29
    3  A    between atoms: C_29  and  N_32
                            x       y       z     vdW  Elec       q    Type
                         _______ _______ _______ _____ _____    ______ ____

>  <TORSDO>
F 3

$$$$
=
 OpenBabel11122412233D

 34 40  0  0  1  0  0  0  0  0999 V2000
  186.4770  178.5710  140.5890 C   0  0  1  0  0  3  0  0  0  0  0  0
  186.4390  178.1420  143.1220 C   0  0  0  0  0  2  0  0  0  0  0  0
  188.5410  174.8630  135.8960 C   0  0  1  0  0  3  0  0  0  0  0  0
  186.6700  178.1330  138.0230 C   0  0  0  0  0  0  0  0  0  0  0  0
  188.8080  176.9960  137.1670 C   0  0  2  0  0  3  0  0  0  0  0  0
  189.7900  174.9410  137.9590 O   0  0  0  0  0  1  0  0  0  0  0  0
  189.3820  173.7620  135.7190 O   0  0  0  0  0  1  0  0  0  0  0  0
  185.8220  175.6380  136.1010 S   0  0  0  0  0  0  0  0  0  0  0  0
  188.5080  178.2070  141.9710 C   0  0  2  0  0  3  0  0  0  0  0  0
  191.2990  177.3130  143.4020 C   0  0  0  0  0  2  0  0  0  0  0  0
  189.4730  177.6000  138.3300 N   0  0  0  0  0  2  0  0  0  0  0  0
  186.7280  177.1510  135.6260 C   0  0  0  0  0  2  0  0  0  0  0  0
  189.4080  177.8530  140.7680 C   0  0  2  0  0  3  0  0  0  0  0  0
  187.5710  177.9700  144.1390 C   0  0  0  0  0  2  0  0  0  0  0  0
  187.5040  177.7500  136.8110 C   0  0  1  0  0  3  0  0  0  0  0  0
  187.1090  174.4530  135.5650 C   0  0  0  0  0  2  0  0  0  0  0  0
  190.1410  178.1860  143.8880 C   0  0  1  0  0  3  0  0  0  0  0  0
  187.3930  178.4440  139.3240 C   0  0  2  0  0  3  0  0  0  0  0  0
  188.6730  175.4670  137.3000 C   0  0  2  0  0  3  0  0  0  0  0  0
  188.6060  177.5060  139.5040 C   0  0  1  0  0  3  0  0  0  0  0  0
  184.5180  178.7900  139.0740 C   0  0  0  0  0  2  0  0  0  0  0  0
  191.5810  177.4530  141.9100 C   0  0  0  0  0  2  0  0  0  0  0  0
  185.3460  178.3370  137.9090 C   0  0  0  0  0  3  0  0  0  0  0  0
  190.4830  176.8170  141.0700 C   0  0  0  0  0  2  0  0  0  0  0  0
  188.8260  177.6270  143.3320 C   0  0  2  0  0  3  0  0  0  0  0  0
  185.0340  178.1270  140.3400 C   0  0  0  0  0  2  0  0  0  0  0  0
  187.0670  177.8220  141.7800 C   0  0  2  0  0  3  0  0  0  0  0  0
  190.1570  178.1870  145.4110 C   0  0  0  0  0  2  0  0  0  0  0  0
  190.4360  176.7880  145.9350 C   0  0  0  0  0  2  0  0  0  0  0  0
  189.0750  178.3440  148.7830 C   0  0  0  0  0  2  0  0  0  0  0  0
  188.4360  176.7160  147.1610 C   0  0  0  0  0  2  0  0  0  0  0  0
  189.8860  176.6440  147.2730 N   0  0  0  0  0  0  0  0  0  0  0  0
  187.9310  177.4500  148.3770 C   0  0  0  0  0  2  0  0  0  0  0  0
  190.2830  177.8280  148.0250 C   0  0  0  0  0  2  0  0  0  0  0  0
  1 26  1  6  0  0  0
  1 27  1  0  0  0  0
  2 14  1  0  0  0  0
  3  7  1  1  0  0  0
  3 19  1  0  0  0  0
  4 18  1  0  0  0  0
  5 19  1  0  0  0  0
  5 11  1  1  0  0  0
  9 25  1  0  0  0  0
 10 17  1  0  0  0  0
 11 20  1  0  0  0  0
 12  8  1  0  0  0  0
 12 15  1  0  0  0  0
 13 24  1  0  0  0  0
 13  9  1  0  0  0  0
 15  5  1  0  0  0  0
 15  4  1  0  0  0  0
 16  3  1  0  0  0  0
 16  8  1  0  0  0  0
 17 28  1  0  0  0  0
 18 20  1  0  0  0  0
 18  1  1  0  0  0  0
 19  6  1  0  0  0  0
 20 13  1  0  0  0  0
 21 26  1  0  0  0  0
 22 10  1  0  0  0  0
 23  4  2  0  0  0  0
 23 21  1  0  0  0  0
 24 22  1  0  0  0  0
 25 17  1  0  0  0  0
 25 14  1  0  0  0  0
 27  9  1  0  0  0  0
 27  2  1  0  0  0  0
 28 29  1  0  0  0  0
 29 32  1  0  0  0  0
 31 32  1  0  0  0  0
 31 33  1  0  0  0  0
 32 34  1  0  0  0  0
 33 30  1  0  0  0  0
 34 30  1  0  0  0  0
M  END
>  <MODEL>
2

>  <REMARK>
 VINA RESULT:      -8.5      1.250      1.591
  Name = 
  3 active torsions:
  status: ('A' for Active; 'I' for Inactive)
    1  A    between atoms: C_17  and  C_28
    2  A    between atoms: C_28  and  C_29
    3  A    between atoms: C_29  and  N_32
                            x       y       z     vdW  Elec       q    Type
                         _______ _______ _______ _____ _____    ______ ____

>  <TORSDO>
F 3

$$$$
=
 OpenBabel11122412233D

 34 40  0  0  1  0  0  0  0  0999 V2000
  185.7100  178.6290  141.9930 C   0  0  1  0  0  3  0  0  0  0  0  0
  186.8910  177.8490  144.1370 C   0  0  0  0  0  2  0  0  0  0  0  0
  185.3890  175.8510  136.3170 C   0  0  1  0  0  3  0  0  0  0  0  0
  184.6720  178.5780  139.5980 C   0  0  0  0  0  0  0  0  0  0  0  0
  186.1750  177.8010  137.6660 C   0  0  2  0  0  3  0  0  0  0  0  0
  187.4670  175.7690  137.5440 O   0  0  0  0  0  1  0  0  0  0  0  0
  186.0740  174.8790  135.5830 O   0  0  0  0  0  1  0  0  0  0  0  0
  183.0760  176.3020  137.8910 S   0  0  0  0  0  0  0  0  0  0  0  0
  188.1620  178.2890  142.1870 C   0  0  2  0  0  3  0  0  0  0  0  0
  191.3200  177.4980  141.9810 C   0  0  0  0  0  2  0  0  0  0  0  0
  187.2960  178.3010  138.4720 N   0  0  0  0  0  2  0  0  0  0  0  0
  183.6090  177.9530  137.3190 C   0  0  0  0  0  2  0  0  0  0  0  0
  188.3910  178.2030  140.6640 C   0  0  2  0  0  3  0  0  0  0  0  0
  188.3740  177.6540  144.4650 C   0  0  0  0  0  2  0  0  0  0  0  0
  184.8390  178.4580  138.0930 C   0  0  1  0  0  3  0  0  0  0  0  0
  183.9830  175.3440  136.6240 C   0  0  0  0  0  2  0  0  0  0  0  0
  190.5100  178.1700  143.0910 C   0  0  1  0  0  3  0  0  0  0  0  0
  185.9180  178.7770  140.4470 C   0  0  2  0  0  3  0  0  0  0  0  0
  186.1580  176.2630  137.5800 C   0  0  2  0  0  3  0  0  0  0  0  0
  187.0940  177.9540  139.8780 C   0  0  1  0  0  3  0  0  0  0  0  0
  183.2610  178.8550  141.6240 C   0  0  0  0  0  2  0  0  0  0  0  0
  190.8560  177.8750  140.5780 C   0  0  0  0  0  2  0  0  0  0  0  0
  183.4480  178.6570  140.1490 C   0  0  0  0  0  3  0  0  0  0  0  0
  189.5060  177.2520  140.2480 C   0  0  0  0  0  2  0  0  0  0  0  0
  189.1030  177.5600  143.1230 C   0  0  2  0  0  3  0  0  0  0  0  0
  184.3340  178.0780  142.3690 C   0  0  0  0  0  2  0  0  0  0  0  0
  186.8130  177.7870  142.6240 C   0  0  2  0  0  3  0  0  0  0  0  0
  191.2480  177.9590  144.4070 C   0  0  0  0  0  2  0  0  0  0  0  0
  191.6810  176.5080  144.5410 C   0  0  0  0  0  2  0  0  0  0  0  0
  192.6440  175.6390  147.8120 C   0  0  0  0  0  2  0  0  0  0  0  0
  191.1320  177.1360  146.7340 C   0  0  0  0  0  2  0  0  0  0  0  0
  191.2920  175.9950  145.8440 N   0  0  0  0  0  0  0  0  0  0  0  0
  191.6250  176.7130  148.0950 C   0  0  0  0  0  2  0  0  0  0  0  0
  192.4300  175.2460  146.3630 C   0  0  0  0  0  2  0  0  0  0  0  0
  1 26  1  6  0  0  0
  1 27  1  0  0  0  0
  2 14  1  0  0  0  0
  3  7  1  1  0  0  0
  3 16  1  0  0  0  0
  3 19  1  0  0  0  0
  4 23  2  0  0  0  0
  4 18  1  0  0  0  0
  5 15  1  0  0  0  0
  5 11  1  1  0  0  0
  6 19  1  0  0  0  0
  9 27  1  0  0  0  0
  9 25  1  0  0  0  0
 10 17  1  0  0  0  0
 11 20  1  0  0  0  0
 12  8  1  0  0  0  0
 12 15  1  0  0  0  0
 13  9  1  0  0  0  0
 15  4  1  0  0  0  0
 16  8  1  0  0  0  0
 17 25  1  0  0  0  0
 17 28  1  0  0  0  0
 18  1  1  0  0  0  0
 19  5  1  0  0  0  0
 20 18  1  0  0  0  0
 20 13  1  0  0  0  0
 21 26  1  0  0  0  0
 22 10  1  0  0  0  0
 23 21  1  0  0  0  0
 24 22  1  0  0  0  0
 24 13  1  0  0  0  0
 25 14  1  0  0  0  0
 27  2  1  0  0  0  0
 28 29  1  0  0  0  0
 29 32  1  0  0  0  0
 30 33  1  0  0  0  0
 31 33  1  0  0  0  0
 32 34  1  0  0  0  0
 32 31  1  0  0  0  0
 34 30  1  0  0  0  0
M  END
>  <MODEL>
3

>  <REMARK>
 VINA RESULT:      -8.5      2.811      3.882
  Name = 
  3 active torsions:
  status: ('A' for Active; 'I' for Inactive)
    1  A    between atoms: C_17  and  C_28
    2  A    between atoms: C_28  and  C_29
    3  A    between atoms: C_29  and  N_32
                            x       y       z     vdW  Elec       q    Type
                         _______ _______ _______ _____ _____    ______ ____

>  <TORSDO>
F 3

$$$$
=
 OpenBabel11122412233D

 34 40  0  0  1  0  0  0  0  0999 V2000
  185.3760  178.5650  142.4200 C   0  0  1  0  0  3  0  0  0  0  0  0
  186.8560  177.3060  144.1010 C   0  0  0  0  0  2  0  0  0  0  0  0
  183.7320  176.9890  136.5160 C   0  0  1  0  0  3  0  0  0  0  0  0
  183.9090  179.0500  140.3160 C   0  0  0  0  0  0  0  0  0  0  0  0
  184.9420  178.5830  138.0110 C   0  0  2  0  0  3  0  0  0  0  0  0
  185.9850  176.5430  137.2610 O   0  0  0  0  0  1  0  0  0  0  0  0
  184.1700  176.1440  135.4940 O   0  0  0  0  0  1  0  0  0  0  0  0
  181.8100  177.2560  138.5810 S   0  0  0  0  0  0  0  0  0  0  0  0
  187.7770  178.0480  142.0490 C   0  0  2  0  0  3  0  0  0  0  0  0
  190.7490  177.1290  141.0670 C   0  0  0  0  0  2  0  0  0  0  0  0
  186.2370  178.8470  138.6510 N   0  0  0  0  0  2  0  0  0  0  0  0
  182.3830  178.9530  138.2240 C   0  0  0  0  0  2  0  0  0  0  0  0
  187.7070  178.2520  140.5210 C   0  0  2  0  0  3  0  0  0  0  0  0
  188.3480  176.9630  144.0820 C   0  0  0  0  0  2  0  0  0  0  0  0
  183.7790  179.2210  138.8110 C   0  0  1  0  0  3  0  0  0  0  0  0
  182.3660  176.5160  137.0030 C   0  0  0  0  0  2  0  0  0  0  0  0
  190.2290  177.6140  142.4220 C   0  0  1  0  0  3  0  0  0  0  0  0
  185.3050  179.0030  140.9170 C   0  0  2  0  0  3  0  0  0  0  0  0
  184.7600  177.0970  137.6510 C   0  0  2  0  0  3  0  0  0  0  0  0
  186.2680  178.2410  139.9810 C   0  0  1  0  0  3  0  0  0  0  0  0
  182.9350  179.0030  142.6000 C   0  0  0  0  0  2  0  0  0  0  0  0
  190.0690  177.8030  139.8800 C   0  0  0  0  0  2  0  0  0  0  0  0
  182.8230  179.0910  141.1080 C   0  0  0  0  0  3  0  0  0  0  0  0
  188.6280  177.3380  139.7210 C   0  0  0  0  0  2  0  0  0  0  0  0
  188.8010  177.0940  142.6250 C   0  0  2  0  0  3  0  0  0  0  0  0
  184.0480  178.0320  142.9590 C   0  0  0  0  0  2  0  0  0  0  0  0
  186.4910  177.5500  142.6500 C   0  0  2  0  0  3  0  0  0  0  0  0
  191.1760  177.1030  143.5010 C   0  0  0  0  0  2  0  0  0  0  0  0
  191.6480  178.2530  144.3750 C   0  0  0  0  0  2  0  0  0  0  0  0
  189.8730  177.0770  147.1760 C   0  0  0  0  0  2  0  0  0  0  0  0
  191.6800  176.3780  145.7850 C   0  0  0  0  0  2  0  0  0  0  0  0
  191.6810  177.8340  145.7660 N   0  0  0  0  0  0  0  0  0  0  0  0
  190.8500  175.9480  146.9680 C   0  0  0  0  0  2  0  0  0  0  0  0
  190.4110  178.2360  146.3600 C   0  0  0  0  0  2  0  0  0  0  0  0
  1 27  1  0  0  0  0
  1 26  1  6  0  0  0
  3  7  1  6  0  0  0
  3 16  1  0  0  0  0
  3 19  1  0  0  0  0
  4 18  1  0  0  0  0
  4 23  2  0  0  0  0
  5 11  1  1  0  0  0
  5 15  1  0  0  0  0
  6 19  1  0  0  0  0
  9 25  1  0  0  0  0
  9 27  1  0  0  0  0
 10 17  1  0  0  0  0
 11 20  1  0  0  0  0
 12  8  1  0  0  0  0
 12 15  1  0  0  0  0
 13  9  1  0  0  0  0
 14  2  1  0  0  0  0
 15  4  1  0  0  0  0
 16  8  1  0  0  0  0
 17 25  1  0  0  0  0
 17 28  1  0  0  0  0
 18  1  1  0  0  0  0
 19  5  1  0  0  0  0
 20 13  1  0  0  0  0
 20 18  1  0  0  0  0
 21 26  1  0  0  0  0
 22 10  1  0  0  0  0
 23 21  1  0  0  0  0
 24 22  1  0  0  0  0
 24 13  1  0  0  0  0
 25 14  1  0  0  0  0
 27  2  1  0  0  0  0
 28 29  1  0  0  0  0
 29 32  1  0  0  0  0
 31 33  1  0  0  0  0
 32 31  1  0  0  0  0
 32 34  1  0  0  0  0
 33 30  1  0  0  0  0
 34 30  1  0  0  0  0
M  END
>  <MODEL>
4

>  <REMARK>
 VINA RESULT:      -8.2      3.250      4.760
  Name = 
  3 active torsions:
  status: ('A' for Active; 'I' for Inactive)
    1  A    between atoms: C_17  and  C_28
    2  A    between atoms: C_28  and  C_29
    3  A    between atoms: C_29  and  N_32
                            x       y       z     vdW  Elec       q    Type
                         _______ _______ _______ _____ _____    ______ ____

>  <TORSDO>
F 3

$$$$
=
 OpenBabel11122412233D

 34 40  0  0  1  0  0  0  0  0999 V2000
  184.3640  178.8520  141.9560 C   0  0  1  0  0  3  0  0  0  0  0  0
  185.7390  178.0910  143.9890 C   0  0  0  0  0  2  0  0  0  0  0  0
  183.6600  176.1050  136.3000 C   0  0  1  0  0  3  0  0  0  0  0  0
  183.1350  178.7870  139.6540 C   0  0  0  0  0  0  0  0  0  0  0  0
  184.4970  178.0680  137.5980 C   0  0  2  0  0  3  0  0  0  0  0  0
  185.8320  176.0760  137.3510 O   0  0  0  0  0  1  0  0  0  0  0  0
  184.3090  175.1600  135.5030 O   0  0  0  0  0  1  0  0  0  0  0  0
  181.4720  176.4770  138.0620 S   0  0  0  0  0  0  0  0  0  0  0  0
  186.8330  178.5830  141.9460 C   0  0  2  0  0  3  0  0  0  0  0  0
  189.9850  177.8870  141.4750 C   0  0  0  0  0  2  0  0  0  0  0  0
  185.6650  178.5960  138.3140 N   0  0  0  0  0  2  0  0  0  0  0  0
  181.9080  178.1470  137.4640 C   0  0  0  0  0  2  0  0  0  0  0  0
  186.9380  178.5140  140.4080 C   0  0  2  0  0  3  0  0  0  0  0  0
  187.2490  177.9380  144.1930 C   0  0  0  0  0  2  0  0  0  0  0  0
  183.1820  178.6820  138.1380 C   0  0  1  0  0  3  0  0  0  0  0  0
  182.2990  175.5550  136.7150 C   0  0  0  0  0  2  0  0  0  0  0  0
  189.2490  178.5270  142.6540 C   0  0  1  0  0  3  0  0  0  0  0  0
  184.4400  179.0170  140.4000 C   0  0  2  0  0  3  0  0  0  0  0  0
  184.5170  176.5310  137.4990 C   0  0  2  0  0  3  0  0  0  0  0  0
  185.5890  178.2330  139.7290 C   0  0  1  0  0  3  0  0  0  0  0  0
  181.8880  179.0070  141.7900 C   0  0  0  0  0  2  0  0  0  0  0  0
  189.3960  178.2600  140.1180 C   0  0  0  0  0  2  0  0  0  0  0  0
  181.9590  178.8260  140.3040 C   0  0  0  0  0  3  0  0  0  0  0  0
  188.0430  177.5990  139.8940 C   0  0  0  0  0  2  0  0  0  0  0  0
  187.8680  177.8760  142.7940 C   0  0  2  0  0  3  0  0  0  0  0  0
  183.0400  178.2570  142.4380 C   0  0  0  0  0  2  0  0  0  0  0  0
  185.5390  178.0380  142.4870 C   0  0  2  0  0  3  0  0  0  0  0  0
  190.0980  178.3280  143.9030 C   0  0  0  0  0  2  0  0  0  0  0  0
  190.8820  177.0290  143.8060 C   0  0  0  0  0  2  0  0  0  0  0  0
  192.0580  176.0020  146.9600 C   0  0  0  0  0  2  0  0  0  0  0  0
  190.1650  177.1240  146.0380 C   0  0  0  0  0  2  0  0  0  0  0  0
  190.6640  176.2310  145.0020 N   0  0  0  0  0  0  0  0  0  0  0  0
  190.7600  176.6650  147.3460 C   0  0  0  0  0  2  0  0  0  0  0  0
  191.9750  175.7890  145.4610 C   0  0  0  0  0  2  0  0  0  0  0  0
  1 26  1  6  0  0  0
  1 27  1  0  0  0  0
  2 14  1  0  0  0  0
  3  7  1  1  0  0  0
  3 16  1  0  0  0  0
  3 19  1  0  0  0  0
  4 23  2  0  0  0  0
  4 18  1  0  0  0  0
  5 15  1  0  0  0  0
  5 11  1  1  0  0  0
  6 19  1  0  0  0  0
  9 27  1  0  0  0  0
  9 25  1  0  0  0  0
 10 17  1  0  0  0  0
 11 20  1  0  0  0  0
 12  8  1  0  0  0  0
 12 15  1  0  0  0  0
 13  9  1  0  0  0  0
 15  4  1  0  0  0  0
 16  8  1  0  0  0  0
 17 25  1  0  0  0  0
 17 28  1  0  0  0  0
 18  1  1  0  0  0  0
 19  5  1  0  0  0  0
 20 18  1  0  0  0  0
 20 13  1  0  0  0  0
 21 26  1  0  0  0  0
 22 10  1  0  0  0  0
 23 21  1  0  0  0  0
 24 22  1  0  0  0  0
 24 13  1  0  0  0  0
 25 14  1  0  0  0  0
 27  2  1  0  0  0  0
 29 28  1  0  0  0  0
 29 32  1  0  0  0  0
 30 33  1  0  0  0  0
 31 33  1  0  0  0  0
 32 34  1  0  0  0  0
 32 31  1  0  0  0  0
 34 30  1  0  0  0  0
M  END
>  <MODEL>
5

>  <REMARK>
 VINA RESULT:      -8.0      3.393      4.837
  Name = 
  3 active torsions:
  status: ('A' for Active; 'I' for Inactive)
    1  A    between atoms: C_17  and  C_28
    2  A    between atoms: C_28  and  C_29
    3  A    between atoms: C_29  and  N_32
                            x       y       z     vdW  Elec       q    Type
                         _______ _______ _______ _____ _____    ______ ____

>  <TORSDO>
F 3

$$$$
=
 OpenBabel11122412233D

 34 40  0  0  1  0  0  0  0  0999 V2000
  183.9050  178.9000  143.0450 C   0  0  1  0  0  3  0  0  0  0  0  0
  185.7450  177.9710  144.5790 C   0  0  0  0  0  2  0  0  0  0  0  0
  181.7290  176.6700  137.5380 C   0  0  1  0  0  3  0  0  0  0  0  0
  182.1250  179.0330  141.1410 C   0  0  0  0  0  0  0  0  0  0  0  0
  182.9010  178.5150  138.7480 C   0  0  2  0  0  3  0  0  0  0  0  0
  184.0980  176.5650  137.9880 O   0  0  0  0  0  1  0  0  0  0  0  0
  182.1370  175.8060  136.5190 O   0  0  0  0  0  1  0  0  0  0  0  0
  180.0730  176.8620  139.8300 S   0  0  0  0  0  0  0  0  0  0  0  0
  186.2840  178.6550  142.3760 C   0  0  2  0  0  3  0  0  0  0  0  0
  189.1980  178.0320  141.0490 C   0  0  0  0  0  2  0  0  0  0  0  0
  184.2220  178.9860  139.1830 N   0  0  0  0  0  2  0  0  0  0  0  0
  180.3650  178.5820  139.2920 C   0  0  0  0  0  2  0  0  0  0  0  0
  185.9890  178.7260  140.8630 C   0  0  2  0  0  3  0  0  0  0  0  0
  187.2540  177.8130  144.3730 C   0  0  0  0  0  2  0  0  0  0  0  0
  181.7780  179.0660  139.6610 C   0  0  1  0  0  3  0  0  0  0  0  0
  180.5130  176.0730  138.2400 C   0  0  0  0  0  2  0  0  0  0  0  0
  188.8000  178.5560  142.4300 C   0  0  1  0  0  3  0  0  0  0  0  0
  183.5810  179.2060  141.5430 C   0  0  2  0  0  3  0  0  0  0  0  0
  182.8720  176.9930  138.5090 C   0  0  2  0  0  3  0  0  0  0  0  0
  184.5060  178.4960  140.5310 C   0  0  1  0  0  3  0  0  0  0  0  0
  181.4720  179.0480  143.5370 C   0  0  0  0  0  2  0  0  0  0  0  0
  188.2850  178.5210  139.9280 C   0  0  0  0  0  2  0  0  0  0  0  0
  181.1550  179.0030  142.0730 C   0  0  0  0  0  3  0  0  0  0  0  0
  186.9100  177.8710  140.0010 C   0  0  0  0  0  2  0  0  0  0  0  0
  187.4910  177.8830  142.8620 C   0  0  2  0  0  3  0  0  0  0  0  0
  182.7410  178.2530  143.7970 C   0  0  0  0  0  2  0  0  0  0  0  0
  185.1650  178.0520  143.1800 C   0  0  2  0  0  3  0  0  0  0  0  0
  189.9390  178.2530  143.3950 C   0  0  0  0  0  2  0  0  0  0  0  0
  190.7290  177.0470  142.9140 C   0  0  0  0  0  2  0  0  0  0  0  0
  191.6800  176.5050  146.2580 C   0  0  0  0  0  2  0  0  0  0  0  0
  191.7000  175.3290  144.1830 C   0  0  0  0  0  2  0  0  0  0  0  0
  191.7920  176.7460  143.8590 N   0  0  0  0  0  0  0  0  0  0  0  0
  192.0550  175.1820  145.6410 C   0  0  0  0  0  2  0  0  0  0  0  0
  191.4770  177.4540  145.0930 C   0  0  0  0  0  2  0  0  0  0  0  0
  1 27  1  0  0  0  0
  1 26  1  6  0  0  0
  3  7  1  6  0  0  0
  3 16  1  0  0  0  0
  3 19  1  0  0  0  0
  4 18  1  0  0  0  0
  4 23  2  0  0  0  0
  5 11  1  1  0  0  0
  5 15  1  0  0  0  0
  6 19  1  0  0  0  0
  9 25  1  0  0  0  0
  9 27  1  0  0  0  0
 10 17  1  0  0  0  0
 11 20  1  0  0  0  0
 12 15  1  0  0  0  0
 12  8  1  0  0  0  0
 13  9  1  0  0  0  0
 14  2  1  0  0  0  0
 15  4  1  0  0  0  0
 16  8  1  0  0  0  0
 17 25  1  0  0  0  0
 17 28  1  0  0  0  0
 18  1  1  0  0  0  0
 19  5  1  0  0  0  0
 20 13  1  0  0  0  0
 20 18  1  0  0  0  0
 21 26  1  0  0  0  0
 22 24  1  0  0  0  0
 22 10  1  0  0  0  0
 23 21  1  0  0  0  0
 24 13  1  0  0  0  0
 25 14  1  0  0  0  0
 27  2  1  0  0  0  0
 29 28  1  0  0  0  0
 29 32  1  0  0  0  0
 31 33  1  0  0  0  0
 32 31  1  0  0  0  0
 32 34  1  0  0  0  0
 33 30  1  0  0  0  0
 34 30  1  0  0  0  0
M  END
>  <MODEL>
6

>  <REMARK>
 VINA RESULT:      -7.9      4.200      6.244
  Name = 
  3 active torsions:
  status: ('A' for Active; 'I' for Inactive)
    1  A    between atoms: C_17  and  C_28
    2  A    between atoms: C_28  and  C_29
    3  A    between atoms: C_29  and  N_32
                            x       y       z     vdW  Elec       q    Type
                         _______ _______ _______ _____ _____    ______ ____

>  <TORSDO>
F 3

$$$$
=
 OpenBabel11122412233D

 34 40  0  0  1  0  0  0  0  0999 V2000
  186.9800  178.4180  142.0110 C   0  0  1  0  0  3  0  0  0  0  0  0
  189.1340  177.0770  142.4150 C   0  0  0  0  0  2  0  0  0  0  0  0
  182.1170  177.1850  138.1550 C   0  0  1  0  0  3  0  0  0  0  0  0
  184.5650  179.0130  141.2180 C   0  0  0  0  0  0  0  0  0  0  0  0
  184.0190  178.6990  138.7280 C   0  0  2  0  0  3  0  0  0  0  0  0
  184.3600  176.7200  137.3940 O   0  0  0  0  0  1  0  0  0  0  0  0
  181.8410  176.4080  137.0280 O   0  0  0  0  0  1  0  0  0  0  0  0
  181.7990  177.3040  140.9690 S   0  0  0  0  0  0  0  0  0  0  0  0
  188.6790  177.9520  140.2610 C   0  0  2  0  0  3  0  0  0  0  0  0
  190.4670  177.1280  137.6600 C   0  0  0  0  0  2  0  0  0  0  0  0
  185.4480  178.9380  138.4890 N   0  0  0  0  0  2  0  0  0  0  0  0
  182.0950  179.0250  140.4370 C   0  0  0  0  0  2  0  0  0  0  0  0
  187.7240  178.2480  139.0860 C   0  0  2  0  0  3  0  0  0  0  0  0
  190.3150  176.7530  141.4960 C   0  0  0  0  0  2  0  0  0  0  0  0
  183.5740  179.2730  140.0960 C   0  0  1  0  0  3  0  0  0  0  0  0
  181.2930  176.6670  139.3300 C   0  0  0  0  0  2  0  0  0  0  0  0
  190.8640  177.5240  139.0830 C   0  0  1  0  0  3  0  0  0  0  0  0
  186.0440  178.9460  140.8710 C   0  0  2  0  0  3  0  0  0  0  0  0
  183.6190  177.2350  138.4640 C   0  0  2  0  0  3  0  0  0  0  0  0
  186.2450  178.2530  139.5060 C   0  0  1  0  0  3  0  0  0  0  0  0
  185.1330  178.8160  143.6280 C   0  0  0  0  0  2  0  0  0  0  0  0
  189.2330  177.8650  137.1460 C   0  0  0  0  0  2  0  0  0  0  0  0
  184.1610  178.9930  142.5000 C   0  0  0  0  0  3  0  0  0  0  0  0
  187.9670  177.3940  137.8480 C   0  0  0  0  0  2  0  0  0  0  0  0
  189.8200  176.9770  140.0640 C   0  0  2  0  0  3  0  0  0  0  0  0
  186.2160  177.8380  143.2020 C   0  0  0  0  0  2  0  0  0  0  0  0
  187.9870  177.4040  141.4790 C   0  0  2  0  0  3  0  0  0  0  0  0
  192.2510  176.9590  139.3600 C   0  0  0  0  0  2  0  0  0  0  0  0
  192.5940  175.8830  138.3430 C   0  0  0  0  0  2  0  0  0  0  0  0
  195.3790  174.5100  136.6870 C   0  0  0  0  0  2  0  0  0  0  0  0
  193.9090  176.3750  136.4640 C   0  0  0  0  0  2  0  0  0  0  0  0
  193.9620  176.0560  137.8830 N   0  0  0  0  0  0  0  0  0  0  0  0
  195.0900  175.7020  135.8110 C   0  0  0  0  0  2  0  0  0  0  0  0
  194.6070  174.7510  137.9700 C   0  0  0  0  0  2  0  0  0  0  0  0
  1 26  1  1  0  0  0
  3  7  1  6  0  0  0
  3 19  1  0  0  0  0
  3 16  1  0  0  0  0
  4 23  2  0  0  0  0
  5 11  1  1  0  0  0
  5 15  1  0  0  0  0
  6 19  1  0  0  0  0
  9 27  1  0  0  0  0
 10 17  1  0  0  0  0
 11 20  1  0  0  0  0
 12  8  1  0  0  0  0
 13 20  1  0  0  0  0
 13  9  1  0  0  0  0
 14  2  1  0  0  0  0
 15 12  1  0  0  0  0
 15  4  1  0  0  0  0
 16  8  1  0  0  0  0
 17 28  1  0  0  0  0
 17 25  1  0  0  0  0
 18  4  1  0  0  0  0
 18  1  1  0  0  0  0
 19  5  1  0  0  0  0
 20 18  1  0  0  0  0
 22 10  1  0  0  0  0
 22 24  1  0  0  0  0
 23 21  1  0  0  0  0
 24 13  1  0  0  0  0
 25  9  1  0  0  0  0
 25 14  1  0  0  0  0
 26 21  1  0  0  0  0
 27  1  1  0  0  0  0
 27  2  1  0  0  0  0
 29 28  1  0  0  0  0
 30 34  1  0  0  0  0
 31 32  1  0  0  0  0
 32 34  1  0  0  0  0
 32 29  1  0  0  0  0
 33 31  1  0  0  0  0
 33 30  1  0  0  0  0
M  END
>  <MODEL>
7

>  <REMARK>
 VINA RESULT:      -7.3      3.796      7.493
  Name = 
  3 active torsions:
  status: ('A' for Active; 'I' for Inactive)
    1  A    between atoms: C_17  and  C_28
    2  A    between atoms: C_28  and  C_29
    3  A    between atoms: C_29  and  N_32
                            x       y       z     vdW  Elec       q    Type
                         _______ _______ _______ _____ _____    ______ ____

>  <TORSDO>
F 3

$$$$
=
 OpenBabel11122412233D

 34 40  0  0  1  0  0  0  0  0999 V2000
  187.7820  178.4390  140.4000 C   0  0  1  0  0  3  0  0  0  0  0  0
  189.9940  177.4490  141.2550 C   0  0  0  0  0  2  0  0  0  0  0  0
  183.0520  175.6440  137.2620 C   0  0  1  0  0  3  0  0  0  0  0  0
  185.3550  178.5800  139.4510 C   0  0  0  0  0  0  0  0  0  0  0  0
  184.8660  177.3600  137.2440 C   0  0  2  0  0  3  0  0  0  0  0  0
  185.3280  175.0540  136.7140 O   0  0  0  0  0  1  0  0  0  0  0  0
  182.8340  174.4990  136.4920 O   0  0  0  0  0  1  0  0  0  0  0  0
  182.6810  176.7530  139.8430 S   0  0  0  0  0  0  0  0  0  0  0  0
  189.5320  177.4630  138.9320 C   0  0  2  0  0  3  0  0  0  0  0  0
  191.4010  175.8500  136.8000 C   0  0  0  0  0  2  0  0  0  0  0  0
  186.2860  177.5720  136.9310 N   0  0  0  0  0  2  0  0  0  0  0  0
  182.9000  178.1800  138.7240 C   0  0  0  0  0  2  0  0  0  0  0  0
  188.5820  177.2640  137.7320 C   0  0  2  0  0  3  0  0  0  0  0  0
  191.2040  176.8770  140.5120 C   0  0  0  0  0  2  0  0  0  0  0  0
  184.3710  178.3650  138.3130 C   0  0  1  0  0  3  0  0  0  0  0  0
  182.2350  175.5430  138.5460 C   0  0  0  0  0  2  0  0  0  0  0  0
  191.7540  176.7540  137.9830 C   0  0  1  0  0  3  0  0  0  0  0  0
  186.8410  178.4700  139.1480 C   0  0  2  0  0  3  0  0  0  0  0  0
  184.5440  175.8800  137.5280 C   0  0  2  0  0  3  0  0  0  0  0  0
  187.0990  177.3430  138.1250 C   0  0  1  0  0  3  0  0  0  0  0  0
  185.8920  179.2960  141.7680 C   0  0  0  0  0  2  0  0  0  0  0  0
  190.1420  176.2860  136.0580 C   0  0  0  0  0  2  0  0  0  0  0  0
  184.9310  179.0030  140.6550 C   0  0  0  0  0  3  0  0  0  0  0  0
  188.8880  176.0350  136.8850 C   0  0  0  0  0  2  0  0  0  0  0  0
  190.7230  176.5440  139.0980 C   0  0  2  0  0  3  0  0  0  0  0  0
  187.0280  178.2890  141.7220 C   0  0  0  0  0  2  0  0  0  0  0  0
  188.8480  177.3550  140.2670 C   0  0  2  0  0  3  0  0  0  0  0  0
  193.1640  176.4010  138.4410 C   0  0  0  0  0  2  0  0  0  0  0  0
  193.6920  175.2140  137.6520 C   0  0  0  0  0  2  0  0  0  0  0  0
  196.5570  173.1960  137.9680 C   0  0  0  0  0  2  0  0  0  0  0  0
  195.6800  174.8290  136.4670 C   0  0  0  0  0  2  0  0  0  0  0  0
  195.1380  175.1400  137.7820 N   0  0  0  0  0  0  0  0  0  0  0  0
  196.8580  173.9120  136.6760 C   0  0  0  0  0  2  0  0  0  0  0  0
  195.4310  173.9790  138.6140 C   0  0  0  0  0  2  0  0  0  0  0  0
  1 26  1  1  0  0  0
  3  7  1  1  0  0  0
  3 19  1  0  0  0  0
  3 16  1  0  0  0  0
  4 23  2  0  0  0  0
  5 11  1  1  0  0  0
  5 19  1  0  0  0  0
  5 15  1  0  0  0  0
  6 19  1  0  0  0  0
  9 25  1  0  0  0  0
  9 27  1  0  0  0  0
 10 17  1  0  0  0  0
 11 20  1  0  0  0  0
 12  8  1  0  0  0  0
 13 20  1  0  0  0  0
 13  9  1  0  0  0  0
 14  2  1  0  0  0  0
 15 12  1  0  0  0  0
 15  4  1  0  0  0  0
 16  8  1  0  0  0  0
 17 28  1  0  0  0  0
 17 25  1  0  0  0  0
 18  4  1  0  0  0  0
 18  1  1  0  0  0  0
 20 18  1  0  0  0  0
 22 10  1  0  0  0  0
 22 24  1  0  0  0  0
 23 21  1  0  0  0  0
 24 13  1  0  0  0  0
 25 14  1  0  0  0  0
 26 21  1  0  0  0  0
 27  1  1  0  0  0  0
 27  2  1  0  0  0  0
 29 32  1  0  0  0  0
 29 28  1  0  0  0  0
 30 34  1  0  0  0  0
 31 33  1  0  0  0  0
 31 32  1  0  0  0  0
 32 34  1  0  0  0  0
 33 30  1  0  0  0  0
M  END
>  <MODEL>
8

>  <REMARK>
 VINA RESULT:      -7.2      3.830      7.210
  Name = 
  3 active torsions:
  status: ('A' for Active; 'I' for Inactive)
    1  A    between atoms: C_17  and  C_28
    2  A    between atoms: C_28  and  C_29
    3  A    between atoms: C_29  and  N_32
                            x       y       z     vdW  Elec       q    Type
                         _______ _______ _______ _____ _____    ______ ____

>  <TORSDO>
F 3

$$$$
=
 OpenBabel11122412233D

 34 40  0  0  1  0  0  0  0  0999 V2000
  186.1690  177.8730  145.7300 C   0  0  1  0  0  3  0  0  0  0  0  0
  184.1770  179.4970  145.7450 C   0  0  0  0  0  2  0  0  0  0  0  0
  191.2550  177.7560  141.9690 C   0  0  1  0  0  3  0  0  0  0  0  0
  188.5180  176.8680  145.2000 C   0  0  0  0  0  0  0  0  0  0  0  0
  189.1720  176.6080  142.7290 C   0  0  2  0  0  3  0  0  0  0  0  0
  189.1070  178.3000  141.0130 O   0  0  0  0  0  1  0  0  0  0  0  0
  191.6550  178.2520  140.7260 O   0  0  0  0  0  1  0  0  0  0  0  0
  191.4740  178.1770  144.7630 S   0  0  0  0  0  0  0  0  0  0  0  0
  184.5890  178.1570  143.8350 C   0  0  2  0  0  3  0  0  0  0  0  0
  182.9900  178.6270  141.0310 C   0  0  0  0  0  2  0  0  0  0  0  0
  187.7320  176.4830  142.4680 N   0  0  0  0  0  2  0  0  0  0  0  0
  190.9920  176.4260  144.5680 C   0  0  0  0  0  2  0  0  0  0  0  0
  185.5370  177.5260  142.7940 C   0  0  2  0  0  3  0  0  0  0  0  0
  183.0710  179.7550  144.7190 C   0  0  0  0  0  2  0  0  0  0  0  0
  189.5050  176.2780  144.2060 C   0  0  1  0  0  3  0  0  0  0  0  0
  192.1000  178.4070  143.0600 C   0  0  0  0  0  2  0  0  0  0  0  0
  182.5060  178.5740  142.4820 C   0  0  1  0  0  3  0  0  0  0  0  0
  187.0690  177.0250  144.7690 C   0  0  2  0  0  3  0  0  0  0  0  0
  189.7500  177.9350  142.2020 C   0  0  2  0  0  3  0  0  0  0  0  0
  186.9920  177.4440  143.2840 C   0  0  1  0  0  3  0  0  0  0  0  0
  187.9060  177.6120  147.4890 C   0  0  0  0  0  2  0  0  0  0  0  0
  184.1420  177.6700  140.7400 C   0  0  0  0  0  2  0  0  0  0  0  0
  188.8840  177.1030  146.4720 C   0  0  0  0  0  3  0  0  0  0  0  0
  185.4340  178.1320  141.4000 C   0  0  0  0  0  2  0  0  0  0  0  0
  183.5780  179.1920  143.3890 C   0  0  2  0  0  3  0  0  0  0  0  0
  186.9600  178.5960  146.8220 C   0  0  0  0  0  2  0  0  0  0  0  0
  185.3040  178.8630  144.9550 C   0  0  2  0  0  3  0  0  0  0  0  0
  181.1880  179.3320  142.5670 C   0  0  0  0  0  2  0  0  0  0  0  0
  180.0740  178.4010  143.0160 C   0  0  0  0  0  2  0  0  0  0  0  0
  179.2330  178.9610  139.6450 C   0  0  0  0  0  2  0  0  0  0  0  0
  179.5350  177.1170  141.1280 C   0  0  0  0  0  2  0  0  0  0  0  0
  179.1030  178.2410  141.9460 N   0  0  0  0  0  0  0  0  0  0  0  0
  179.2050  177.4540  139.6960 C   0  0  0  0  0  2  0  0  0  0  0  0
  179.2160  179.4170  141.0910 C   0  0  0  0  0  2  0  0  0  0  0  0
  1 26  1  1  0  0  0
  3  7  1  6  0  0  0
  3 19  1  0  0  0  0
  3 16  1  0  0  0  0
  4 23  2  0  0  0  0
  5 11  1  1  0  0  0
  5 15  1  0  0  0  0
  6 19  1  0  0  0  0
  9 27  1  0  0  0  0
 10 17  1  0  0  0  0
 11 20  1  0  0  0  0
 12  8  1  0  0  0  0
 13 20  1  0  0  0  0
 13  9  1  0  0  0  0
 14  2  1  0  0  0  0
 15 12  1  0  0  0  0
 15  4  1  0  0  0  0
 16  8  1  0  0  0  0
 17 28  1  0  0  0  0
 17 25  1  0  0  0  0
 18  4  1  0  0  0  0
 18  1  1  0  0  0  0
 19  5  1  0  0  0  0
 20 18  1  0  0  0  0
 22 10  1  0  0  0  0
 22 24  1  0  0  0  0
 23 21  1  0  0  0  0
 24 13  1  0  0  0  0
 25  9  1  0  0  0  0
 25 14  1  0  0  0  0
 26 21  1  0  0  0  0
 27  1  1  0  0  0  0
 27  2  1  0  0  0  0
 28 29  1  0  0  0  0
 30 33  1  0  0  0  0
 30 34  1  0  0  0  0
 31 32  1  0  0  0  0
 32 29  1  0  0  0  0
 33 31  1  0  0  0  0
 34 32  1  0  0  0  0
M  END
>  <MODEL>
9

>  <REMARK>
 VINA RESULT:      -7.2      4.675      8.311
  Name = 
  3 active torsions:
  status: ('A' for Active; 'I' for Inactive)
    1  A    between atoms: C_17  and  C_28
    2  A    between atoms: C_28  and  C_29
    3  A    between atoms: C_29  and  N_32
                            x       y       z     vdW  Elec       q    Type
                         _______ _______ _______ _____ _____    ______ ____

>  <TORSDO>
F 3

$$$$
