=
 OpenBabel11122411073D

 31 35  0  0  1  0  0  0  0  0999 V2000
  185.2730  178.6560  144.3830 C   0  0  0  0  0  0  0  0  0  0  0  0
  188.7990  177.4050  144.0040 C   0  0  0  0  0  0  0  0  0  0  0  0
  189.3610  177.3260  145.3120 C   0  0  0  0  0  0  0  0  0  0  0  0
  189.2660  177.5730  147.7280 C   0  0  0  0  0  0  0  0  0  0  0  0
  187.4690  177.8390  143.7160 C   0  0  0  0  0  0  0  0  0  0  0  0
  184.8810  178.6720  143.0470 C   0  0  0  0  0  3  0  0  0  0  0  0
  188.6570  177.6730  146.4760 C   0  0  0  0  0  3  0  0  0  0  0  0
  189.1620  177.0660  141.5910 C   0  0  0  0  0  0  0  0  0  0  0  0
  184.4100  179.0400  145.3540 F   0  0  0  0  0  0  0  0  0  0  0  0
  191.4160  176.5330  144.3700 N   0  0  0  0  0  0  0  0  0  0  0  0
  188.3750  178.0080  149.1690 Cl  0  0  0  0  0  0  0  0  0  0  0  0
  187.8580  177.4930  141.3380 C   0  0  0  0  0  3  0  0  0  0  0  0
  189.6300  177.0210  142.9140 C   0  0  0  0  0  0  0  0  0  0  0  0
  186.5620  178.2400  144.7100 C   0  0  0  0  0  3  0  0  0  0  0  0
  190.5490  177.1400  147.8280 N   0  0  0  0  0  0  0  0  0  0  0  0
  187.0160  177.8760  142.3740 C   0  0  0  0  0  0  0  0  0  0  0  0
  185.7530  178.2860  142.0810 N   0  0  0  0  0  0  0  0  0  0  0  0
  190.9040  176.6020  143.1450 N   0  0  0  0  0  0  0  0  0  0  0  0
  190.6930  176.8800  145.4590 C   0  0  0  0  0  0  0  0  0  0  0  0
  191.2680  176.7940  146.7280 C   0  0  0  0  0  3  0  0  0  0  0  0
  189.6230  178.4120  139.0170 O   0  0  0  0  0  0  0  0  0  0  0  0
  190.2380  177.3420  139.2680 C   0  0  0  0  0  0  0  0  0  0  0  0
  190.0350  176.6690  140.5210 N   0  0  0  0  0  2  0  0  0  0  0  0
  192.9170  175.9790  136.1240 C   0  0  1  0  0  3  0  0  0  0  0  0
  190.6180  176.3410  136.9500 C   0  0  0  0  0  2  0  0  0  0  0  0
  193.0710  177.1820  139.7010 O   0  0  0  0  0  1  0  0  0  0  0  0
  193.7390  175.1670  135.3450 O   0  0  0  0  0  1  0  0  0  0  0  0
  191.5230  175.3860  136.1830 C   0  0  0  0  0  2  0  0  0  0  0  0
  192.5260  176.7040  138.5140 C   0  0  0  0  0  0  0  0  0  0  0  0
  191.1910  176.7650  138.2840 C   0  0  0  0  0  0  0  0  0  0  0  0
  193.4790  176.0650  137.5370 C   0  0  0  0  0  2  0  0  0  0  0  0
  1 14  1  0  0  0  0
  1  9  1  0  0  0  0
  2  3  1  0  0  0  0
  3 19  2  0  0  0  0
  3  7  1  0  0  0  0
  4 15  1  0  0  0  0
  4 11  1  0  0  0  0
  5  2  1  0  0  0  0
  5 14  2  0  0  0  0
  6  1  2  0  0  0  0
  7  4  2  0  0  0  0
  8 13  1  0  0  0  0
 10 19  1  0  0  0  0
 12  8  2  0  0  0  0
 12 16  1  0  0  0  0
 13 18  1  0  0  0  0
 13  2  2  0  0  0  0
 16  5  1  0  0  0  0
 17 16  2  0  0  0  0
 17  6  1  0  0  0  0
 18 10  2  0  0  0  0
 19 20  1  0  0  0  0
 20 15  2  0  0  0  0
 21 22  2  0  0  0  0
 22 23  1  0  0  0  0
 23  8  1  0  0  0  0
 24 27  1  6  0  0  0
 24 28  1  0  0  0  0
 24 31  1  0  0  0  0
 25 30  1  0  0  0  0
 28 25  1  0  0  0  0
 29 26  1  0  0  0  0
 30 29  2  0  0  0  0
 30 22  1  0  0  0  0
 31 29  1  0  0  0  0
M  END
>  <MODEL>
1

>  <REMARK>
 VINA RESULT:     -10.3      0.000      0.000
  Name = 
  2 active torsions:
  status: ('A' for Active; 'I' for Inactive)
    1  A    between atoms: C_5  and  C_30
    2  A    between atoms: C_10  and  N_16
                            x       y       z     vdW  Elec       q    Type
                         _______ _______ _______ _____ _____    ______ ____

>  <TORSDO>
F 2

$$$$
=
 OpenBabel11122411073D

 31 35  0  0  1  0  0  0  0  0999 V2000
  186.6100  177.8210  146.0760 C   0  0  0  0  0  0  0  0  0  0  0  0
  186.8930  178.2090  142.3460 C   0  0  0  0  0  0  0  0  0  0  0  0
  188.2100  177.8000  141.9790 C   0  0  0  0  0  0  0  0  0  0  0  0
  190.4360  176.9630  142.4800 C   0  0  0  0  0  0  0  0  0  0  0  0
  186.3860  178.2110  143.6810 C   0  0  0  0  0  0  0  0  0  0  0  0
  185.2980  178.2510  146.2610 C   0  0  0  0  0  3  0  0  0  0  0  0
  189.1640  177.3490  142.9050 C   0  0  0  0  0  3  0  0  0  0  0  0
  184.7190  179.0640  141.5670 C   0  0  0  0  0  0  0  0  0  0  0  0
  187.3560  177.4250  147.1350 F   0  0  0  0  0  0  0  0  0  0  0  0
  187.7060  178.2740  139.6850 N   0  0  0  0  0  0  0  0  0  0  0  0
  191.6130  176.4030  143.6460 Cl  0  0  0  0  0  0  0  0  0  0  0  0
  184.2480  179.0560  142.8800 C   0  0  0  0  0  3  0  0  0  0  0  0
  186.0320  178.6440  141.3000 C   0  0  0  0  0  0  0  0  0  0  0  0
  187.1460  177.8030  144.7900 C   0  0  0  0  0  3  0  0  0  0  0  0
  190.7600  177.0230  141.1620 N   0  0  0  0  0  0  0  0  0  0  0  0
  185.0590  178.6380  143.9280 C   0  0  0  0  0  0  0  0  0  0  0  0
  184.5580  178.6470  145.1930 N   0  0  0  0  0  0  0  0  0  0  0  0
  186.4760  178.6570  140.0140 N   0  0  0  0  0  0  0  0  0  0  0  0
  188.5860  177.8480  140.6190 C   0  0  0  0  0  0  0  0  0  0  0  0
  189.8690  177.4530  140.2320 C   0  0  0  0  0  3  0  0  0  0  0  0
  182.2560  177.8160  140.5550 O   0  0  0  0  0  0  0  0  0  0  0  0
  182.6850  178.8630  140.0010 C   0  0  0  0  0  0  0  0  0  0  0  0
  183.8830  179.4950  140.4810 N   0  0  0  0  0  2  0  0  0  0  0  0
  180.8200  180.9760  136.6880 C   0  0  1  0  0  3  0  0  0  0  0  0
  181.2720  180.7930  139.1090 C   0  0  0  0  0  2  0  0  0  0  0  0
  182.6870  177.7600  137.3510 O   0  0  0  0  0  1  0  0  0  0  0  0
  179.8960  181.3720  135.7220 O   0  0  0  0  0  1  0  0  0  0  0  0
  180.2120  181.1310  138.0680 C   0  0  0  0  0  2  0  0  0  0  0  0
  181.9770  178.9280  137.6120 C   0  0  0  0  0  0  0  0  0  0  0  0
  181.9580  179.4690  138.8550 C   0  0  0  0  0  0  0  0  0  0  0  0
  181.1890  179.5140  136.4700 C   0  0  0  0  0  2  0  0  0  0  0  0
  1  6  1  0  0  0  0
  1  9  1  0  0  0  0
  2  5  1  0  0  0  0
  3  2  1  0  0  0  0
  3  7  2  0  0  0  0
  4  7  1  0  0  0  0
  4 11  1  0  0  0  0
  5 16  2  0  0  0  0
  5 14  1  0  0  0  0
  8 12  2  0  0  0  0
 10 18  2  0  0  0  0
 10 19  1  0  0  0  0
 12 16  1  0  0  0  0
 13  8  1  0  0  0  0
 13  2  2  0  0  0  0
 14  1  2  0  0  0  0
 15  4  2  0  0  0  0
 16 17  1  0  0  0  0
 17  6  2  0  0  0  0
 18 13  1  0  0  0  0
 19  3  1  0  0  0  0
 20 19  2  0  0  0  0
 20 15  1  0  0  0  0
 22 23  1  0  0  0  0
 22 21  2  0  0  0  0
 23  8  1  0  0  0  0
 24 27  1  6  0  0  0
 24 28  1  0  0  0  0
 26 29  1  0  0  0  0
 28 25  1  0  0  0  0
 29 30  2  0  0  0  0
 30 25  1  0  0  0  0
 30 22  1  0  0  0  0
 31 24  1  0  0  0  0
 31 29  1  0  0  0  0
M  END
>  <MODEL>
2

>  <REMARK>
 VINA RESULT:      -9.9      4.457      7.481
  Name = 
  2 active torsions:
  status: ('A' for Active; 'I' for Inactive)
    1  A    between atoms: C_5  and  C_30
    2  A    between atoms: C_10  and  N_16
                            x       y       z     vdW  Elec       q    Type
                         _______ _______ _______ _____ _____    ______ ____

>  <TORSDO>
F 2

$$$$
=
 OpenBabel11122411073D

 31 35  0  0  1  0  0  0  0  0999 V2000
  190.4350  177.0640  142.0430 C   0  0  0  0  0  0  0  0  0  0  0  0
  187.0630  178.1780  143.2820 C   0  0  0  0  0  0  0  0  0  0  0  0
  187.0790  178.0650  144.7040 C   0  0  0  0  0  0  0  0  0  0  0  0
  188.1420  177.5240  146.8220 C   0  0  0  0  0  0  0  0  0  0  0  0
  188.1620  177.8490  142.4290 C   0  0  0  0  0  0  0  0  0  0  0  0
  190.2530  177.2330  140.6720 C   0  0  0  0  0  3  0  0  0  0  0  0
  188.1920  177.6110  145.4300 C   0  0  0  0  0  3  0  0  0  0  0  0
  185.7570  178.7960  141.2880 C   0  0  0  0  0  0  0  0  0  0  0  0
  191.6150  176.6040  142.5240 F   0  0  0  0  0  0  0  0  0  0  0  0
  184.8230  178.8670  144.7820 N   0  0  0  0  0  0  0  0  0  0  0  0
  189.5380  176.9560  147.7110 Cl  0  0  0  0  0  0  0  0  0  0  0  0
  186.8450  178.4680  140.4780 C   0  0  0  0  0  3  0  0  0  0  0  0
  185.8650  178.6520  142.6810 C   0  0  0  0  0  0  0  0  0  0  0  0
  189.3910  177.3710  142.9120 C   0  0  0  0  0  3  0  0  0  0  0  0
  187.0120  177.8780  147.4860 N   0  0  0  0  0  0  0  0  0  0  0  0
  188.0320  178.0010  141.0270 C   0  0  0  0  0  0  0  0  0  0  0  0
  189.0660  177.6940  140.1990 N   0  0  0  0  0  0  0  0  0  0  0  0
  184.7960  178.9760  143.4580 N   0  0  0  0  0  0  0  0  0  0  0  0
  185.9240  178.4230  145.4310 C   0  0  0  0  0  0  0  0  0  0  0  0
  185.9120  178.3220  146.8240 C   0  0  0  0  0  3  0  0  0  0  0  0
  183.4230  177.2440  140.3960 O   0  0  0  0  0  0  0  0  0  0  0  0
  183.4030  178.5000  140.2880 C   0  0  0  0  0  0  0  0  0  0  0  0
  184.5290  179.2800  140.7220 N   0  0  0  0  0  2  0  0  0  0  0  0
  179.8920  180.1990  138.3650 C   0  0  1  0  0  3  0  0  0  0  0  0
  182.2740  179.5580  138.2570 C   0  0  0  0  0  2  0  0  0  0  0  0
  180.9960  178.9930  141.7700 O   0  0  0  0  0  1  0  0  0  0  0  0
  178.9310  181.1110  137.9310 O   0  0  0  0  0  1  0  0  0  0  0  0
  181.2580  180.6210  137.8610 C   0  0  0  0  0  2  0  0  0  0  0  0
  181.0900  179.4130  140.4460 C   0  0  0  0  0  0  0  0  0  0  0  0
  182.2160  179.1940  139.7240 C   0  0  0  0  0  0  0  0  0  0  0  0
  179.9130  180.1700  139.8880 C   0  0  0  0  0  2  0  0  0  0  0  0
  1  9  1  0  0  0  0
  1 14  1  0  0  0  0
  2  3  1  0  0  0  0
  3  7  2  0  0  0  0
  3 19  1  0  0  0  0
  4 15  2  0  0  0  0
  4 11  1  0  0  0  0
  5 14  2  0  0  0  0
  5  2  1  0  0  0  0
  6  1  2  0  0  0  0
  7  4  1  0  0  0  0
  8 13  1  0  0  0  0
 10 19  1  0  0  0  0
 12 16  1  0  0  0  0
 12  8  2  0  0  0  0
 13  2  2  0  0  0  0
 13 18  1  0  0  0  0
 16  5  1  0  0  0  0
 17  6  1  0  0  0  0
 17 16  2  0  0  0  0
 18 10  2  0  0  0  0
 19 20  2  0  0  0  0
 20 15  1  0  0  0  0
 22 21  2  0  0  0  0
 22 23  1  0  0  0  0
 23  8  1  0  0  0  0
 24 27  1  1  0  0  0
 24 31  1  0  0  0  0
 25 30  1  0  0  0  0
 28 25  1  0  0  0  0
 28 24  1  0  0  0  0
 29 26  1  0  0  0  0
 30 22  1  0  0  0  0
 30 29  2  0  0  0  0
 31 29  1  0  0  0  0
M  END
>  <MODEL>
3

>  <REMARK>
 VINA RESULT:      -9.8      4.326      7.561
  Name = 
  2 active torsions:
  status: ('A' for Active; 'I' for Inactive)
    1  A    between atoms: C_5  and  C_30
    2  A    between atoms: C_10  and  N_16
                            x       y       z     vdW  Elec       q    Type
                         _______ _______ _______ _____ _____    ______ ____

>  <TORSDO>
F 2

$$$$
=
 OpenBabel11122411073D

 31 35  0  0  1  0  0  0  0  0999 V2000
  190.1640  177.0640  147.1210 C   0  0  0  0  0  0  0  0  0  0  0  0
  188.5370  177.3890  143.7460 C   0  0  0  0  0  0  0  0  0  0  0  0
  187.2160  177.8830  143.9610 C   0  0  0  0  0  0  0  0  0  0  0  0
  185.3950  178.6510  145.3750 C   0  0  0  0  0  0  0  0  0  0  0  0
  189.4850  177.1270  144.7820 C   0  0  0  0  0  0  0  0  0  0  0  0
  191.4140  176.5840  146.7370 C   0  0  0  0  0  3  0  0  0  0  0  0
  186.6970  178.1690  145.2340 C   0  0  0  0  0  3  0  0  0  0  0  0
  190.2090  176.6560  142.0930 C   0  0  0  0  0  0  0  0  0  0  0  0
  189.8820  177.2680  148.4300 F   0  0  0  0  0  0  0  0  0  0  0  0
  186.8270  177.8400  141.5970 N   0  0  0  0  0  0  0  0  0  0  0  0
  184.7640  179.0030  146.9680 Cl  0  0  0  0  0  0  0  0  0  0  0  0
  191.1160  176.4090  143.1240 C   0  0  0  0  0  3  0  0  0  0  0  0
  188.9280  177.1430  142.4000 C   0  0  0  0  0  0  0  0  0  0  0  0
  189.2080  177.3330  146.1440 C   0  0  0  0  0  3  0  0  0  0  0  0
  184.6180  178.8450  144.2780 N   0  0  0  0  0  0  0  0  0  0  0  0
  190.7720  176.6370  144.4500 C   0  0  0  0  0  0  0  0  0  0  0  0
  191.6870  176.3820  145.4220 N   0  0  0  0  0  0  0  0  0  0  0  0
  188.0550  177.3790  141.3840 N   0  0  0  0  0  0  0  0  0  0  0  0
  186.3770  178.0980  142.8460 C   0  0  0  0  0  0  0  0  0  0  0  0
  185.0800  178.5820  143.0280 C   0  0  0  0  0  3  0  0  0  0  0  0
  192.3850  177.8780  140.5360 O   0  0  0  0  0  0  0  0  0  0  0  0
  191.6290  177.0370  139.9790 C   0  0  0  0  0  0  0  0  0  0  0  0
  190.5630  176.4220  140.7200 N   0  0  0  0  0  2  0  0  0  0  0  0
  192.2940  175.5230  135.9560 C   0  0  1  0  0  3  0  0  0  0  0  0
  193.1790  176.0680  138.1960 C   0  0  0  0  0  2  0  0  0  0  0  0
  189.5750  177.1890  137.9810 O   0  0  0  0  0  1  0  0  0  0  0  0
  192.5830  175.4670  134.5940 O   0  0  0  0  0  1  0  0  0  0  0  0
  193.4740  176.1120  136.7030 C   0  0  0  0  0  2  0  0  0  0  0  0
  190.8440  176.7370  137.6330 C   0  0  0  0  0  0  0  0  0  0  0  0
  191.8330  176.6580  138.5570 C   0  0  0  0  0  0  0  0  0  0  0  0
  191.0740  176.4070  136.1800 C   0  0  0  0  0  2  0  0  0  0  0  0
  1  9  1  0  0  0  0
  2  3  1  0  0  0  0
  2  5  1  0  0  0  0
  3  7  2  0  0  0  0
  4 11  1  0  0  0  0
  5 14  1  0  0  0  0
  6  1  1  0  0  0  0
  7  4  1  0  0  0  0
  8 13  1  0  0  0  0
  8 12  2  0  0  0  0
 10 19  1  0  0  0  0
 12 16  1  0  0  0  0
 13  2  2  0  0  0  0
 14  1  2  0  0  0  0
 15  4  2  0  0  0  0
 16  5  2  0  0  0  0
 16 17  1  0  0  0  0
 17  6  2  0  0  0  0
 18 10  2  0  0  0  0
 18 13  1  0  0  0  0
 19 20  2  0  0  0  0
 19  3  1  0  0  0  0
 20 15  1  0  0  0  0
 22 21  2  0  0  0  0
 22 23  1  0  0  0  0
 23  8  1  0  0  0  0
 24 27  1  6  0  0  0
 24 31  1  0  0  0  0
 24 28  1  0  0  0  0
 25 30  1  0  0  0  0
 28 25  1  0  0  0  0
 29 26  1  0  0  0  0
 29 30  2  0  0  0  0
 30 22  1  0  0  0  0
 31 29  1  0  0  0  0
M  END
>  <MODEL>
4

>  <REMARK>
 VINA RESULT:      -9.8      1.795      4.110
  Name = 
  2 active torsions:
  status: ('A' for Active; 'I' for Inactive)
    1  A    between atoms: C_5  and  C_30
    2  A    between atoms: C_10  and  N_16
                            x       y       z     vdW  Elec       q    Type
                         _______ _______ _______ _____ _____    ______ ____

>  <TORSDO>
F 2

$$$$
=
 OpenBabel11122411073D

 31 35  0  0  1  0  0  0  0  0999 V2000
  187.3820  178.4130  148.1350 C   0  0  0  0  0  0  0  0  0  0  0  0
  187.8620  177.5140  144.5150 C   0  0  0  0  0  0  0  0  0  0  0  0
  189.1680  176.9530  144.3900 C   0  0  0  0  0  0  0  0  0  0  0  0
  191.3140  176.2440  145.2820 C   0  0  0  0  0  0  0  0  0  0  0  0
  187.2940  177.9840  145.7390 C   0  0  0  0  0  0  0  0  0  0  0  0
  186.0910  178.9320  148.0820 C   0  0  0  0  0  3  0  0  0  0  0  0
  190.0490  176.8010  145.4730 C   0  0  0  0  0  3  0  0  0  0  0  0
  185.7810  178.1450  143.3590 C   0  0  0  0  0  0  0  0  0  0  0  0
  188.0530  178.3660  149.3110 F   0  0  0  0  0  0  0  0  0  0  0  0
  188.8000  176.6480  142.0420 N   0  0  0  0  0  0  0  0  0  0  0  0
  192.4000  176.0610  146.6420 Cl  0  0  0  0  0  0  0  0  0  0  0  0
  185.2500  178.5970  144.5670 C   0  0  0  0  0  3  0  0  0  0  0  0
  187.0780  177.6070  143.3310 C   0  0  0  0  0  0  0  0  0  0  0  0
  187.9750  177.9430  146.9660 C   0  0  0  0  0  3  0  0  0  0  0  0
  191.7030  175.8450  144.0440 N   0  0  0  0  0  0  0  0  0  0  0  0
  185.9840  178.5230  145.7440 C   0  0  0  0  0  0  0  0  0  0  0  0
  185.4260  178.9760  146.8980 N   0  0  0  0  0  0  0  0  0  0  0  0
  187.5820  177.1700  142.1460 N   0  0  0  0  0  0  0  0  0  0  0  0
  189.6090  176.5260  143.1190 C   0  0  0  0  0  0  0  0  0  0  0  0
  190.8830  175.9730  142.9690 C   0  0  0  0  0  3  0  0  0  0  0  0
  182.9340  178.7990  143.0170 O   0  0  0  0  0  0  0  0  0  0  0  0
  183.6290  178.5350  142.0000 C   0  0  0  0  0  0  0  0  0  0  0  0
  185.0240  178.2190  142.1400 N   0  0  0  0  0  2  0  0  0  0  0  0
  181.5340  178.8230  138.1990 C   0  0  1  0  0  3  0  0  0  0  0  0
  181.6740  177.8990  140.4850 C   0  0  0  0  0  2  0  0  0  0  0  0
  184.7940  179.9110  139.7670 O   0  0  0  0  0  1  0  0  0  0  0  0
  181.1310  178.5780  136.8880 O   0  0  0  0  0  1  0  0  0  0  0  0
  181.3270  177.5770  139.0380 C   0  0  0  0  0  2  0  0  0  0  0  0
  183.5970  179.2200  139.6040 C   0  0  0  0  0  0  0  0  0  0  0  0
  183.0270  178.5600  140.6410 C   0  0  0  0  0  0  0  0  0  0  0  0
  183.0120  179.1910  138.2150 C   0  0  0  0  0  2  0  0  0  0  0  0
  1  9  1  0  0  0  0
  2  5  1  0  0  0  0
  3  2  1  0  0  0  0
  3  7  2  0  0  0  0
  4  7  1  0  0  0  0
  4 11  1  0  0  0  0
  5 16  2  0  0  0  0
  5 14  1  0  0  0  0
  6  1  1  0  0  0  0
  8 12  2  0  0  0  0
 10 18  2  0  0  0  0
 10 19  1  0  0  0  0
 12 16  1  0  0  0  0
 13  8  1  0  0  0  0
 13  2  2  0  0  0  0
 14  1  2  0  0  0  0
 15  4  2  0  0  0  0
 16 17  1  0  0  0  0
 17  6  2  0  0  0  0
 18 13  1  0  0  0  0
 19  3  1  0  0  0  0
 20 19  2  0  0  0  0
 20 15  1  0  0  0  0
 22 23  1  0  0  0  0
 22 21  2  0  0  0  0
 23  8  1  0  0  0  0
 24 27  1  6  0  0  0
 24 31  1  0  0  0  0
 24 28  1  0  0  0  0
 25 30  1  0  0  0  0
 28 25  1  0  0  0  0
 29 26  1  0  0  0  0
 29 30  2  0  0  0  0
 30 22  1  0  0  0  0
 31 29  1  0  0  0  0
M  END
>  <MODEL>
5

>  <REMARK>
 VINA RESULT:      -9.7      4.233      6.477
  Name = 
  2 active torsions:
  status: ('A' for Active; 'I' for Inactive)
    1  A    between atoms: C_5  and  C_30
    2  A    between atoms: C_10  and  N_16
                            x       y       z     vdW  Elec       q    Type
                         _______ _______ _______ _____ _____    ______ ____

>  <TORSDO>
F 2

$$$$
=
 OpenBabel11122411073D

 31 35  0  0  1  0  0  0  0  0999 V2000
  185.4980  178.8870  142.0360 C   0  0  0  0  0  0  0  0  0  0  0  0
  189.0500  177.6610  142.1920 C   0  0  0  0  0  0  0  0  0  0  0  0
  189.3780  177.4950  143.5700 C   0  0  0  0  0  0  0  0  0  0  0  0
  188.8640  177.5790  145.9440 C   0  0  0  0  0  0  0  0  0  0  0  0
  187.7850  178.1140  141.7070 C   0  0  0  0  0  0  0  0  0  0  0  0
  185.3430  178.9930  140.6560 C   0  0  0  0  0  3  0  0  0  0  0  0
  188.4800  177.7630  144.6150 C   0  0  0  0  0  3  0  0  0  0  0  0
  189.8290  177.4840  139.8620 C   0  0  0  0  0  0  0  0  0  0  0  0
  184.4760  179.2060  142.8660 F   0  0  0  0  0  0  0  0  0  0  0  0
  191.5740  176.7650  142.9480 N   0  0  0  0  0  0  0  0  0  0  0  0
  187.7320  177.9180  147.2340 Cl  0  0  0  0  0  0  0  0  0  0  0  0
  188.5840  177.9290  139.4150 C   0  0  0  0  0  3  0  0  0  0  0  0
  190.0620  177.3510  141.2400 C   0  0  0  0  0  0  0  0  0  0  0  0
  186.7150  178.4490  142.5530 C   0  0  0  0  0  3  0  0  0  0  0  0
  190.1150  177.1390  146.2360 N   0  0  0  0  0  0  0  0  0  0  0  0
  187.5710  178.2420  140.3130 C   0  0  0  0  0  0  0  0  0  0  0  0
  186.3740  178.6710  139.8320 N   0  0  0  0  0  0  0  0  0  0  0  0
  191.2810  176.9160  141.6600 N   0  0  0  0  0  0  0  0  0  0  0  0
  190.6690  177.0390  143.9150 C   0  0  0  0  0  0  0  0  0  0  0  0
  191.0170  176.8670  145.2570 C   0  0  0  0  0  3  0  0  0  0  0  0
  190.2110  174.9990  138.3360 O   0  0  0  0  0  0  0  0  0  0  0  0
  191.0460  175.9330  138.2060 C   0  0  0  0  0  0  0  0  0  0  0  0
  190.8780  177.1590  138.9360 N   0  0  0  0  0  2  0  0  0  0  0  0
  194.4470  175.0960  135.6260 C   0  0  1  0  0  3  0  0  0  0  0  0
  193.4960  175.2830  137.8980 C   0  0  0  0  0  2  0  0  0  0  0  0
  190.9040  176.3810  135.3750 O   0  0  0  0  0  1  0  0  0  0  0  0
  195.5890  175.2640  134.8460 O   0  0  0  0  0  1  0  0  0  0  0  0
  194.7210  175.5710  137.0400 C   0  0  0  0  0  2  0  0  0  0  0  0
  192.1120  176.0070  135.9540 C   0  0  0  0  0  0  0  0  0  0  0  0
  192.2070  175.7910  137.2890 C   0  0  0  0  0  0  0  0  0  0  0  0
  193.3060  175.9180  135.0400 C   0  0  0  0  0  2  0  0  0  0  0  0
  1 14  1  0  0  0  0
  1  9  1  0  0  0  0
  2  3  1  0  0  0  0
  3 19  2  0  0  0  0
  3  7  1  0  0  0  0
  4 15  1  0  0  0  0
  4 11  1  0  0  0  0
  5  2  1  0  0  0  0
  5 14  2  0  0  0  0
  6  1  2  0  0  0  0
  7  4  2  0  0  0  0
  8 13  1  0  0  0  0
 10 19  1  0  0  0  0
 12  8  2  0  0  0  0
 12 16  1  0  0  0  0
 13 18  1  0  0  0  0
 13  2  2  0  0  0  0
 16  5  1  0  0  0  0
 17 16  2  0  0  0  0
 17  6  1  0  0  0  0
 18 10  2  0  0  0  0
 19 20  1  0  0  0  0
 20 15  2  0  0  0  0
 22 21  2  0  0  0  0
 22 23  1  0  0  0  0
 23  8  1  0  0  0  0
 24 27  1  6  0  0  0
 24 28  1  0  0  0  0
 26 29  1  0  0  0  0
 28 25  1  0  0  0  0
 29 30  2  0  0  0  0
 30 25  1  0  0  0  0
 30 22  1  0  0  0  0
 31 24  1  0  0  0  0
 31 29  1  0  0  0  0
M  END
>  <MODEL>
6

>  <REMARK>
 VINA RESULT:      -9.6      1.660      2.315
  Name = 
  2 active torsions:
  status: ('A' for Active; 'I' for Inactive)
    1  A    between atoms: C_5  and  C_30
    2  A    between atoms: C_10  and  N_16
                            x       y       z     vdW  Elec       q    Type
                         _______ _______ _______ _____ _____    ______ ____

>  <TORSDO>
F 2

$$$$
=
 OpenBabel11122411073D

 31 35  0  0  1  0  0  0  0  0999 V2000
  187.3690  178.4060  136.4180 C   0  0  0  0  0  0  0  0  0  0  0  0
  186.3610  178.3930  140.0410 C   0  0  0  0  0  0  0  0  0  0  0  0
  184.9510  178.6010  140.0870 C   0  0  0  0  0  0  0  0  0  0  0  0
  182.7820  178.9710  139.0540 C   0  0  0  0  0  0  0  0  0  0  0  0
  187.1350  178.3320  138.8410 C   0  0  0  0  0  0  0  0  0  0  0  0
  188.7390  178.1950  136.5510 C   0  0  0  0  0  3  0  0  0  0  0  0
  184.1590  178.7710  138.9400 C   0  0  0  0  0  3  0  0  0  0  0  0
  188.4240  178.0280  141.3360 C   0  0  0  0  0  0  0  0  0  0  0  0
  186.8140  178.5440  135.1900 F   0  0  0  0  0  0  0  0  0  0  0  0
  185.0220  178.4840  142.4780 N   0  0  0  0  0  0  0  0  0  0  0  0
  181.8090  179.1810  137.6150 Cl  0  0  0  0  0  0  0  0  0  0  0  0
  189.1560  177.9710  140.1500 C   0  0  0  0  0  3  0  0  0  0  0  0
  187.0370  178.2370  141.2840 C   0  0  0  0  0  0  0  0  0  0  0  0
  186.5760  178.4730  137.5610 C   0  0  0  0  0  3  0  0  0  0  0  0
  182.1980  179.0040  140.2790 N   0  0  0  0  0  0  0  0  0  0  0  0
  188.5330  178.1200  138.9170 C   0  0  0  0  0  0  0  0  0  0  0  0
  189.2860  178.0580  137.7860 N   0  0  0  0  0  0  0  0  0  0  0  0
  186.3360  178.2890  142.4490 N   0  0  0  0  0  0  0  0  0  0  0  0
  184.3060  178.6420  141.3420 C   0  0  0  0  0  0  0  0  0  0  0  0
  182.9270  178.8440  141.4150 C   0  0  0  0  0  3  0  0  0  0  0  0
  188.5650  175.6280  143.0310 O   0  0  0  0  0  0  0  0  0  0  0  0
  189.1150  176.6910  143.4250 C   0  0  0  0  0  0  0  0  0  0  0  0
  189.0650  177.8740  142.6130 N   0  0  0  0  0  2  0  0  0  0  0  0
  191.4720  177.1280  147.0550 C   0  0  1  0  0  3  0  0  0  0  0  0
  191.3120  176.4110  144.6970 C   0  0  0  0  0  2  0  0  0  0  0  0
  187.9030  177.5340  145.8860 O   0  0  0  0  0  1  0  0  0  0  0  0
  192.0560  176.8680  148.2930 O   0  0  0  0  0  1  0  0  0  0  0  0
  191.8740  176.0510  146.0660 C   0  0  0  0  0  2  0  0  0  0  0  0
  189.2380  177.1410  145.8740 C   0  0  0  0  0  0  0  0  0  0  0  0
  189.8340  176.7360  144.7250 C   0  0  0  0  0  0  0  0  0  0  0  0
  189.9550  177.1280  147.1990 C   0  0  0  0  0  2  0  0  0  0  0  0
  1  6  2  0  0  0  0
  1 14  1  0  0  0  0
  2  3  2  0  0  0  0
  2 13  1  0  0  0  0
  3 19  1  0  0  0  0
  4 15  1  0  0  0  0
  5 16  1  0  0  0  0
  5  2  1  0  0  0  0
  6 17  1  0  0  0  0
  7  4  2  0  0  0  0
  7  3  1  0  0  0  0
  8 23  1  0  0  0  0
  9  1  1  0  0  0  0
 11  4  1  0  0  0  0
 12  8  2  0  0  0  0
 13  8  1  0  0  0  0
 13 18  2  0  0  0  0
 14  5  2  0  0  0  0
 15 20  2  0  0  0  0
 16 12  1  0  0  0  0
 17 16  2  0  0  0  0
 18 10  1  0  0  0  0
 19 20  1  0  0  0  0
 19 10  2  0  0  0  0
 21 22  2  0  0  0  0
 22 30  1  0  0  0  0
 23 22  1  0  0  0  0
 24 31  1  0  0  0  0
 24 27  1  1  0  0  0
 25 30  1  0  0  0  0
 25 28  1  0  0  0  0
 28 24  1  0  0  0  0
 29 26  1  0  0  0  0
 29 31  1  0  0  0  0
 30 29  2  0  0  0  0
M  END
>  <MODEL>
7

>  <REMARK>
 VINA RESULT:      -9.6      4.478      7.970
  Name = 
  2 active torsions:
  status: ('A' for Active; 'I' for Inactive)
    1  A    between atoms: C_5  and  C_30
    2  A    between atoms: C_10  and  N_16
                            x       y       z     vdW  Elec       q    Type
                         _______ _______ _______ _____ _____    ______ ____

>  <TORSDO>
F 2

$$$$
=
 OpenBabel11122411073D

 31 35  0  0  1  0  0  0  0  0999 V2000
  185.5700  178.1430  146.7250 C   0  0  0  0  0  0  0  0  0  0  0  0
  185.7730  178.3180  142.9740 C   0  0  0  0  0  0  0  0  0  0  0  0
  184.4570  178.5860  142.4930 C   0  0  0  0  0  0  0  0  0  0  0  0
  182.0820  179.0010  142.8000 C   0  0  0  0  0  0  0  0  0  0  0  0
  186.1200  178.1760  144.3530 C   0  0  0  0  0  0  0  0  0  0  0  0
  186.9050  177.8830  147.0250 C   0  0  0  0  0  3  0  0  0  0  0  0
  183.3450  178.7400  143.3350 C   0  0  0  0  0  3  0  0  0  0  0  0
  188.1310  177.9210  142.3850 C   0  0  0  0  0  0  0  0  0  0  0  0
  184.6550  178.2530  147.7190 F   0  0  0  0  0  0  0  0  0  0  0  0
  185.2850  178.5610  140.2450 N   0  0  0  0  0  0  0  0  0  0  0  0
  180.7060  179.1920  143.8630 Cl  0  0  0  0  0  0  0  0  0  0  0  0
  188.4440  177.7880  143.7380 C   0  0  0  0  0  3  0  0  0  0  0  0
  186.8060  178.1840  142.0040 C   0  0  0  0  0  0  0  0  0  0  0  0
  185.1850  178.2880  145.3950 C   0  0  0  0  0  3  0  0  0  0  0  0
  181.9220  179.1060  141.4560 N   0  0  0  0  0  0  0  0  0  0  0  0
  187.4640  177.9110  144.7150 C   0  0  0  0  0  0  0  0  0  0  0  0
  187.8140  177.7740  146.0220 N   0  0  0  0  0  0  0  0  0  0  0  0
  186.5160  178.3120  140.6810 N   0  0  0  0  0  0  0  0  0  0  0  0
  184.2480  178.7010  141.1020 C   0  0  0  0  0  0  0  0  0  0  0  0
  182.9700  178.9630  140.6040 C   0  0  0  0  0  3  0  0  0  0  0  0
  190.1690  175.8200  142.0950 O   0  0  0  0  0  0  0  0  0  0  0  0
  190.1330  176.7600  141.2560 C   0  0  0  0  0  0  0  0  0  0  0  0
  189.1430  177.7940  141.3730 N   0  0  0  0  0  2  0  0  0  0  0  0
  193.1780  176.5840  138.1550 C   0  0  1  0  0  3  0  0  0  0  0  0
  192.5380  177.1220  140.4780 C   0  0  0  0  0  2  0  0  0  0  0  0
  189.4500  176.1120  138.5450 O   0  0  0  0  0  1  0  0  0  0  0  0
  193.9970  176.9330  137.0830 O   0  0  0  0  0  1  0  0  0  0  0  0
  193.3620  177.5800  139.2820 C   0  0  0  0  0  2  0  0  0  0  0  0
  190.7510  176.4950  138.8560 C   0  0  0  0  0  0  0  0  0  0  0  0
  191.1000  176.8090  140.1280 C   0  0  0  0  0  0  0  0  0  0  0  0
  191.7210  176.6040  137.7080 C   0  0  0  0  0  2  0  0  0  0  0  0
  1  6  1  0  0  0  0
  1  9  1  0  0  0  0
  2  5  1  0  0  0  0
  3  2  1  0  0  0  0
  3  7  2  0  0  0  0
  4  7  1  0  0  0  0
  4 11  1  0  0  0  0
  5 16  2  0  0  0  0
  5 14  1  0  0  0  0
  8 12  2  0  0  0  0
 10 18  2  0  0  0  0
 10 19  1  0  0  0  0
 12 16  1  0  0  0  0
 13  8  1  0  0  0  0
 13  2  2  0  0  0  0
 14  1  2  0  0  0  0
 15  4  2  0  0  0  0
 16 17  1  0  0  0  0
 17  6  2  0  0  0  0
 18 13  1  0  0  0  0
 19  3  1  0  0  0  0
 20 19  2  0  0  0  0
 20 15  1  0  0  0  0
 22 23  1  0  0  0  0
 22 21  2  0  0  0  0
 23  8  1  0  0  0  0
 24 27  1  6  0  0  0
 24 28  1  0  0  0  0
 26 29  1  0  0  0  0
 28 25  1  0  0  0  0
 29 30  2  0  0  0  0
 30 25  1  0  0  0  0
 30 22  1  0  0  0  0
 31 24  1  0  0  0  0
 31 29  1  0  0  0  0
M  END
>  <MODEL>
8

>  <REMARK>
 VINA RESULT:      -9.5      2.637      5.103
  Name = 
  2 active torsions:
  status: ('A' for Active; 'I' for Inactive)
    1  A    between atoms: C_5  and  C_30
    2  A    between atoms: C_10  and  N_16
                            x       y       z     vdW  Elec       q    Type
                         _______ _______ _______ _____ _____    ______ ____

>  <TORSDO>
F 2

$$$$
=
 OpenBabel11122411073D

 31 35  0  0  1  0  0  0  0  0999 V2000
  183.1800  178.9370  139.2950 C   0  0  0  0  0  0  0  0  0  0  0  0
  186.8480  178.2740  139.7930 C   0  0  0  0  0  0  0  0  0  0  0  0
  187.4340  178.1520  138.4980 C   0  0  0  0  0  0  0  0  0  0  0  0
  187.3360  178.1420  136.0700 C   0  0  0  0  0  0  0  0  0  0  0  0
  185.4640  178.5290  140.0370 C   0  0  0  0  0  0  0  0  0  0  0  0
  182.7720  179.0280  140.6230 C   0  0  0  0  0  3  0  0  0  0  0  0
  186.7020  178.2710  137.3060 C   0  0  0  0  0  3  0  0  0  0  0  0
  187.2250  178.2340  142.2260 C   0  0  0  0  0  0  0  0  0  0  0  0
  182.2830  179.0880  138.2920 F   0  0  0  0  0  0  0  0  0  0  0  0
  189.5710  177.7740  139.5120 N   0  0  0  0  0  0  0  0  0  0  0  0
  186.4100  178.2930  134.5940 Cl  0  0  0  0  0  0  0  0  0  0  0  0
  185.8690  178.4840  142.4380 C   0  0  0  0  0  3  0  0  0  0  0  0
  187.7130  178.1300  140.9140 C   0  0  0  0  0  0  0  0  0  0  0  0
  184.5210  178.6890  139.0090 C   0  0  0  0  0  3  0  0  0  0  0  0
  188.6710  177.8970  136.0120 N   0  0  0  0  0  0  0  0  0  0  0  0
  184.9930  178.6310  141.3700 C   0  0  0  0  0  0  0  0  0  0  0  0
  183.6790  178.8740  141.6220 N   0  0  0  0  0  0  0  0  0  0  0  0
  189.0380  177.8850  140.7240 N   0  0  0  0  0  0  0  0  0  0  0  0
  188.8190  177.8980  138.3950 C   0  0  0  0  0  0  0  0  0  0  0  0
  189.4180  177.7740  137.1400 C   0  0  0  0  0  3  0  0  0  0  0  0
  188.2360  175.7470  143.4290 O   0  0  0  0  0  0  0  0  0  0  0  0
  188.6080  176.8540  143.9040 C   0  0  0  0  0  0  0  0  0  0  0  0
  188.1330  178.0820  143.3300 N   0  0  0  0  0  2  0  0  0  0  0  0
  191.1530  176.6770  147.4270 C   0  0  1  0  0  3  0  0  0  0  0  0
  188.9430  177.1270  146.4210 C   0  0  0  0  0  2  0  0  0  0  0  0
  191.4290  176.3850  143.6710 O   0  0  0  0  0  1  0  0  0  0  0  0
  192.0480  177.0370  148.4330 O   0  0  0  0  0  1  0  0  0  0  0  0
  189.9530  177.6020  147.4570 C   0  0  0  0  0  2  0  0  0  0  0  0
  190.8800  176.6810  144.9140 C   0  0  0  0  0  0  0  0  0  0  0  0
  189.5500  176.9090  145.0520 C   0  0  0  0  0  0  0  0  0  0  0  0
  191.8380  176.7980  146.0710 C   0  0  0  0  0  2  0  0  0  0  0  0
  1  6  1  0  0  0  0
  2  5  2  0  0  0  0
  2 13  1  0  0  0  0
  3  2  1  0  0  0  0
  4  7  1  0  0  0  0
  5 16  1  0  0  0  0
  6 17  2  0  0  0  0
  7  3  2  0  0  0  0
  8 12  1  0  0  0  0
  8 23  1  0  0  0  0
  9  1  1  0  0  0  0
 10 18  2  0  0  0  0
 11  4  1  0  0  0  0
 13  8  2  0  0  0  0
 14  1  2  0  0  0  0
 14  5  1  0  0  0  0
 15  4  2  0  0  0  0
 15 20  1  0  0  0  0
 16 17  1  0  0  0  0
 16 12  2  0  0  0  0
 18 13  1  0  0  0  0
 19  3  1  0  0  0  0
 19 10  1  0  0  0  0
 20 19  2  0  0  0  0
 21 22  2  0  0  0  0
 22 30  1  0  0  0  0
 23 22  1  0  0  0  0
 24 28  1  0  0  0  0
 24 27  1  1  0  0  0
 25 28  1  0  0  0  0
 26 29  1  0  0  0  0
 29 30  2  0  0  0  0
 29 31  1  0  0  0  0
 30 25  1  0  0  0  0
 31 24  1  0  0  0  0
M  END
>  <MODEL>
9

>  <REMARK>
 VINA RESULT:      -9.5      4.205      7.669
  Name = 
  2 active torsions:
  status: ('A' for Active; 'I' for Inactive)
    1  A    between atoms: C_5  and  C_30
    2  A    between atoms: C_10  and  N_16
                            x       y       z     vdW  Elec       q    Type
                         _______ _______ _______ _____ _____    ______ ____

>  <TORSDO>
F 2

$$$$
