=
 OpenBabel11122410323D

 30 35  0  0  1  0  0  0  0  0999 V2000
  189.4230  177.5220  143.4460 C   0  0  0  0  0  0  0  0  0  0  0  0
  191.2380  176.6110  144.8820 C   0  0  0  0  0  0  0  0  0  0  0  0
  186.9840  178.1830  146.7440 O   0  0  0  0  0  0  0  0  0  0  0  0
  188.1080  178.0360  143.3260 C   0  0  0  0  0  0  0  0  0  0  0  0
  190.2460  177.4500  142.2750 N   0  0  0  0  0  2  0  0  0  0  0  0
  188.2530  179.1320  139.8710 O   0  0  0  0  0  0  0  0  0  0  0  0
  185.1770  177.8870  142.4020 C   0  0  1  0  0  3  0  0  0  0  0  0
  188.5160  178.4680  140.9090 C   0  0  0  0  0  0  0  0  0  0  0  0
  184.8940  178.1230  143.8840 C   0  0  2  0  0  3  0  0  0  0  0  0
  185.8030  178.7830  146.2220 C   0  0  2  0  0  3  0  0  0  0  0  0
  189.7220  177.5870  140.9200 C   0  0  2  0  0  3  0  0  0  0  0  0
  187.6220  178.4760  142.0360 N   0  0  0  0  0  0  0  0  0  0  0  0
  191.7040  176.2730  146.1570 C   0  0  0  0  0  3  0  0  0  0  0  0
  183.6220  178.9240  143.8870 C   0  0  0  0  0  2  0  0  0  0  0  0
  183.9200  178.0380  141.6710 N   0  0  0  0  0  2  0  0  0  0  0  0
  192.0650  176.4030  143.8270 F   0  0  0  0  0  0  0  0  0  0  0  0
  187.8560  177.8650  145.7250 C   0  0  0  0  0  0  0  0  0  0  0  0
  190.8990  176.4610  147.2800 C   0  0  0  0  0  3  0  0  0  0  0  0
  189.9390  177.1470  144.7180 C   0  0  0  0  0  0  0  0  0  0  0  0
  187.3450  178.1880  144.5000 C   0  0  0  0  0  0  0  0  0  0  0  0
  184.6940  178.0180  146.5950 O   0  0  0  0  0  1  0  0  0  0  0  0
  186.0050  178.8350  144.6770 C   0  0  1  0  0  3  0  0  0  0  0  0
  182.9130  178.4760  142.6310 C   0  0  0  0  0  2  0  0  0  0  0  0
  185.9100  179.8310  141.1930 O   0  0  0  0  0  0  0  0  0  0  0  0
  189.6150  176.9870  147.1400 C   0  0  0  0  0  3  0  0  0  0  0  0
  189.1300  177.3250  145.8730 C   0  0  0  0  0  0  0  0  0  0  0  0
  186.2350  178.7930  141.8320 C   0  0  0  0  0  0  0  0  0  0  0  0
  189.3680  176.3090  140.4130 O   0  0  0  0  0  0  0  0  0  0  0  0
  190.6320  176.3850  138.4340 C   0  0  0  0  0  2  0  0  0  0  0  0
  189.5320  176.0100  139.0660 C   0  0  0  0  0  3  0  0  0  0  0  0
  1 19  1  0  0  0  0
  2 13  1  0  0  0  0
  4  1  2  0  0  0  0
  4 20  1  0  0  0  0
  5  1  1  0  0  0  0
  6  8  2  0  0  0  0
  7 15  1  6  0  0  0
  7  9  1  0  0  0  0
  8 11  1  0  0  0  0
  8 12  1  0  0  0  0
  9 14  1  6  0  0  0
  9 22  1  0  0  0  0
 10 21  1  6  0  0  0
 10  3  1  0  0  0  0
 11 28  1  1  0  0  0
 11  5  1  0  0  0  0
 12  4  1  0  0  0  0
 13 18  2  0  0  0  0
 15 23  1  0  0  0  0
 16  2  1  0  0  0  0
 17 26  1  0  0  0  0
 17  3  1  0  0  0  0
 19  2  2  0  0  0  0
 19 26  1  0  0  0  0
 20 17  2  0  0  0  0
 22 20  1  1  0  0  0
 22 10  1  0  0  0  0
 23 14  1  0  0  0  0
 24 27  2  0  0  0  0
 25 18  1  0  0  0  0
 26 25  2  0  0  0  0
 27 12  1  0  0  0  0
 27  7  1  0  0  0  0
 29 30  2  0  0  0  0
 30 28  1  0  0  0  0
M  END
>  <MODEL>
1

>  <REMARK>
 VINA RESULT:      -9.9      0.000      0.000
  Name = 
  2 active torsions:
  status: ('A' for Active; 'I' for Inactive)
    1  A    between atoms: C_11  and  O_28
    2  A    between atoms: O_28  and  C_30
                            x       y       z     vdW  Elec       q    Type
                         _______ _______ _______ _____ _____    ______ ____

>  <TORSDO>
F 2

$$$$
=
 OpenBabel11122410323D

 30 35  0  0  1  0  0  0  0  0999 V2000
  187.9020  178.1020  143.6360 C   0  0  0  0  0  0  0  0  0  0  0  0
  189.1090  177.6020  145.7530 C   0  0  0  0  0  0  0  0  0  0  0  0
  184.3530  178.7880  145.6840 O   0  0  0  0  0  0  0  0  0  0  0  0
  186.6920  178.4220  142.9720 C   0  0  0  0  0  0  0  0  0  0  0  0
  189.1100  178.0130  142.8690 N   0  0  0  0  0  2  0  0  0  0  0  0
  188.0410  179.1450  139.6820 O   0  0  0  0  0  0  0  0  0  0  0  0
  184.3510  177.7860  141.0790 C   0  0  1  0  0  3  0  0  0  0  0  0
  187.9470  178.6390  140.8320 C   0  0  0  0  0  0  0  0  0  0  0  0
  183.5110  178.1420  142.3040 C   0  0  2  0  0  3  0  0  0  0  0  0
  183.4120  179.1670  144.6850 C   0  0  2  0  0  3  0  0  0  0  0  0
  189.1270  177.9310  141.4120 C   0  0  2  0  0  3  0  0  0  0  0  0
  186.6950  178.6500  141.5430 N   0  0  0  0  0  0  0  0  0  0  0  0
  189.0850  177.4680  147.1450 C   0  0  0  0  0  3  0  0  0  0  0  0
  182.2710  178.7620  141.7250 C   0  0  0  0  0  2  0  0  0  0  0  0
  183.4560  177.6880  139.9280 N   0  0  0  0  0  2  0  0  0  0  0  0
  190.2870  177.3910  145.1140 F   0  0  0  0  0  0  0  0  0  0  0  0
  185.5690  178.4800  145.1110 C   0  0  0  0  0  0  0  0  0  0  0  0
  187.9030  177.6690  147.8570 C   0  0  0  0  0  3  0  0  0  0  0  0
  187.9290  177.9390  145.0500 C   0  0  0  0  0  0  0  0  0  0  0  0
  185.5330  178.5980  143.7510 C   0  0  0  0  0  0  0  0  0  0  0  0
  182.3110  178.3060  144.7400 O   0  0  0  0  0  1  0  0  0  0  0  0
  184.1770  179.0760  143.3300 C   0  0  1  0  0  3  0  0  0  0  0  0
  182.1270  178.0910  140.3790 C   0  0  0  0  0  2  0  0  0  0  0  0
  185.3240  179.6670  139.9420 O   0  0  0  0  0  0  0  0  0  0  0  0
  186.7290  178.0020  147.1840 C   0  0  0  0  0  3  0  0  0  0  0  0
  186.7320  178.1330  145.7920 C   0  0  0  0  0  0  0  0  0  0  0  0
  185.4670  178.7570  140.8040 C   0  0  0  0  0  0  0  0  0  0  0  0
  189.0970  176.5700  141.0100 O   0  0  0  0  0  0  0  0  0  0  0  0
  190.9000  176.7270  139.5110 C   0  0  0  0  0  2  0  0  0  0  0  0
  189.7590  176.1560  139.8600 C   0  0  0  0  0  3  0  0  0  0  0  0
  1 19  1  0  0  0  0
  2 13  1  0  0  0  0
  4  1  2  0  0  0  0
  4 20  1  0  0  0  0
  5  1  1  0  0  0  0
  6  8  2  0  0  0  0
  7 15  1  6  0  0  0
  7  9  1  0  0  0  0
  8 11  1  0  0  0  0
  8 12  1  0  0  0  0
  9 14  1  6  0  0  0
  9 22  1  0  0  0  0
 10 21  1  6  0  0  0
 10  3  1  0  0  0  0
 11 28  1  1  0  0  0
 11  5  1  0  0  0  0
 12  4  1  0  0  0  0
 13 18  2  0  0  0  0
 15 23  1  0  0  0  0
 16  2  1  0  0  0  0
 17  3  1  0  0  0  0
 17 26  1  0  0  0  0
 19  2  2  0  0  0  0
 19 26  1  0  0  0  0
 20 17  2  0  0  0  0
 22 20  1  1  0  0  0
 22 10  1  0  0  0  0
 23 14  1  0  0  0  0
 24 27  2  0  0  0  0
 25 18  1  0  0  0  0
 26 25  2  0  0  0  0
 27  7  1  0  0  0  0
 27 12  1  0  0  0  0
 29 30  2  0  0  0  0
 30 28  1  0  0  0  0
M  END
>  <MODEL>
2

>  <REMARK>
 VINA RESULT:      -9.3      1.432      2.095
  Name = 
  2 active torsions:
  status: ('A' for Active; 'I' for Inactive)
    1  A    between atoms: C_11  and  O_28
    2  A    between atoms: O_28  and  C_30
                            x       y       z     vdW  Elec       q    Type
                         _______ _______ _______ _____ _____    ______ ____

>  <TORSDO>
F 2

$$$$
=
 OpenBabel11122410323D

 30 35  0  0  1  0  0  0  0  0999 V2000
  188.2830  177.8030  142.0970 C   0  0  0  0  0  0  0  0  0  0  0  0
  189.9170  177.1430  143.8530 C   0  0  0  0  0  0  0  0  0  0  0  0
  185.3750  178.6270  144.9470 O   0  0  0  0  0  0  0  0  0  0  0  0
  186.9760  178.2230  141.7480 C   0  0  0  0  0  0  0  0  0  0  0  0
  189.2660  177.6690  141.0630 N   0  0  0  0  0  2  0  0  0  0  0  0
  187.5580  178.9920  138.2500 O   0  0  0  0  0  0  0  0  0  0  0  0
  184.2150  177.8110  140.4530 C   0  0  1  0  0  3  0  0  0  0  0  0
  187.7020  178.4470  139.3770 C   0  0  0  0  0  0  0  0  0  0  0  0
  183.7160  178.1700  141.8500 C   0  0  2  0  0  3  0  0  0  0  0  0
  184.2530  179.1030  144.2100 C   0  0  2  0  0  3  0  0  0  0  0  0
  188.9340  177.6440  139.6420 C   0  0  2  0  0  3  0  0  0  0  0  0
  186.6570  178.5080  140.3650 N   0  0  0  0  0  0  0  0  0  0  0  0
  190.2130  176.9560  145.2070 C   0  0  0  0  0  3  0  0  0  0  0  0
  182.4200  178.8890  141.5990 C   0  0  0  0  0  2  0  0  0  0  0  0
  183.0690  177.8160  139.5460 N   0  0  0  0  0  2  0  0  0  0  0  0
  190.8930  176.8850  142.9470 F   0  0  0  0  0  0  0  0  0  0  0  0
  186.3960  178.2670  144.0940 C   0  0  0  0  0  0  0  0  0  0  0  0
  189.2490  177.2020  146.1850 C   0  0  0  0  0  3  0  0  0  0  0  0
  188.6310  177.5820  143.4600 C   0  0  0  0  0  0  0  0  0  0  0  0
  186.0490  178.4400  142.7850 C   0  0  0  0  0  0  0  0  0  0  0  0
  183.1390  178.3120  144.5060 O   0  0  0  0  0  1  0  0  0  0  0  0
  184.6690  179.0190  142.7100 C   0  0  1  0  0  3  0  0  0  0  0  0
  181.9170  178.2830  140.3100 C   0  0  0  0  0  2  0  0  0  0  0  0
  185.0220  179.6720  139.1620 O   0  0  0  0  0  0  0  0  0  0  0  0
  187.9760  177.6350  145.8190 C   0  0  0  0  0  3  0  0  0  0  0  0
  187.6600  177.8210  144.4700 C   0  0  0  0  0  0  0  0  0  0  0  0
  185.3000  178.7210  139.9430 C   0  0  0  0  0  0  0  0  0  0  0  0
  188.7140  176.3050  139.2260 O   0  0  0  0  0  0  0  0  0  0  0  0
  190.2080  176.4260  137.4160 C   0  0  0  0  0  2  0  0  0  0  0  0
  189.1480  175.8690  137.9800 C   0  0  0  0  0  3  0  0  0  0  0  0
  1 19  1  0  0  0  0
  2 13  1  0  0  0  0
  4  1  2  0  0  0  0
  4 20  1  0  0  0  0
  5  1  1  0  0  0  0
  6  8  2  0  0  0  0
  7 15  1  6  0  0  0
  7  9  1  0  0  0  0
  8 11  1  0  0  0  0
  8 12  1  0  0  0  0
  9 14  1  6  0  0  0
  9 22  1  0  0  0  0
 10 21  1  6  0  0  0
 10  3  1  0  0  0  0
 11 28  1  1  0  0  0
 11  5  1  0  0  0  0
 12  4  1  0  0  0  0
 13 18  2  0  0  0  0
 15 23  1  0  0  0  0
 16  2  1  0  0  0  0
 17 26  1  0  0  0  0
 17  3  1  0  0  0  0
 19  2  2  0  0  0  0
 19 26  1  0  0  0  0
 20 17  2  0  0  0  0
 22 20  1  1  0  0  0
 22 10  1  0  0  0  0
 23 14  1  0  0  0  0
 24 27  2  0  0  0  0
 25 18  1  0  0  0  0
 26 25  2  0  0  0  0
 27 12  1  0  0  0  0
 27  7  1  0  0  0  0
 29 30  2  0  0  0  0
 30 28  1  0  0  0  0
M  END
>  <MODEL>
3

>  <REMARK>
 VINA RESULT:      -8.9      1.515      2.042
  Name = 
  2 active torsions:
  status: ('A' for Active; 'I' for Inactive)
    1  A    between atoms: C_11  and  O_28
    2  A    between atoms: O_28  and  C_30
                            x       y       z     vdW  Elec       q    Type
                         _______ _______ _______ _____ _____    ______ ____

>  <TORSDO>
F 2

$$$$
=
 OpenBabel11122410323D

 30 35  0  0  1  0  0  0  0  0999 V2000
  188.4540  177.5220  142.5670 C   0  0  0  0  0  0  0  0  0  0  0  0
  187.3060  178.1740  140.4580 C   0  0  0  0  0  0  0  0  0  0  0  0
  185.0280  178.2590  144.7980 O   0  0  0  0  0  0  0  0  0  0  0  0
  188.4210  177.3770  143.9760 C   0  0  0  0  0  0  0  0  0  0  0  0
  189.6330  177.1190  141.8580 N   0  0  0  0  0  2  0  0  0  0  0  0
  191.5470  175.5910  144.4230 O   0  0  0  0  0  0  0  0  0  0  0  0
  189.2770  178.1340  146.8330 C   0  0  1  0  0  3  0  0  0  0  0  0
  190.6910  176.3570  143.9060 C   0  0  0  0  0  0  0  0  0  0  0  0
  187.7730  178.2970  147.0380 C   0  0  2  0  0  3  0  0  0  0  0  0
  185.3710  177.9130  146.1370 C   0  0  2  0  0  3  0  0  0  0  0  0
  190.9090  176.8540  142.5140 C   0  0  2  0  0  3  0  0  0  0  0  0
  189.5670  176.8310  144.6700 N   0  0  0  0  0  0  0  0  0  0  0  0
  186.1520  178.6280  139.8120 C   0  0  0  0  0  3  0  0  0  0  0  0
  187.5570  177.8980  148.4710 C   0  0  0  0  0  2  0  0  0  0  0  0
  189.9230  178.1870  148.1430 N   0  0  0  0  0  2  0  0  0  0  0  0
  188.4030  177.9230  139.7000 F   0  0  0  0  0  0  0  0  0  0  0  0
  186.1160  178.1050  143.9650 C   0  0  0  0  0  0  0  0  0  0  0  0
  184.9940  178.9060  140.5380 C   0  0  0  0  0  3  0  0  0  0  0  0
  187.3120  177.9960  141.8620 C   0  0  0  0  0  0  0  0  0  0  0  0
  187.2230  177.6890  144.6470 C   0  0  0  0  0  0  0  0  0  0  0  0
  185.1490  179.0140  146.9680 O   0  0  0  0  0  1  0  0  0  0  0  0
  186.8710  177.4880  146.0890 C   0  0  1  0  0  3  0  0  0  0  0  0
  188.8620  178.2530  149.1430 C   0  0  0  0  0  2  0  0  0  0  0  0
  190.0400  175.8560  146.7440 O   0  0  0  0  0  0  0  0  0  0  0  0
  184.9790  178.7380  141.9210 C   0  0  0  0  0  3  0  0  0  0  0  0
  186.1250  178.2910  142.5860 C   0  0  0  0  0  0  0  0  0  0  0  0
  189.6580  176.8730  146.1040 C   0  0  0  0  0  0  0  0  0  0  0  0
  191.6780  178.0460  142.5620 O   0  0  0  0  0  0  0  0  0  0  0  0
  191.3050  179.7890  144.0940 C   0  0  0  0  0  2  0  0  0  0  0  0
  191.9400  178.6730  143.7750 C   0  0  0  0  0  3  0  0  0  0  0  0
  1  4  1  0  0  0  0
  2 19  1  0  0  0  0
  3 10  1  0  0  0  0
  4 20  2  0  0  0  0
  4 12  1  0  0  0  0
  5 11  1  0  0  0  0
  5  1  1  0  0  0  0
  7 27  1  1  0  0  0
  7  9  1  0  0  0  0
  7 15  1  0  0  0  0
  8  6  2  0  0  0  0
  8 12  1  0  0  0  0
  9 14  1  1  0  0  0
 10 21  1  1  0  0  0
 11 28  1  1  0  0  0
 11  8  1  0  0  0  0
 12 27  1  0  0  0  0
 13  2  2  0  0  0  0
 13 18  1  0  0  0  0
 14 23  1  0  0  0  0
 15 23  1  0  0  0  0
 16  2  1  0  0  0  0
 17 20  1  0  0  0  0
 17  3  1  0  0  0  0
 18 25  2  0  0  0  0
 19  1  2  0  0  0  0
 19 26  1  0  0  0  0
 22 20  1  6  0  0  0
 22 10  1  0  0  0  0
 22  9  1  0  0  0  0
 25 26  1  0  0  0  0
 26 17  2  0  0  0  0
 27 24  2  0  0  0  0
 28 30  1  0  0  0  0
 30 29  2  0  0  0  0
M  END
>  <MODEL>
4

>  <REMARK>
 VINA RESULT:      -8.9      2.546      5.365
  Name = 
  2 active torsions:
  status: ('A' for Active; 'I' for Inactive)
    1  A    between atoms: C_11  and  O_28
    2  A    between atoms: O_28  and  C_30
                            x       y       z     vdW  Elec       q    Type
                         _______ _______ _______ _____ _____    ______ ____

>  <TORSDO>
F 2

$$$$
=
 OpenBabel11122410323D

 30 35  0  0  1  0  0  0  0  0999 V2000
  186.4210  178.0740  141.5240 C   0  0  0  0  0  0  0  0  0  0  0  0
  184.0750  178.8470  141.2280 C   0  0  0  0  0  0  0  0  0  0  0  0
  185.9220  177.7520  145.6350 O   0  0  0  0  0  0  0  0  0  0  0  0
  187.4740  177.6860  142.3870 C   0  0  0  0  0  0  0  0  0  0  0  0
  186.6360  178.0310  140.1070 N   0  0  0  0  0  2  0  0  0  0  0  0
  189.8180  176.4780  139.8950 O   0  0  0  0  0  0  0  0  0  0  0  0
  190.2160  178.0900  143.7240 C   0  0  1  0  0  3  0  0  0  0  0  0
  188.8770  177.1440  140.4030 C   0  0  0  0  0  0  0  0  0  0  0  0
  189.4040  177.9270  145.0070 C   0  0  2  0  0  3  0  0  0  0  0  0
  187.1630  177.2530  146.1250 C   0  0  2  0  0  3  0  0  0  0  0  0
  187.9590  177.9050  139.5030 C   0  0  2  0  0  3  0  0  0  0  0  0
  188.7400  177.2570  141.8310 N   0  0  0  0  0  0  0  0  0  0  0  0
  182.8400  179.1770  141.7970 C   0  0  0  0  0  3  0  0  0  0  0  0
  190.3560  177.2540  145.9550 C   0  0  0  0  0  2  0  0  0  0  0  0
  191.6340  178.0400  144.0750 N   0  0  0  0  0  2  0  0  0  0  0  0
  184.2010  178.9430  139.8810 F   0  0  0  0  0  0  0  0  0  0  0  0
  185.9860  177.9520  144.2730 C   0  0  0  0  0  0  0  0  0  0  0  0
  182.6500  179.1020  143.1760 C   0  0  0  0  0  3  0  0  0  0  0  0
  185.1490  178.4350  142.0510 C   0  0  0  0  0  0  0  0  0  0  0  0
  187.2170  177.6440  143.7710 C   0  0  0  0  0  0  0  0  0  0  0  0
  187.6640  178.1330  147.0890 O   0  0  0  0  0  1  0  0  0  0  0  0
  188.0900  177.1360  144.8770 C   0  0  1  0  0  3  0  0  0  0  0  0
  191.7150  177.7300  145.4990 C   0  0  0  0  0  2  0  0  0  0  0  0
  190.6220  176.0490  142.5210 O   0  0  0  0  0  0  0  0  0  0  0  0
  183.6960  178.6980  144.0050 C   0  0  0  0  0  3  0  0  0  0  0  0
  184.9390  178.3710  143.4560 C   0  0  0  0  0  0  0  0  0  0  0  0
  189.8940  177.0690  142.6660 C   0  0  0  0  0  0  0  0  0  0  0  0
  188.5020  179.1950  139.2690 O   0  0  0  0  0  0  0  0  0  0  0  0
  188.9320  178.8370  136.9860 C   0  0  0  0  0  2  0  0  0  0  0  0
  189.2320  179.4580  138.1160 C   0  0  0  0  0  3  0  0  0  0  0  0
  1 19  2  0  0  0  0
  1  4  1  0  0  0  0
  2 13  2  0  0  0  0
  2 19  1  0  0  0  0
  3 10  1  0  0  0  0
  4 20  2  0  0  0  0
  5  1  1  0  0  0  0
  6  8  2  0  0  0  0
  7 27  1  6  0  0  0
  7 15  1  0  0  0  0
  7  9  1  0  0  0  0
  8 12  1  0  0  0  0
  9 14  1  1  0  0  0
 10 21  1  1  0  0  0
 11 28  1  1  0  0  0
 11  5  1  0  0  0  0
 11  8  1  0  0  0  0
 12  4  1  0  0  0  0
 12 27  1  0  0  0  0
 13 18  1  0  0  0  0
 15 23  1  0  0  0  0
 16  2  1  0  0  0  0
 17  3  1  0  0  0  0
 18 25  2  0  0  0  0
 19 26  1  0  0  0  0
 20 17  1  0  0  0  0
 22 20  1  6  0  0  0
 22  9  1  0  0  0  0
 22 10  1  0  0  0  0
 23 14  1  0  0  0  0
 24 27  2  0  0  0  0
 26 25  1  0  0  0  0
 26 17  2  0  0  0  0
 29 30  2  0  0  0  0
 30 28  1  0  0  0  0
M  END
>  <MODEL>
5

>  <REMARK>
 VINA RESULT:      -8.8      2.242      5.414
  Name = 
  2 active torsions:
  status: ('A' for Active; 'I' for Inactive)
    1  A    between atoms: C_11  and  O_28
    2  A    between atoms: O_28  and  C_30
                            x       y       z     vdW  Elec       q    Type
                         _______ _______ _______ _____ _____    ______ ____

>  <TORSDO>
F 2

$$$$
=
 OpenBabel11122410323D

 30 35  0  0  1  0  0  0  0  0999 V2000
  186.4180  178.4310  142.3060 C   0  0  0  0  0  0  0  0  0  0  0  0
  186.0610  178.4490  144.7680 C   0  0  0  0  0  0  0  0  0  0  0  0
  182.3440  178.8260  141.5940 O   0  0  0  0  0  0  0  0  0  0  0  0
  185.8750  178.4490  140.9980 C   0  0  0  0  0  0  0  0  0  0  0  0
  187.8420  178.4280  142.4630 N   0  0  0  0  0  2  0  0  0  0  0  0
  188.9520  178.8910  139.1260 O   0  0  0  0  0  0  0  0  0  0  0  0
  185.2460  177.1710  138.2700 C   0  0  1  0  0  3  0  0  0  0  0  0
  188.1800  178.5500  140.0620 C   0  0  0  0  0  0  0  0  0  0  0  0
  183.8150  177.5630  138.6280 C   0  0  2  0  0  3  0  0  0  0  0  0
  182.2170  178.8960  140.1770 C   0  0  2  0  0  3  0  0  0  0  0  0
  188.7660  178.1360  141.3720 C   0  0  2  0  0  3  0  0  0  0  0  0
  186.7580  178.4630  139.8520 N   0  0  0  0  0  0  0  0  0  0  0  0
  185.1800  178.5200  145.8520 C   0  0  0  0  0  3  0  0  0  0  0  0
  183.1830  177.8820  137.3030 C   0  0  0  0  0  2  0  0  0  0  0  0
  185.2670  176.7620  136.8670 N   0  0  0  0  0  2  0  0  0  0  0  0
  187.3870  178.3410  145.0320 F   0  0  0  0  0  0  0  0  0  0  0  0
  183.6620  178.6380  141.9520 C   0  0  0  0  0  0  0  0  0  0  0  0
  183.8050  178.6280  145.6440 C   0  0  0  0  0  3  0  0  0  0  0  0
  185.5640  178.4840  143.4440 C   0  0  0  0  0  0  0  0  0  0  0  0
  184.4770  178.5470  140.8600 C   0  0  0  0  0  0  0  0  0  0  0  0
  181.3530  177.8860  139.7430 O   0  0  0  0  0  1  0  0  0  0  0  0
  183.6620  178.7330  139.6170 C   0  0  1  0  0  3  0  0  0  0  0  0
  183.9330  177.0060  136.3270 C   0  0  0  0  0  2  0  0  0  0  0  0
  186.6470  178.9980  137.5770 O   0  0  0  0  0  0  0  0  0  0  0  0
  183.2950  178.6640  144.3470 C   0  0  0  0  0  3  0  0  0  0  0  0
  184.1600  178.5880  143.2510 C   0  0  0  0  0  0  0  0  0  0  0  0
  186.2550  178.2590  138.5210 C   0  0  0  0  0  0  0  0  0  0  0  0
  189.0430  176.7450  141.3380 O   0  0  0  0  0  0  0  0  0  0  0  0
  190.5560  175.9720  142.9620 C   0  0  0  0  0  2  0  0  0  0  0  0
  189.3150  176.0470  142.5090 C   0  0  0  0  0  3  0  0  0  0  0  0
  1  5  1  0  0  0  0
  1 19  1  0  0  0  0
  2 16  1  0  0  0  0
  2 13  1  0  0  0  0
  3 17  1  0  0  0  0
  4  1  2  0  0  0  0
  6  8  2  0  0  0  0
  7 15  1  6  0  0  0
  7 27  1  0  0  0  0
  7  9  1  0  0  0  0
  8 11  1  0  0  0  0
  9 14  1  6  0  0  0
  9 22  1  0  0  0  0
 10 21  1  6  0  0  0
 10  3  1  0  0  0  0
 11 28  1  6  0  0  0
 11  5  1  0  0  0  0
 12  8  1  0  0  0  0
 12  4  1  0  0  0  0
 17 26  1  0  0  0  0
 18 13  2  0  0  0  0
 19  2  2  0  0  0  0
 20  4  1  0  0  0  0
 20 17  2  0  0  0  0
 22 10  1  0  0  0  0
 22 20  1  1  0  0  0
 23 15  1  0  0  0  0
 23 14  1  0  0  0  0
 24 27  2  0  0  0  0
 25 18  1  0  0  0  0
 26 19  1  0  0  0  0
 26 25  2  0  0  0  0
 27 12  1  0  0  0  0
 28 30  1  0  0  0  0
 30 29  2  0  0  0  0
M  END
>  <MODEL>
6

>  <REMARK>
 VINA RESULT:      -8.7      2.928      5.058
  Name = 
  2 active torsions:
  status: ('A' for Active; 'I' for Inactive)
    1  A    between atoms: C_11  and  O_28
    2  A    between atoms: O_28  and  C_30
                            x       y       z     vdW  Elec       q    Type
                         _______ _______ _______ _____ _____    ______ ____

>  <TORSDO>
F 2

$$$$
=
 OpenBabel11122410323D

 30 35  0  0  1  0  0  0  0  0999 V2000
  187.0200  178.1200  142.7770 C   0  0  0  0  0  0  0  0  0  0  0  0
  185.6320  178.2660  144.8370 C   0  0  0  0  0  0  0  0  0  0  0  0
  183.8060  179.2290  140.3910 O   0  0  0  0  0  0  0  0  0  0  0  0
  187.1160  178.2020  141.3660 C   0  0  0  0  0  0  0  0  0  0  0  0
  188.2070  177.8610  143.5370 N   0  0  0  0  0  2  0  0  0  0  0  0
  190.7250  178.0290  141.0440 O   0  0  0  0  0  0  0  0  0  0  0  0
  187.5300  176.9900  138.5680 C   0  0  1  0  0  3  0  0  0  0  0  0
  189.5760  177.8580  141.5310 C   0  0  0  0  0  0  0  0  0  0  0  0
  186.1780  177.6440  138.2910 C   0  0  2  0  0  3  0  0  0  0  0  0
  184.3240  179.2850  139.0660 C   0  0  2  0  0  3  0  0  0  0  0  0
  189.4490  177.3790  142.9400 C   0  0  2  0  0  3  0  0  0  0  0  0
  188.3990  178.0260  140.7200 N   0  0  0  0  0  0  0  0  0  0  0  0
  184.3930  178.5230  145.4330 C   0  0  0  0  0  3  0  0  0  0  0  0
  186.2560  178.0380  136.8430 C   0  0  0  0  0  2  0  0  0  0  0  0
  188.0900  176.5480  137.2930 N   0  0  0  0  0  2  0  0  0  0  0  0
  186.6680  177.9250  145.6440 F   0  0  0  0  0  0  0  0  0  0  0  0
  184.7790  178.8150  141.2740 C   0  0  0  0  0  0  0  0  0  0  0  0
  183.2900  178.8740  144.6550 C   0  0  0  0  0  3  0  0  0  0  0  0
  185.7790  178.3560  143.4330 C   0  0  0  0  0  0  0  0  0  0  0  0
  185.9590  178.5490  140.6410 C   0  0  0  0  0  0  0  0  0  0  0  0
  183.5760  178.4380  138.2430 O   0  0  0  0  0  1  0  0  0  0  0  0
  185.8170  178.8470  139.1800 C   0  0  1  0  0  3  0  0  0  0  0  0
  187.1920  177.0160  136.2420 C   0  0  0  0  0  2  0  0  0  0  0  0
  189.3880  178.5130  138.6560 O   0  0  0  0  0  0  0  0  0  0  0  0
  183.4130  178.9690  143.2690 C   0  0  0  0  0  3  0  0  0  0  0  0
  184.6420  178.7090  142.6550 C   0  0  0  0  0  0  0  0  0  0  0  0
  188.5000  177.8830  139.2940 C   0  0  0  0  0  0  0  0  0  0  0  0
  189.4640  175.9590  142.9510 O   0  0  0  0  0  0  0  0  0  0  0  0
  191.5880  175.8200  143.9490 C   0  0  0  0  0  2  0  0  0  0  0  0
  190.6410  175.2650  143.2100 C   0  0  0  0  0  3  0  0  0  0  0  0
  1 19  1  0  0  0  0
  1  5  1  0  0  0  0
  2 13  1  0  0  0  0
  2 16  1  0  0  0  0
  3 17  1  0  0  0  0
  4  1  2  0  0  0  0
  6  8  2  0  0  0  0
  7 15  1  6  0  0  0
  7 27  1  0  0  0  0
  8 11  1  0  0  0  0
  9 14  1  6  0  0  0
  9  7  1  0  0  0  0
  9 22  1  0  0  0  0
 10 21  1  6  0  0  0
 10 22  1  0  0  0  0
 10  3  1  0  0  0  0
 11 28  1  6  0  0  0
 11  5  1  0  0  0  0
 12  4  1  0  0  0  0
 12  8  1  0  0  0  0
 17 26  1  0  0  0  0
 18 13  2  0  0  0  0
 19  2  2  0  0  0  0
 20 17  2  0  0  0  0
 20  4  1  0  0  0  0
 22 20  1  1  0  0  0
 23 14  1  0  0  0  0
 23 15  1  0  0  0  0
 24 27  2  0  0  0  0
 25 18  1  0  0  0  0
 26 25  2  0  0  0  0
 26 19  1  0  0  0  0
 27 12  1  0  0  0  0
 28 30  1  0  0  0  0
 30 29  2  0  0  0  0
M  END
>  <MODEL>
7

>  <REMARK>
 VINA RESULT:      -8.6      2.724      5.473
  Name = 
  2 active torsions:
  status: ('A' for Active; 'I' for Inactive)
    1  A    between atoms: C_11  and  O_28
    2  A    between atoms: O_28  and  C_30
                            x       y       z     vdW  Elec       q    Type
                         _______ _______ _______ _____ _____    ______ ____

>  <TORSDO>
F 2

$$$$
=
 OpenBabel11122410323D

 30 35  0  0  1  0  0  0  0  0999 V2000
  187.9530  178.0680  144.8480 C   0  0  0  0  0  0  0  0  0  0  0  0
  185.9000  178.2620  146.2390 C   0  0  0  0  0  0  0  0  0  0  0  0
  185.7890  178.6840  141.3560 O   0  0  0  0  0  0  0  0  0  0  0  0
  188.5570  178.0410  143.5670 C   0  0  0  0  0  0  0  0  0  0  0  0
  188.7900  177.9810  146.0090 N   0  0  0  0  0  2  0  0  0  0  0  0
  192.0360  178.1650  144.5900 O   0  0  0  0  0  0  0  0  0  0  0  0
  190.0340  176.6410  141.2590 C   0  0  1  0  0  3  0  0  0  0  0  0
  190.7990  177.9330  144.6450 C   0  0  0  0  0  0  0  0  0  0  0  0
  188.8470  177.1460  140.4430 C   0  0  2  0  0  3  0  0  0  0  0  0
  186.7550  178.6740  140.3100 C   0  0  2  0  0  3  0  0  0  0  0  0
  190.1870  177.5640  145.9570 C   0  0  2  0  0  3  0  0  0  0  0  0
  189.9950  177.9260  143.4510 N   0  0  0  0  0  0  0  0  0  0  0  0
  184.5170  178.4560  146.3160 C   0  0  0  0  0  3  0  0  0  0  0  0
  189.4310  177.4240  139.0860 C   0  0  0  0  0  2  0  0  0  0  0  0
  191.0470  176.1450  140.3290 N   0  0  0  0  0  2  0  0  0  0  0  0
  186.5820  178.0830  147.3980 F   0  0  0  0  0  0  0  0  0  0  0  0
  186.3890  178.4330  142.5710 C   0  0  0  0  0  0  0  0  0  0  0  0
  183.7600  178.6420  145.1590 C   0  0  0  0  0  3  0  0  0  0  0  0
  186.5470  178.2470  144.9820 C   0  0  0  0  0  0  0  0  0  0  0  0
  187.7320  178.2220  142.4400 C   0  0  0  0  0  0  0  0  0  0  0  0
  186.4070  177.6980  139.3720 O   0  0  0  0  0  1  0  0  0  0  0  0
  188.1210  178.3830  141.0030 C   0  0  1  0  0  3  0  0  0  0  0  0
  190.5750  176.4420  138.9800 C   0  0  0  0  0  2  0  0  0  0  0  0
  191.6470  178.3260  141.8420 O   0  0  0  0  0  0  0  0  0  0  0  0
  184.3790  178.6300  143.9100 C   0  0  0  0  0  3  0  0  0  0  0  0
  185.7590  178.4310  143.8130 C   0  0  0  0  0  0  0  0  0  0  0  0
  190.6210  177.6740  142.1830 C   0  0  0  0  0  0  0  0  0  0  0  0
  190.2720  176.1570  146.1300 O   0  0  0  0  0  0  0  0  0  0  0  0
  192.3220  175.6470  147.1600 C   0  0  0  0  0  2  0  0  0  0  0  0
  191.0000  175.6150  147.1820 C   0  0  0  0  0  3  0  0  0  0  0  0
  1 19  1  0  0  0  0
  1  5  1  0  0  0  0
  2 13  1  0  0  0  0
  2 16  1  0  0  0  0
  3 17  1  0  0  0  0
  4  1  2  0  0  0  0
  6  8  2  0  0  0  0
  7 15  1  6  0  0  0
  7 27  1  0  0  0  0
  8 11  1  0  0  0  0
  9 14  1  6  0  0  0
  9 22  1  0  0  0  0
  9  7  1  0  0  0  0
 10 21  1  6  0  0  0
 10 22  1  0  0  0  0
 10  3  1  0  0  0  0
 11  5  1  0  0  0  0
 11 28  1  6  0  0  0
 12  4  1  0  0  0  0
 12  8  1  0  0  0  0
 17 26  1  0  0  0  0
 18 13  2  0  0  0  0
 19  2  2  0  0  0  0
 20 17  2  0  0  0  0
 20  4  1  0  0  0  0
 22 20  1  1  0  0  0
 23 14  1  0  0  0  0
 23 15  1  0  0  0  0
 24 27  2  0  0  0  0
 25 18  1  0  0  0  0
 26 25  2  0  0  0  0
 26 19  1  0  0  0  0
 27 12  1  0  0  0  0
 28 30  1  0  0  0  0
 29 30  2  0  0  0  0
M  END
>  <MODEL>
8

>  <REMARK>
 VINA RESULT:      -8.5      2.458      5.824
  Name = 
  2 active torsions:
  status: ('A' for Active; 'I' for Inactive)
    1  A    between atoms: C_11  and  O_28
    2  A    between atoms: O_28  and  C_30
                            x       y       z     vdW  Elec       q    Type
                         _______ _______ _______ _____ _____    ______ ____

>  <TORSDO>
F 2

$$$$
=
 OpenBabel11122410323D

 30 35  0  0  1  0  0  0  0  0999 V2000
  188.5630  177.7690  141.4450 C   0  0  0  0  0  0  0  0  0  0  0  0
  189.2760  177.3240  143.7870 C   0  0  0  0  0  0  0  0  0  0  0  0
  184.6910  178.6500  142.6660 O   0  0  0  0  0  0  0  0  0  0  0  0
  187.5340  178.0960  140.5280 C   0  0  0  0  0  0  0  0  0  0  0  0
  189.9010  177.6100  140.9560 N   0  0  0  0  0  2  0  0  0  0  0  0
  189.5750  178.6360  137.5760 O   0  0  0  0  0  0  0  0  0  0  0  0
  185.6230  177.4500  138.2050 C   0  0  1  0  0  3  0  0  0  0  0  0
  189.2200  178.1820  138.6970 C   0  0  0  0  0  0  0  0  0  0  0  0
  184.5580  177.8850  139.2090 C   0  0  2  0  0  3  0  0  0  0  0  0
  183.9970  179.0140  141.4760 C   0  0  2  0  0  3  0  0  0  0  0  0
  190.2230  177.4650  139.5400 C   0  0  2  0  0  3  0  0  0  0  0  0
  187.8480  178.2630  139.1250 N   0  0  0  0  0  0  0  0  0  0  0  0
  188.9530  177.2520  145.1460 C   0  0  0  0  0  3  0  0  0  0  0  0
  183.4930  178.5170  138.3580 C   0  0  0  0  0  2  0  0  0  0  0  0
  184.9880  177.3310  136.8930 N   0  0  0  0  0  2  0  0  0  0  0  0
  190.5530  177.0500  143.4210 F   0  0  0  0  0  0  0  0  0  0  0  0
  185.9870  178.2810  142.3760 C   0  0  0  0  0  0  0  0  0  0  0  0
  187.6550  177.5190  145.5830 C   0  0  0  0  0  3  0  0  0  0  0  0
  188.2840  177.6670  142.8370 C   0  0  0  0  0  0  0  0  0  0  0  0
  186.2440  178.3410  141.0360 C   0  0  0  0  0  0  0  0  0  0  0  0
  182.8770  178.1900  141.3270 O   0  0  0  0  0  1  0  0  0  0  0  0
  185.0280  178.8420  140.3190 C   0  0  1  0  0  3  0  0  0  0  0  0
  183.6110  177.7930  137.0380 C   0  0  0  0  0  2  0  0  0  0  0  0
  186.8860  179.2500  137.2340 O   0  0  0  0  0  0  0  0  0  0  0  0
  186.6640  177.8580  144.6630 C   0  0  0  0  0  3  0  0  0  0  0  0
  186.9660  177.9290  143.3000 C   0  0  0  0  0  0  0  0  0  0  0  0
  186.8090  178.3740  138.1380 C   0  0  0  0  0  0  0  0  0  0  0  0
  190.2260  176.0890  139.1900 O   0  0  0  0  0  0  0  0  0  0  0  0
  192.2700  176.2720  138.0440 C   0  0  0  0  0  2  0  0  0  0  0  0
  191.1660  175.5870  138.2980 C   0  0  0  0  0  3  0  0  0  0  0  0
  1 19  1  0  0  0  0
  2 13  1  0  0  0  0
  4 20  1  0  0  0  0
  4  1  2  0  0  0  0
  5  1  1  0  0  0  0
  6  8  2  0  0  0  0
  7 15  1  6  0  0  0
  7  9  1  0  0  0  0
  8 12  1  0  0  0  0
  8 11  1  0  0  0  0
  9 14  1  6  0  0  0
  9 22  1  0  0  0  0
 10 21  1  6  0  0  0
 10  3  1  0  0  0  0
 11 28  1  6  0  0  0
 11  5  1  0  0  0  0
 12  4  1  0  0  0  0
 13 18  2  0  0  0  0
 15 23  1  0  0  0  0
 16  2  1  0  0  0  0
 17  3  1  0  0  0  0
 17 26  1  0  0  0  0
 19 26  1  0  0  0  0
 19  2  2  0  0  0  0
 20 17  2  0  0  0  0
 22 20  1  1  0  0  0
 22 10  1  0  0  0  0
 23 14  1  0  0  0  0
 24 27  2  0  0  0  0
 25 18  1  0  0  0  0
 26 25  2  0  0  0  0
 27  7  1  0  0  0  0
 27 12  1  0  0  0  0
 29 30  2  0  0  0  0
 30 28  1  0  0  0  0
M  END
>  <MODEL>
9

>  <REMARK>
 VINA RESULT:      -8.4      2.471      3.646
  Name = 
  2 active torsions:
  status: ('A' for Active; 'I' for Inactive)
    1  A    between atoms: C_11  and  O_28
    2  A    between atoms: O_28  and  C_30
                            x       y       z     vdW  Elec       q    Type
                         _______ _______ _______ _____ _____    ______ ____

>  <TORSDO>
F 2

$$$$
