=
 OpenBabel11122411523D

 28 31  0  0  1  0  0  0  0  0999 V2000
  180.8380  178.6670  137.9050 C   0  0  0  0  0  0  0  0  0  0  0  0
  184.4130  180.1750  139.2390 O   0  0  0  0  0  0  0  0  0  0  0  0
  179.4960  178.7580  140.3600 C   0  0  0  0  0  3  0  0  0  0  0  0
  181.5120  178.6140  136.6840 O   0  0  0  0  0  0  0  0  0  0  0  0
  184.7200  178.2470  140.7380 O   0  0  0  0  0  0  0  0  0  0  0  0
  184.8020  178.7250  139.3160 S   0  0  0  0  0  0  0  0  0  0  0  0
  186.3540  178.3110  137.2580 C   0  0  1  0  0  3  0  0  0  0  0  0
  183.7580  177.7570  138.2600 C   0  0  1  0  0  3  0  0  0  0  0  0
  178.9390  176.8230  135.7100 C   0  0  0  0  0  1  0  0  0  0  0  0
  182.4290  175.7780  138.1260 C   0  0  2  0  0  3  0  0  0  0  0  0
  185.6740  176.9820  136.8540 C   0  0  0  0  0  2  0  0  0  0  0  0
  186.4210  178.5060  138.7130 N   0  0  0  0  0  2  0  0  0  0  0  0
  180.3720  177.0190  135.2380 C   0  0  2  0  0  3  0  0  0  0  0  0
  181.3600  177.9760  139.0160 C   0  0  0  0  0  0  0  0  0  0  0  0
  187.7470  178.3700  136.6680 C   0  0  0  0  0  1  0  0  0  0  0  0
  181.3520  175.9680  135.7810 C   0  0  0  0  0  2  0  0  0  0  0  0
  180.6790  178.0240  140.2370 C   0  0  0  0  0  3  0  0  0  0  0  0
  179.6440  179.3920  138.0310 C   0  0  0  0  0  3  0  0  0  0  0  0
  178.9780  179.4400  139.2580 C   0  0  0  0  0  3  0  0  0  0  0  0
  180.8400  178.4610  135.4410 C   0  0  0  0  0  2  0  0  0  0  0  0
  183.6560  175.5680  137.3390 N   0  0  0  0  0  0  0  0  0  0  0  0
  181.1510  175.6450  137.2700 C   0  0  1  0  0  3  0  0  0  0  0  0
  184.5770  176.5770  137.8410 C   0  0  2  0  0  3  0  0  0  0  0  0
  182.5820  177.0960  138.9180 C   0  0  2  0  0  3  0  0  0  0  0  0
  179.9930  174.3460  138.6400 C   0  0  0  0  0  1  0  0  0  0  0  0
  180.6330  174.3540  137.4000 O   0  0  0  0  0  0  0  0  0  0  0  0
  184.1940  174.2710  137.7260 C   0  0  0  0  0  2  0  0  0  0  0  0
  183.9690  173.2700  136.6090 C   0  0  0  0  0  1  0  0  0  0  0  0
  1 18  2  0  0  0  0
  1 14  1  0  0  0  0
  2  6  2  0  0  0  0
  4  1  1  0  0  0  0
  6  5  2  0  0  0  0
  7 15  1  1  0  0  0
  7 12  1  0  0  0  0
  8 24  1  0  0  0  0
  8  6  1  1  0  0  0
 10 21  1  6  0  0  0
 10 24  1  0  0  0  0
 11  7  1  0  0  0  0
 12  6  1  0  0  0  0
 13 20  1  0  0  0  0
 13  9  1  1  0  0  0
 13 16  1  0  0  0  0
 14 17  2  0  0  0  0
 16 22  1  0  0  0  0
 17  3  1  0  0  0  0
 18 19  1  0  0  0  0
 19  3  2  0  0  0  0
 20  4  1  0  0  0  0
 21 27  1  0  0  0  0
 21 23  1  0  0  0  0
 22 26  1  6  0  0  0
 22 10  1  0  0  0  0
 23 11  1  6  0  0  0
 23  8  1  0  0  0  0
 24 14  1  6  0  0  0
 26 25  1  0  0  0  0
 28 27  1  0  0  0  0
M  END
>  <MODEL>
1

>  <REMARK>
 VINA RESULT:      -4.8      0.000      0.000
  Name = 
  2 active torsions:
  status: ('A' for Active; 'I' for Inactive)
    1  A    between atoms: C_5  and  N_24
    2  A    between atoms: O_17  and  C_25
                            x       y       z     vdW  Elec       q    Type
                         _______ _______ _______ _____ _____    ______ ____

>  <TORSDO>
F 2

$$$$
=
 OpenBabel11122411523D

 28 31  0  0  1  0  0  0  0  0999 V2000
  182.4200  175.9640  138.6580 C   0  0  0  0  0  0  0  0  0  0  0  0
  185.2680  177.5230  141.1670 O   0  0  0  0  0  0  0  0  0  0  0  0
  183.7320  176.5470  136.2550 C   0  0  0  0  0  3  0  0  0  0  0  0
  181.7640  175.6820  139.8570 O   0  0  0  0  0  0  0  0  0  0  0  0
  184.9210  179.7750  140.2370 O   0  0  0  0  0  0  0  0  0  0  0  0
  184.3700  178.7270  141.1620 S   0  0  0  0  0  0  0  0  0  0  0  0
  183.1340  178.6830  143.4610 C   0  0  1  0  0  3  0  0  0  0  0  0
  182.7270  178.2610  140.6850 C   0  0  1  0  0  3  0  0  0  0  0  0
  179.1960  175.0220  137.9220 C   0  0  0  0  0  1  0  0  0  0  0  0
  180.8780  178.8200  139.2820 C   0  0  2  0  0  3  0  0  0  0  0  0
  181.7430  178.9970  142.8620 C   0  0  0  0  0  2  0  0  0  0  0  0
  184.2290  179.3770  142.7710 N   0  0  0  0  0  2  0  0  0  0  0  0
  179.3940  175.3710  139.3890 C   0  0  2  0  0  3  0  0  0  0  0  0
  182.7690  177.2940  138.3540 C   0  0  0  0  0  0  0  0  0  0  0  0
  183.1460  179.0390  144.9320 C   0  0  0  0  0  1  0  0  0  0  0  0
  179.2310  176.8680  139.6960 C   0  0  0  0  0  2  0  0  0  0  0  0
  183.4200  177.5750  137.1480 C   0  0  0  0  0  3  0  0  0  0  0  0
  182.7240  174.9370  137.7520 C   0  0  0  0  0  3  0  0  0  0  0  0
  183.3820  175.2300  136.5560 C   0  0  0  0  0  3  0  0  0  0  0  0
  180.6830  174.7640  139.9450 C   0  0  0  0  0  2  0  0  0  0  0  0
  180.5280  179.1630  140.6700 N   0  0  0  0  0  0  0  0  0  0  0  0
  179.9080  177.7880  138.6680 C   0  0  1  0  0  3  0  0  0  0  0  0
  181.8120  179.2380  141.3530 C   0  0  2  0  0  3  0  0  0  0  0  0
  182.3790  178.4530  139.2380 C   0  0  2  0  0  3  0  0  0  0  0  0
  179.5430  178.7380  136.7010 C   0  0  0  0  0  1  0  0  0  0  0  0
  178.9310  178.4500  137.9210 O   0  0  0  0  0  0  0  0  0  0  0  0
  179.9760  180.5110  140.6510 C   0  0  0  0  0  2  0  0  0  0  0  0
  180.4470  181.2400  139.4080 C   0  0  0  0  0  1  0  0  0  0  0  0
  1  4  1  0  0  0  0
  3 19  2  0  0  0  0
  3 17  1  0  0  0  0
  4 20  1  0  0  0  0
  5  6  2  0  0  0  0
  6  2  2  0  0  0  0
  6 12  1  0  0  0  0
  7 15  1  1  0  0  0
  8  6  1  6  0  0  0
  8 23  1  0  0  0  0
 10 21  1  1  0  0  0
 11  7  1  0  0  0  0
 12  7  1  0  0  0  0
 13  9  1  6  0  0  0
 13 16  1  0  0  0  0
 13 20  1  0  0  0  0
 14  1  1  0  0  0  0
 17 14  2  0  0  0  0
 18  1  2  0  0  0  0
 19 18  1  0  0  0  0
 21 23  1  0  0  0  0
 22 26  1  1  0  0  0
 22 10  1  0  0  0  0
 22 16  1  0  0  0  0
 23 11  1  1  0  0  0
 24 14  1  6  0  0  0
 24 10  1  0  0  0  0
 24  8  1  0  0  0  0
 25 26  1  0  0  0  0
 27 21  1  0  0  0  0
 28 27  1  0  0  0  0
M  END
>  <MODEL>
2

>  <REMARK>
 VINA RESULT:      -4.4      2.515      5.224
  Name = 
  2 active torsions:
  status: ('A' for Active; 'I' for Inactive)
    1  A    between atoms: C_5  and  N_24
    2  A    between atoms: O_17  and  C_25
                            x       y       z     vdW  Elec       q    Type
                         _______ _______ _______ _____ _____    ______ ____

>  <TORSDO>
F 2

$$$$
=
 OpenBabel11122411523D

 28 31  0  0  1  0  0  0  0  0999 V2000
  183.4590  175.8670  137.9960 C   0  0  0  0  0  0  0  0  0  0  0  0
  184.5790  177.4830  141.5970 O   0  0  0  0  0  0  0  0  0  0  0  0
  185.8550  176.3750  136.6390 C   0  0  0  0  0  3  0  0  0  0  0  0
  182.2630  175.6230  138.6720 O   0  0  0  0  0  0  0  0  0  0  0  0
  184.8200  179.7090  140.5770 O   0  0  0  0  0  0  0  0  0  0  0  0
  183.8420  178.6910  141.0920 S   0  0  0  0  0  0  0  0  0  0  0  0
  181.5760  178.7180  142.3890 C   0  0  1  0  0  3  0  0  0  0  0  0
  182.6920  178.2200  139.8280 C   0  0  1  0  0  3  0  0  0  0  0  0
  181.0950  174.9210  135.6850 C   0  0  0  0  0  1  0  0  0  0  0  0
  181.8760  178.7480  137.6470 C   0  0  2  0  0  3  0  0  0  0  0  0
  180.7190  179.0220  141.1370 C   0  0  0  0  0  2  0  0  0  0  0  0
  182.8840  179.3870  142.3690 N   0  0  0  0  0  2  0  0  0  0  0  0
  180.4940  175.3100  137.0260 C   0  0  2  0  0  3  0  0  0  0  0  0
  183.9420  177.1870  137.8940 C   0  0  0  0  0  0  0  0  0  0  0  0
  180.8150  179.1160  143.6350 C   0  0  0  0  0  1  0  0  0  0  0  0
  180.2230  176.8160  137.1680 C   0  0  0  0  0  2  0  0  0  0  0  0
  185.1380  177.4300  137.2100 C   0  0  0  0  0  3  0  0  0  0  0  0
  184.1770  174.8140  137.4100 C   0  0  0  0  0  3  0  0  0  0  0  0
  185.3740  175.0690  136.7380 C   0  0  0  0  0  3  0  0  0  0  0  0
  181.2820  174.7130  138.1930 C   0  0  0  0  0  2  0  0  0  0  0  0
  180.8510  179.1320  138.6310 N   0  0  0  0  0  0  0  0  0  0  0  0
  181.3590  177.7030  136.6350 C   0  0  1  0  0  3  0  0  0  0  0  0
  181.5810  179.2200  139.8880 C   0  0  2  0  0  3  0  0  0  0  0  0
  183.1660  178.3720  138.4120 C   0  0  2  0  0  3  0  0  0  0  0  0
  182.0180  178.2520  134.5940 C   0  0  0  0  0  1  0  0  0  0  0  0
  180.9370  178.3480  135.4700 O   0  0  0  0  0  0  0  0  0  0  0  0
  180.4190  180.4810  138.2950 C   0  0  0  0  0  2  0  0  0  0  0  0
  181.6050  181.4250  138.3420 C   0  0  0  0  0  1  0  0  0  0  0  0
  1  4  1  0  0  0  0
  3 19  2  0  0  0  0
  3 17  1  0  0  0  0
  5  6  2  0  0  0  0
  6  2  2  0  0  0  0
  6 12  1  0  0  0  0
  7 15  1  1  0  0  0
  8 23  1  0  0  0  0
  8  6  1  1  0  0  0
 10 24  1  0  0  0  0
 10 21  1  1  0  0  0
 11  7  1  0  0  0  0
 12  7  1  0  0  0  0
 13  9  1  6  0  0  0
 13 16  1  0  0  0  0
 13 20  1  0  0  0  0
 14  1  1  0  0  0  0
 17 14  2  0  0  0  0
 18  1  2  0  0  0  0
 19 18  1  0  0  0  0
 20  4  1  0  0  0  0
 21 23  1  0  0  0  0
 22 26  1  6  0  0  0
 22 16  1  0  0  0  0
 22 10  1  0  0  0  0
 23 11  1  1  0  0  0
 24 14  1  6  0  0  0
 24  8  1  0  0  0  0
 25 26  1  0  0  0  0
 27 28  1  0  0  0  0
 27 21  1  0  0  0  0
M  END
>  <MODEL>
3

>  <REMARK>
 VINA RESULT:      -4.3      2.045      5.210
  Name = 
  2 active torsions:
  status: ('A' for Active; 'I' for Inactive)
    1  A    between atoms: C_5  and  N_24
    2  A    between atoms: O_17  and  C_25
                            x       y       z     vdW  Elec       q    Type
                         _______ _______ _______ _____ _____    ______ ____

>  <TORSDO>
F 2

$$$$
=
 OpenBabel11122411523D

 28 31  0  0  1  0  0  0  0  0999 V2000
  182.7400  178.0620  137.6680 C   0  0  0  0  0  0  0  0  0  0  0  0
  181.4770  180.5020  134.6200 O   0  0  0  0  0  0  0  0  0  0  0  0
  181.5640  175.7040  136.7220 C   0  0  0  0  0  3  0  0  0  0  0  0
  183.3170  179.2400  138.1420 O   0  0  0  0  0  0  0  0  0  0  0  0
  179.1230  180.1200  135.2280 O   0  0  0  0  0  0  0  0  0  0  0  0
  180.3820  180.8580  135.5860 S   0  0  0  0  0  0  0  0  0  0  0  0
  181.0050  183.2210  136.5050 C   0  0  1  0  0  3  0  0  0  0  0  0
  180.8860  180.4840  137.2440 C   0  0  1  0  0  3  0  0  0  0  0  0
  183.7960  177.5170  140.8950 C   0  0  0  0  0  1  0  0  0  0  0  0
  180.2200  179.4540  139.2930 C   0  0  2  0  0  3  0  0  0  0  0  0
  180.7000  182.8660  137.9800 C   0  0  0  0  0  2  0  0  0  0  0  0
  180.0890  182.5740  135.5560 N   0  0  0  0  0  2  0  0  0  0  0  0
  183.7370  178.9920  140.5290 C   0  0  2  0  0  3  0  0  0  0  0  0
  181.3500  178.0110  137.4470 C   0  0  0  0  0  0  0  0  0  0  0  0
  180.9570  184.7220  136.3230 C   0  0  0  0  0  1  0  0  0  0  0  0
  182.3550  179.6270  140.7440 C   0  0  0  0  0  2  0  0  0  0  0  0
  180.7720  176.8260  136.9780 C   0  0  0  0  0  3  0  0  0  0  0  0
  183.5290  176.9290  137.4210 C   0  0  0  0  0  3  0  0  0  0  0  0
  182.9410  175.7550  136.9450 C   0  0  0  0  0  3  0  0  0  0  0  0
  184.3270  179.2540  139.1430 C   0  0  0  0  0  2  0  0  0  0  0  0
  180.2000  180.9140  139.4800 N   0  0  0  0  0  0  0  0  0  0  0  0
  181.1880  178.7490  140.2670 C   0  0  1  0  0  3  0  0  0  0  0  0
  180.1510  181.4450  138.1250 C   0  0  2  0  0  3  0  0  0  0  0  0
  180.4350  179.1610  137.7910 C   0  0  2  0  0  3  0  0  0  0  0  0
  179.5700  177.3550  140.8530 C   0  0  0  0  0  1  0  0  0  0  0  0
  180.4780  178.2780  141.3740 O   0  0  0  0  0  0  0  0  0  0  0  0
  178.9310  181.2460  140.1130 C   0  0  0  0  0  2  0  0  0  0  0  0
  179.0960  181.2500  141.6200 C   0  0  0  0  0  1  0  0  0  0  0  0
  1  4  1  0  0  0  0
  2  6  2  0  0  0  0
  3 19  2  0  0  0  0
  3 17  1  0  0  0  0
  4 20  1  0  0  0  0
  5  6  2  0  0  0  0
  7 15  1  1  0  0  0
  7 11  1  0  0  0  0
  8  6  1  6  0  0  0
  8 24  1  0  0  0  0
  8 23  1  0  0  0  0
 10 21  1  6  0  0  0
 10 22  1  0  0  0  0
 12  6  1  0  0  0  0
 12  7  1  0  0  0  0
 13 16  1  0  0  0  0
 13  9  1  6  0  0  0
 14  1  1  0  0  0  0
 17 14  2  0  0  0  0
 18  1  2  0  0  0  0
 19 18  1  0  0  0  0
 20 13  1  0  0  0  0
 21 27  1  0  0  0  0
 22 16  1  0  0  0  0
 22 26  1  1  0  0  0
 23 11  1  1  0  0  0
 23 21  1  0  0  0  0
 24 14  1  1  0  0  0
 24 10  1  0  0  0  0
 25 26  1  0  0  0  0
 27 28  1  0  0  0  0
M  END
>  <MODEL>
4

>  <REMARK>
 VINA RESULT:      -4.0      3.306      6.156
  Name = 
  2 active torsions:
  status: ('A' for Active; 'I' for Inactive)
    1  A    between atoms: C_5  and  N_24
    2  A    between atoms: O_17  and  C_25
                            x       y       z     vdW  Elec       q    Type
                         _______ _______ _______ _____ _____    ______ ____

>  <TORSDO>
F 2

$$$$
=
 OpenBabel11122411523D

 28 31  0  0  1  0  0  0  0  0999 V2000
  182.4940  178.4020  137.0870 C   0  0  0  0  0  0  0  0  0  0  0  0
  186.4960  179.3050  137.1520 O   0  0  0  0  0  0  0  0  0  0  0  0
  181.8730  179.4380  139.6130 C   0  0  0  0  0  3  0  0  0  0  0  0
  182.8070  177.8780  135.8330 O   0  0  0  0  0  0  0  0  0  0  0  0
  186.8490  177.8120  139.0760 O   0  0  0  0  0  0  0  0  0  0  0  0
  186.6380  177.8750  137.5890 S   0  0  0  0  0  0  0  0  0  0  0  0
  187.5070  176.5880  135.4900 C   0  0  1  0  0  3  0  0  0  0  0  0
  185.2060  176.9450  137.1120 C   0  0  1  0  0  3  0  0  0  0  0  0
  179.8040  176.5630  135.9890 C   0  0  0  0  0  1  0  0  0  0  0  0
  183.5720  175.3740  137.8590 C   0  0  2  0  0  3  0  0  0  0  0  0
  186.5290  175.4010  135.6580 C   0  0  0  0  0  2  0  0  0  0  0  0
  187.9820  177.1280  136.7710 N   0  0  0  0  0  2  0  0  0  0  0  0
  181.0750  176.2840  135.2030 C   0  0  2  0  0  3  0  0  0  0  0  0
  183.1610  177.9160  138.2290 C   0  0  0  0  0  0  0  0  0  0  0  0
  188.6870  176.1600  134.6450 C   0  0  0  0  0  1  0  0  0  0  0  0
  181.9690  175.2060  135.8350 C   0  0  0  0  0  2  0  0  0  0  0  0
  182.8400  178.4370  139.4870 C   0  0  0  0  0  3  0  0  0  0  0  0
  181.5150  179.3970  137.2210 C   0  0  0  0  0  3  0  0  0  0  0  0
  181.2100  179.9160  138.4820 C   0  0  0  0  0  3  0  0  0  0  0  0
  181.8190  177.5750  134.8570 C   0  0  0  0  0  2  0  0  0  0  0  0
  184.4960  174.6820  136.9460 N   0  0  0  0  0  0  0  0  0  0  0  0
  182.1110  175.3330  137.3590 C   0  0  1  0  0  3  0  0  0  0  0  0
  185.6750  175.5370  136.9190 C   0  0  2  0  0  3  0  0  0  0  0  0
  184.1480  176.7750  138.1620 C   0  0  2  0  0  3  0  0  0  0  0  0
  180.7540  174.8710  139.0470 C   0  0  0  0  0  1  0  0  0  0  0  0
  181.4330  174.2820  137.9790 O   0  0  0  0  0  0  0  0  0  0  0  0
  184.8870  173.4390  137.5950 C   0  0  0  0  0  2  0  0  0  0  0  0
  184.1810  172.2720  136.9340 C   0  0  0  0  0  1  0  0  0  0  0  0
  1 18  2  0  0  0  0
  1 14  1  0  0  0  0
  2  6  2  0  0  0  0
  4  1  1  0  0  0  0
  6  5  2  0  0  0  0
  7 15  1  6  0  0  0
  7 11  1  0  0  0  0
  7 12  1  0  0  0  0
  8  6  1  1  0  0  0
  8 24  1  0  0  0  0
 10 21  1  6  0  0  0
 10 24  1  0  0  0  0
 12  6  1  0  0  0  0
 13 16  1  0  0  0  0
 13  9  1  1  0  0  0
 14 17  2  0  0  0  0
 16 22  1  0  0  0  0
 17  3  1  0  0  0  0
 18 19  1  0  0  0  0
 19  3  2  0  0  0  0
 20 13  1  0  0  0  0
 20  4  1  0  0  0  0
 21 27  1  0  0  0  0
 22 10  1  0  0  0  0
 22 26  1  1  0  0  0
 23 11  1  6  0  0  0
 23 21  1  0  0  0  0
 23  8  1  0  0  0  0
 24 14  1  6  0  0  0
 26 25  1  0  0  0  0
 28 27  1  0  0  0  0
M  END
>  <MODEL>
5

>  <REMARK>
 VINA RESULT:      -4.0      1.711      1.984
  Name = 
  2 active torsions:
  status: ('A' for Active; 'I' for Inactive)
    1  A    between atoms: C_5  and  N_24
    2  A    between atoms: O_17  and  C_25
                            x       y       z     vdW  Elec       q    Type
                         _______ _______ _______ _____ _____    ______ ____

>  <TORSDO>
F 2

$$$$
=
 OpenBabel11122411523D

 28 31  0  0  1  0  0  0  0  0999 V2000
  180.6830  179.3610  139.5550 C   0  0  0  0  0  0  0  0  0  0  0  0
  179.6820  177.5560  136.0090 O   0  0  0  0  0  0  0  0  0  0  0  0
  180.3100  182.0030  138.7050 C   0  0  0  0  0  3  0  0  0  0  0  0
  180.8760  178.0440  139.9730 O   0  0  0  0  0  0  0  0  0  0  0  0
  181.5830  178.6290  134.8730 O   0  0  0  0  0  0  0  0  0  0  0  0
  181.1710  177.5220  135.8010 S   0  0  0  0  0  0  0  0  0  0  0  0
  181.8810  175.0500  136.2460 C   0  0  1  0  0  3  0  0  0  0  0  0
  182.0060  177.6570  137.3590 C   0  0  1  0  0  3  0  0  0  0  0  0
  182.2940  179.4260  142.5920 C   0  0  0  0  0  1  0  0  0  0  0  0
  183.7680  178.7640  138.5300 C   0  0  2  0  0  3  0  0  0  0  0  0
  183.1060  175.4260  137.1120 C   0  0  0  0  0  2  0  0  0  0  0  0
  181.6500  175.9860  135.1370 N   0  0  0  0  0  2  0  0  0  0  0  0
  182.3300  178.0580  141.9280 C   0  0  2  0  0  3  0  0  0  0  0  0
  181.4060  179.8520  138.4510 C   0  0  0  0  0  0  0  0  0  0  0  0
  182.0510  173.6470  135.7060 C   0  0  0  0  0  1  0  0  0  0  0  0
  183.4980  177.8780  140.9460 C   0  0  0  0  0  2  0  0  0  0  0  0
  181.2160  181.1750  138.0370 C   0  0  0  0  0  3  0  0  0  0  0  0
  179.7830  180.2000  140.2290 C   0  0  0  0  0  3  0  0  0  0  0  0
  179.5960  181.5160  139.8010 C   0  0  0  0  0  3  0  0  0  0  0  0
  180.9690  177.6780  141.3440 C   0  0  0  0  0  2  0  0  0  0  0  0
  184.1860  177.3780  138.2670 N   0  0  0  0  0  0  0  0  0  0  0  0
  183.7370  179.0940  140.0380 C   0  0  1  0  0  3  0  0  0  0  0  0
  183.3090  176.9400  137.1900 C   0  0  2  0  0  3  0  0  0  0  0  0
  182.4620  179.0330  137.7490 C   0  0  2  0  0  3  0  0  0  0  0  0
  185.6040  178.7810  141.1880 C   0  0  0  0  0  1  0  0  0  0  0  0
  184.9300  179.7210  140.4050 O   0  0  0  0  0  0  0  0  0  0  0  0
  185.5350  177.4330  137.7220 C   0  0  0  0  0  2  0  0  0  0  0  0
  185.4730  177.5030  136.2090 C   0  0  0  0  0  1  0  0  0  0  0  0
  1  4  1  0  0  0  0
  1 18  1  0  0  0  0
  3 19  1  0  0  0  0
  4 20  1  0  0  0  0
  5  6  2  0  0  0  0
  6  2  2  0  0  0  0
  7 15  1  6  0  0  0
  7 11  1  0  0  0  0
  8  6  1  6  0  0  0
  8 24  1  0  0  0  0
 10 21  1  1  0  0  0
 10 22  1  0  0  0  0
 12  6  1  0  0  0  0
 12  7  1  0  0  0  0
 13  9  1  6  0  0  0
 14  1  2  0  0  0  0
 16 13  1  0  0  0  0
 17 14  1  0  0  0  0
 17  3  2  0  0  0  0
 19 18  2  0  0  0  0
 20 13  1  0  0  0  0
 22 26  1  1  0  0  0
 22 16  1  0  0  0  0
 23 11  1  1  0  0  0
 23  8  1  0  0  0  0
 23 21  1  0  0  0  0
 24 14  1  1  0  0  0
 24 10  1  0  0  0  0
 26 25  1  0  0  0  0
 27 21  1  0  0  0  0
 28 27  1  0  0  0  0
M  END
>  <MODEL>
6

>  <REMARK>
 VINA RESULT:      -3.9      2.279      4.971
  Name = 
  2 active torsions:
  status: ('A' for Active; 'I' for Inactive)
    1  A    between atoms: C_5  and  N_24
    2  A    between atoms: O_17  and  C_25
                            x       y       z     vdW  Elec       q    Type
                         _______ _______ _______ _____ _____    ______ ____

>  <TORSDO>
F 2

$$$$
=
 OpenBabel11122411523D

 28 31  0  0  1  0  0  0  0  0999 V2000
  189.4580  177.9760  138.9020 C   0  0  0  0  0  0  0  0  0  0  0  0
  193.5570  177.7790  138.8630 O   0  0  0  0  0  0  0  0  0  0  0  0
  189.1060  177.1480  141.5530 C   0  0  0  0  0  3  0  0  0  0  0  0
  189.6360  178.3800  137.5790 O   0  0  0  0  0  0  0  0  0  0  0  0
  193.4900  175.3520  139.2630 O   0  0  0  0  0  0  0  0  0  0  0  0
  193.3170  176.4340  138.2360 S   0  0  0  0  0  0  0  0  0  0  0  0
  193.8390  176.7480  135.6970 C   0  0  1  0  0  3  0  0  0  0  0  0
  191.6960  176.3760  137.5190 C   0  0  1  0  0  3  0  0  0  0  0  0
  186.3920  177.9350  137.3470 C   0  0  0  0  0  1  0  0  0  0  0  0
  189.7010  175.0790  137.3290 C   0  0  2  0  0  3  0  0  0  0  0  0
  192.5840  175.9830  135.2160 C   0  0  0  0  0  2  0  0  0  0  0  0
  194.4270  176.1810  136.9190 N   0  0  0  0  0  2  0  0  0  0  0  0
  187.5540  178.0080  136.3690 C   0  0  2  0  0  3  0  0  0  0  0  0
  189.9650  176.7310  139.3220 C   0  0  0  0  0  0  0  0  0  0  0  0
  194.8740  176.7720  134.5940 C   0  0  0  0  0  1  0  0  0  0  0  0
  188.1290  176.6350  135.9870 C   0  0  0  0  0  2  0  0  0  0  0  0
  189.7790  176.3250  140.6480 C   0  0  0  0  0  3  0  0  0  0  0  0
  188.7730  178.7940  139.8120 C   0  0  0  0  0  3  0  0  0  0  0  0
  188.6020  178.3810  141.1360 C   0  0  0  0  0  3  0  0  0  0  0  0
  188.6120  179.0150  136.8240 C   0  0  0  0  0  2  0  0  0  0  0  0
  190.4220  175.0110  136.0480 N   0  0  0  0  0  0  0  0  0  0  0  0
  188.2850  175.6770  137.1780 C   0  0  1  0  0  3  0  0  0  0  0  0
  191.7830  175.4050  136.3840 C   0  0  2  0  0  3  0  0  0  0  0  0
  190.6200  175.7630  138.3670 C   0  0  2  0  0  3  0  0  0  0  0  0
  186.9580  174.6540  135.7310 C   0  0  0  0  0  1  0  0  0  0  0  0
  187.3500  174.6450  137.0700 O   0  0  0  0  0  0  0  0  0  0  0  0
  190.4690  173.6100  135.6570 C   0  0  0  0  0  2  0  0  0  0  0  0
  191.7810  172.9960  136.1050 C   0  0  0  0  0  1  0  0  0  0  0  0
  1 14  2  0  0  0  0
  1 18  1  0  0  0  0
  4  1  1  0  0  0  0
  6  2  2  0  0  0  0
  6  5  2  0  0  0  0
  7 15  1  6  0  0  0
  7 12  1  0  0  0  0
  8  6  1  1  0  0  0
  8 24  1  0  0  0  0
 10 21  1  6  0  0  0
 10 24  1  0  0  0  0
 11  7  1  0  0  0  0
 12  6  1  0  0  0  0
 13 20  1  0  0  0  0
 13  9  1  1  0  0  0
 14 17  1  0  0  0  0
 16 13  1  0  0  0  0
 16 22  1  0  0  0  0
 17  3  2  0  0  0  0
 18 19  2  0  0  0  0
 19  3  1  0  0  0  0
 20  4  1  0  0  0  0
 21 23  1  0  0  0  0
 22 26  1  6  0  0  0
 22 10  1  0  0  0  0
 23 11  1  6  0  0  0
 23  8  1  0  0  0  0
 24 14  1  6  0  0  0
 25 26  1  0  0  0  0
 27 21  1  0  0  0  0
 27 28  1  0  0  0  0
M  END
>  <MODEL>
7

>  <REMARK>
 VINA RESULT:      -3.8      5.745      8.137
  Name = 
  2 active torsions:
  status: ('A' for Active; 'I' for Inactive)
    1  A    between atoms: C_5  and  N_24
    2  A    between atoms: O_17  and  C_25
                            x       y       z     vdW  Elec       q    Type
                         _______ _______ _______ _____ _____    ______ ____

>  <TORSDO>
F 2

$$$$
=
 OpenBabel11122411523D

 28 31  0  0  1  0  0  0  0  0999 V2000
  181.3350  175.0430  138.3050 C   0  0  0  0  0  0  0  0  0  0  0  0
  183.3420  171.5950  137.3480 O   0  0  0  0  0  0  0  0  0  0  0  0
  178.9320  174.4030  137.0180 C   0  0  0  0  0  3  0  0  0  0  0  0
  182.5360  175.3640  138.9380 O   0  0  0  0  0  0  0  0  0  0  0  0
  183.1990  172.1230  134.9490 O   0  0  0  0  0  0  0  0  0  0  0  0
  183.9080  172.4340  136.2370 S   0  0  0  0  0  0  0  0  0  0  0  0
  186.3440  173.0160  136.9740 C   0  0  1  0  0  3  0  0  0  0  0  0
  183.7670  174.1550  136.6390 C   0  0  1  0  0  3  0  0  0  0  0  0
  181.2350  178.3690  139.1740 C   0  0  0  0  0  1  0  0  0  0  0  0
  183.1080  176.2960  135.8120 C   0  0  2  0  0  3  0  0  0  0  0  0
  186.2410  174.5080  136.5790 C   0  0  0  0  0  2  0  0  0  0  0  0
  185.6130  172.1260  136.0610 N   0  0  0  0  0  2  0  0  0  0  0  0
  182.6360  177.7810  139.2310 C   0  0  2  0  0  3  0  0  0  0  0  0
  181.3320  174.7560  136.9260 C   0  0  0  0  0  0  0  0  0  0  0  0
  187.7990  172.6050  137.0350 C   0  0  0  0  0  1  0  0  0  0  0  0
  183.3780  177.8200  137.8860 C   0  0  0  0  0  2  0  0  0  0  0  0
  180.1250  174.4410  136.2920 C   0  0  0  0  0  3  0  0  0  0  0  0
  180.1320  175.0150  139.0260 C   0  0  0  0  0  3  0  0  0  0  0  0
  178.9350  174.6910  138.3830 C   0  0  0  0  0  3  0  0  0  0  0  0
  182.6450  176.4050  139.9000 C   0  0  0  0  0  2  0  0  0  0  0  0
  184.5780  176.2570  135.8820 N   0  0  0  0  0  0  0  0  0  0  0  0
  182.5070  177.4180  136.6860 C   0  0  1  0  0  3  0  0  0  0  0  0
  184.8950  174.8370  135.9310 C   0  0  2  0  0  3  0  0  0  0  0  0
  182.5730  174.8700  136.0750 C   0  0  2  0  0  3  0  0  0  0  0  0
  181.0410  178.2760  135.2650 C   0  0  0  0  0  1  0  0  0  0  0  0
  182.2570  178.5430  135.8960 O   0  0  0  0  0  0  0  0  0  0  0  0
  185.0790  176.7610  134.6110 C   0  0  0  0  0  2  0  0  0  0  0  0
  186.2650  177.6750  134.8540 C   0  0  0  0  0  1  0  0  0  0  0  0
  1  4  1  0  0  0  0
  1 18  1  0  0  0  0
  3 19  1  0  0  0  0
  4 20  1  0  0  0  0
  5  6  2  0  0  0  0
  6  2  2  0  0  0  0
  7 15  1  6  0  0  0
  8  6  1  6  0  0  0
 10 21  1  1  0  0  0
 10 24  1  0  0  0  0
 10 22  1  0  0  0  0
 11  7  1  0  0  0  0
 12  6  1  0  0  0  0
 12  7  1  0  0  0  0
 13  9  1  6  0  0  0
 13 20  1  0  0  0  0
 14  1  2  0  0  0  0
 16 13  1  0  0  0  0
 17 14  1  0  0  0  0
 17  3  2  0  0  0  0
 19 18  2  0  0  0  0
 21 23  1  0  0  0  0
 22 26  1  6  0  0  0
 22 16  1  0  0  0  0
 23 11  1  1  0  0  0
 23  8  1  0  0  0  0
 24  8  1  0  0  0  0
 24 14  1  1  0  0  0
 25 26  1  0  0  0  0
 27 28  1  0  0  0  0
 27 21  1  0  0  0  0
M  END
>  <MODEL>
8

>  <REMARK>
 VINA RESULT:      -3.7      2.516      4.970
  Name = 
  2 active torsions:
  status: ('A' for Active; 'I' for Inactive)
    1  A    between atoms: C_5  and  N_24
    2  A    between atoms: O_17  and  C_25
                            x       y       z     vdW  Elec       q    Type
                         _______ _______ _______ _____ _____    ______ ____

>  <TORSDO>
F 2

$$$$
=
 OpenBabel11122411523D

 28 31  0  0  1  0  0  0  0  0999 V2000
  184.4300  175.8950  135.8830 C   0  0  0  0  0  0  0  0  0  0  0  0
  180.7470  176.9320  137.3650 O   0  0  0  0  0  0  0  0  0  0  0  0
  184.3350  173.1920  136.6050 C   0  0  0  0  0  3  0  0  0  0  0  0
  184.4780  177.2450  135.5330 O   0  0  0  0  0  0  0  0  0  0  0  0
  181.4590  176.3740  139.6540 O   0  0  0  0  0  0  0  0  0  0  0  0
  181.5430  177.3930  138.5540 S   0  0  0  0  0  0  0  0  0  0  0  0
  181.6130  179.9970  138.3760 C   0  0  1  0  0  3  0  0  0  0  0  0
  183.2280  177.6820  138.0840 C   0  0  1  0  0  3  0  0  0  0  0  0
  187.6470  176.6400  134.9250 C   0  0  0  0  0  1  0  0  0  0  0  0
  185.5060  177.2900  138.6800 C   0  0  2  0  0  3  0  0  0  0  0  0
  183.1230  180.1030  138.6970 C   0  0  0  0  0  2  0  0  0  0  0  0
  180.9400  178.9250  139.1220 N   0  0  0  0  0  2  0  0  0  0  0  0
  186.8090  177.8770  135.2060 C   0  0  2  0  0  3  0  0  0  0  0  0
  184.2450  175.5350  137.2330 C   0  0  0  0  0  0  0  0  0  0  0  0
  180.9380  181.3210  138.6600 C   0  0  0  0  0  1  0  0  0  0  0  0
  186.8050  178.3000  136.6830 C   0  0  0  0  0  2  0  0  0  0  0  0
  184.2040  174.1810  137.5830 C   0  0  0  0  0  3  0  0  0  0  0  0
  184.5730  174.8980  134.9080 C   0  0  0  0  0  3  0  0  0  0  0  0
  184.5210  173.5500  135.2690 C   0  0  0  0  0  3  0  0  0  0  0  0
  185.4120  177.7620  134.5940 C   0  0  0  0  0  2  0  0  0  0  0  0
  185.1930  178.7030  138.9490 N   0  0  0  0  0  0  0  0  0  0  0  0
  186.6560  177.1250  137.6630 C   0  0  1  0  0  3  0  0  0  0  0  0
  183.7380  178.7390  139.0120 C   0  0  2  0  0  3  0  0  0  0  0  0
  184.1880  176.5580  138.3410 C   0  0  2  0  0  3  0  0  0  0  0  0
  188.5440  178.1430  138.2150 C   0  0  0  0  0  1  0  0  0  0  0  0
  187.8600  176.9330  138.3440 O   0  0  0  0  0  0  0  0  0  0  0  0
  185.6840  179.0030  140.2870 C   0  0  0  0  0  2  0  0  0  0  0  0
  184.7080  178.4770  141.3210 C   0  0  0  0  0  1  0  0  0  0  0  0
  1 14  1  0  0  0  0
  2  6  2  0  0  0  0
  3 17  1  0  0  0  0
  4  1  1  0  0  0  0
  6 12  1  0  0  0  0
  6  5  2  0  0  0  0
  7 15  1  1  0  0  0
  7 11  1  0  0  0  0
  7 12  1  0  0  0  0
  8 24  1  0  0  0  0
  8  6  1  1  0  0  0
  8 23  1  0  0  0  0
 10 21  1  6  0  0  0
 13  9  1  1  0  0  0
 13 16  1  0  0  0  0
 14 17  2  0  0  0  0
 16 22  1  0  0  0  0
 18 19  1  0  0  0  0
 18  1  2  0  0  0  0
 19  3  2  0  0  0  0
 20 13  1  0  0  0  0
 20  4  1  0  0  0  0
 21 23  1  0  0  0  0
 21 27  1  0  0  0  0
 22 26  1  1  0  0  0
 22 10  1  0  0  0  0
 23 11  1  6  0  0  0
 24 14  1  6  0  0  0
 24 10  1  0  0  0  0
 25 26  1  0  0  0  0
 27 28  1  0  0  0  0
M  END
>  <MODEL>
9

>  <REMARK>
 VINA RESULT:      -3.6      2.765      5.852
  Name = 
  2 active torsions:
  status: ('A' for Active; 'I' for Inactive)
    1  A    between atoms: C_5  and  N_24
    2  A    between atoms: O_17  and  C_25
                            x       y       z     vdW  Elec       q    Type
                         _______ _______ _______ _____ _____    ______ ____

>  <TORSDO>
F 2

$$$$
