=
 OpenBabel11122410503D

 32 37  0  0  1  0  0  0  0  0999 V2000
  188.6130  176.4640  138.2550 C   0  0  1  0  0  3  0  0  0  0  0  0
  189.8570  177.0580  142.3090 O   0  0  0  0  0  0  0  0  0  0  0  0
  191.1490  176.6280  141.9530 C   0  0  0  0  0  2  0  0  0  0  0  0
  190.2050  174.9220  136.9440 C   0  0  1  0  0  3  0  0  0  0  0  0
  191.6870  174.8020  136.6010 C   0  0  2  0  0  3  0  0  0  0  0  0
  186.8240  177.5460  136.8250 N   0  0  0  0  0  0  0  0  0  0  0  0
  187.1600  178.0540  139.2720 C   0  0  0  0  0  2  0  0  0  0  0  0
  193.8900  174.5190  137.4530 C   0  0  1  0  0  3  0  0  0  0  0  0
  189.0330  176.8520  141.1880 C   0  0  0  0  0  2  0  0  0  0  0  0
  188.5420  177.7840  138.8950 N   0  0  1  0  0  0  0  0  0  0  0  0
  189.4170  177.8500  140.0750 C   0  0  2  0  0  3  0  0  0  0  0  0
  191.0670  176.3600  138.8510 C   0  0  2  0  0  3  0  0  0  0  0  0
  193.6460  173.4400  136.3940 C   0  0  0  0  0  2  0  0  0  0  0  0
  186.3210  178.2710  138.0090 C   0  0  2  0  0  3  0  0  0  0  0  0
  192.1630  173.4970  136.0140 C   0  0  0  0  0  2  0  0  0  0  0  0
  191.7630  177.5910  140.9300 C   0  0  0  0  0  2  0  0  0  0  0  0
  190.8910  177.6450  139.6720 C   0  0  2  0  0  3  0  0  0  0  0  0
  192.3880  176.2570  138.3550 O   0  0  0  0  0  0  0  0  0  0  0  0
  187.5420  176.3040  137.1510 C   0  0  0  0  0  2  0  0  0  0  0  0
  189.7970  173.8460  137.7420 O   0  0  0  0  0  1  0  0  0  0  0  0
  194.5760  175.5870  136.8690 O   0  0  0  0  0  1  0  0  0  0  0  0
  190.0270  176.2570  137.7020 C   0  0  2  0  0  3  0  0  0  0  0  0
  192.4960  174.9450  137.8630 C   0  0  1  0  0  3  0  0  0  0  0  0
  184.5480  178.1990  139.6080 O   0  0  0  0  0  0  0  0  0  0  0  0
  184.8740  177.8990  138.2730 C   0  0  1  0  0  3  0  0  0  0  0  0
  184.1060  179.1100  138.6320 C   0  0  1  0  0  3  0  0  0  0  0  0
  182.6330  178.8790  138.3600 C   0  0  0  0  0  2  0  0  0  0  0  0
  181.8320  179.9800  138.9610 C   0  0  0  0  0  0  0  0  0  0  0  0
  181.9480  181.2730  138.4670 O   0  0  0  0  0  0  0  0  0  0  0  0
  181.0750  179.7470  139.9390 O   0  0  0  0  0  1  0  0  0  0  0  0
  188.3190  177.5580  134.5940 S   0  0  0  0  0  1  0  0  0  0  0  0
  187.7040  178.4250  136.0670 C   0  0  0  0  0  2  0  0  0  0  0  0
  1 19  1  6  0  0  0
  1 10  1  0  0  0  0
  3  2  1  0  0  0  0
  4 22  1  0  0  0  0
  4 20  1  1  0  0  0
  5 15  1  1  0  0  0
  5  4  1  0  0  0  0
  5 23  1  0  0  0  0
  6 19  1  0  0  0  0
  6 14  1  0  0  0  0
  8 21  1  6  0  0  0
  8 23  1  0  0  0  0
  9  2  1  0  0  0  0
 10  7  1  1  0  0  0
 10 11  1  0  0  0  0
 11  9  1  1  0  0  0
 12 18  1  6  0  0  0
 12 17  1  0  0  0  0
 13  8  1  0  0  0  0
 14 25  1  0  0  0  0
 14  7  1  1  0  0  0
 15 13  1  0  0  0  0
 16  3  1  0  0  0  0
 17 11  1  0  0  0  0
 17 16  1  1  0  0  0
 22  1  1  0  0  0  0
 22 12  1  0  0  0  0
 23 18  1  0  0  0  0
 25 26  1  0  0  0  0
 25 24  1  0  0  0  0
 26 24  1  0  0  0  0
 27 26  1  0  0  0  0
 27 28  1  0  0  0  0
 28 30  1  0  0  0  0
 29 28  2  0  0  0  0
 31 32  1  0  0  0  0
 32  6  1  0  0  0  0
M  END
>  <MODEL>
1

>  <REMARK>
 VINA RESULT:      -6.1      0.000      0.000
  Name = 
  4 active torsions:
  status: ('A' for Active; 'I' for Inactive)
    1  A    between atoms: N_7  and  C_19
    2  A    between atoms: C_10  and  C_17
    3  A    between atoms: C_20  and  C_29
    4  A    between atoms: C_29  and  C_30
                            x       y       z     vdW  Elec       q    Type
                         _______ _______ _______ _____ _____    ______ ____

>  <TORSDO>
F 4

$$$$
=
 OpenBabel11122410503D

 32 37  0  0  1  0  0  0  0  0999 V2000
  190.0830  177.0810  138.6920 C   0  0  1  0  0  3  0  0  0  0  0  0
  191.7320  178.1790  142.4890 O   0  0  0  0  0  0  0  0  0  0  0  0
  190.4360  178.5070  142.9310 C   0  0  0  0  0  2  0  0  0  0  0  0
  187.7420  178.0770  138.3010 C   0  0  1  0  0  3  0  0  0  0  0  0
  186.3750  178.1360  138.9770 C   0  0  2  0  0  3  0  0  0  0  0  0
  190.8070  175.4300  136.9120 N   0  0  0  0  0  0  0  0  0  0  0  0
  192.1500  175.9330  138.9850 C   0  0  0  0  0  2  0  0  0  0  0  0
  185.1520  178.8500  140.8890 C   0  0  1  0  0  3  0  0  0  0  0  0
  191.6330  177.8870  141.1170 C   0  0  0  0  0  2  0  0  0  0  0  0
  190.8080  176.1110  139.5240 N   0  0  1  0  0  0  0  0  0  0  0  0
  190.8730  176.5580  140.9240 C   0  0  2  0  0  3  0  0  0  0  0  0
  188.5510  177.5440  140.6470 C   0  0  2  0  0  3  0  0  0  0  0  0
  184.4650  179.4170  139.6430 C   0  0  0  0  0  2  0  0  0  0  0  0
  192.0670  175.1960  137.6450 C   0  0  2  0  0  3  0  0  0  0  0  0
  185.3770  179.1340  138.4460 C   0  0  0  0  0  2  0  0  0  0  0  0
  189.5480  177.2580  142.9380 C   0  0  0  0  0  2  0  0  0  0  0  0
  189.4570  176.6710  141.5260 C   0  0  2  0  0  3  0  0  0  0  0  0
  187.2170  177.5190  141.1200 O   0  0  0  0  0  0  0  0  0  0  0  0
  190.1950  176.7390  137.1880 C   0  0  0  0  0  2  0  0  0  0  0  0
  188.3120  179.3550  138.2330 O   0  0  0  0  0  1  0  0  0  0  0  0
  184.4980  177.6780  141.2790 O   0  0  0  0  0  1  0  0  0  0  0  0
  188.6220  177.1340  139.1510 C   0  0  2  0  0  3  0  0  0  0  0  0
  186.5570  178.5400  140.4160 C   0  0  1  0  0  3  0  0  0  0  0  0
  194.3120  176.0080  137.5850 O   0  0  0  0  0  0  0  0  0  0  0  0
  193.2540  175.5610  136.7740 C   0  0  1  0  0  3  0  0  0  0  0  0
  194.4010  174.6890  137.1050 C   0  0  1  0  0  3  0  0  0  0  0  0
  195.3620  174.6440  135.9350 C   0  0  0  0  0  2  0  0  0  0  0  0
  196.7540  174.8560  136.4180 C   0  0  0  0  0  0  0  0  0  0  0  0
  197.3830  176.0770  136.2110 O   0  0  0  0  0  0  0  0  0  0  0  0
  197.3750  173.9180  136.9830 O   0  0  0  0  0  1  0  0  0  0  0  0
  188.3350  174.5920  136.2790 S   0  0  0  0  0  1  0  0  0  0  0  0
  189.8580  174.3760  137.2440 C   0  0  0  0  0  2  0  0  0  0  0  0
  1 19  1  6  0  0  0
  1 22  1  0  0  0  0
  1 10  1  0  0  0  0
  2  3  1  0  0  0  0
  3 16  1  0  0  0  0
  4 20  1  1  0  0  0
  4  5  1  0  0  0  0
  4 22  1  0  0  0  0
  5 15  1  6  0  0  0
  5 23  1  0  0  0  0
  6 19  1  0  0  0  0
  6 32  1  0  0  0  0
  6 14  1  0  0  0  0
  8 21  1  6  0  0  0
  9  2  1  0  0  0  0
 10  7  1  6  0  0  0
 10 11  1  0  0  0  0
 11  9  1  6  0  0  0
 11 17  1  0  0  0  0
 12 18  1  1  0  0  0
 12 17  1  0  0  0  0
 13  8  1  0  0  0  0
 14  7  1  1  0  0  0
 15 13  1  0  0  0  0
 17 16  1  1  0  0  0
 22 12  1  0  0  0  0
 23  8  1  0  0  0  0
 23 18  1  0  0  0  0
 25 26  1  0  0  0  0
 25 24  1  0  0  0  0
 25 14  1  0  0  0  0
 26 24  1  0  0  0  0
 27 28  1  0  0  0  0
 27 26  1  0  0  0  0
 28 30  1  0  0  0  0
 29 28  2  0  0  0  0
 31 32  1  0  0  0  0
M  END
>  <MODEL>
2

>  <REMARK>
 VINA RESULT:      -5.2      2.302      8.218
  Name = 
  4 active torsions:
  status: ('A' for Active; 'I' for Inactive)
    1  A    between atoms: N_7  and  C_19
    2  A    between atoms: C_10  and  C_17
    3  A    between atoms: C_20  and  C_29
    4  A    between atoms: C_29  and  C_30
                            x       y       z     vdW  Elec       q    Type
                         _______ _______ _______ _____ _____    ______ ____

>  <TORSDO>
F 4

$$$$
=
 OpenBabel11122410503D

 32 37  0  0  1  0  0  0  0  0999 V2000
  185.8590  176.2820  137.4240 C   0  0  1  0  0  3  0  0  0  0  0  0
  184.7810  172.1430  137.2410 O   0  0  0  0  0  0  0  0  0  0  0  0
  183.4740  172.5220  136.8790 C   0  0  0  0  0  2  0  0  0  0  0  0
  183.8140  177.8330  137.6250 C   0  0  1  0  0  3  0  0  0  0  0  0
  182.4960  178.1170  136.9120 C   0  0  2  0  0  3  0  0  0  0  0  0
  188.0480  177.5100  137.0760 N   0  0  0  0  0  0  0  0  0  0  0  0
  187.8300  174.9980  137.0460 C   0  0  0  0  0  2  0  0  0  0  0  0
  180.3840  177.2410  136.2530 C   0  0  1  0  0  3  0  0  0  0  0  0
  185.4740  173.3230  137.5640 C   0  0  0  0  0  2  0  0  0  0  0  0
  186.5260  175.3550  136.5010 N   0  0  1  0  0  0  0  0  0  0  0  0
  185.7150  174.1480  136.2830 C   0  0  2  0  0  3  0  0  0  0  0  0
  183.6380  175.5990  136.4320 C   0  0  2  0  0  3  0  0  0  0  0  0
  180.1400  178.5350  137.0350 C   0  0  0  0  0  2  0  0  0  0  0  0
  188.7560  176.2180  136.9910 C   0  0  2  0  0  3  0  0  0  0  0  0
  181.4820  178.9690  137.6340 C   0  0  0  0  0  2  0  0  0  0  0  0
  183.4910  173.2550  135.5330 C   0  0  0  0  0  2  0  0  0  0  0  0
  184.3650  174.5100  135.6310 C   0  0  2  0  0  3  0  0  0  0  0  0
  182.4780  176.0360  135.7490 O   0  0  0  0  0  0  0  0  0  0  0  0
  186.7900  177.4480  137.8350 C   0  0  0  0  0  2  0  0  0  0  0  0
  183.5800  177.3340  138.9120 O   0  0  0  0  0  1  0  0  0  0  0  0
  180.3590  177.5210  134.8840 O   0  0  0  0  0  1  0  0  0  0  0  0
  184.5720  176.7940  136.7700 C   0  0  2  0  0  3  0  0  0  0  0  0
  181.7730  176.8160  136.6810 C   0  0  1  0  0  3  0  0  0  0  0  0
  190.4610  174.8810  137.9980 O   0  0  0  0  0  0  0  0  0  0  0  0
  189.8080  176.1240  138.0800 C   0  0  1  0  0  3  0  0  0  0  0  0
  191.1470  175.9890  137.4690 C   0  0  1  0  0  3  0  0  0  0  0  0
  192.2050  176.4410  138.4550 C   0  0  0  0  0  2  0  0  0  0  0  0
  193.5590  176.2170  137.8790 C   0  0  0  0  0  0  0  0  0  0  0  0
  194.4770  175.4230  138.5550 O   0  0  0  0  0  1  0  0  0  0  0  0
  193.8850  176.7730  136.7980 O   0  0  0  0  0  0  0  0  0  0  0  0
  189.0750  177.4310  134.5960 S   0  0  0  0  0  1  0  0  0  0  0  0
  187.7730  177.9930  135.7300 C   0  0  0  0  0  2  0  0  0  0  0  0
  1 19  1  6  0  0  0
  2  9  1  0  0  0  0
  3  2  1  0  0  0  0
  4 20  1  1  0  0  0
  5  4  1  0  0  0  0
  5 15  1  1  0  0  0
  6 19  1  0  0  0  0
  8 21  1  6  0  0  0
  8 23  1  0  0  0  0
  8 13  1  0  0  0  0
 10  7  1  1  0  0  0
 10  1  1  0  0  0  0
 11 10  1  0  0  0  0
 11  9  1  1  0  0  0
 12 18  1  6  0  0  0
 12 22  1  0  0  0  0
 13 15  1  0  0  0  0
 14  7  1  1  0  0  0
 14  6  1  0  0  0  0
 14 25  1  0  0  0  0
 16  3  1  0  0  0  0
 17 16  1  1  0  0  0
 17 11  1  0  0  0  0
 17 12  1  0  0  0  0
 18 23  1  0  0  0  0
 22  1  1  0  0  0  0
 22  4  1  0  0  0  0
 23  5  1  0  0  0  0
 24 25  1  0  0  0  0
 26 24  1  0  0  0  0
 26 25  1  0  0  0  0
 26 27  1  0  0  0  0
 28 27  1  0  0  0  0
 28 29  1  0  0  0  0
 30 28  2  0  0  0  0
 31 32  1  0  0  0  0
 32  6  1  0  0  0  0
M  END
>  <MODEL>
3

>  <REMARK>
 VINA RESULT:      -5.2      2.825      8.891
  Name = 
  4 active torsions:
  status: ('A' for Active; 'I' for Inactive)
    1  A    between atoms: N_7  and  C_19
    2  A    between atoms: C_10  and  C_17
    3  A    between atoms: C_20  and  C_29
    4  A    between atoms: C_29  and  C_30
                            x       y       z     vdW  Elec       q    Type
                         _______ _______ _______ _____ _____    ______ ____

>  <TORSDO>
F 4

$$$$
=
 OpenBabel11122410503D

 32 37  0  0  1  0  0  0  0  0999 V2000
  183.9390  176.7670  137.4860 C   0  0  1  0  0  3  0  0  0  0  0  0
  182.7720  173.1140  135.5810 O   0  0  0  0  0  0  0  0  0  0  0  0
  184.1330  172.7840  135.4300 C   0  0  0  0  0  2  0  0  0  0  0  0
  186.3830  177.4080  136.9910 C   0  0  1  0  0  3  0  0  0  0  0  0
  187.7840  176.8100  137.0830 C   0  0  2  0  0  3  0  0  0  0  0  0
  182.8220  178.2420  139.2170 N   0  0  0  0  0  0  0  0  0  0  0  0
  181.7330  176.2120  138.1920 C   0  0  0  0  0  2  0  0  0  0  0  0
  189.2420  175.0840  136.3350 C   0  0  1  0  0  3  0  0  0  0  0  0
  182.7230  174.4290  136.0790 C   0  0  0  0  0  2  0  0  0  0  0  0
  183.1200  175.7660  138.1820 N   0  0  1  0  0  0  0  0  0  0  0  0
  183.2300  174.4490  137.5360 C   0  0  2  0  0  3  0  0  0  0  0  0
  185.6610  174.9750  137.0320 C   0  0  2  0  0  3  0  0  0  0  0  0
  189.9270  176.4310  136.0830 C   0  0  0  0  0  2  0  0  0  0  0  0
  181.5950  177.4270  139.1150 C   0  0  2  0  0  3  0  0  0  0  0  0
  188.8980  177.5300  136.3660 C   0  0  0  0  0  2  0  0  0  0  0  0
  184.7930  172.6260  136.8050 C   0  0  0  0  0  2  0  0  0  0  0  0
  184.6830  173.9340  137.5940 C   0  0  2  0  0  3  0  0  0  0  0  0
  187.0010  174.5630  137.2280 O   0  0  0  0  0  0  0  0  0  0  0  0
  183.6660  178.1960  138.0130 C   0  0  0  0  0  2  0  0  0  0  0  0
  186.0360  177.6450  135.6560 O   0  0  0  0  0  1  0  0  0  0  0  0
  189.7120  174.5490  137.5370 O   0  0  0  0  0  1  0  0  0  0  0  0
  185.4160  176.3870  137.6310 C   0  0  2  0  0  3  0  0  0  0  0  0
  187.7750  175.4430  136.4520 C   0  0  1  0  0  3  0  0  0  0  0  0
  179.2300  177.7560  139.1750 O   0  0  0  0  0  0  0  0  0  0  0  0
  180.4290  178.2900  138.6710 C   0  0  1  0  0  3  0  0  0  0  0  0
  179.7590  178.8680  139.8550 C   0  0  1  0  0  3  0  0  0  0  0  0
  178.9940  180.1130  139.4510 C   0  0  0  0  0  2  0  0  0  0  0  0
  179.2550  181.2030  140.4290 C   0  0  0  0  0  0  0  0  0  0  0  0
  179.8200  180.9080  141.6640 O   0  0  0  0  0  1  0  0  0  0  0  0
  178.9320  182.3880  140.1540 O   0  0  0  0  0  0  0  0  0  0  0  0
  185.0130  178.9020  140.6220 S   0  0  0  0  0  1  0  0  0  0  0  0
  183.5980  177.7940  140.3660 C   0  0  0  0  0  2  0  0  0  0  0  0
  1 22  1  0  0  0  0
  1 19  1  1  0  0  0
  1 10  1  0  0  0  0
  2  9  1  0  0  0  0
  3  2  1  0  0  0  0
  3 16  1  0  0  0  0
  4 20  1  6  0  0  0
  4  5  1  0  0  0  0
  4 22  1  0  0  0  0
  5 15  1  6  0  0  0
  6 32  1  0  0  0  0
  8 23  1  0  0  0  0
  8 21  1  1  0  0  0
 10  7  1  6  0  0  0
 11  9  1  6  0  0  0
 11 17  1  0  0  0  0
 11 10  1  0  0  0  0
 12 18  1  1  0  0  0
 12 17  1  0  0  0  0
 12 22  1  0  0  0  0
 13  8  1  0  0  0  0
 13 15  1  0  0  0  0
 14  7  1  6  0  0  0
 14  6  1  0  0  0  0
 17 16  1  6  0  0  0
 19  6  1  0  0  0  0
 23  5  1  0  0  0  0
 23 18  1  0  0  0  0
 24 26  1  0  0  0  0
 25 14  1  0  0  0  0
 25 24  1  0  0  0  0
 25 26  1  0  0  0  0
 27 26  1  0  0  0  0
 27 28  1  0  0  0  0
 28 29  1  0  0  0  0
 30 28  2  0  0  0  0
 32 31  1  0  0  0  0
M  END
>  <MODEL>
4

>  <REMARK>
 VINA RESULT:      -5.0      3.626      5.970
  Name = 
  4 active torsions:
  status: ('A' for Active; 'I' for Inactive)
    1  A    between atoms: N_7  and  C_19
    2  A    between atoms: C_10  and  C_17
    3  A    between atoms: C_20  and  C_29
    4  A    between atoms: C_29  and  C_30
                            x       y       z     vdW  Elec       q    Type
                         _______ _______ _______ _____ _____    ______ ____

>  <TORSDO>
F 4

$$$$
=
 OpenBabel11122410503D

 32 37  0  0  1  0  0  0  0  0999 V2000
  189.4560  177.5590  140.3920 C   0  0  1  0  0  3  0  0  0  0  0  0
  192.1680  177.4360  143.7030 O   0  0  0  0  0  0  0  0  0  0  0  0
  191.0770  177.6120  144.5750 C   0  0  0  0  0  2  0  0  0  0  0  0
  187.1930  178.6250  141.0000 C   0  0  1  0  0  3  0  0  0  0  0  0
  186.0740  178.4720  142.0250 C   0  0  2  0  0  3  0  0  0  0  0  0
  189.5190  176.5380  138.0740 N   0  0  0  0  0  0  0  0  0  0  0  0
  191.4160  176.3790  139.7270 C   0  0  0  0  0  2  0  0  0  0  0  0
  185.4860  178.5600  144.3300 C   0  0  1  0  0  3  0  0  0  0  0  0
  191.6730  177.5810  142.3950 C   0  0  0  0  0  2  0  0  0  0  0  0
  190.2930  176.3810  140.6560 N   0  0  1  0  0  0  0  0  0  0  0  0
  190.7770  176.3750  142.0450 C   0  0  2  0  0  3  0  0  0  0  0  0
  188.5630  177.3960  142.7490 C   0  0  2  0  0  3  0  0  0  0  0  0
  184.5370  179.4830  143.5590 C   0  0  0  0  0  2  0  0  0  0  0  0
  190.9060  176.0910  138.3120 C   0  0  2  0  0  3  0  0  0  0  0  0
  185.0600  179.5830  142.1230 C   0  0  0  0  0  2  0  0  0  0  0  0
  190.1180  176.4200  144.4670 C   0  0  0  0  0  2  0  0  0  0  0  0
  189.5940  176.2960  143.0330 C   0  0  2  0  0  3  0  0  0  0  0  0
  187.4120  177.2250  143.5550 O   0  0  0  0  0  0  0  0  0  0  0  0
  189.1220  177.6970  138.8880 C   0  0  0  0  0  2  0  0  0  0  0  0
  187.8320  179.8620  141.1520 O   0  0  0  0  0  1  0  0  0  0  0  0
  184.8640  177.3250  144.5270 O   0  0  0  0  0  1  0  0  0  0  0  0
  188.1860  177.4670  141.2440 C   0  0  2  0  0  3  0  0  0  0  0  0
  186.6760  178.4120  143.4040 C   0  0  1  0  0  3  0  0  0  0  0  0
  193.1360  176.7900  137.8190 O   0  0  0  0  0  0  0  0  0  0  0  0
  191.8370  176.7070  137.2850 C   0  0  1  0  0  3  0  0  0  0  0  0
  192.8900  175.7350  136.9220 C   0  0  1  0  0  3  0  0  0  0  0  0
  193.4630  176.0880  135.5640 C   0  0  0  0  0  2  0  0  0  0  0  0
  194.8930  176.4740  135.7050 C   0  0  0  0  0  0  0  0  0  0  0  0
  195.7980  175.5880  136.2750 O   0  0  0  0  0  1  0  0  0  0  0  0
  195.2770  177.6160  135.3400 O   0  0  0  0  0  0  0  0  0  0  0  0
  187.2110  175.4950  137.1800 S   0  0  0  0  0  1  0  0  0  0  0  0
  188.6090  175.4320  138.3380 C   0  0  0  0  0  2  0  0  0  0  0  0
  1 19  1  6  0  0  0
  1 10  1  0  0  0  0
  1 22  1  0  0  0  0
  2  3  1  0  0  0  0
  4 20  1  1  0  0  0
  4 22  1  0  0  0  0
  4  5  1  0  0  0  0
  5 15  1  1  0  0  0
  5 23  1  0  0  0  0
  6 14  1  0  0  0  0
  6 32  1  0  0  0  0
  6 19  1  0  0  0  0
  8 21  1  6  0  0  0
  9  2  1  0  0  0  0
 10  7  1  6  0  0  0
 10 11  1  0  0  0  0
 11  9  1  1  0  0  0
 11 17  1  0  0  0  0
 12 17  1  0  0  0  0
 12 18  1  1  0  0  0
 13  8  1  0  0  0  0
 14  7  1  1  0  0  0
 15 13  1  0  0  0  0
 16  3  1  0  0  0  0
 17 16  1  1  0  0  0
 22 12  1  0  0  0  0
 23 18  1  0  0  0  0
 23  8  1  0  0  0  0
 25 24  1  0  0  0  0
 25 14  1  0  0  0  0
 26 25  1  0  0  0  0
 26 24  1  0  0  0  0
 27 28  1  0  0  0  0
 27 26  1  0  0  0  0
 28 29  1  0  0  0  0
 30 28  2  0  0  0  0
 31 32  1  0  0  0  0
M  END
>  <MODEL>
5

>  <REMARK>
 VINA RESULT:      -4.8      2.966      8.089
  Name = 
  4 active torsions:
  status: ('A' for Active; 'I' for Inactive)
    1  A    between atoms: N_7  and  C_19
    2  A    between atoms: C_10  and  C_17
    3  A    between atoms: C_20  and  C_29
    4  A    between atoms: C_29  and  C_30
                            x       y       z     vdW  Elec       q    Type
                         _______ _______ _______ _____ _____    ______ ____

>  <TORSDO>
F 4

$$$$
=
 OpenBabel11122410503D

 32 37  0  0  1  0  0  0  0  0999 V2000
  183.2430  176.7330  138.8030 C   0  0  1  0  0  3  0  0  0  0  0  0
  186.0840  176.6900  135.6000 O   0  0  0  0  0  0  0  0  0  0  0  0
  185.0940  176.1480  134.7580 C   0  0  0  0  0  2  0  0  0  0  0  0
  181.2410  175.1710  138.3750 C   0  0  1  0  0  3  0  0  0  0  0  0
  180.1750  174.9110  137.3150 C   0  0  2  0  0  3  0  0  0  0  0  0
  182.9880  178.1870  140.8620 N   0  0  0  0  0  0  0  0  0  0  0  0
  184.9230  178.3590  139.2550 C   0  0  0  0  0  2  0  0  0  0  0  0
  179.7510  174.2610  135.0650 C   0  0  1  0  0  3  0  0  0  0  0  0
  185.5450  176.7200  136.8990 C   0  0  0  0  0  2  0  0  0  0  0  0
  183.8750  177.9680  138.3210 N   0  0  1  0  0  0  0  0  0  0  0  0
  184.4330  177.7860  136.9720 C   0  0  2  0  0  3  0  0  0  0  0  0
  182.4770  176.2580  136.4420 C   0  0  2  0  0  3  0  0  0  0  0  0
  178.9330  173.3510  135.9880 C   0  0  0  0  0  2  0  0  0  0  0  0
  184.2870  178.8240  140.5690 C   0  0  2  0  0  3  0  0  0  0  0  0
  179.3780  173.6350  137.4260 C   0  0  0  0  0  2  0  0  0  0  0  0
  183.9380  177.1420  134.5970 C   0  0  0  0  0  2  0  0  0  0  0  0
  183.3160  177.4500  135.9620 C   0  0  2  0  0  3  0  0  0  0  0  0
  181.3640  176.0520  135.5930 O   0  0  0  0  0  0  0  0  0  0  0  0
  182.8490  176.8370  140.2950 C   0  0  0  0  0  2  0  0  0  0  0  0
  182.0940  174.0670  138.4960 O   0  0  0  0  0  1  0  0  0  0  0  0
  178.9360  175.2970  134.6040 O   0  0  0  0  0  1  0  0  0  0  0  0
  182.0290  176.4190  137.9210 C   0  0  2  0  0  3  0  0  0  0  0  0
  180.8390  174.8040  135.9680 C   0  0  1  0  0  3  0  0  0  0  0  0
  185.7100  179.8480  142.1910 O   0  0  0  0  0  0  0  0  0  0  0  0
  185.2490  178.6050  141.7210 C   0  0  1  0  0  3  0  0  0  0  0  0
  184.7040  179.2220  142.9490 C   0  0  1  0  0  3  0  0  0  0  0  0
  185.3260  178.5690  144.1660 C   0  0  0  0  0  2  0  0  0  0  0  0
  184.5090  178.8720  145.3730 C   0  0  0  0  0  0  0  0  0  0  0  0
  183.1390  179.0680  145.2530 O   0  0  0  0  0  0  0  0  0  0  0  0
  185.0630  178.9860  146.4970 O   0  0  0  0  0  1  0  0  0  0  0  0
  180.4210  178.8010  141.3590 S   0  0  0  0  0  1  0  0  0  0  0  0
  181.9160  179.0330  140.3550 C   0  0  0  0  0  2  0  0  0  0  0  0
  1 19  1  1  0  0  0
  2  9  1  0  0  0  0
  3  2  1  0  0  0  0
  4 20  1  6  0  0  0
  5 15  1  1  0  0  0
  5  4  1  0  0  0  0
  8 21  1  1  0  0  0
  8 23  1  0  0  0  0
  8 13  1  0  0  0  0
 10  1  1  0  0  0  0
 10  7  1  1  0  0  0
 11  9  1  1  0  0  0
 11 10  1  0  0  0  0
 12 18  1  6  0  0  0
 12 22  1  0  0  0  0
 13 15  1  0  0  0  0
 14  7  1  6  0  0  0
 14  6  1  0  0  0  0
 14 25  1  0  0  0  0
 16  3  1  0  0  0  0
 17 16  1  6  0  0  0
 17 12  1  0  0  0  0
 17 11  1  0  0  0  0
 18 23  1  0  0  0  0
 19  6  1  0  0  0  0
 22  4  1  0  0  0  0
 22  1  1  0  0  0  0
 23  5  1  0  0  0  0
 24 26  1  0  0  0  0
 25 24  1  0  0  0  0
 25 26  1  0  0  0  0
 26 27  1  0  0  0  0
 27 28  1  0  0  0  0
 28 30  1  0  0  0  0
 29 28  2  0  0  0  0
 32  6  1  0  0  0  0
 32 31  1  0  0  0  0
M  END
>  <MODEL>
6

>  <REMARK>
 VINA RESULT:      -4.8      5.491      8.748
  Name = 
  4 active torsions:
  status: ('A' for Active; 'I' for Inactive)
    1  A    between atoms: N_7  and  C_19
    2  A    between atoms: C_10  and  C_17
    3  A    between atoms: C_20  and  C_29
    4  A    between atoms: C_29  and  C_30
                            x       y       z     vdW  Elec       q    Type
                         _______ _______ _______ _____ _____    ______ ____

>  <TORSDO>
F 4

$$$$
=
 OpenBabel11122410503D

 32 37  0  0  1  0  0  0  0  0999 V2000
  188.7680  176.3720  138.1420 C   0  0  1  0  0  3  0  0  0  0  0  0
  189.7840  177.0700  142.2420 O   0  0  0  0  0  0  0  0  0  0  0  0
  191.1050  176.6760  141.9590 C   0  0  0  0  0  2  0  0  0  0  0  0
  190.4720  174.8620  136.9390 C   0  0  1  0  0  3  0  0  0  0  0  0
  191.9730  174.7850  136.6730 C   0  0  2  0  0  3  0  0  0  0  0  0
  187.0210  177.3730  136.6040 N   0  0  0  0  0  0  0  0  0  0  0  0
  187.2150  177.9290  139.0560 C   0  0  0  0  0  2  0  0  0  0  0  0
  194.1380  174.5870  137.6400 C   0  0  1  0  0  3  0  0  0  0  0  0
  189.0260  176.8200  141.0840 C   0  0  0  0  0  2  0  0  0  0  0  0
  188.6220  177.6990  138.7530 N   0  0  1  0  0  0  0  0  0  0  0  0
  189.4330  177.8120  139.9750 C   0  0  2  0  0  3  0  0  0  0  0  0
  191.1900  176.3570  138.8620 C   0  0  2  0  0  3  0  0  0  0  0  0
  193.9820  173.4830  136.5890 C   0  0  0  0  0  2  0  0  0  0  0  0
  186.4350  178.0990  137.7480 C   0  0  2  0  0  3  0  0  0  0  0  0
  192.5190  173.4870  136.1330 C   0  0  0  0  0  2  0  0  0  0  0  0
  191.7400  177.6430  140.9520 C   0  0  0  0  0  2  0  0  0  0  0  0
  190.9320  177.6480  139.6500 C   0  0  2  0  0  3  0  0  0  0  0  0
  192.5370  176.2890  138.4340 O   0  0  0  0  0  0  0  0  0  0  0  0
  187.7600  176.1600  136.9880 C   0  0  0  0  0  2  0  0  0  0  0  0
  190.0580  173.7850  137.7340 O   0  0  0  0  0  1  0  0  0  0  0  0
  194.8180  175.6670  137.0730 O   0  0  0  0  0  1  0  0  0  0  0  0
  190.2140  176.2020  137.6640 C   0  0  2  0  0  3  0  0  0  0  0  0
  192.7120  174.9740  137.9710 C   0  0  1  0  0  3  0  0  0  0  0  0
  184.3540  177.5820  136.6950 O   0  0  0  0  0  0  0  0  0  0  0  0
  184.9890  177.6850  137.9460 C   0  0  1  0  0  3  0  0  0  0  0  0
  184.7530  176.3760  137.3000 C   0  0  1  0  0  3  0  0  0  0  0  0
  183.5470  175.7070  137.9280 C   0  0  0  0  0  2  0  0  0  0  0  0
  183.0370  174.6380  137.0270 C   0  0  0  0  0  0  0  0  0  0  0  0
  183.4750  174.5730  135.7100 O   0  0  0  0  0  0  0  0  0  0  0  0
  182.1840  173.8140  137.4460 O   0  0  0  0  0  1  0  0  0  0  0  0
  188.8010  177.3400  134.5940 S   0  0  0  0  0  1  0  0  0  0  0  0
  187.9100  178.2670  135.8760 C   0  0  0  0  0  2  0  0  0  0  0  0
  1 19  1  6  0  0  0
  1 10  1  0  0  0  0
  3  2  1  0  0  0  0
  4 22  1  0  0  0  0
  4 20  1  1  0  0  0
  5 15  1  1  0  0  0
  5  4  1  0  0  0  0
  5 23  1  0  0  0  0
  6 19  1  0  0  0  0
  6 14  1  0  0  0  0
  8 21  1  6  0  0  0
  8 23  1  0  0  0  0
  9  2  1  0  0  0  0
 10  7  1  1  0  0  0
 10 11  1  0  0  0  0
 11  9  1  1  0  0  0
 12 18  1  6  0  0  0
 12 17  1  0  0  0  0
 13  8  1  0  0  0  0
 14 25  1  0  0  0  0
 14  7  1  1  0  0  0
 15 13  1  0  0  0  0
 16  3  1  0  0  0  0
 17 11  1  0  0  0  0
 17 16  1  1  0  0  0
 22  1  1  0  0  0  0
 22 12  1  0  0  0  0
 23 18  1  0  0  0  0
 24 26  1  0  0  0  0
 24 25  1  0  0  0  0
 26 27  1  0  0  0  0
 26 25  1  0  0  0  0
 28 30  1  0  0  0  0
 28 27  1  0  0  0  0
 29 28  2  0  0  0  0
 31 32  1  0  0  0  0
 32  6  1  0  0  0  0
M  END
>  <MODEL>
7

>  <REMARK>
 VINA RESULT:      -4.7      1.726      2.255
  Name = 
  4 active torsions:
  status: ('A' for Active; 'I' for Inactive)
    1  A    between atoms: N_7  and  C_19
    2  A    between atoms: C_10  and  C_17
    3  A    between atoms: C_20  and  C_29
    4  A    between atoms: C_29  and  C_30
                            x       y       z     vdW  Elec       q    Type
                         _______ _______ _______ _____ _____    ______ ____

>  <TORSDO>
F 4

$$$$
=
 OpenBabel11122410503D

 32 37  0  0  1  0  0  0  0  0999 V2000
  185.4940  177.0080  137.1230 C   0  0  1  0  0  3  0  0  0  0  0  0
  183.7250  173.5400  135.3400 O   0  0  0  0  0  0  0  0  0  0  0  0
  185.0020  172.9500  135.2750 C   0  0  0  0  0  2  0  0  0  0  0  0
  188.0340  177.1440  136.7220 C   0  0  1  0  0  3  0  0  0  0  0  0
  189.2890  176.2970  136.9130 C   0  0  2  0  0  3  0  0  0  0  0  0
  184.6120  178.7650  138.7210 N   0  0  0  0  0  0  0  0  0  0  0  0
  183.1960  176.9240  137.7410 C   0  0  0  0  0  2  0  0  0  0  0  0
  190.4170  174.2860  136.3250 C   0  0  1  0  0  3  0  0  0  0  0  0
  183.9100  174.8660  135.7700 C   0  0  0  0  0  2  0  0  0  0  0  0
  184.4710  176.2220  137.8240 N   0  0  1  0  0  0  0  0  0  0  0  0
  184.3510  174.8740  137.2480 C   0  0  2  0  0  3  0  0  0  0  0  0
  186.8570  174.8980  136.8430 C   0  0  2  0  0  3  0  0  0  0  0  0
  191.3580  175.4620  136.0430 C   0  0  0  0  0  2  0  0  0  0  0  0
  183.2570  178.1930  138.5960 C   0  0  2  0  0  3  0  0  0  0  0  0
  190.5490  176.7500  136.2190 C   0  0  0  0  0  2  0  0  0  0  0  0
  185.5630  172.7480  136.6870 C   0  0  0  0  0  2  0  0  0  0  0  0
  185.6750  174.0960  137.4050 C   0  0  2  0  0  3  0  0  0  0  0  0
  188.0830  174.2520  137.1270 O   0  0  0  0  0  0  0  0  0  0  0  0
  185.4800  178.4900  137.5650 C   0  0  0  0  0  2  0  0  0  0  0  0
  187.7930  177.3660  135.3600 O   0  0  0  0  0  1  0  0  0  0  0  0
  190.7260  173.7410  137.5730 O   0  0  0  0  0  1  0  0  0  0  0  0
  186.8640  176.3630  137.3600 C   0  0  2  0  0  3  0  0  0  0  0  0
  189.0420  174.9230  136.3500 C   0  0  1  0  0  3  0  0  0  0  0  0
  181.0090  178.6800  137.9490 O   0  0  0  0  0  0  0  0  0  0  0  0
  182.2980  179.2350  138.0520 C   0  0  1  0  0  3  0  0  0  0  0  0
  181.2480  179.5170  139.0540 C   0  0  1  0  0  3  0  0  0  0  0  0
  180.6440  180.8810  138.7900 C   0  0  0  0  0  2  0  0  0  0  0  0
  179.8800  181.3330  139.9840 C   0  0  0  0  0  0  0  0  0  0  0  0
  179.0010  182.4050  139.8820 O   0  0  0  0  0  0  0  0  0  0  0  0
  180.0540  180.7690  141.0960 O   0  0  0  0  0  1  0  0  0  0  0  0
  184.4010  178.9090  141.3940 S   0  0  0  0  0  1  0  0  0  0  0  0
  185.2400  178.2450  139.9280 C   0  0  0  0  0  2  0  0  0  0  0  0
  1 22  1  0  0  0  0
  1 19  1  1  0  0  0
  1 10  1  0  0  0  0
  2  9  1  0  0  0  0
  3  2  1  0  0  0  0
  3 16  1  0  0  0  0
  4 20  1  6  0  0  0
  4  5  1  0  0  0  0
  4 22  1  0  0  0  0
  5 15  1  6  0  0  0
  6 32  1  0  0  0  0
  8 23  1  0  0  0  0
  8 21  1  1  0  0  0
 10  7  1  6  0  0  0
 11  9  1  6  0  0  0
 11 17  1  0  0  0  0
 11 10  1  0  0  0  0
 12 18  1  1  0  0  0
 12 22  1  0  0  0  0
 12 17  1  0  0  0  0
 13 15  1  0  0  0  0
 13  8  1  0  0  0  0
 14  7  1  6  0  0  0
 14  6  1  0  0  0  0
 17 16  1  6  0  0  0
 19  6  1  0  0  0  0
 23  5  1  0  0  0  0
 23 18  1  0  0  0  0
 24 25  1  0  0  0  0
 24 26  1  0  0  0  0
 25 14  1  0  0  0  0
 25 26  1  0  0  0  0
 27 26  1  0  0  0  0
 27 28  1  0  0  0  0
 28 30  1  0  0  0  0
 29 28  2  0  0  0  0
 32 31  1  0  0  0  0
M  END
>  <MODEL>
8

>  <REMARK>
 VINA RESULT:      -4.7      3.185      5.047
  Name = 
  4 active torsions:
  status: ('A' for Active; 'I' for Inactive)
    1  A    between atoms: N_7  and  C_19
    2  A    between atoms: C_10  and  C_17
    3  A    between atoms: C_20  and  C_29
    4  A    between atoms: C_29  and  C_30
                            x       y       z     vdW  Elec       q    Type
                         _______ _______ _______ _____ _____    ______ ____

>  <TORSDO>
F 4

$$$$
=
 OpenBabel11122410503D

 32 37  0  0  1  0  0  0  0  0999 V2000
  188.5190  176.2570  136.5820 C   0  0  1  0  0  3  0  0  0  0  0  0
  186.4650  172.9100  134.8760 O   0  0  0  0  0  0  0  0  0  0  0  0
  187.7090  172.2900  134.6500 C   0  0  0  0  0  2  0  0  0  0  0  0
  191.0040  176.3450  135.9120 C   0  0  1  0  0  3  0  0  0  0  0  0
  192.2460  175.4590  135.9330 C   0  0  2  0  0  3  0  0  0  0  0  0
  187.8680  177.9700  138.3320 N   0  0  0  0  0  0  0  0  0  0  0  0
  186.3000  176.2070  137.4450 C   0  0  0  0  0  2  0  0  0  0  0  0
  193.2430  173.4450  135.1510 C   0  0  1  0  0  3  0  0  0  0  0  0
  186.7350  174.2130  135.3330 C   0  0  0  0  0  2  0  0  0  0  0  0
  187.5550  175.4700  137.3610 N   0  0  1  0  0  0  0  0  0  0  0  0
  187.3340  174.1490  136.7530 C   0  0  2  0  0  3  0  0  0  0  0  0
  189.7800  174.1260  136.0780 C   0  0  2  0  0  3  0  0  0  0  0  0
  194.1830  174.6060  134.8110 C   0  0  0  0  0  2  0  0  0  0  0  0
  186.4910  177.4390  138.3350 C   0  0  2  0  0  3  0  0  0  0  0  0
  193.4360  175.9070  135.1230 C   0  0  0  0  0  2  0  0  0  0  0  0
  188.4130  172.0180  135.9840 C   0  0  0  0  0  2  0  0  0  0  0  0
  188.6430  173.3330  136.7350 C   0  0  2  0  0  3  0  0  0  0  0  0
  191.0100  173.4380  136.2010 O   0  0  0  0  0  0  0  0  0  0  0  0
  188.5970  177.7200  137.0780 C   0  0  0  0  0  2  0  0  0  0  0  0
  190.6240  176.6270  134.5940 O   0  0  0  0  0  1  0  0  0  0  0  0
  193.6690  172.8430  136.3370 O   0  0  0  0  0  1  0  0  0  0  0  0
  189.8870  175.5690  136.6440 C   0  0  2  0  0  3  0  0  0  0  0  0
  191.8990  174.1150  135.3500 C   0  0  1  0  0  3  0  0  0  0  0  0
  184.2510  177.9530  137.6830 O   0  0  0  0  0  0  0  0  0  0  0  0
  185.5100  178.5260  137.9380 C   0  0  1  0  0  3  0  0  0  0  0  0
  184.4120  178.5910  138.9260 C   0  0  1  0  0  3  0  0  0  0  0  0
  183.7620  179.9580  138.8770 C   0  0  0  0  0  2  0  0  0  0  0  0
  182.2810  179.8110  138.8480 C   0  0  0  0  0  0  0  0  0  0  0  0
  181.5720  180.1450  137.7000 O   0  0  0  0  0  0  0  0  0  0  0  0
  181.6660  179.4170  139.8730 O   0  0  0  0  0  1  0  0  0  0  0  0
  188.1520  178.2190  140.9910 S   0  0  0  0  0  1  0  0  0  0  0  0
  188.6070  177.3860  139.4420 C   0  0  0  0  0  2  0  0  0  0  0  0
  1 22  1  0  0  0  0
  1 19  1  1  0  0  0
  1 10  1  0  0  0  0
  2  9  1  0  0  0  0
  3  2  1  0  0  0  0
  3 16  1  0  0  0  0
  4 20  1  6  0  0  0
  4  5  1  0  0  0  0
  4 22  1  0  0  0  0
  5 15  1  6  0  0  0
  6 14  1  0  0  0  0
  6 32  1  0  0  0  0
  8 23  1  0  0  0  0
  8 21  1  1  0  0  0
 10  7  1  6  0  0  0
 11  9  1  6  0  0  0
 11 10  1  0  0  0  0
 12 18  1  1  0  0  0
 12 22  1  0  0  0  0
 12 17  1  0  0  0  0
 13 15  1  0  0  0  0
 13  8  1  0  0  0  0
 14  7  1  6  0  0  0
 17 16  1  6  0  0  0
 17 11  1  0  0  0  0
 19  6  1  0  0  0  0
 23  5  1  0  0  0  0
 23 18  1  0  0  0  0
 24 25  1  0  0  0  0
 24 26  1  0  0  0  0
 25 14  1  0  0  0  0
 25 26  1  0  0  0  0
 27 26  1  0  0  0  0
 28 27  1  0  0  0  0
 28 30  1  0  0  0  0
 29 28  2  0  0  0  0
 32 31  1  0  0  0  0
M  END
>  <MODEL>
9

>  <REMARK>
 VINA RESULT:      -4.5      2.504      4.044
  Name = 
  4 active torsions:
  status: ('A' for Active; 'I' for Inactive)
    1  A    between atoms: N_7  and  C_19
    2  A    between atoms: C_10  and  C_17
    3  A    between atoms: C_20  and  C_29
    4  A    between atoms: C_29  and  C_30
                            x       y       z     vdW  Elec       q    Type
                         _______ _______ _______ _____ _____    ______ ____

>  <TORSDO>
F 4

$$$$
