=
 OpenBabel11122410513D

 32 37  0  0  1  0  0  0  0  0999 V2000
  192.0260  178.0820  144.0700 C   0  0  0  0  0  2  0  0  0  0  0  0
  187.1270  177.8480  141.9460 C   0  0  2  0  0  3  0  0  0  0  0  0
  184.5370  178.1650  146.2740 C   0  0  0  0  0  2  0  0  0  0  0  0
  183.6320  179.0600  145.4320 C   0  0  0  0  0  2  0  0  0  0  0  0
  185.8110  178.2870  139.8320 C   0  0  1  0  0  3  0  0  0  0  0  0
  184.5230  178.8380  139.2030 C   0  0  1  0  0  3  0  0  0  0  0  0
  189.6970  177.6630  142.1060 C   0  0  2  0  0  3  0  0  0  0  0  0
  188.1980  176.9950  144.0780 C   0  0  0  0  0  2  0  0  0  0  0  0
  182.6840  177.5640  140.0900 C   0  0  2  0  0  3  0  0  0  0  0  0
  190.5250  176.0160  143.8660 C   0  0  0  0  0  2  0  0  0  0  0  0
  185.9240  178.1340  145.6400 C   0  0  0  0  0  2  0  0  0  0  0  0
  187.1940  177.9940  143.4780 C   0  0  2  0  0  3  0  0  0  0  0  0
  185.8290  177.8120  144.1440 C   0  0  2  0  0  3  0  0  0  0  0  0
  184.6680  178.4720  142.0210 C   0  0  1  0  0  3  0  0  0  0  0  0
  183.0660  177.0560  138.7110 C   0  0  0  0  0  2  0  0  0  0  0  0
  191.6580  178.2940  142.7270 O   0  0  0  0  0  0  0  0  0  0  0  0
  189.3110  176.5650  143.1110 C   0  0  2  0  0  3  0  0  0  0  0  0
  184.0980  177.9300  138.1450 N   0  0  0  0  0  2  0  0  0  0  0  0
  190.4010  178.6960  142.7390 O   0  0  0  0  0  0  0  0  0  0  0  0
  191.1330  177.0680  144.8020 C   0  0  1  0  0  3  0  0  0  0  0  0
  183.5360  178.5440  144.1280 O   0  0  0  0  0  0  0  0  0  0  0  0
  184.7880  178.7460  143.5140 C   0  0  1  0  0  3  0  0  0  0  0  0
  183.6920  179.3300  141.4800 O   0  0  0  0  0  0  0  0  0  0  0  0
  188.4900  178.2370  141.3540 C   0  0  0  0  0  2  0  0  0  0  0  0
  186.8960  178.7000  139.0570 O   0  0  0  0  0  1  0  0  0  0  0  0
  181.1810  177.7290  140.1840 C   0  0  0  0  0  1  0  0  0  0  0  0
  186.0050  178.6920  141.3020 C   0  0  1  0  0  3  0  0  0  0  0  0
  183.3560  178.9110  140.1730 C   0  0  1  0  0  3  0  0  0  0  0  0
  191.9040  176.4210  145.8550 N   0  0  0  0  0  0  0  0  0  0  0  0
  191.5420  176.4090  147.1020 C   0  0  0  0  0  0  0  0  0  0  0  0
  192.3580  175.7490  148.0610 N   0  0  0  0  0  1  0  0  0  0  0  0
  190.3460  177.0590  147.5270 N   0  0  0  0  0  1  0  0  0  0  0  0
  1 20  1  0  0  0  0
  2 24  1  6  0  0  0
  2 12  1  0  0  0  0
  4  3  1  0  0  0  0
  5 25  1  6  0  0  0
  5 27  1  0  0  0  0
  6 18  1  6  0  0  0
  6  5  1  0  0  0  0
  6 28  1  0  0  0  0
  7 24  1  1  0  0  0
  7 19  1  0  0  0  0
  7 17  1  0  0  0  0
  9 28  1  0  0  0  0
  9 26  1  6  0  0  0
 10 20  1  0  0  0  0
 11  3  1  0  0  0  0
 12  8  1  1  0  0  0
 12 13  1  0  0  0  0
 13 11  1  1  0  0  0
 14 23  1  6  0  0  0
 14 22  1  0  0  0  0
 15  9  1  0  0  0  0
 16 19  1  0  0  0  0
 16  1  1  0  0  0  0
 17 10  1  1  0  0  0
 17  8  1  0  0  0  0
 18 15  1  0  0  0  0
 20 29  1  1  0  0  0
 21  4  1  0  0  0  0
 22 21  1  1  0  0  0
 22 13  1  0  0  0  0
 27  2  1  0  0  0  0
 27 14  1  0  0  0  0
 28 23  1  0  0  0  0
 29 30  2  0  0  0  0
 30 32  1  0  0  0  0
 30 31  1  0  0  0  0
M  END
>  <MODEL>
1

>  <REMARK>
 VINA RESULT:     -10.7      0.000      0.000
  Name = 
  1 active torsions:
  status: ('A' for Active; 'I' for Inactive)
    1  A    between atoms: C_20  and  N_29
                            x       y       z     vdW  Elec       q    Type
                         _______ _______ _______ _____ _____    ______ ____

>  <TORSDO>
F 1

$$$$
=
 OpenBabel11122410513D

 32 37  0  0  1  0  0  0  0  0999 V2000
  191.6650  178.3740  144.5380 C   0  0  0  0  0  2  0  0  0  0  0  0
  187.1960  177.9240  141.6420 C   0  0  2  0  0  3  0  0  0  0  0  0
  183.9160  178.8020  145.3840 C   0  0  0  0  0  2  0  0  0  0  0  0
  183.1970  179.5940  144.2960 C   0  0  0  0  0  2  0  0  0  0  0  0
  186.2750  178.1080  139.2930 C   0  0  1  0  0  3  0  0  0  0  0  0
  185.1310  178.5890  138.3890 C   0  0  1  0  0  3  0  0  0  0  0  0
  189.6940  177.7350  142.2660 C   0  0  2  0  0  3  0  0  0  0  0  0
  187.8600  177.3330  144.0140 C   0  0  0  0  0  2  0  0  0  0  0  0
  183.1290  177.4540  139.0910 C   0  0  2  0  0  3  0  0  0  0  0  0
  190.1570  176.3130  144.3290 C   0  0  0  0  0  2  0  0  0  0  0  0
  185.3890  178.6800  145.0090 C   0  0  0  0  0  2  0  0  0  0  0  0
  187.0050  178.2590  143.1330 C   0  0  2  0  0  3  0  0  0  0  0  0
  185.5410  178.1740  143.5690 C   0  0  2  0  0  3  0  0  0  0  0  0
  184.7810  178.5760  141.2120 C   0  0  1  0  0  3  0  0  0  0  0  0
  183.7260  176.7730  137.8710 C   0  0  0  0  0  2  0  0  0  0  0  0
  191.5390  178.4200  143.1360 O   0  0  0  0  0  0  0  0  0  0  0  0
  189.1080  176.7750  143.3140 C   0  0  2  0  0  3  0  0  0  0  0  0
  184.8660  177.5600  137.3910 N   0  0  0  0  0  2  0  0  0  0  0  0
  190.3110  178.8320  142.8810 O   0  0  0  0  0  0  0  0  0  0  0  0
  190.6300  177.4670  145.2220 C   0  0  1  0  0  3  0  0  0  0  0  0
  183.3090  178.9200  143.0660 O   0  0  0  0  0  0  0  0  0  0  0  0
  184.6530  179.0330  142.6590 C   0  0  1  0  0  3  0  0  0  0  0  0
  183.9390  179.3690  140.4110 O   0  0  0  0  0  0  0  0  0  0  0  0
  188.6520  178.2230  141.2520 C   0  0  0  0  0  2  0  0  0  0  0  0
  187.4890  178.4110  138.6740 O   0  0  0  0  0  1  0  0  0  0  0  0
  181.6380  177.6430  138.9020 C   0  0  0  0  0  1  0  0  0  0  0  0
  186.2280  178.6920  140.7150 C   0  0  1  0  0  3  0  0  0  0  0  0
  183.8180  178.7930  139.1250 C   0  0  1  0  0  3  0  0  0  0  0  0
  191.1880  176.9490  146.4630 N   0  0  0  0  0  0  0  0  0  0  0  0
  191.9800  175.9220  146.5170 C   0  0  0  0  0  0  0  0  0  0  0  0
  192.4800  175.4890  147.7760 N   0  0  0  0  0  1  0  0  0  0  0  0
  192.3470  175.2120  145.3360 N   0  0  0  0  0  1  0  0  0  0  0  0
  1 20  1  0  0  0  0
  2 24  1  6  0  0  0
  2 12  1  0  0  0  0
  4  3  1  0  0  0  0
  5 25  1  6  0  0  0
  5 27  1  0  0  0  0
  6 18  1  6  0  0  0
  6 28  1  0  0  0  0
  6  5  1  0  0  0  0
  7 24  1  6  0  0  0
  7 19  1  0  0  0  0
  7 17  1  0  0  0  0
  9 26  1  6  0  0  0
  9 28  1  0  0  0  0
 10 20  1  0  0  0  0
 11  3  1  0  0  0  0
 12 13  1  0  0  0  0
 12  8  1  1  0  0  0
 13 11  1  1  0  0  0
 14 23  1  6  0  0  0
 14 22  1  0  0  0  0
 15  9  1  0  0  0  0
 16  1  1  0  0  0  0
 17  8  1  1  0  0  0
 17 10  1  0  0  0  0
 18 15  1  0  0  0  0
 19 16  1  0  0  0  0
 20 29  1  1  0  0  0
 21  4  1  0  0  0  0
 22 21  1  1  0  0  0
 22 13  1  0  0  0  0
 27 14  1  0  0  0  0
 27  2  1  0  0  0  0
 28 23  1  0  0  0  0
 29 30  2  0  0  0  0
 30 31  1  0  0  0  0
 32 30  1  0  0  0  0
M  END
>  <MODEL>
2

>  <REMARK>
 VINA RESULT:      -9.0      0.824      1.049
  Name = 
  1 active torsions:
  status: ('A' for Active; 'I' for Inactive)
    1  A    between atoms: C_20  and  N_29
                            x       y       z     vdW  Elec       q    Type
                         _______ _______ _______ _____ _____    ______ ____

>  <TORSDO>
F 1

$$$$
=
 OpenBabel11122410513D

 32 37  0  0  1  0  0  0  0  0999 V2000
  191.2770  178.2930  144.7570 C   0  0  0  0  0  2  0  0  0  0  0  0
  189.2120  177.2120  139.9480 C   0  0  2  0  0  3  0  0  0  0  0  0
  184.5780  179.0310  140.8170 C   0  0  0  0  0  2  0  0  0  0  0  0
  184.7300  179.5420  139.3880 C   0  0  0  0  0  2  0  0  0  0  0  0
  189.8150  176.8260  137.5230 C   0  0  1  0  0  3  0  0  0  0  0  0
  189.4710  177.0870  136.0490 C   0  0  1  0  0  3  0  0  0  0  0  0
  190.8580  177.1450  141.9360 C   0  0  2  0  0  3  0  0  0  0  0  0
  188.3230  177.2120  142.3200 C   0  0  0  0  0  2  0  0  0  0  0  0
  187.2740  176.1890  135.6510 C   0  0  2  0  0  3  0  0  0  0  0  0
  189.8520  176.2670  144.1060 C   0  0  0  0  0  2  0  0  0  0  0  0
  185.9660  178.7980  141.4050 C   0  0  0  0  0  2  0  0  0  0  0  0
  188.2680  177.9050  140.9490 C   0  0  2  0  0  3  0  0  0  0  0  0
  186.8220  177.9520  140.4550 C   0  0  2  0  0  3  0  0  0  0  0  0
  187.5940  177.7740  138.0750 C   0  0  1  0  0  3  0  0  0  0  0  0
  188.3400  175.2210  135.1660 C   0  0  0  0  0  2  0  0  0  0  0  0
  191.9720  177.9950  143.5690 O   0  0  0  0  0  0  0  0  0  0  0  0
  189.6430  176.4810  142.6040 C   0  0  2  0  0  3  0  0  0  0  0  0
  189.6580  175.8480  135.3030 N   0  0  0  0  0  2  0  0  0  0  0  0
  191.1830  178.3510  142.5710 O   0  0  0  0  0  0  0  0  0  0  0  0
  189.9110  177.5970  144.8650 C   0  0  1  0  0  3  0  0  0  0  0  0
  185.4090  178.5850  138.6120 O   0  0  0  0  0  0  0  0  0  0  0  0
  186.7460  178.5740  139.0540 C   0  0  1  0  0  3  0  0  0  0  0  0
  187.4850  178.3570  136.7990 O   0  0  0  0  0  0  0  0  0  0  0  0
  190.6590  177.3840  140.4340 C   0  0  0  0  0  2  0  0  0  0  0  0
  191.1960  176.9500  137.6850 O   0  0  0  0  0  1  0  0  0  0  0  0
  186.2000  176.3480  134.5950 C   0  0  0  0  0  1  0  0  0  0  0  0
  189.0660  177.7430  138.5050 C   0  0  1  0  0  3  0  0  0  0  0  0
  188.0220  177.4860  135.8240 C   0  0  1  0  0  3  0  0  0  0  0  0
  189.5850  177.3920  146.2700 N   0  0  0  0  0  0  0  0  0  0  0  0
  188.3910  177.5450  146.7570 C   0  0  0  0  0  0  0  0  0  0  0  0
  188.1670  177.3200  148.1430 N   0  0  0  0  0  1  0  0  0  0  0  0
  187.3040  177.9480  145.9270 N   0  0  0  0  0  1  0  0  0  0  0  0
  1 20  1  0  0  0  0
  2 24  1  1  0  0  0
  2 12  1  0  0  0  0
  3 11  1  0  0  0  0
  4  3  1  0  0  0  0
  5 25  1  6  0  0  0
  5 27  1  0  0  0  0
  6 18  1  6  0  0  0
  6  5  1  0  0  0  0
  7 24  1  6  0  0  0
  7 19  1  0  0  0  0
  7 17  1  0  0  0  0
  9 26  1  6  0  0  0
  9 28  1  0  0  0  0
 10 20  1  0  0  0  0
 12  8  1  1  0  0  0
 13 12  1  0  0  0  0
 13 11  1  1  0  0  0
 14 23  1  6  0  0  0
 14 27  1  0  0  0  0
 14 22  1  0  0  0  0
 15 18  1  0  0  0  0
 15  9  1  0  0  0  0
 16  1  1  0  0  0  0
 17  8  1  1  0  0  0
 17 10  1  0  0  0  0
 19 16  1  0  0  0  0
 20 29  1  1  0  0  0
 21  4  1  0  0  0  0
 22 21  1  6  0  0  0
 22 13  1  0  0  0  0
 27  2  1  0  0  0  0
 28  6  1  0  0  0  0
 28 23  1  0  0  0  0
 29 30  2  0  0  0  0
 30 31  1  0  0  0  0
 32 30  1  0  0  0  0
M  END
>  <MODEL>
3

>  <REMARK>
 VINA RESULT:      -8.6      3.048      4.464
  Name = 
  1 active torsions:
  status: ('A' for Active; 'I' for Inactive)
    1  A    between atoms: C_20  and  N_29
                            x       y       z     vdW  Elec       q    Type
                         _______ _______ _______ _____ _____    ______ ____

>  <TORSDO>
F 1

$$$$
