=
 OpenBabel11122410243D

 30 36  0  0  1  0  0  0  0  0999 V2000
  186.8390  178.1850  140.2040 C   0  0  1  0  0  3  0  0  0  0  0  0
  188.8890  177.6500  141.6090 C   0  0  0  0  0  0  0  0  0  0  0  0
  184.3620  178.5700  143.6250 N   0  0  0  0  0  2  0  0  0  0  0  0
  185.4970  178.9580  140.1190 C   0  0  1  0  0  3  0  0  0  0  0  0
  187.6040  178.4130  139.0500 O   0  0  0  0  0  0  0  0  0  0  0  0
  184.9680  177.7110  136.6770 O   0  0  0  0  0  1  0  0  0  0  0  0
  182.6210  177.8450  139.2160 C   0  0  1  0  0  3  0  0  0  0  0  0
  185.4390  177.6870  137.9940 C   0  0  1  0  0  3  0  0  0  0  0  0
  182.2880  177.9730  140.7080 C   0  0  2  0  0  3  0  0  0  0  0  0
  183.1080  178.7010  142.9680 C   0  0  0  0  0  0  0  0  0  0  0  0
  186.9870  177.7240  137.9680 C   0  0  2  0  0  3  0  0  0  0  0  0
  184.9180  178.8390  138.7500 N   0  0  1  0  0  0  0  0  0  0  0  0
  189.1230  176.7120  142.7170 C   0  0  0  0  0  3  0  0  0  0  0  0
  180.8560  178.4580  140.7630 C   0  0  0  0  0  2  0  0  0  0  0  0
  181.2880  177.7460  138.4910 C   0  0  0  0  0  2  0  0  0  0  0  0
  189.7950  177.8280  140.7550 O   0  0  0  0  0  0  0  0  0  0  0  0
  185.3340  178.8450  142.5850 C   0  0  2  0  0  3  0  0  0  0  0  0
  188.2140  176.5460  143.6760 C   0  0  0  0  0  3  0  0  0  0  0  0
  187.6040  178.4410  141.5230 C   0  0  2  0  0  3  0  0  0  0  0  0
  184.6600  178.4320  141.2890 C   0  0  1  0  0  3  0  0  0  0  0  0
  182.0170  178.6930  143.5960 O   0  0  0  0  0  0  0  0  0  0  0  0
  183.2270  178.8890  141.4870 C   0  0  1  0  0  3  0  0  0  0  0  0
  180.1990  177.8570  139.5430 C   0  0  0  0  0  2  0  0  0  0  0  0
  182.9800  180.4060  138.8920 C   0  0  0  0  0  1  0  0  0  0  0  0
  186.9420  177.2860  143.6570 C   0  0  0  0  0  3  0  0  0  0  0  0
  186.6600  178.1640  142.6870 C   0  0  0  0  0  0  0  0  0  0  0  0
  183.4590  178.9870  138.6030 C   0  0  2  0  0  3  0  0  0  0  0  0
  187.6000  176.3500  137.6540 C   0  0  2  0  0  3  0  0  0  0  0  0
  188.8780  176.4590  136.9130 C   0  0  0  0  0  2  0  0  0  0  0  0
  187.6720  176.1360  136.2640 O   0  0  0  0  0  0  0  0  0  0  0  0
  1  5  1  6  0  0  0
  1 19  1  0  0  0  0
  2 13  1  0  0  0  0
  4  1  1  0  0  0  0
  4 20  1  0  0  0  0
  6  8  1  0  0  0  0
  7  9  1  0  0  0  0
  8 12  1  0  0  0  0
  9 14  1  0  0  0  0
  9 22  1  0  0  0  0
 10 21  2  0  0  0  0
 10  3  1  0  0  0  0
 11  8  1  0  0  0  0
 11  5  1  0  0  0  0
 12  4  1  0  0  0  0
 13 18  2  0  0  0  0
 15  7  1  0  0  0  0
 15 23  1  0  0  0  0
 16  2  2  0  0  0  0
 17 26  1  0  0  0  0
 17  3  1  0  0  0  0
 19  2  1  0  0  0  0
 19 26  1  0  0  0  0
 20 22  1  0  0  0  0
 20 17  1  0  0  0  0
 22 10  1  0  0  0  0
 23 14  1  0  0  0  0
 25 18  1  0  0  0  0
 26 25  2  0  0  0  0
 27 12  1  0  0  0  0
 27 24  1  0  0  0  0
 27  7  1  0  0  0  0
 28 11  1  0  0  0  0
 29 28  1  0  0  0  0
 30 29  1  0  0  0  0
 30 28  1  0  0  0  0
M  END
>  <MODEL>
1

>  <REMARK>
 VINA RESULT:      -8.5      0.000      0.000
  Name = 
  1 active torsions:
  status: ('A' for Active; 'I' for Inactive)
    1  A    between atoms: C_11  and  C_28
                            x       y       z     vdW  Elec       q    Type
                         _______ _______ _______ _____ _____    ______ ____

>  <TORSDO>
F 1

$$$$
=
 OpenBabel11122410243D

 30 36  0  0  1  0  0  0  0  0999 V2000
  184.8460  178.3990  139.1580 C   0  0  1  0  0  3  0  0  0  0  0  0
  182.3060  178.2960  139.1670 C   0  0  0  0  0  0  0  0  0  0  0  0
  185.1110  176.1710  135.5590 N   0  0  0  0  0  2  0  0  0  0  0  0
  186.1340  178.4510  138.2960 C   0  0  1  0  0  3  0  0  0  0  0  0
  184.8790  179.4030  140.1380 O   0  0  0  0  0  0  0  0  0  0  0  0
  188.2050  178.6700  141.3520 O   0  0  0  0  0  1  0  0  0  0  0  0
  188.7930  176.6700  138.5900 C   0  0  1  0  0  3  0  0  0  0  0  0
  187.1020  178.3090  140.5700 C   0  0  1  0  0  3  0  0  0  0  0  0
  188.2860  175.9990  137.3080 C   0  0  2  0  0  3  0  0  0  0  0  0
  186.5210  175.9930  135.5200 C   0  0  0  0  0  0  0  0  0  0  0  0
  185.8480  179.0360  141.1140 C   0  0  2  0  0  3  0  0  0  0  0  0
  187.3270  178.6730  139.1610 N   0  0  1  0  0  0  0  0  0  0  0  0
  181.3500  177.1930  138.9880 C   0  0  0  0  0  3  0  0  0  0  0  0
  189.5220  175.7240  136.4780 C   0  0  0  0  0  2  0  0  0  0  0  0
  190.2650  176.3040  138.7070 C   0  0  0  0  0  2  0  0  0  0  0  0
  182.0520  179.1970  140.0080 O   0  0  0  0  0  0  0  0  0  0  0  0
  184.9200  177.2550  136.5010 C   0  0  2  0  0  3  0  0  0  0  0  0
  181.5540  176.2560  138.0640 C   0  0  0  0  0  3  0  0  0  0  0  0
  183.5510  178.3880  138.3150 C   0  0  2  0  0  3  0  0  0  0  0  0
  186.1000  177.1720  137.4520 C   0  0  1  0  0  3  0  0  0  0  0  0
  187.0800  175.2400  134.6810 O   0  0  0  0  0  0  0  0  0  0  0  0
  187.2540  176.8150  136.5350 C   0  0  1  0  0  3  0  0  0  0  0  0
  190.6140  175.4680  137.4900 C   0  0  0  0  0  2  0  0  0  0  0  0
  189.1240  178.9950  137.4580 C   0  0  0  0  0  1  0  0  0  0  0  0
  182.7420  176.2860  137.1960 C   0  0  0  0  0  3  0  0  0  0  0  0
  183.6520  177.2630  137.2930 C   0  0  0  0  0  0  0  0  0  0  0  0
  188.6350  178.2030  138.6660 C   0  0  2  0  0  3  0  0  0  0  0  0
  185.2700  178.3510  142.3620 C   0  0  2  0  0  3  0  0  0  0  0  0
  184.7710  179.3260  143.3600 C   0  0  0  0  0  2  0  0  0  0  0  0
  186.0140  178.6840  143.5100 O   0  0  0  0  0  0  0  0  0  0  0  0
  1  5  1  1  0  0  0
  2 16  2  0  0  0  0
  3 17  1  0  0  0  0
  4  1  1  0  0  0  0
  4 12  1  0  0  0  0
  5 11  1  0  0  0  0
  7 27  1  0  0  0  0
  7 15  1  0  0  0  0
  8 11  1  0  0  0  0
  8  6  1  0  0  0  0
  9  7  1  0  0  0  0
 10  3  1  0  0  0  0
 10 22  1  0  0  0  0
 11 28  1  0  0  0  0
 12  8  1  0  0  0  0
 13  2  1  0  0  0  0
 14  9  1  0  0  0  0
 14 23  1  0  0  0  0
 17 26  1  0  0  0  0
 17 20  1  0  0  0  0
 18 13  2  0  0  0  0
 19  1  1  0  0  0  0
 19  2  1  0  0  0  0
 20  4  1  0  0  0  0
 21 10  2  0  0  0  0
 22  9  1  0  0  0  0
 22 20  1  0  0  0  0
 23 15  1  0  0  0  0
 24 27  1  0  0  0  0
 25 26  2  0  0  0  0
 25 18  1  0  0  0  0
 26 19  1  0  0  0  0
 27 12  1  0  0  0  0
 28 29  1  0  0  0  0
 28 30  1  0  0  0  0
 29 30  1  0  0  0  0
M  END
>  <MODEL>
2

>  <REMARK>
 VINA RESULT:      -7.3      2.195      6.971
  Name = 
  1 active torsions:
  status: ('A' for Active; 'I' for Inactive)
    1  A    between atoms: C_11  and  C_28
                            x       y       z     vdW  Elec       q    Type
                         _______ _______ _______ _____ _____    ______ ____

>  <TORSDO>
F 1

$$$$
=
 OpenBabel11122410243D

 30 36  0  0  1  0  0  0  0  0999 V2000
  186.8100  178.5170  141.2080 C   0  0  1  0  0  3  0  0  0  0  0  0
  184.9170  179.1880  142.7670 C   0  0  0  0  0  0  0  0  0  0  0  0
  184.2030  178.1850  137.8800 N   0  0  0  0  0  2  0  0  0  0  0  0
  187.3720  178.5630  139.7640 C   0  0  1  0  0  3  0  0  0  0  0  0
  187.7970  178.9090  142.1250 O   0  0  0  0  0  0  0  0  0  0  0  0
  190.4040  176.7490  140.8560 O   0  0  0  0  0  1  0  0  0  0  0  0
  188.5360  176.1350  138.0080 C   0  0  1  0  0  3  0  0  0  0  0  0
  189.0580  177.1280  140.8730 C   0  0  1  0  0  3  0  0  0  0  0  0
  187.2320  176.3010  137.2180 C   0  0  2  0  0  3  0  0  0  0  0  0
  185.1180  177.6310  136.9450 C   0  0  0  0  0  0  0  0  0  0  0  0
  188.7680  177.8700  142.2000 C   0  0  2  0  0  3  0  0  0  0  0  0
  188.7520  178.0010  139.7270 N   0  0  1  0  0  0  0  0  0  0  0  0
  183.5800  178.6280  143.0140 C   0  0  0  0  0  3  0  0  0  0  0  0
  187.6050  176.0730  135.7690 C   0  0  0  0  0  2  0  0  0  0  0  0
  189.4720  175.3330  137.1190 C   0  0  0  0  0  2  0  0  0  0  0  0
  185.5800  179.6430  143.7350 O   0  0  0  0  0  0  0  0  0  0  0  0
  185.0510  178.7300  138.9210 C   0  0  2  0  0  3  0  0  0  0  0  0
  182.8240  178.1950  142.0070 C   0  0  0  0  0  3  0  0  0  0  0  0
  185.4730  179.2760  141.3640 C   0  0  2  0  0  3  0  0  0  0  0  0
  186.3060  177.8780  138.9000 C   0  0  1  0  0  3  0  0  0  0  0  0
  184.7520  177.2080  135.8170 O   0  0  0  0  0  0  0  0  0  0  0  0
  186.5380  177.6450  137.4200 C   0  0  1  0  0  3  0  0  0  0  0  0
  188.7370  175.0740  135.8170 C   0  0  0  0  0  2  0  0  0  0  0  0
  189.4300  178.5010  137.3770 C   0  0  0  0  0  1  0  0  0  0  0  0
  183.3000  178.2550  140.6160 C   0  0  0  0  0  3  0  0  0  0  0  0
  184.5010  178.7600  140.3110 C   0  0  0  0  0  0  0  0  0  0  0  0
  189.2340  177.4380  138.4530 C   0  0  2  0  0  3  0  0  0  0  0  0
  188.5790  176.9050  143.3820 C   0  0  2  0  0  3  0  0  0  0  0  0
  189.0260  177.4930  144.6660 C   0  0  0  0  0  2  0  0  0  0  0  0
  189.8180  176.5680  143.9600 O   0  0  0  0  0  0  0  0  0  0  0  0
  1 19  1  0  0  0  0
  1  5  1  1  0  0  0
  2 13  1  0  0  0  0
  2 16  2  0  0  0  0
  3 17  1  0  0  0  0
  4  1  1  0  0  0  0
  5 11  1  0  0  0  0
  6  8  1  0  0  0  0
  7 27  1  0  0  0  0
  8 11  1  0  0  0  0
  9 22  1  0  0  0  0
  9  7  1  0  0  0  0
 10 22  1  0  0  0  0
 10  3  1  0  0  0  0
 11 28  1  0  0  0  0
 12  4  1  0  0  0  0
 12  8  1  0  0  0  0
 14 23  1  0  0  0  0
 14  9  1  0  0  0  0
 15  7  1  0  0  0  0
 17 26  1  0  0  0  0
 18 13  2  0  0  0  0
 19  2  1  0  0  0  0
 20 17  1  0  0  0  0
 20  4  1  0  0  0  0
 21 10  2  0  0  0  0
 22 20  1  0  0  0  0
 23 15  1  0  0  0  0
 24 27  1  0  0  0  0
 25 18  1  0  0  0  0
 26 25  2  0  0  0  0
 26 19  1  0  0  0  0
 27 12  1  0  0  0  0
 28 30  1  0  0  0  0
 28 29  1  0  0  0  0
 30 29  1  0  0  0  0
M  END
>  <MODEL>
3

>  <REMARK>
 VINA RESULT:      -7.1      2.038      5.895
  Name = 
  1 active torsions:
  status: ('A' for Active; 'I' for Inactive)
    1  A    between atoms: C_11  and  C_28
                            x       y       z     vdW  Elec       q    Type
                         _______ _______ _______ _____ _____    ______ ____

>  <TORSDO>
F 1

$$$$
=
 OpenBabel11122410243D

 30 36  0  0  1  0  0  0  0  0999 V2000
  186.9120  178.2530  139.7410 C   0  0  1  0  0  3  0  0  0  0  0  0
  185.0020  179.0030  141.2410 C   0  0  0  0  0  0  0  0  0  0  0  0
  184.2710  177.1270  136.6210 N   0  0  0  0  0  2  0  0  0  0  0  0
  187.4330  178.1050  138.2880 C   0  0  1  0  0  3  0  0  0  0  0  0
  187.8790  178.8830  140.5400 O   0  0  0  0  0  0  0  0  0  0  0  0
  190.6510  176.7860  139.5450 O   0  0  0  0  0  1  0  0  0  0  0  0
  188.7830  175.5320  136.9150 C   0  0  1  0  0  3  0  0  0  0  0  0
  189.2750  177.0380  139.5530 C   0  0  1  0  0  3  0  0  0  0  0  0
  187.4510  175.4420  136.1610 C   0  0  2  0  0  3  0  0  0  0  0  0
  185.2130  176.5080  135.7550 C   0  0  0  0  0  0  0  0  0  0  0  0
  188.9470  177.9650  140.7480 C   0  0  2  0  0  3  0  0  0  0  0  0
  188.8590  177.6740  138.2910 N   0  0  1  0  0  0  0  0  0  0  0  0
  183.7310  178.3730  141.6310 C   0  0  0  0  0  3  0  0  0  0  0  0
  187.8100  175.0070  134.7560 C   0  0  0  0  0  2  0  0  0  0  0  0
  189.7720  174.6800  136.1350 C   0  0  0  0  0  2  0  0  0  0  0  0
  185.6400  179.6740  142.0930 O   0  0  0  0  0  0  0  0  0  0  0  0
  185.0870  177.9150  137.5220 C   0  0  2  0  0  3  0  0  0  0  0  0
  182.9970  177.7100  140.7400 C   0  0  0  0  0  3  0  0  0  0  0  0
  185.5130  178.9030  139.8220 C   0  0  2  0  0  3  0  0  0  0  0  0
  186.4180  177.1900  137.5940 C   0  0  1  0  0  3  0  0  0  0  0  0
  184.8630  175.8690  134.7280 O   0  0  0  0  0  0  0  0  0  0  0  0
  186.6360  176.7320  136.1650 C   0  0  1  0  0  3  0  0  0  0  0  0
  189.0340  174.1380  134.9240 C   0  0  0  0  0  2  0  0  0  0  0  0
  189.4300  177.8280  135.8650 C   0  0  0  0  0  1  0  0  0  0  0  0
  183.4310  177.5760  139.3410 C   0  0  0  0  0  3  0  0  0  0  0  0
  184.5700  178.1290  138.9080 C   0  0  0  0  0  0  0  0  0  0  0  0
  189.3630  176.9490  137.1100 C   0  0  2  0  0  3  0  0  0  0  0  0
  188.8800  177.2000  142.0810 C   0  0  2  0  0  3  0  0  0  0  0  0
  189.5390  177.9350  143.1850 C   0  0  0  0  0  2  0  0  0  0  0  0
  190.1700  176.8600  142.5310 O   0  0  0  0  0  0  0  0  0  0  0  0
  1 19  1  0  0  0  0
  1  5  1  1  0  0  0
  2 13  1  0  0  0  0
  2 16  2  0  0  0  0
  3 17  1  0  0  0  0
  4 12  1  0  0  0  0
  4  1  1  0  0  0  0
  5 11  1  0  0  0  0
  6  8  1  0  0  0  0
  7 27  1  0  0  0  0
  8 11  1  0  0  0  0
  9 22  1  0  0  0  0
  9  7  1  0  0  0  0
 10 22  1  0  0  0  0
 10  3  1  0  0  0  0
 11 28  1  0  0  0  0
 12  8  1  0  0  0  0
 14 23  1  0  0  0  0
 14  9  1  0  0  0  0
 15  7  1  0  0  0  0
 17 20  1  0  0  0  0
 17 26  1  0  0  0  0
 18 13  2  0  0  0  0
 19  2  1  0  0  0  0
 20  4  1  0  0  0  0
 21 10  2  0  0  0  0
 22 20  1  0  0  0  0
 23 15  1  0  0  0  0
 24 27  1  0  0  0  0
 25 18  1  0  0  0  0
 26 25  2  0  0  0  0
 26 19  1  0  0  0  0
 27 12  1  0  0  0  0
 28 30  1  0  0  0  0
 28 29  1  0  0  0  0
 30 29  1  0  0  0  0
M  END
>  <MODEL>
4

>  <REMARK>
 VINA RESULT:      -7.1      2.279      6.243
  Name = 
  1 active torsions:
  status: ('A' for Active; 'I' for Inactive)
    1  A    between atoms: C_11  and  C_28
                            x       y       z     vdW  Elec       q    Type
                         _______ _______ _______ _____ _____    ______ ____

>  <TORSDO>
F 1

$$$$
=
 OpenBabel11122410243D

 30 36  0  0  1  0  0  0  0  0999 V2000
  189.6710  176.9690  138.1670 C   0  0  1  0  0  3  0  0  0  0  0  0
  190.9290  177.2760  140.3540 C   0  0  0  0  0  0  0  0  0  0  0  0
  186.1110  178.6290  139.7640 N   0  0  0  0  0  2  0  0  0  0  0  0
  188.5670  177.5140  137.2240 C   0  0  1  0  0  3  0  0  0  0  0  0
  190.8480  176.7220  137.4440 O   0  0  0  0  0  0  0  0  0  0  0  0
  189.2940  174.8350  134.7800 O   0  0  0  0  0  1  0  0  0  0  0  0
  186.1700  175.8920  135.8270 C   0  0  1  0  0  3  0  0  0  0  0  0
  189.2050  175.4340  136.0410 C   0  0  1  0  0  3  0  0  0  0  0  0
  185.2950  176.6400  136.8410 C   0  0  2  0  0  3  0  0  0  0  0  0
  185.2390  178.3570  138.6750 C   0  0  0  0  0  0  0  0  0  0  0  0
  190.6310  175.5780  136.6240 C   0  0  2  0  0  3  0  0  0  0  0  0
  188.5620  176.7560  135.9400 N   0  0  1  0  0  0  0  0  0  0  0  0
  190.6020  176.9470  141.7500 C   0  0  0  0  0  3  0  0  0  0  0  0
  184.0210  176.9850  136.1000 C   0  0  0  0  0  2  0  0  0  0  0  0
  185.2270  175.3770  134.7520 C   0  0  0  0  0  2  0  0  0  0  0  0
  192.1120  177.1280  139.9510 O   0  0  0  0  0  0  0  0  0  0  0  0
  187.4370  178.4930  139.1960 C   0  0  2  0  0  3  0  0  0  0  0  0
  189.3770  177.1510  142.2300 C   0  0  0  0  0  3  0  0  0  0  0  0
  189.8800  177.8410  139.4250 C   0  0  2  0  0  3  0  0  0  0  0  0
  187.2840  177.4960  138.0610 C   0  0  1  0  0  3  0  0  0  0  0  0
  183.9960  178.5410  138.7470 O   0  0  0  0  0  0  0  0  0  0  0  0
  185.9510  177.8780  137.4470 C   0  0  1  0  0  3  0  0  0  0  0  0
  183.8330  175.8550  135.1150 C   0  0  0  0  0  2  0  0  0  0  0  0
  186.9160  178.0650  134.5950 C   0  0  0  0  0  1  0  0  0  0  0  0
  188.3080  177.7030  141.3830 C   0  0  0  0  0  3  0  0  0  0  0  0
  188.5310  178.0350  140.1050 C   0  0  0  0  0  0  0  0  0  0  0  0
  187.3050  176.7070  135.1720 C   0  0  2  0  0  3  0  0  0  0  0  0
  191.1580  174.2610  137.2150 C   0  0  2  0  0  3  0  0  0  0  0  0
  192.6380  174.1900  137.2030 C   0  0  0  0  0  2  0  0  0  0  0  0
  191.8570  173.5180  136.2440 O   0  0  0  0  0  0  0  0  0  0  0  0
  1  5  1  6  0  0  0
  1 19  1  0  0  0  0
  2 13  1  0  0  0  0
  4 20  1  0  0  0  0
  4  1  1  0  0  0  0
  6  8  1  0  0  0  0
  7  9  1  0  0  0  0
  8 11  1  0  0  0  0
  9 22  1  0  0  0  0
 10 21  2  0  0  0  0
 10  3  1  0  0  0  0
 11 28  1  0  0  0  0
 11  5  1  0  0  0  0
 12  8  1  0  0  0  0
 12  4  1  0  0  0  0
 13 18  2  0  0  0  0
 14  9  1  0  0  0  0
 15 23  1  0  0  0  0
 15  7  1  0  0  0  0
 16  2  2  0  0  0  0
 17  3  1  0  0  0  0
 17 26  1  0  0  0  0
 19 26  1  0  0  0  0
 19  2  1  0  0  0  0
 20 17  1  0  0  0  0
 22 20  1  0  0  0  0
 22 10  1  0  0  0  0
 23 14  1  0  0  0  0
 24 27  1  0  0  0  0
 25 18  1  0  0  0  0
 26 25  2  0  0  0  0
 27  7  1  0  0  0  0
 27 12  1  0  0  0  0
 29 28  1  0  0  0  0
 30 29  1  0  0  0  0
 30 28  1  0  0  0  0
M  END
>  <MODEL>
5

>  <REMARK>
 VINA RESULT:      -7.1      2.923      4.525
  Name = 
  1 active torsions:
  status: ('A' for Active; 'I' for Inactive)
    1  A    between atoms: C_11  and  C_28
                            x       y       z     vdW  Elec       q    Type
                         _______ _______ _______ _____ _____    ______ ____

>  <TORSDO>
F 1

$$$$
=
 OpenBabel11122410243D

 30 36  0  0  1  0  0  0  0  0999 V2000
  188.2060  178.1140  142.0940 C   0  0  1  0  0  3  0  0  0  0  0  0
  187.2360  178.4150  144.4240 C   0  0  0  0  0  0  0  0  0  0  0  0
  184.4850  178.9390  140.2340 N   0  0  0  0  0  2  0  0  0  0  0  0
  188.1510  178.5480  140.6060 C   0  0  1  0  0  3  0  0  0  0  0  0
  189.5280  178.1580  142.5630 O   0  0  0  0  0  0  0  0  0  0  0  0
  190.9870  176.3060  139.8210 O   0  0  0  0  0  1  0  0  0  0  0  0
  188.0710  176.6750  137.9950 C   0  0  1  0  0  3  0  0  0  0  0  0
  189.8490  176.7470  140.5040 C   0  0  1  0  0  3  0  0  0  0  0  0
  186.6140  177.1470  137.9050 C   0  0  2  0  0  3  0  0  0  0  0  0
  184.8420  178.6280  138.8930 C   0  0  0  0  0  0  0  0  0  0  0  0
  190.2450  177.0840  141.9620 C   0  0  2  0  0  3  0  0  0  0  0  0
  189.2800  177.9360  139.8470 N   0  0  1  0  0  0  0  0  0  0  0  0
  186.0280  177.8920  145.0780 C   0  0  0  0  0  3  0  0  0  0  0  0
  186.3380  177.3320  136.4290 C   0  0  0  0  0  2  0  0  0  0  0  0
  188.4200  176.1120  136.6260 C   0  0  0  0  0  2  0  0  0  0  0  0
  188.2970  178.5240  145.0920 O   0  0  0  0  0  0  0  0  0  0  0  0
  185.7580  179.1000  140.9070 C   0  0  2  0  0  3  0  0  0  0  0  0
  184.8710  177.8230  144.4210 C   0  0  0  0  0  3  0  0  0  0  0  0
  187.2000  178.8770  142.9850 C   0  0  2  0  0  3  0  0  0  0  0  0
  186.7280  178.2150  140.1460 C   0  0  1  0  0  3  0  0  0  0  0  0
  183.9910  178.5780  137.9660 O   0  0  0  0  0  0  0  0  0  0  0  0
  186.3120  178.4120  138.7010 C   0  0  1  0  0  3  0  0  0  0  0  0
  187.1970  176.2940  135.7450 C   0  0  0  0  0  2  0  0  0  0  0  0
  189.0550  179.0610  137.6290 C   0  0  0  0  0  1  0  0  0  0  0  0
  184.7620  178.2590  143.0200 C   0  0  0  0  0  3  0  0  0  0  0  0
  185.8160  178.7550  142.3600 C   0  0  0  0  0  0  0  0  0  0  0  0
  189.1100  177.7430  138.3950 C   0  0  2  0  0  3  0  0  0  0  0  0
  190.3660  175.8280  142.8410 C   0  0  2  0  0  3  0  0  0  0  0  0
  190.7560  176.1500  144.2340 C   0  0  0  0  0  2  0  0  0  0  0  0
  191.6870  175.6600  143.2990 O   0  0  0  0  0  0  0  0  0  0  0  0
  1  5  1  1  0  0  0
  1 19  1  0  0  0  0
  2 13  1  0  0  0  0
  2 16  2  0  0  0  0
  3 17  1  0  0  0  0
  4  1  1  0  0  0  0
  6  8  1  0  0  0  0
  7 27  1  0  0  0  0
  8 11  1  0  0  0  0
  9  7  1  0  0  0  0
  9 22  1  0  0  0  0
 10  3  1  0  0  0  0
 11  5  1  0  0  0  0
 11 28  1  0  0  0  0
 12  8  1  0  0  0  0
 12  4  1  0  0  0  0
 14  9  1  0  0  0  0
 15  7  1  0  0  0  0
 17 26  1  0  0  0  0
 18 13  2  0  0  0  0
 19  2  1  0  0  0  0
 20  4  1  0  0  0  0
 20 17  1  0  0  0  0
 21 10  2  0  0  0  0
 22 10  1  0  0  0  0
 22 20  1  0  0  0  0
 23 14  1  0  0  0  0
 23 15  1  0  0  0  0
 24 27  1  0  0  0  0
 25 18  1  0  0  0  0
 26 19  1  0  0  0  0
 26 25  2  0  0  0  0
 27 12  1  0  0  0  0
 28 30  1  0  0  0  0
 28 29  1  0  0  0  0
 30 29  1  0  0  0  0
M  END
>  <MODEL>
6

>  <REMARK>
 VINA RESULT:      -6.7      2.573      5.105
  Name = 
  1 active torsions:
  status: ('A' for Active; 'I' for Inactive)
    1  A    between atoms: C_11  and  C_28
                            x       y       z     vdW  Elec       q    Type
                         _______ _______ _______ _____ _____    ______ ____

>  <TORSDO>
F 1

$$$$
=
 OpenBabel11122410243D

 30 36  0  0  1  0  0  0  0  0999 V2000
  186.2160  178.3480  139.5420 C   0  0  1  0  0  3  0  0  0  0  0  0
  187.3770  177.6330  137.3980 C   0  0  0  0  0  0  0  0  0  0  0  0
  189.6930  177.6720  141.8740 N   0  0  0  0  0  2  0  0  0  0  0  0
  186.3690  179.0140  140.9340 C   0  0  1  0  0  3  0  0  0  0  0  0
  185.1350  178.9160  138.8500 O   0  0  0  0  0  0  0  0  0  0  0  0
  182.7400  178.6370  141.5440 O   0  0  0  0  0  1  0  0  0  0  0  0
  185.2980  177.9500  143.7720 C   0  0  1  0  0  3  0  0  0  0  0  0
  183.9930  178.3180  141.0100 C   0  0  1  0  0  3  0  0  0  0  0  0
  186.7830  177.6740  144.0410 C   0  0  2  0  0  3  0  0  0  0  0  0
  189.1290  177.8690  143.1630 C   0  0  0  0  0  0  0  0  0  0  0  0
  183.9320  178.4770  139.4720 C   0  0  2  0  0  3  0  0  0  0  0  0
  185.0330  179.1990  141.5690 N   0  0  1  0  0  0  0  0  0  0  0  0
  188.2030  176.4670  137.0500 C   0  0  0  0  0  3  0  0  0  0  0  0
  187.0020  178.0200  145.4980 C   0  0  0  0  0  2  0  0  0  0  0  0
  184.6120  177.9370  145.1290 C   0  0  0  0  0  2  0  0  0  0  0  0
  186.5700  178.0870  136.5460 O   0  0  0  0  0  0  0  0  0  0  0  0
  188.7300  178.2720  140.9730 C   0  0  2  0  0  3  0  0  0  0  0  0
  189.1140  175.9970  137.9000 C   0  0  0  0  0  3  0  0  0  0  0  0
  187.5330  178.3210  138.7340 C   0  0  2  0  0  3  0  0  0  0  0  0
  187.3920  178.1490  141.6790 C   0  0  1  0  0  3  0  0  0  0  0  0
  189.7660  177.6220  144.2200 O   0  0  0  0  0  0  0  0  0  0  0  0
  187.7410  178.4320  143.1270 C   0  0  1  0  0  3  0  0  0  0  0  0
  185.6880  177.6970  146.1710 C   0  0  0  0  0  2  0  0  0  0  0  0
  185.6250  180.5300  143.5960 C   0  0  0  0  0  1  0  0  0  0  0  0
  189.3220  176.6200  139.2160 C   0  0  0  0  0  3  0  0  0  0  0  0
  188.6150  177.6900  139.6010 C   0  0  0  0  0  0  0  0  0  0  0  0
  184.9720  179.2690  143.0410 C   0  0  2  0  0  3  0  0  0  0  0  0
  183.2610  177.2750  138.7850 C   0  0  2  0  0  3  0  0  0  0  0  0
  182.5310  177.6640  137.5570 C   0  0  0  0  0  2  0  0  0  0  0  0
  181.8610  177.4220  138.7700 O   0  0  0  0  0  0  0  0  0  0  0  0
  1  5  1  6  0  0  0
  1  4  1  0  0  0  0
  2 19  1  0  0  0  0
  3 10  1  0  0  0  0
  4 12  1  0  0  0  0
  4 20  1  0  0  0  0
  5 11  1  0  0  0  0
  7  9  1  0  0  0  0
  7 15  1  0  0  0  0
  8  6  1  0  0  0  0
  8 12  1  0  0  0  0
  9 14  1  0  0  0  0
 10 21  2  0  0  0  0
 11  8  1  0  0  0  0
 12 27  1  0  0  0  0
 13  2  1  0  0  0  0
 13 18  2  0  0  0  0
 14 23  1  0  0  0  0
 15 23  1  0  0  0  0
 16  2  2  0  0  0  0
 17 20  1  0  0  0  0
 17  3  1  0  0  0  0
 18 25  1  0  0  0  0
 19  1  1  0  0  0  0
 19 26  1  0  0  0  0
 20 22  1  0  0  0  0
 22 10  1  0  0  0  0
 22  9  1  0  0  0  0
 25 26  2  0  0  0  0
 26 17  1  0  0  0  0
 27 24  1  0  0  0  0
 27  7  1  0  0  0  0
 28 11  1  0  0  0  0
 29 30  1  0  0  0  0
 29 28  1  0  0  0  0
 30 28  1  0  0  0  0
M  END
>  <MODEL>
7

>  <REMARK>
 VINA RESULT:      -6.7      2.063      5.209
  Name = 
  1 active torsions:
  status: ('A' for Active; 'I' for Inactive)
    1  A    between atoms: C_11  and  C_28
                            x       y       z     vdW  Elec       q    Type
                         _______ _______ _______ _____ _____    ______ ____

>  <TORSDO>
F 1

$$$$
=
 OpenBabel11122410243D

 30 36  0  0  1  0  0  0  0  0999 V2000
  183.0680  178.8440  140.2550 C   0  0  1  0  0  3  0  0  0  0  0  0
  182.5220  178.4820  137.7990 C   0  0  0  0  0  0  0  0  0  0  0  0
  187.2180  178.2530  139.6140 N   0  0  0  0  0  2  0  0  0  0  0  0
  184.1030  179.3650  141.2850 C   0  0  1  0  0  3  0  0  0  0  0  0
  181.8000  179.3780  140.5300 O   0  0  0  0  0  0  0  0  0  0  0  0
  181.7830  178.5780  144.0560 O   0  0  0  0  0  1  0  0  0  0  0  0
  185.1750  177.9000  143.9380 C   0  0  1  0  0  3  0  0  0  0  0  0
  182.3700  178.4410  142.7940 C   0  0  1  0  0  3  0  0  0  0  0  0
  186.4660  177.7390  143.1260 C   0  0  2  0  0  3  0  0  0  0  0  0
  187.6470  178.2530  140.9690 C   0  0  0  0  0  0  0  0  0  0  0  0
  181.3080  178.7600  141.7150 C   0  0  2  0  0  3  0  0  0  0  0  0
  183.5200  179.3510  142.6570 N   0  0  1  0  0  0  0  0  0  0  0  0
  182.9110  177.4460  136.8310 C   0  0  0  0  0  3  0  0  0  0  0  0
  187.5940  177.9430  144.1150 C   0  0  0  0  0  2  0  0  0  0  0  0
  185.5560  177.6720  145.3920 C   0  0  0  0  0  2  0  0  0  0  0  0
  181.3540  178.9480  137.7610 O   0  0  0  0  0  0  0  0  0  0  0  0
  185.9000  178.8530  139.6620 C   0  0  2  0  0  3  0  0  0  0  0  0
  184.1560  176.9750  136.7990 C   0  0  0  0  0  3  0  0  0  0  0  0
  183.5220  179.0310  138.7900 C   0  0  2  0  0  3  0  0  0  0  0  0
  185.3630  178.5260  141.0440 C   0  0  1  0  0  3  0  0  0  0  0  0
  188.8230  177.9530  141.3010 O   0  0  0  0  0  0  0  0  0  0  0  0
  186.5820  178.6810  141.9320 C   0  0  1  0  0  3  0  0  0  0  0  0
  187.0530  177.4240  145.4260 C   0  0  0  0  0  2  0  0  0  0  0  0
  185.3060  180.5030  143.9690 C   0  0  0  0  0  1  0  0  0  0  0  0
  185.1830  177.4680  137.7310 C   0  0  0  0  0  3  0  0  0  0  0  0
  184.9070  178.4160  138.6340 C   0  0  0  0  0  0  0  0  0  0  0  0
  184.4470  179.2530  143.8000 C   0  0  2  0  0  3  0  0  0  0  0  0
  180.3500  177.5830  141.4690 C   0  0  2  0  0  3  0  0  0  0  0  0
  178.9820  178.0320  141.1210 C   0  0  0  0  0  2  0  0  0  0  0  0
  179.3060  177.5780  142.4140 O   0  0  0  0  0  0  0  0  0  0  0  0
  1  5  1  6  0  0  0
  1  4  1  0  0  0  0
  2 19  1  0  0  0  0
  3 17  1  0  0  0  0
  3 10  1  0  0  0  0
  4 12  1  0  0  0  0
  5 11  1  0  0  0  0
  7 15  1  0  0  0  0
  8  6  1  0  0  0  0
  9  7  1  0  0  0  0
  9 14  1  0  0  0  0
 10 21  2  0  0  0  0
 10 22  1  0  0  0  0
 11  8  1  0  0  0  0
 12  8  1  0  0  0  0
 12 27  1  0  0  0  0
 13  2  1  0  0  0  0
 14 23  1  0  0  0  0
 15 23  1  0  0  0  0
 16  2  2  0  0  0  0
 17 20  1  0  0  0  0
 18 13  2  0  0  0  0
 18 25  1  0  0  0  0
 19  1  1  0  0  0  0
 20  4  1  0  0  0  0
 20 22  1  0  0  0  0
 22  9  1  0  0  0  0
 25 26  2  0  0  0  0
 26 19  1  0  0  0  0
 26 17  1  0  0  0  0
 27  7  1  0  0  0  0
 27 24  1  0  0  0  0
 28 11  1  0  0  0  0
 28 30  1  0  0  0  0
 29 28  1  0  0  0  0
 29 30  1  0  0  0  0
M  END
>  <MODEL>
8

>  <REMARK>
 VINA RESULT:      -6.6      2.003      6.609
  Name = 
  1 active torsions:
  status: ('A' for Active; 'I' for Inactive)
    1  A    between atoms: C_11  and  C_28
                            x       y       z     vdW  Elec       q    Type
                         _______ _______ _______ _____ _____    ______ ____

>  <TORSDO>
F 1

$$$$
=
 OpenBabel11122410243D

 30 36  0  0  1  0  0  0  0  0999 V2000
  186.4570  178.6280  140.7400 C   0  0  1  0  0  3  0  0  0  0  0  0
  184.9310  178.6490  138.7080 C   0  0  0  0  0  0  0  0  0  0  0  0
  189.6800  176.9700  138.5390 N   0  0  0  0  0  2  0  0  0  0  0  0
  187.9110  178.7500  141.2660 C   0  0  1  0  0  3  0  0  0  0  0  0
  185.6040  179.4660  141.4760 O   0  0  0  0  0  0  0  0  0  0  0  0
  186.7120  178.3950  144.7470 O   0  0  0  0  0  1  0  0  0  0  0  0
  189.4450  176.8180  143.3260 C   0  0  1  0  0  3  0  0  0  0  0  0
  186.7030  178.2120  143.3600 C   0  0  1  0  0  3  0  0  0  0  0  0
  190.2200  176.3780  142.0780 C   0  0  2  0  0  3  0  0  0  0  0  0
  190.5760  176.7330  139.6160 C   0  0  0  0  0  0  0  0  0  0  0  0
  185.4490  178.9070  142.7760 C   0  0  2  0  0  3  0  0  0  0  0  0
  187.9220  178.7770  142.7560 N   0  0  1  0  0  0  0  0  0  0  0  0
  184.6010  177.6340  137.6950 C   0  0  0  0  0  3  0  0  0  0  0  0
  191.6470  176.1740  142.5380 C   0  0  0  0  0  2  0  0  0  0  0  0
  190.2720  176.3670  144.5200 C   0  0  0  0  0  2  0  0  0  0  0  0
  184.0260  179.4210  139.1180 O   0  0  0  0  0  0  0  0  0  0  0  0
  188.7160  177.9050  139.0830 C   0  0  2  0  0  3  0  0  0  0  0  0
  185.5450  176.8420  137.1900 C   0  0  0  0  0  3  0  0  0  0  0  0
  186.3470  178.8100  139.2100 C   0  0  2  0  0  3  0  0  0  0  0  0
  188.6800  177.6190  140.5740 C   0  0  1  0  0  3  0  0  0  0  0  0
  191.6490  176.0910  139.4690 O   0  0  0  0  0  0  0  0  0  0  0  0
  190.1350  177.3520  140.9070 C   0  0  1  0  0  3  0  0  0  0  0  0
  191.5260  175.7120  143.9710 C   0  0  0  0  0  2  0  0  0  0  0  0
  190.3230  179.2700  143.2270 C   0  0  0  0  0  1  0  0  0  0  0  0
  186.9450  176.9470  137.6300 C   0  0  0  0  0  3  0  0  0  0  0  0
  187.3240  177.8520  138.5400 C   0  0  0  0  0  0  0  0  0  0  0  0
  189.1450  178.3270  143.4450 C   0  0  2  0  0  3  0  0  0  0  0  0
  184.1740  178.0660  142.9600 C   0  0  2  0  0  3  0  0  0  0  0  0
  182.9630  178.9060  143.1110 C   0  0  0  0  0  2  0  0  0  0  0  0
  183.5910  178.3070  144.2190 O   0  0  0  0  0  0  0  0  0  0  0  0
  1  4  1  0  0  0  0
  1  5  1  1  0  0  0
  2 16  2  0  0  0  0
  2 19  1  0  0  0  0
  3 17  1  0  0  0  0
  3 10  1  0  0  0  0
  4 12  1  0  0  0  0
  5 11  1  0  0  0  0
  7 27  1  0  0  0  0
  7 15  1  0  0  0  0
  8  6  1  0  0  0  0
  9 14  1  0  0  0  0
  9  7  1  0  0  0  0
 10 22  1  0  0  0  0
 11 28  1  0  0  0  0
 11  8  1  0  0  0  0
 12  8  1  0  0  0  0
 12 27  1  0  0  0  0
 13  2  1  0  0  0  0
 14 23  1  0  0  0  0
 17 20  1  0  0  0  0
 18 25  1  0  0  0  0
 18 13  2  0  0  0  0
 19  1  1  0  0  0  0
 20 22  1  0  0  0  0
 20  4  1  0  0  0  0
 21 10  2  0  0  0  0
 22  9  1  0  0  0  0
 23 15  1  0  0  0  0
 24 27  1  0  0  0  0
 25 26  2  0  0  0  0
 26 17  1  0  0  0  0
 26 19  1  0  0  0  0
 28 29  1  0  0  0  0
 28 30  1  0  0  0  0
 29 30  1  0  0  0  0
M  END
>  <MODEL>
9

>  <REMARK>
 VINA RESULT:      -6.5      2.462      7.286
  Name = 
  1 active torsions:
  status: ('A' for Active; 'I' for Inactive)
    1  A    between atoms: C_11  and  C_28
                            x       y       z     vdW  Elec       q    Type
                         _______ _______ _______ _____ _____    ______ ____

>  <TORSDO>
F 1

$$$$
