=
 OpenBabel11122410523D

 32 36  0  0  1  0  0  0  0  0999 V2000
  190.5700  176.8720  139.1390 C   0  0  1  0  0  3  0  0  0  0  0  0
  186.4480  178.2090  136.7900 C   0  0  0  0  0  3  0  0  0  0  0  0
  185.7920  178.2970  138.0180 C   0  0  0  0  0  3  0  0  0  0  0  0
  190.7910  177.1980  141.6900 C   0  0  2  0  0  3  0  0  0  0  0  0
  190.3060  178.0310  142.8860 C   0  0  2  0  0  3  0  0  0  0  0  0
  192.2950  175.7760  137.7220 C   0  0  2  0  0  3  0  0  0  0  0  0
  190.4770  177.0440  136.6260 O   0  0  0  0  0  0  0  0  0  0  0  0
  188.2840  177.5600  143.9180 C   0  0  0  0  0  0  0  0  0  0  0  0
  187.8210  177.9580  136.7490 C   0  0  0  0  0  3  0  0  0  0  0  0
  190.0360  177.5710  137.8790 C   0  0  1  0  0  3  0  0  0  0  0  0
  188.5480  177.7830  137.9340 C   0  0  0  0  0  0  0  0  0  0  0  0
  188.6330  177.6710  140.4840 C   0  0  2  0  0  3  0  0  0  0  0  0
  189.3240  176.9330  144.7480 C   0  0  0  0  0  3  0  0  0  0  0  0
  191.1060  175.7750  136.7360 C   0  0  2  0  0  3  0  0  0  0  0  0
  190.6040  177.3200  144.1410 N   0  0  0  0  0  0  0  0  0  0  0  0
  186.5100  178.1460  139.2060 C   0  0  0  0  0  3  0  0  0  0  0  0
  187.8960  177.9210  139.1810 C   0  0  0  0  0  0  0  0  0  0  0  0
  188.1840  178.6090  141.5970 C   0  0  0  0  0  2  0  0  0  0  0  0
  192.0610  176.6830  138.9310 C   0  0  0  0  0  2  0  0  0  0  0  0
  192.1850  177.2690  141.6480 O   0  0  0  0  0  1  0  0  0  0  0  0
  186.9970  177.2470  143.9920 C   0  0  0  0  0  2  0  0  0  0  0  0
  190.1740  177.7050  140.3650 C   0  0  2  0  0  3  0  0  0  0  0  0
  188.8680  178.2230  142.8240 N   0  0  0  0  0  0  0  0  0  0  0  0
  189.0610  174.6000  135.9060 C   0  0  0  0  0  1  0  0  0  0  0  0
  190.0900  174.6610  137.0220 C   0  0  1  0  0  3  0  0  0  0  0  0
  190.7350  173.4230  137.1240 O   0  0  0  0  0  0  0  0  0  0  0  0
  190.9430  173.0170  135.8030 C   0  0  0  0  0  2  0  0  0  0  0  0
  192.2480  172.3090  135.6920 C   0  0  0  0  0  0  0  0  0  0  0  0
  193.2280  172.6810  136.3880 O   0  0  0  0  0  1  0  0  0  0  0  0
  192.3750  171.2210  134.8420 O   0  0  0  0  0  0  0  0  0  0  0  0
  194.6740  175.6110  137.6140 O   0  0  0  0  0  1  0  0  0  0  0  0
  193.5630  176.1890  136.9980 C   0  0  0  0  0  2  0  0  0  0  0  0
  1 19  1  6  0  0  0
  1 22  1  0  0  0  0
  2  3  1  0  0  0  0
  3 16  2  0  0  0  0
  4 20  1  6  0  0  0
  4  5  1  0  0  0  0
  5 15  1  1  0  0  0
  6 32  1  6  0  0  0
  6 19  1  0  0  0  0
  7 14  1  0  0  0  0
  8 21  2  0  0  0  0
  8 13  1  0  0  0  0
  9  2  2  0  0  0  0
  9 11  1  0  0  0  0
 10  7  1  6  0  0  0
 10 11  1  0  0  0  0
 10  1  1  0  0  0  0
 11 17  2  0  0  0  0
 12 18  1  1  0  0  0
 14 25  1  1  0  0  0
 14  6  1  0  0  0  0
 15 13  2  0  0  0  0
 17 16  1  0  0  0  0
 17 12  1  0  0  0  0
 18 23  1  0  0  0  0
 22 12  1  0  0  0  0
 22  4  1  0  0  0  0
 23  5  1  0  0  0  0
 23  8  1  0  0  0  0
 24 25  1  0  0  0  0
 25 26  1  0  0  0  0
 27 26  1  0  0  0  0
 28 27  1  0  0  0  0
 28 29  1  0  0  0  0
 30 28  2  0  0  0  0
 32 31  1  0  0  0  0
M  END
>  <MODEL>
1

>  <REMARK>
 VINA RESULT:      -7.0      0.000      0.000
  Name = 
  5 active torsions:
  status: ('A' for Active; 'I' for Inactive)
    1  A    between atoms: C_7  and  C_19
    2  A    between atoms: C_10  and  C_17
    3  A    between atoms: C_10  and  O_20
    4  A    between atoms: O_20  and  C_29
    5  A    between atoms: C_29  and  C_30
                            x       y       z     vdW  Elec       q    Type
                         _______ _______ _______ _____ _____    ______ ____

>  <TORSDO>
F 5

$$$$
=
 OpenBabel11122410523D

 32 36  0  0  1  0  0  0  0  0999 V2000
  183.7350  178.1510  139.5070 C   0  0  1  0  0  3  0  0  0  0  0  0
  181.7930  178.9270  143.9710 C   0  0  0  0  0  3  0  0  0  0  0  0
  183.0400  178.6730  144.5430 C   0  0  0  0  0  3  0  0  0  0  0  0
  186.2950  178.1040  139.1800 C   0  0  2  0  0  3  0  0  0  0  0  0
  187.6320  178.6100  139.7420 C   0  0  2  0  0  3  0  0  0  0  0  0
  182.0920  177.6950  137.6960 C   0  0  2  0  0  3  0  0  0  0  0  0
  181.2930  178.7000  139.8090 O   0  0  0  0  0  0  0  0  0  0  0  0
  188.6370  177.5550  141.5450 C   0  0  0  0  0  0  0  0  0  0  0  0
  181.6630  178.9880  142.5820 C   0  0  0  0  0  3  0  0  0  0  0  0
  182.6330  178.9120  140.2610 C   0  0  1  0  0  3  0  0  0  0  0  0
  182.7750  178.7860  141.7530 C   0  0  0  0  0  0  0  0  0  0  0  0
  185.2620  178.2870  141.4680 C   0  0  2  0  0  3  0  0  0  0  0  0
  189.3100  177.0420  140.3420 C   0  0  0  0  0  3  0  0  0  0  0  0
  181.1620  177.5960  138.9260 C   0  0  2  0  0  3  0  0  0  0  0  0
  188.7350  177.7880  139.2150 N   0  0  0  0  0  0  0  0  0  0  0  0
  184.1590  178.4920  143.7280 C   0  0  0  0  0  3  0  0  0  0  0  0
  184.0490  178.5780  142.3310 C   0  0  0  0  0  0  0  0  0  0  0  0
  186.5350  178.9160  142.0220 C   0  0  0  0  0  2  0  0  0  0  0  0
  183.4470  178.3250  138.0280 C   0  0  0  0  0  2  0  0  0  0  0  0
  186.2180  178.4800  137.8370 O   0  0  0  0  0  1  0  0  0  0  0  0
  188.7000  176.9630  142.7310 C   0  0  0  0  0  2  0  0  0  0  0  0
  185.0990  178.6720  139.9800 C   0  0  2  0  0  3  0  0  0  0  0  0
  187.6530  178.4940  141.1890 N   0  0  0  0  0  0  0  0  0  0  0  0
  180.0000  175.9590  140.4170 C   0  0  0  0  0  1  0  0  0  0  0  0
  181.2870  176.2580  139.6660 C   0  0  1  0  0  3  0  0  0  0  0  0
  181.5470  175.2200  138.7650 O   0  0  0  0  0  0  0  0  0  0  0  0
  180.3450  174.5140  138.6750 C   0  0  0  0  0  2  0  0  0  0  0  0
  180.4640  173.4410  137.6490 C   0  0  0  0  0  0  0  0  0  0  0  0
  180.3230  172.2350  137.9790 O   0  0  0  0  0  1  0  0  0  0  0  0
  180.7040  173.7740  136.3240 O   0  0  0  0  0  0  0  0  0  0  0  0
  181.4030  179.8420  136.9110 O   0  0  0  0  0  1  0  0  0  0  0  0
  181.4070  178.4820  136.5950 C   0  0  0  0  0  2  0  0  0  0  0  0
  1 19  1  6  0  0  0
  1 22  1  0  0  0  0
  1 10  1  0  0  0  0
  2  3  1  0  0  0  0
  4 20  1  6  0  0  0
  4  5  1  0  0  0  0
  4 22  1  0  0  0  0
  5 15  1  6  0  0  0
  5 23  1  0  0  0  0
  6 32  1  6  0  0  0
  6 19  1  0  0  0  0
  6 14  1  0  0  0  0
  8 21  2  0  0  0  0
  9  2  2  0  0  0  0
 10  7  1  6  0  0  0
 10 11  1  0  0  0  0
 11 17  2  0  0  0  0
 11  9  1  0  0  0  0
 12 18  1  1  0  0  0
 12 17  1  0  0  0  0
 13  8  1  0  0  0  0
 14 25  1  1  0  0  0
 14  7  1  0  0  0  0
 15 13  2  0  0  0  0
 16  3  2  0  0  0  0
 17 16  1  0  0  0  0
 22 12  1  0  0  0  0
 23  8  1  0  0  0  0
 23 18  1  0  0  0  0
 25 24  1  0  0  0  0
 26 25  1  0  0  0  0
 27 26  1  0  0  0  0
 28 29  1  0  0  0  0
 28 27  1  0  0  0  0
 30 28  2  0  0  0  0
 32 31  1  0  0  0  0
M  END
>  <MODEL>
2

>  <REMARK>
 VINA RESULT:      -6.6      5.370      8.308
  Name = 
  5 active torsions:
  status: ('A' for Active; 'I' for Inactive)
    1  A    between atoms: C_7  and  C_19
    2  A    between atoms: C_10  and  C_17
    3  A    between atoms: C_10  and  O_20
    4  A    between atoms: O_20  and  C_29
    5  A    between atoms: C_29  and  C_30
                            x       y       z     vdW  Elec       q    Type
                         _______ _______ _______ _____ _____    ______ ____

>  <TORSDO>
F 5

$$$$
=
 OpenBabel11122410523D

 32 36  0  0  1  0  0  0  0  0999 V2000
  188.9770  177.1100  138.7780 C   0  0  1  0  0  3  0  0  0  0  0  0
  184.4770  179.0370  139.3570 C   0  0  0  0  0  3  0  0  0  0  0  0
  184.6520  178.9960  140.7410 C   0  0  0  0  0  3  0  0  0  0  0  0
  190.6470  177.0610  140.7460 C   0  0  2  0  0  3  0  0  0  0  0  0
  191.0420  177.7490  142.0610 C   0  0  2  0  0  3  0  0  0  0  0  0
  189.4270  176.1100  136.5460 C   0  0  2  0  0  3  0  0  0  0  0  0
  187.5010  177.6380  136.8040 O   0  0  0  0  0  0  0  0  0  0  0  0
  189.9200  177.2750  144.0340 C   0  0  0  0  0  0  0  0  0  0  0  0
  185.5360  178.7030  138.5100 C   0  0  0  0  0  3  0  0  0  0  0  0
  187.9240  178.0130  138.1170 C   0  0  1  0  0  3  0  0  0  0  0  0
  186.7740  178.3150  139.0390 C   0  0  0  0  0  0  0  0  0  0  0  0
  188.2730  177.8420  141.0510 C   0  0  2  0  0  3  0  0  0  0  0  0
  191.1500  176.4690  144.0580 C   0  0  0  0  0  3  0  0  0  0  0  0
  187.9020  176.3270  136.4330 C   0  0  2  0  0  3  0  0  0  0  0  0
  191.9000  176.8510  142.8530 N   0  0  0  0  0  0  0  0  0  0  0  0
  185.8880  178.6320  141.2790 C   0  0  0  0  0  3  0  0  0  0  0  0
  186.9700  178.3200  140.4390 C   0  0  0  0  0  0  0  0  0  0  0  0
  188.6660  178.6430  142.2860 C   0  0  0  0  0  2  0  0  0  0  0  0
  190.0450  176.8530  137.7320 C   0  0  0  0  0  2  0  0  0  0  0  0
  191.7650  177.0430  139.9110 O   0  0  0  0  0  1  0  0  0  0  0  0
  188.8740  177.0420  144.8150 C   0  0  0  0  0  2  0  0  0  0  0  0
  189.4630  177.7880  140.0660 C   0  0  2  0  0  3  0  0  0  0  0  0
  189.8650  178.0440  142.8570 N   0  0  0  0  0  0  0  0  0  0  0  0
  185.6280  175.3410  136.7580 C   0  0  0  0  0  1  0  0  0  0  0  0
  187.0880  175.2540  137.1690 C   0  0  1  0  0  3  0  0  0  0  0  0
  187.5760  173.9770  136.8730 O   0  0  0  0  0  0  0  0  0  0  0  0
  186.4720  173.1310  137.0050 C   0  0  0  0  0  2  0  0  0  0  0  0
  186.6340  171.9460  136.1190 C   0  0  0  0  0  0  0  0  0  0  0  0
  185.6580  171.5230  135.4470 O   0  0  0  0  0  0  0  0  0  0  0  0
  187.8710  171.3250  136.0120 O   0  0  0  0  0  1  0  0  0  0  0  0
  191.4080  176.0370  135.2150 O   0  0  0  0  0  1  0  0  0  0  0  0
  190.1040  176.5340  135.2560 C   0  0  0  0  0  2  0  0  0  0  0  0
  1 19  1  6  0  0  0
  1 22  1  0  0  0  0
  2  3  1  0  0  0  0
  3 16  2  0  0  0  0
  4 20  1  6  0  0  0
  4  5  1  0  0  0  0
  5 15  1  1  0  0  0
  5 23  1  0  0  0  0
  6 32  1  6  0  0  0
  6 19  1  0  0  0  0
  8 13  1  0  0  0  0
  8 21  2  0  0  0  0
  9 11  1  0  0  0  0
  9  2  2  0  0  0  0
 10  7  1  6  0  0  0
 10  1  1  0  0  0  0
 10 11  1  0  0  0  0
 11 17  2  0  0  0  0
 12 18  1  1  0  0  0
 14  6  1  0  0  0  0
 14  7  1  0  0  0  0
 14 25  1  1  0  0  0
 15 13  2  0  0  0  0
 17 12  1  0  0  0  0
 17 16  1  0  0  0  0
 18 23  1  0  0  0  0
 22  4  1  0  0  0  0
 22 12  1  0  0  0  0
 23  8  1  0  0  0  0
 24 25  1  0  0  0  0
 26 27  1  0  0  0  0
 26 25  1  0  0  0  0
 28 27  1  0  0  0  0
 29 28  2  0  0  0  0
 30 28  1  0  0  0  0
 31 32  1  0  0  0  0
M  END
>  <MODEL>
3

>  <REMARK>
 VINA RESULT:      -6.5      2.261      3.092
  Name = 
  5 active torsions:
  status: ('A' for Active; 'I' for Inactive)
    1  A    between atoms: C_7  and  C_19
    2  A    between atoms: C_10  and  C_17
    3  A    between atoms: C_10  and  O_20
    4  A    between atoms: O_20  and  C_29
    5  A    between atoms: C_29  and  C_30
                            x       y       z     vdW  Elec       q    Type
                         _______ _______ _______ _____ _____    ______ ____

>  <TORSDO>
F 5

$$$$
=
 OpenBabel11122410523D

 32 36  0  0  1  0  0  0  0  0999 V2000
  182.8080  178.3650  139.8380 C   0  0  1  0  0  3  0  0  0  0  0  0
  179.4330  178.9400  143.3850 C   0  0  0  0  0  3  0  0  0  0  0  0
  180.4260  178.7350  144.3440 C   0  0  0  0  0  3  0  0  0  0  0  0
  185.3270  178.4540  140.3960 C   0  0  2  0  0  3  0  0  0  0  0  0
  186.3650  179.0130  141.3810 C   0  0  2  0  0  3  0  0  0  0  0  0
  181.9010  177.8690  137.5760 C   0  0  2  0  0  3  0  0  0  0  0  0
  180.3820  178.7840  139.2980 O   0  0  0  0  0  0  0  0  0  0  0  0
  186.7580  177.9680  143.4130 C   0  0  0  0  0  0  0  0  0  0  0  0
  179.7760  179.0260  142.0340 C   0  0  0  0  0  3  0  0  0  0  0  0
  181.4760  179.0520  140.1780 C   0  0  1  0  0  3  0  0  0  0  0  0
  181.1120  178.8990  141.6300 C   0  0  0  0  0  0  0  0  0  0  0  0
  183.5740  178.5320  142.2010 C   0  0  2  0  0  3  0  0  0  0  0  0
  187.8260  177.5170  142.5060 C   0  0  0  0  0  3  0  0  0  0  0  0
  180.6170  177.6950  138.4180 C   0  0  2  0  0  3  0  0  0  0  0  0
  187.6250  178.2590  141.2550 N   0  0  0  0  0  0  0  0  0  0  0  0
  181.7630  178.6290  143.9550 C   0  0  0  0  0  3  0  0  0  0  0  0
  182.1260  178.7420  142.6030 C   0  0  0  0  0  0  0  0  0  0  0  0
  184.5480  179.2110  143.1560 C   0  0  0  0  0  2  0  0  0  0  0  0
  183.0270  178.5580  138.3500 C   0  0  0  0  0  2  0  0  0  0  0  0
  185.6870  178.8560  139.1090 O   0  0  0  0  0  1  0  0  0  0  0  0
  186.4500  177.3530  144.5470 C   0  0  0  0  0  2  0  0  0  0  0  0
  183.9010  178.9420  140.7470 C   0  0  2  0  0  3  0  0  0  0  0  0
  185.9030  178.8650  142.7490 N   0  0  0  0  0  0  0  0  0  0  0  0
  179.1710  176.1350  139.7310 C   0  0  0  0  0  1  0  0  0  0  0  0
  180.5590  176.3480  139.1500 C   0  0  1  0  0  3  0  0  0  0  0  0
  180.8590  175.2990  138.2750 O   0  0  0  0  0  0  0  0  0  0  0  0
  180.1230  174.2110  138.7530 C   0  0  0  0  0  2  0  0  0  0  0  0
  180.0070  173.1740  137.6920 C   0  0  0  0  0  0  0  0  0  0  0  0
  179.5450  173.4770  136.5620 O   0  0  0  0  0  0  0  0  0  0  0  0
  180.4350  171.8770  137.9400 O   0  0  0  0  0  1  0  0  0  0  0  0
  180.3240  178.2880  135.8330 O   0  0  0  0  0  1  0  0  0  0  0  0
  181.5860  178.6450  136.3120 C   0  0  0  0  0  2  0  0  0  0  0  0
  1 19  1  6  0  0  0
  1 10  1  0  0  0  0
  1 22  1  0  0  0  0
  2  3  1  0  0  0  0
  4 20  1  6  0  0  0
  4 22  1  0  0  0  0
  4  5  1  0  0  0  0
  5 15  1  1  0  0  0
  5 23  1  0  0  0  0
  6 32  1  6  0  0  0
  6 19  1  0  0  0  0
  6 14  1  0  0  0  0
  8 21  2  0  0  0  0
  9  2  2  0  0  0  0
 10  7  1  6  0  0  0
 10 11  1  0  0  0  0
 11  9  1  0  0  0  0
 11 17  2  0  0  0  0
 12 17  1  0  0  0  0
 12 18  1  1  0  0  0
 13  8  1  0  0  0  0
 14 25  1  1  0  0  0
 14  7  1  0  0  0  0
 15 13  2  0  0  0  0
 16  3  2  0  0  0  0
 17 16  1  0  0  0  0
 22 12  1  0  0  0  0
 23 18  1  0  0  0  0
 23  8  1  0  0  0  0
 25 24  1  0  0  0  0
 26 27  1  0  0  0  0
 26 25  1  0  0  0  0
 28 30  1  0  0  0  0
 28 27  1  0  0  0  0
 29 28  2  0  0  0  0
 31 32  1  0  0  0  0
M  END
>  <MODEL>
4

>  <REMARK>
 VINA RESULT:      -6.4      6.111      8.872
  Name = 
  5 active torsions:
  status: ('A' for Active; 'I' for Inactive)
    1  A    between atoms: C_7  and  C_19
    2  A    between atoms: C_10  and  C_17
    3  A    between atoms: C_10  and  O_20
    4  A    between atoms: O_20  and  C_29
    5  A    between atoms: C_29  and  C_30
                            x       y       z     vdW  Elec       q    Type
                         _______ _______ _______ _____ _____    ______ ____

>  <TORSDO>
F 5

$$$$
=
 OpenBabel11122410523D

 32 36  0  0  1  0  0  0  0  0999 V2000
  190.3130  176.9160  139.2440 C   0  0  1  0  0  3  0  0  0  0  0  0
  185.7960  178.5270  138.1020 C   0  0  0  0  0  3  0  0  0  0  0  0
  185.4830  178.5710  139.4600 C   0  0  0  0  0  3  0  0  0  0  0  0
  191.1970  177.0970  141.6630 C   0  0  2  0  0  3  0  0  0  0  0  0
  191.0760  177.8810  142.9780 C   0  0  2  0  0  3  0  0  0  0  0  0
  191.5610  175.8370  137.3830 C   0  0  2  0  0  3  0  0  0  0  0  0
  189.5870  177.2280  136.8510 O   0  0  0  0  0  0  0  0  0  0  0  0
  189.3670  177.4280  144.4770 C   0  0  0  0  0  0  0  0  0  0  0  0
  187.0990  178.2290  137.6960 C   0  0  0  0  0  3  0  0  0  0  0  0
  189.5080  177.7020  138.1970 C   0  0  1  0  0  3  0  0  0  0  0  0
  188.0960  177.9630  138.6440 C   0  0  0  0  0  0  0  0  0  0  0  0
  188.8280  177.7110  141.0770 C   0  0  2  0  0  3  0  0  0  0  0  0
  190.5530  176.7190  144.9820 C   0  0  0  0  0  3  0  0  0  0  0  0
  190.1600  175.9330  136.7390 C   0  0  2  0  0  3  0  0  0  0  0  0
  191.6520  177.0920  144.0810 N   0  0  0  0  0  0  0  0  0  0  0  0
  186.4730  178.3300  140.4150 C   0  0  0  0  0  3  0  0  0  0  0  0
  187.7940  178.0570  140.0220 C   0  0  0  0  0  0  0  0  0  0  0  0
  188.7260  178.6030  142.3080 C   0  0  0  0  0  2  0  0  0  0  0  0
  191.6890  176.6860  138.6500 C   0  0  0  0  0  2  0  0  0  0  0  0
  192.5350  177.1190  141.2640 O   0  0  0  0  0  1  0  0  0  0  0  0
  188.1280  177.1570  144.8680 C   0  0  0  0  0  2  0  0  0  0  0  0
  190.2860  177.6960  140.5660 C   0  0  2  0  0  3  0  0  0  0  0  0
  189.6820  178.1270  143.2980 N   0  0  0  0  0  0  0  0  0  0  0  0
  187.9600  174.8090  136.3510 C   0  0  0  0  0  1  0  0  0  0  0  0
  189.1990  174.8420  137.2310 C   0  0  1  0  0  3  0  0  0  0  0  0
  189.8200  173.5890  137.2000 O   0  0  0  0  0  0  0  0  0  0  0  0
  189.0630  172.8350  136.2990 C   0  0  0  0  0  2  0  0  0  0  0  0
  189.9620  172.1630  135.3220 C   0  0  0  0  0  0  0  0  0  0  0  0
  189.5470  171.1790  134.6560 O   0  0  0  0  0  0  0  0  0  0  0  0
  191.2500  172.6390  135.1240 O   0  0  0  0  0  1  0  0  0  0  0  0
  192.1660  175.9880  135.0790 O   0  0  0  0  0  1  0  0  0  0  0  0
  192.6190  176.2420  136.3740 C   0  0  0  0  0  2  0  0  0  0  0  0
  1 19  1  6  0  0  0
  1 22  1  0  0  0  0
  2  3  1  0  0  0  0
  3 16  2  0  0  0  0
  4 20  1  6  0  0  0
  4  5  1  0  0  0  0
  5 23  1  0  0  0  0
  5 15  1  1  0  0  0
  6 32  1  6  0  0  0
  6 19  1  0  0  0  0
  8 21  2  0  0  0  0
  8 13  1  0  0  0  0
  9  2  2  0  0  0  0
  9 11  1  0  0  0  0
 10  7  1  6  0  0  0
 10 11  1  0  0  0  0
 10  1  1  0  0  0  0
 11 17  2  0  0  0  0
 12 18  1  1  0  0  0
 14  7  1  0  0  0  0
 14 25  1  1  0  0  0
 14  6  1  0  0  0  0
 15 13  2  0  0  0  0
 17 16  1  0  0  0  0
 17 12  1  0  0  0  0
 18 23  1  0  0  0  0
 22 12  1  0  0  0  0
 22  4  1  0  0  0  0
 23  8  1  0  0  0  0
 24 25  1  0  0  0  0
 26 25  1  0  0  0  0
 27 26  1  0  0  0  0
 28 27  1  0  0  0  0
 29 28  2  0  0  0  0
 30 28  1  0  0  0  0
 31 32  1  0  0  0  0
M  END
>  <MODEL>
5

>  <REMARK>
 VINA RESULT:      -6.3      1.242      1.483
  Name = 
  5 active torsions:
  status: ('A' for Active; 'I' for Inactive)
    1  A    between atoms: C_7  and  C_19
    2  A    between atoms: C_10  and  C_17
    3  A    between atoms: C_10  and  O_20
    4  A    between atoms: O_20  and  C_29
    5  A    between atoms: C_29  and  C_30
                            x       y       z     vdW  Elec       q    Type
                         _______ _______ _______ _____ _____    ______ ____

>  <TORSDO>
F 5

$$$$
=
 OpenBabel11122410523D

 32 36  0  0  1  0  0  0  0  0999 V2000
  182.4540  177.0400  139.1920 C   0  0  1  0  0  3  0  0  0  0  0  0
  186.8520  178.1470  137.2600 C   0  0  0  0  0  3  0  0  0  0  0  0
  186.9320  176.8570  136.7350 C   0  0  0  0  0  3  0  0  0  0  0  0
  181.1710  174.9390  138.4160 C   0  0  2  0  0  3  0  0  0  0  0  0
  180.9750  173.9600  137.2480 C   0  0  2  0  0  3  0  0  0  0  0  0
  181.6760  178.5540  141.0050 C   0  0  2  0  0  3  0  0  0  0  0  0
  183.5160  179.3010  139.5310 O   0  0  0  0  0  0  0  0  0  0  0  0
  182.4600  172.2150  136.8970 C   0  0  0  0  0  0  0  0  0  0  0  0
  185.6830  178.5710  137.8940 C   0  0  0  0  0  3  0  0  0  0  0  0
  183.3120  178.1940  138.6500 C   0  0  1  0  0  3  0  0  0  0  0  0
  184.5870  177.7060  138.0170 C   0  0  0  0  0  0  0  0  0  0  0  0
  183.5060  175.4290  137.6120 C   0  0  2  0  0  3  0  0  0  0  0  0
  181.3090  171.6370  137.6070 C   0  0  0  0  0  3  0  0  0  0  0  0
  183.1400  179.0320  140.8740 C   0  0  2  0  0  3  0  0  0  0  0  0
  180.3330  172.7280  137.7360 N   0  0  0  0  0  0  0  0  0  0  0  0
  185.8380  175.9940  136.8320 C   0  0  0  0  0  3  0  0  0  0  0  0
  184.6450  176.4160  137.4410 C   0  0  0  0  0  0  0  0  0  0  0  0
  183.2900  174.5680  136.3740 C   0  0  0  0  0  2  0  0  0  0  0  0
  181.2350  177.6710  139.8360 C   0  0  0  0  0  2  0  0  0  0  0  0
  179.9250  175.4680  138.7540 O   0  0  0  0  0  1  0  0  0  0  0  0
  183.6430  171.6200  136.8090 C   0  0  0  0  0  2  0  0  0  0  0  0
  182.1650  176.0650  138.0430 C   0  0  2  0  0  3  0  0  0  0  0  0
  182.2550  173.5880  136.6730 N   0  0  0  0  0  0  0  0  0  0  0  0
  185.5480  178.6510  141.4280 C   0  0  0  0  0  1  0  0  0  0  0  0
  184.1400  178.0970  141.5680 C   0  0  1  0  0  3  0  0  0  0  0  0
  183.8280  177.9650  142.9250 O   0  0  0  0  0  0  0  0  0  0  0  0
  184.2640  179.1570  143.5110 C   0  0  0  0  0  2  0  0  0  0  0  0
  184.6590  178.9110  144.9250 C   0  0  0  0  0  0  0  0  0  0  0  0
  183.8040  179.0020  145.8430 O   0  0  0  0  0  1  0  0  0  0  0  0
  185.9640  178.5510  145.2260 O   0  0  0  0  0  0  0  0  0  0  0  0
  180.6320  180.1230  142.4710 O   0  0  0  0  0  1  0  0  0  0  0  0
  180.7540  179.7520  141.1310 C   0  0  0  0  0  2  0  0  0  0  0  0
  1 19  1  6  0  0  0
  2  9  1  0  0  0  0
  3 16  1  0  0  0  0
  3  2  2  0  0  0  0
  4 20  1  6  0  0  0
  5 15  1  1  0  0  0
  5  4  1  0  0  0  0
  6 32  1  6  0  0  0
  7 14  1  0  0  0  0
  8 13  1  0  0  0  0
  9 11  2  0  0  0  0
 10 11  1  1  0  0  0
 10  1  1  0  0  0  0
 10  7  1  0  0  0  0
 12 18  1  6  0  0  0
 12 22  1  0  0  0  0
 13 15  2  0  0  0  0
 14  6  1  0  0  0  0
 14 25  1  6  0  0  0
 16 17  2  0  0  0  0
 17 12  1  0  0  0  0
 17 11  1  0  0  0  0
 18 23  1  0  0  0  0
 19  6  1  0  0  0  0
 21  8  2  0  0  0  0
 22  4  1  0  0  0  0
 22  1  1  0  0  0  0
 23  8  1  0  0  0  0
 23  5  1  0  0  0  0
 24 25  1  0  0  0  0
 25 26  1  0  0  0  0
 26 27  1  0  0  0  0
 27 28  1  0  0  0  0
 28 30  2  0  0  0  0
 28 29  1  0  0  0  0
 32 31  1  0  0  0  0
M  END
>  <MODEL>
6

>  <REMARK>
 VINA RESULT:      -5.9      6.432      9.981
  Name = 
  5 active torsions:
  status: ('A' for Active; 'I' for Inactive)
    1  A    between atoms: C_7  and  C_19
    2  A    between atoms: C_10  and  C_17
    3  A    between atoms: C_10  and  O_20
    4  A    between atoms: O_20  and  C_29
    5  A    between atoms: C_29  and  C_30
                            x       y       z     vdW  Elec       q    Type
                         _______ _______ _______ _____ _____    ______ ____

>  <TORSDO>
F 5

$$$$
=
 OpenBabel11122410523D

 32 36  0  0  1  0  0  0  0  0999 V2000
  183.9320  177.4480  137.8780 C   0  0  1  0  0  3  0  0  0  0  0  0
  188.8530  177.5720  138.1500 C   0  0  0  0  0  3  0  0  0  0  0  0
  188.8970  176.2500  137.7070 C   0  0  0  0  0  3  0  0  0  0  0  0
  182.7370  175.5580  136.5890 C   0  0  2  0  0  3  0  0  0  0  0  0
  182.8880  174.5380  135.4510 C   0  0  2  0  0  3  0  0  0  0  0  0
  182.7510  179.2250  139.1550 C   0  0  2  0  0  3  0  0  0  0  0  0
  185.1610  179.4990  138.6770 O   0  0  0  0  0  0  0  0  0  0  0  0
  183.9930  172.5280  135.7960 C   0  0  0  0  0  0  0  0  0  0  0  0
  187.6350  178.2530  138.1910 C   0  0  0  0  0  3  0  0  0  0  0  0
  185.1530  178.3780  137.7900 C   0  0  1  0  0  3  0  0  0  0  0  0
  186.4500  177.6160  137.7980 C   0  0  0  0  0  0  0  0  0  0  0  0
  185.2310  175.5460  136.9310 C   0  0  2  0  0  3  0  0  0  0  0  0
  182.5560  172.2310  135.9030 C   0  0  0  0  0  3  0  0  0  0  0  0
  184.1820  179.4160  139.7030 C   0  0  2  0  0  3  0  0  0  0  0  0
  181.8640  173.4870  135.5860 N   0  0  0  0  0  0  0  0  0  0  0  0
  187.7270  175.6110  137.2930 C   0  0  0  0  0  3  0  0  0  0  0  0
  186.4990  176.2930  137.3010 C   0  0  0  0  0  0  0  0  0  0  0  0
  185.4200  174.6390  135.7220 C   0  0  0  0  0  2  0  0  0  0  0  0
  182.7080  178.3420  137.9060 C   0  0  0  0  0  2  0  0  0  0  0  0
  181.6040  176.3320  136.3320 O   0  0  0  0  0  1  0  0  0  0  0  0
  184.9450  171.7230  136.2470 C   0  0  0  0  0  2  0  0  0  0  0  0
  183.9950  176.4490  136.7140 C   0  0  2  0  0  3  0  0  0  0  0  0
  184.1870  173.8920  135.5130 N   0  0  0  0  0  0  0  0  0  0  0  0
  185.8630  178.7750  141.4390 C   0  0  0  0  0  1  0  0  0  0  0  0
  184.5600  178.3770  140.7670 C   0  0  1  0  0  3  0  0  0  0  0  0
  183.5550  178.2740  141.7330 O   0  0  0  0  0  0  0  0  0  0  0  0
  184.1810  178.6040  142.9380 C   0  0  0  0  0  2  0  0  0  0  0  0
  183.1570  178.9550  143.9600 C   0  0  0  0  0  0  0  0  0  0  0  0
  181.9500  179.0780  143.6270 O   0  0  0  0  0  0  0  0  0  0  0  0
  183.5300  179.1180  145.2870 O   0  0  0  0  0  1  0  0  0  0  0  0
  180.8780  180.6720  139.4730 O   0  0  0  0  0  1  0  0  0  0  0  0
  182.1280  180.5770  138.8600 C   0  0  0  0  0  2  0  0  0  0  0  0
  1 19  1  6  0  0  0
  2  9  1  0  0  0  0
  3  2  2  0  0  0  0
  4 20  1  6  0  0  0
  4 22  1  0  0  0  0
  5 23  1  0  0  0  0
  5 15  1  1  0  0  0
  5  4  1  0  0  0  0
  6 32  1  6  0  0  0
  6 14  1  0  0  0  0
  7 14  1  0  0  0  0
  8 13  1  0  0  0  0
  8 21  2  0  0  0  0
 10 11  1  1  0  0  0
 10  1  1  0  0  0  0
 10  7  1  0  0  0  0
 11  9  2  0  0  0  0
 12 18  1  6  0  0  0
 12 17  1  0  0  0  0
 14 25  1  1  0  0  0
 15 13  2  0  0  0  0
 16 17  2  0  0  0  0
 16  3  1  0  0  0  0
 17 11  1  0  0  0  0
 19  6  1  0  0  0  0
 22 12  1  0  0  0  0
 22  1  1  0  0  0  0
 23 18  1  0  0  0  0
 23  8  1  0  0  0  0
 25 24  1  0  0  0  0
 25 26  1  0  0  0  0
 26 27  1  0  0  0  0
 27 28  1  0  0  0  0
 28 30  1  0  0  0  0
 29 28  2  0  0  0  0
 32 31  1  0  0  0  0
M  END
>  <MODEL>
7

>  <REMARK>
 VINA RESULT:      -5.8      5.629      9.534
  Name = 
  5 active torsions:
  status: ('A' for Active; 'I' for Inactive)
    1  A    between atoms: C_7  and  C_19
    2  A    between atoms: C_10  and  C_17
    3  A    between atoms: C_10  and  O_20
    4  A    between atoms: O_20  and  C_29
    5  A    between atoms: C_29  and  C_30
                            x       y       z     vdW  Elec       q    Type
                         _______ _______ _______ _____ _____    ______ ____

>  <TORSDO>
F 5

$$$$
=
 OpenBabel11122410523D

 32 36  0  0  1  0  0  0  0  0999 V2000
  184.9660  177.7250  138.3660 C   0  0  1  0  0  3  0  0  0  0  0  0
  181.8410  178.8770  142.0000 C   0  0  0  0  0  3  0  0  0  0  0  0
  182.8930  178.7970  142.9120 C   0  0  0  0  0  3  0  0  0  0  0  0
  187.5170  177.8490  138.7400 C   0  0  2  0  0  3  0  0  0  0  0  0
  188.6240  178.5270  139.5620 C   0  0  2  0  0  3  0  0  0  0  0  0
  183.9060  176.9190  136.2660 C   0  0  2  0  0  3  0  0  0  0  0  0
  182.5130  178.1050  137.9290 O   0  0  0  0  0  0  0  0  0  0  0  0
  189.1430  177.7850  141.6960 C   0  0  0  0  0  0  0  0  0  0  0  0
  182.0940  178.7570  140.6320 C   0  0  0  0  0  3  0  0  0  0  0  0
  183.6660  178.4790  138.6860 C   0  0  1  0  0  3  0  0  0  0  0  0
  183.3980  178.5480  140.1650 C   0  0  0  0  0  0  0  0  0  0  0  0
  185.8890  178.2240  140.6230 C   0  0  2  0  0  3  0  0  0  0  0  0
  190.1430  177.1870  140.7990 C   0  0  0  0  0  3  0  0  0  0  0  0
  182.6800  176.8940  137.2050 C   0  0  2  0  0  3  0  0  0  0  0  0
  189.8660  177.7410  139.4670 N   0  0  0  0  0  0  0  0  0  0  0  0
  184.2000  178.6110  142.4570 C   0  0  0  0  0  3  0  0  0  0  0  0
  184.4730  178.5170  141.0830 C   0  0  0  0  0  0  0  0  0  0  0  0
  186.9310  179.0170  141.4030 C   0  0  0  0  0  2  0  0  0  0  0  0
  185.0870  177.6930  136.8540 C   0  0  0  0  0  2  0  0  0  0  0  0
  187.7940  178.0510  137.3870 O   0  0  0  0  0  1  0  0  0  0  0  0
  188.9060  177.3500  142.9260 C   0  0  0  0  0  2  0  0  0  0  0  0
  186.1220  178.4100  139.1070 C   0  0  2  0  0  3  0  0  0  0  0  0
  188.2530  178.5910  140.9640 N   0  0  0  0  0  0  0  0  0  0  0  0
  181.3030  175.5580  138.8080 C   0  0  0  0  0  1  0  0  0  0  0  0
  182.6580  175.6710  138.1310 C   0  0  1  0  0  3  0  0  0  0  0  0
  182.9110  174.5010  137.4060 O   0  0  0  0  0  0  0  0  0  0  0  0
  184.0780  173.9760  137.9680 C   0  0  0  0  0  2  0  0  0  0  0  0
  184.4650  172.7280  137.2560 C   0  0  0  0  0  0  0  0  0  0  0  0
  185.5950  172.6370  136.7110 O   0  0  0  0  0  0  0  0  0  0  0  0
  183.5880  171.6530  137.2180 O   0  0  0  0  0  1  0  0  0  0  0  0
  182.1280  177.4450  134.7610 O   0  0  0  0  0  1  0  0  0  0  0  0
  183.5130  177.5070  134.9230 C   0  0  0  0  0  2  0  0  0  0  0  0
  1 19  1  6  0  0  0
  1 10  1  0  0  0  0
  1 22  1  0  0  0  0
  2  3  1  0  0  0  0
  4 20  1  6  0  0  0
  4 22  1  0  0  0  0
  4  5  1  0  0  0  0
  5 15  1  1  0  0  0
  5 23  1  0  0  0  0
  6 32  1  6  0  0  0
  6 19  1  0  0  0  0
  6 14  1  0  0  0  0
  8 21  2  0  0  0  0
  9  2  2  0  0  0  0
 10  7  1  6  0  0  0
 10 11  1  0  0  0  0
 11  9  1  0  0  0  0
 11 17  2  0  0  0  0
 12 17  1  0  0  0  0
 12 18  1  1  0  0  0
 13  8  1  0  0  0  0
 14  7  1  0  0  0  0
 14 25  1  1  0  0  0
 15 13  2  0  0  0  0
 16  3  2  0  0  0  0
 17 16  1  0  0  0  0
 22 12  1  0  0  0  0
 23 18  1  0  0  0  0
 23  8  1  0  0  0  0
 25 24  1  0  0  0  0
 26 27  1  0  0  0  0
 26 25  1  0  0  0  0
 28 27  1  0  0  0  0
 29 28  2  0  0  0  0
 30 28  1  0  0  0  0
 31 32  1  0  0  0  0
M  END
>  <MODEL>
8

>  <REMARK>
 VINA RESULT:      -5.7      4.161      6.641
  Name = 
  5 active torsions:
  status: ('A' for Active; 'I' for Inactive)
    1  A    between atoms: C_7  and  C_19
    2  A    between atoms: C_10  and  C_17
    3  A    between atoms: C_10  and  O_20
    4  A    between atoms: O_20  and  C_29
    5  A    between atoms: C_29  and  C_30
                            x       y       z     vdW  Elec       q    Type
                         _______ _______ _______ _____ _____    ______ ____

>  <TORSDO>
F 5

$$$$
=
 OpenBabel11122410523D

 32 36  0  0  1  0  0  0  0  0999 V2000
  188.4860  177.0730  139.2430 C   0  0  1  0  0  3  0  0  0  0  0  0
  193.4080  176.8900  139.4540 C   0  0  0  0  0  3  0  0  0  0  0  0
  193.4040  175.9520  138.4210 C   0  0  0  0  0  3  0  0  0  0  0  0
  187.2220  176.0930  137.2170 C   0  0  2  0  0  3  0  0  0  0  0  0
  187.3360  175.7550  135.7230 C   0  0  2  0  0  3  0  0  0  0  0  0
  187.3700  178.0350  141.2460 C   0  0  2  0  0  3  0  0  0  0  0  0
  189.7890  178.4310  140.9200 O   0  0  0  0  0  0  0  0  0  0  0  0
  188.3660  173.7990  135.0230 C   0  0  0  0  0  0  0  0  0  0  0  0
  192.2150  177.5030  139.8440 C   0  0  0  0  0  3  0  0  0  0  0  0
  189.7400  177.8870  139.5990 C   0  0  1  0  0  3  0  0  0  0  0  0
  191.0080  177.1770  139.2110 C   0  0  0  0  0  0  0  0  0  0  0  0
  189.7140  175.8360  137.4660 C   0  0  2  0  0  3  0  0  0  0  0  0
  186.9200  173.5330  134.9970 C   0  0  0  0  0  3  0  0  0  0  0  0
  188.8080  177.8880  141.7920 C   0  0  2  0  0  3  0  0  0  0  0  0
  186.2750  174.8050  135.3460 N   0  0  0  0  0  0  0  0  0  0  0  0
  192.2110  175.6360  137.7690 C   0  0  0  0  0  3  0  0  0  0  0  0
  191.0090  176.2650  138.1300 C   0  0  0  0  0  0  0  0  0  0  0  0
  189.8700  175.6290  135.9640 C   0  0  0  0  0  2  0  0  0  0  0  0
  187.2950  177.8780  139.7260 C   0  0  0  0  0  2  0  0  0  0  0  0
  186.1180  176.9290  137.3910 O   0  0  0  0  0  1  0  0  0  0  0  0
  189.2890  172.8460  135.0070 C   0  0  0  0  0  2  0  0  0  0  0  0
  188.5130  176.7680  137.7400 C   0  0  2  0  0  3  0  0  0  0  0  0
  188.6110  175.1200  135.4390 N   0  0  0  0  0  0  0  0  0  0  0  0
  190.5970  176.3700  142.6550 C   0  0  0  0  0  1  0  0  0  0  0  0
  189.1470  176.4500  142.2060 C   0  0  1  0  0  3  0  0  0  0  0  0
  188.3170  176.0300  143.2500 O   0  0  0  0  0  0  0  0  0  0  0  0
  188.7480  176.7530  144.3650 C   0  0  0  0  0  2  0  0  0  0  0  0
  187.5730  177.3140  145.0880 C   0  0  0  0  0  0  0  0  0  0  0  0
  186.4300  177.2710  144.5640 O   0  0  0  0  0  0  0  0  0  0  0  0
  187.7350  177.8580  146.3540 O   0  0  0  0  0  1  0  0  0  0  0  0
  185.6070  179.6220  140.9740 O   0  0  0  0  0  1  0  0  0  0  0  0
  186.7980  179.3780  141.6600 C   0  0  0  0  0  2  0  0  0  0  0  0
  1 10  1  0  0  0  0
  1 19  1  6  0  0  0
  2  9  1  0  0  0  0
  3  2  2  0  0  0  0
  4 20  1  6  0  0  0
  4 22  1  0  0  0  0
  5 15  1  1  0  0  0
  5  4  1  0  0  0  0
  6 32  1  6  0  0  0
  6 14  1  0  0  0  0
  7 14  1  0  0  0  0
  8 23  1  0  0  0  0
 10 11  1  1  0  0  0
 10  7  1  0  0  0  0
 11  9  2  0  0  0  0
 12 18  1  6  0  0  0
 12 22  1  0  0  0  0
 12 17  1  0  0  0  0
 13  8  1  0  0  0  0
 13 15  2  0  0  0  0
 14 25  1  6  0  0  0
 16 17  2  0  0  0  0
 16  3  1  0  0  0  0
 17 11  1  0  0  0  0
 19  6  1  0  0  0  0
 21  8  2  0  0  0  0
 22  1  1  0  0  0  0
 23  5  1  0  0  0  0
 23 18  1  0  0  0  0
 25 24  1  0  0  0  0
 25 26  1  0  0  0  0
 26 27  1  0  0  0  0
 27 28  1  0  0  0  0
 28 30  1  0  0  0  0
 29 28  2  0  0  0  0
 31 32  1  0  0  0  0
M  END
>  <MODEL>
9

>  <REMARK>
 VINA RESULT:      -5.7      3.744      7.748
  Name = 
  5 active torsions:
  status: ('A' for Active; 'I' for Inactive)
    1  A    between atoms: C_7  and  C_19
    2  A    between atoms: C_10  and  C_17
    3  A    between atoms: C_10  and  O_20
    4  A    between atoms: O_20  and  C_29
    5  A    between atoms: C_29  and  C_30
                            x       y       z     vdW  Elec       q    Type
                         _______ _______ _______ _____ _____    ______ ____

>  <TORSDO>
F 5

$$$$
