=
 OpenBabel11122411303D

 37 44  0  0  1  0  0  0  0  0999 V2000
  186.5230  178.5120  144.3430 C   0  0  0  0  0  2  0  0  0  0  0  0
  190.6950  176.9070  143.9420 C   0  0  0  0  0  0  0  0  0  0  0  0
  188.6770  177.7110  140.3330 C   0  0  0  0  0  0  0  0  0  0  0  0
  185.6500  178.2530  145.4930 N   0  0  0  0  0  0  0  0  0  0  0  0
  185.2460  179.0680  140.4620 C   0  0  0  0  0  3  0  0  0  0  0  0
  190.7580  177.1190  141.4490 C   0  0  0  0  0  0  0  0  0  0  0  0
  187.4100  177.8590  140.7390 C   0  0  0  0  0  0  0  0  0  0  0  0
  183.9810  179.4140  144.0560 C   0  0  0  0  0  0  0  0  0  0  0  0
  189.4470  177.2290  141.4280 C   0  0  1  0  0  3  0  0  0  0  0  0
  186.2850  178.4260  139.8990 C   0  0  0  0  0  0  0  0  0  0  0  0
  191.5390  177.3580  140.1720 C   0  0  0  0  0  3  0  0  0  0  0  0
  184.2240  178.4720  145.2010 C   0  0  0  0  0  2  0  0  0  0  0  0
  188.6140  177.0910  142.5630 C   0  0  0  0  0  0  0  0  0  0  0  0
  190.8970  178.3200  144.4600 C   0  0  0  0  0  1  0  0  0  0  0  0
  188.6230  178.7020  137.9570 C   0  0  0  0  0  2  0  0  0  0  0  0
  190.7050  177.9660  139.0390 C   0  0  0  0  0  3  0  0  0  0  0  0
  189.1710  176.6170  143.8690 C   0  0  0  0  0  2  0  0  0  0  0  0
  183.9610  178.8910  142.6510 C   0  0  1  0  0  3  0  0  0  0  0  0
  185.1810  179.2190  141.9300 C   0  0  1  0  0  3  0  0  0  0  0  0
  189.3670  178.1100  139.1000 C   0  0  0  0  0  0  0  0  0  0  0  0
  187.3830  177.4650  142.2080 C   0  0  0  0  0  0  0  0  0  0  0  0
  191.3680  176.7730  142.6670 O   0  0  0  0  0  0  0  0  0  0  0  0
  186.1790  178.2170  138.3970 C   0  0  1  0  0  3  0  0  0  0  0  0
  191.3240  175.9470  144.9290 C   0  0  0  0  0  1  0  0  0  0  0  0
  184.9800  177.8340  142.4080 N   0  0  1  0  0  0  0  0  0  0  0  0
  183.8040  180.6020  144.2710 O   0  0  0  0  0  0  0  0  0  0  0  0
  186.2140  177.5620  143.1710 C   0  0  2  0  0  3  0  0  0  0  0  0
  187.4430  177.8080  137.6390 C   0  0  0  0  0  2  0  0  0  0  0  0
  185.2970  176.2410  137.1390 C   0  0  0  0  0  3  0  0  0  0  0  0
  185.0650  177.2740  138.0550 C   0  0  0  0  0  0  0  0  0  0  0  0
  183.7970  177.4150  138.6370 C   0  0  0  0  0  3  0  0  0  0  0  0
  181.4830  176.6770  138.8910 N   0  0  0  0  0  1  0  0  0  0  0  0
  183.0040  175.5000  137.3850 C   0  0  0  0  0  3  0  0  0  0  0  0
  182.7690  176.5290  138.3010 C   0  0  0  0  0  0  0  0  0  0  0  0
  184.2680  175.3560  136.8040 C   0  0  0  0  0  3  0  0  0  0  0  0
  186.9440  178.5150  147.5370 C   0  0  0  0  0  1  0  0  0  0  0  0
  186.0250  179.1930  146.5380 C   0  0  0  0  0  2  0  0  0  0  0  0
  1  4  1  0  0  0  0
  2 14  1  0  0  0  0
  2 24  1  0  0  0  0
  3  7  2  0  0  0  0
  4 37  1  0  0  0  0
  6 22  1  0  0  0  0
  7 21  1  0  0  0  0
  8 26  2  0  0  0  0
  8 12  1  0  0  0  0
  9  3  1  1  0  0  0
  9  6  1  0  0  0  0
  9 13  1  0  0  0  0
 10  5  2  0  0  0  0
 10  7  1  0  0  0  0
 11  6  2  0  0  0  0
 12  4  1  0  0  0  0
 13 17  1  0  0  0  0
 15 20  1  0  0  0  0
 16 20  2  0  0  0  0
 16 11  1  0  0  0  0
 17  2  1  0  0  0  0
 18  8  1  1  0  0  0
 19  5  1  6  0  0  0
 19 25  1  0  0  0  0
 19 18  1  0  0  0  0
 20  3  1  0  0  0  0
 21 13  2  0  0  0  0
 21 27  1  0  0  0  0
 22  2  1  0  0  0  0
 23 30  1  1  0  0  0
 23 10  1  0  0  0  0
 25 18  1  0  0  0  0
 25 27  1  0  0  0  0
 27  1  1  0  0  0  0
 28 15  1  0  0  0  0
 28 23  1  0  0  0  0
 29 30  1  0  0  0  0
 30 31  2  0  0  0  0
 33 34  2  0  0  0  0
 34 31  1  0  0  0  0
 34 32  1  0  0  0  0
 35 29  2  0  0  0  0
 35 33  1  0  0  0  0
 37 36  1  0  0  0  0
M  END
>  <MODEL>
1

>  <REMARK>
 VINA RESULT:      -8.7      0.000      0.000
  Name = 
  2 active torsions:
  status: ('A' for Active; 'I' for Inactive)
    1  A    between atoms: N_4  and  C_37
    2  A    between atoms: C_23  and  C_30
                            x       y       z     vdW  Elec       q    Type
                         _______ _______ _______ _____ _____    ______ ____

>  <TORSDO>
F 2

$$$$
=
 OpenBabel11122411303D

 37 44  0  0  1  0  0  0  0  0999 V2000
  186.5200  178.5100  144.3350 C   0  0  0  0  0  2  0  0  0  0  0  0
  190.6920  176.9030  143.9410 C   0  0  0  0  0  0  0  0  0  0  0  0
  188.6820  177.7110  140.3290 C   0  0  0  0  0  0  0  0  0  0  0  0
  185.6450  178.2510  145.4830 N   0  0  0  0  0  0  0  0  0  0  0  0
  185.2510  179.0710  140.4520 C   0  0  0  0  0  3  0  0  0  0  0  0
  190.7590  177.1170  141.4480 C   0  0  0  0  0  0  0  0  0  0  0  0
  187.4140  177.8600  140.7320 C   0  0  0  0  0  0  0  0  0  0  0  0
  183.9790  179.4150  144.0440 C   0  0  0  0  0  0  0  0  0  0  0  0
  189.4490  177.2280  141.4240 C   0  0  1  0  0  3  0  0  0  0  0  0
  186.2910  178.4290  139.8900 C   0  0  0  0  0  0  0  0  0  0  0  0
  191.5430  177.3560  140.1730 C   0  0  0  0  0  3  0  0  0  0  0  0
  184.2190  178.4720  145.1880 C   0  0  0  0  0  2  0  0  0  0  0  0
  188.6130  177.0890  142.5570 C   0  0  0  0  0  0  0  0  0  0  0  0
  190.8930  178.3150  144.4610 C   0  0  0  0  0  1  0  0  0  0  0  0
  188.6320  178.7040  137.9530 C   0  0  0  0  0  2  0  0  0  0  0  0
  190.7120  177.9650  139.0390 C   0  0  0  0  0  3  0  0  0  0  0  0
  189.1670  176.6140  143.8640 C   0  0  0  0  0  2  0  0  0  0  0  0
  183.9620  178.8930  142.6380 C   0  0  1  0  0  3  0  0  0  0  0  0
  185.1840  179.2210  141.9200 C   0  0  1  0  0  3  0  0  0  0  0  0
  189.3740  178.1110  139.0970 C   0  0  0  0  0  0  0  0  0  0  0  0
  187.3840  177.4650  142.2010 C   0  0  0  0  0  0  0  0  0  0  0  0
  191.3670  176.7700  142.6670 O   0  0  0  0  0  0  0  0  0  0  0  0
  186.1880  178.2210  138.3880 C   0  0  1  0  0  3  0  0  0  0  0  0
  191.3180  175.9420  144.9290 C   0  0  0  0  0  1  0  0  0  0  0  0
  184.9800  177.8350  142.3960 N   0  0  1  0  0  0  0  0  0  0  0  0
  183.8030  180.6030  144.2590 O   0  0  0  0  0  0  0  0  0  0  0  0
  186.2120  177.5620  143.1610 C   0  0  2  0  0  3  0  0  0  0  0  0
  187.4530  177.8120  137.6320 C   0  0  0  0  0  2  0  0  0  0  0  0
  183.8080  177.4770  138.6080 C   0  0  0  0  0  3  0  0  0  0  0  0
  185.0740  177.2790  138.0430 C   0  0  0  0  0  0  0  0  0  0  0  0
  185.2850  176.2020  137.1690 C   0  0  0  0  0  3  0  0  0  0  0  0
  184.4530  174.2380  135.9800 N   0  0  0  0  0  1  0  0  0  0  0  0
  182.9730  175.5300  137.4320 C   0  0  0  0  0  3  0  0  0  0  0  0
  184.2350  175.3300  136.8650 C   0  0  0  0  0  0  0  0  0  0  0  0
  182.7590  176.6030  138.3020 C   0  0  0  0  0  3  0  0  0  0  0  0
  186.9420  178.5140  147.5240 C   0  0  0  0  0  1  0  0  0  0  0  0
  186.0180  179.1910  146.5290 C   0  0  0  0  0  2  0  0  0  0  0  0
  1  4  1  0  0  0  0
  2 14  1  0  0  0  0
  2 24  1  0  0  0  0
  3  7  2  0  0  0  0
  4 37  1  0  0  0  0
  6 22  1  0  0  0  0
  7 21  1  0  0  0  0
  8 26  2  0  0  0  0
  8 12  1  0  0  0  0
  9  3  1  1  0  0  0
  9  6  1  0  0  0  0
  9 13  1  0  0  0  0
 10  5  2  0  0  0  0
 10  7  1  0  0  0  0
 11  6  2  0  0  0  0
 12  4  1  0  0  0  0
 13 17  1  0  0  0  0
 15 20  1  0  0  0  0
 16 20  2  0  0  0  0
 16 11  1  0  0  0  0
 17  2  1  0  0  0  0
 18  8  1  1  0  0  0
 19  5  1  6  0  0  0
 19 25  1  0  0  0  0
 19 18  1  0  0  0  0
 20  3  1  0  0  0  0
 21 13  2  0  0  0  0
 21 27  1  0  0  0  0
 22  2  1  0  0  0  0
 23 30  1  1  0  0  0
 23 10  1  0  0  0  0
 25 18  1  0  0  0  0
 25 27  1  0  0  0  0
 27  1  1  0  0  0  0
 28 15  1  0  0  0  0
 28 23  1  0  0  0  0
 30 29  2  0  0  0  0
 31 30  1  0  0  0  0
 32 34  1  0  0  0  0
 33 35  2  0  0  0  0
 34 31  2  0  0  0  0
 34 33  1  0  0  0  0
 35 29  1  0  0  0  0
 37 36  1  0  0  0  0
M  END
>  <MODEL>
2

>  <REMARK>
 VINA RESULT:      -8.6      0.793      1.124
  Name = 
  2 active torsions:
  status: ('A' for Active; 'I' for Inactive)
    1  A    between atoms: N_4  and  C_37
    2  A    between atoms: C_23  and  C_30
                            x       y       z     vdW  Elec       q    Type
                         _______ _______ _______ _____ _____    ______ ____

>  <TORSDO>
F 2

$$$$
=
 OpenBabel11122411303D

 37 44  0  0  1  0  0  0  0  0999 V2000
  186.4630  178.1130  140.6000 C   0  0  0  0  0  2  0  0  0  0  0  0
  184.7900  178.9900  144.6720 C   0  0  0  0  0  0  0  0  0  0  0  0
  181.9700  178.5980  141.5680 C   0  0  0  0  0  0  0  0  0  0  0  0
  187.8090  178.4990  140.1650 N   0  0  0  0  0  0  0  0  0  0  0  0
  183.1550  177.8430  138.1530 C   0  0  0  0  0  3  0  0  0  0  0  0
  182.3990  178.8090  143.9540 C   0  0  0  0  0  0  0  0  0  0  0  0
  182.7360  178.6620  140.4730 C   0  0  0  0  0  0  0  0  0  0  0  0
  186.9720  177.6620  137.9740 C   0  0  0  0  0  0  0  0  0  0  0  0
  182.7690  178.9240  142.6970 C   0  0  0  0  0  0  0  0  0  0  0  0
  182.2870  178.3070  139.0700 C   0  0  0  0  0  0  0  0  0  0  0  0
  180.9580  178.4610  144.2690 C   0  0  0  0  0  2  0  0  0  0  0  0
  187.9590  178.5310  138.7010 C   0  0  0  0  0  2  0  0  0  0  0  0
  184.0940  179.1850  142.2740 C   0  0  0  0  0  0  0  0  0  0  0  0
  185.2760  177.5560  144.7790 C   0  0  0  0  0  1  0  0  0  0  0  0
  179.7530  177.6680  140.6450 C   0  0  0  0  0  2  0  0  0  0  0  0
  180.1440  178.0220  143.0470 C   0  0  0  0  0  3  0  0  0  0  0  0
  185.1600  179.5370  143.2650 C   0  0  0  0  0  2  0  0  0  0  0  0
  185.6180  178.2020  137.6260 C   0  0  1  0  0  3  0  0  0  0  0  0
  184.5810  177.6820  138.5040 C   0  0  1  0  0  3  0  0  0  0  0  0
  180.6020  178.1060  141.7830 C   0  0  0  0  0  0  0  0  0  0  0  0
  184.1330  179.0310  140.9500 C   0  0  0  0  0  0  0  0  0  0  0  0
  183.3690  179.0270  144.9480 O   0  0  0  0  0  0  0  0  0  0  0  0
  180.8770  178.5540  138.5590 C   0  0  1  0  0  3  0  0  0  0  0  0
  185.5120  179.8130  145.7170 C   0  0  0  0  0  1  0  0  0  0  0  0
  185.0460  179.0740  138.6870 N   0  0  1  0  0  0  0  0  0  0  0  0
  187.2720  176.5180  137.6730 O   0  0  0  0  0  0  0  0  0  0  0  0
  185.4010  179.1200  140.1200 C   0  0  2  0  0  3  0  0  0  0  0  0
  179.7650  178.7540  139.5910 C   0  0  0  0  0  2  0  0  0  0  0  0
  180.6920  179.3910  136.2070 C   0  0  0  0  0  3  0  0  0  0  0  0
  180.8460  179.6790  137.5690 C   0  0  0  0  0  0  0  0  0  0  0  0
  180.9730  181.0120  137.9870 C   0  0  0  0  0  3  0  0  0  0  0  0
  181.0810  183.3970  137.4740 N   0  0  0  0  0  1  0  0  0  0  0  0
  180.7970  181.7550  135.6890 C   0  0  0  0  0  3  0  0  0  0  0  0
  180.9490  182.0470  137.0470 C   0  0  0  0  0  0  0  0  0  0  0  0
  180.6670  180.4270  135.2690 C   0  0  0  0  0  3  0  0  0  0  0  0
  188.4580  177.2380  142.1410 C   0  0  0  0  0  1  0  0  0  0  0  0
  188.7300  177.4920  140.6700 C   0  0  0  0  0  2  0  0  0  0  0  0
  2 14  1  0  0  0  0
  2 22  1  0  0  0  0
  2 24  1  0  0  0  0
  3 20  1  0  0  0  0
  3  9  1  0  0  0  0
  4  1  1  0  0  0  0
  4 37  1  0  0  0  0
  5 10  2  0  0  0  0
  6 11  1  0  0  0  0
  6 22  1  0  0  0  0
  7 21  1  0  0  0  0
  7  3  2  0  0  0  0
  8 12  1  0  0  0  0
  9  6  2  0  0  0  0
 10  7  1  0  0  0  0
 12  4  1  0  0  0  0
 13  9  1  0  0  0  0
 13 17  1  0  0  0  0
 15 20  1  0  0  0  0
 16 11  1  0  0  0  0
 17  2  1  0  0  0  0
 18  8  1  1  0  0  0
 18 19  1  0  0  0  0
 18 25  1  0  0  0  0
 19  5  1  6  0  0  0
 19 25  1  0  0  0  0
 20 16  2  0  0  0  0
 21 13  2  0  0  0  0
 23 30  1  6  0  0  0
 23 10  1  0  0  0  0
 23 28  1  0  0  0  0
 25 27  1  0  0  0  0
 26  8  2  0  0  0  0
 27  1  1  0  0  0  0
 27 21  1  0  0  0  0
 28 15  1  0  0  0  0
 29 30  1  0  0  0  0
 30 31  2  0  0  0  0
 33 34  2  0  0  0  0
 34 32  1  0  0  0  0
 34 31  1  0  0  0  0
 35 33  1  0  0  0  0
 35 29  2  0  0  0  0
 37 36  1  0  0  0  0
M  END
>  <MODEL>
3

>  <REMARK>
 VINA RESULT:      -8.6      3.205      6.632
  Name = 
  2 active torsions:
  status: ('A' for Active; 'I' for Inactive)
    1  A    between atoms: N_4  and  C_37
    2  A    between atoms: C_23  and  C_30
                            x       y       z     vdW  Elec       q    Type
                         _______ _______ _______ _____ _____    ______ ____

>  <TORSDO>
F 2

$$$$
=
 OpenBabel11122411303D

 37 44  0  0  1  0  0  0  0  0999 V2000
  187.4210  178.0220  145.0300 C   0  0  0  0  0  2  0  0  0  0  0  0
  191.2270  176.3540  143.3330 C   0  0  0  0  0  0  0  0  0  0  0  0
  188.4060  177.7300  140.5240 C   0  0  0  0  0  0  0  0  0  0  0  0
  186.8600  177.6310  146.3270 N   0  0  0  0  0  0  0  0  0  0  0  0
  185.2270  179.1680  141.7330 C   0  0  0  0  0  3  0  0  0  0  0  0
  190.6580  176.9170  140.9620 C   0  0  0  0  0  0  0  0  0  0  0  0
  187.3000  177.8600  141.2670 C   0  0  0  0  0  0  0  0  0  0  0  0
  184.9610  179.0390  145.5470 C   0  0  0  0  0  0  0  0  0  0  0  0
  189.3970  177.0720  141.3030 C   0  0  1  0  0  3  0  0  0  0  0  0
  186.0390  178.5790  140.8360 C   0  0  0  0  0  0  0  0  0  0  0  0
  191.0970  177.3090  139.5650 C   0  0  0  0  0  3  0  0  0  0  0  0
  185.4260  177.9360  146.4550 C   0  0  0  0  0  2  0  0  0  0  0  0
  188.8780  176.8010  142.5910 C   0  0  0  0  0  0  0  0  0  0  0  0
  191.6530  177.6700  143.9560 C   0  0  0  0  0  1  0  0  0  0  0  0
  187.8090  179.0510  138.3960 C   0  0  0  0  0  2  0  0  0  0  0  0
  190.0430  178.0990  138.7820 C   0  0  0  0  0  3  0  0  0  0  0  0
  189.7190  176.1270  143.6300 C   0  0  0  0  0  2  0  0  0  0  0  0
  184.5430  178.7230  144.1420 C   0  0  1  0  0  3  0  0  0  0  0  0
  185.5550  179.1100  143.1720 C   0  0  1  0  0  3  0  0  0  0  0  0
  188.7800  178.2780  139.2130 C   0  0  0  0  0  0  0  0  0  0  0  0
  187.6270  177.2620  142.6270 C   0  0  0  0  0  0  0  0  0  0  0  0
  191.5370  176.3810  141.9180 O   0  0  0  0  0  0  0  0  0  0  0  0
  185.5340  178.5900  139.4020 C   0  0  1  0  0  3  0  0  0  0  0  0
  192.0210  175.2420  143.9850 C   0  0  0  0  0  1  0  0  0  0  0  0
  185.3880  177.6780  143.5030 N   0  0  1  0  0  0  0  0  0  0  0  0
  184.9290  180.1900  145.9520 O   0  0  0  0  0  0  0  0  0  0  0  0
  186.7550  177.2590  143.8700 C   0  0  2  0  0  3  0  0  0  0  0  0
  186.5280  178.2510  138.2900 C   0  0  0  0  0  2  0  0  0  0  0  0
  183.2620  177.8750  140.1720 C   0  0  0  0  0  3  0  0  0  0  0  0
  184.3070  177.7420  139.2500 C   0  0  0  0  0  0  0  0  0  0  0  0
  184.1950  176.8160  138.2010 C   0  0  0  0  0  3  0  0  0  0  0  0
  182.9370  175.0910  137.0170 N   0  0  0  0  0  1  0  0  0  0  0  0
  182.0060  176.1650  139.0030 C   0  0  0  0  0  3  0  0  0  0  0  0
  183.0460  176.0300  138.0800 C   0  0  0  0  0  0  0  0  0  0  0  0
  182.1130  177.0870  140.0480 C   0  0  0  0  0  3  0  0  0  0  0  0
  188.8950  177.7540  147.6550 C   0  0  0  0  0  1  0  0  0  0  0  0
  187.5560  178.4000  147.3470 C   0  0  0  0  0  2  0  0  0  0  0  0
  1  4  1  0  0  0  0
  2 17  1  0  0  0  0
  2 14  1  0  0  0  0
  2 24  1  0  0  0  0
  3  7  2  0  0  0  0
  4 12  1  0  0  0  0
  4 37  1  0  0  0  0
  6  9  1  0  0  0  0
  6 22  1  0  0  0  0
  7 21  1  0  0  0  0
  8 26  2  0  0  0  0
  8 12  1  0  0  0  0
  9  3  1  1  0  0  0
  9 13  1  0  0  0  0
 10  7  1  0  0  0  0
 10  5  2  0  0  0  0
 11  6  2  0  0  0  0
 13 21  2  0  0  0  0
 13 17  1  0  0  0  0
 15 20  1  0  0  0  0
 16 20  2  0  0  0  0
 16 11  1  0  0  0  0
 18  8  1  1  0  0  0
 19  5  1  6  0  0  0
 19 25  1  0  0  0  0
 19 18  1  0  0  0  0
 20  3  1  0  0  0  0
 21 27  1  0  0  0  0
 22  2  1  0  0  0  0
 23 30  1  1  0  0  0
 23 10  1  0  0  0  0
 25 27  1  0  0  0  0
 25 18  1  0  0  0  0
 27  1  1  0  0  0  0
 28 15  1  0  0  0  0
 28 23  1  0  0  0  0
 30 29  2  0  0  0  0
 31 30  1  0  0  0  0
 32 34  1  0  0  0  0
 33 35  2  0  0  0  0
 34 31  2  0  0  0  0
 34 33  1  0  0  0  0
 35 29  1  0  0  0  0
 37 36  1  0  0  0  0
M  END
>  <MODEL>
4

>  <REMARK>
 VINA RESULT:      -8.3      1.159      1.593
  Name = 
  2 active torsions:
  status: ('A' for Active; 'I' for Inactive)
    1  A    between atoms: N_4  and  C_37
    2  A    between atoms: C_23  and  C_30
                            x       y       z     vdW  Elec       q    Type
                         _______ _______ _______ _____ _____    ______ ____

>  <TORSDO>
F 2

$$$$
=
 OpenBabel11122411303D

 37 44  0  0  1  0  0  0  0  0999 V2000
  187.3610  177.0250  138.4580 C   0  0  0  0  0  2  0  0  0  0  0  0
  188.2110  178.1080  142.7310 C   0  0  0  0  0  0  0  0  0  0  0  0
  184.2300  178.6270  141.4570 C   0  0  0  0  0  0  0  0  0  0  0  0
  188.3620  177.0630  137.3870 N   0  0  0  0  0  0  0  0  0  0  0  0
  183.3320  177.7580  137.9820 C   0  0  0  0  0  3  0  0  0  0  0  0
  185.8230  178.6000  143.2960 C   0  0  0  0  0  0  0  0  0  0  0  0
  184.3400  178.5420  140.1250 C   0  0  0  0  0  0  0  0  0  0  0  0
  186.3690  176.5860  135.9720 C   0  0  0  0  0  0  0  0  0  0  0  0
  185.5370  178.6750  142.0150 C   0  0  0  0  0  0  0  0  0  0  0  0
  183.1820  178.3880  139.1610 C   0  0  0  0  0  0  0  0  0  0  0  0
  184.6930  178.6280  144.3070 C   0  0  0  0  0  2  0  0  0  0  0  0
  187.7690  177.1270  136.0410 C   0  0  0  0  0  2  0  0  0  0  0  0
  186.4940  178.5980  140.9750 C   0  0  0  0  0  0  0  0  0  0  0  0
  188.3050  176.5930  142.7130 C   0  0  0  0  0  1  0  0  0  0  0  0
  181.6960  178.3620  141.8260 C   0  0  0  0  0  2  0  0  0  0  0  0
  183.3000  178.4800  143.6850 C   0  0  0  0  0  3  0  0  0  0  0  0
  187.9590  178.6070  141.2810 C   0  0  0  0  0  2  0  0  0  0  0  0
  185.2080  177.4810  136.2860 C   0  0  1  0  0  3  0  0  0  0  0  0
  184.6500  177.2100  137.6020 C   0  0  1  0  0  3  0  0  0  0  0  0
  183.0760  178.5030  142.3570 C   0  0  0  0  0  0  0  0  0  0  0  0
  185.8310  178.5060  139.8220 C   0  0  0  0  0  0  0  0  0  0  0  0
  187.1760  178.5040  143.6630 O   0  0  0  0  0  0  0  0  0  0  0  0
  181.8200  179.0230  139.3870 C   0  0  1  0  0  3  0  0  0  0  0  0
  189.5370  178.6590  143.2090 C   0  0  0  0  0  1  0  0  0  0  0  0
  185.4790  178.4190  137.4090 N   0  0  1  0  0  0  0  0  0  0  0  0
  186.1800  175.4200  135.6670 O   0  0  0  0  0  0  0  0  0  0  0  0
  186.4960  178.2990  138.4730 C   0  0  2  0  0  3  0  0  0  0  0  0
  181.4580  179.4570  140.8080 C   0  0  0  0  0  2  0  0  0  0  0  0
  181.9370  181.4620  138.8350 C   0  0  0  0  0  3  0  0  0  0  0  0
  181.5870  180.1640  138.4430 C   0  0  0  0  0  0  0  0  0  0  0  0
  181.0210  179.9490  137.1780 C   0  0  0  0  0  3  0  0  0  0  0  0
  180.2290  180.8050  135.0320 N   0  0  0  0  0  1  0  0  0  0  0  0
  181.1550  182.3210  136.7090 C   0  0  0  0  0  3  0  0  0  0  0  0
  180.8050  181.0260  136.3140 C   0  0  0  0  0  0  0  0  0  0  0  0
  181.7220  182.5380  137.9690 C   0  0  0  0  0  3  0  0  0  0  0  0
  190.3430  176.0250  138.3440 C   0  0  0  0  0  1  0  0  0  0  0  0
  189.1230  175.8260  137.4640 C   0  0  0  0  0  2  0  0  0  0  0  0
  1 27  1  0  0  0  0
  2 24  1  0  0  0  0
  2 22  1  0  0  0  0
  3  9  1  0  0  0  0
  3 20  1  0  0  0  0
  4 37  1  0  0  0  0
  4  1  1  0  0  0  0
  5 10  2  0  0  0  0
  6 22  1  0  0  0  0
  6 11  1  0  0  0  0
  7  3  2  0  0  0  0
  8 12  1  0  0  0  0
  9  6  2  0  0  0  0
 10 23  1  0  0  0  0
 10  7  1  0  0  0  0
 12  4  1  0  0  0  0
 13 17  1  0  0  0  0
 13  9  1  0  0  0  0
 14  2  1  0  0  0  0
 15 20  1  0  0  0  0
 16 11  1  0  0  0  0
 17  2  1  0  0  0  0
 18  8  1  1  0  0  0
 18 25  1  0  0  0  0
 18 19  1  0  0  0  0
 19  5  1  6  0  0  0
 20 16  2  0  0  0  0
 21  7  1  0  0  0  0
 21 13  2  0  0  0  0
 23 30  1  6  0  0  0
 23 28  1  0  0  0  0
 25 19  1  0  0  0  0
 25 27  1  0  0  0  0
 26  8  2  0  0  0  0
 27 21  1  0  0  0  0
 28 15  1  0  0  0  0
 30 29  1  0  0  0  0
 31 30  2  0  0  0  0
 32 34  1  0  0  0  0
 33 35  1  0  0  0  0
 34 33  2  0  0  0  0
 34 31  1  0  0  0  0
 35 29  2  0  0  0  0
 37 36  1  0  0  0  0
M  END
>  <MODEL>
5

>  <REMARK>
 VINA RESULT:      -7.9      3.241      6.325
  Name = 
  2 active torsions:
  status: ('A' for Active; 'I' for Inactive)
    1  A    between atoms: N_4  and  C_37
    2  A    between atoms: C_23  and  C_30
                            x       y       z     vdW  Elec       q    Type
                         _______ _______ _______ _____ _____    ______ ____

>  <TORSDO>
F 2

$$$$
=
 OpenBabel11122411303D

 37 44  0  0  1  0  0  0  0  0999 V2000
  184.0610  176.2970  136.6780 C   0  0  0  0  0  2  0  0  0  0  0  0
  188.0700  177.9430  137.8480 C   0  0  0  0  0  0  0  0  0  0  0  0
  184.9950  178.3920  140.6910 C   0  0  0  0  0  0  0  0  0  0  0  0
  183.6040  176.1560  135.2920 N   0  0  0  0  0  0  0  0  0  0  0  0
  181.6340  177.0700  139.9210 C   0  0  0  0  0  3  0  0  0  0  0  0
  187.3630  178.5770  140.1640 C   0  0  0  0  0  0  0  0  0  0  0  0
  183.8980  178.1170  139.9740 C   0  0  0  0  0  0  0  0  0  0  0  0
  181.4690  175.5420  136.4170 C   0  0  0  0  0  0  0  0  0  0  0  0
  186.1020  178.4800  139.8030 C   0  0  0  0  0  0  0  0  0  0  0  0
  182.5200  177.8630  140.5500 C   0  0  0  0  0  0  0  0  0  0  0  0
  187.6980  178.7780  141.6280 C   0  0  0  0  0  2  0  0  0  0  0  0
  182.1410  176.0480  135.1720 C   0  0  0  0  0  2  0  0  0  0  0  0
  185.6650  178.2310  138.4810 C   0  0  0  0  0  0  0  0  0  0  0  0
  188.2660  176.4380  137.8970 C   0  0  0  0  0  1  0  0  0  0  0  0
  184.1300  178.2530  143.1120 C   0  0  0  0  0  2  0  0  0  0  0  0
  186.5050  178.5850  142.5710 C   0  0  0  0  0  3  0  0  0  0  0  0
  186.6320  178.2410  137.3390 C   0  0  0  0  0  2  0  0  0  0  0  0
  181.0870  176.5050  137.5010 C   0  0  1  0  0  3  0  0  0  0  0  0
  181.9950  176.4370  138.6360 C   0  0  1  0  0  3  0  0  0  0  0  0
  185.2390  178.4280  142.1390 C   0  0  0  0  0  0  0  0  0  0  0  0
  184.3520  177.9970  138.5270 C   0  0  0  0  0  0  0  0  0  0  0  0
  188.3430  178.4950  139.1590 O   0  0  0  0  0  0  0  0  0  0  0  0
  181.9940  178.5620  141.7930 C   0  0  1  0  0  3  0  0  0  0  0  0
  189.0620  178.5170  136.8600 C   0  0  0  0  0  1  0  0  0  0  0  0
  182.0920  177.5830  137.7060 N   0  0  1  0  0  0  0  0  0  0  0  0
  181.2400  174.3510  136.5460 O   0  0  0  0  0  0  0  0  0  0  0  0
  183.5190  177.5840  137.3270 C   0  0  2  0  0  3  0  0  0  0  0  0
  183.0100  179.2010  142.7400 C   0  0  0  0  0  2  0  0  0  0  0  0
  179.9370  179.8620  142.3820 C   0  0  0  0  0  3  0  0  0  0  0  0
  180.9350  179.5660  141.4460 C   0  0  0  0  0  0  0  0  0  0  0  0
  180.9300  180.2060  140.1980 C   0  0  0  0  0  3  0  0  0  0  0  0
  179.9260  181.7810  138.6240 N   0  0  0  0  0  1  0  0  0  0  0  0
  178.9350  181.4260  140.8280 C   0  0  0  0  0  3  0  0  0  0  0  0
  179.9300  181.1340  139.8910 C   0  0  0  0  0  0  0  0  0  0  0  0
  178.9390  180.7910  142.0730 C   0  0  0  0  0  3  0  0  0  0  0  0
  185.0030  174.2460  135.8500 C   0  0  0  0  0  1  0  0  0  0  0  0
  184.1720  174.9200  134.7750 C   0  0  0  0  0  2  0  0  0  0  0  0
  1 27  1  0  0  0  0
  2 14  1  0  0  0  0
  2 22  1  0  0  0  0
  3 20  1  0  0  0  0
  4  1  1  0  0  0  0
  5 10  2  0  0  0  0
  6 11  1  0  0  0  0
  7 10  1  0  0  0  0
  7  3  2  0  0  0  0
  8 26  2  0  0  0  0
  9  6  2  0  0  0  0
  9  3  1  0  0  0  0
 10 23  1  0  0  0  0
 11 16  1  0  0  0  0
 12  4  1  0  0  0  0
 12  8  1  0  0  0  0
 13 21  2  0  0  0  0
 13  9  1  0  0  0  0
 17  2  1  0  0  0  0
 17 13  1  0  0  0  0
 18  8  1  6  0  0  0
 18 25  1  0  0  0  0
 18 19  1  0  0  0  0
 19  5  1  1  0  0  0
 20 16  2  0  0  0  0
 20 15  1  0  0  0  0
 21  7  1  0  0  0  0
 22  6  1  0  0  0  0
 23 30  1  6  0  0  0
 23 28  1  0  0  0  0
 24  2  1  0  0  0  0
 25 19  1  0  0  0  0
 27 25  1  0  0  0  0
 27 21  1  0  0  0  0
 28 15  1  0  0  0  0
 30 29  2  0  0  0  0
 31 30  1  0  0  0  0
 32 34  1  0  0  0  0
 33 35  2  0  0  0  0
 34 31  2  0  0  0  0
 34 33  1  0  0  0  0
 35 29  1  0  0  0  0
 37  4  1  0  0  0  0
 37 36  1  0  0  0  0
M  END
>  <MODEL>
6

>  <REMARK>
 VINA RESULT:      -7.9      3.212      7.090
  Name = 
  2 active torsions:
  status: ('A' for Active; 'I' for Inactive)
    1  A    between atoms: N_4  and  C_37
    2  A    between atoms: C_23  and  C_30
                            x       y       z     vdW  Elec       q    Type
                         _______ _______ _______ _____ _____    ______ ____

>  <TORSDO>
F 2

$$$$
=
 OpenBabel11122411303D

 37 44  0  0  1  0  0  0  0  0999 V2000
  184.3150  177.0910  136.9610 C   0  0  0  0  0  2  0  0  0  0  0  0
  180.2430  175.3080  137.5810 C   0  0  0  0  0  0  0  0  0  0  0  0
  181.7620  177.5870  140.7810 C   0  0  0  0  0  0  0  0  0  0  0  0
  185.3330  176.5240  136.0700 N   0  0  0  0  0  0  0  0  0  0  0  0
  185.0850  179.1610  140.4430 C   0  0  0  0  0  3  0  0  0  0  0  0
  179.8730  176.4090  139.7980 C   0  0  0  0  0  0  0  0  0  0  0  0
  183.0550  177.7100  140.4580 C   0  0  0  0  0  0  0  0  0  0  0  0
  186.7390  178.3020  137.1020 C   0  0  0  0  0  0  0  0  0  0  0  0
  181.1610  176.6590  139.8870 C   0  0  0  0  0  0  0  0  0  0  0  0
  184.0320  178.6630  141.1160 C   0  0  0  0  0  0  0  0  0  0  0  0
  178.9320  177.0140  140.8210 C   0  0  0  0  0  2  0  0  0  0  0  0
  186.6960  176.9860  136.3780 C   0  0  0  0  0  2  0  0  0  0  0  0
  182.1300  176.2050  138.9610 C   0  0  0  0  0  0  0  0  0  0  0  0
  180.0090  176.4030  136.5560 C   0  0  0  0  0  1  0  0  0  0  0  0
  181.4680  179.3780  142.6080 C   0  0  0  0  0  2  0  0  0  0  0  0
  179.5830  178.0790  141.7100 C   0  0  0  0  0  3  0  0  0  0  0  0
  181.7650  175.2290  137.8860 C   0  0  0  0  0  2  0  0  0  0  0  0
  186.6270  178.3340  138.5960 C   0  0  1  0  0  3  0  0  0  0  0  0
  185.3110  178.7710  139.0360 C   0  0  1  0  0  3  0  0  0  0  0  0
  180.9060  178.3340  141.7120 C   0  0  0  0  0  0  0  0  0  0  0  0
  183.2820  176.8120  139.2520 C   0  0  0  0  0  0  0  0  0  0  0  0
  179.4350  175.5790  138.7520 O   0  0  0  0  0  0  0  0  0  0  0  0
  183.9740  179.0310  142.5900 C   0  0  1  0  0  3  0  0  0  0  0  0
  179.8020  173.9920  136.9770 C   0  0  0  0  0  1  0  0  0  0  0  0
  185.6620  177.3370  139.1320 N   0  0  1  0  0  0  0  0  0  0  0  0
  186.8580  179.3400  136.4720 O   0  0  0  0  0  0  0  0  0  0  0  0
  184.5470  176.6740  138.4250 C   0  0  2  0  0  3  0  0  0  0  0  0
  182.6600  178.7940  143.3360 C   0  0  0  0  0  2  0  0  0  0  0  0
  185.0360  178.3440  144.7500 C   0  0  0  0  0  3  0  0  0  0  0  0
  185.1010  178.4020  143.3530 C   0  0  0  0  0  0  0  0  0  0  0  0
  186.2190  177.8780  142.6860 C   0  0  0  0  0  3  0  0  0  0  0  0
  188.3960  176.7730  142.7370 N   0  0  0  0  0  1  0  0  0  0  0  0
  187.1950  177.2470  144.8110 C   0  0  0  0  0  3  0  0  0  0  0  0
  187.2630  177.3020  143.4160 C   0  0  0  0  0  0  0  0  0  0  0  0
  186.0810  177.7660  145.4780 C   0  0  0  0  0  3  0  0  0  0  0  0
  183.5300  177.2240  134.5940 C   0  0  0  0  0  1  0  0  0  0  0  0
  185.0210  176.9710  134.7210 C   0  0  0  0  0  2  0  0  0  0  0  0
  1 27  1  0  0  0  0
  2 17  1  0  0  0  0
  2 22  1  0  0  0  0
  3 20  1  0  0  0  0
  4 12  1  0  0  0  0
  4  1  1  0  0  0  0
  5 10  2  0  0  0  0
  6  9  2  0  0  0  0
  6 11  1  0  0  0  0
  7  3  2  0  0  0  0
  7 10  1  0  0  0  0
  9  3  1  0  0  0  0
 10 23  1  0  0  0  0
 11 16  1  0  0  0  0
 12  8  1  0  0  0  0
 13 21  2  0  0  0  0
 13  9  1  0  0  0  0
 14  2  1  0  0  0  0
 15 28  1  0  0  0  0
 16 20  2  0  0  0  0
 17 13  1  0  0  0  0
 18  8  1  6  0  0  0
 18 19  1  0  0  0  0
 18 25  1  0  0  0  0
 19 25  1  0  0  0  0
 19  5  1  1  0  0  0
 20 15  1  0  0  0  0
 21  7  1  0  0  0  0
 22  6  1  0  0  0  0
 23 28  1  0  0  0  0
 23 30  1  1  0  0  0
 24  2  1  0  0  0  0
 26  8  2  0  0  0  0
 27 25  1  0  0  0  0
 27 21  1  0  0  0  0
 29 35  1  0  0  0  0
 30 29  2  0  0  0  0
 31 30  1  0  0  0  0
 31 34  2  0  0  0  0
 32 34  1  0  0  0  0
 33 35  2  0  0  0  0
 34 33  1  0  0  0  0
 36 37  1  0  0  0  0
 37  4  1  0  0  0  0
M  END
>  <MODEL>
7

>  <REMARK>
 VINA RESULT:      -7.6      3.125      8.710
  Name = 
  2 active torsions:
  status: ('A' for Active; 'I' for Inactive)
    1  A    between atoms: N_4  and  C_37
    2  A    between atoms: C_23  and  C_30
                            x       y       z     vdW  Elec       q    Type
                         _______ _______ _______ _____ _____    ______ ____

>  <TORSDO>
F 2

$$$$
