=
 OpenBabel11122410353D

 32 38  0  0  1  0  0  0  0  0999 V2000
  187.9820  178.3980  136.9960 C   0  0  1  0  0  3  0  0  0  0  0  0
  187.7140  177.8740  142.2320 C   0  0  0  0  0  0  0  0  0  0  0  0
  183.0910  178.9770  143.1700 C   0  0  0  0  0  3  0  0  0  0  0  0
  183.3410  178.9140  144.5380 C   0  0  0  0  0  3  0  0  0  0  0  0
  189.2970  177.4580  144.1380 C   0  0  0  0  0  0  0  0  0  0  0  0
  189.4510  177.4150  145.5170 C   0  0  0  0  0  0  0  0  0  0  0  0
  188.3650  177.4480  139.8270 C   0  0  1  0  0  3  0  0  0  0  0  0
  186.0840  178.1610  140.3690 C   0  0  0  0  0  2  0  0  0  0  0  0
  188.9110  177.5330  147.6160 C   0  0  0  0  0  0  0  0  0  0  0  0
  186.8200  178.4190  137.9880 C   0  0  2  0  0  3  0  0  0  0  0  0
  184.1210  178.7330  142.2600 C   0  0  0  0  0  3  0  0  0  0  0  0
  186.4350  178.1840  141.8030 N   0  0  0  0  0  0  0  0  0  0  0  0
  185.4240  178.4200  142.7020 C   0  0  0  0  0  0  0  0  0  0  0  0
  186.9460  178.0390  144.5570 C   0  0  0  0  0  0  0  0  0  0  0  0
  190.2210  177.2050  147.5220 N   0  0  0  0  0  0  0  0  0  0  0  0
  189.3740  178.4030  137.6650 C   0  0  0  0  0  2  0  0  0  0  0  0
  187.2680  178.4420  139.4650 C   0  0  2  0  0  3  0  0  0  0  0  0
  190.5560  177.1310  146.2340 N   0  0  0  0  0  0  0  0  0  0  0  0
  189.5480  177.4510  138.8550 C   0  0  0  0  0  2  0  0  0  0  0  0
  187.1720  177.1330  137.2450 C   0  0  1  0  0  3  0  0  0  0  0  0
  184.6220  178.6050  144.9960 C   0  0  0  0  0  3  0  0  0  0  0  0
  185.6670  178.3570  144.0920 C   0  0  0  0  0  0  0  0  0  0  0  0
  187.1770  177.9730  145.9070 N   0  0  0  0  0  0  0  0  0  0  0  0
  188.8430  177.7590  141.2290 C   0  0  0  0  0  2  0  0  0  0  0  0
  190.3900  177.1730  143.3280 O   0  0  0  0  0  1  0  0  0  0  0  0
  188.1690  177.7060  148.8930 C   0  0  0  0  0  1  0  0  0  0  0  0
  188.0020  177.7870  143.6220 C   0  0  0  0  0  0  0  0  0  0  0  0
  188.4160  177.6670  146.3470 C   0  0  0  0  0  0  0  0  0  0  0  0
  186.2340  176.9390  136.1530 N   0  0  0  0  0  2  0  0  0  0  0  0
  185.6220  175.6340  136.3400 C   0  0  0  0  0  3  0  0  0  0  0  0
  184.3600  175.7740  137.1680 C   0  0  0  0  0  1  0  0  0  0  0  0
  186.5940  174.7220  137.0580 C   0  0  0  0  0  1  0  0  0  0  0  0
  1 20  1  0  0  0  0
  1 16  1  1  0  0  0
  1 10  1  0  0  0  0
  2 27  2  0  0  0  0
  3  4  1  0  0  0  0
  4 21  2  0  0  0  0
  5  6  2  0  0  0  0
  6 18  1  0  0  0  0
  6 28  1  0  0  0  0
  7 19  1  6  0  0  0
  7 24  1  0  0  0  0
  8 12  1  0  0  0  0
  9 26  1  0  0  0  0
 10 17  1  0  0  0  0
 11 13  1  0  0  0  0
 11  3  2  0  0  0  0
 12  2  1  0  0  0  0
 12 13  1  0  0  0  0
 13 22  2  0  0  0  0
 14 23  2  0  0  0  0
 15  9  1  0  0  0  0
 16 19  1  0  0  0  0
 17  7  1  0  0  0  0
 17  8  1  0  0  0  0
 18 15  2  0  0  0  0
 20 10  1  0  0  0  0
 22 14  1  0  0  0  0
 22 21  1  0  0  0  0
 23 28  1  0  0  0  0
 24  2  1  0  0  0  0
 25  5  1  0  0  0  0
 27  5  1  0  0  0  0
 27 14  1  0  0  0  0
 28  9  2  0  0  0  0
 29 30  1  0  0  0  0
 29 20  1  0  0  0  0
 30 32  1  0  0  0  0
 30 31  1  0  0  0  0
M  END
>  <MODEL>
1

>  <REMARK>
 VINA RESULT:     -10.1      0.000      0.000
  Name = 
  2 active torsions:
  status: ('A' for Active; 'I' for Inactive)
    1  A    between atoms: C_20  and  N_29
    2  A    between atoms: N_29  and  C_30
                            x       y       z     vdW  Elec       q    Type
                         _______ _______ _______ _____ _____    ______ ____

>  <TORSDO>
F 2

$$$$
=
 OpenBabel11122410353D

 32 38  0  0  1  0  0  0  0  0999 V2000
  181.9180  178.7950  139.9550 C   0  0  1  0  0  3  0  0  0  0  0  0
  186.2380  178.1590  142.9030 C   0  0  0  0  0  0  0  0  0  0  0  0
  189.7370  177.7520  139.5790 C   0  0  0  0  0  3  0  0  0  0  0  0
  190.6650  177.4560  140.5740 C   0  0  0  0  0  3  0  0  0  0  0  0
  186.7940  177.8310  145.3310 C   0  0  0  0  0  0  0  0  0  0  0  0
  187.7880  177.5300  146.2530 C   0  0  0  0  0  0  0  0  0  0  0  0
  183.9740  178.9910  142.1450 C   0  0  1  0  0  3  0  0  0  0  0  0
  185.7520  178.6110  140.5010 C   0  0  0  0  0  2  0  0  0  0  0  0
  189.7630  177.0420  147.0100 C   0  0  0  0  0  0  0  0  0  0  0  0
  183.4100  178.7660  139.6260 C   0  0  2  0  0  3  0  0  0  0  0  0
  188.4060  178.0000  139.9170 C   0  0  0  0  0  3  0  0  0  0  0  0
  186.6640  178.1980  141.5870 N   0  0  0  0  0  0  0  0  0  0  0  0
  187.9750  177.9570  141.2600 C   0  0  0  0  0  0  0  0  0  0  0  0
  188.5270  177.6170  143.6010 C   0  0  0  0  0  0  0  0  0  0  0  0
  188.9070  177.1330  148.0550 N   0  0  0  0  0  0  0  0  0  0  0  0
  181.5900  178.3800  141.4050 C   0  0  0  0  0  2  0  0  0  0  0  0
  184.2960  178.3270  140.8110 C   0  0  2  0  0  3  0  0  0  0  0  0
  187.6930  177.4330  147.5940 N   0  0  0  0  0  0  0  0  0  0  0  0
  182.4840  178.9880  142.4940 C   0  0  0  0  0  2  0  0  0  0  0  0
  182.6960  180.0990  139.8370 C   0  0  1  0  0  3  0  0  0  0  0  0
  190.2610  177.4090  141.9080 C   0  0  0  0  0  3  0  0  0  0  0  0
  188.9240  177.6560  142.2620 C   0  0  0  0  0  0  0  0  0  0  0  0
  189.4520  177.3310  144.5730 N   0  0  0  0  0  0  0  0  0  0  0  0
  184.7630  178.2870  143.2270 C   0  0  0  0  0  2  0  0  0  0  0  0
  185.5050  178.0830  145.7870 O   0  0  0  0  0  1  0  0  0  0  0  0
  191.2110  176.7250  147.1230 C   0  0  0  0  0  1  0  0  0  0  0  0
  187.1610  177.8740  143.9470 C   0  0  0  0  0  0  0  0  0  0  0  0
  189.0590  177.2930  145.8630 C   0  0  0  0  0  0  0  0  0  0  0  0
  182.4250  180.7070  138.5460 N   0  0  0  0  0  2  0  0  0  0  0  0
  180.9980  180.5790  138.3030 C   0  0  0  0  0  3  0  0  0  0  0  0
  180.7500  180.3400  136.8270 C   0  0  0  0  0  1  0  0  0  0  0  0
  180.3000  181.8540  138.7280 C   0  0  0  0  0  1  0  0  0  0  0  0
  1 16  1  1  0  0  0
  2 24  1  0  0  0  0
  2 27  2  0  0  0  0
  3 11  2  0  0  0  0
  3  4  1  0  0  0  0
  4 21  2  0  0  0  0
  5 25  1  0  0  0  0
  5  6  2  0  0  0  0
  6 18  1  0  0  0  0
  7 19  1  1  0  0  0
  7 24  1  0  0  0  0
  8 17  1  0  0  0  0
  8 12  1  0  0  0  0
  9 26  1  0  0  0  0
  9 15  1  0  0  0  0
 10 20  1  0  0  0  0
 10  1  1  0  0  0  0
 10 17  1  0  0  0  0
 11 13  1  0  0  0  0
 12  2  1  0  0  0  0
 13 12  1  0  0  0  0
 13 22  2  0  0  0  0
 14 27  1  0  0  0  0
 14 23  2  0  0  0  0
 16 19  1  0  0  0  0
 17  7  1  0  0  0  0
 18 15  2  0  0  0  0
 20  1  1  0  0  0  0
 21 22  1  0  0  0  0
 22 14  1  0  0  0  0
 23 28  1  0  0  0  0
 27  5  1  0  0  0  0
 28  6  1  0  0  0  0
 28  9  2  0  0  0  0
 29 20  1  0  0  0  0
 30 29  1  0  0  0  0
 30 32  1  0  0  0  0
 31 30  1  0  0  0  0
M  END
>  <MODEL>
2

>  <REMARK>
 VINA RESULT:      -9.5      2.675      5.033
  Name = 
  2 active torsions:
  status: ('A' for Active; 'I' for Inactive)
    1  A    between atoms: C_20  and  N_29
    2  A    between atoms: N_29  and  C_30
                            x       y       z     vdW  Elec       q    Type
                         _______ _______ _______ _____ _____    ______ ____

>  <TORSDO>
F 2

$$$$
=
 OpenBabel11122410353D

 32 38  0  0  1  0  0  0  0  0999 V2000
  189.3270  177.7170  147.9570 C   0  0  1  0  0  3  0  0  0  0  0  0
  186.4900  178.1220  143.5360 C   0  0  0  0  0  0  0  0  0  0  0  0
  189.8590  177.7300  140.0780 C   0  0  0  0  0  3  0  0  0  0  0  0
  188.9070  178.0130  139.1020 C   0  0  0  0  0  3  0  0  0  0  0  0
  184.1160  178.6370  142.8970 C   0  0  0  0  0  0  0  0  0  0  0  0
  183.2370  178.9080  141.8560 C   0  0  0  0  0  0  0  0  0  0  0  0
  187.1410  177.5030  145.8990 C   0  0  1  0  0  3  0  0  0  0  0  0
  188.8260  177.4790  144.1200 C   0  0  0  0  0  2  0  0  0  0  0  0
  182.5500  179.2250  139.8220 C   0  0  0  0  0  0  0  0  0  0  0  0
  189.6660  177.5240  146.4800 C   0  0  2  0  0  3  0  0  0  0  0  0
  189.4880  177.6880  141.4220 C   0  0  0  0  0  3  0  0  0  0  0  0
  187.7970  177.8890  143.1430 N   0  0  0  0  0  0  0  0  0  0  0  0
  188.1550  177.9280  141.8190 C   0  0  0  0  0  0  0  0  0  0  0  0
  185.8680  178.4460  141.1840 C   0  0  0  0  0  0  0  0  0  0  0  0
  181.4960  179.3540  140.6620 N   0  0  0  0  0  0  0  0  0  0  0  0
  187.9290  178.3230  148.2030 C   0  0  0  0  0  2  0  0  0  0  0  0
  188.5410  177.9740  145.5240 C   0  0  2  0  0  3  0  0  0  0  0  0
  181.9150  179.1600  141.9120 N   0  0  0  0  0  0  0  0  0  0  0  0
  186.7850  177.7290  147.3710 C   0  0  0  0  0  2  0  0  0  0  0  0
  189.3060  176.3210  147.3480 C   0  0  1  0  0  3  0  0  0  0  0  0
  187.5840  178.2530  139.4710 C   0  0  0  0  0  3  0  0  0  0  0  0
  187.1970  178.2140  140.8210 C   0  0  0  0  0  0  0  0  0  0  0  0
  184.9390  178.7170  140.2130 N   0  0  0  0  0  0  0  0  0  0  0  0
  186.1460  178.2150  145.0080 C   0  0  0  0  0  2  0  0  0  0  0  0
  183.6280  178.5980  144.1980 O   0  0  0  0  0  1  0  0  0  0  0  0
  182.4790  179.3690  138.3430 C   0  0  0  0  0  1  0  0  0  0  0  0
  185.4880  178.4000  142.5650 C   0  0  0  0  0  0  0  0  0  0  0  0
  183.6580  178.9420  140.5730 C   0  0  0  0  0  0  0  0  0  0  0  0
  190.5230  175.6170  147.7170 N   0  0  0  0  0  2  0  0  0  0  0  0
  191.6390  176.3910  147.2010 C   0  0  0  0  0  3  0  0  0  0  0  0
  192.0550  175.8480  145.8480 C   0  0  0  0  0  1  0  0  0  0  0  0
  192.8060  176.2920  148.1610 C   0  0  0  0  0  1  0  0  0  0  0  0
  1 16  1  6  0  0  0
  2 24  1  0  0  0  0
  3 11  1  0  0  0  0
  4 21  1  0  0  0  0
  4  3  2  0  0  0  0
  5 25  1  0  0  0  0
  6 18  1  0  0  0  0
  6  5  2  0  0  0  0
  7 24  1  6  0  0  0
  7 19  1  0  0  0  0
  8 17  1  0  0  0  0
  9 28  2  0  0  0  0
  9 15  1  0  0  0  0
 10 20  1  0  0  0  0
 10  1  1  0  0  0  0
 11 13  2  0  0  0  0
 12  2  1  0  0  0  0
 12  8  1  0  0  0  0
 13 12  1  0  0  0  0
 14 27  1  0  0  0  0
 15 18  2  0  0  0  0
 17  7  1  0  0  0  0
 17 10  1  0  0  0  0
 19 16  1  0  0  0  0
 20 29  1  0  0  0  0
 20  1  1  0  0  0  0
 21 22  2  0  0  0  0
 22 14  1  0  0  0  0
 22 13  1  0  0  0  0
 23 28  1  0  0  0  0
 23 14  2  0  0  0  0
 26  9  1  0  0  0  0
 27  5  1  0  0  0  0
 27  2  2  0  0  0  0
 28  6  1  0  0  0  0
 30 29  1  0  0  0  0
 30 32  1  0  0  0  0
 31 30  1  0  0  0  0
M  END
>  <MODEL>
3

>  <REMARK>
 VINA RESULT:      -9.4      2.453      8.241
  Name = 
  2 active torsions:
  status: ('A' for Active; 'I' for Inactive)
    1  A    between atoms: C_20  and  N_29
    2  A    between atoms: N_29  and  C_30
                            x       y       z     vdW  Elec       q    Type
                         _______ _______ _______ _____ _____    ______ ____

>  <TORSDO>
F 2

$$$$
=
 OpenBabel11122410353D

 32 38  0  0  1  0  0  0  0  0999 V2000
  179.6020  178.6350  142.2960 C   0  0  1  0  0  3  0  0  0  0  0  0
  184.7670  178.4120  143.3120 C   0  0  0  0  0  0  0  0  0  0  0  0
  186.7210  178.4780  138.8800 C   0  0  0  0  0  3  0  0  0  0  0  0
  187.9860  178.2630  139.4210 C   0  0  0  0  0  3  0  0  0  0  0  0
  186.2520  178.0880  145.3130 C   0  0  0  0  0  0  0  0  0  0  0  0
  187.5490  177.8770  145.7610 C   0  0  0  0  0  0  0  0  0  0  0  0
  182.3200  179.0050  143.5370 C   0  0  1  0  0  3  0  0  0  0  0  0
  183.3470  178.8660  141.3160 C   0  0  0  0  0  2  0  0  0  0  0  0
  189.6990  177.5930  145.6670 C   0  0  0  0  0  0  0  0  0  0  0  0
  180.8450  178.7810  141.4190 C   0  0  2  0  0  3  0  0  0  0  0  0
  185.6090  178.5680  139.7190 C   0  0  0  0  0  3  0  0  0  0  0  0
  184.6430  178.5300  141.9380 N   0  0  0  0  0  0  0  0  0  0  0  0
  185.7400  178.4450  141.1180 C   0  0  0  0  0  0  0  0  0  0  0  0
  187.1870  178.1110  143.0400 C   0  0  0  0  0  0  0  0  0  0  0  0
  189.3120  177.5620  146.9650 N   0  0  0  0  0  0  0  0  0  0  0  0
  179.9040  178.1510  143.7300 C   0  0  0  0  0  2  0  0  0  0  0  0
  182.1580  178.4140  142.1410 C   0  0  2  0  0  3  0  0  0  0  0  0
  187.9920  177.7370  147.0250 N   0  0  0  0  0  0  0  0  0  0  0  0
  181.0900  178.8280  144.4300 C   0  0  0  0  0  2  0  0  0  0  0  0
  180.1490  180.0210  141.9750 C   0  0  1  0  0  3  0  0  0  0  0  0
  188.1380  178.1390  140.8020 C   0  0  0  0  0  3  0  0  0  0  0  0
  187.0280  178.2270  141.6570 C   0  0  0  0  0  0  0  0  0  0  0  0
  188.4390  177.9050  143.5610 N   0  0  0  0  0  0  0  0  0  0  0  0
  183.5300  178.3670  144.1850 C   0  0  0  0  0  2  0  0  0  0  0  0
  185.2240  178.1840  146.2440 O   0  0  0  0  0  1  0  0  0  0  0  0
  191.1000  177.4360  145.1950 C   0  0  0  0  0  1  0  0  0  0  0  0
  186.0450  178.2050  143.9010 C   0  0  0  0  0  0  0  0  0  0  0  0
  188.5850  177.7920  144.8980 C   0  0  0  0  0  0  0  0  0  0  0  0
  179.3420  180.6260  140.9290 N   0  0  0  0  0  2  0  0  0  0  0  0
  180.1190  180.5720  139.7030 C   0  0  0  0  0  3  0  0  0  0  0  0
  180.1500  181.9430  139.0560 C   0  0  0  0  0  1  0  0  0  0  0  0
  179.4850  179.5830  138.7480 C   0  0  0  0  0  1  0  0  0  0  0  0
  1 16  1  1  0  0  0
  2 27  2  0  0  0  0
  2 24  1  0  0  0  0
  3  4  2  0  0  0  0
  3 11  1  0  0  0  0
  4 21  1  0  0  0  0
  5  6  2  0  0  0  0
  5 25  1  0  0  0  0
  6 18  1  0  0  0  0
  7 24  1  1  0  0  0
  7 19  1  0  0  0  0
  8 12  1  0  0  0  0
  8 17  1  0  0  0  0
  9 15  1  0  0  0  0
 10 20  1  0  0  0  0
 10 17  1  0  0  0  0
 10  1  1  0  0  0  0
 11 13  2  0  0  0  0
 12  2  1  0  0  0  0
 13 22  1  0  0  0  0
 13 12  1  0  0  0  0
 14 23  2  0  0  0  0
 14 27  1  0  0  0  0
 15 18  2  0  0  0  0
 16 19  1  0  0  0  0
 17  7  1  0  0  0  0
 20  1  1  0  0  0  0
 21 22  2  0  0  0  0
 22 14  1  0  0  0  0
 23 28  1  0  0  0  0
 26  9  1  0  0  0  0
 27  5  1  0  0  0  0
 28  9  2  0  0  0  0
 28  6  1  0  0  0  0
 29 20  1  0  0  0  0
 30 29  1  0  0  0  0
 31 30  1  0  0  0  0
 32 30  1  0  0  0  0
M  END
>  <MODEL>
4

>  <REMARK>
 VINA RESULT:      -8.6      2.872      5.918
  Name = 
  2 active torsions:
  status: ('A' for Active; 'I' for Inactive)
    1  A    between atoms: C_20  and  N_29
    2  A    between atoms: N_29  and  C_30
                            x       y       z     vdW  Elec       q    Type
                         _______ _______ _______ _____ _____    ______ ____

>  <TORSDO>
F 2

$$$$
=
 OpenBabel11122410353D

 32 38  0  0  1  0  0  0  0  0999 V2000
  191.8090  175.8870  137.1120 C   0  0  1  0  0  3  0  0  0  0  0  0
  188.8920  177.4560  141.2100 C   0  0  0  0  0  0  0  0  0  0  0  0
  191.6800  176.3000  144.9980 C   0  0  0  0  0  3  0  0  0  0  0  0
  190.6580  176.6570  145.8740 C   0  0  0  0  0  3  0  0  0  0  0  0
  186.5760  178.3470  141.6050 C   0  0  0  0  0  0  0  0  0  0  0  0
  185.6180  178.6800  142.5530 C   0  0  0  0  0  0  0  0  0  0  0  0
  189.9430  177.4180  138.9100 C   0  0  1  0  0  3  0  0  0  0  0  0
  191.2400  176.6990  140.8610 C   0  0  0  0  0  2  0  0  0  0  0  0
  184.7240  178.9630  144.5100 C   0  0  0  0  0  0  0  0  0  0  0  0
  192.0910  176.0020  138.6100 C   0  0  2  0  0  3  0  0  0  0  0  0
  191.4890  176.4120  143.6200 C   0  0  0  0  0  3  0  0  0  0  0  0
  190.0860  176.9910  141.7340 N   0  0  0  0  0  0  0  0  0  0  0  0
  190.2700  176.8860  143.0900 C   0  0  0  0  0  0  0  0  0  0  0  0
  188.0270  177.7260  143.4900 C   0  0  0  0  0  0  0  0  0  0  0  0
  183.8310  179.3410  143.5650 N   0  0  0  0  0  0  0  0  0  0  0  0
  190.3270  176.1010  136.7380 C   0  0  0  0  0  2  0  0  0  0  0  0
  190.8350  176.3090  139.4530 C   0  0  2  0  0  3  0  0  0  0  0  0
  184.3770  179.1690  142.3620 N   0  0  0  0  0  0  0  0  0  0  0  0
  189.6290  177.2860  137.4180 C   0  0  0  0  0  2  0  0  0  0  0  0
  192.5010  177.1280  137.6640 C   0  0  1  0  0  3  0  0  0  0  0  0
  189.4460  177.1280  145.3720 C   0  0  0  0  0  3  0  0  0  0  0  0
  189.2400  177.2460  143.9870 C   0  0  0  0  0  0  0  0  0  0  0  0
  187.0300  178.0810  144.3630 N   0  0  0  0  0  0  0  0  0  0  0  0
  188.6590  177.4300  139.7130 C   0  0  0  0  0  2  0  0  0  0  0  0
  186.2820  178.5230  140.2580 O   0  0  0  0  0  1  0  0  0  0  0  0
  184.4800  179.0110  145.9760 C   0  0  0  0  0  1  0  0  0  0  0  0
  187.8320  177.8430  142.0750 C   0  0  0  0  0  0  0  0  0  0  0  0
  185.8600  178.5430  143.8740 C   0  0  0  0  0  0  0  0  0  0  0  0
  193.9280  177.0380  137.4040 N   0  0  0  0  0  2  0  0  0  0  0  0
  194.1100  176.0640  136.3420 C   0  0  0  0  0  3  0  0  0  0  0  0
  195.0680  174.9810  136.8000 C   0  0  0  0  0  1  0  0  0  0  0  0
  194.6810  176.7530  135.1200 C   0  0  0  0  0  1  0  0  0  0  0  0
  1 16  1  1  0  0  0
  1 20  1  0  0  0  0
  1 10  1  0  0  0  0
  2 12  1  0  0  0  0
  2 27  2  0  0  0  0
  3  4  1  0  0  0  0
  5 27  1  0  0  0  0
  5  6  2  0  0  0  0
  6 28  1  0  0  0  0
  7 19  1  6  0  0  0
  7 17  1  0  0  0  0
  7 24  1  0  0  0  0
  8 12  1  0  0  0  0
  9 26  1  0  0  0  0
 10 17  1  0  0  0  0
 11  3  2  0  0  0  0
 12 13  1  0  0  0  0
 13 11  1  0  0  0  0
 13 22  2  0  0  0  0
 14 22  1  0  0  0  0
 14 23  2  0  0  0  0
 15  9  1  0  0  0  0
 16 19  1  0  0  0  0
 17  8  1  0  0  0  0
 18  6  1  0  0  0  0
 18 15  2  0  0  0  0
 20 10  1  0  0  0  0
 21  4  2  0  0  0  0
 22 21  1  0  0  0  0
 24  2  1  0  0  0  0
 25  5  1  0  0  0  0
 27 14  1  0  0  0  0
 28 23  1  0  0  0  0
 28  9  2  0  0  0  0
 29 20  1  0  0  0  0
 30 31  1  0  0  0  0
 30 29  1  0  0  0  0
 32 30  1  0  0  0  0
M  END
>  <MODEL>
5

>  <REMARK>
 VINA RESULT:      -8.3      3.059      5.633
  Name = 
  2 active torsions:
  status: ('A' for Active; 'I' for Inactive)
    1  A    between atoms: C_20  and  N_29
    2  A    between atoms: N_29  and  C_30
                            x       y       z     vdW  Elec       q    Type
                         _______ _______ _______ _____ _____    ______ ____

>  <TORSDO>
F 2

$$$$
=
 OpenBabel11122410353D

 32 38  0  0  1  0  0  0  0  0999 V2000
  192.2450  175.4440  136.5250 C   0  0  1  0  0  3  0  0  0  0  0  0
  188.9780  177.3790  140.1780 C   0  0  0  0  0  0  0  0  0  0  0  0
  191.4620  176.7060  144.2820 C   0  0  0  0  0  3  0  0  0  0  0  0
  190.3660  177.1320  145.0290 C   0  0  0  0  0  3  0  0  0  0  0  0
  186.6240  178.2520  140.2860 C   0  0  0  0  0  0  0  0  0  0  0  0
  185.5860  178.6630  141.1120 C   0  0  0  0  0  0  0  0  0  0  0  0
  190.2140  177.1170  137.9880 C   0  0  1  0  0  3  0  0  0  0  0  0
  191.3580  176.6440  140.1040 C   0  0  0  0  0  2  0  0  0  0  0  0
  184.5310  179.1350  142.9480 C   0  0  0  0  0  0  0  0  0  0  0  0
  192.4010  175.7280  138.0190 C   0  0  2  0  0  3  0  0  0  0  0  0
  191.3830  176.6640  142.8890 C   0  0  0  0  0  3  0  0  0  0  0  0
  190.1310  177.0010  140.8440 N   0  0  0  0  0  0  0  0  0  0  0  0
  190.2040  177.0480  142.2140 C   0  0  0  0  0  0  0  0  0  0  0  0
  187.9240  177.8740  142.3380 C   0  0  0  0  0  0  0  0  0  0  0  0
  183.7120  179.3870  141.8990 N   0  0  0  0  0  0  0  0  0  0  0  0
  190.7960  175.5810  136.0120 C   0  0  0  0  0  2  0  0  0  0  0  0
  191.0760  176.0940  138.7200 C   0  0  2  0  0  3  0  0  0  0  0  0
  184.3590  179.0990  140.7690 N   0  0  0  0  0  0  0  0  0  0  0  0
  190.0260  176.8160  136.4990 C   0  0  0  0  0  2  0  0  0  0  0  0
  192.8710  176.7530  136.9900 C   0  0  1  0  0  3  0  0  0  0  0  0
  189.1920  177.5170  144.3820 C   0  0  0  0  0  3  0  0  0  0  0  0
  189.0990  177.4790  142.9810 C   0  0  0  0  0  0  0  0  0  0  0  0
  186.8540  178.2970  143.0840 N   0  0  0  0  0  0  0  0  0  0  0  0
  188.8690  177.1850  138.6800 C   0  0  0  0  0  2  0  0  0  0  0  0
  186.4400  178.2740  138.9080 O   0  0  0  0  0  1  0  0  0  0  0  0
  184.1660  179.3370  144.3760 C   0  0  0  0  0  1  0  0  0  0  0  0
  187.8440  177.8320  140.9080 C   0  0  0  0  0  0  0  0  0  0  0  0
  185.7210  178.6750  142.4550 C   0  0  0  0  0  0  0  0  0  0  0  0
  194.3150  176.6700  136.8580 N   0  0  0  0  0  2  0  0  0  0  0  0
  194.5930  176.0620  135.5670 C   0  0  0  0  0  3  0  0  0  0  0  0
  195.6900  175.0270  135.7150 C   0  0  0  0  0  1  0  0  0  0  0  0
  195.0410  177.1320  134.5940 C   0  0  0  0  0  1  0  0  0  0  0  0
  1 16  1  1  0  0  0
  1 20  1  0  0  0  0
  1 10  1  0  0  0  0
  2 12  1  0  0  0  0
  2 27  2  0  0  0  0
  3  4  1  0  0  0  0
  5 27  1  0  0  0  0
  5  6  2  0  0  0  0
  6 28  1  0  0  0  0
  7 19  1  6  0  0  0
  7 24  1  0  0  0  0
  7 17  1  0  0  0  0
  8 12  1  0  0  0  0
  9 26  1  0  0  0  0
 10 17  1  0  0  0  0
 11  3  2  0  0  0  0
 12 13  1  0  0  0  0
 13 11  1  0  0  0  0
 13 22  2  0  0  0  0
 14 22  1  0  0  0  0
 14 23  2  0  0  0  0
 15  9  1  0  0  0  0
 16 19  1  0  0  0  0
 17  8  1  0  0  0  0
 18  6  1  0  0  0  0
 18 15  2  0  0  0  0
 20 10  1  0  0  0  0
 21  4  2  0  0  0  0
 22 21  1  0  0  0  0
 24  2  1  0  0  0  0
 25  5  1  0  0  0  0
 27 14  1  0  0  0  0
 28  9  2  0  0  0  0
 28 23  1  0  0  0  0
 29 20  1  0  0  0  0
 30 31  1  0  0  0  0
 30 29  1  0  0  0  0
 32 30  1  0  0  0  0
M  END
>  <MODEL>
6

>  <REMARK>
 VINA RESULT:      -8.2      3.371      6.088
  Name = 
  2 active torsions:
  status: ('A' for Active; 'I' for Inactive)
    1  A    between atoms: C_20  and  N_29
    2  A    between atoms: N_29  and  C_30
                            x       y       z     vdW  Elec       q    Type
                         _______ _______ _______ _____ _____    ______ ____

>  <TORSDO>
F 2

$$$$
=
 OpenBabel11122410353D

 32 38  0  0  1  0  0  0  0  0999 V2000
  191.3760  175.9380  144.3700 C   0  0  1  0  0  3  0  0  0  0  0  0
  186.9750  178.0230  142.3580 C   0  0  0  0  0  0  0  0  0  0  0  0
  184.1730  178.5600  146.2720 C   0  0  0  0  0  3  0  0  0  0  0  0
  183.1050  178.9490  145.4680 C   0  0  0  0  0  3  0  0  0  0  0  0
  186.0330  178.5260  140.0840 C   0  0  0  0  0  0  0  0  0  0  0  0
  184.9150  178.9260  139.3650 C   0  0  0  0  0  0  0  0  0  0  0  0
  189.4290  177.5300  142.7160 C   0  0  1  0  0  3  0  0  0  0  0  0
  187.9150  177.6640  144.6380 C   0  0  0  0  0  2  0  0  0  0  0  0
  182.8800  179.5810  138.9920 C   0  0  0  0  0  0  0  0  0  0  0  0
  190.1170  176.5290  145.0040 C   0  0  2  0  0  3  0  0  0  0  0  0
  185.4000  178.2340  145.6920 C   0  0  0  0  0  3  0  0  0  0  0  0
  186.7910  177.9660  143.7280 N   0  0  0  0  0  0  0  0  0  0  0  0
  185.5830  178.2920  144.2940 C   0  0  0  0  0  0  0  0  0  0  0  0
  184.6500  178.7630  142.1020 C   0  0  0  0  0  0  0  0  0  0  0  0
  183.5320  179.4920  137.8080 N   0  0  0  0  0  0  0  0  0  0  0  0
  191.2740  175.7460  142.8420 C   0  0  0  0  0  2  0  0  0  0  0  0
  188.9910  176.8170  143.9890 C   0  0  2  0  0  3  0  0  0  0  0  0
  184.7830  179.0910  138.0340 N   0  0  0  0  0  0  0  0  0  0  0  0
  190.6690  176.9180  142.0590 C   0  0  0  0  0  2  0  0  0  0  0  0
  191.3630  177.3930  144.8210 C   0  0  1  0  0  3  0  0  0  0  0  0
  183.2640  179.0140  144.0850 C   0  0  0  0  0  3  0  0  0  0  0  0
  184.4940  178.6880  143.4880 C   0  0  0  0  0  0  0  0  0  0  0  0
  183.5920  179.1550  141.3220 N   0  0  0  0  0  0  0  0  0  0  0  0
  188.2680  177.5250  141.7450 C   0  0  0  0  0  2  0  0  0  0  0  0
  187.2110  178.2490  139.4000 O   0  0  0  0  0  1  0  0  0  0  0  0
  181.4610  179.9990  139.1500 C   0  0  0  0  0  1  0  0  0  0  0  0
  185.9110  178.4300  141.5080 C   0  0  0  0  0  0  0  0  0  0  0  0
  183.7520  179.2230  139.9830 C   0  0  0  0  0  0  0  0  0  0  0  0
  192.0560  177.5090  146.0930 N   0  0  0  0  0  2  0  0  0  0  0  0
  191.3610  176.6520  147.0390 C   0  0  0  0  0  3  0  0  0  0  0  0
  190.6430  177.5030  148.0680 C   0  0  0  0  0  1  0  0  0  0  0  0
  192.3650  175.7600  147.7380 C   0  0  0  0  0  1  0  0  0  0  0  0
  1 16  1  6  0  0  0
  1 20  1  0  0  0  0
  1 10  1  0  0  0  0
  2 12  1  0  0  0  0
  4  3  2  0  0  0  0
  5 27  1  0  0  0  0
  6 28  1  0  0  0  0
  6  5  2  0  0  0  0
  7 24  1  6  0  0  0
  7 17  1  0  0  0  0
  9 26  1  0  0  0  0
  9 28  2  0  0  0  0
 11  3  1  0  0  0  0
 12 13  1  0  0  0  0
 12  8  1  0  0  0  0
 13 11  2  0  0  0  0
 14 22  1  0  0  0  0
 15 18  2  0  0  0  0
 15  9  1  0  0  0  0
 17  8  1  0  0  0  0
 17 10  1  0  0  0  0
 18  6  1  0  0  0  0
 19  7  1  0  0  0  0
 19 16  1  0  0  0  0
 20 10  1  0  0  0  0
 20 29  1  0  0  0  0
 21  4  1  0  0  0  0
 22 21  2  0  0  0  0
 22 13  1  0  0  0  0
 23 14  2  0  0  0  0
 24  2  1  0  0  0  0
 25  5  1  0  0  0  0
 27 14  1  0  0  0  0
 27  2  2  0  0  0  0
 28 23  1  0  0  0  0
 29 30  1  0  0  0  0
 30 32  1  0  0  0  0
 30 31  1  0  0  0  0
M  END
>  <MODEL>
7

>  <REMARK>
 VINA RESULT:      -8.1      2.488      7.271
  Name = 
  2 active torsions:
  status: ('A' for Active; 'I' for Inactive)
    1  A    between atoms: C_20  and  N_29
    2  A    between atoms: N_29  and  C_30
                            x       y       z     vdW  Elec       q    Type
                         _______ _______ _______ _____ _____    ______ ____

>  <TORSDO>
F 2

$$$$
=
 OpenBabel11122410353D

 32 38  0  0  1  0  0  0  0  0999 V2000
  191.7410  175.6280  147.1700 C   0  0  1  0  0  3  0  0  0  0  0  0
  188.2520  177.6030  143.7520 C   0  0  0  0  0  0  0  0  0  0  0  0
  184.4610  178.6330  146.5870 C   0  0  0  0  0  3  0  0  0  0  0  0
  183.7000  178.9630  145.4680 C   0  0  0  0  0  3  0  0  0  0  0  0
  188.0480  177.8850  141.2640 C   0  0  0  0  0  0  0  0  0  0  0  0
  187.2150  178.2350  140.2100 C   0  0  0  0  0  0  0  0  0  0  0  0
  190.4600  177.0860  144.8690 C   0  0  1  0  0  3  0  0  0  0  0  0
  188.4590  177.4670  146.2320 C   0  0  0  0  0  2  0  0  0  0  0  0
  185.4190  178.9010  139.1880 C   0  0  0  0  0  0  0  0  0  0  0  0
  190.3890  176.3180  147.3430 C   0  0  2  0  0  3  0  0  0  0  0  0
  185.7830  178.2140  146.4310 C   0  0  0  0  0  3  0  0  0  0  0  0
  187.6710  177.6990  145.0050 N   0  0  0  0  0  0  0  0  0  0  0  0
  186.3710  178.1160  145.1520 C   0  0  0  0  0  0  0  0  0  0  0  0
  186.1510  178.3740  142.7470 C   0  0  0  0  0  0  0  0  0  0  0  0
  186.3840  178.6680  138.2670 N   0  0  0  0  0  0  0  0  0  0  0  0
  192.0810  175.2760  145.7060 C   0  0  0  0  0  2  0  0  0  0  0  0
  189.6280  176.5250  146.0160 C   0  0  2  0  0  3  0  0  0  0  0  0
  187.4880  178.2600  138.8910 N   0  0  0  0  0  0  0  0  0  0  0  0
  191.8000  176.3740  144.6710 C   0  0  0  0  0  2  0  0  0  0  0  0
  191.6800  177.1230  147.4570 C   0  0  1  0  0  3  0  0  0  0  0  0
  184.2610  178.8740  144.1950 C   0  0  0  0  0  3  0  0  0  0  0  0
  185.5900  178.4530  144.0250 C   0  0  0  0  0  0  0  0  0  0  0  0
  185.3920  178.7080  141.6550 N   0  0  0  0  0  0  0  0  0  0  0  0
  189.6370  177.0070  143.6020 C   0  0  0  0  0  2  0  0  0  0  0  0
  189.3570  177.5040  140.9910 O   0  0  0  0  0  1  0  0  0  0  0  0
  184.0440  179.3720  138.8780 C   0  0  0  0  0  1  0  0  0  0  0  0
  187.5090  177.9450  142.5890 C   0  0  0  0  0  0  0  0  0  0  0  0
  185.9400  178.6280  140.4240 C   0  0  0  0  0  0  0  0  0  0  0  0
  191.9760  177.3570  148.8600 N   0  0  0  0  0  2  0  0  0  0  0  0
  193.2830  176.7800  149.1250 C   0  0  0  0  0  3  0  0  0  0  0  0
  193.1340  175.3110  149.4680 C   0  0  0  0  0  1  0  0  0  0  0  0
  193.9250  177.5030  150.2900 C   0  0  0  0  0  1  0  0  0  0  0  0
  1 16  1  6  0  0  0
  1 10  1  0  0  0  0
  1 20  1  0  0  0  0
  2 12  1  0  0  0  0
  4  3  2  0  0  0  0
  5 27  1  0  0  0  0
  6 28  1  0  0  0  0
  6  5  2  0  0  0  0
  7 24  1  6  0  0  0
  7 17  1  0  0  0  0
  9 28  2  0  0  0  0
 10 20  1  0  0  0  0
 11  3  1  0  0  0  0
 12 13  1  0  0  0  0
 12  8  1  0  0  0  0
 13 11  2  0  0  0  0
 14 22  1  0  0  0  0
 15 18  2  0  0  0  0
 15  9  1  0  0  0  0
 17  8  1  0  0  0  0
 17 10  1  0  0  0  0
 18  6  1  0  0  0  0
 19  7  1  0  0  0  0
 19 16  1  0  0  0  0
 20 29  1  0  0  0  0
 21  4  1  0  0  0  0
 22 21  2  0  0  0  0
 22 13  1  0  0  0  0
 23 14  2  0  0  0  0
 24  2  1  0  0  0  0
 25  5  1  0  0  0  0
 26  9  1  0  0  0  0
 27 14  1  0  0  0  0
 27  2  2  0  0  0  0
 28 23  1  0  0  0  0
 29 30  1  0  0  0  0
 30 31  1  0  0  0  0
 30 32  1  0  0  0  0
M  END
>  <MODEL>
8

>  <REMARK>
 VINA RESULT:      -7.9      2.356      7.982
  Name = 
  2 active torsions:
  status: ('A' for Active; 'I' for Inactive)
    1  A    between atoms: C_20  and  N_29
    2  A    between atoms: N_29  and  C_30
                            x       y       z     vdW  Elec       q    Type
                         _______ _______ _______ _____ _____    ______ ____

>  <TORSDO>
F 2

$$$$
=
 OpenBabel11122410353D

 32 38  0  0  1  0  0  0  0  0999 V2000
  189.9140  176.7160  146.6390 C   0  0  1  0  0  3  0  0  0  0  0  0
  188.3300  177.8380  141.7410 C   0  0  0  0  0  0  0  0  0  0  0  0
  183.5860  178.6270  142.3180 C   0  0  0  0  0  3  0  0  0  0  0  0
  183.4240  178.7340  140.9390 C   0  0  0  0  0  3  0  0  0  0  0  0
  189.3100  177.8330  139.4280 C   0  0  0  0  0  0  0  0  0  0  0  0
  189.0530  177.9570  138.0690 C   0  0  0  0  0  0  0  0  0  0  0  0
  189.7760  177.7430  143.8130 C   0  0  1  0  0  3  0  0  0  0  0  0
  187.3460  177.9850  144.0260 C   0  0  0  0  0  2  0  0  0  0  0  0
  187.9140  178.2640  136.2470 C   0  0  0  0  0  0  0  0  0  0  0  0
  188.5960  177.2300  146.0610 C   0  0  2  0  0  3  0  0  0  0  0  0
  184.8500  178.3780  142.8550 C   0  0  0  0  0  3  0  0  0  0  0  0
  187.2200  177.9810  142.5540 N   0  0  0  0  0  0  0  0  0  0  0  0
  185.9790  178.2310  142.0210 C   0  0  0  0  0  0  0  0  0  0  0  0
  186.9070  178.2090  139.7770 C   0  0  0  0  0  0  0  0  0  0  0  0
  189.2140  178.0720  135.9200 N   0  0  0  0  0  0  0  0  0  0  0  0
  190.9310  176.2660  145.5690 C   0  0  0  0  0  2  0  0  0  0  0  0
  188.5420  177.1950  144.5190 C   0  0  2  0  0  3  0  0  0  0  0  0
  189.9160  177.8840  137.0370 N   0  0  0  0  0  0  0  0  0  0  0  0
  191.0970  177.2030  144.3650 C   0  0  0  0  0  2  0  0  0  0  0  0
  189.6170  178.2110  146.6310 C   0  0  1  0  0  3  0  0  0  0  0  0
  184.5270  178.5930  140.0970 C   0  0  0  0  0  3  0  0  0  0  0  0
  185.8040  178.3410  140.6240 C   0  0  0  0  0  0  0  0  0  0  0  0
  186.7350  178.3230  138.4210 N   0  0  0  0  0  0  0  0  0  0  0  0
  189.6590  177.4240  142.3380 C   0  0  0  0  0  2  0  0  0  0  0  0
  190.6160  177.6080  139.8490 O   0  0  0  0  0  1  0  0  0  0  0  0
  186.8200  178.5100  135.2700 C   0  0  0  0  0  1  0  0  0  0  0  0
  188.2040  177.9550  140.3290 C   0  0  0  0  0  0  0  0  0  0  0  0
  187.8050  178.1920  137.6090 C   0  0  0  0  0  0  0  0  0  0  0  0
  189.1940  178.6250  147.9580 N   0  0  0  0  0  2  0  0  0  0  0  0
  187.8440  178.1250  148.1520 C   0  0  0  0  0  3  0  0  0  0  0  0
  186.8420  179.1950  147.7640 C   0  0  0  0  0  1  0  0  0  0  0  0
  187.6480  177.7600  149.6080 C   0  0  0  0  0  1  0  0  0  0  0  0
  1 16  1  6  0  0  0
  2 24  1  0  0  0  0
  2 12  1  0  0  0  0
  3 11  1  0  0  0  0
  4  3  2  0  0  0  0
  5 25  1  0  0  0  0
  5 27  1  0  0  0  0
  6  5  2  0  0  0  0
  7 24  1  6  0  0  0
  7 19  1  0  0  0  0
  7 17  1  0  0  0  0
  8 17  1  0  0  0  0
  9 28  2  0  0  0  0
 10 20  1  0  0  0  0
 10  1  1  0  0  0  0
 12  8  1  0  0  0  0
 13 12  1  0  0  0  0
 13 11  2  0  0  0  0
 14 27  1  0  0  0  0
 14 22  1  0  0  0  0
 15  9  1  0  0  0  0
 15 18  2  0  0  0  0
 17 10  1  0  0  0  0
 18  6  1  0  0  0  0
 19 16  1  0  0  0  0
 20  1  1  0  0  0  0
 20 29  1  0  0  0  0
 21 22  2  0  0  0  0
 21  4  1  0  0  0  0
 22 13  1  0  0  0  0
 23 14  2  0  0  0  0
 26  9  1  0  0  0  0
 27  2  2  0  0  0  0
 28  6  1  0  0  0  0
 28 23  1  0  0  0  0
 29 30  1  0  0  0  0
 30 32  1  0  0  0  0
 31 30  1  0  0  0  0
M  END
>  <MODEL>
9

>  <REMARK>
 VINA RESULT:      -7.9      1.826      7.670
  Name = 
  2 active torsions:
  status: ('A' for Active; 'I' for Inactive)
    1  A    between atoms: C_20  and  N_29
    2  A    between atoms: N_29  and  C_30
                            x       y       z     vdW  Elec       q    Type
                         _______ _______ _______ _____ _____    ______ ____

>  <TORSDO>
F 2

$$$$
