=
 OpenBabel11122410283D

 30 35  0  0  1  0  0  0  0  0999 V2000
  186.1550  178.3780  141.9080 C   0  0  0  0  0  0  0  0  0  0  0  0
  183.6780  178.8200  141.7210 C   0  0  0  0  0  0  0  0  0  0  0  0
  185.9000  178.1720  146.0100 N   0  0  0  0  0  2  0  0  0  0  0  0
  187.2870  178.0900  142.7250 C   0  0  0  0  0  0  0  0  0  0  0  0
  186.3430  178.4910  140.4940 N   0  0  0  0  0  2  0  0  0  0  0  0
  189.8490  177.7860  140.1520 O   0  0  0  0  0  0  0  0  0  0  0  0
  190.2160  177.9820  143.8670 C   0  0  1  0  0  3  0  0  0  0  0  0
  188.7180  177.9500  140.6870 C   0  0  0  0  0  0  0  0  0  0  0  0
  189.4620  178.0460  145.1850 C   0  0  2  0  0  3  0  0  0  0  0  0
  187.2160  178.0070  146.2540 C   0  0  0  0  0  0  0  0  0  0  0  0
  187.5940  178.3190  139.8880 N   0  0  0  0  0  0  0  0  0  0  0  0
  188.5450  177.7500  142.0980 N   0  0  0  0  0  0  0  0  0  0  0  0
  182.4460  178.9710  142.3660 C   0  0  0  0  0  3  0  0  0  0  0  0
  190.0990  176.9910  146.0680 C   0  0  0  0  0  2  0  0  0  0  0  0
  191.6100  177.4880  144.2240 C   0  0  0  0  0  2  0  0  0  0  0  0
  183.6220  178.9760  139.9680 Cl  0  0  0  0  0  0  0  0  0  0  0  0
  185.8510  178.2210  144.6680 C   0  0  0  0  0  0  0  0  0  0  0  0
  182.3390  178.8700  143.7480 C   0  0  0  0  0  3  0  0  0  0  0  0
  184.8540  178.5550  142.4840 C   0  0  0  0  0  0  0  0  0  0  0  0
  187.1010  178.0730  144.1240 C   0  0  0  0  0  0  0  0  0  0  0  0
  187.6800  177.9710  147.4240 O   0  0  0  0  0  0  0  0  0  0  0  0
  187.9930  177.9300  145.1400 N   0  0  0  0  0  0  0  0  0  0  0  0
  191.5530  176.9590  145.6490 C   0  0  0  0  0  2  0  0  0  0  0  0
  189.1830  175.6830  143.2960 C   0  0  0  0  0  1  0  0  0  0  0  0
  183.4720  178.6140  144.5130 C   0  0  0  0  0  3  0  0  0  0  0  0
  184.7180  178.4540  143.8970 C   0  0  0  0  0  0  0  0  0  0  0  0
  189.6110  177.0670  142.8130 C   0  0  2  0  0  3  0  0  0  0  0  0
  187.7280  178.5510  138.4600 C   0  0  0  0  0  2  0  0  0  0  0  0
  186.2530  177.4710  137.0160 C   0  0  0  0  0  1  0  0  0  0  0  0
  186.4110  178.6440  137.8550 N   0  0  0  0  0  2  0  0  0  0  0  0
  1 19  2  0  0  0  0
  1  4  1  0  0  0  0
  2 13  2  0  0  0  0
  2 19  1  0  0  0  0
  3 10  1  0  0  0  0
  4 20  2  0  0  0  0
  5  1  1  0  0  0  0
  6  8  2  0  0  0  0
  7 15  1  1  0  0  0
  7  9  1  0  0  0  0
  8 12  1  0  0  0  0
  9 14  1  1  0  0  0
 10 21  2  0  0  0  0
 11  5  1  0  0  0  0
 11  8  1  0  0  0  0
 12  4  1  0  0  0  0
 12 27  1  0  0  0  0
 13 18  1  0  0  0  0
 15 23  1  0  0  0  0
 16  2  1  0  0  0  0
 17  3  1  0  0  0  0
 18 25  2  0  0  0  0
 19 26  1  0  0  0  0
 20 17  1  0  0  0  0
 20 22  1  0  0  0  0
 22  9  1  0  0  0  0
 22 10  1  0  0  0  0
 23 14  1  0  0  0  0
 26 25  1  0  0  0  0
 26 17  2  0  0  0  0
 27 24  1  1  0  0  0
 27  7  1  0  0  0  0
 28 11  1  0  0  0  0
 29 30  1  0  0  0  0
 30 28  1  0  0  0  0
M  END
>  <MODEL>
1

>  <REMARK>
 VINA RESULT:     -10.5      0.000      0.000
  Name = 
  2 active torsions:
  status: ('A' for Active; 'I' for Inactive)
    1  A    between atoms: N_11  and  C_28
    2  A    between atoms: C_28  and  N_30
                            x       y       z     vdW  Elec       q    Type
                         _______ _______ _______ _____ _____    ______ ____

>  <TORSDO>
F 2

$$$$
=
 OpenBabel11122410283D

 30 35  0  0  1  0  0  0  0  0999 V2000
  188.8910  177.5170  143.3720 C   0  0  0  0  0  0  0  0  0  0  0  0
  191.0160  176.9100  144.5900 C   0  0  0  0  0  0  0  0  0  0  0  0
  186.8230  177.7670  146.9210 N   0  0  0  0  0  2  0  0  0  0  0  0
  187.5170  177.8910  143.4240 C   0  0  0  0  0  0  0  0  0  0  0  0
  189.5190  177.3960  142.0920 N   0  0  0  0  0  2  0  0  0  0  0  0
  186.8550  178.3250  139.8670 O   0  0  0  0  0  0  0  0  0  0  0  0
  184.4630  178.2090  142.7380 C   0  0  1  0  0  3  0  0  0  0  0  0
  187.4810  178.0950  140.9390 C   0  0  0  0  0  0  0  0  0  0  0  0
  184.3460  178.1150  144.2500 C   0  0  2  0  0  3  0  0  0  0  0  0
  185.6090  178.0220  146.3920 C   0  0  0  0  0  0  0  0  0  0  0  0
  188.8340  177.6400  140.8950 N   0  0  0  0  0  0  0  0  0  0  0  0
  186.8490  178.3030  142.2100 N   0  0  0  0  0  0  0  0  0  0  0  0
  191.6650  176.6880  145.8090 C   0  0  0  0  0  3  0  0  0  0  0  0
  183.3930  179.2220  144.6520 C   0  0  0  0  0  2  0  0  0  0  0  0
  183.1420  178.7980  142.2670 C   0  0  0  0  0  2  0  0  0  0  0  0
  192.0320  176.7250  143.1640 Cl  0  0  0  0  0  0  0  0  0  0  0  0
  187.6090  177.6950  145.8340 C   0  0  0  0  0  0  0  0  0  0  0  0
  190.9870  176.8030  147.0170 C   0  0  0  0  0  3  0  0  0  0  0  0
  189.6340  177.2640  144.5710 C   0  0  0  0  0  0  0  0  0  0  0  0
  186.8900  177.9170  144.6880 C   0  0  0  0  0  0  0  0  0  0  0  0
  184.5730  178.1060  147.1040 O   0  0  0  0  0  0  0  0  0  0  0  0
  185.5930  178.1330  145.0370 N   0  0  0  0  0  0  0  0  0  0  0  0
  182.4260  179.3440  143.4930 C   0  0  0  0  0  2  0  0  0  0  0  0
  185.7810  180.4260  142.8970 C   0  0  0  0  0  1  0  0  0  0  0  0
  189.6390  177.1440  147.0240 C   0  0  0  0  0  3  0  0  0  0  0  0
  188.9620  177.3760  145.8220 C   0  0  0  0  0  0  0  0  0  0  0  0
  185.6100  179.0660  142.2250 C   0  0  2  0  0  3  0  0  0  0  0  0
  189.5070  177.3970  139.6300 C   0  0  0  0  0  2  0  0  0  0  0  0
  191.3380  176.3740  138.6170 C   0  0  0  0  0  1  0  0  0  0  0  0
  190.4950  176.3460  139.7970 N   0  0  0  0  0  2  0  0  0  0  0  0
  1  4  2  0  0  0  0
  1 19  1  0  0  0  0
  2 13  1  0  0  0  0
  4 20  1  0  0  0  0
  5  1  1  0  0  0  0
  6  8  2  0  0  0  0
  7 15  1  1  0  0  0
  7  9  1  0  0  0  0
  8 12  1  0  0  0  0
  9 14  1  1  0  0  0
  9 22  1  0  0  0  0
 10  3  1  0  0  0  0
 10 21  2  0  0  0  0
 11  8  1  0  0  0  0
 11  5  1  0  0  0  0
 12 27  1  0  0  0  0
 12  4  1  0  0  0  0
 13 18  2  0  0  0  0
 15 23  1  0  0  0  0
 16  2  1  0  0  0  0
 17  3  1  0  0  0  0
 18 25  1  0  0  0  0
 19  2  2  0  0  0  0
 19 26  1  0  0  0  0
 20 22  1  0  0  0  0
 20 17  2  0  0  0  0
 22 10  1  0  0  0  0
 23 14  1  0  0  0  0
 26 17  1  0  0  0  0
 26 25  2  0  0  0  0
 27  7  1  0  0  0  0
 27 24  1  1  0  0  0
 28 30  1  0  0  0  0
 28 11  1  0  0  0  0
 29 30  1  0  0  0  0
M  END
>  <MODEL>
2

>  <REMARK>
 VINA RESULT:      -9.6      2.407      5.505
  Name = 
  2 active torsions:
  status: ('A' for Active; 'I' for Inactive)
    1  A    between atoms: N_11  and  C_28
    2  A    between atoms: C_28  and  N_30
                            x       y       z     vdW  Elec       q    Type
                         _______ _______ _______ _____ _____    ______ ____

>  <TORSDO>
F 2

$$$$
=
 OpenBabel11122410283D

 30 35  0  0  1  0  0  0  0  0999 V2000
  186.9130  177.9100  144.7610 C   0  0  0  0  0  0  0  0  0  0  0  0
  184.5140  178.5470  145.2190 C   0  0  0  0  0  0  0  0  0  0  0  0
  186.4280  178.6240  140.7380 N   0  0  0  0  0  2  0  0  0  0  0  0
  187.9850  177.7720  143.8320 C   0  0  0  0  0  0  0  0  0  0  0  0
  187.1510  177.5850  146.1340 N   0  0  0  0  0  2  0  0  0  0  0  0
  190.6310  176.6920  146.0920 O   0  0  0  0  0  0  0  0  0  0  0  0
  190.5630  176.7410  142.3550 C   0  0  1  0  0  3  0  0  0  0  0  0
  189.5000  177.0810  145.6880 C   0  0  0  0  0  0  0  0  0  0  0  0
  189.7490  177.1380  141.1350 C   0  0  2  0  0  3  0  0  0  0  0  0
  187.6600  178.2380  140.3470 C   0  0  0  0  0  0  0  0  0  0  0  0
  188.3980  177.1450  146.5940 N   0  0  0  0  0  0  0  0  0  0  0  0
  189.3130  177.4780  144.3220 N   0  0  0  0  0  0  0  0  0  0  0  0
  183.2890  179.0010  144.7190 C   0  0  0  0  0  3  0  0  0  0  0  0
  190.7030  177.9060  140.2430 C   0  0  0  0  0  2  0  0  0  0  0  0
  191.9980  176.6280  141.8620 C   0  0  0  0  0  2  0  0  0  0  0  0
  184.5430  178.2510  146.9540 Cl  0  0  0  0  0  0  0  0  0  0  0  0
  186.4760  178.4640  142.0700 C   0  0  0  0  0  0  0  0  0  0  0  0
  183.1220  179.2790  143.3670 C   0  0  0  0  0  3  0  0  0  0  0  0
  185.6210  178.3640  144.3370 C   0  0  0  0  0  0  0  0  0  0  0  0
  187.7080  178.0100  142.4680 C   0  0  0  0  0  0  0  0  0  0  0  0
  187.9940  178.1930  139.1330 O   0  0  0  0  0  0  0  0  0  0  0  0
  188.4840  177.8630  141.3620 N   0  0  0  0  0  0  0  0  0  0  0  0
  192.0570  177.2740  140.4860 C   0  0  0  0  0  2  0  0  0  0  0  0
  190.6820  179.1880  143.1740 C   0  0  0  0  0  1  0  0  0  0  0  0
  184.1850  179.1060  142.4880 C   0  0  0  0  0  3  0  0  0  0  0  0
  185.4240  178.6570  142.9570 C   0  0  0  0  0  0  0  0  0  0  0  0
  190.5060  177.7120  143.5230 C   0  0  2  0  0  3  0  0  0  0  0  0
  188.5380  176.7330  147.9810 C   0  0  0  0  0  2  0  0  0  0  0  0
  189.5830  178.6280  148.8430 C   0  0  0  0  0  1  0  0  0  0  0  0
  188.3410  177.8780  148.8520 N   0  0  0  0  0  2  0  0  0  0  0  0
  1  5  1  0  0  0  0
  2 16  1  0  0  0  0
  3 17  1  0  0  0  0
  4 12  1  0  0  0  0
  4  1  2  0  0  0  0
  5 11  1  0  0  0  0
  7 15  1  6  0  0  0
  7 27  1  0  0  0  0
  8  6  2  0  0  0  0
  8 11  1  0  0  0  0
  9 14  1  6  0  0  0
  9 22  1  0  0  0  0
  9  7  1  0  0  0  0
 10  3  1  0  0  0  0
 10 22  1  0  0  0  0
 11 28  1  0  0  0  0
 12  8  1  0  0  0  0
 13  2  1  0  0  0  0
 14 23  1  0  0  0  0
 17 20  2  0  0  0  0
 17 26  1  0  0  0  0
 18 13  2  0  0  0  0
 19  1  1  0  0  0  0
 19  2  2  0  0  0  0
 20  4  1  0  0  0  0
 21 10  2  0  0  0  0
 22 20  1  0  0  0  0
 23 15  1  0  0  0  0
 25 26  2  0  0  0  0
 25 18  1  0  0  0  0
 26 19  1  0  0  0  0
 27 24  1  6  0  0  0
 27 12  1  0  0  0  0
 28 30  1  0  0  0  0
 29 30  1  0  0  0  0
M  END
>  <MODEL>
3

>  <REMARK>
 VINA RESULT:      -9.2      2.169      5.404
  Name = 
  2 active torsions:
  status: ('A' for Active; 'I' for Inactive)
    1  A    between atoms: N_11  and  C_28
    2  A    between atoms: C_28  and  N_30
                            x       y       z     vdW  Elec       q    Type
                         _______ _______ _______ _____ _____    ______ ____

>  <TORSDO>
F 2

$$$$
=
 OpenBabel11122410283D

 30 35  0  0  1  0  0  0  0  0999 V2000
  189.5800  177.7710  142.1580 C   0  0  0  0  0  0  0  0  0  0  0  0
  191.0220  177.4160  140.1180 C   0  0  0  0  0  0  0  0  0  0  0  0
  186.3150  178.6390  139.8080 N   0  0  0  0  0  2  0  0  0  0  0  0
  188.2990  178.0550  142.7150 C   0  0  0  0  0  0  0  0  0  0  0  0
  190.6760  177.5380  143.0470 N   0  0  0  0  0  2  0  0  0  0  0  0
  189.0920  177.8010  146.2620 O   0  0  0  0  0  0  0  0  0  0  0  0
  186.0100  179.1090  144.5990 C   0  0  1  0  0  3  0  0  0  0  0  0
  189.2370  177.7750  145.0080 C   0  0  0  0  0  0  0  0  0  0  0  0
  185.3160  179.3150  143.2630 C   0  0  2  0  0  3  0  0  0  0  0  0
  185.4580  178.9310  140.8090 C   0  0  0  0  0  0  0  0  0  0  0  0
  190.5310  177.5720  144.4400 N   0  0  0  0  0  0  0  0  0  0  0  0
  188.1040  177.9310  144.1420 N   0  0  0  0  0  0  0  0  0  0  0  0
  191.1190  177.3800  138.7230 C   0  0  0  0  0  3  0  0  0  0  0  0
  183.9130  178.7730  143.4480 C   0  0  0  0  0  2  0  0  0  0  0  0
  184.9030  179.1530  145.6400 C   0  0  0  0  0  2  0  0  0  0  0  0
  192.5180  177.0610  140.9750 Cl  0  0  0  0  0  0  0  0  0  0  0  0
  187.4350  178.3000  140.4670 C   0  0  0  0  0  0  0  0  0  0  0  0
  190.0160  177.6380  137.9170 C   0  0  0  0  0  3  0  0  0  0  0  0
  189.7730  177.7190  140.7390 C   0  0  0  0  0  0  0  0  0  0  0  0
  187.2500  178.3720  141.8240 C   0  0  0  0  0  0  0  0  0  0  0  0
  184.2920  179.3530  140.5890 O   0  0  0  0  0  0  0  0  0  0  0  0
  185.9730  178.7770  142.0580 N   0  0  0  0  0  0  0  0  0  0  0  0
  183.5790  179.0440  144.8990 C   0  0  0  0  0  2  0  0  0  0  0  0
  186.0580  176.5470  144.2700 C   0  0  0  0  0  1  0  0  0  0  0  0
  188.7890  177.9370  138.4990 C   0  0  0  0  0  3  0  0  0  0  0  0
  188.6590  177.9780  139.8910 C   0  0  0  0  0  0  0  0  0  0  0  0
  186.7830  177.8070  144.7380 C   0  0  2  0  0  3  0  0  0  0  0  0
  191.7090  177.4290  145.2790 C   0  0  0  0  0  2  0  0  0  0  0  0
  192.0640  175.9460  147.0390 C   0  0  0  0  0  1  0  0  0  0  0  0
  191.9130  176.0280  145.5990 N   0  0  0  0  0  2  0  0  0  0  0  0
  1  4  1  0  0  0  0
  1  5  1  0  0  0  0
  2 19  1  0  0  0  0
  2 16  1  0  0  0  0
  3 17  1  0  0  0  0
  3 10  1  0  0  0  0
  4 12  1  0  0  0  0
  5 11  1  0  0  0  0
  7 27  1  0  0  0  0
  7 15  1  1  0  0  0
  8  6  2  0  0  0  0
  9 14  1  1  0  0  0
  9  7  1  0  0  0  0
 10 22  1  0  0  0  0
 11  8  1  0  0  0  0
 11 28  1  0  0  0  0
 12 27  1  0  0  0  0
 12  8  1  0  0  0  0
 13  2  2  0  0  0  0
 14 23  1  0  0  0  0
 17 20  1  0  0  0  0
 18 25  2  0  0  0  0
 18 13  1  0  0  0  0
 19  1  2  0  0  0  0
 20 22  1  0  0  0  0
 20  4  2  0  0  0  0
 21 10  2  0  0  0  0
 22  9  1  0  0  0  0
 23 15  1  0  0  0  0
 25 26  1  0  0  0  0
 26 17  2  0  0  0  0
 26 19  1  0  0  0  0
 27 24  1  6  0  0  0
 28 30  1  0  0  0  0
 30 29  1  0  0  0  0
M  END
>  <MODEL>
4

>  <REMARK>
 VINA RESULT:      -8.5      2.597      6.545
  Name = 
  2 active torsions:
  status: ('A' for Active; 'I' for Inactive)
    1  A    between atoms: N_11  and  C_28
    2  A    between atoms: C_28  and  N_30
                            x       y       z     vdW  Elec       q    Type
                         _______ _______ _______ _____ _____    ______ ____

>  <TORSDO>
F 2

$$$$
=
 OpenBabel11122410283D

 30 35  0  0  1  0  0  0  0  0999 V2000
  187.6260  177.7200  142.7200 C   0  0  0  0  0  0  0  0  0  0  0  0
  186.4790  178.2050  144.9150 C   0  0  0  0  0  0  0  0  0  0  0  0
  184.3880  179.1400  140.6130 N   0  0  0  0  0  2  0  0  0  0  0  0
  187.6140  177.7780  141.2960 C   0  0  0  0  0  0  0  0  0  0  0  0
  188.7680  177.1570  143.3720 N   0  0  0  0  0  2  0  0  0  0  0  0
  190.9000  176.3710  140.5890 O   0  0  0  0  0  0  0  0  0  0  0  0
  188.0680  177.0950  138.2590 C   0  0  1  0  0  3  0  0  0  0  0  0
  189.9070  176.7990  141.2400 C   0  0  0  0  0  0  0  0  0  0  0  0
  186.6730  177.6880  138.1510 C   0  0  2  0  0  3  0  0  0  0  0  0
  184.8540  178.8610  139.3790 C   0  0  0  0  0  0  0  0  0  0  0  0
  189.8730  176.6710  142.6620 N   0  0  0  0  0  0  0  0  0  0  0  0
  188.8120  177.4330  140.5630 N   0  0  0  0  0  0  0  0  0  0  0  0
  185.3610  178.7120  145.5850 C   0  0  0  0  0  3  0  0  0  0  0  0
  186.7220  178.6280  136.9640 C   0  0  0  0  0  2  0  0  0  0  0  0
  188.6220  177.1090  136.8420 C   0  0  0  0  0  2  0  0  0  0  0  0
  187.7590  177.5990  145.9610 Cl  0  0  0  0  0  0  0  0  0  0  0  0
  185.3960  178.7410  141.4070 C   0  0  0  0  0  0  0  0  0  0  0  0
  184.2750  179.2260  144.8860 C   0  0  0  0  0  3  0  0  0  0  0  0
  186.5200  178.2110  143.4890 C   0  0  0  0  0  0  0  0  0  0  0  0
  186.4430  178.2530  140.6670 C   0  0  0  0  0  0  0  0  0  0  0  0
  184.1590  179.0450  138.3440 O   0  0  0  0  0  0  0  0  0  0  0  0
  186.1050  178.3280  139.3520 N   0  0  0  0  0  0  0  0  0  0  0  0
  187.7110  177.9950  136.0070 C   0  0  0  0  0  2  0  0  0  0  0  0
  189.0560  179.3560  139.0270 C   0  0  0  0  0  1  0  0  0  0  0  0
  184.2900  179.2410  143.4960 C   0  0  0  0  0  3  0  0  0  0  0  0
  185.3960  178.7440  142.7970 C   0  0  0  0  0  0  0  0  0  0  0  0
  189.0220  177.8370  139.1820 C   0  0  2  0  0  3  0  0  0  0  0  0
  190.9510  176.0180  143.3860 C   0  0  0  0  0  2  0  0  0  0  0  0
  191.6770  176.5320  145.5390 C   0  0  0  0  0  1  0  0  0  0  0  0
  191.6800  177.0020  144.1660 N   0  0  0  0  0  2  0  0  0  0  0  0
  1  5  1  0  0  0  0
  1 19  1  0  0  0  0
  2 13  1  0  0  0  0
  2 16  1  0  0  0  0
  3 17  1  0  0  0  0
  4  1  2  0  0  0  0
  6  8  2  0  0  0  0
  7 15  1  6  0  0  0
  7 27  1  0  0  0  0
  8 11  1  0  0  0  0
  9 14  1  6  0  0  0
  9  7  1  0  0  0  0
  9 22  1  0  0  0  0
 10  3  1  0  0  0  0
 11  5  1  0  0  0  0
 11 28  1  0  0  0  0
 12  8  1  0  0  0  0
 12  4  1  0  0  0  0
 17 26  1  0  0  0  0
 18 13  2  0  0  0  0
 19  2  2  0  0  0  0
 20  4  1  0  0  0  0
 20 17  2  0  0  0  0
 21 10  2  0  0  0  0
 22 10  1  0  0  0  0
 22 20  1  0  0  0  0
 23 15  1  0  0  0  0
 23 14  1  0  0  0  0
 25 18  1  0  0  0  0
 26 19  1  0  0  0  0
 26 25  2  0  0  0  0
 27 24  1  1  0  0  0
 27 12  1  0  0  0  0
 28 30  1  0  0  0  0
 30 29  1  0  0  0  0
M  END
>  <MODEL>
5

>  <REMARK>
 VINA RESULT:      -8.3      2.547      5.824
  Name = 
  2 active torsions:
  status: ('A' for Active; 'I' for Inactive)
    1  A    between atoms: N_11  and  C_28
    2  A    between atoms: C_28  and  N_30
                            x       y       z     vdW  Elec       q    Type
                         _______ _______ _______ _____ _____    ______ ____

>  <TORSDO>
F 2

$$$$
=
 OpenBabel11122410283D

 30 35  0  0  1  0  0  0  0  0999 V2000
  188.2530  177.3980  145.1260 C   0  0  0  0  0  0  0  0  0  0  0  0
  186.3890  177.9540  146.7340 C   0  0  0  0  0  0  0  0  0  0  0  0
  186.0110  178.7070  141.9330 N   0  0  0  0  0  2  0  0  0  0  0  0
  188.7610  177.4030  143.7940 C   0  0  0  0  0  0  0  0  0  0  0  0
  189.0770  176.8700  146.1700 N   0  0  0  0  0  2  0  0  0  0  0  0
  192.0710  176.0010  144.3850 O   0  0  0  0  0  0  0  0  0  0  0  0
  190.2850  176.6100  141.1590 C   0  0  1  0  0  3  0  0  0  0  0  0
  190.9120  176.4440  144.6140 C   0  0  0  0  0  0  0  0  0  0  0  0
  189.0270  177.1850  140.5280 C   0  0  2  0  0  3  0  0  0  0  0  0
  186.8920  178.3860  140.9640 C   0  0  0  0  0  0  0  0  0  0  0  0
  190.3620  176.3690  145.9300 N   0  0  0  0  0  0  0  0  0  0  0  0
  190.1410  177.0410  143.5610 N   0  0  0  0  0  0  0  0  0  0  0  0
  185.1060  178.4750  146.9310 C   0  0  0  0  0  3  0  0  0  0  0  0
  189.5100  178.0800  139.4050 C   0  0  0  0  0  2  0  0  0  0  0  0
  191.3170  176.5760  140.0420 C   0  0  0  0  0  2  0  0  0  0  0  0
  187.1980  177.4000  148.1960 Cl  0  0  0  0  0  0  0  0  0  0  0  0
  186.6590  178.3480  143.0540 C   0  0  0  0  0  0  0  0  0  0  0  0
  184.3510  178.9530  145.8660 C   0  0  0  0  0  3  0  0  0  0  0  0
  186.9460  177.9070  145.4210 C   0  0  0  0  0  0  0  0  0  0  0  0
  187.9010  177.8420  142.7650 C   0  0  0  0  0  0  0  0  0  0  0  0
  186.6220  178.5250  139.7420 O   0  0  0  0  0  0  0  0  0  0  0  0
  188.0650  177.8640  141.4150 N   0  0  0  0  0  0  0  0  0  0  0  0
  190.7760  177.4210  138.8990 C   0  0  0  0  0  2  0  0  0  0  0  0
  190.9360  178.9070  142.1470 C   0  0  0  0  0  1  0  0  0  0  0  0
  184.8720  178.9160  144.5770 C   0  0  0  0  0  3  0  0  0  0  0  0
  186.1530  178.4030  144.3470 C   0  0  0  0  0  0  0  0  0  0  0  0
  190.8410  177.3950  142.3360 C   0  0  2  0  0  3  0  0  0  0  0  0
  191.1000  175.7540  147.0210 C   0  0  0  0  0  2  0  0  0  0  0  0
  192.8850  176.0030  148.4950 C   0  0  0  0  0  1  0  0  0  0  0  0
  191.9820  176.7350  147.6270 N   0  0  0  0  0  2  0  0  0  0  0  0
  1 19  1  0  0  0  0
  1  5  1  0  0  0  0
  2 13  1  0  0  0  0
  2 16  1  0  0  0  0
  3 17  1  0  0  0  0
  4  1  2  0  0  0  0
  6  8  2  0  0  0  0
  7 15  1  6  0  0  0
  7 27  1  0  0  0  0
  8 11  1  0  0  0  0
  9 14  1  6  0  0  0
  9  7  1  0  0  0  0
  9 22  1  0  0  0  0
 10 22  1  0  0  0  0
 10  3  1  0  0  0  0
 11  5  1  0  0  0  0
 11 28  1  0  0  0  0
 12  4  1  0  0  0  0
 12  8  1  0  0  0  0
 17 26  1  0  0  0  0
 18 13  2  0  0  0  0
 19  2  2  0  0  0  0
 20 17  2  0  0  0  0
 20  4  1  0  0  0  0
 21 10  2  0  0  0  0
 22 20  1  0  0  0  0
 23 14  1  0  0  0  0
 23 15  1  0  0  0  0
 25 18  1  0  0  0  0
 26 25  2  0  0  0  0
 26 19  1  0  0  0  0
 27 24  1  6  0  0  0
 27 12  1  0  0  0  0
 28 30  1  0  0  0  0
 30 29  1  0  0  0  0
M  END
>  <MODEL>
6

>  <REMARK>
 VINA RESULT:      -8.3      2.822      5.829
  Name = 
  2 active torsions:
  status: ('A' for Active; 'I' for Inactive)
    1  A    between atoms: N_11  and  C_28
    2  A    between atoms: C_28  and  N_30
                            x       y       z     vdW  Elec       q    Type
                         _______ _______ _______ _____ _____    ______ ____

>  <TORSDO>
F 2

$$$$
=
 OpenBabel11122410283D

 30 35  0  0  1  0  0  0  0  0999 V2000
  188.0820  177.8750  141.8200 C   0  0  0  0  0  0  0  0  0  0  0  0
  189.0560  177.3770  144.0940 C   0  0  0  0  0  0  0  0  0  0  0  0
  191.5650  176.6970  139.9720 N   0  0  0  0  0  2  0  0  0  0  0  0
  188.2220  177.8650  140.4020 C   0  0  0  0  0  0  0  0  0  0  0  0
  186.8580  178.3560  142.3830 N   0  0  0  0  0  2  0  0  0  0  0  0
  184.9390  179.1220  139.4440 O   0  0  0  0  0  0  0  0  0  0  0  0
  188.0010  178.6260  137.3570 C   0  0  1  0  0  3  0  0  0  0  0  0
  185.8930  178.7250  140.1690 C   0  0  0  0  0  0  0  0  0  0  0  0
  189.4300  178.1110  137.3580 C   0  0  2  0  0  3  0  0  0  0  0  0
  191.1960  176.9930  138.7090 C   0  0  0  0  0  0  0  0  0  0  0  0
  185.7950  178.8070  141.5910 N   0  0  0  0  0  0  0  0  0  0  0  0
  187.0760  178.1720  139.5750 N   0  0  0  0  0  0  0  0  0  0  0  0
  190.1370  176.9060  144.8470 C   0  0  0  0  0  3  0  0  0  0  0  0
  189.5370  177.2100  136.1440 C   0  0  0  0  0  2  0  0  0  0  0  0
  187.5750  178.6310  135.8970 C   0  0  0  0  0  2  0  0  0  0  0  0
  187.6570  177.8790  145.0380 Cl  0  0  0  0  0  0  0  0  0  0  0  0
  190.4710  177.0160  140.6830 C   0  0  0  0  0  0  0  0  0  0  0  0
  191.3070  176.4730  144.2330 C   0  0  0  0  0  3  0  0  0  0  0  0
  189.1410  177.4160  142.6700 C   0  0  0  0  0  0  0  0  0  0  0  0
  189.4690  177.4740  139.8670 C   0  0  0  0  0  0  0  0  0  0  0  0
  191.9880  176.8800  137.7360 O   0  0  0  0  0  0  0  0  0  0  0  0
  189.9250  177.4610  138.5860 N   0  0  0  0  0  0  0  0  0  0  0  0
  188.6030  177.8230  135.1210 C   0  0  0  0  0  2  0  0  0  0  0  0
  187.0750  176.2920  137.9680 C   0  0  0  0  0  1  0  0  0  0  0  0
  191.4150  176.5040  142.8480 C   0  0  0  0  0  3  0  0  0  0  0  0
  190.3500  176.9660  142.0670 C   0  0  0  0  0  0  0  0  0  0  0  0
  187.0120  177.8050  138.1690 C   0  0  2  0  0  3  0  0  0  0  0  0
  184.6230  179.3780  142.2340 C   0  0  0  0  0  2  0  0  0  0  0  0
  183.7950  179.0060  144.3790 C   0  0  0  0  0  1  0  0  0  0  0  0
  184.8980  179.5960  143.6430 N   0  0  0  0  0  2  0  0  0  0  0  0
  1  5  1  0  0  0  0
  1 19  1  0  0  0  0
  2 13  1  0  0  0  0
  2 16  1  0  0  0  0
  3 17  1  0  0  0  0
  4  1  2  0  0  0  0
  6  8  2  0  0  0  0
  7 15  1  6  0  0  0
  7  9  1  0  0  0  0
  7 27  1  0  0  0  0
  8 11  1  0  0  0  0
  9 14  1  6  0  0  0
  9 22  1  0  0  0  0
 10  3  1  0  0  0  0
 11 28  1  0  0  0  0
 11  5  1  0  0  0  0
 12  8  1  0  0  0  0
 12  4  1  0  0  0  0
 17 26  1  0  0  0  0
 18 13  2  0  0  0  0
 19  2  2  0  0  0  0
 20  4  1  0  0  0  0
 20 17  2  0  0  0  0
 21 10  2  0  0  0  0
 22 10  1  0  0  0  0
 22 20  1  0  0  0  0
 23 15  1  0  0  0  0
 23 14  1  0  0  0  0
 25 18  1  0  0  0  0
 26 19  1  0  0  0  0
 26 25  2  0  0  0  0
 27 24  1  1  0  0  0
 27 12  1  0  0  0  0
 28 30  1  0  0  0  0
 30 29  1  0  0  0  0
M  END
>  <MODEL>
7

>  <REMARK>
 VINA RESULT:      -8.3      2.601      6.822
  Name = 
  2 active torsions:
  status: ('A' for Active; 'I' for Inactive)
    1  A    between atoms: N_11  and  C_28
    2  A    between atoms: C_28  and  N_30
                            x       y       z     vdW  Elec       q    Type
                         _______ _______ _______ _____ _____    ______ ____

>  <TORSDO>
F 2

$$$$
=
 OpenBabel11122410283D

 30 35  0  0  1  0  0  0  0  0999 V2000
  185.7640  178.4130  142.1740 C   0  0  0  0  0  0  0  0  0  0  0  0
  186.4930  178.4160  144.5910 C   0  0  0  0  0  0  0  0  0  0  0  0
  181.8090  178.7070  143.2730 N   0  0  0  0  0  2  0  0  0  0  0  0
  184.7150  178.5050  141.2140 C   0  0  0  0  0  0  0  0  0  0  0  0
  187.1070  178.2530  141.7080 N   0  0  0  0  0  2  0  0  0  0  0  0
  186.6660  178.3190  138.1420 O   0  0  0  0  0  0  0  0  0  0  0  0
  182.9660  178.1030  138.6300 C   0  0  1  0  0  3  0  0  0  0  0  0
  186.3920  178.3650  139.3740 C   0  0  0  0  0  0  0  0  0  0  0  0
  181.8440  178.1890  139.6510 C   0  0  2  0  0  3  0  0  0  0  0  0
  181.2830  178.6380  142.0330 C   0  0  0  0  0  0  0  0  0  0  0  0
  187.4240  178.1920  140.3450 N   0  0  0  0  0  0  0  0  0  0  0  0
  185.0470  178.6080  139.8100 N   0  0  0  0  0  0  0  0  0  0  0  0
  186.1330  178.4940  145.9400 C   0  0  0  0  0  3  0  0  0  0  0  0
  180.8160  179.1230  139.0460 C   0  0  0  0  0  2  0  0  0  0  0  0
  182.3040  178.3450  137.2820 C   0  0  0  0  0  2  0  0  0  0  0  0
  188.2200  178.2530  144.2920 Cl  0  0  0  0  0  0  0  0  0  0  0  0
  183.1310  178.6520  143.0370 C   0  0  0  0  0  0  0  0  0  0  0  0
  184.8030  178.6280  146.3240 C   0  0  0  0  0  3  0  0  0  0  0  0
  185.4870  178.4770  143.5790 C   0  0  0  0  0  0  0  0  0  0  0  0
  183.3890  178.5700  141.6930 C   0  0  0  0  0  0  0  0  0  0  0  0
  180.0400  178.6050  141.8350 O   0  0  0  0  0  0  0  0  0  0  0  0
  182.2010  178.5630  141.0320 N   0  0  0  0  0  0  0  0  0  0  0  0
  180.9110  178.8920  137.5530 C   0  0  0  0  0  2  0  0  0  0  0  0
  183.6830  180.5420  139.0940 C   0  0  0  0  0  1  0  0  0  0  0  0
  183.8060  178.6870  145.3570 C   0  0  0  0  0  3  0  0  0  0  0  0
  184.1340  178.6150  143.9990 C   0  0  0  0  0  0  0  0  0  0  0  0
  184.1000  179.0980  138.8220 C   0  0  2  0  0  3  0  0  0  0  0  0
  188.7960  177.9250  139.9470 C   0  0  0  0  0  2  0  0  0  0  0  0
  190.8840  177.1280  140.6050 C   0  0  0  0  0  1  0  0  0  0  0  0
  189.5320  177.3740  141.0710 N   0  0  0  0  0  2  0  0  0  0  0  0
  1 19  1  0  0  0  0
  2 13  1  0  0  0  0
  4 20  1  0  0  0  0
  4  1  2  0  0  0  0
  5  1  1  0  0  0  0
  6  8  2  0  0  0  0
  7 15  1  6  0  0  0
  7 27  1  0  0  0  0
  7  9  1  0  0  0  0
  8 12  1  0  0  0  0
  8 11  1  0  0  0  0
  9 14  1  6  0  0  0
  9 22  1  0  0  0  0
 10  3  1  0  0  0  0
 11  5  1  0  0  0  0
 12  4  1  0  0  0  0
 13 18  2  0  0  0  0
 15 23  1  0  0  0  0
 16  2  1  0  0  0  0
 17  3  1  0  0  0  0
 17 26  1  0  0  0  0
 19 26  1  0  0  0  0
 19  2  2  0  0  0  0
 20 17  2  0  0  0  0
 21 10  2  0  0  0  0
 22 20  1  0  0  0  0
 22 10  1  0  0  0  0
 23 14  1  0  0  0  0
 25 18  1  0  0  0  0
 26 25  2  0  0  0  0
 27 24  1  1  0  0  0
 27 12  1  0  0  0  0
 28 11  1  0  0  0  0
 28 30  1  0  0  0  0
 29 30  1  0  0  0  0
M  END
>  <MODEL>
8

>  <REMARK>
 VINA RESULT:      -8.1      3.197      6.346
  Name = 
  2 active torsions:
  status: ('A' for Active; 'I' for Inactive)
    1  A    between atoms: N_11  and  C_28
    2  A    between atoms: C_28  and  N_30
                            x       y       z     vdW  Elec       q    Type
                         _______ _______ _______ _____ _____    ______ ____

>  <TORSDO>
F 2

$$$$
=
 OpenBabel11122410283D

 30 35  0  0  1  0  0  0  0  0999 V2000
  187.4340  178.1440  140.5510 C   0  0  0  0  0  0  0  0  0  0  0  0
  189.4850  177.7810  139.1260 C   0  0  0  0  0  0  0  0  0  0  0  0
  189.5830  177.4230  143.9860 N   0  0  0  0  0  2  0  0  0  0  0  0
  186.8440  178.2300  141.8460 C   0  0  0  0  0  0  0  0  0  0  0  0
  186.6010  178.3520  139.4060 N   0  0  0  0  0  2  0  0  0  0  0  0
  183.4250  179.0790  140.9200 O   0  0  0  0  0  0  0  0  0  0  0  0
  184.8070  178.0480  144.2360 C   0  0  1  0  0  3  0  0  0  0  0  0
  184.6530  178.8110  140.8080 C   0  0  0  0  0  0  0  0  0  0  0  0
  186.0760  177.6960  144.9940 C   0  0  2  0  0  3  0  0  0  0  0  0
  188.5540  177.5160  144.8530 C   0  0  0  0  0  0  0  0  0  0  0  0
  185.2360  178.6420  139.5150 N   0  0  0  0  0  0  0  0  0  0  0  0
  185.4800  178.6890  141.9750 N   0  0  0  0  0  0  0  0  0  0  0  0
  190.8540  177.5010  139.0640 C   0  0  0  0  0  3  0  0  0  0  0  0
  186.0290  178.5180  146.2670 C   0  0  0  0  0  2  0  0  0  0  0  0
  183.7940  178.4340  145.3030 C   0  0  0  0  0  2  0  0  0  0  0  0
  188.7050  178.0240  137.5670 Cl  0  0  0  0  0  0  0  0  0  0  0  0
  188.9980  177.6780  142.8040 C   0  0  0  0  0  0  0  0  0  0  0  0
  191.5990  177.2890  140.2180 C   0  0  0  0  0  3  0  0  0  0  0  0
  188.8290  177.8560  140.3920 C   0  0  0  0  0  0  0  0  0  0  0  0
  187.6600  177.9330  142.9600 C   0  0  0  0  0  0  0  0  0  0  0  0
  188.6920  177.2830  146.0830 O   0  0  0  0  0  0  0  0  0  0  0  0
  187.3600  177.8330  144.2830 N   0  0  0  0  0  0  0  0  0  0  0  0
  184.5570  178.6290  146.6040 C   0  0  0  0  0  2  0  0  0  0  0  0
  185.6770  180.4260  143.7240 C   0  0  0  0  0  1  0  0  0  0  0  0
  190.9820  177.3550  141.4620 C   0  0  0  0  0  3  0  0  0  0  0  0
  189.6140  177.6360  141.5590 C   0  0  0  0  0  0  0  0  0  0  0  0
  184.9400  179.1820  143.2320 C   0  0  2  0  0  3  0  0  0  0  0  0
  184.4320  178.7370  138.3080 C   0  0  0  0  0  2  0  0  0  0  0  0
  183.4960  176.6210  138.0430 C   0  0  0  0  0  1  0  0  0  0  0  0
  184.5390  177.5020  137.5520 N   0  0  0  0  0  2  0  0  0  0  0  0
  1  4  1  0  0  0  0
  2 19  1  0  0  0  0
  3 10  1  0  0  0  0
  4 12  1  0  0  0  0
  4 20  2  0  0  0  0
  5 11  1  0  0  0  0
  5  1  1  0  0  0  0
  7  9  1  0  0  0  0
  7 15  1  1  0  0  0
  8  6  2  0  0  0  0
  8 12  1  0  0  0  0
  9 14  1  1  0  0  0
 10 21  2  0  0  0  0
 11  8  1  0  0  0  0
 12 27  1  0  0  0  0
 13  2  2  0  0  0  0
 13 18  1  0  0  0  0
 14 23  1  0  0  0  0
 15 23  1  0  0  0  0
 16  2  1  0  0  0  0
 17 20  1  0  0  0  0
 17  3  1  0  0  0  0
 18 25  2  0  0  0  0
 19  1  2  0  0  0  0
 19 26  1  0  0  0  0
 20 22  1  0  0  0  0
 22 10  1  0  0  0  0
 22  9  1  0  0  0  0
 25 26  1  0  0  0  0
 26 17  2  0  0  0  0
 27 24  1  1  0  0  0
 27  7  1  0  0  0  0
 28 11  1  0  0  0  0
 30 29  1  0  0  0  0
 30 28  1  0  0  0  0
M  END
>  <MODEL>
9

>  <REMARK>
 VINA RESULT:      -7.9      2.291      5.045
  Name = 
  2 active torsions:
  status: ('A' for Active; 'I' for Inactive)
    1  A    between atoms: N_11  and  C_28
    2  A    between atoms: C_28  and  N_30
                            x       y       z     vdW  Elec       q    Type
                         _______ _______ _______ _____ _____    ______ ____

>  <TORSDO>
F 2

$$$$
