=
 OpenBabel11122412033D

 34 41  0  0  1  0  0  0  0  0999 V2000
  186.7990  178.4470  141.4020 C   0  0  0  0  0  0  0  0  0  0  0  0
  185.4690  178.7690  139.2540 C   0  0  0  0  0  2  0  0  0  0  0  0
  187.1040  177.9610  148.0790 C   0  0  2  0  0  3  0  0  0  0  0  0
  187.8940  177.8870  143.4730 C   0  0  0  0  0  0  0  0  0  0  0  0
  186.5240  177.4330  145.6050 C   0  0  1  0  0  3  0  0  0  0  0  0
  186.7300  179.5850  146.9600 C   0  0  0  0  0  2  0  0  0  0  0  0
  187.5930  179.2780  148.0310 O   0  0  0  0  0  0  0  0  0  0  0  0
  189.3300  177.3050  146.9590 C   0  0  0  0  0  2  0  0  0  0  0  0
  184.4270  179.2790  141.3750 C   0  0  2  0  0  3  0  0  0  0  0  0
  181.7310  177.7210  141.6950 O   0  0  0  0  0  0  0  0  0  0  0  0
  185.3290  177.4330  144.6420 C   0  0  0  0  0  2  0  0  0  0  0  0
  188.9830  176.9180  145.5300 C   0  0  0  0  0  2  0  0  0  0  0  0
  184.2090  178.4480  142.6490 C   0  0  1  0  0  3  0  0  0  0  0  0
  184.0350  179.2070  138.9770 C   0  0  0  0  0  2  0  0  0  0  0  0
  187.8900  177.8230  144.9820 C   0  0  1  0  0  3  0  0  0  0  0  0
  188.2200  176.9100  147.9280 C   0  0  0  0  0  2  0  0  0  0  0  0
  182.3660  177.9520  140.4400 C   0  0  1  0  0  3  0  0  0  0  0  0
  186.7300  178.2670  142.7920 C   0  0  0  0  0  0  0  0  0  0  0  0
  186.1710  178.1820  146.9030 C   0  0  2  0  0  3  0  0  0  0  0  0
  185.4470  178.5030  143.5590 C   0  0  2  0  0  3  0  0  0  0  0  0
  189.0850  177.8490  141.4250 C   0  0  0  0  0  3  0  0  0  0  0  0
  181.7170  178.8790  142.4920 C   0  0  0  0  0  2  0  0  0  0  0  0
  189.0480  177.7010  142.7750 N   0  0  0  0  0  0  0  0  0  0  0  0
  182.9510  178.9050  143.3980 C   0  0  0  0  0  2  0  0  0  0  0  0
  183.3120  179.1900  140.3240 C   0  0  1  0  0  3  0  0  0  0  0  0
  187.9690  178.2190  140.7470 N   0  0  0  0  0  0  0  0  0  0  0  0
  185.6310  178.8620  140.6900 N   0  0  0  0  0  0  0  0  0  0  0  0
  183.0330  176.7850  140.0530 O   0  0  0  0  0  0  0  0  0  0  0  0
  182.0390  175.9650  139.5140 C   0  0  0  0  0  2  0  0  0  0  0  0
  184.0250  174.1410  137.5820 N   0  0  0  0  0  2  0  0  0  0  0  0
  181.7430  174.3940  137.6240 C   0  0  0  0  0  2  0  0  0  0  0  0
  182.3130  175.7230  138.0410 C   0  0  0  0  0  3  0  0  0  0  0  0
  182.8330  173.6220  137.0460 N   0  0  0  0  0  2  0  0  0  0  0  0
  183.7910  175.5550  137.8250 C   0  0  0  0  0  2  0  0  0  0  0  0
  1 18  1  0  0  0  0
  2 27  1  0  0  0  0
  3 16  1  6  0  0  0
  4 15  1  0  0  0  0
  5 11  1  6  0  0  0
  5 19  1  0  0  0  0
  6  7  1  0  0  0  0
  7  3  1  0  0  0  0
  8 16  1  0  0  0  0
  9 27  1  6  0  0  0
  9 13  1  0  0  0  0
 10 22  1  0  0  0  0
 12  8  1  0  0  0  0
 13 24  1  1  0  0  0
 13 20  1  0  0  0  0
 14  2  1  0  0  0  0
 15 12  1  6  0  0  0
 15  5  1  0  0  0  0
 17 28  1  1  0  0  0
 17 10  1  0  0  0  0
 18  4  2  0  0  0  0
 18 20  1  0  0  0  0
 19  6  1  6  0  0  0
 19  3  1  0  0  0  0
 20 11  1  1  0  0  0
 21 23  2  0  0  0  0
 22 24  1  0  0  0  0
 23  4  1  0  0  0  0
 25 14  1  6  0  0  0
 25 17  1  0  0  0  0
 25  9  1  0  0  0  0
 26  1  2  0  0  0  0
 26 21  1  0  0  0  0
 27  1  1  0  0  0  0
 29 28  1  0  0  0  0
 30 34  1  0  0  0  0
 31 32  1  0  0  0  0
 32 29  1  0  0  0  0
 33 30  1  0  0  0  0
 33 31  1  0  0  0  0
 34 32  1  0  0  0  0
M  END
>  <MODEL>
1

>  <REMARK>
 VINA RESULT:      -8.0      0.000      0.000
  Name = 
  3 active torsions:
  status: ('A' for Active; 'I' for Inactive)
    1  A    between atoms: C_17  and  O_28
    2  A    between atoms: O_28  and  C_29
    3  A    between atoms: C_29  and  C_32
                            x       y       z     vdW  Elec       q    Type
                         _______ _______ _______ _____ _____    ______ ____

>  <TORSDO>
F 3

$$$$
=
 OpenBabel11122412033D

 34 41  0  0  1  0  0  0  0  0999 V2000
  187.2600  178.1080  139.8460 C   0  0  0  0  0  0  0  0  0  0  0  0
  185.1670  178.7680  138.5530 C   0  0  0  0  0  2  0  0  0  0  0  0
  190.4580  176.9980  145.6290 C   0  0  2  0  0  3  0  0  0  0  0  0
  189.0770  177.2440  141.1710 C   0  0  0  0  0  0  0  0  0  0  0  0
  188.7610  176.7620  143.6800 C   0  0  1  0  0  3  0  0  0  0  0  0
  189.8570  178.7470  144.8490 C   0  0  0  0  0  2  0  0  0  0  0  0
  191.0560  178.2500  145.3990 O   0  0  0  0  0  0  0  0  0  0  0  0
  191.8260  176.1950  143.5980 C   0  0  0  0  0  2  0  0  0  0  0  0
  185.2740  179.2030  140.9290 C   0  0  2  0  0  3  0  0  0  0  0  0
  182.8170  177.9420  142.4030 O   0  0  0  0  0  0  0  0  0  0  0  0
  187.2740  176.9830  143.3710 C   0  0  0  0  0  2  0  0  0  0  0  0
  190.8230  175.9780  142.4760 C   0  0  0  0  0  2  0  0  0  0  0  0
  185.5350  178.2930  142.1380 C   0  0  1  0  0  3  0  0  0  0  0  0
  183.8400  179.3910  138.9730 C   0  0  0  0  0  2  0  0  0  0  0  0
  189.7420  177.0470  142.5130 C   0  0  1  0  0  3  0  0  0  0  0  0
  191.2250  175.8440  144.9570 C   0  0  0  0  0  2  0  0  0  0  0  0
  182.8470  178.2090  141.0040 C   0  0  1  0  0  3  0  0  0  0  0  0
  187.7980  177.8130  141.1080 C   0  0  0  0  0  0  0  0  0  0  0  0
  189.1390  177.4280  145.0160 C   0  0  2  0  0  3  0  0  0  0  0  0
  187.0440  178.1250  142.3830 C   0  0  2  0  0  3  0  0  0  0  0  0
  189.2010  177.2520  138.8050 C   0  0  0  0  0  3  0  0  0  0  0  0
  183.3280  179.0190  143.1500 C   0  0  0  0  0  2  0  0  0  0  0  0
  189.7540  176.9900  140.0180 N   0  0  0  0  0  0  0  0  0  0  0  0
  184.8270  178.8230  143.3910 C   0  0  0  0  0  2  0  0  0  0  0  0
  183.8060  179.3370  140.5020 C   0  0  1  0  0  3  0  0  0  0  0  0
  187.9650  177.8060  138.7230 N   0  0  0  0  0  0  0  0  0  0  0  0
  185.9680  178.7140  139.7580 N   0  0  0  0  0  0  0  0  0  0  0  0
  183.0950  177.0130  140.3230 O   0  0  0  0  0  0  0  0  0  0  0  0
  181.8320  176.5190  139.9910 C   0  0  0  0  0  2  0  0  0  0  0  0
  182.4230  176.8680  136.7460 N   0  0  0  0  0  2  0  0  0  0  0  0
  183.3640  175.5020  138.3330 C   0  0  0  0  0  2  0  0  0  0  0  0
  181.9240  175.6690  138.7360 C   0  0  0  0  0  3  0  0  0  0  0  0
  183.4840  175.9710  136.9610 N   0  0  0  0  0  2  0  0  0  0  0  0
  181.3200  176.4160  137.5790 C   0  0  0  0  0  2  0  0  0  0  0  0
  1 18  1  0  0  0  0
  2 14  1  0  0  0  0
  2 27  1  0  0  0  0
  3 16  1  6  0  0  0
  4 15  1  0  0  0  0
  5 11  1  6  0  0  0
  5 19  1  0  0  0  0
  6  7  1  0  0  0  0
  7  3  1  0  0  0  0
  8 16  1  0  0  0  0
  9 27  1  6  0  0  0
  9 13  1  0  0  0  0
 10 22  1  0  0  0  0
 12  8  1  0  0  0  0
 13 20  1  0  0  0  0
 13 24  1  1  0  0  0
 15 12  1  6  0  0  0
 15  5  1  0  0  0  0
 17 28  1  6  0  0  0
 17 10  1  0  0  0  0
 18  4  2  0  0  0  0
 18 20  1  0  0  0  0
 19  6  1  6  0  0  0
 19  3  1  0  0  0  0
 20 11  1  1  0  0  0
 21 23  2  0  0  0  0
 22 24  1  0  0  0  0
 23  4  1  0  0  0  0
 25 14  1  6  0  0  0
 25  9  1  0  0  0  0
 25 17  1  0  0  0  0
 26 21  1  0  0  0  0
 26  1  2  0  0  0  0
 27  1  1  0  0  0  0
 29 28  1  0  0  0  0
 30 33  1  0  0  0  0
 30 34  1  0  0  0  0
 31 32  1  0  0  0  0
 32 29  1  0  0  0  0
 33 31  1  0  0  0  0
 34 32  1  0  0  0  0
M  END
>  <MODEL>
2

>  <REMARK>
 VINA RESULT:      -7.8      1.926      2.564
  Name = 
  3 active torsions:
  status: ('A' for Active; 'I' for Inactive)
    1  A    between atoms: C_17  and  O_28
    2  A    between atoms: O_28  and  C_29
    3  A    between atoms: C_29  and  C_32
                            x       y       z     vdW  Elec       q    Type
                         _______ _______ _______ _____ _____    ______ ____

>  <TORSDO>
F 3

$$$$
=
 OpenBabel11122412033D

 34 41  0  0  1  0  0  0  0  0999 V2000
  187.1630  178.4160  140.9300 C   0  0  0  0  0  0  0  0  0  0  0  0
  186.0670  178.6620  138.6440 C   0  0  0  0  0  2  0  0  0  0  0  0
  186.7390  177.9320  147.6000 C   0  0  2  0  0  3  0  0  0  0  0  0
  188.0480  177.9180  143.1140 C   0  0  0  0  0  0  0  0  0  0  0  0
  186.4760  177.3770  145.0790 C   0  0  1  0  0  3  0  0  0  0  0  0
  186.3970  179.5330  146.4400 C   0  0  0  0  0  2  0  0  0  0  0  0
  187.1500  179.2760  147.6030 O   0  0  0  0  0  0  0  0  0  0  0  0
  189.1130  177.4150  146.7420 C   0  0  0  0  0  2  0  0  0  0  0  0
  184.7630  179.1030  140.6320 C   0  0  2  0  0  3  0  0  0  0  0  0
  182.1460  177.3850  140.6510 O   0  0  0  0  0  0  0  0  0  0  0  0
  185.4000  177.3070  143.9880 C   0  0  0  0  0  2  0  0  0  0  0  0
  188.9540  177.0110  145.2850 C   0  0  0  0  0  2  0  0  0  0  0  0
  184.4530  178.2570  141.8760 C   0  0  1  0  0  3  0  0  0  0  0  0
  184.6500  179.0150  138.2040 C   0  0  0  0  0  2  0  0  0  0  0  0
  187.8770  177.8490  144.6130 C   0  0  1  0  0  3  0  0  0  0  0  0
  187.9260  176.9500  147.5810 C   0  0  0  0  0  2  0  0  0  0  0  0
  182.9050  177.6570  139.4750 C   0  0  1  0  0  3  0  0  0  0  0  0
  186.9480  178.2280  142.3040 C   0  0  0  0  0  0  0  0  0  0  0  0
  185.9330  178.0990  146.3260 C   0  0  2  0  0  3  0  0  0  0  0  0
  185.5740  178.3850  142.9200 C   0  0  2  0  0  3  0  0  0  0  0  0
  189.4640  177.9570  141.2130 C   0  0  0  0  0  3  0  0  0  0  0  0
  181.9730  178.5390  141.4370 C   0  0  0  0  0  2  0  0  0  0  0  0
  189.2830  177.8030  142.5510 N   0  0  0  0  0  0  0  0  0  0  0  0
  183.0930  178.6370  142.4760 C   0  0  0  0  0  2  0  0  0  0  0  0
  183.7820  178.9510  139.4620 C   0  0  1  0  0  3  0  0  0  0  0  0
  188.4100  178.2610  140.4120 N   0  0  0  0  0  0  0  0  0  0  0  0
  186.0600  178.7610  140.0890 N   0  0  0  0  0  0  0  0  0  0  0  0
  183.6800  176.5340  139.1710 O   0  0  0  0  0  0  0  0  0  0  0  0
  182.7710  175.5880  138.6910 C   0  0  0  0  0  2  0  0  0  0  0  0
  185.5790  175.5010  136.9270 N   0  0  0  0  0  2  0  0  0  0  0  0
  184.3370  173.8380  137.9080 C   0  0  0  0  0  2  0  0  0  0  0  0
  183.3490  174.8870  137.4750 C   0  0  0  0  0  3  0  0  0  0  0  0
  185.5960  174.1300  137.2400 N   0  0  0  0  0  2  0  0  0  0  0  0
  184.1890  175.8560  136.6890 C   0  0  0  0  0  2  0  0  0  0  0  0
  1 18  1  0  0  0  0
  2 27  1  0  0  0  0
  3 16  1  6  0  0  0
  3  7  1  0  0  0  0
  4 15  1  0  0  0  0
  5 11  1  6  0  0  0
  5 19  1  0  0  0  0
  6  7  1  0  0  0  0
  8 16  1  0  0  0  0
  9 27  1  6  0  0  0
  9 13  1  0  0  0  0
 10 22  1  0  0  0  0
 12  8  1  0  0  0  0
 13 24  1  1  0  0  0
 13 20  1  0  0  0  0
 14  2  1  0  0  0  0
 15  5  1  0  0  0  0
 15 12  1  6  0  0  0
 17 28  1  1  0  0  0
 17 10  1  0  0  0  0
 18 20  1  0  0  0  0
 18  4  2  0  0  0  0
 19  6  1  6  0  0  0
 19  3  1  0  0  0  0
 20 11  1  1  0  0  0
 21 23  2  0  0  0  0
 22 24  1  0  0  0  0
 23  4  1  0  0  0  0
 25 14  1  6  0  0  0
 25 17  1  0  0  0  0
 25  9  1  0  0  0  0
 26  1  2  0  0  0  0
 26 21  1  0  0  0  0
 27  1  1  0  0  0  0
 29 28  1  0  0  0  0
 30 33  1  0  0  0  0
 32 31  1  0  0  0  0
 32 29  1  0  0  0  0
 33 31  1  0  0  0  0
 34 30  1  0  0  0  0
 34 32  1  0  0  0  0
M  END
>  <MODEL>
3

>  <REMARK>
 VINA RESULT:      -7.1      0.955      1.088
  Name = 
  3 active torsions:
  status: ('A' for Active; 'I' for Inactive)
    1  A    between atoms: C_17  and  O_28
    2  A    between atoms: O_28  and  C_29
    3  A    between atoms: C_29  and  C_32
                            x       y       z     vdW  Elec       q    Type
                         _______ _______ _______ _____ _____    ______ ____

>  <TORSDO>
F 3

$$$$
=
 OpenBabel11122412033D

 34 41  0  0  1  0  0  0  0  0999 V2000
  189.5180  177.8290  141.2970 C   0  0  0  0  0  0  0  0  0  0  0  0
  190.1650  177.7270  138.8350 C   0  0  0  0  0  2  0  0  0  0  0  0
  184.9270  178.6280  146.1120 C   0  0  2  0  0  3  0  0  0  0  0  0
  188.7310  177.6800  143.5690 C   0  0  0  0  0  0  0  0  0  0  0  0
  186.2100  177.6340  144.0870 C   0  0  1  0  0  3  0  0  0  0  0  0
  185.6810  180.0060  144.8630 C   0  0  0  0  0  2  0  0  0  0  0  0
  185.4760  179.9140  146.2540 O   0  0  0  0  0  0  0  0  0  0  0  0
  187.1740  177.7810  147.0490 C   0  0  0  0  0  2  0  0  0  0  0  0
  188.0080  178.6280  139.4530 C   0  0  2  0  0  3  0  0  0  0  0  0
  185.7070  177.1460  137.9340 O   0  0  0  0  0  0  0  0  0  0  0  0
  186.0660  177.4440  142.5720 C   0  0  0  0  0  2  0  0  0  0  0  0
  187.8950  177.1270  145.8810 C   0  0  0  0  0  2  0  0  0  0  0  0
  186.8420  178.0540  140.2720 C   0  0  1  0  0  3  0  0  0  0  0  0
  189.4290  178.0980  137.5530 C   0  0  0  0  0  2  0  0  0  0  0  0
  187.6490  177.9050  144.5980 C   0  0  1  0  0  3  0  0  0  0  0  0
  185.6640  177.5730  146.9580 C   0  0  0  0  0  2  0  0  0  0  0  0
  187.0670  177.1360  137.5110 C   0  0  1  0  0  3  0  0  0  0  0  0
  188.4600  177.9170  142.2150 C   0  0  0  0  0  0  0  0  0  0  0  0
  185.1450  178.6150  144.6110 C   0  0  2  0  0  3  0  0  0  0  0  0
  187.0600  178.2880  141.7760 C   0  0  2  0  0  3  0  0  0  0  0  0
  191.0040  177.2570  143.0440 C   0  0  0  0  0  3  0  0  0  0  0  0
  185.2870  178.4350  138.3080 C   0  0  0  0  0  2  0  0  0  0  0  0
  190.0000  177.3700  143.9540 N   0  0  0  0  0  0  0  0  0  0  0  0
  185.5020  178.6400  139.8100 C   0  0  0  0  0  2  0  0  0  0  0  0
  187.9710  178.3350  137.9470 C   0  0  1  0  0  3  0  0  0  0  0  0
  190.7610  177.4860  141.7280 N   0  0  0  0  0  0  0  0  0  0  0  0
  189.2710  178.0940  139.9140 N   0  0  0  0  0  0  0  0  0  0  0  0
  187.6470  175.9200  137.8870 O   0  0  0  0  0  0  0  0  0  0  0  0
  187.0970  174.9750  137.0180 C   0  0  0  0  0  2  0  0  0  0  0  0
  189.7840  175.4580  135.1330 N   0  0  0  0  0  2  0  0  0  0  0  0
  189.4910  174.3530  137.1240 C   0  0  0  0  0  2  0  0  0  0  0  0
  188.2070  174.1730  136.3610 C   0  0  0  0  0  3  0  0  0  0  0  0
  190.4870  174.8380  136.1800 N   0  0  0  0  0  2  0  0  0  0  0  0
  188.5160  174.7570  135.0110 C   0  0  0  0  0  2  0  0  0  0  0  0
  1 26  2  0  0  0  0
  1 18  1  0  0  0  0
  2 27  1  0  0  0  0
  3  7  1  0  0  0  0
  3 16  1  1  0  0  0
  4 23  1  0  0  0  0
  4 15  1  0  0  0  0
  5 11  1  6  0  0  0
  5 15  1  0  0  0  0
  5 19  1  0  0  0  0
  6  7  1  0  0  0  0
  9 27  1  1  0  0  0
  9 13  1  0  0  0  0
 10 22  1  0  0  0  0
 12  8  1  0  0  0  0
 13 24  1  6  0  0  0
 13 20  1  0  0  0  0
 14  2  1  0  0  0  0
 15 12  1  1  0  0  0
 16  8  1  0  0  0  0
 17 28  1  1  0  0  0
 17 10  1  0  0  0  0
 17 25  1  0  0  0  0
 18  4  2  0  0  0  0
 19  6  1  1  0  0  0
 19  3  1  0  0  0  0
 20 18  1  0  0  0  0
 20 11  1  1  0  0  0
 21 23  2  0  0  0  0
 22 24  1  0  0  0  0
 25 14  1  1  0  0  0
 25  9  1  0  0  0  0
 26 21  1  0  0  0  0
 27  1  1  0  0  0  0
 29 28  1  0  0  0  0
 30 33  1  0  0  0  0
 32 29  1  0  0  0  0
 32 31  1  0  0  0  0
 33 31  1  0  0  0  0
 34 30  1  0  0  0  0
 34 32  1  0  0  0  0
M  END
>  <MODEL>
4

>  <REMARK>
 VINA RESULT:      -7.1      3.018      4.266
  Name = 
  3 active torsions:
  status: ('A' for Active; 'I' for Inactive)
    1  A    between atoms: C_17  and  O_28
    2  A    between atoms: O_28  and  C_29
    3  A    between atoms: C_29  and  C_32
                            x       y       z     vdW  Elec       q    Type
                         _______ _______ _______ _____ _____    ______ ____

>  <TORSDO>
F 3

$$$$
=
 OpenBabel11122412033D

 34 41  0  0  1  0  0  0  0  0999 V2000
  186.0230  176.9780  137.1410 C   0  0  0  0  0  0  0  0  0  0  0  0
  187.9010  178.6570  137.5230 C   0  0  0  0  0  2  0  0  0  0  0  0
  183.9150  170.7380  135.9060 C   0  0  2  0  0  3  0  0  0  0  0  0
  184.3460  175.2520  137.0360 C   0  0  0  0  0  0  0  0  0  0  0  0
  185.0110  172.7660  137.0980 C   0  0  1  0  0  3  0  0  0  0  0  0
  184.8540  172.0080  134.6670 C   0  0  0  0  0  2  0  0  0  0  0  0
  183.7020  171.1990  134.5950 O   0  0  0  0  0  0  0  0  0  0  0  0
  181.9750  172.3030  136.5590 C   0  0  0  0  0  2  0  0  0  0  0  0
  188.4310  176.4760  136.6220 C   0  0  2  0  0  3  0  0  0  0  0  0
  190.6240  175.0620  138.3510 O   0  0  0  0  0  0  0  0  0  0  0  0
  186.3940  173.3120  137.4770 C   0  0  0  0  0  2  0  0  0  0  0  0
  182.6050  173.4530  137.3290 C   0  0  0  0  0  2  0  0  0  0  0  0
  188.1580  175.0520  137.1290 C   0  0  1  0  0  3  0  0  0  0  0  0
  189.4120  178.5840  137.3360 C   0  0  0  0  0  2  0  0  0  0  0  0
  183.9470  173.8300  136.7220 C   0  0  1  0  0  3  0  0  0  0  0  0
  182.7050  170.9890  136.8260 C   0  0  0  0  0  2  0  0  0  0  0  0
  190.3880  176.4670  138.3690 C   0  0  1  0  0  3  0  0  0  0  0  0
  185.6960  175.6230  136.9760 C   0  0  0  0  0  0  0  0  0  0  0  0
  185.1450  171.6060  136.0950 C   0  0  2  0  0  3  0  0  0  0  0  0
  186.7570  174.5790  136.7050 C   0  0  2  0  0  3  0  0  0  0  0  0
  183.7400  177.5060  137.4480 C   0  0  0  0  0  3  0  0  0  0  0  0
  190.6400  174.5540  137.0400 C   0  0  0  0  0  2  0  0  0  0  0  0
  183.3990  176.2050  137.2570 N   0  0  0  0  0  0  0  0  0  0  0  0
  189.2390  174.0780  136.6460 C   0  0  0  0  0  2  0  0  0  0  0  0
  189.7450  177.1100  137.0990 C   0  0  1  0  0  3  0  0  0  0  0  0
  185.0420  177.8860  137.3900 N   0  0  0  0  0  0  0  0  0  0  0  0
  187.3910  177.3840  137.0560 N   0  0  0  0  0  0  0  0  0  0  0  0
  189.6450  176.7830  139.5110 O   0  0  0  0  0  0  0  0  0  0  0  0
  190.5740  176.7900  140.5540 C   0  0  0  0  0  2  0  0  0  0  0  0
  188.5760  176.3490  143.1660 N   0  0  0  0  0  2  0  0  0  0  0  0
  190.7180  177.1600  142.9980 C   0  0  0  0  0  2  0  0  0  0  0  0
  190.0200  177.5740  141.7310 C   0  0  0  0  0  3  0  0  0  0  0  0
  189.6890  176.7320  143.9350 N   0  0  0  0  0  2  0  0  0  0  0  0
  188.5900  177.1770  141.9710 C   0  0  0  0  0  2  0  0  0  0  0  0
  1 26  1  0  0  0  0
  3 19  1  0  0  0  0
  3 16  1  1  0  0  0
  4 23  2  0  0  0  0
  5 11  1  6  0  0  0
  7  6  1  0  0  0  0
  7  3  1  0  0  0  0
  8 16  1  0  0  0  0
  8 12  1  0  0  0  0
  9 27  1  1  0  0  0
  9 25  1  0  0  0  0
  9 13  1  0  0  0  0
 10 17  1  0  0  0  0
 13 24  1  6  0  0  0
 14  2  1  0  0  0  0
 15  4  1  0  0  0  0
 15  5  1  0  0  0  0
 15 12  1  1  0  0  0
 17 28  1  1  0  0  0
 18  4  1  0  0  0  0
 18  1  2  0  0  0  0
 19  6  1  6  0  0  0
 19  5  1  0  0  0  0
 20 18  1  0  0  0  0
 20 13  1  0  0  0  0
 20 11  1  1  0  0  0
 22 10  1  0  0  0  0
 23 21  1  0  0  0  0
 24 22  1  0  0  0  0
 25 14  1  1  0  0  0
 25 17  1  0  0  0  0
 26 21  2  0  0  0  0
 27  1  1  0  0  0  0
 27  2  1  0  0  0  0
 28 29  1  0  0  0  0
 29 32  1  0  0  0  0
 30 33  1  0  0  0  0
 31 33  1  0  0  0  0
 32 34  1  0  0  0  0
 32 31  1  0  0  0  0
 34 30  1  0  0  0  0
M  END
>  <MODEL>
5

>  <REMARK>
 VINA RESULT:      -7.0      4.304      9.492
  Name = 
  3 active torsions:
  status: ('A' for Active; 'I' for Inactive)
    1  A    between atoms: C_17  and  O_28
    2  A    between atoms: O_28  and  C_29
    3  A    between atoms: C_29  and  C_32
                            x       y       z     vdW  Elec       q    Type
                         _______ _______ _______ _____ _____    ______ ____

>  <TORSDO>
F 3

$$$$
=
 OpenBabel11122412033D

 34 41  0  0  1  0  0  0  0  0999 V2000
  189.3970  177.7790  141.1770 C   0  0  0  0  0  0  0  0  0  0  0  0
  190.0930  177.6190  138.7310 C   0  0  0  0  0  2  0  0  0  0  0  0
  184.7350  178.8040  145.8790 C   0  0  2  0  0  3  0  0  0  0  0  0
  188.5580  177.6910  143.4320 C   0  0  0  0  0  0  0  0  0  0  0  0
  186.0260  177.7380  143.8960 C   0  0  1  0  0  3  0  0  0  0  0  0
  185.5610  180.1370  144.6270 C   0  0  0  0  0  2  0  0  0  0  0  0
  185.3240  180.0730  146.0150 O   0  0  0  0  0  0  0  0  0  0  0  0
  186.9300  177.8960  146.8760 C   0  0  0  0  0  2  0  0  0  0  0  0
  187.9550  178.6010  139.2890 C   0  0  2  0  0  3  0  0  0  0  0  0
  185.6370  177.1750  137.7410 O   0  0  0  0  0  0  0  0  0  0  0  0
  185.9080  177.5300  142.3810 C   0  0  0  0  0  2  0  0  0  0  0  0
  187.6540  177.2000  145.7340 C   0  0  0  0  0  2  0  0  0  0  0  0
  186.7530  178.0790  140.0900 C   0  0  1  0  0  3  0  0  0  0  0  0
  189.3980  177.9950  137.4280 C   0  0  0  0  0  2  0  0  0  0  0  0
  187.4620  177.9670  144.4350 C   0  0  1  0  0  3  0  0  0  0  0  0
  185.4170  177.7370  146.7550 C   0  0  0  0  0  2  0  0  0  0  0  0
  187.0060  177.1130  137.3480 C   0  0  1  0  0  3  0  0  0  0  0  0
  188.3240  177.9160  142.0690 C   0  0  0  0  0  0  0  0  0  0  0  0
  184.9840  178.7610  144.3830 C   0  0  2  0  0  3  0  0  0  0  0  0
  186.9470  178.3280  141.5950 C   0  0  2  0  0  3  0  0  0  0  0  0
  190.8250  177.1830  142.9640 C   0  0  0  0  0  3  0  0  0  0  0  0
  185.2540  178.4830  138.0880 C   0  0  0  0  0  2  0  0  0  0  0  0
  189.8060  177.3430  143.8490 N   0  0  0  0  0  0  0  0  0  0  0  0
  185.4440  178.7030  139.5910 C   0  0  0  0  0  2  0  0  0  0  0  0
  187.9400  178.2870  137.7870 C   0  0  1  0  0  3  0  0  0  0  0  0
  190.6190  177.4000  141.6390 N   0  0  0  0  0  0  0  0  0  0  0  0
  189.1890  178.0310  139.7850 N   0  0  0  0  0  0  0  0  0  0  0  0
  187.5350  175.8840  137.7540 O   0  0  0  0  0  0  0  0  0  0  0  0
  187.2050  174.9940  136.7300 C   0  0  0  0  0  2  0  0  0  0  0  0
  184.7040  172.8510  136.3350 N   0  0  0  0  0  2  0  0  0  0  0  0
  186.9800  172.5530  136.3830 C   0  0  0  0  0  2  0  0  0  0  0  0
  186.6940  173.6930  137.3230 C   0  0  0  0  0  3  0  0  0  0  0  0
  185.7110  171.8970  136.1040 N   0  0  0  0  0  2  0  0  0  0  0  0
  185.1930  173.7260  137.3880 C   0  0  0  0  0  2  0  0  0  0  0  0
  1 26  2  0  0  0  0
  1 18  1  0  0  0  0
  2 27  1  0  0  0  0
  3  7  1  0  0  0  0
  3 16  1  1  0  0  0
  4 23  1  0  0  0  0
  4 15  1  0  0  0  0
  5 11  1  6  0  0  0
  5 19  1  0  0  0  0
  5 15  1  0  0  0  0
  6  7  1  0  0  0  0
  9 27  1  1  0  0  0
  9 13  1  0  0  0  0
 10 22  1  0  0  0  0
 12  8  1  0  0  0  0
 13 24  1  6  0  0  0
 13 20  1  0  0  0  0
 14  2  1  0  0  0  0
 15 12  1  1  0  0  0
 16  8  1  0  0  0  0
 17 10  1  0  0  0  0
 17 28  1  1  0  0  0
 17 25  1  0  0  0  0
 18  4  2  0  0  0  0
 19  6  1  1  0  0  0
 19  3  1  0  0  0  0
 20 18  1  0  0  0  0
 20 11  1  1  0  0  0
 21 23  2  0  0  0  0
 22 24  1  0  0  0  0
 25 14  1  1  0  0  0
 25  9  1  0  0  0  0
 26 21  1  0  0  0  0
 27  1  1  0  0  0  0
 29 32  1  0  0  0  0
 29 28  1  0  0  0  0
 30 34  1  0  0  0  0
 31 32  1  0  0  0  0
 32 34  1  0  0  0  0
 33 30  1  0  0  0  0
 33 31  1  0  0  0  0
M  END
>  <MODEL>
6

>  <REMARK>
 VINA RESULT:      -6.9      2.406      3.759
  Name = 
  3 active torsions:
  status: ('A' for Active; 'I' for Inactive)
    1  A    between atoms: C_17  and  O_28
    2  A    between atoms: O_28  and  C_29
    3  A    between atoms: C_29  and  C_32
                            x       y       z     vdW  Elec       q    Type
                         _______ _______ _______ _____ _____    ______ ____

>  <TORSDO>
F 3

$$$$
=
 OpenBabel11122412033D

 34 41  0  0  1  0  0  0  0  0999 V2000
  186.1760  178.3590  139.4600 C   0  0  0  0  0  0  0  0  0  0  0  0
  187.8280  177.7330  137.6250 C   0  0  0  0  0  2  0  0  0  0  0  0
  179.8950  179.0570  141.6890 C   0  0  2  0  0  3  0  0  0  0  0  0
  184.5250  178.6580  141.1880 C   0  0  0  0  0  0  0  0  0  0  0  0
  182.0760  177.9650  140.8000 C   0  0  1  0  0  3  0  0  0  0  0  0
  180.8650  180.1600  140.3210 C   0  0  0  0  0  2  0  0  0  0  0  0
  180.1000  180.4300  141.4730 O   0  0  0  0  0  0  0  0  0  0  0  0
  181.6260  179.2990  143.5830 C   0  0  0  0  0  2  0  0  0  0  0  0
  185.4970  178.0360  137.0610 C   0  0  2  0  0  3  0  0  0  0  0  0
  184.3670  175.5100  135.5980 O   0  0  0  0  0  0  0  0  0  0  0  0
  182.6350  177.2910  139.5410 C   0  0  0  0  0  2  0  0  0  0  0  0
  182.8810  178.5910  143.0970 C   0  0  0  0  0  2  0  0  0  0  0  0
  184.2090  177.3940  137.5990 C   0  0  1  0  0  3  0  0  0  0  0  0
  187.6660  177.4430  136.1370 C   0  0  0  0  0  2  0  0  0  0  0  0
  183.0830  178.8230  141.6090 C   0  0  1  0  0  3  0  0  0  0  0  0
  180.3640  178.6010  143.0840 C   0  0  0  0  0  2  0  0  0  0  0  0
  185.7570  175.8100  135.6980 C   0  0  1  0  0  3  0  0  0  0  0  0
  184.8280  178.3760  139.8490 C   0  0  0  0  0  0  0  0  0  0  0  0
  180.7380  178.6630  140.4910 C   0  0  2  0  0  3  0  0  0  0  0  0
  183.7130  178.1280  138.8560 C   0  0  2  0  0  3  0  0  0  0  0  0
  186.8360  178.8480  141.6760 C   0  0  0  0  0  3  0  0  0  0  0  0
  183.6140  176.6460  135.2520 C   0  0  0  0  0  2  0  0  0  0  0  0
  185.5360  178.9020  142.0660 N   0  0  0  0  0  0  0  0  0  0  0  0
  183.1210  177.3520  136.5190 C   0  0  0  0  0  2  0  0  0  0  0  0
  186.1630  177.3070  135.8870 C   0  0  1  0  0  3  0  0  0  0  0  0
  187.1500  178.5790  140.3830 N   0  0  0  0  0  0  0  0  0  0  0  0
  186.5080  178.1010  138.0930 N   0  0  0  0  0  0  0  0  0  0  0  0
  186.3160  175.0170  136.7060 O   0  0  0  0  0  0  0  0  0  0  0  0
  186.8450  173.9090  136.0400 C   0  0  0  0  0  2  0  0  0  0  0  0
  184.1000  172.5150  137.2760 N   0  0  0  0  0  2  0  0  0  0  0  0
  185.6630  171.7490  135.7790 C   0  0  0  0  0  2  0  0  0  0  0  0
  186.4120  172.6330  136.7400 C   0  0  0  0  0  3  0  0  0  0  0  0
  184.3650  171.4690  136.3740 N   0  0  0  0  0  2  0  0  0  0  0  0
  185.3850  172.9590  137.7890 C   0  0  0  0  0  2  0  0  0  0  0  0
  1 18  2  0  0  0  0
  1 26  1  0  0  0  0
  2 27  1  0  0  0  0
  3 16  1  1  0  0  0
  4 15  1  0  0  0  0
  4 23  2  0  0  0  0
  5 11  1  6  0  0  0
  5 15  1  0  0  0  0
  6  7  1  0  0  0  0
  7  3  1  0  0  0  0
  9 13  1  0  0  0  0
  9 27  1  1  0  0  0
 10 17  1  0  0  0  0
 12  8  1  0  0  0  0
 13 24  1  6  0  0  0
 13 20  1  0  0  0  0
 14  2  1  0  0  0  0
 15 12  1  1  0  0  0
 16  8  1  0  0  0  0
 17 25  1  0  0  0  0
 17 28  1  1  0  0  0
 18  4  1  0  0  0  0
 19  6  1  1  0  0  0
 19  5  1  0  0  0  0
 19  3  1  0  0  0  0
 20 11  1  1  0  0  0
 20 18  1  0  0  0  0
 21 23  1  0  0  0  0
 22 10  1  0  0  0  0
 22 24  1  0  0  0  0
 25 14  1  1  0  0  0
 25  9  1  0  0  0  0
 26 21  2  0  0  0  0
 27  1  1  0  0  0  0
 29 28  1  0  0  0  0
 29 32  1  0  0  0  0
 30 34  1  0  0  0  0
 31 33  1  0  0  0  0
 31 32  1  0  0  0  0
 32 34  1  0  0  0  0
 33 30  1  0  0  0  0
M  END
>  <MODEL>
7

>  <REMARK>
 VINA RESULT:      -6.7      3.607      5.946
  Name = 
  3 active torsions:
  status: ('A' for Active; 'I' for Inactive)
    1  A    between atoms: C_17  and  O_28
    2  A    between atoms: O_28  and  C_29
    3  A    between atoms: C_29  and  C_32
                            x       y       z     vdW  Elec       q    Type
                         _______ _______ _______ _____ _____    ______ ____

>  <TORSDO>
F 3

$$$$
=
 OpenBabel11122412033D

 34 41  0  0  1  0  0  0  0  0999 V2000
  182.1410  178.7300  143.1690 C   0  0  0  0  0  0  0  0  0  0  0  0
  183.7310  179.3200  145.0700 C   0  0  0  0  0  2  0  0  0  0  0  0
  181.0050  177.3080  136.7200 C   0  0  2  0  0  3  0  0  0  0  0  0
  180.7930  177.9080  141.3500 C   0  0  0  0  0  0  0  0  0  0  0  0
  181.8840  177.1230  139.1550 C   0  0  1  0  0  3  0  0  0  0  0  0
  181.5260  179.0640  137.5390 C   0  0  0  0  0  2  0  0  0  0  0  0
  180.5350  178.6300  136.6370 O   0  0  0  0  0  0  0  0  0  0  0  0
  178.9310  176.8730  138.1860 C   0  0  0  0  0  2  0  0  0  0  0  0
  184.5040  179.4980  142.7860 C   0  0  2  0  0  3  0  0  0  0  0  0
  187.1290  177.8440  142.3670 O   0  0  0  0  0  0  0  0  0  0  0  0
  183.1900  177.2290  139.9540 C   0  0  0  0  0  2  0  0  0  0  0  0
  179.4510  176.6840  139.6030 C   0  0  0  0  0  2  0  0  0  0  0  0
  184.5570  178.4890  141.6280 C   0  0  1  0  0  3  0  0  0  0  0  0
  185.1910  179.7580  145.1040 C   0  0  0  0  0  2  0  0  0  0  0  0
  180.6090  177.6300  139.8770 C   0  0  1  0  0  3  0  0  0  0  0  0
  179.9100  176.3160  137.1560 C   0  0  0  0  0  2  0  0  0  0  0  0
  186.6560  178.2670  143.6430 C   0  0  1  0  0  3  0  0  0  0  0  0
  182.0360  178.3520  141.8220 C   0  0  0  0  0  0  0  0  0  0  0  0
  182.0790  177.6700  137.7290 C   0  0  2  0  0  3  0  0  0  0  0  0
  183.2150  178.4450  140.8780 C   0  0  2  0  0  3  0  0  0  0  0  0
  179.8660  178.1900  143.5130 C   0  0  0  0  0  3  0  0  0  0  0  0
  187.0510  178.8770  141.4150 C   0  0  0  0  0  2  0  0  0  0  0  0
  179.7340  177.8510  142.2030 N   0  0  0  0  0  0  0  0  0  0  0  0
  185.7140  178.8050  140.6730 C   0  0  0  0  0  2  0  0  0  0  0  0
  185.7400  179.5320  143.6940 C   0  0  1  0  0  3  0  0  0  0  0  0
  181.0610  178.6260  143.9880 N   0  0  0  0  0  0  0  0  0  0  0  0
  183.3920  179.2120  143.6660 N   0  0  0  0  0  0  0  0  0  0  0  0
  186.0350  177.1840  144.2730 O   0  0  0  0  0  0  0  0  0  0  0  0
  187.0580  176.5390  144.9730 C   0  0  0  0  0  2  0  0  0  0  0  0
  188.6440  176.9130  147.8630 N   0  0  0  0  0  2  0  0  0  0  0  0
  189.3530  177.1310  145.6900 C   0  0  0  0  0  2  0  0  0  0  0  0
  187.9110  177.5640  145.6980 C   0  0  0  0  0  3  0  0  0  0  0  0
  189.7960  177.0850  147.0750 N   0  0  0  0  0  2  0  0  0  0  0  0
  187.5550  177.5710  147.1590 C   0  0  0  0  0  2  0  0  0  0  0  0
  1 27  1  0  0  0  0
  1 26  1  0  0  0  0
  2 14  1  0  0  0  0
  3 16  1  1  0  0  0
  3 19  1  0  0  0  0
  4 18  1  0  0  0  0
  4 23  2  0  0  0  0
  5 15  1  0  0  0  0
  5 11  1  1  0  0  0
  7  3  1  0  0  0  0
  7  6  1  0  0  0  0
  8 12  1  0  0  0  0
  9 27  1  1  0  0  0
  9 25  1  0  0  0  0
 10 17  1  0  0  0  0
 13 24  1  6  0  0  0
 13  9  1  0  0  0  0
 15 12  1  1  0  0  0
 15  4  1  0  0  0  0
 16  8  1  0  0  0  0
 17 25  1  0  0  0  0
 17 28  1  6  0  0  0
 18  1  2  0  0  0  0
 19  6  1  1  0  0  0
 19  5  1  0  0  0  0
 20 11  1  6  0  0  0
 20 13  1  0  0  0  0
 20 18  1  0  0  0  0
 21 26  2  0  0  0  0
 22 10  1  0  0  0  0
 23 21  1  0  0  0  0
 24 22  1  0  0  0  0
 25 14  1  1  0  0  0
 27  2  1  0  0  0  0
 28 29  1  0  0  0  0
 29 32  1  0  0  0  0
 31 32  1  0  0  0  0
 31 33  1  0  0  0  0
 32 34  1  0  0  0  0
 33 30  1  0  0  0  0
 34 30  1  0  0  0  0
M  END
>  <MODEL>
8

>  <REMARK>
 VINA RESULT:      -6.6      2.957      8.576
  Name = 
  3 active torsions:
  status: ('A' for Active; 'I' for Inactive)
    1  A    between atoms: C_17  and  O_28
    2  A    between atoms: O_28  and  C_29
    3  A    between atoms: C_29  and  C_32
                            x       y       z     vdW  Elec       q    Type
                         _______ _______ _______ _____ _____    ______ ____

>  <TORSDO>
F 3

$$$$
=
 OpenBabel11122412033D

 34 41  0  0  1  0  0  0  0  0999 V2000
  188.3650  177.0390  138.2940 C   0  0  0  0  0  0  0  0  0  0  0  0
  187.0100  178.2580  140.0750 C   0  0  0  0  0  2  0  0  0  0  0  0
  194.1240  174.4000  136.1110 C   0  0  2  0  0  3  0  0  0  0  0  0
  189.6820  175.6650  136.8180 C   0  0  0  0  0  0  0  0  0  0  0  0
  191.9960  174.8000  137.5410 C   0  0  1  0  0  3  0  0  0  0  0  0
  193.6470  176.3350  136.3450 C   0  0  0  0  0  2  0  0  0  0  0  0
  194.2130  175.5560  135.3170 O   0  0  0  0  0  0  0  0  0  0  0  0
  192.1340  173.7570  134.6050 C   0  0  0  0  0  2  0  0  0  0  0  0
  189.4230  178.2370  140.2350 C   0  0  2  0  0  3  0  0  0  0  0  0
  190.3440  177.1550  143.0250 O   0  0  0  0  0  0  0  0  0  0  0  0
  191.5780  175.3160  138.9240 C   0  0  0  0  0  2  0  0  0  0  0  0
  190.8900  173.9140  135.4650 C   0  0  0  0  0  2  0  0  0  0  0  0
  190.4490  177.0940  140.2740 C   0  0  1  0  0  3  0  0  0  0  0  0
  187.4000  179.0060  141.3440 C   0  0  0  0  0  2  0  0  0  0  0  0
  191.0210  175.1230  136.3790 C   0  0  1  0  0  3  0  0  0  0  0  0
  193.3240  173.2740  135.4310 C   0  0  0  0  0  2  0  0  0  0  0  0
  189.0370  177.6600  142.7650 C   0  0  1  0  0  3  0  0  0  0  0  0
  189.5950  176.4390  137.9820 C   0  0  0  0  0  0  0  0  0  0  0  0
  193.4700  175.1440  137.2600 C   0  0  2  0  0  3  0  0  0  0  0  0
  190.8170  176.6380  138.8520 C   0  0  2  0  0  3  0  0  0  0  0  0
  187.3910  176.0750  136.3690 C   0  0  0  0  0  3  0  0  0  0  0  0
  191.3390  177.9820  142.4740 C   0  0  0  0  0  2  0  0  0  0  0  0
  188.5810  175.5120  136.0310 N   0  0  0  0  0  0  0  0  0  0  0  0
  191.6980  177.5010  141.0650 C   0  0  0  0  0  2  0  0  0  0  0  0
  188.8740  178.6850  141.5960 C   0  0  1  0  0  3  0  0  0  0  0  0
  187.2880  176.8320  137.4920 N   0  0  0  0  0  0  0  0  0  0  0  0
  188.2600  177.8570  139.4620 N   0  0  0  0  0  0  0  0  0  0  0  0
  188.1630  176.5810  142.5980 O   0  0  0  0  0  0  0  0  0  0  0  0
  187.6050  176.3700  143.8610 C   0  0  0  0  0  2  0  0  0  0  0  0
  185.7950  177.8070  146.2400 N   0  0  0  0  0  2  0  0  0  0  0  0
  188.0600  177.5130  146.0090 C   0  0  0  0  0  2  0  0  0  0  0  0
  187.5230  177.6860  144.6140 C   0  0  0  0  0  3  0  0  0  0  0  0
  187.0140  177.9370  146.9280 N   0  0  0  0  0  2  0  0  0  0  0  0
  186.0810  178.0480  144.8350 C   0  0  0  0  0  2  0  0  0  0  0  0
  1 27  1  0  0  0  0
  2 14  1  0  0  0  0
  3 16  1  6  0  0  0
  3 19  1  0  0  0  0
  4 18  2  0  0  0  0
  5 11  1  1  0  0  0
  7  3  1  0  0  0  0
  7  6  1  0  0  0  0
  8 16  1  0  0  0  0
  8 12  1  0  0  0  0
  9 27  1  6  0  0  0
  9 13  1  0  0  0  0
  9 25  1  0  0  0  0
 13 24  1  6  0  0  0
 15 12  1  1  0  0  0
 15  4  1  0  0  0  0
 15  5  1  0  0  0  0
 17 28  1  6  0  0  0
 17 10  1  0  0  0  0
 18  1  1  0  0  0  0
 18 20  1  0  0  0  0
 19  6  1  6  0  0  0
 19  5  1  0  0  0  0
 20 11  1  1  0  0  0
 20 13  1  0  0  0  0
 21 26  1  0  0  0  0
 22 10  1  0  0  0  0
 23 21  2  0  0  0  0
 23  4  1  0  0  0  0
 24 22  1  0  0  0  0
 25 14  1  6  0  0  0
 25 17  1  0  0  0  0
 26  1  2  0  0  0  0
 27  2  1  0  0  0  0
 28 29  1  0  0  0  0
 29 32  1  0  0  0  0
 30 33  1  0  0  0  0
 31 33  1  0  0  0  0
 32 34  1  0  0  0  0
 32 31  1  0  0  0  0
 34 30  1  0  0  0  0
M  END
>  <MODEL>
9

>  <REMARK>
 VINA RESULT:      -6.6      5.023      9.004
  Name = 
  3 active torsions:
  status: ('A' for Active; 'I' for Inactive)
    1  A    between atoms: C_17  and  O_28
    2  A    between atoms: O_28  and  C_29
    3  A    between atoms: C_29  and  C_32
                            x       y       z     vdW  Elec       q    Type
                         _______ _______ _______ _____ _____    ______ ____

>  <TORSDO>
F 3

$$$$
