=
 OpenBabel11122412273D

 34 42  0  0  1  0  0  0  0  0999 V2000
  187.8480  177.1030  138.2020 C   0  0  2  0  0  3  0  0  0  0  0  0
  186.7210  178.3580  139.9090 O   0  0  0  0  0  0  0  0  0  0  0  0
  193.2770  174.2230  135.6690 C   0  0  2  0  0  3  0  0  0  0  0  0
  189.0890  175.5570  136.6810 C   0  0  1  0  0  3  0  0  0  0  0  0
  191.6060  175.3850  137.2330 C   0  0  2  0  0  3  0  0  0  0  0  0
  193.9340  174.8880  137.9780 C   0  0  0  0  0  1  0  0  0  0  0  0
  192.9990  175.3420  134.8550 O   0  0  0  0  0  0  0  0  0  0  0  0
  190.7490  174.4440  134.9410 C   0  0  1  0  0  3  0  0  0  0  0  0
  189.0780  178.1260  140.2150 C   0  0  2  0  0  3  0  0  0  0  0  0
  189.7330  177.0630  143.1970 C   0  0  0  0  0  2  0  0  0  0  0  0
  191.0930  175.4130  138.5430 O   0  0  0  0  0  0  0  0  0  0  0  0
  190.3770  173.6450  136.0420 O   0  0  0  0  0  0  0  0  0  0  0  0
  189.8630  176.8030  140.1030 C   0  0  1  0  0  3  0  0  0  0  0  0
  187.0510  178.9240  141.1470 C   0  0  0  0  0  2  0  0  0  0  0  0
  190.4670  175.0330  136.2780 C   0  0  2  0  0  0  0  0  0  0  0  0
  192.2340  174.1840  134.5940 C   0  0  2  0  0  3  0  0  0  0  0  0
  188.3660  177.2530  142.5450 C   0  0  2  0  0  3  0  0  0  0  0  0
  189.2240  176.7660  137.6160 C   0  0  2  0  0  3  0  0  0  0  0  0
  192.7800  174.4170  137.1130 C   0  0  2  0  0  3  0  0  0  0  0  0
  190.3670  176.6220  138.6700 C   0  0  2  0  0  3  0  0  0  0  0  0
  186.8000  176.3110  136.0470 C   0  0  0  0  0  2  0  0  0  0  0  0
  190.6280  176.1470  142.3770 C   0  0  0  0  0  2  0  0  0  0  0  0
  188.1820  175.9280  135.5110 C   0  0  0  0  0  2  0  0  0  0  0  0
  191.0400  176.7980  141.0680 C   0  0  0  0  0  2  0  0  0  0  0  0
  188.4310  178.4390  141.5580 C   0  0  1  0  0  3  0  0  0  0  0  0
  186.8960  177.4590  137.0560 C   0  0  0  0  0  2  0  0  0  0  0  0
  187.9310  178.2560  139.2060 C   0  0  1  0  0  3  0  0  0  0  0  0
  187.3650  177.5030  143.6330 C   0  0  0  0  0  3  0  0  0  0  0  0
  187.6140  177.1340  144.8930 C   0  0  0  0  0  3  0  0  0  0  0  0
  185.4610  179.2940  146.7540 C   0  0  0  0  0  2  0  0  0  0  0  0
  187.3100  177.9560  147.2380 C   0  0  0  0  0  2  0  0  0  0  0  0
  186.6350  177.3680  146.0050 C   0  0  0  0  0  3  0  0  0  0  0  0
  186.4180  179.0750  147.6430 C   0  0  0  0  0  2  0  0  0  0  0  0
  185.5490  178.3580  145.6010 C   0  0  0  0  0  2  0  0  0  0  0  0
  1 26  1  6  0  0  0
  1 27  1  0  0  0  0
  2 14  1  0  0  0  0
  3  7  1  6  0  0  0
  3 19  1  0  0  0  0
  4 23  1  6  0  0  0
  4 18  1  0  0  0  0
  5 11  1  1  0  0  0
  8 12  1  1  0  0  0
  8 15  1  0  0  0  0
  9 25  1  0  0  0  0
 11 20  1  0  0  0  0
 12 15  1  0  0  0  0
 13  9  1  0  0  0  0
 13 24  1  0  0  0  0
 14 25  1  0  0  0  0
 15  4  1  0  0  0  0
 15  5  1  0  0  0  0
 16  7  1  0  0  0  0
 16  8  1  0  0  0  0
 16  3  1  0  0  0  0
 17 10  1  0  0  0  0
 17 28  1  0  0  0  0
 18  1  1  0  0  0  0
 18 20  1  0  0  0  0
 19  5  1  0  0  0  0
 19  6  1  0  0  0  0
 20 13  1  0  0  0  0
 21 26  1  0  0  0  0
 22 10  1  0  0  0  0
 23 21  1  0  0  0  0
 24 22  1  0  0  0  0
 25 17  1  0  0  0  0
 27  2  1  0  0  0  0
 27  9  1  0  0  0  0
 28 29  2  0  0  0  0
 29 32  1  0  0  0  0
 30 33  1  0  0  0  0
 31 33  1  0  0  0  0
 32 31  1  0  0  0  0
 34 32  1  0  0  0  0
 34 30  1  0  0  0  0
M  END
>  <MODEL>
1

>  <REMARK>
 VINA RESULT:      -9.8      0.000      0.000
  Name = 
  2 active torsions:
  status: ('A' for Active; 'I' for Inactive)
    1  A    between atoms: C_17  and  C_28
    2  A    between atoms: C_29  and  C_32
                            x       y       z     vdW  Elec       q    Type
                         _______ _______ _______ _____ _____    ______ ____

>  <TORSDO>
F 2

$$$$
=
 OpenBabel11122412273D

 34 42  0  0  1  0  0  0  0  0999 V2000
  190.6250  177.1850  143.4170 C   0  0  2  0  0  3  0  0  0  0  0  0
  192.3810  177.0160  141.7910 O   0  0  0  0  0  0  0  0  0  0  0  0
  184.4440  178.8470  145.2130 C   0  0  2  0  0  3  0  0  0  0  0  0
  188.6100  177.1470  144.8940 C   0  0  1  0  0  3  0  0  0  0  0  0
  186.5610  178.3290  143.8560 C   0  0  2  0  0  3  0  0  0  0  0  0
  184.4710  179.0990  142.7350 C   0  0  0  0  0  1  0  0  0  0  0  0
  185.3070  179.7650  145.8470 O   0  0  0  0  0  0  0  0  0  0  0  0
  186.5210  177.7440  146.4120 C   0  0  1  0  0  3  0  0  0  0  0  0
  190.4070  178.1270  141.0340 C   0  0  2  0  0  3  0  0  0  0  0  0
  189.4070  176.8710  138.2290 C   0  0  0  0  0  2  0  0  0  0  0  0
  187.0560  177.6890  142.7050 O   0  0  0  0  0  0  0  0  0  0  0  0
  186.3820  176.6120  145.5830 O   0  0  0  0  0  0  0  0  0  0  0  0
  188.9680  177.6040  141.2160 C   0  0  1  0  0  3  0  0  0  0  0  0
  192.5430  177.2990  140.4280 C   0  0  0  0  0  2  0  0  0  0  0  0
  187.1830  177.6600  145.0820 C   0  0  2  0  0  0  0  0  0  0  0  0
  185.1770  178.5070  146.4750 C   0  0  2  0  0  3  0  0  0  0  0  0
  190.5590  176.4010  139.1120 C   0  0  2  0  0  3  0  0  0  0  0  0
  189.3050  177.8920  143.7460 C   0  0  2  0  0  3  0  0  0  0  0  0
  185.0360  178.3060  143.8980 C   0  0  2  0  0  3  0  0  0  0  0  0
  188.3790  178.1560  142.5160 C   0  0  2  0  0  3  0  0  0  0  0  0
  190.8350  176.5660  145.8540 C   0  0  0  0  0  2  0  0  0  0  0  0
  188.0920  176.9190  138.9920 C   0  0  0  0  0  2  0  0  0  0  0  0
  189.4840  177.2260  146.1430 C   0  0  0  0  0  2  0  0  0  0  0  0
  188.0960  178.0180  140.0400 C   0  0  0  0  0  2  0  0  0  0  0  0
  191.1840  177.6180  139.8270 C   0  0  1  0  0  3  0  0  0  0  0  0
  191.5270  177.2200  144.6550 C   0  0  0  0  0  2  0  0  0  0  0  0
  191.3290  177.8380  142.2240 C   0  0  1  0  0  3  0  0  0  0  0  0
  191.5600  175.7080  138.2370 C   0  0  0  0  0  3  0  0  0  0  0  0
  191.7480  176.0930  136.9710 C   0  0  0  0  0  3  0  0  0  0  0  0
  194.5620  173.9490  136.4710 C   0  0  0  0  0  2  0  0  0  0  0  0
  194.0600  176.1800  136.0150 C   0  0  0  0  0  2  0  0  0  0  0  0
  192.7400  175.4210  136.0690 C   0  0  0  0  0  3  0  0  0  0  0  0
  195.0950  175.1260  136.1810 C   0  0  0  0  0  2  0  0  0  0  0  0
  193.0770  174.0150  136.5490 C   0  0  0  0  0  2  0  0  0  0  0  0
  1 18  1  0  0  0  0
  1 26  1  1  0  0  0
  2 27  1  0  0  0  0
  3  7  1  6  0  0  0
  3 16  1  0  0  0  0
  4 15  1  0  0  0  0
  4 23  1  1  0  0  0
  5 11  1  6  0  0  0
  5 19  1  0  0  0  0
  5 15  1  0  0  0  0
  6 19  1  0  0  0  0
  7 16  1  0  0  0  0
  8 12  1  6  0  0  0
  8 16  1  0  0  0  0
  9 13  1  0  0  0  0
  9 27  1  0  0  0  0
 10 22  1  0  0  0  0
 10 17  1  0  0  0  0
 13 20  1  0  0  0  0
 14  2  1  0  0  0  0
 15 12  1  0  0  0  0
 15  8  1  0  0  0  0
 17 25  1  0  0  0  0
 18  4  1  0  0  0  0
 19  3  1  0  0  0  0
 20 11  1  0  0  0  0
 20 18  1  0  0  0  0
 21 23  1  0  0  0  0
 22 24  1  0  0  0  0
 24 13  1  0  0  0  0
 25 14  1  0  0  0  0
 25  9  1  0  0  0  0
 26 21  1  0  0  0  0
 27  1  1  0  0  0  0
 28 17  1  0  0  0  0
 29 28  2  0  0  0  0
 30 34  1  0  0  0  0
 31 32  1  0  0  0  0
 31 33  1  0  0  0  0
 32 34  1  0  0  0  0
 32 29  1  0  0  0  0
 33 30  1  0  0  0  0
M  END
>  <MODEL>
2

>  <REMARK>
 VINA RESULT:      -9.6      2.398      9.447
  Name = 
  2 active torsions:
  status: ('A' for Active; 'I' for Inactive)
    1  A    between atoms: C_17  and  C_28
    2  A    between atoms: C_29  and  C_32
                            x       y       z     vdW  Elec       q    Type
                         _______ _______ _______ _____ _____    ______ ____

>  <TORSDO>
F 2

$$$$
=
 OpenBabel11122412273D

 34 42  0  0  1  0  0  0  0  0999 V2000
  182.2290  178.5830  143.7050 C   0  0  2  0  0  3  0  0  0  0  0  0
  183.5370  179.0030  145.6720 O   0  0  0  0  0  0  0  0  0  0  0  0
  181.5600  178.1070  137.1080 C   0  0  2  0  0  3  0  0  0  0  0  0
  181.0990  177.8820  141.5900 C   0  0  1  0  0  3  0  0  0  0  0  0
  182.5220  178.3180  139.4780 C   0  0  2  0  0  3  0  0  0  0  0  0
  184.0110  178.3510  137.4780 C   0  0  0  0  0  1  0  0  0  0  0  0
  180.8480  179.2600  137.5020 O   0  0  0  0  0  0  0  0  0  0  0  0
  179.9770  177.7560  139.1910 C   0  0  1  0  0  3  0  0  0  0  0  0
  184.6670  179.3970  143.6060 C   0  0  2  0  0  3  0  0  0  0  0  0
  187.5190  177.8780  143.5680 C   0  0  0  0  0  2  0  0  0  0  0  0
  183.5390  177.8770  140.3450 O   0  0  0  0  0  0  0  0  0  0  0  0
  180.7510  176.6410  139.5740 O   0  0  0  0  0  0  0  0  0  0  0  0
  184.6900  178.4270  142.4070 C   0  0  1  0  0  3  0  0  0  0  0  0
  184.8700  179.3220  145.9650 C   0  0  0  0  0  2  0  0  0  0  0  0
  181.1750  177.8940  140.0630 C   0  0  2  0  0  0  0  0  0  0  0  0
  180.1780  178.0310  137.6830 C   0  0  2  0  0  3  0  0  0  0  0  0
  186.4360  177.8160  144.6400 C   0  0  2  0  0  3  0  0  0  0  0  0
  182.1610  178.8130  142.1900 C   0  0  2  0  0  3  0  0  0  0  0  0
  182.7270  177.7920  138.0610 C   0  0  2  0  0  3  0  0  0  0  0  0
  183.5370  178.7550  141.4560 C   0  0  2  0  0  3  0  0  0  0  0  0
  179.7580  178.0700  143.6820 C   0  0  0  0  0  2  0  0  0  0  0  0
  186.9840  177.4880  142.1990 C   0  0  0  0  0  2  0  0  0  0  0  0
  179.7320  178.2470  142.1610 C   0  0  0  0  0  2  0  0  0  0  0  0
  186.0150  178.5290  141.6640 C   0  0  0  0  0  2  0  0  0  0  0  0
  185.7000  179.1720  144.7020 C   0  0  1  0  0  3  0  0  0  0  0  0
  180.8660  178.9160  144.3180 C   0  0  0  0  0  2  0  0  0  0  0  0
  183.3280  179.4300  144.3520 C   0  0  1  0  0  3  0  0  0  0  0  0
  187.0950  177.4920  145.9470 C   0  0  0  0  0  3  0  0  0  0  0  0
  188.4120  177.2800  146.0170 C   0  0  0  0  0  3  0  0  0  0  0  0
  190.3690  178.2530  148.8440 C   0  0  0  0  0  2  0  0  0  0  0  0
  190.5940  176.7140  147.1060 C   0  0  0  0  0  2  0  0  0  0  0  0
  189.1040  176.9530  147.3080 C   0  0  0  0  0  3  0  0  0  0  0  0
  191.2410  177.5030  148.1870 C   0  0  0  0  0  2  0  0  0  0  0  0
  188.9880  178.0930  148.3130 C   0  0  0  0  0  2  0  0  0  0  0  0
  1 26  1  1  0  0  0
  1 27  1  0  0  0  0
  2 14  1  0  0  0  0
  3  7  1  1  0  0  0
  3 16  1  0  0  0  0
  3 19  1  0  0  0  0
  4 23  1  6  0  0  0
  4 18  1  0  0  0  0
  5 15  1  0  0  0  0
  5 11  1  1  0  0  0
  6 19  1  0  0  0  0
  7 16  1  0  0  0  0
  8 12  1  6  0  0  0
  8 15  1  0  0  0  0
  9 27  1  0  0  0  0
  9 25  1  0  0  0  0
 10 17  1  0  0  0  0
 11 20  1  0  0  0  0
 12 15  1  0  0  0  0
 13  9  1  0  0  0  0
 15  4  1  0  0  0  0
 16  8  1  0  0  0  0
 17 25  1  0  0  0  0
 17 28  1  0  0  0  0
 18  1  1  0  0  0  0
 19  5  1  0  0  0  0
 20 18  1  0  0  0  0
 20 13  1  0  0  0  0
 21 26  1  0  0  0  0
 22 10  1  0  0  0  0
 23 21  1  0  0  0  0
 24 22  1  0  0  0  0
 24 13  1  0  0  0  0
 25 14  1  0  0  0  0
 27  2  1  0  0  0  0
 28 29  2  0  0  0  0
 29 32  1  0  0  0  0
 31 32  1  0  0  0  0
 31 33  1  0  0  0  0
 32 34  1  0  0  0  0
 33 30  1  0  0  0  0
 34 30  1  0  0  0  0
M  END
>  <MODEL>
3

>  <REMARK>
 VINA RESULT:      -8.9      5.493      8.098
  Name = 
  2 active torsions:
  status: ('A' for Active; 'I' for Inactive)
    1  A    between atoms: C_17  and  C_28
    2  A    between atoms: C_29  and  C_32
                            x       y       z     vdW  Elec       q    Type
                         _______ _______ _______ _____ _____    ______ ____

>  <TORSDO>
F 2

$$$$
=
 OpenBabel11122412273D

 34 42  0  0  1  0  0  0  0  0999 V2000
  187.6280  177.8520  140.6880 C   0  0  2  0  0  3  0  0  0  0  0  0
  185.7610  178.6920  139.4370 O   0  0  0  0  0  0  0  0  0  0  0  0
  190.9330  176.9540  146.3860 C   0  0  2  0  0  3  0  0  0  0  0  0
  189.3320  176.7860  142.1720 C   0  0  1  0  0  3  0  0  0  0  0  0
  189.1330  177.5140  144.6420 C   0  0  2  0  0  3  0  0  0  0  0  0
  188.7250  177.8780  147.0760 C   0  0  0  0  0  1  0  0  0  0  0  0
  191.6810  177.8810  145.6300 O   0  0  0  0  0  0  0  0  0  0  0  0
  191.3020  176.2620  143.8660 C   0  0  1  0  0  3  0  0  0  0  0  0
  185.7850  179.3020  141.7460 C   0  0  2  0  0  3  0  0  0  0  0  0
  182.9410  178.6260  143.1240 C   0  0  0  0  0  2  0  0  0  0  0  0
  187.7650  177.4040  144.3330 O   0  0  0  0  0  0  0  0  0  0  0  0
  190.1750  175.4190  143.9460 O   0  0  0  0  0  0  0  0  0  0  0  0
  186.0270  178.3300  142.9190 C   0  0  1  0  0  3  0  0  0  0  0  0
  184.5690  179.3770  139.7130 C   0  0  0  0  0  2  0  0  0  0  0  0
  189.9290  176.7590  143.5790 C   0  0  2  0  0  0  0  0  0  0  0  0
  191.8550  176.5230  145.2860 C   0  0  2  0  0  3  0  0  0  0  0  0
  183.3950  178.3100  141.7020 C   0  0  2  0  0  3  0  0  0  0  0  0
  188.4030  177.9960  142.0030 C   0  0  2  0  0  3  0  0  0  0  0  0
  189.4310  177.0100  146.0520 C   0  0  2  0  0  3  0  0  0  0  0  0
  187.5190  178.2900  143.2560 C   0  0  2  0  0  3  0  0  0  0  0  0
  189.6320  176.6790  139.7010 C   0  0  0  0  0  2  0  0  0  0  0  0
  183.8910  178.0510  144.1630 C   0  0  0  0  0  2  0  0  0  0  0  0
  190.3600  176.7820  141.0440 C   0  0  0  0  0  2  0  0  0  0  0  0
  185.2330  178.7630  144.1430 C   0  0  0  0  0  2  0  0  0  0  0  0
  184.3610  179.4120  141.2170 C   0  0  1  0  0  3  0  0  0  0  0  0
  188.6250  177.8210  139.5270 C   0  0  0  0  0  2  0  0  0  0  0  0
  186.6250  178.9940  140.5010 C   0  0  1  0  0  3  0  0  0  0  0  0
  182.1750  178.2310  140.8330 C   0  0  0  0  0  3  0  0  0  0  0  0
  180.9500  178.2660  141.3660 C   0  0  0  0  0  3  0  0  0  0  0  0
  178.9310  176.6150  138.9240 C   0  0  0  0  0  2  0  0  0  0  0  0
  179.9510  178.7040  139.1120 C   0  0  0  0  0  2  0  0  0  0  0  0
  179.7100  178.1890  140.5260 C   0  0  0  0  0  3  0  0  0  0  0  0
  179.3290  177.6760  138.2370 C   0  0  0  0  0  2  0  0  0  0  0  0
  179.2180  176.7540  140.3770 C   0  0  0  0  0  2  0  0  0  0  0  0
  1 26  1  6  0  0  0
  1 18  1  0  0  0  0
  2 14  1  0  0  0  0
  2 27  1  0  0  0  0
  3  7  1  6  0  0  0
  4 23  1  6  0  0  0
  4 15  1  0  0  0  0
  5 11  1  6  0  0  0
  5 19  1  0  0  0  0
  8 12  1  1  0  0  0
  8 16  1  0  0  0  0
  9 13  1  0  0  0  0
 10 22  1  0  0  0  0
 13 20  1  0  0  0  0
 13 24  1  0  0  0  0
 14 25  1  0  0  0  0
 15  8  1  0  0  0  0
 15 12  1  0  0  0  0
 15  5  1  0  0  0  0
 16  7  1  0  0  0  0
 16  3  1  0  0  0  0
 17 10  1  0  0  0  0
 18  4  1  0  0  0  0
 18 20  1  0  0  0  0
 19  3  1  0  0  0  0
 19  6  1  0  0  0  0
 20 11  1  0  0  0  0
 21 23  1  0  0  0  0
 24 22  1  0  0  0  0
 25 17  1  0  0  0  0
 25  9  1  0  0  0  0
 26 21  1  0  0  0  0
 27  1  1  0  0  0  0
 27  9  1  0  0  0  0
 28 29  2  0  0  0  0
 28 17  1  0  0  0  0
 30 34  1  0  0  0  0
 31 32  1  0  0  0  0
 32 29  1  0  0  0  0
 33 30  1  0  0  0  0
 33 31  1  0  0  0  0
 34 32  1  0  0  0  0
M  END
>  <MODEL>
4

>  <REMARK>
 VINA RESULT:      -8.4      4.087      7.528
  Name = 
  2 active torsions:
  status: ('A' for Active; 'I' for Inactive)
    1  A    between atoms: C_17  and  C_28
    2  A    between atoms: C_29  and  C_32
                            x       y       z     vdW  Elec       q    Type
                         _______ _______ _______ _____ _____    ______ ____

>  <TORSDO>
F 2

$$$$
=
 OpenBabel11122412273D

 34 42  0  0  1  0  0  0  0  0999 V2000
  189.2860  177.3380  141.7870 C   0  0  2  0  0  3  0  0  0  0  0  0
  190.1980  177.3360  139.5680 O   0  0  0  0  0  0  0  0  0  0  0  0
  184.5750  178.9730  146.1840 C   0  0  2  0  0  3  0  0  0  0  0  0
  188.0580  177.1680  143.9560 C   0  0  1  0  0  3  0  0  0  0  0  0
  185.8910  178.5720  144.0160 C   0  0  2  0  0  3  0  0  0  0  0  0
  183.6110  179.5830  143.9690 C   0  0  0  0  0  1  0  0  0  0  0  0
  185.7080  179.7520  146.5000 O   0  0  0  0  0  0  0  0  0  0  0  0
  186.8420  177.6230  146.2670 C   0  0  1  0  0  3  0  0  0  0  0  0
  188.2060  178.6260  139.8400 C   0  0  2  0  0  3  0  0  0  0  0  0
  186.0280  177.8360  137.5870 C   0  0  0  0  0  2  0  0  0  0  0  0
  185.8060  178.0880  142.6970 O   0  0  0  0  0  0  0  0  0  0  0  0
  186.2660  176.6300  145.4470 O   0  0  0  0  0  0  0  0  0  0  0  0
  186.9240  178.1420  140.5460 C   0  0  1  0  0  3  0  0  0  0  0  0
  189.8140  177.8080  138.3050 C   0  0  0  0  0  2  0  0  0  0  0  0
  186.8900  177.7070  144.7820 C   0  0  2  0  0  0  0  0  0  0  0  0
  185.7230  178.4220  146.9740 C   0  0  2  0  0  3  0  0  0  0  0  0
  187.3880  177.1940  137.8460 C   0  0  2  0  0  3  0  0  0  0  0  0
  188.2920  178.0430  142.7170 C   0  0  2  0  0  3  0  0  0  0  0  0
  184.5220  178.6070  144.6890 C   0  0  2  0  0  3  0  0  0  0  0  0
  186.9760  178.5210  142.0280 C   0  0  2  0  0  3  0  0  0  0  0  0
  190.4120  176.3610  143.8230 C   0  0  0  0  0  2  0  0  0  0  0  0
  185.1520  177.8260  138.8300 C   0  0  0  0  0  2  0  0  0  0  0  0
  189.3690  177.0270  144.7250 C   0  0  0  0  0  2  0  0  0  0  0  0
  185.6930  178.7590  139.9000 C   0  0  0  0  0  2  0  0  0  0  0  0
  188.3680  178.2670  138.3690 C   0  0  1  0  0  3  0  0  0  0  0  0
  190.6130  177.1540  142.5290 C   0  0  0  0  0  2  0  0  0  0  0  0
  189.5010  178.1280  140.4940 C   0  0  1  0  0  3  0  0  0  0  0  0
  187.8700  176.5960  136.5580 C   0  0  0  0  0  3  0  0  0  0  0  0
  188.1430  175.2910  136.4690 C   0  0  0  0  0  3  0  0  0  0  0  0
  189.6760  172.5820  134.7150 C   0  0  0  0  0  2  0  0  0  0  0  0
  190.1260  174.8520  135.0050 C   0  0  0  0  0  2  0  0  0  0  0  0
  188.6270  174.6590  135.1970 C   0  0  0  0  0  3  0  0  0  0  0  0
  190.6210  173.5050  134.6160 C   0  0  0  0  0  2  0  0  0  0  0  0
  188.3870  173.1550  135.1880 C   0  0  0  0  0  2  0  0  0  0  0  0
  1 26  1  1  0  0  0
  1 18  1  0  0  0  0
  2 27  1  0  0  0  0
  3  7  1  6  0  0  0
  3 16  1  0  0  0  0
  4 23  1  1  0  0  0
  4 15  1  0  0  0  0
  5 11  1  6  0  0  0
  5 19  1  0  0  0  0
  5 15  1  0  0  0  0
  6 19  1  0  0  0  0
  7 16  1  0  0  0  0
  8 12  1  6  0  0  0
  8 16  1  0  0  0  0
  9 27  1  0  0  0  0
  9 13  1  0  0  0  0
 10 17  1  0  0  0  0
 10 22  1  0  0  0  0
 13 20  1  0  0  0  0
 14 25  1  0  0  0  0
 14  2  1  0  0  0  0
 15 12  1  0  0  0  0
 15  8  1  0  0  0  0
 17 25  1  0  0  0  0
 18  4  1  0  0  0  0
 19  3  1  0  0  0  0
 20 11  1  0  0  0  0
 20 18  1  0  0  0  0
 21 23  1  0  0  0  0
 22 24  1  0  0  0  0
 24 13  1  0  0  0  0
 25  9  1  0  0  0  0
 26 21  1  0  0  0  0
 27  1  1  0  0  0  0
 28 17  1  0  0  0  0
 29 28  2  0  0  0  0
 30 34  1  0  0  0  0
 31 32  1  0  0  0  0
 32 29  1  0  0  0  0
 33 30  1  0  0  0  0
 33 31  1  0  0  0  0
 34 32  1  0  0  0  0
M  END
>  <MODEL>
5

>  <REMARK>
 VINA RESULT:      -8.4      2.151      9.340
  Name = 
  2 active torsions:
  status: ('A' for Active; 'I' for Inactive)
    1  A    between atoms: C_17  and  C_28
    2  A    between atoms: C_29  and  C_32
                            x       y       z     vdW  Elec       q    Type
                         _______ _______ _______ _____ _____    ______ ____

>  <TORSDO>
F 2

$$$$
=
 OpenBabel11122412273D

 34 42  0  0  1  0  0  0  0  0999 V2000
  188.0350  177.5650  141.9720 C   0  0  2  0  0  3  0  0  0  0  0  0
  187.0080  177.9710  139.8420 O   0  0  0  0  0  0  0  0  0  0  0  0
  188.2760  178.2360  148.5810 C   0  0  2  0  0  3  0  0  0  0  0  0
  188.7970  176.9840  144.2790 C   0  0  1  0  0  3  0  0  0  0  0  0
  187.5210  178.2590  146.1280 C   0  0  2  0  0  3  0  0  0  0  0  0
  186.0550  179.1580  147.9340 C   0  0  0  0  0  1  0  0  0  0  0  0
  189.3400  179.0030  148.0610 O   0  0  0  0  0  0  0  0  0  0  0  0
  189.7300  176.9950  146.7600 C   0  0  1  0  0  3  0  0  0  0  0  0
  185.9970  179.1070  141.6830 C   0  0  2  0  0  3  0  0  0  0  0  0
  182.8040  178.6020  141.7090 C   0  0  0  0  0  2  0  0  0  0  0  0
  186.4470  177.9950  145.2580 O   0  0  0  0  0  0  0  0  0  0  0  0
  188.6480  176.1260  146.5080 O   0  0  0  0  0  0  0  0  0  0  0  0
  185.6140  178.4550  143.0270 C   0  0  1  0  0  3  0  0  0  0  0  0
  185.8640  178.6280  139.3670 C   0  0  0  0  0  2  0  0  0  0  0  0
  188.6750  177.3250  145.7640 C   0  0  2  0  0  0  0  0  0  0  0  0
  189.5770  177.6150  148.1680 C   0  0  2  0  0  3  0  0  0  0  0  0
  183.8450  177.9890  140.7770 C   0  0  2  0  0  3  0  0  0  0  0  0
  188.1210  178.0610  143.4200 C   0  0  2  0  0  3  0  0  0  0  0  0
  187.1050  178.1190  147.5900 C   0  0  2  0  0  3  0  0  0  0  0  0
  186.7760  178.5860  144.0140 C   0  0  2  0  0  3  0  0  0  0  0  0
  190.1990  176.3170  142.3290 C   0  0  0  0  0  2  0  0  0  0  0  0
  183.1330  178.3460  143.1720 C   0  0  0  0  0  2  0  0  0  0  0  0
  190.2280  176.7780  143.7890 C   0  0  0  0  0  2  0  0  0  0  0  0
  184.3710  179.1140  143.6060 C   0  0  0  0  0  2  0  0  0  0  0  0
  184.9860  179.0030  140.5480 C   0  0  1  0  0  3  0  0  0  0  0  0
  189.4530  177.3230  141.4460 C   0  0  0  0  0  2  0  0  0  0  0  0
  187.2980  178.5670  141.0790 C   0  0  1  0  0  3  0  0  0  0  0  0
  183.1630  177.6330  139.4900 C   0  0  0  0  0  3  0  0  0  0  0  0
  182.0170  178.2210  139.1370 C   0  0  0  0  0  3  0  0  0  0  0  0
  181.9900  177.8790  135.5810 C   0  0  0  0  0  2  0  0  0  0  0  0
  180.8080  179.1400  137.1460 C   0  0  0  0  0  2  0  0  0  0  0  0
  181.3080  177.8890  137.8570 C   0  0  0  0  0  3  0  0  0  0  0  0
  181.2190  178.9450  135.7310 C   0  0  0  0  0  2  0  0  0  0  0  0
  182.2280  177.1780  136.8710 C   0  0  0  0  0  2  0  0  0  0  0  0
  1 26  1  6  0  0  0
  1 18  1  0  0  0  0
  2 27  1  0  0  0  0
  3  7  1  6  0  0  0
  4 23  1  6  0  0  0
  4 15  1  0  0  0  0
  5 11  1  6  0  0  0
  5 19  1  0  0  0  0
  7 16  1  0  0  0  0
  8 12  1  1  0  0  0
  8 16  1  0  0  0  0
  9 13  1  0  0  0  0
 10 22  1  0  0  0  0
 13 24  1  0  0  0  0
 13 20  1  0  0  0  0
 14  2  1  0  0  0  0
 14 25  1  0  0  0  0
 15  5  1  0  0  0  0
 15 12  1  0  0  0  0
 15  8  1  0  0  0  0
 16  3  1  0  0  0  0
 17 10  1  0  0  0  0
 18 20  1  0  0  0  0
 18  4  1  0  0  0  0
 19  6  1  0  0  0  0
 19  3  1  0  0  0  0
 20 11  1  0  0  0  0
 21 23  1  0  0  0  0
 22 24  1  0  0  0  0
 25 17  1  0  0  0  0
 25  9  1  0  0  0  0
 26 21  1  0  0  0  0
 27  9  1  0  0  0  0
 27  1  1  0  0  0  0
 28 17  1  0  0  0  0
 29 28  2  0  0  0  0
 30 33  1  0  0  0  0
 30 34  1  0  0  0  0
 31 32  1  0  0  0  0
 32 29  1  0  0  0  0
 33 31  1  0  0  0  0
 34 32  1  0  0  0  0
M  END
>  <MODEL>
6

>  <REMARK>
 VINA RESULT:      -8.1      4.123      9.061
  Name = 
  2 active torsions:
  status: ('A' for Active; 'I' for Inactive)
    1  A    between atoms: C_17  and  C_28
    2  A    between atoms: C_29  and  C_32
                            x       y       z     vdW  Elec       q    Type
                         _______ _______ _______ _____ _____    ______ ____

>  <TORSDO>
F 2

$$$$
=
 OpenBabel11122412273D

 34 42  0  0  1  0  0  0  0  0999 V2000
  182.3880  178.0900  141.1880 C   0  0  2  0  0  3  0  0  0  0  0  0
  183.0220  178.8320  143.3800 O   0  0  0  0  0  0  0  0  0  0  0  0
  183.6870  177.0540  134.7510 C   0  0  2  0  0  3  0  0  0  0  0  0
  181.9980  177.0860  138.9340 C   0  0  1  0  0  3  0  0  0  0  0  0
  183.9020  177.5690  137.2570 C   0  0  2  0  0  3  0  0  0  0  0  0
  185.8850  177.6730  135.7470 C   0  0  0  0  0  1  0  0  0  0  0  0
  182.7620  178.1180  134.8080 O   0  0  0  0  0  0  0  0  0  0  0  0
  181.6290  176.6290  136.3490 C   0  0  1  0  0  3  0  0  0  0  0  0
  184.6400  179.2370  141.6700 C   0  0  2  0  0  3  0  0  0  0  0  0
  187.5430  178.1430  142.5770 C   0  0  0  0  0  2  0  0  0  0  0  0
  184.6750  177.3420  138.4110 O   0  0  0  0  0  0  0  0  0  0  0  0
  182.3870  175.6670  137.0470 O   0  0  0  0  0  0  0  0  0  0  0  0
  185.1180  178.1970  140.6360 C   0  0  1  0  0  3  0  0  0  0  0  0
  184.1700  179.3590  143.9890 C   0  0  0  0  0  2  0  0  0  0  0  0
  182.5050  177.0000  137.4940 C   0  0  2  0  0  0  0  0  0  0  0  0
  182.2170  176.8220  134.9320 C   0  0  2  0  0  3  0  0  0  0  0  0
  186.2140  178.0030  143.3130 C   0  0  2  0  0  3  0  0  0  0  0  0
  182.7280  178.2000  139.6970 C   0  0  2  0  0  3  0  0  0  0  0  0
  184.5630  176.9780  136.0150 C   0  0  2  0  0  3  0  0  0  0  0  0
  184.2530  178.2870  139.3770 C   0  0  2  0  0  3  0  0  0  0  0  0
  180.1050  177.2280  140.5480 C   0  0  0  0  0  2  0  0  0  0  0  0
  187.4700  177.5850  141.1650 C   0  0  0  0  0  2  0  0  0  0  0  0
  180.4920  177.2900  139.0680 C   0  0  0  0  0  2  0  0  0  0  0  0
  186.5770  178.4340  140.2760 C   0  0  0  0  0  2  0  0  0  0  0  0
  185.3370  179.2410  143.0240 C   0  0  1  0  0  3  0  0  0  0  0  0
  180.8780  178.2670  141.3670 C   0  0  0  0  0  2  0  0  0  0  0  0
  183.1500  179.1300  142.0140 C   0  0  1  0  0  3  0  0  0  0  0  0
  186.5070  177.8720  144.7780 C   0  0  0  0  0  3  0  0  0  0  0  0
  187.5920  177.2200  145.2040 C   0  0  0  0  0  3  0  0  0  0  0  0
  187.9880  178.6040  148.4740 C   0  0  0  0  0  3  0  0  0  0  0  0
  189.3540  177.4640  146.9660 C   0  0  0  0  0  2  0  0  0  0  0  0
  187.9150  177.0690  146.6610 C   0  0  1  0  0  3  0  0  0  0  0  0
  189.2480  178.3340  148.1670 C   0  0  0  0  0  3  0  0  0  0  0  0
  187.0360  177.9610  147.5290 C   0  0  0  0  0  2  0  0  0  0  0  0
  1 26  1  6  0  0  0
  1 27  1  0  0  0  0
  2 14  1  0  0  0  0
  3  7  1  1  0  0  0
  3 16  1  0  0  0  0
  3 19  1  0  0  0  0
  4 23  1  6  0  0  0
  4 18  1  0  0  0  0
  5 15  1  0  0  0  0
  5 11  1  1  0  0  0
  6 19  1  0  0  0  0
  7 16  1  0  0  0  0
  8 12  1  1  0  0  0
  8 15  1  0  0  0  0
  9 27  1  0  0  0  0
  9 25  1  0  0  0  0
 10 17  1  0  0  0  0
 11 20  1  0  0  0  0
 12 15  1  0  0  0  0
 13  9  1  0  0  0  0
 15  4  1  0  0  0  0
 16  8  1  0  0  0  0
 17 28  1  0  0  0  0
 18  1  1  0  0  0  0
 19  5  1  0  0  0  0
 20 18  1  0  0  0  0
 20 13  1  0  0  0  0
 21 26  1  0  0  0  0
 22 10  1  0  0  0  0
 23 21  1  0  0  0  0
 24 13  1  0  0  0  0
 24 22  1  0  0  0  0
 25 17  1  0  0  0  0
 25 14  1  0  0  0  0
 27  2  1  0  0  0  0
 28 29  2  0  0  0  0
 29 32  1  0  0  0  0
 31 33  1  0  0  0  0
 32 31  1  0  0  0  0
 32 34  1  0  0  0  0
 33 30  2  0  0  0  0
 34 30  1  0  0  0  0
M  END
>  <MODEL>
7

>  <REMARK>
 VINA RESULT:      -7.7      4.395      6.436
  Name = 
  2 active torsions:
  status: ('A' for Active; 'I' for Inactive)
    1  A    between atoms: C_17  and  C_28
    2  A    between atoms: C_29  and  C_32
                            x       y       z     vdW  Elec       q    Type
                         _______ _______ _______ _____ _____    ______ ____

>  <TORSDO>
F 2

$$$$
=
 OpenBabel11122412273D

 34 42  0  0  1  0  0  0  0  0999 V2000
  185.9640  178.4650  145.2690 C   0  0  2  0  0  3  0  0  0  0  0  0
  184.0490  178.7990  143.8630 O   0  0  0  0  0  0  0  0  0  0  0  0
  192.0540  176.0490  146.3950 C   0  0  2  0  0  3  0  0  0  0  0  0
  188.1420  178.2930  146.4820 C   0  0  1  0  0  3  0  0  0  0  0  0
  189.8640  176.7900  145.2790 C   0  0  2  0  0  3  0  0  0  0  0  0
  191.6710  175.6850  143.9610 C   0  0  0  0  0  1  0  0  0  0  0  0
  191.1680  175.2910  147.1890 O   0  0  0  0  0  0  0  0  0  0  0  0
  190.3150  177.4850  147.7670 C   0  0  1  0  0  3  0  0  0  0  0  0
  185.7430  177.3890  142.9430 C   0  0  2  0  0  3  0  0  0  0  0  0
  186.5260  178.3590  139.9610 C   0  0  0  0  0  2  0  0  0  0  0  0
  189.3120  177.4370  144.1570 O   0  0  0  0  0  0  0  0  0  0  0  0
  190.4920  178.5460  146.8550 O   0  0  0  0  0  0  0  0  0  0  0  0
  187.2500  177.7160  142.9130 C   0  0  1  0  0  3  0  0  0  0  0  0
  183.6750  178.4770  142.5510 C   0  0  0  0  0  2  0  0  0  0  0  0
  189.5020  177.5960  146.5250 C   0  0  2  0  0  0  0  0  0  0  0  0
  191.5430  176.5470  147.7130 C   0  0  2  0  0  3  0  0  0  0  0  0
  185.5710  179.0270  140.9460 C   0  0  2  0  0  3  0  0  0  0  0  0
  187.2120  177.5990  145.4780 C   0  0  2  0  0  3  0  0  0  0  0  0
  191.3720  176.6030  145.1320 C   0  0  2  0  0  3  0  0  0  0  0  0
  187.9260  177.1510  144.1640 C   0  0  2  0  0  3  0  0  0  0  0  0
  186.1580  179.2240  147.6680 C   0  0  0  0  0  2  0  0  0  0  0  0
  187.9110  178.1660  140.5580 C   0  0  0  0  0  2  0  0  0  0  0  0
  187.4360  178.3970  147.8310 C   0  0  0  0  0  2  0  0  0  0  0  0
  187.8980  177.1290  141.6680 C   0  0  0  0  0  2  0  0  0  0  0  0
  184.8890  177.9440  141.8110 C   0  0  1  0  0  3  0  0  0  0  0  0
  185.2350  178.6150  146.6070 C   0  0  0  0  0  2  0  0  0  0  0  0
  185.0310  177.8610  144.2170 C   0  0  1  0  0  3  0  0  0  0  0  0
  184.5640  179.8100  140.1580 C   0  0  0  0  0  3  0  0  0  0  0  0
  183.6660  179.1910  139.3860 C   0  0  0  0  0  3  0  0  0  0  0  0
  180.2840  180.1510  138.7500 C   0  0  0  0  0  3  0  0  0  0  0  0
  181.9590  179.0490  137.5590 C   0  0  0  0  0  2  0  0  0  0  0  0
  182.6450  179.9430  138.5840 C   0  0  1  0  0  3  0  0  0  0  0  0
  180.5130  179.3590  137.7130 C   0  0  0  0  0  3  0  0  0  0  0  0
  181.5380  180.5060  139.4670 C   0  0  0  0  0  2  0  0  0  0  0  0
  1 18  1  0  0  0  0
  1 26  1  1  0  0  0
  2 27  1  0  0  0  0
  3  7  1  1  0  0  0
  3 16  1  0  0  0  0
  4 15  1  0  0  0  0
  4 23  1  1  0  0  0
  5 11  1  6  0  0  0
  5 15  1  0  0  0  0
  6 19  1  0  0  0  0
  7 16  1  0  0  0  0
  8 12  1  6  0  0  0
  9 27  1  0  0  0  0
 10 22  1  0  0  0  0
 10 17  1  0  0  0  0
 11 20  1  0  0  0  0
 13  9  1  0  0  0  0
 13 20  1  0  0  0  0
 14  2  1  0  0  0  0
 15 12  1  0  0  0  0
 15  8  1  0  0  0  0
 16  8  1  0  0  0  0
 17 25  1  0  0  0  0
 18  4  1  0  0  0  0
 19  5  1  0  0  0  0
 19  3  1  0  0  0  0
 20 18  1  0  0  0  0
 21 23  1  0  0  0  0
 22 24  1  0  0  0  0
 24 13  1  0  0  0  0
 25 14  1  0  0  0  0
 25  9  1  0  0  0  0
 26 21  1  0  0  0  0
 27  1  1  0  0  0  0
 28 17  1  0  0  0  0
 29 28  2  0  0  0  0
 30 34  1  0  0  0  0
 31 33  1  0  0  0  0
 31 32  1  0  0  0  0
 32 29  1  0  0  0  0
 32 34  1  0  0  0  0
 33 30  2  0  0  0  0
M  END
>  <MODEL>
8

>  <REMARK>
 VINA RESULT:      -7.4      4.677      8.577
  Name = 
  2 active torsions:
  status: ('A' for Active; 'I' for Inactive)
    1  A    between atoms: C_17  and  C_28
    2  A    between atoms: C_29  and  C_32
                            x       y       z     vdW  Elec       q    Type
                         _______ _______ _______ _____ _____    ______ ____

>  <TORSDO>
F 2

$$$$
=
 OpenBabel11122412273D

 34 42  0  0  1  0  0  0  0  0999 V2000
  188.1050  177.6920  139.6660 C   0  0  2  0  0  3  0  0  0  0  0  0
  186.4220  178.3740  138.0970 O   0  0  0  0  0  0  0  0  0  0  0  0
  190.5250  177.2570  145.8420 C   0  0  2  0  0  3  0  0  0  0  0  0
  189.6000  176.7880  141.4520 C   0  0  1  0  0  3  0  0  0  0  0  0
  188.9950  177.6370  143.8160 C   0  0  2  0  0  3  0  0  0  0  0  0
  188.2030  178.1110  146.1330 C   0  0  0  0  0  1  0  0  0  0  0  0
  191.3440  178.1770  145.1540 O   0  0  0  0  0  0  0  0  0  0  0  0
  191.3050  176.4500  143.4530 C   0  0  1  0  0  3  0  0  0  0  0  0
  186.0670  179.1070  140.3430 C   0  0  2  0  0  3  0  0  0  0  0  0
  183.0720  178.3720  141.3120 C   0  0  0  0  0  2  0  0  0  0  0  0
  187.6960  177.4460  143.3090 O   0  0  0  0  0  0  0  0  0  0  0  0
  190.2120  175.5590  143.4120 O   0  0  0  0  0  0  0  0  0  0  0  0
  186.1620  178.2120  141.5950 C   0  0  1  0  0  3  0  0  0  0  0  0
  185.1770  179.0160  138.1480 C   0  0  0  0  0  2  0  0  0  0  0  0
  189.9740  176.8650  142.9320 C   0  0  2  0  0  0  0  0  0  0  0  0
  191.6210  176.8120  144.9230 C   0  0  2  0  0  3  0  0  0  0  0  0
  183.7520  178.0020  139.9970 C   0  0  2  0  0  3  0  0  0  0  0  0
  188.6620  177.9420  141.0720 C   0  0  2  0  0  3  0  0  0  0  0  0
  189.0910  177.2230  145.2820 C   0  0  2  0  0  3  0  0  0  0  0  0
  187.5850  178.2600  142.1560 C   0  0  2  0  0  3  0  0  0  0  0  0
  190.2810  176.5640  139.0660 C   0  0  0  0  0  2  0  0  0  0  0  0
  183.8730  177.8990  142.5150 C   0  0  0  0  0  2  0  0  0  0  0  0
  190.7890  176.7730  140.4950 C   0  0  0  0  0  2  0  0  0  0  0  0
  185.1740  178.6710  142.6560 C   0  0  0  0  0  2  0  0  0  0  0  0
  184.7380  179.1220  139.5990 C   0  0  1  0  0  3  0  0  0  0  0  0
  189.2700  177.6460  138.6730 C   0  0  0  0  0  2  0  0  0  0  0  0
  187.1000  178.7730  139.2600 C   0  0  1  0  0  3  0  0  0  0  0  0
  182.6850  177.8200  138.9590 C   0  0  0  0  0  3  0  0  0  0  0  0
  182.3530  176.6010  138.5250 C   0  0  0  0  0  3  0  0  0  0  0  0
  180.2410  177.8200  135.9130 C   0  0  0  0  0  3  0  0  0  0  0  0
  179.9160  176.8060  137.9880 C   0  0  0  0  0  2  0  0  0  0  0  0
  181.2910  176.3820  137.4880 C   0  0  1  0  0  3  0  0  0  0  0  0
  179.3500  177.6060  136.8700 C   0  0  0  0  0  3  0  0  0  0  0  0
  181.5560  177.1980  136.2290 C   0  0  0  0  0  2  0  0  0  0  0  0
  1 26  1  6  0  0  0
  1 18  1  0  0  0  0
  2 14  1  0  0  0  0
  2 27  1  0  0  0  0
  3  7  1  6  0  0  0
  4 23  1  6  0  0  0
  4 15  1  0  0  0  0
  5 11  1  6  0  0  0
  5 19  1  0  0  0  0
  8 12  1  1  0  0  0
  8 16  1  0  0  0  0
  9 13  1  0  0  0  0
 10 22  1  0  0  0  0
 13 20  1  0  0  0  0
 13 24  1  0  0  0  0
 14 25  1  0  0  0  0
 15 12  1  0  0  0  0
 15  8  1  0  0  0  0
 15  5  1  0  0  0  0
 16  7  1  0  0  0  0
 16  3  1  0  0  0  0
 17 10  1  0  0  0  0
 18  4  1  0  0  0  0
 18 20  1  0  0  0  0
 19  3  1  0  0  0  0
 19  6  1  0  0  0  0
 20 11  1  0  0  0  0
 21 23  1  0  0  0  0
 22 24  1  0  0  0  0
 25 17  1  0  0  0  0
 25  9  1  0  0  0  0
 26 21  1  0  0  0  0
 27  1  1  0  0  0  0
 27  9  1  0  0  0  0
 28 17  1  0  0  0  0
 29 28  2  0  0  0  0
 30 34  1  0  0  0  0
 30 33  2  0  0  0  0
 32 31  1  0  0  0  0
 32 29  1  0  0  0  0
 33 31  1  0  0  0  0
 34 32  1  0  0  0  0
M  END
>  <MODEL>
9

>  <REMARK>
 VINA RESULT:      -7.3      3.608      7.586
  Name = 
  2 active torsions:
  status: ('A' for Active; 'I' for Inactive)
    1  A    between atoms: C_17  and  C_28
    2  A    between atoms: C_29  and  C_32
                            x       y       z     vdW  Elec       q    Type
                         _______ _______ _______ _____ _____    ______ ____

>  <TORSDO>
F 2

$$$$
