=
 OpenBabel11122410293D

 30 35  0  0  1  0  0  0  0  0999 V2000
  186.1080  178.3100  141.9990 C   0  0  0  0  0  0  0  0  0  0  0  0
  183.6550  178.7140  141.8480 C   0  0  0  0  0  0  0  0  0  0  0  0
  185.9680  178.2090  146.1100 N   0  0  0  0  0  2  0  0  0  0  0  0
  187.2600  178.0560  142.7880 C   0  0  0  0  0  0  0  0  0  0  0  0
  186.2350  178.3530  140.6050 O   0  0  0  0  0  0  0  0  0  0  0  0
  189.6930  177.6310  140.1140 O   0  0  0  0  0  0  0  0  0  0  0  0
  190.2160  177.9040  143.8350 C   0  0  1  0  0  3  0  0  0  0  0  0
  188.6130  177.9070  140.7060 C   0  0  0  0  0  0  0  0  0  0  0  0
  189.5060  178.0030  145.1760 C   0  0  2  0  0  3  0  0  0  0  0  0
  187.2910  178.0390  146.3160 C   0  0  0  0  0  0  0  0  0  0  0  0
  187.4850  178.5460  139.9460 C   0  0  1  0  0  3  0  0  0  0  0  0
  188.4830  177.6900  142.1200 N   0  0  0  0  0  0  0  0  0  0  0  0
  182.4260  178.8810  142.4930 C   0  0  0  0  0  3  0  0  0  0  0  0
  190.1410  176.9420  146.0510 C   0  0  0  0  0  2  0  0  0  0  0  0
  191.6080  177.3820  144.1550 C   0  0  0  0  0  2  0  0  0  0  0  0
  183.6820  178.7750  140.4590 O   0  0  0  0  0  1  0  0  0  0  0  0
  185.8790  178.2310  144.7690 C   0  0  0  0  0  0  0  0  0  0  0  0
  182.3390  178.8300  143.8830 C   0  0  0  0  0  3  0  0  0  0  0  0
  184.8310  178.4890  142.6050 C   0  0  0  0  0  0  0  0  0  0  0  0
  187.1140  178.0650  144.1920 C   0  0  0  0  0  0  0  0  0  0  0  0
  187.7900  178.0200  147.4740 O   0  0  0  0  0  0  0  0  0  0  0  0
  188.0330  177.9320  145.1820 N   0  0  0  0  0  0  0  0  0  0  0  0
  191.5790  176.8630  145.5850 C   0  0  0  0  0  2  0  0  0  0  0  0
  189.1180  175.6230  143.3180 C   0  0  0  0  0  1  0  0  0  0  0  0
  183.4840  178.6100  144.6470 C   0  0  0  0  0  3  0  0  0  0  0  0
  184.7230  178.4380  144.0210 C   0  0  0  0  0  0  0  0  0  0  0  0
  189.5600  176.9920  142.8060 C   0  0  2  0  0  3  0  0  0  0  0  0
  187.3940  178.0680  138.4980 C   0  0  0  0  0  2  0  0  0  0  0  0
  185.6850  176.8810  137.1530 C   0  0  0  0  0  1  0  0  0  0  0  0
  185.9660  178.1200  137.9760 C   0  0  0  0  0  2  0  0  0  0  0  0
  1 19  2  0  0  0  0
  1  4  1  0  0  0  0
  2 13  2  0  0  0  0
  2 19  1  0  0  0  0
  3 10  1  0  0  0  0
  4 20  2  0  0  0  0
  5  1  1  0  0  0  0
  6  8  2  0  0  0  0
  7 15  1  1  0  0  0
  7  9  1  0  0  0  0
  8 12  1  0  0  0  0
  9 22  1  0  0  0  0
  9 14  1  1  0  0  0
 10 21  2  0  0  0  0
 11 28  1  6  0  0  0
 11  5  1  0  0  0  0
 11  8  1  0  0  0  0
 12  4  1  0  0  0  0
 12 27  1  0  0  0  0
 13 18  1  0  0  0  0
 15 23  1  0  0  0  0
 16  2  1  0  0  0  0
 17  3  1  0  0  0  0
 18 25  2  0  0  0  0
 19 26  1  0  0  0  0
 20 17  1  0  0  0  0
 20 22  1  0  0  0  0
 22 10  1  0  0  0  0
 23 14  1  0  0  0  0
 26 25  1  0  0  0  0
 26 17  2  0  0  0  0
 27 24  1  1  0  0  0
 27  7  1  0  0  0  0
 29 30  1  0  0  0  0
 30 28  1  0  0  0  0
M  END
>  <MODEL>
1

>  <REMARK>
 VINA RESULT:     -10.3      0.000      0.000
  Name = 
  2 active torsions:
  status: ('A' for Active; 'I' for Inactive)
    1  A    between atoms: C_11  and  C_28
    2  A    between atoms: C_28  and  C_30
                            x       y       z     vdW  Elec       q    Type
                         _______ _______ _______ _____ _____    ______ ____

>  <TORSDO>
F 2

$$$$
=
 OpenBabel11122410293D

 30 35  0  0  1  0  0  0  0  0999 V2000
  187.0370  178.3180  140.9790 C   0  0  0  0  0  0  0  0  0  0  0  0
  184.7440  178.7220  140.0970 C   0  0  0  0  0  0  0  0  0  0  0  0
  185.6590  178.1630  144.8520 N   0  0  0  0  0  2  0  0  0  0  0  0
  187.8970  178.0540  142.0770 C   0  0  0  0  0  0  0  0  0  0  0  0
  187.5810  178.3790  139.6900 O   0  0  0  0  0  0  0  0  0  0  0  0
  191.0280  177.6650  140.2610 O   0  0  0  0  0  0  0  0  0  0  0  0
  190.3980  177.8900  143.9680 C   0  0  1  0  0  3  0  0  0  0  0  0
  189.8180  177.9330  140.5010 C   0  0  0  0  0  0  0  0  0  0  0  0
  189.3140  177.9710  145.0330 C   0  0  2  0  0  3  0  0  0  0  0  0
  186.8570  177.9900  145.4480 C   0  0  0  0  0  0  0  0  0  0  0  0
  188.9700  178.5820  139.4430 C   0  0  1  0  0  3  0  0  0  0  0  0
  189.2670  177.6980  141.8070 N   0  0  0  0  0  0  0  0  0  0  0  0
  183.3760  178.8800  140.3410 C   0  0  0  0  0  3  0  0  0  0  0  0
  189.6590  176.8990  146.0450 C   0  0  0  0  0  2  0  0  0  0  0  0
  191.6290  177.3650  144.6890 C   0  0  0  0  0  2  0  0  0  0  0  0
  185.1900  178.8020  138.7820 O   0  0  0  0  0  1  0  0  0  0  0  0
  185.9800  178.2020  143.5480 C   0  0  0  0  0  0  0  0  0  0  0  0
  182.8720  178.8100  141.6380 C   0  0  0  0  0  3  0  0  0  0  0  0
  185.6360  178.4870  141.1720 C   0  0  0  0  0  0  0  0  0  0  0  0
  187.3320  178.0440  143.3700 C   0  0  0  0  0  0  0  0  0  0  0  0
  186.9820  177.9570  146.7020 O   0  0  0  0  0  0  0  0  0  0  0  0
  187.9090  177.8980  144.5910 N   0  0  0  0  0  0  0  0  0  0  0  0
  191.1710  176.8270  146.0370 C   0  0  0  0  0  2  0  0  0  0  0  0
  189.5190  175.6160  143.1150 C   0  0  0  0  0  1  0  0  0  0  0  0
  183.7330  178.5810  142.7100 C   0  0  0  0  0  3  0  0  0  0  0  0
  185.1050  178.4180  142.4870 C   0  0  0  0  0  0  0  0  0  0  0  0
  190.0890  176.9910  142.7780 C   0  0  2  0  0  3  0  0  0  0  0  0
  189.3250  178.1230  138.0290 C   0  0  0  0  0  2  0  0  0  0  0  0
  187.7120  178.0810  136.1490 C   0  0  0  0  0  1  0  0  0  0  0  0
  188.6260  178.9640  136.9720 C   0  0  0  0  0  2  0  0  0  0  0  0
  1 19  2  0  0  0  0
  1  4  1  0  0  0  0
  2 13  2  0  0  0  0
  2 19  1  0  0  0  0
  3 10  1  0  0  0  0
  4 20  2  0  0  0  0
  5  1  1  0  0  0  0
  6  8  2  0  0  0  0
  7 15  1  1  0  0  0
  7  9  1  0  0  0  0
  8 12  1  0  0  0  0
  9 14  1  1  0  0  0
 10 21  2  0  0  0  0
 11 28  1  6  0  0  0
 11  5  1  0  0  0  0
 11  8  1  0  0  0  0
 12  4  1  0  0  0  0
 12 27  1  0  0  0  0
 13 18  1  0  0  0  0
 15 23  1  0  0  0  0
 16  2  1  0  0  0  0
 17  3  1  0  0  0  0
 18 25  2  0  0  0  0
 19 26  1  0  0  0  0
 20 17  1  0  0  0  0
 20 22  1  0  0  0  0
 22  9  1  0  0  0  0
 22 10  1  0  0  0  0
 23 14  1  0  0  0  0
 26 25  1  0  0  0  0
 26 17  2  0  0  0  0
 27 24  1  1  0  0  0
 27  7  1  0  0  0  0
 29 30  1  0  0  0  0
 30 28  1  0  0  0  0
M  END
>  <MODEL>
2

>  <REMARK>
 VINA RESULT:     -10.2      1.286      1.510
  Name = 
  2 active torsions:
  status: ('A' for Active; 'I' for Inactive)
    1  A    between atoms: C_11  and  C_28
    2  A    between atoms: C_28  and  C_30
                            x       y       z     vdW  Elec       q    Type
                         _______ _______ _______ _____ _____    ______ ____

>  <TORSDO>
F 2

$$$$
=
 OpenBabel11122410293D

 30 35  0  0  1  0  0  0  0  0999 V2000
  189.0540  177.4380  143.5630 C   0  0  0  0  0  0  0  0  0  0  0  0
  191.1030  176.9190  144.8780 C   0  0  0  0  0  0  0  0  0  0  0  0
  186.7900  177.7840  146.9820 N   0  0  0  0  0  2  0  0  0  0  0  0
  187.6790  177.7910  143.5270 C   0  0  0  0  0  0  0  0  0  0  0  0
  189.7550  177.3160  142.3570 O   0  0  0  0  0  0  0  0  0  0  0  0
  187.2850  178.1580  139.9270 O   0  0  0  0  0  0  0  0  0  0  0  0
  184.6830  178.1360  142.6510 C   0  0  1  0  0  3  0  0  0  0  0  0
  187.7990  177.8720  141.0430 C   0  0  0  0  0  0  0  0  0  0  0  0
  184.4750  178.0870  144.1570 C   0  0  2  0  0  3  0  0  0  0  0  0
  185.6090  178.0240  146.3750 C   0  0  0  0  0  0  0  0  0  0  0  0
  189.1090  177.1380  141.0990 C   0  0  1  0  0  3  0  0  0  0  0  0
  187.0990  178.1680  142.2620 N   0  0  0  0  0  0  0  0  0  0  0  0
  191.7140  176.7380  146.1230 C   0  0  0  0  0  3  0  0  0  0  0  0
  183.5280  179.2260  144.4720 C   0  0  0  0  0  2  0  0  0  0  0  0
  183.4060  178.7370  142.0880 C   0  0  0  0  0  2  0  0  0  0  0  0
  191.8820  176.7750  143.7360 O   0  0  0  0  0  1  0  0  0  0  0  0
  187.6380  177.6770  145.9440 C   0  0  0  0  0  0  0  0  0  0  0  0
  190.9830  176.8710  147.3020 C   0  0  0  0  0  3  0  0  0  0  0  0
  189.7260  177.2420  144.8040 C   0  0  0  0  0  0  0  0  0  0  0  0
  186.9830  177.8610  144.7520 C   0  0  0  0  0  0  0  0  0  0  0  0
  184.5350  178.1350  147.0240 O   0  0  0  0  0  0  0  0  0  0  0  0
  185.6720  178.0940  145.0180 N   0  0  0  0  0  0  0  0  0  0  0  0
  182.6360  179.3390  143.2540 C   0  0  0  0  0  2  0  0  0  0  0  0
  186.0360  180.3300  142.8160 C   0  0  0  0  0  1  0  0  0  0  0  0
  189.6260  177.1860  147.2490 C   0  0  0  0  0  3  0  0  0  0  0  0
  188.9960  177.3740  146.0150 C   0  0  0  0  0  0  0  0  0  0  0  0
  185.8770  178.9530  142.1750 C   0  0  2  0  0  3  0  0  0  0  0  0
  190.0570  177.5230  139.9630 C   0  0  0  0  0  2  0  0  0  0  0  0
  190.0680  176.9760  137.5470 C   0  0  0  0  0  1  0  0  0  0  0  0
  190.1960  176.4040  138.9420 C   0  0  0  0  0  2  0  0  0  0  0  0
  1 19  1  0  0  0  0
  2 13  1  0  0  0  0
  4  1  2  0  0  0  0
  4 20  1  0  0  0  0
  5  1  1  0  0  0  0
  6  8  2  0  0  0  0
  7 15  1  6  0  0  0
  7  9  1  0  0  0  0
  8 11  1  0  0  0  0
  8 12  1  0  0  0  0
  9 14  1  1  0  0  0
  9 22  1  0  0  0  0
 10  3  1  0  0  0  0
 10 21  2  0  0  0  0
 11 28  1  6  0  0  0
 11  5  1  0  0  0  0
 12  4  1  0  0  0  0
 13 18  2  0  0  0  0
 15 23  1  0  0  0  0
 16  2  1  0  0  0  0
 17 26  1  0  0  0  0
 17  3  1  0  0  0  0
 19  2  2  0  0  0  0
 19 26  1  0  0  0  0
 20 22  1  0  0  0  0
 20 17  2  0  0  0  0
 22 10  1  0  0  0  0
 23 14  1  0  0  0  0
 25 18  1  0  0  0  0
 26 25  2  0  0  0  0
 27 12  1  0  0  0  0
 27  7  1  0  0  0  0
 27 24  1  1  0  0  0
 29 30  1  0  0  0  0
 30 28  1  0  0  0  0
M  END
>  <MODEL>
3

>  <REMARK>
 VINA RESULT:      -9.6      1.792      5.446
  Name = 
  2 active torsions:
  status: ('A' for Active; 'I' for Inactive)
    1  A    between atoms: C_11  and  C_28
    2  A    between atoms: C_28  and  C_30
                            x       y       z     vdW  Elec       q    Type
                         _______ _______ _______ _____ _____    ______ ____

>  <TORSDO>
F 2

$$$$
=
 OpenBabel11122410293D

 30 35  0  0  1  0  0  0  0  0999 V2000
  186.7210  177.8720  144.9260 C   0  0  0  0  0  0  0  0  0  0  0  0
  184.3790  178.5510  145.4260 C   0  0  0  0  0  0  0  0  0  0  0  0
  186.2410  178.6960  140.9230 N   0  0  0  0  0  2  0  0  0  0  0  0
  187.7810  177.7280  143.9930 C   0  0  0  0  0  0  0  0  0  0  0  0
  186.9510  177.5510  146.2690 O   0  0  0  0  0  0  0  0  0  0  0  0
  190.3920  176.6140  146.2700 O   0  0  0  0  0  0  0  0  0  0  0  0
  190.3700  176.7550  142.5060 C   0  0  1  0  0  3  0  0  0  0  0  0
  189.2520  176.9340  145.8350 C   0  0  0  0  0  0  0  0  0  0  0  0
  189.5640  177.1940  141.2930 C   0  0  2  0  0  3  0  0  0  0  0  0
  187.4720  178.3080  140.5260 C   0  0  0  0  0  0  0  0  0  0  0  0
  188.0370  176.7310  146.6950 C   0  0  1  0  0  3  0  0  0  0  0  0
  189.0970  177.4130  144.4890 N   0  0  0  0  0  0  0  0  0  0  0  0
  183.1500  179.0410  144.9730 C   0  0  0  0  0  3  0  0  0  0  0  0
  190.5210  178.0030  140.4420 C   0  0  0  0  0  2  0  0  0  0  0  0
  191.8090  176.6680  142.0230 C   0  0  0  0  0  2  0  0  0  0  0  0
  184.5100  178.2580  146.7790 O   0  0  0  0  0  1  0  0  0  0  0  0
  186.2840  178.4960  142.2520 C   0  0  0  0  0  0  0  0  0  0  0  0
  182.9600  179.3530  143.6280 C   0  0  0  0  0  3  0  0  0  0  0  0
  185.4490  178.3670  144.5170 C   0  0  0  0  0  0  0  0  0  0  0  0
  187.5100  178.0140  142.6370 C   0  0  0  0  0  0  0  0  0  0  0  0
  187.8090  178.2980  139.3120 O   0  0  0  0  0  0  0  0  0  0  0  0
  188.2900  177.8960  141.5310 N   0  0  0  0  0  0  0  0  0  0  0  0
  191.8770  177.3740  140.6760 C   0  0  0  0  0  2  0  0  0  0  0  0
  190.4750  179.1670  143.4240 C   0  0  0  0  0  1  0  0  0  0  0  0
  184.0000  179.1770  142.7170 C   0  0  0  0  0  3  0  0  0  0  0  0
  185.2380  178.6900  143.1500 C   0  0  0  0  0  0  0  0  0  0  0  0
  190.3000  177.6780  143.7150 C   0  0  2  0  0  3  0  0  0  0  0  0
  188.3130  176.9560  148.1810 C   0  0  0  0  0  2  0  0  0  0  0  0
  189.9560  178.6470  148.9420 C   0  0  0  0  0  1  0  0  0  0  0  0
  188.5260  178.4290  148.4970 C   0  0  0  0  0  2  0  0  0  0  0  0
  1  5  1  0  0  0  0
  2 16  1  0  0  0  0
  3 17  1  0  0  0  0
  4 12  1  0  0  0  0
  4  1  2  0  0  0  0
  5 11  1  0  0  0  0
  7 15  1  6  0  0  0
  7 27  1  0  0  0  0
  8  6  2  0  0  0  0
  8 11  1  0  0  0  0
  9 14  1  6  0  0  0
  9 22  1  0  0  0  0
  9  7  1  0  0  0  0
 10  3  1  0  0  0  0
 10 22  1  0  0  0  0
 11 28  1  1  0  0  0
 12  8  1  0  0  0  0
 13  2  1  0  0  0  0
 14 23  1  0  0  0  0
 17 20  2  0  0  0  0
 17 26  1  0  0  0  0
 18 13  2  0  0  0  0
 19  1  1  0  0  0  0
 19  2  2  0  0  0  0
 20  4  1  0  0  0  0
 21 10  2  0  0  0  0
 22 20  1  0  0  0  0
 23 15  1  0  0  0  0
 25 26  2  0  0  0  0
 25 18  1  0  0  0  0
 26 19  1  0  0  0  0
 27 24  1  6  0  0  0
 27 12  1  0  0  0  0
 28 30  1  0  0  0  0
 30 29  1  0  0  0  0
M  END
>  <MODEL>
4

>  <REMARK>
 VINA RESULT:      -9.4      1.822      5.350
  Name = 
  2 active torsions:
  status: ('A' for Active; 'I' for Inactive)
    1  A    between atoms: C_11  and  C_28
    2  A    between atoms: C_28  and  C_30
                            x       y       z     vdW  Elec       q    Type
                         _______ _______ _______ _____ _____    ______ ____

>  <TORSDO>
F 2

$$$$
=
 OpenBabel11122410293D

 30 35  0  0  1  0  0  0  0  0999 V2000
  188.1090  177.9180  141.6440 C   0  0  0  0  0  0  0  0  0  0  0  0
  189.0070  177.4920  143.9270 C   0  0  0  0  0  0  0  0  0  0  0  0
  191.6420  176.7390  139.8950 N   0  0  0  0  0  2  0  0  0  0  0  0
  188.2780  177.8770  140.2360 C   0  0  0  0  0  0  0  0  0  0  0  0
  186.8860  178.3520  142.1700 O   0  0  0  0  0  0  0  0  0  0  0  0
  184.9600  178.9920  139.2370 O   0  0  0  0  0  0  0  0  0  0  0  0
  188.0600  178.4760  137.1610 C   0  0  1  0  0  3  0  0  0  0  0  0
  185.9560  178.7270  139.9660 C   0  0  0  0  0  0  0  0  0  0  0  0
  189.5010  177.9860  137.1950 C   0  0  2  0  0  3  0  0  0  0  0  0
  191.2820  176.9800  138.6170 C   0  0  0  0  0  0  0  0  0  0  0  0
  185.9470  179.1170  141.4170 C   0  0  1  0  0  3  0  0  0  0  0  0
  187.1320  178.1290  139.3980 N   0  0  0  0  0  0  0  0  0  0  0  0
  190.0620  177.0630  144.7400 C   0  0  0  0  0  3  0  0  0  0  0  0
  189.6270  177.0180  136.0370 C   0  0  0  0  0  2  0  0  0  0  0  0
  187.6430  178.3930  135.7020 C   0  0  0  0  0  2  0  0  0  0  0  0
  187.8310  177.9070  144.5410 O   0  0  0  0  0  1  0  0  0  0  0  0
  190.5330  177.0680  140.5800 C   0  0  0  0  0  0  0  0  0  0  0  0
  191.2640  176.6360  144.1800 C   0  0  0  0  0  3  0  0  0  0  0  0
  189.1520  177.4930  142.5180 C   0  0  0  0  0  0  0  0  0  0  0  0
  189.5360  177.4810  139.7330 C   0  0  0  0  0  0  0  0  0  0  0  0
  192.0880  176.8400  137.6580 O   0  0  0  0  0  0  0  0  0  0  0  0
  190.0060  177.4210  138.4600 N   0  0  0  0  0  0  0  0  0  0  0  0
  188.6850  177.5520  134.9790 C   0  0  0  0  0  2  0  0  0  0  0  0
  187.1620  176.1680  137.8940 C   0  0  0  0  0  1  0  0  0  0  0  0
  191.4260  176.6310  142.7960 C   0  0  0  0  0  3  0  0  0  0  0  0
  190.3830  177.0530  141.9650 C   0  0  0  0  0  0  0  0  0  0  0  0
  187.0750  177.6880  138.0130 C   0  0  2  0  0  3  0  0  0  0  0  0
  184.5610  179.0190  142.0530 C   0  0  0  0  0  2  0  0  0  0  0  0
  183.7180  179.1020  144.3810 C   0  0  0  0  0  1  0  0  0  0  0  0
  184.6130  178.3520  143.4190 C   0  0  0  0  0  2  0  0  0  0  0  0
  1  5  1  0  0  0  0
  1 19  1  0  0  0  0
  2 16  1  0  0  0  0
  2 13  1  0  0  0  0
  3 17  1  0  0  0  0
  4  1  2  0  0  0  0
  6  8  2  0  0  0  0
  7 15  1  6  0  0  0
  7  9  1  0  0  0  0
  7 27  1  0  0  0  0
  8 11  1  0  0  0  0
  9 14  1  6  0  0  0
  9 22  1  0  0  0  0
 10  3  1  0  0  0  0
 11 28  1  1  0  0  0
 11  5  1  0  0  0  0
 12  8  1  0  0  0  0
 12  4  1  0  0  0  0
 17 26  1  0  0  0  0
 18 13  2  0  0  0  0
 19  2  2  0  0  0  0
 20  4  1  0  0  0  0
 20 17  2  0  0  0  0
 21 10  2  0  0  0  0
 22 10  1  0  0  0  0
 22 20  1  0  0  0  0
 23 15  1  0  0  0  0
 23 14  1  0  0  0  0
 25 18  1  0  0  0  0
 26 19  1  0  0  0  0
 26 25  2  0  0  0  0
 27 24  1  1  0  0  0
 27 12  1  0  0  0  0
 28 30  1  0  0  0  0
 30 29  1  0  0  0  0
M  END
>  <MODEL>
5

>  <REMARK>
 VINA RESULT:      -8.9      2.341      6.814
  Name = 
  2 active torsions:
  status: ('A' for Active; 'I' for Inactive)
    1  A    between atoms: C_11  and  C_28
    2  A    between atoms: C_28  and  C_30
                            x       y       z     vdW  Elec       q    Type
                         _______ _______ _______ _____ _____    ______ ____

>  <TORSDO>
F 2

$$$$
=
 OpenBabel11122410293D

 30 35  0  0  1  0  0  0  0  0999 V2000
  189.6130  177.9030  142.0810 C   0  0  0  0  0  0  0  0  0  0  0  0
  191.0060  177.4680  140.0640 C   0  0  0  0  0  0  0  0  0  0  0  0
  186.2450  178.4790  139.7890 N   0  0  0  0  0  2  0  0  0  0  0  0
  188.3430  178.1720  142.6570 C   0  0  0  0  0  0  0  0  0  0  0  0
  190.7200  177.7410  142.9230 O   0  0  0  0  0  0  0  0  0  0  0  0
  189.2890  178.0900  146.1710 O   0  0  0  0  0  0  0  0  0  0  0  0
  186.0530  179.1580  144.5660 C   0  0  1  0  0  3  0  0  0  0  0  0
  189.3900  178.1040  144.9130 C   0  0  0  0  0  0  0  0  0  0  0  0
  185.3050  179.2570  143.2450 C   0  0  2  0  0  3  0  0  0  0  0  0
  185.4040  178.7790  140.8010 C   0  0  0  0  0  0  0  0  0  0  0  0
  190.7440  178.2070  144.2700 C   0  0  1  0  0  3  0  0  0  0  0  0
  188.2110  178.1070  144.0910 N   0  0  0  0  0  0  0  0  0  0  0  0
  191.0970  177.3420  138.6740 C   0  0  0  0  0  3  0  0  0  0  0  0
  183.9520  178.6240  143.4970 C   0  0  0  0  0  2  0  0  0  0  0  0
  184.9770  179.1740  145.6390 C   0  0  0  0  0  2  0  0  0  0  0  0
  192.1610  177.2920  140.8170 O   0  0  0  0  0  1  0  0  0  0  0  0
  187.4020  178.2370  140.4280 C   0  0  0  0  0  0  0  0  0  0  0  0
  189.9710  177.5070  137.8690 C   0  0  0  0  0  3  0  0  0  0  0  0
  189.7610  177.7650  140.6710 C   0  0  0  0  0  0  0  0  0  0  0  0
  187.2530  178.3770  141.7850 C   0  0  0  0  0  0  0  0  0  0  0  0
  184.2090  179.1230  140.5980 O   0  0  0  0  0  0  0  0  0  0  0  0
  185.9630  178.7200  142.0390 N   0  0  0  0  0  0  0  0  0  0  0  0
  183.6440  178.9300  144.9460 C   0  0  0  0  0  2  0  0  0  0  0  0
  186.2750  176.5940  144.3550 C   0  0  0  0  0  1  0  0  0  0  0  0
  188.7370  177.8020  138.4470 C   0  0  0  0  0  3  0  0  0  0  0  0
  188.6240  177.9300  139.8350 C   0  0  0  0  0  0  0  0  0  0  0  0
  186.9230  177.9210  144.7410 C   0  0  2  0  0  3  0  0  0  0  0  0
  191.8340  177.4800  145.0570 C   0  0  0  0  0  2  0  0  0  0  0  0
  192.0990  175.4470  146.4470 C   0  0  0  0  0  1  0  0  0  0  0  0
  191.5720  175.9840  145.1340 C   0  0  0  0  0  2  0  0  0  0  0  0
  1  4  1  0  0  0  0
  1  5  1  0  0  0  0
  2 19  1  0  0  0  0
  2 16  1  0  0  0  0
  3 17  1  0  0  0  0
  3 10  1  0  0  0  0
  4 12  1  0  0  0  0
  5 11  1  0  0  0  0
  7 27  1  0  0  0  0
  7 15  1  1  0  0  0
  8  6  2  0  0  0  0
  9 14  1  1  0  0  0
  9  7  1  0  0  0  0
 10 22  1  0  0  0  0
 11  8  1  0  0  0  0
 11 28  1  1  0  0  0
 12 27  1  0  0  0  0
 12  8  1  0  0  0  0
 13  2  2  0  0  0  0
 14 23  1  0  0  0  0
 17 20  1  0  0  0  0
 18 25  2  0  0  0  0
 18 13  1  0  0  0  0
 19  1  2  0  0  0  0
 20 22  1  0  0  0  0
 20  4  2  0  0  0  0
 21 10  2  0  0  0  0
 22  9  1  0  0  0  0
 23 15  1  0  0  0  0
 25 26  1  0  0  0  0
 26 17  2  0  0  0  0
 26 19  1  0  0  0  0
 27 24  1  6  0  0  0
 28 30  1  0  0  0  0
 30 29  1  0  0  0  0
M  END
>  <MODEL>
6

>  <REMARK>
 VINA RESULT:      -8.5      1.718      6.492
  Name = 
  2 active torsions:
  status: ('A' for Active; 'I' for Inactive)
    1  A    between atoms: C_11  and  C_28
    2  A    between atoms: C_28  and  C_30
                            x       y       z     vdW  Elec       q    Type
                         _______ _______ _______ _____ _____    ______ ____

>  <TORSDO>
F 2

$$$$
=
 OpenBabel11122410293D

 30 35  0  0  1  0  0  0  0  0999 V2000
  187.5500  177.7330  142.7860 C   0  0  0  0  0  0  0  0  0  0  0  0
  186.4180  178.2550  144.9410 C   0  0  0  0  0  0  0  0  0  0  0  0
  184.3400  179.1210  140.6170 N   0  0  0  0  0  2  0  0  0  0  0  0
  187.5530  177.7620  141.3670 C   0  0  0  0  0  0  0  0  0  0  0  0
  188.6690  177.2250  143.4570 O   0  0  0  0  0  0  0  0  0  0  0  0
  190.8810  176.4100  140.7810 O   0  0  0  0  0  0  0  0  0  0  0  0
  188.0930  177.1020  138.3450 C   0  0  1  0  0  3  0  0  0  0  0  0
  189.8270  176.7530  141.3830 C   0  0  0  0  0  0  0  0  0  0  0  0
  186.6960  177.6890  138.2020 C   0  0  2  0  0  3  0  0  0  0  0  0
  184.8320  178.8360  139.3930 C   0  0  0  0  0  0  0  0  0  0  0  0
  189.6360  176.3860  142.8280 C   0  0  1  0  0  3  0  0  0  0  0  0
  188.7700  177.4200  140.6740 N   0  0  0  0  0  0  0  0  0  0  0  0
  185.3070  178.7660  145.6190 C   0  0  0  0  0  3  0  0  0  0  0  0
  186.7760  178.6450  137.0300 C   0  0  0  0  0  2  0  0  0  0  0  0
  188.6860  177.1340  136.9450 C   0  0  0  0  0  2  0  0  0  0  0  0
  187.4810  177.7700  145.6950 O   0  0  0  0  0  1  0  0  0  0  0  0
  185.3340  178.7290  141.4330 C   0  0  0  0  0  0  0  0  0  0  0  0
  184.2120  179.2660  144.9150 C   0  0  0  0  0  3  0  0  0  0  0  0
  186.4430  178.2410  143.5250 C   0  0  0  0  0  0  0  0  0  0  0  0
  186.3940  178.2350  140.7140 C   0  0  0  0  0  0  0  0  0  0  0  0
  184.1580  179.0160  138.3440 O   0  0  0  0  0  0  0  0  0  0  0  0
  186.0850  178.3070  139.3930 N   0  0  0  0  0  0  0  0  0  0  0  0
  187.7980  178.0320  136.0970 C   0  0  0  0  0  2  0  0  0  0  0  0
  189.0560  179.3550  139.1630 C   0  0  0  0  0  1  0  0  0  0  0  0
  184.2170  179.2590  143.5220 C   0  0  0  0  0  3  0  0  0  0  0  0
  185.3190  178.7550  142.8250 C   0  0  0  0  0  0  0  0  0  0  0  0
  189.0220  177.8350  139.3030 C   0  0  2  0  0  3  0  0  0  0  0  0
  190.9400  176.4000  143.6250 C   0  0  0  0  0  2  0  0  0  0  0  0
  191.6800  178.7390  143.9690 C   0  0  0  0  0  1  0  0  0  0  0  0
  190.9860  177.5570  144.6100 C   0  0  0  0  0  2  0  0  0  0  0  0
  1  5  1  0  0  0  0
  1 19  1  0  0  0  0
  2 13  1  0  0  0  0
  2 16  1  0  0  0  0
  3 17  1  0  0  0  0
  4  1  2  0  0  0  0
  6  8  2  0  0  0  0
  7 15  1  6  0  0  0
  7 27  1  0  0  0  0
  8 11  1  0  0  0  0
  9 14  1  6  0  0  0
  9  7  1  0  0  0  0
  9 22  1  0  0  0  0
 10 22  1  0  0  0  0
 10  3  1  0  0  0  0
 11  5  1  0  0  0  0
 11 28  1  1  0  0  0
 12  4  1  0  0  0  0
 12  8  1  0  0  0  0
 17 26  1  0  0  0  0
 18 13  2  0  0  0  0
 19  2  2  0  0  0  0
 20  4  1  0  0  0  0
 20 17  2  0  0  0  0
 21 10  2  0  0  0  0
 22 20  1  0  0  0  0
 23 15  1  0  0  0  0
 23 14  1  0  0  0  0
 25 18  1  0  0  0  0
 26 25  2  0  0  0  0
 26 19  1  0  0  0  0
 27 24  1  1  0  0  0
 27 12  1  0  0  0  0
 28 30  1  0  0  0  0
 29 30  1  0  0  0  0
M  END
>  <MODEL>
7

>  <REMARK>
 VINA RESULT:      -8.4      1.967      5.717
  Name = 
  2 active torsions:
  status: ('A' for Active; 'I' for Inactive)
    1  A    between atoms: C_11  and  C_28
    2  A    between atoms: C_28  and  C_30
                            x       y       z     vdW  Elec       q    Type
                         _______ _______ _______ _____ _____    ______ ____

>  <TORSDO>
F 2

$$$$
=
 OpenBabel11122410293D

 30 35  0  0  1  0  0  0  0  0999 V2000
  186.9370  178.0630  141.6610 C   0  0  0  0  0  0  0  0  0  0  0  0
  187.1710  177.7770  144.1240 C   0  0  0  0  0  0  0  0  0  0  0  0
  190.8780  177.0570  141.0400 N   0  0  0  0  0  2  0  0  0  0  0  0
  187.5000  177.9840  140.3610 C   0  0  0  0  0  0  0  0  0  0  0  0
  185.5940  178.4350  141.7980 O   0  0  0  0  0  0  0  0  0  0  0  0
  184.5480  178.8440  138.4130 O   0  0  0  0  0  0  0  0  0  0  0  0
  188.1330  178.4590  137.3220 C   0  0  1  0  0  3  0  0  0  0  0  0
  185.3080  178.6700  139.4050 C   0  0  0  0  0  0  0  0  0  0  0  0
  189.5280  178.0660  137.7850 C   0  0  2  0  0  3  0  0  0  0  0  0
  190.8830  177.2290  139.7010 C   0  0  0  0  0  0  0  0  0  0  0  0
  184.8680  179.1090  140.7730 C   0  0  1  0  0  3  0  0  0  0  0  0
  186.6280  178.1310  139.2230 N   0  0  0  0  0  0  0  0  0  0  0  0
  187.9730  177.4470  145.2210 C   0  0  0  0  0  3  0  0  0  0  0  0
  190.0290  177.0680  136.7610 C   0  0  0  0  0  2  0  0  0  0  0  0
  188.1520  178.2970  135.8110 C   0  0  0  0  0  2  0  0  0  0  0  0
  185.8490  178.1360  144.3600 O   0  0  0  0  0  1  0  0  0  0  0  0
  189.6050  177.3360  141.3670 C   0  0  0  0  0  0  0  0  0  0  0  0
  189.3050  177.0800  145.0450 C   0  0  0  0  0  3  0  0  0  0  0  0
  187.7090  177.7390  142.8140 C   0  0  0  0  0  0  0  0  0  0  0  0
  188.8680  177.6540  140.2530 C   0  0  0  0  0  0  0  0  0  0  0  0
  191.9340  177.1080  139.0160 O   0  0  0  0  0  0  0  0  0  0  0  0
  189.6820  177.5800  139.1690 N   0  0  0  0  0  0  0  0  0  0  0  0
  189.3990  177.5010  135.4550 C   0  0  0  0  0  2  0  0  0  0  0  0
  187.1860  176.1240  137.8930 C   0  0  0  0  0  1  0  0  0  0  0  0
  189.8540  177.0370  143.7640 C   0  0  0  0  0  3  0  0  0  0  0  0
  189.0690  177.3610  142.6530 C   0  0  0  0  0  0  0  0  0  0  0  0
  186.9890  177.6380  137.9030 C   0  0  2  0  0  3  0  0  0  0  0  0
  183.3650  178.9440  140.9980 C   0  0  0  0  0  2  0  0  0  0  0  0
  181.5550  178.9610  142.6890 C   0  0  0  0  0  1  0  0  0  0  0  0
  183.0350  178.7350  142.4680 C   0  0  0  0  0  2  0  0  0  0  0  0
  1  5  1  0  0  0  0
  1 19  1  0  0  0  0
  2 16  1  0  0  0  0
  2 13  1  0  0  0  0
  3 17  1  0  0  0  0
  4  1  2  0  0  0  0
  6  8  2  0  0  0  0
  7 15  1  6  0  0  0
  7  9  1  0  0  0  0
  7 27  1  0  0  0  0
  8 11  1  0  0  0  0
  9 14  1  6  0  0  0
  9 22  1  0  0  0  0
 10  3  1  0  0  0  0
 11 28  1  1  0  0  0
 11  5  1  0  0  0  0
 12  8  1  0  0  0  0
 12  4  1  0  0  0  0
 17 26  1  0  0  0  0
 18 13  2  0  0  0  0
 19  2  2  0  0  0  0
 20  4  1  0  0  0  0
 20 17  2  0  0  0  0
 21 10  2  0  0  0  0
 22 10  1  0  0  0  0
 22 20  1  0  0  0  0
 23 15  1  0  0  0  0
 23 14  1  0  0  0  0
 25 18  1  0  0  0  0
 26 19  1  0  0  0  0
 26 25  2  0  0  0  0
 27 24  1  1  0  0  0
 27 12  1  0  0  0  0
 28 30  1  0  0  0  0
 30 29  1  0  0  0  0
M  END
>  <MODEL>
8

>  <REMARK>
 VINA RESULT:      -8.2      2.247      6.078
  Name = 
  2 active torsions:
  status: ('A' for Active; 'I' for Inactive)
    1  A    between atoms: C_11  and  C_28
    2  A    between atoms: C_28  and  C_30
                            x       y       z     vdW  Elec       q    Type
                         _______ _______ _______ _____ _____    ______ ____

>  <TORSDO>
F 2

$$$$
=
 OpenBabel11122410293D

 30 35  0  0  1  0  0  0  0  0999 V2000
  186.2970  178.3630  142.6150 C   0  0  0  0  0  0  0  0  0  0  0  0
  188.5860  177.8420  143.4440 C   0  0  0  0  0  0  0  0  0  0  0  0
  187.5110  178.0670  138.6950 N   0  0  0  0  0  2  0  0  0  0  0  0
  185.3950  178.5210  141.5310 C   0  0  0  0  0  0  0  0  0  0  0  0
  185.8170  178.5000  143.9230 O   0  0  0  0  0  0  0  0  0  0  0  0
  182.3410  179.1180  143.4200 O   0  0  0  0  0  0  0  0  0  0  0  0
  182.9930  179.4280  139.7230 C   0  0  1  0  0  3  0  0  0  0  0  0
  183.5650  178.9560  143.1600 C   0  0  0  0  0  0  0  0  0  0  0  0
  184.0290  179.2100  138.6300 C   0  0  2  0  0  3  0  0  0  0  0  0
  186.3270  178.3870  138.1300 C   0  0  0  0  0  0  0  0  0  0  0  0
  184.5940  179.1630  144.2350 C   0  0  1  0  0  3  0  0  0  0  0  0
  183.9890  178.6550  141.8200 N   0  0  0  0  0  0  0  0  0  0  0  0
  189.9180  177.5210  143.1650 C   0  0  0  0  0  3  0  0  0  0  0  0
  183.3180  178.4250  137.5470 C   0  0  0  0  0  2  0  0  0  0  0  0
  181.6520  179.4420  139.0070 C   0  0  0  0  0  2  0  0  0  0  0  0
  188.2040  177.9600  144.7760 O   0  0  0  0  0  1  0  0  0  0  0  0
  187.2300  178.1030  140.0090 C   0  0  0  0  0  0  0  0  0  0  0  0
  190.3580  177.3900  141.8490 C   0  0  0  0  0  3  0  0  0  0  0  0
  187.6650  178.0360  142.3860 C   0  0  0  0  0  0  0  0  0  0  0  0
  185.9120  178.4240  140.2210 C   0  0  0  0  0  0  0  0  0  0  0  0
  186.1930  178.5100  136.8830 O   0  0  0  0  0  0  0  0  0  0  0  0
  185.3160  178.6020  139.0140 N   0  0  0  0  0  0  0  0  0  0  0  0
  181.8810  178.8980  137.6040 C   0  0  0  0  0  2  0  0  0  0  0  0
  183.0020  176.9240  140.3580 C   0  0  0  0  0  1  0  0  0  0  0  0
  189.4670  177.5790  140.7940 C   0  0  0  0  0  3  0  0  0  0  0  0
  188.1300  177.8980  141.0510 C   0  0  0  0  0  0  0  0  0  0  0  0
  182.9640  178.3770  140.8250 C   0  0  2  0  0  3  0  0  0  0  0  0
  184.1050  178.7390  145.6190 C   0  0  0  0  0  2  0  0  0  0  0  0
  185.9670  179.3020  147.1520 C   0  0  0  0  0  1  0  0  0  0  0  0
  185.2330  178.1710  146.4660 C   0  0  0  0  0  2  0  0  0  0  0  0
  1  5  1  0  0  0  0
  2 16  1  0  0  0  0
  3 17  1  0  0  0  0
  4 12  1  0  0  0  0
  4  1  2  0  0  0  0
  5 11  1  0  0  0  0
  7 15  1  6  0  0  0
  7 27  1  0  0  0  0
  8  6  2  0  0  0  0
  8 11  1  0  0  0  0
  9 14  1  6  0  0  0
  9 22  1  0  0  0  0
  9  7  1  0  0  0  0
 10  3  1  0  0  0  0
 10 22  1  0  0  0  0
 11 28  1  1  0  0  0
 12  8  1  0  0  0  0
 13  2  1  0  0  0  0
 14 23  1  0  0  0  0
 17 20  2  0  0  0  0
 17 26  1  0  0  0  0
 18 13  2  0  0  0  0
 19  1  1  0  0  0  0
 19  2  2  0  0  0  0
 20  4  1  0  0  0  0
 21 10  2  0  0  0  0
 22 20  1  0  0  0  0
 23 15  1  0  0  0  0
 25 26  2  0  0  0  0
 25 18  1  0  0  0  0
 26 19  1  0  0  0  0
 27 24  1  6  0  0  0
 27 12  1  0  0  0  0
 28 30  1  0  0  0  0
 30 29  1  0  0  0  0
M  END
>  <MODEL>
9

>  <REMARK>
 VINA RESULT:      -8.1      2.412      7.453
  Name = 
  2 active torsions:
  status: ('A' for Active; 'I' for Inactive)
    1  A    between atoms: C_11  and  C_28
    2  A    between atoms: C_28  and  C_30
                            x       y       z     vdW  Elec       q    Type
                         _______ _______ _______ _____ _____    ______ ____

>  <TORSDO>
F 2

$$$$
