=
 OpenBabel11122412213D

 34 41  0  0  1  0  0  0  0  0999 V2000
  186.0130  178.2920  143.0480 C   0  0  1  0  0  3  0  0  0  0  0  0
  185.7210  178.7710  140.5260 C   0  0  0  0  0  2  0  0  0  0  0  0
  190.3410  177.5660  147.7640 C   0  0  0  0  0  0  0  0  0  0  0  0
  186.6400  177.7920  145.4520 C   0  0  2  0  0  3  0  0  0  0  0  0
  188.9090  176.7840  145.8410 C   0  0  2  0  0  3  0  0  0  0  0  0
  191.5900  176.3250  146.2040 S   0  0  0  0  0  0  0  0  0  0  0  0
  191.6310  177.6450  147.3960 N   0  0  0  0  0  0  0  0  0  0  0  0
  188.1160  177.9890  148.9440 C   0  0  0  0  0  2  0  0  0  0  0  0
  187.5640  177.6430  141.2930 C   0  0  2  0  0  3  0  0  0  0  0  0
  190.1200  177.5920  139.3500 C   0  0  0  0  0  2  0  0  0  0  0  0
  189.4040  177.3390  144.5780 N   0  0  0  0  0  2  0  0  0  0  0  0
  187.3880  177.2390  147.8150 C   0  0  0  0  0  2  0  0  0  0  0  0
  188.7910  177.6620  142.2040 C   0  0  1  0  0  3  0  0  0  0  0  0
  186.5340  178.6030  139.3830 O   0  0  0  0  0  0  0  0  0  0  0  0
  187.8170  177.7120  146.4280 C   0  0  2  0  0  3  0  0  0  0  0  0
  189.5160  178.3180  148.6550 N   0  0  0  0  0  2  0  0  0  0  0  0
  188.9730  178.5980  139.3910 C   0  0  2  0  0  3  0  0  0  0  0  0
  187.1620  178.2090  144.0740 C   0  0  1  0  0  3  0  0  0  0  0  0
  190.0350  176.4270  146.8480 C   0  0  1  0  0  3  0  0  0  0  0  0
  188.3070  177.2750  143.6120 C   0  0  2  0  0  3  0  0  0  0  0  0
  184.4600  178.9190  144.9090 C   0  0  0  0  0  2  0  0  0  0  0  0
  190.7710  177.4060  140.7170 C   0  0  0  0  0  2  0  0  0  0  0  0
  185.6040  178.8180  145.9190 C   0  0  0  0  0  2  0  0  0  0  0  0
  189.8510  176.6950  141.7000 C   0  0  0  0  0  2  0  0  0  0  0  0
  187.6810  177.8780  139.7960 C   0  0  1  0  0  3  0  0  0  0  0  0
  184.9900  179.3170  143.5320 C   0  0  0  0  0  2  0  0  0  0  0  0
  186.6300  178.7100  141.7200 C   0  0  2  0  0  3  0  0  0  0  0  0
  188.8300  179.1620  138.1200 O   0  0  0  0  0  0  0  0  0  0  0  0
  189.5070  178.2910  137.2650 C   0  0  0  0  0  2  0  0  0  0  0  0
  186.6650  176.2790  136.3250 C   0  0  0  0  0  2  0  0  0  0  0  0
  187.2830  178.5960  136.1830 C   0  0  0  0  0  2  0  0  0  0  0  0
  188.5690  177.7960  136.1800 C   0  0  0  0  0  3  0  0  0  0  0  0
  186.2090  177.6150  135.7810 C   0  0  0  0  0  2  0  0  0  0  0  0
  188.1760  176.3570  136.4500 C   0  0  0  0  0  2  0  0  0  0  0  0
  1 26  1  1  0  0  0
  1 18  1  0  0  0  0
  2 27  1  0  0  0  0
  3 16  1  0  0  0  0
  4 23  1  1  0  0  0
  4 15  1  0  0  0  0
  5 11  1  6  0  0  0
  5 15  1  0  0  0  0
  5 19  1  0  0  0  0
  6 19  1  0  0  0  0
  6  7  1  0  0  0  0
  7  3  2  0  0  0  0
  9 27  1  0  0  0  0
  9 13  1  0  0  0  0
 10 17  1  0  0  0  0
 10 22  1  0  0  0  0
 12  8  1  0  0  0  0
 13 20  1  0  0  0  0
 14 25  1  0  0  0  0
 14  2  1  0  0  0  0
 15 12  1  0  0  0  0
 16  8  1  0  0  0  0
 17 25  1  0  0  0  0
 18  4  1  0  0  0  0
 19  3  1  0  0  0  0
 20 18  1  0  0  0  0
 20 11  1  0  0  0  0
 21 23  1  0  0  0  0
 22 24  1  0  0  0  0
 24 13  1  0  0  0  0
 25  9  1  0  0  0  0
 26 21  1  0  0  0  0
 27  1  1  0  0  0  0
 28 17  1  0  0  0  0
 29 28  1  0  0  0  0
 30 34  1  0  0  0  0
 32 31  1  0  0  0  0
 32 34  1  0  0  0  0
 32 29  1  0  0  0  0
 33 31  1  0  0  0  0
 33 30  1  0  0  0  0
M  END
>  <MODEL>
1

>  <REMARK>
 VINA RESULT:     -10.4      0.000      0.000
  Name = 
  3 active torsions:
  status: ('A' for Active; 'I' for Inactive)
    1  A    between atoms: C_17  and  O_28
    2  A    between atoms: O_28  and  C_29
    3  A    between atoms: C_29  and  C_32
                            x       y       z     vdW  Elec       q    Type
                         _______ _______ _______ _____ _____    ______ ____

>  <TORSDO>
F 3

$$$$
=
 OpenBabel11122412213D

 34 41  0  0  1  0  0  0  0  0999 V2000
  183.9290  178.4100  144.1020 C   0  0  1  0  0  3  0  0  0  0  0  0
  181.6740  179.1730  143.0960 C   0  0  0  0  0  2  0  0  0  0  0  0
  190.2570  177.9450  142.9910 C   0  0  0  0  0  0  0  0  0  0  0  0
  186.2720  177.7150  144.7700 C   0  0  2  0  0  3  0  0  0  0  0  0
  187.8610  177.1630  142.9030 C   0  0  2  0  0  3  0  0  0  0  0  0
  189.6600  177.2320  140.8310 S   0  0  0  0  0  0  0  0  0  0  0  0
  190.6720  178.3460  141.7780 N   0  0  0  0  0  0  0  0  0  0  0  0
  189.9940  177.7180  145.5210 C   0  0  0  0  0  2  0  0  0  0  0  0
  183.3380  178.3600  141.7450 C   0  0  2  0  0  3  0  0  0  0  0  0
  183.1550  179.1270  138.6320 C   0  0  0  0  0  2  0  0  0  0  0  0
  187.0910  177.9840  141.9650 N   0  0  0  0  0  2  0  0  0  0  0  0
  188.6490  177.0000  145.3050 C   0  0  0  0  0  2  0  0  0  0  0  0
  184.7800  178.5070  141.2560 C   0  0  1  0  0  3  0  0  0  0  0  0
  181.1810  179.3450  141.7840 O   0  0  0  0  0  0  0  0  0  0  0  0
  187.7390  177.7460  144.3320 C   0  0  2  0  0  3  0  0  0  0  0  0
  190.5360  178.3720  144.3250 N   0  0  0  0  0  2  0  0  0  0  0  0
  182.5490  179.8520  139.8290 C   0  0  2  0  0  3  0  0  0  0  0  0
  185.4210  178.4260  143.7120 C   0  0  1  0  0  3  0  0  0  0  0  0
  189.3250  176.9100  142.4520 C   0  0  1  0  0  3  0  0  0  0  0  0
  185.6770  177.8290  142.3070 C   0  0  2  0  0  3  0  0  0  0  0  0
  184.6050  178.4240  146.5120 C   0  0  0  0  0  2  0  0  0  0  0  0
  184.6510  178.8890  138.8000 C   0  0  0  0  0  2  0  0  0  0  0  0
  186.0820  178.4230  146.1130 C   0  0  0  0  0  2  0  0  0  0  0  0
  184.9530  177.8670  139.8880 C   0  0  0  0  0  2  0  0  0  0  0  0
  182.1630  178.8270  140.9020 C   0  0  1  0  0  3  0  0  0  0  0  0
  183.7590  179.1180  145.4450 C   0  0  0  0  0  2  0  0  0  0  0  0
  183.1720  179.1350  142.9960 C   0  0  2  0  0  3  0  0  0  0  0  0
  181.4160  180.5500  139.4020 O   0  0  0  0  0  0  0  0  0  0  0  0
  181.9020  181.5100  138.5140 C   0  0  0  0  0  2  0  0  0  0  0  0
  180.8220  183.6190  135.7940 C   0  0  0  0  0  2  0  0  0  0  0  0
  180.7060  181.2810  136.3390 C   0  0  0  0  0  2  0  0  0  0  0  0
  180.7720  182.0370  137.6500 C   0  0  0  0  0  3  0  0  0  0  0  0
  180.2520  182.2990  135.3210 C   0  0  0  0  0  2  0  0  0  0  0  0
  181.0240  183.4890  137.2930 C   0  0  0  0  0  2  0  0  0  0  0  0
  1 26  1  1  0  0  0
  3 16  1  0  0  0  0
  4 23  1  1  0  0  0
  5 11  1  6  0  0  0
  5 15  1  0  0  0  0
  6  7  1  0  0  0  0
  6 19  1  0  0  0  0
  7  3  2  0  0  0  0
  9 27  1  0  0  0  0
 10 22  1  0  0  0  0
 10 17  1  0  0  0  0
 11 20  1  0  0  0  0
 12  8  1  0  0  0  0
 13  9  1  0  0  0  0
 13 20  1  0  0  0  0
 14  2  1  0  0  0  0
 15  4  1  0  0  0  0
 15 12  1  0  0  0  0
 16  8  1  0  0  0  0
 17 25  1  0  0  0  0
 18  1  1  0  0  0  0
 18  4  1  0  0  0  0
 19  5  1  0  0  0  0
 19  3  1  0  0  0  0
 20 18  1  0  0  0  0
 22 24  1  0  0  0  0
 23 21  1  0  0  0  0
 24 13  1  0  0  0  0
 25  9  1  0  0  0  0
 25 14  1  0  0  0  0
 26 21  1  0  0  0  0
 27  2  1  0  0  0  0
 27  1  1  0  0  0  0
 28 17  1  0  0  0  0
 29 28  1  0  0  0  0
 30 34  1  0  0  0  0
 31 32  1  0  0  0  0
 32 29  1  0  0  0  0
 33 30  1  0  0  0  0
 33 31  1  0  0  0  0
 34 32  1  0  0  0  0
M  END
>  <MODEL>
2

>  <REMARK>
 VINA RESULT:      -9.4      3.806      5.481
  Name = 
  3 active torsions:
  status: ('A' for Active; 'I' for Inactive)
    1  A    between atoms: C_17  and  O_28
    2  A    between atoms: O_28  and  C_29
    3  A    between atoms: C_29  and  C_32
                            x       y       z     vdW  Elec       q    Type
                         _______ _______ _______ _____ _____    ______ ____

>  <TORSDO>
F 3

$$$$
=
 OpenBabel11122412213D

 34 41  0  0  1  0  0  0  0  0999 V2000
  188.6820  178.0650  141.1710 C   0  0  1  0  0  3  0  0  0  0  0  0
  186.9370  178.3360  139.2860 C   0  0  0  0  0  2  0  0  0  0  0  0
  189.4660  176.6210  147.4000 C   0  0  0  0  0  0  0  0  0  0  0  0
  190.1220  177.7750  143.2370 C   0  0  2  0  0  3  0  0  0  0  0  0
  189.0030  178.1580  145.4550 C   0  0  2  0  0  3  0  0  0  0  0  0
  187.5590  177.9450  147.7780 S   0  0  0  0  0  0  0  0  0  0  0  0
  188.3410  176.3790  148.0930 N   0  0  0  0  0  0  0  0  0  0  0  0
  191.7800  176.3680  146.3490 C   0  0  0  0  0  2  0  0  0  0  0  0
  186.3900  178.8200  141.4590 C   0  0  2  0  0  3  0  0  0  0  0  0
  183.2590  178.8540  142.1720 C   0  0  0  0  0  2  0  0  0  0  0  0
  187.6890  177.8650  144.8750 N   0  0  0  0  0  2  0  0  0  0  0  0
  191.4540  177.5220  145.3830 C   0  0  0  0  0  2  0  0  0  0  0  0
  186.2750  178.3100  142.8960 C   0  0  1  0  0  3  0  0  0  0  0  0
  185.5550  178.6280  139.2470 O   0  0  0  0  0  0  0  0  0  0  0  0
  190.0950  177.3520  144.7080 C   0  0  2  0  0  3  0  0  0  0  0  0
  190.6250  175.8470  147.0880 N   0  0  0  0  0  2  0  0  0  0  0  0
  183.9690  178.1310  141.0320 C   0  0  2  0  0  3  0  0  0  0  0  0
  188.7110  177.6370  142.6530 C   0  0  1  0  0  3  0  0  0  0  0  0
  189.0530  177.9990  146.9980 C   0  0  1  0  0  3  0  0  0  0  0  0
  187.6800  178.4040  143.5160 C   0  0  2  0  0  3  0  0  0  0  0  0
  191.0570  177.3030  140.9520 C   0  0  0  0  0  2  0  0  0  0  0  0
  183.8790  178.5370  143.5290 C   0  0  0  0  0  2  0  0  0  0  0  0
  191.0790  176.8970  142.4270 C   0  0  0  0  0  2  0  0  0  0  0  0
  185.2690  179.1370  143.6820 C   0  0  0  0  0  2  0  0  0  0  0  0
  185.1670  178.9670  140.5680 C   0  0  1  0  0  3  0  0  0  0  0  0
  189.6440  177.1800  140.3810 C   0  0  0  0  0  2  0  0  0  0  0  0
  187.2480  177.8930  140.6860 C   0  0  2  0  0  3  0  0  0  0  0  0
  183.0650  177.9620  139.9800 O   0  0  0  0  0  0  0  0  0  0  0  0
  181.9330  178.6830  140.3630 C   0  0  0  0  0  2  0  0  0  0  0  0
  180.2820  181.6280  139.0930 C   0  0  0  0  0  2  0  0  0  0  0  0
  182.3720  180.5030  138.7190 C   0  0  0  0  0  2  0  0  0  0  0  0
  181.3820  179.4520  139.1770 C   0  0  0  0  0  3  0  0  0  0  0  0
  181.5260  181.6540  138.2320 C   0  0  0  0  0  2  0  0  0  0  0  0
  180.1250  180.1990  139.5810 C   0  0  0  0  0  2  0  0  0  0  0  0
  1 26  1  6  0  0  0
  1 18  1  0  0  0  0
  2 27  1  0  0  0  0
  3  7  2  0  0  0  0
  4 23  1  6  0  0  0
  4 15  1  0  0  0  0
  5 11  1  6  0  0  0
  5 19  1  0  0  0  0
  6  7  1  0  0  0  0
  8 16  1  0  0  0  0
  9 13  1  0  0  0  0
 10 22  1  0  0  0  0
 12  8  1  0  0  0  0
 13 20  1  0  0  0  0
 13 24  1  0  0  0  0
 14  2  1  0  0  0  0
 14 25  1  0  0  0  0
 15 12  1  0  0  0  0
 15  5  1  0  0  0  0
 16  3  1  0  0  0  0
 17 10  1  0  0  0  0
 18  4  1  0  0  0  0
 18 20  1  0  0  0  0
 19  3  1  0  0  0  0
 19  6  1  0  0  0  0
 20 11  1  0  0  0  0
 21 23  1  0  0  0  0
 22 24  1  0  0  0  0
 25 17  1  0  0  0  0
 25  9  1  0  0  0  0
 26 21  1  0  0  0  0
 27  1  1  0  0  0  0
 27  9  1  0  0  0  0
 28 29  1  0  0  0  0
 28 17  1  0  0  0  0
 30 34  1  0  0  0  0
 31 32  1  0  0  0  0
 32 34  1  0  0  0  0
 32 29  1  0  0  0  0
 33 31  1  0  0  0  0
 33 30  1  0  0  0  0
M  END
>  <MODEL>
3

>  <REMARK>
 VINA RESULT:      -9.1      2.680      5.134
  Name = 
  3 active torsions:
  status: ('A' for Active; 'I' for Inactive)
    1  A    between atoms: C_17  and  O_28
    2  A    between atoms: O_28  and  C_29
    3  A    between atoms: C_29  and  C_32
                            x       y       z     vdW  Elec       q    Type
                         _______ _______ _______ _____ _____    ______ ____

>  <TORSDO>
F 3

$$$$
=
 OpenBabel11122412213D

 34 41  0  0  1  0  0  0  0  0999 V2000
  188.6640  178.0820  141.1820 C   0  0  1  0  0  3  0  0  0  0  0  0
  186.8950  178.3390  139.3170 C   0  0  0  0  0  2  0  0  0  0  0  0
  189.5340  176.6240  147.3970 C   0  0  0  0  0  0  0  0  0  0  0  0
  190.1290  177.8020  143.2310 C   0  0  2  0  0  3  0  0  0  0  0  0
  189.0310  178.1620  145.4620 C   0  0  2  0  0  3  0  0  0  0  0  0
  187.6150  177.9230  147.8010 S   0  0  0  0  0  0  0  0  0  0  0  0
  188.4190  176.3650  148.1010 N   0  0  0  0  0  0  0  0  0  0  0  0
  191.8380  176.4020  146.3190 C   0  0  0  0  0  2  0  0  0  0  0  0
  186.3660  178.8080  141.4980 C   0  0  2  0  0  3  0  0  0  0  0  0
  183.2430  178.8020  142.2460 C   0  0  0  0  0  2  0  0  0  0  0  0
  187.7140  177.8560  144.8960 N   0  0  0  0  0  2  0  0  0  0  0  0
  191.4880  177.5560  145.3610 C   0  0  0  0  0  2  0  0  0  0  0  0
  186.2730  178.2920  142.9340 C   0  0  1  0  0  3  0  0  0  0  0  0
  185.5090  178.6140  139.2950 O   0  0  0  0  0  0  0  0  0  0  0  0
  190.1240  177.3730  144.7010 C   0  0  2  0  0  3  0  0  0  0  0  0
  190.6980  175.8650  147.0690 N   0  0  0  0  0  2  0  0  0  0  0  0
  183.9490  178.0920  141.0950 C   0  0  2  0  0  3  0  0  0  0  0  0
  188.7140  177.6490  142.6620 C   0  0  1  0  0  3  0  0  0  0  0  0
  189.0990  177.9980  147.0040 C   0  0  1  0  0  3  0  0  0  0  0  0
  187.6840  178.4000  143.5390 C   0  0  2  0  0  3  0  0  0  0  0  0
  191.0450  177.3490  140.9340 C   0  0  0  0  0  2  0  0  0  0  0  0
  183.8810  178.4870  143.5950 C   0  0  0  0  0  2  0  0  0  0  0  0
  191.0880  176.9380  142.4070 C   0  0  0  0  0  2  0  0  0  0  0  0
  185.2660  179.1040  143.7350 C   0  0  0  0  0  2  0  0  0  0  0  0
  185.1320  178.9440  140.6210 C   0  0  1  0  0  3  0  0  0  0  0  0
  189.6280  177.2120  140.3780 C   0  0  0  0  0  2  0  0  0  0  0  0
  187.2270  177.8940  140.7120 C   0  0  2  0  0  3  0  0  0  0  0  0
  183.0360  177.9160  140.0520 O   0  0  0  0  0  0  0  0  0  0  0  0
  181.8070  178.3070  140.5850 C   0  0  0  0  0  2  0  0  0  0  0  0
  180.3250  175.0680  140.0130 C   0  0  0  0  0  2  0  0  0  0  0  0
  179.6470  177.1420  141.0190 C   0  0  0  0  0  2  0  0  0  0  0  0
  180.6900  177.4790  139.9750 C   0  0  0  0  0  3  0  0  0  0  0  0
  179.1410  175.7710  140.6410 C   0  0  0  0  0  2  0  0  0  0  0  0
  181.2370  176.1560  139.4760 C   0  0  0  0  0  2  0  0  0  0  0  0
  1 26  1  6  0  0  0
  1 18  1  0  0  0  0
  2 27  1  0  0  0  0
  3  7  2  0  0  0  0
  4 23  1  6  0  0  0
  4 15  1  0  0  0  0
  5 11  1  6  0  0  0
  5 19  1  0  0  0  0
  6  7  1  0  0  0  0
  8 16  1  0  0  0  0
  9 13  1  0  0  0  0
 10 22  1  0  0  0  0
 12  8  1  0  0  0  0
 13 20  1  0  0  0  0
 13 24  1  0  0  0  0
 14  2  1  0  0  0  0
 14 25  1  0  0  0  0
 15 12  1  0  0  0  0
 15  5  1  0  0  0  0
 16  3  1  0  0  0  0
 17 10  1  0  0  0  0
 18  4  1  0  0  0  0
 18 20  1  0  0  0  0
 19  3  1  0  0  0  0
 19  6  1  0  0  0  0
 20 11  1  0  0  0  0
 21 23  1  0  0  0  0
 22 24  1  0  0  0  0
 25 17  1  0  0  0  0
 25  9  1  0  0  0  0
 26 21  1  0  0  0  0
 27  1  1  0  0  0  0
 27  9  1  0  0  0  0
 28 29  1  0  0  0  0
 28 17  1  0  0  0  0
 30 33  1  0  0  0  0
 32 29  1  0  0  0  0
 32 31  1  0  0  0  0
 33 31  1  0  0  0  0
 34 32  1  0  0  0  0
 34 30  1  0  0  0  0
M  END
>  <MODEL>
4

>  <REMARK>
 VINA RESULT:      -9.1      2.932      5.266
  Name = 
  3 active torsions:
  status: ('A' for Active; 'I' for Inactive)
    1  A    between atoms: C_17  and  O_28
    2  A    between atoms: O_28  and  C_29
    3  A    between atoms: C_29  and  C_32
                            x       y       z     vdW  Elec       q    Type
                         _______ _______ _______ _____ _____    ______ ____

>  <TORSDO>
F 3

$$$$
=
 OpenBabel11122412213D

 34 41  0  0  1  0  0  0  0  0999 V2000
  189.4560  176.8640  137.0410 C   0  0  1  0  0  3  0  0  0  0  0  0
  187.5990  177.9820  138.4470 C   0  0  0  0  0  2  0  0  0  0  0  0
  194.8090  173.2940  137.3430 C   0  0  0  0  0  0  0  0  0  0  0  0
  191.4370  175.7070  135.9640 C   0  0  2  0  0  3  0  0  0  0  0  0
  193.4980  175.4480  137.3790 C   0  0  2  0  0  3  0  0  0  0  0  0
  195.4060  174.6390  139.1780 S   0  0  0  0  0  0  0  0  0  0  0  0
  195.2330  172.9730  138.5770 N   0  0  0  0  0  0  0  0  0  0  0  0
  194.0160  173.1240  134.9210 C   0  0  0  0  0  2  0  0  0  0  0  0
  189.7220  177.7600  139.2840 C   0  0  2  0  0  3  0  0  0  0  0  0
  190.0270  177.9450  142.4760 C   0  0  0  0  0  2  0  0  0  0  0  0
  192.7020  175.5400  138.6070 N   0  0  0  0  0  2  0  0  0  0  0  0
  193.4930  174.5700  135.0030 C   0  0  0  0  0  2  0  0  0  0  0  0
  190.8590  176.8090  139.6590 C   0  0  1  0  0  3  0  0  0  0  0  0
  187.5040  178.4420  139.7800 O   0  0  0  0  0  0  0  0  0  0  0  0
  192.6470  174.8140  136.2510 C   0  0  2  0  0  3  0  0  0  0  0  0
  194.3800  172.5320  136.2130 N   0  0  0  0  0  2  0  0  0  0  0  0
  188.7960  177.5710  141.6560 C   0  0  2  0  0  3  0  0  0  0  0  0
  190.6800  175.9570  137.2740 C   0  0  1  0  0  3  0  0  0  0  0  0
  194.8770  174.7660  137.5820 C   0  0  1  0  0  3  0  0  0  0  0  0
  191.6320  176.5070  138.3630 C   0  0  2  0  0  3  0  0  0  0  0  0
  189.2600  175.9290  134.7270 C   0  0  0  0  0  2  0  0  0  0  0  0
  191.2450  177.1070  142.1000 C   0  0  0  0  0  2  0  0  0  0  0  0
  190.4860  175.0450  134.9640 C   0  0  0  0  0  2  0  0  0  0  0  0
  191.7640  177.4380  140.7070 C   0  0  0  0  0  2  0  0  0  0  0  0
  188.8050  178.3560  140.3390 C   0  0  1  0  0  3  0  0  0  0  0  0
  188.5210  176.1890  136.0390 C   0  0  0  0  0  2  0  0  0  0  0  0
  188.7760  177.0520  138.3910 C   0  0  2  0  0  3  0  0  0  0  0  0
  187.6540  177.8870  142.3960 O   0  0  0  0  0  0  0  0  0  0  0  0
  187.9270  177.4280  143.6860 C   0  0  0  0  0  2  0  0  0  0  0  0
  185.7900  178.8680  146.2100 C   0  0  0  0  0  2  0  0  0  0  0  0
  185.5880  178.2640  143.8930 C   0  0  0  0  0  2  0  0  0  0  0  0
  186.6440  177.3600  144.4940 C   0  0  0  0  0  3  0  0  0  0  0  0
  184.7980  178.7820  145.0700 C   0  0  0  0  0  2  0  0  0  0  0  0
  186.8890  177.8680  145.9020 C   0  0  0  0  0  2  0  0  0  0  0  0
  1 26  1  6  0  0  0
  1 18  1  0  0  0  0
  1 27  1  0  0  0  0
  2 14  1  0  0  0  0
  3 19  1  0  0  0  0
  3  7  2  0  0  0  0
  4 23  1  6  0  0  0
  4 15  1  0  0  0  0
  4 18  1  0  0  0  0
  5 19  1  0  0  0  0
  5 11  1  1  0  0  0
  7  6  1  0  0  0  0
  8 12  1  0  0  0  0
  8 16  1  0  0  0  0
  9 13  1  0  0  0  0
  9 25  1  0  0  0  0
 12 15  1  0  0  0  0
 13 24  1  0  0  0  0
 14 25  1  0  0  0  0
 15  5  1  0  0  0  0
 16  3  1  0  0  0  0
 17 28  1  0  0  0  0
 17 10  1  0  0  0  0
 18 20  1  0  0  0  0
 19  6  1  0  0  0  0
 20 11  1  0  0  0  0
 20 13  1  0  0  0  0
 21 23  1  0  0  0  0
 21 26  1  0  0  0  0
 22 10  1  0  0  0  0
 24 22  1  0  0  0  0
 25 17  1  0  0  0  0
 27  2  1  0  0  0  0
 27  9  1  0  0  0  0
 28 29  1  0  0  0  0
 29 32  1  0  0  0  0
 31 32  1  0  0  0  0
 31 33  1  0  0  0  0
 32 34  1  0  0  0  0
 33 30  1  0  0  0  0
 34 30  1  0  0  0  0
M  END
>  <MODEL>
5

>  <REMARK>
 VINA RESULT:      -9.1      4.166      8.742
  Name = 
  3 active torsions:
  status: ('A' for Active; 'I' for Inactive)
    1  A    between atoms: C_17  and  O_28
    2  A    between atoms: O_28  and  C_29
    3  A    between atoms: C_29  and  C_32
                            x       y       z     vdW  Elec       q    Type
                         _______ _______ _______ _____ _____    ______ ____

>  <TORSDO>
F 3

$$$$
=
 OpenBabel11122412213D

 34 41  0  0  1  0  0  0  0  0999 V2000
  182.1790  179.0700  143.3870 C   0  0  1  0  0  3  0  0  0  0  0  0
  183.4430  179.1040  145.6400 C   0  0  0  0  0  2  0  0  0  0  0  0
  182.3570  176.8980  137.3250 C   0  0  0  0  0  0  0  0  0  0  0  0
  181.2280  178.8940  141.0450 C   0  0  2  0  0  3  0  0  0  0  0  0
  182.8750  178.5240  139.1830 C   0  0  2  0  0  3  0  0  0  0  0  0
  184.6370  177.4770  137.3580 S   0  0  0  0  0  0  0  0  0  0  0  0
  183.4550  176.2020  136.9820 N   0  0  0  0  0  0  0  0  0  0  0  0
  179.9260  177.5610  137.7370 C   0  0  0  0  0  2  0  0  0  0  0  0
  184.5940  179.0140  143.6590 C   0  0  2  0  0  3  0  0  0  0  0  0
  187.6200  177.9500  143.8090 C   0  0  0  0  0  2  0  0  0  0  0  0
  183.8430  177.9410  140.1160 N   0  0  0  0  0  2  0  0  0  0  0  0
  180.4050  178.7040  138.6510 C   0  0  0  0  0  2  0  0  0  0  0  0
  184.8440  178.2560  142.3550 C   0  0  1  0  0  3  0  0  0  0  0  0
  184.7950  178.9540  146.0220 O   0  0  0  0  0  0  0  0  0  0  0  0
  181.4350  178.2380  139.6760 C   0  0  2  0  0  3  0  0  0  0  0  0
  180.9650  176.5880  137.3820 N   0  0  0  0  0  2  0  0  0  0  0  0
  186.4690  177.6900  144.7760 C   0  0  2  0  0  3  0  0  0  0  0  0
  182.3360  178.4260  141.9940 C   0  0  1  0  0  3  0  0  0  0  0  0
  183.1190  178.1260  137.7020 C   0  0  1  0  0  3  0  0  0  0  0  0
  183.7330  178.6750  141.3760 C   0  0  2  0  0  3  0  0  0  0  0  0
  179.7020  179.1340  143.0280 C   0  0  0  0  0  2  0  0  0  0  0  0
  187.2480  177.6140  142.3690 C   0  0  0  0  0  2  0  0  0  0  0  0
  179.8720  178.5100  141.6420 C   0  0  0  0  0  2  0  0  0  0  0  0
  186.2210  178.5820  141.7980 C   0  0  0  0  0  2  0  0  0  0  0  0
  185.5600  178.9240  144.8280 C   0  0  1  0  0  3  0  0  0  0  0  0
  180.8210  178.6790  143.9650 C   0  0  0  0  0  2  0  0  0  0  0  0
  183.3190  178.5470  144.2510 C   0  0  2  0  0  3  0  0  0  0  0  0
  187.0000  177.4320  146.0430 O   0  0  0  0  0  0  0  0  0  0  0  0
  188.2990  177.9400  145.9950 C   0  0  0  0  0  2  0  0  0  0  0  0
  191.7010  176.7400  146.0330 C   0  0  0  0  0  2  0  0  0  0  0  0
  190.0130  177.2480  147.6660 C   0  0  0  0  0  2  0  0  0  0  0  0
  189.2910  176.8630  146.3920 C   0  0  0  0  0  3  0  0  0  0  0  0
  191.4050  176.6840  147.5160 C   0  0  0  0  0  2  0  0  0  0  0  0
  190.3590  176.7190  145.3240 C   0  0  0  0  0  2  0  0  0  0  0  0
  1 26  1  1  0  0  0
  1 27  1  0  0  0  0
  2 14  1  0  0  0  0
  3 16  1  0  0  0  0
  3 19  1  0  0  0  0
  4 23  1  1  0  0  0
  4 18  1  0  0  0  0
  5 15  1  0  0  0  0
  5 11  1  1  0  0  0
  6 19  1  0  0  0  0
  7  3  2  0  0  0  0
  7  6  1  0  0  0  0
  8 12  1  0  0  0  0
  9 27  1  0  0  0  0
  9 25  1  0  0  0  0
 10 17  1  0  0  0  0
 11 20  1  0  0  0  0
 12 15  1  0  0  0  0
 13  9  1  0  0  0  0
 15  4  1  0  0  0  0
 16  8  1  0  0  0  0
 17 25  1  0  0  0  0
 17 28  1  0  0  0  0
 18  1  1  0  0  0  0
 19  5  1  0  0  0  0
 20 18  1  0  0  0  0
 20 13  1  0  0  0  0
 21 26  1  0  0  0  0
 22 10  1  0  0  0  0
 23 21  1  0  0  0  0
 24 13  1  0  0  0  0
 24 22  1  0  0  0  0
 25 14  1  0  0  0  0
 27  2  1  0  0  0  0
 29 28  1  0  0  0  0
 29 32  1  0  0  0  0
 30 33  1  0  0  0  0
 32 31  1  0  0  0  0
 33 31  1  0  0  0  0
 34 30  1  0  0  0  0
 34 32  1  0  0  0  0
M  END
>  <MODEL>
6

>  <REMARK>
 VINA RESULT:      -9.0      4.719      8.741
  Name = 
  3 active torsions:
  status: ('A' for Active; 'I' for Inactive)
    1  A    between atoms: C_17  and  O_28
    2  A    between atoms: O_28  and  C_29
    3  A    between atoms: C_29  and  C_32
                            x       y       z     vdW  Elec       q    Type
                         _______ _______ _______ _____ _____    ______ ____

>  <TORSDO>
F 3

$$$$
=
 OpenBabel11122412213D

 34 41  0  0  1  0  0  0  0  0999 V2000
  188.6020  178.0420  141.0980 C   0  0  1  0  0  3  0  0  0  0  0  0
  186.8430  178.3090  139.2240 C   0  0  0  0  0  2  0  0  0  0  0  0
  189.4260  176.6740  147.3390 C   0  0  0  0  0  0  0  0  0  0  0  0
  190.0570  177.7630  143.1540 C   0  0  2  0  0  3  0  0  0  0  0  0
  188.9640  178.1890  145.3760 C   0  0  2  0  0  3  0  0  0  0  0  0
  187.5390  178.0260  147.7160 S   0  0  0  0  0  0  0  0  0  0  0  0
  188.3050  176.4550  148.0450 N   0  0  0  0  0  0  0  0  0  0  0  0
  191.7270  176.3780  146.2700 C   0  0  0  0  0  2  0  0  0  0  0  0
  186.3220  178.8290  141.3960 C   0  0  2  0  0  3  0  0  0  0  0  0
  183.1990  178.9120  142.1370 C   0  0  0  0  0  2  0  0  0  0  0  0
  187.6410  177.9050  144.8130 N   0  0  0  0  0  2  0  0  0  0  0  0
  191.4060  177.5230  145.2910 C   0  0  0  0  0  2  0  0  0  0  0  0
  186.2140  178.3410  142.8410 C   0  0  1  0  0  3  0  0  0  0  0  0
  185.4640  178.6170  139.1940 O   0  0  0  0  0  0  0  0  0  0  0  0
  190.0390  177.3610  144.6310 C   0  0  2  0  0  3  0  0  0  0  0  0
  190.5730  175.8810  147.0270 N   0  0  0  0  0  2  0  0  0  0  0  0
  183.8890  178.1640  141.0010 C   0  0  2  0  0  3  0  0  0  0  0  0
  188.6400  177.6340  142.5850 C   0  0  1  0  0  3  0  0  0  0  0  0
  189.0260  178.0510  146.9210 C   0  0  1  0  0  3  0  0  0  0  0  0
  187.6270  178.4260  143.4460 C   0  0  2  0  0  3  0  0  0  0  0  0
  190.9650  177.2480  140.8670 C   0  0  0  0  0  2  0  0  0  0  0  0
  183.8270  178.6050  143.4920 C   0  0  0  0  0  2  0  0  0  0  0  0
  190.9960  176.8620  142.3470 C   0  0  0  0  0  2  0  0  0  0  0  0
  185.2260  179.1900  143.6240 C   0  0  0  0  0  2  0  0  0  0  0  0
  185.0940  178.9790  140.5140 C   0  0  1  0  0  3  0  0  0  0  0  0
  189.5460  177.1350  140.3110 C   0  0  0  0  0  2  0  0  0  0  0  0
  187.1620  177.8810  140.6280 C   0  0  2  0  0  3  0  0  0  0  0  0
  182.9740  177.9920  139.9580 O   0  0  0  0  0  0  0  0  0  0  0  0
  182.7710  176.6130  139.8870 C   0  0  0  0  0  2  0  0  0  0  0  0
  183.4810  177.1730  136.3940 C   0  0  0  0  0  2  0  0  0  0  0  0
  183.7770  175.3810  137.9680 C   0  0  0  0  0  2  0  0  0  0  0  0
  182.5880  176.1910  138.4410 C   0  0  0  0  0  3  0  0  0  0  0  0
  183.9390  175.7350  136.5100 C   0  0  0  0  0  2  0  0  0  0  0  0
  182.5220  177.4130  137.5460 C   0  0  0  0  0  2  0  0  0  0  0  0
  1 26  1  6  0  0  0
  1 18  1  0  0  0  0
  2 27  1  0  0  0  0
  3  7  2  0  0  0  0
  4 23  1  6  0  0  0
  4 15  1  0  0  0  0
  5 11  1  6  0  0  0
  5 19  1  0  0  0  0
  6  7  1  0  0  0  0
  8 16  1  0  0  0  0
  9 13  1  0  0  0  0
 10 22  1  0  0  0  0
 12  8  1  0  0  0  0
 13 20  1  0  0  0  0
 13 24  1  0  0  0  0
 14  2  1  0  0  0  0
 14 25  1  0  0  0  0
 15 12  1  0  0  0  0
 15  5  1  0  0  0  0
 16  3  1  0  0  0  0
 17 10  1  0  0  0  0
 18  4  1  0  0  0  0
 18 20  1  0  0  0  0
 19  3  1  0  0  0  0
 19  6  1  0  0  0  0
 20 11  1  0  0  0  0
 21 23  1  0  0  0  0
 22 24  1  0  0  0  0
 25 17  1  0  0  0  0
 25  9  1  0  0  0  0
 26 21  1  0  0  0  0
 27  1  1  0  0  0  0
 27  9  1  0  0  0  0
 28 17  1  0  0  0  0
 29 28  1  0  0  0  0
 30 33  1  0  0  0  0
 30 34  1  0  0  0  0
 31 32  1  0  0  0  0
 32 29  1  0  0  0  0
 33 31  1  0  0  0  0
 34 32  1  0  0  0  0
M  END
>  <MODEL>
7

>  <REMARK>
 VINA RESULT:      -8.7      2.213      4.550
  Name = 
  3 active torsions:
  status: ('A' for Active; 'I' for Inactive)
    1  A    between atoms: C_17  and  O_28
    2  A    between atoms: O_28  and  C_29
    3  A    between atoms: C_29  and  C_32
                            x       y       z     vdW  Elec       q    Type
                         _______ _______ _______ _____ _____    ______ ____

>  <TORSDO>
F 3

$$$$
=
 OpenBabel11122412213D

 34 41  0  0  1  0  0  0  0  0999 V2000
  185.9990  178.7020  143.1250 C   0  0  1  0  0  3  0  0  0  0  0  0
  188.4410  178.2730  142.3990 C   0  0  0  0  0  2  0  0  0  0  0  0
  179.8330  178.0220  141.3900 C   0  0  0  0  0  0  0  0  0  0  0  0
  183.5160  179.0300  143.5140 C   0  0  2  0  0  3  0  0  0  0  0  0
  182.0660  179.1920  141.4680 C   0  0  2  0  0  3  0  0  0  0  0  0
  180.5320  178.6950  139.2470 S   0  0  0  0  0  0  0  0  0  0  0  0
  179.6190  177.4840  140.1770 N   0  0  0  0  0  0  0  0  0  0  0  0
  179.7860  178.4440  143.9080 C   0  0  0  0  0  2  0  0  0  0  0  0
  186.8200  178.7090  140.8380 C   0  0  2  0  0  3  0  0  0  0  0  0
  187.4540  177.7980  137.8250 C   0  0  0  0  0  2  0  0  0  0  0  0
  183.0540  178.4580  140.6730 N   0  0  0  0  0  2  0  0  0  0  0  0
  181.0120  179.3640  143.7650 C   0  0  0  0  0  2  0  0  0  0  0  0
  185.4810  178.2920  140.2290 C   0  0  1  0  0  3  0  0  0  0  0  0
  189.0920  178.1080  141.1560 O   0  0  0  0  0  0  0  0  0  0  0  0
  182.1280  178.7250  142.9430 C   0  0  2  0  0  3  0  0  0  0  0  0
  179.4870  177.6360  142.7210 N   0  0  0  0  0  2  0  0  0  0  0  0
  188.0390  177.2590  139.1270 C   0  0  2  0  0  3  0  0  0  0  0  0
  184.5790  178.4110  142.5990 C   0  0  1  0  0  3  0  0  0  0  0  0
  180.6360  179.1660  140.8630 C   0  0  1  0  0  3  0  0  0  0  0  0
  184.3790  178.8700  141.1340 C   0  0  2  0  0  3  0  0  0  0  0  0
  185.0820  178.7200  145.4550 C   0  0  0  0  0  2  0  0  0  0  0  0
  185.9290  177.7890  137.8330 C   0  0  0  0  0  2  0  0  0  0  0  0
  183.6760  178.4470  144.9200 C   0  0  0  0  0  2  0  0  0  0  0  0
  185.3520  178.8090  138.8050 C   0  0  0  0  0  2  0  0  0  0  0  0
  188.1380  178.3980  140.1480 C   0  0  1  0  0  3  0  0  0  0  0  0
  186.1370  178.1160  144.5290 C   0  0  0  0  0  2  0  0  0  0  0  0
  186.9760  178.0510  142.1560 C   0  0  2  0  0  3  0  0  0  0  0  0
  189.3090  176.7390  138.8640 O   0  0  0  0  0  0  0  0  0  0  0  0
  189.6720  177.2920  137.6340 C   0  0  0  0  0  2  0  0  0  0  0  0
  192.3530  174.8790  137.6850 C   0  0  0  0  0  2  0  0  0  0  0  0
  190.0490  174.9100  137.0060 C   0  0  0  0  0  2  0  0  0  0  0  0
  190.5650  176.3270  136.8760 C   0  0  0  0  0  3  0  0  0  0  0  0
  191.2830  174.0410  137.0190 C   0  0  0  0  0  2  0  0  0  0  0  0
  191.9590  176.3290  137.4740 C   0  0  0  0  0  2  0  0  0  0  0  0
  1 26  1  1  0  0  0
  3 16  1  0  0  0  0
  4 23  1  1  0  0  0
  5 11  1  6  0  0  0
  5 15  1  0  0  0  0
  6  7  1  0  0  0  0
  6 19  1  0  0  0  0
  7  3  2  0  0  0  0
  9 27  1  0  0  0  0
 10 22  1  0  0  0  0
 10 17  1  0  0  0  0
 11 20  1  0  0  0  0
 12  8  1  0  0  0  0
 13  9  1  0  0  0  0
 13 20  1  0  0  0  0
 14  2  1  0  0  0  0
 15  4  1  0  0  0  0
 15 12  1  0  0  0  0
 16  8  1  0  0  0  0
 17 25  1  0  0  0  0
 18  1  1  0  0  0  0
 18  4  1  0  0  0  0
 19  3  1  0  0  0  0
 19  5  1  0  0  0  0
 20 18  1  0  0  0  0
 22 24  1  0  0  0  0
 23 21  1  0  0  0  0
 24 13  1  0  0  0  0
 25  9  1  0  0  0  0
 25 14  1  0  0  0  0
 26 21  1  0  0  0  0
 27  2  1  0  0  0  0
 27  1  1  0  0  0  0
 28 17  1  0  0  0  0
 29 28  1  0  0  0  0
 31 33  1  0  0  0  0
 32 31  1  0  0  0  0
 32 34  1  0  0  0  0
 32 29  1  0  0  0  0
 33 30  1  0  0  0  0
 34 30  1  0  0  0  0
M  END
>  <MODEL>
8

>  <REMARK>
 VINA RESULT:      -8.6      4.402      6.474
  Name = 
  3 active torsions:
  status: ('A' for Active; 'I' for Inactive)
    1  A    between atoms: C_17  and  O_28
    2  A    between atoms: O_28  and  C_29
    3  A    between atoms: C_29  and  C_32
                            x       y       z     vdW  Elec       q    Type
                         _______ _______ _______ _____ _____    ______ ____

>  <TORSDO>
F 3

$$$$
=
 OpenBabel11122412213D

 34 41  0  0  1  0  0  0  0  0999 V2000
  188.5830  177.7510  143.0920 C   0  0  1  0  0  3  0  0  0  0  0  0
  190.9420  176.9090  142.4580 C   0  0  0  0  0  2  0  0  0  0  0  0
  182.5600  178.5340  140.9450 C   0  0  0  0  0  0  0  0  0  0  0  0
  186.1910  178.5370  143.3770 C   0  0  2  0  0  3  0  0  0  0  0  0
  184.9670  179.2070  141.2860 C   0  0  2  0  0  3  0  0  0  0  0  0
  183.5450  179.2700  138.9400 S   0  0  0  0  0  0  0  0  0  0  0  0
  182.3410  178.1810  139.6670 N   0  0  0  0  0  0  0  0  0  0  0  0
  182.3990  178.6890  143.4890 C   0  0  0  0  0  2  0  0  0  0  0  0
  189.5670  177.8290  140.8710 C   0  0  2  0  0  3  0  0  0  0  0  0
  190.2450  177.1280  137.8110 C   0  0  0  0  0  2  0  0  0  0  0  0
  185.8510  178.3730  140.4670 N   0  0  0  0  0  2  0  0  0  0  0  0
  183.7900  179.3490  143.5250 C   0  0  0  0  0  2  0  0  0  0  0  0
  188.2240  177.7610  140.1420 C   0  0  1  0  0  3  0  0  0  0  0  0
  191.6440  176.7440  141.2430 O   0  0  0  0  0  0  0  0  0  0  0  0
  184.8200  178.5850  142.6970 C   0  0  2  0  0  3  0  0  0  0  0  0
  182.0410  178.0890  142.1990 N   0  0  0  0  0  2  0  0  0  0  0  0
  190.6070  176.3480  139.0710 C   0  0  2  0  0  3  0  0  0  0  0  0
  187.1790  177.8130  142.4560 C   0  0  1  0  0  3  0  0  0  0  0  0
  183.6130  179.5370  140.6030 C   0  0  1  0  0  3  0  0  0  0  0  0
  187.1910  178.4540  141.0470 C   0  0  2  0  0  3  0  0  0  0  0  0
  187.5070  177.7110  145.3520 C   0  0  0  0  0  2  0  0  0  0  0  0
  188.7520  177.4310  137.7330 C   0  0  0  0  0  2  0  0  0  0  0  0
  186.1210  177.7900  144.7100 C   0  0  0  0  0  2  0  0  0  0  0  0
  188.3130  178.4400  138.7850 C   0  0  0  0  0  2  0  0  0  0  0  0
  190.8480  177.3290  140.2250 C   0  0  1  0  0  3  0  0  0  0  0  0
  188.4920  177.0050  144.4220 C   0  0  0  0  0  2  0  0  0  0  0  0
  189.4860  177.0180  142.1080 C   0  0  2  0  0  3  0  0  0  0  0  0
  191.7670  175.6090  138.8200 O   0  0  0  0  0  0  0  0  0  0  0  0
  192.4630  176.3530  137.8660 C   0  0  0  0  0  2  0  0  0  0  0  0
  194.5310  173.3980  137.7770 C   0  0  0  0  0  2  0  0  0  0  0  0
  192.6590  174.2540  136.5370 C   0  0  0  0  0  2  0  0  0  0  0  0
  193.4040  175.4500  137.0900 C   0  0  0  0  0  3  0  0  0  0  0  0
  193.6520  173.1190  136.5760 C   0  0  0  0  0  2  0  0  0  0  0  0
  194.4730  174.8960  138.0140 C   0  0  0  0  0  2  0  0  0  0  0  0
  1 26  1  1  0  0  0
  3 16  1  0  0  0  0
  4 23  1  1  0  0  0
  5 11  1  6  0  0  0
  5 15  1  0  0  0  0
  6  7  1  0  0  0  0
  6 19  1  0  0  0  0
  7  3  2  0  0  0  0
  8 12  1  0  0  0  0
  9 27  1  0  0  0  0
 10 17  1  0  0  0  0
 11 20  1  0  0  0  0
 13  9  1  0  0  0  0
 13 20  1  0  0  0  0
 14  2  1  0  0  0  0
 15  4  1  0  0  0  0
 15 12  1  0  0  0  0
 16  8  1  0  0  0  0
 17 25  1  0  0  0  0
 18  1  1  0  0  0  0
 18  4  1  0  0  0  0
 19  3  1  0  0  0  0
 19  5  1  0  0  0  0
 20 18  1  0  0  0  0
 22 10  1  0  0  0  0
 22 24  1  0  0  0  0
 23 21  1  0  0  0  0
 24 13  1  0  0  0  0
 25  9  1  0  0  0  0
 25 14  1  0  0  0  0
 26 21  1  0  0  0  0
 27  2  1  0  0  0  0
 27  1  1  0  0  0  0
 28 17  1  0  0  0  0
 29 28  1  0  0  0  0
 30 34  1  0  0  0  0
 31 33  1  0  0  0  0
 31 32  1  0  0  0  0
 32 29  1  0  0  0  0
 32 34  1  0  0  0  0
 33 30  1  0  0  0  0
M  END
>  <MODEL>
9

>  <REMARK>
 VINA RESULT:      -8.2      3.985      6.086
  Name = 
  3 active torsions:
  status: ('A' for Active; 'I' for Inactive)
    1  A    between atoms: C_17  and  O_28
    2  A    between atoms: O_28  and  C_29
    3  A    between atoms: C_29  and  C_32
                            x       y       z     vdW  Elec       q    Type
                         _______ _______ _______ _____ _____    ______ ____

>  <TORSDO>
F 3

$$$$
