=
 OpenBabel11122410343D

 30 35  0  0  1  0  0  0  0  0999 V2000
  187.2090  177.8250  142.8960 C   0  0  2  0  0  3  0  0  0  0  0  0
  184.8250  178.6360  142.4850 C   0  0  0  0  0  0  0  0  0  0  0  0
  186.8760  178.4890  146.7440 O   0  0  0  0  0  0  0  0  0  0  0  0
  188.2390  177.8780  144.0370 C   0  0  2  0  0  3  0  0  0  0  0  0
  187.6160  178.6820  141.8600 O   0  0  0  0  0  0  0  0  0  0  0  0
  191.2150  177.7020  141.4640 C   0  0  0  0  0  1  0  0  0  0  0  0
  190.4800  175.9610  145.2650 C   0  0  2  0  0  3  0  0  0  0  0  0
  189.9410  178.2370  142.1140 C   0  0  1  0  0  3  0  0  0  0  0  0
  190.1280  177.1020  146.1140 N   0  0  2  0  0  0  0  0  0  0  0  0
  188.1540  178.1790  147.1650 C   0  0  0  0  0  0  0  0  0  0  0  0
  188.7050  178.0610  141.2280 C   0  0  2  0  0  3  0  0  0  0  0  0
  189.6880  177.6520  143.5190 C   0  0  2  0  0  3  0  0  0  0  0  0
  183.5600  178.9980  142.9540 C   0  0  0  0  0  3  0  0  0  0  0  0
  190.9030  176.8830  147.3300 C   0  0  0  0  0  2  0  0  0  0  0  0
  191.9200  175.6130  145.5510 C   0  0  0  0  0  2  0  0  0  0  0  0
  185.0640  178.6810  141.1160 O   0  0  0  0  0  1  0  0  0  0  0  0
  186.4660  177.5400  145.7710 C   0  0  2  0  0  3  0  0  0  0  0  0
  183.2650  178.9270  144.3140 C   0  0  0  0  0  3  0  0  0  0  0  0
  185.8300  178.2250  143.3910 C   0  0  0  0  0  0  0  0  0  0  0  0
  187.7720  176.9650  145.2010 C   0  0  2  0  0  3  0  0  0  0  0  0
  188.7410  178.8000  148.0890 O   0  0  0  0  0  0  0  0  0  0  0  0
  188.7010  176.9980  146.4400 C   0  0  1  0  0  3  0  0  0  0  0  0
  192.1700  176.1440  146.9430 C   0  0  0  0  0  2  0  0  0  0  0  0
  189.4770  175.2650  143.1940 O   0  0  0  0  0  1  0  0  0  0  0  0
  184.2290  178.4750  145.2130 C   0  0  0  0  0  3  0  0  0  0  0  0
  185.5040  178.1130  144.7650 C   0  0  0  0  0  0  0  0  0  0  0  0
  190.2750  176.2520  143.7730 C   0  0  2  0  0  3  0  0  0  0  0  0
  188.9100  178.6920  139.8860 C   0  0  0  0  0  3  0  0  0  0  0  0
  188.8650  178.6490  137.4440 C   0  0  0  0  0  1  0  0  0  0  0  0
  188.6580  178.0100  138.7720 C   0  0  0  0  0  3  0  0  0  0  0  0
  1  5  1  6  0  0  0
  1 19  1  0  0  0  0
  1  4  1  0  0  0  0
  2 13  2  0  0  0  0
  2 19  1  0  0  0  0
  3 10  1  0  0  0  0
  4 20  1  0  0  0  0
  6  8  1  0  0  0  0
  7 15  1  0  0  0  0
  7  9  1  0  0  0  0
  8 12  1  0  0  0  0
  9 22  1  0  0  0  0
  9 14  1  0  0  0  0
 10 21  2  0  0  0  0
 11  5  1  0  0  0  0
 11  8  1  0  0  0  0
 12 27  1  0  0  0  0
 12  4  1  0  0  0  0
 13 18  1  0  0  0  0
 15 23  1  0  0  0  0
 16  2  1  0  0  0  0
 17  3  1  0  0  0  0
 18 25  2  0  0  0  0
 19 26  2  0  0  0  0
 20 17  1  0  0  0  0
 20 22  1  0  0  0  0
 22 10  1  0  0  0  0
 23 14  1  0  0  0  0
 24 27  1  0  0  0  0
 26 25  1  0  0  0  0
 26 17  1  0  0  0  0
 27  7  1  0  0  0  0
 28 11  1  0  0  0  0
 29 30  1  0  0  0  0
 30 28  2  0  0  0  0
M  END
>  <MODEL>
1

>  <REMARK>
 VINA RESULT:     -10.2      0.000      0.000
  Name = 
  1 active torsions:
  status: ('A' for Active; 'I' for Inactive)
    1  A    between atoms: C_11  and  C_28
                            x       y       z     vdW  Elec       q    Type
                         _______ _______ _______ _____ _____    ______ ____

>  <TORSDO>
F 1

$$$$
=
 OpenBabel11122410343D

 30 35  0  0  1  0  0  0  0  0999 V2000
  186.0860  178.0230  142.2810 C   0  0  2  0  0  3  0  0  0  0  0  0
  183.9050  178.5480  141.0670 C   0  0  0  0  0  0  0  0  0  0  0  0
  184.6070  179.2760  145.6870 O   0  0  0  0  0  0  0  0  0  0  0  0
  186.7300  178.3510  143.6400 C   0  0  2  0  0  3  0  0  0  0  0  0
  186.7530  178.7310  141.2670 O   0  0  0  0  0  0  0  0  0  0  0  0
  190.3380  178.0110  142.1000 C   0  0  0  0  0  1  0  0  0  0  0  0
  188.5700  176.8590  145.7820 C   0  0  2  0  0  3  0  0  0  0  0  0
  188.9120  178.5340  142.2510 C   0  0  1  0  0  3  0  0  0  0  0  0
  187.9440  178.0890  146.2740 N   0  0  2  0  0  0  0  0  0  0  0  0
  185.7120  179.1510  146.5040 C   0  0  0  0  0  0  0  0  0  0  0  0
  188.0010  178.1100  141.0960 C   0  0  2  0  0  3  0  0  0  0  0  0
  188.2740  178.1680  143.6070 C   0  0  2  0  0  3  0  0  0  0  0  0
  182.5460  178.8720  141.0820 C   0  0  0  0  0  3  0  0  0  0  0  0
  188.3310  178.1390  147.6790 C   0  0  0  0  0  2  0  0  0  0  0  0
  189.8720  176.6870  146.5260 C   0  0  0  0  0  2  0  0  0  0  0  0
  184.5360  178.3890  139.8390 O   0  0  0  0  0  1  0  0  0  0  0  0
  184.5350  178.1500  144.8270 C   0  0  2  0  0  3  0  0  0  0  0  0
  181.8640  179.0010  142.2900 C   0  0  0  0  0  3  0  0  0  0  0  0
  184.6100  178.3790  142.2810 C   0  0  0  0  0  0  0  0  0  0  0  0
  185.9700  177.6030  144.7670 C   0  0  2  0  0  3  0  0  0  0  0  0
  185.9780  179.9630  147.4290 O   0  0  0  0  0  0  0  0  0  0  0  0
  186.4890  177.9180  146.1920 C   0  0  1  0  0  3  0  0  0  0  0  0
  189.6810  177.4590  147.8110 C   0  0  0  0  0  2  0  0  0  0  0  0
  188.2500  175.7510  143.6740 O   0  0  0  0  0  1  0  0  0  0  0  0
  182.5340  178.7860  143.4930 C   0  0  0  0  0  3  0  0  0  0  0  0
  183.8960  178.4660  143.5010 C   0  0  0  0  0  0  0  0  0  0  0  0
  188.8070  176.8840  144.2680 C   0  0  2  0  0  3  0  0  0  0  0  0
  188.5720  178.5280  139.7770 C   0  0  0  0  0  3  0  0  0  0  0  0
  188.6730  178.4480  137.3380 C   0  0  0  0  0  1  0  0  0  0  0  0
  188.0960  178.0230  138.6430 C   0  0  0  0  0  3  0  0  0  0  0  0
  1  5  1  6  0  0  0
  1 19  1  0  0  0  0
  1  4  1  0  0  0  0
  2 13  2  0  0  0  0
  2 19  1  0  0  0  0
  3 10  1  0  0  0  0
  4 20  1  0  0  0  0
  6  8  1  0  0  0  0
  7  9  1  0  0  0  0
  7 15  1  0  0  0  0
  8 12  1  0  0  0  0
  9 14  1  0  0  0  0
 10 21  2  0  0  0  0
 11  5  1  0  0  0  0
 11  8  1  0  0  0  0
 12  4  1  0  0  0  0
 12 27  1  0  0  0  0
 13 18  1  0  0  0  0
 14 23  1  0  0  0  0
 15 23  1  0  0  0  0
 16  2  1  0  0  0  0
 17  3  1  0  0  0  0
 18 25  2  0  0  0  0
 19 26  2  0  0  0  0
 20 17  1  0  0  0  0
 20 22  1  0  0  0  0
 22  9  1  0  0  0  0
 22 10  1  0  0  0  0
 24 27  1  0  0  0  0
 25 26  1  0  0  0  0
 26 17  1  0  0  0  0
 27  7  1  0  0  0  0
 28 11  1  0  0  0  0
 29 30  1  0  0  0  0
 30 28  2  0  0  0  0
M  END
>  <MODEL>
2

>  <REMARK>
 VINA RESULT:     -10.2      1.347      1.971
  Name = 
  1 active torsions:
  status: ('A' for Active; 'I' for Inactive)
    1  A    between atoms: C_11  and  C_28
                            x       y       z     vdW  Elec       q    Type
                         _______ _______ _______ _____ _____    ______ ____

>  <TORSDO>
F 1

$$$$
=
 OpenBabel11122410343D

 30 35  0  0  1  0  0  0  0  0999 V2000
  188.1210  177.9880  142.5160 C   0  0  2  0  0  3  0  0  0  0  0  0
  185.6740  178.6340  142.8350 C   0  0  0  0  0  0  0  0  0  0  0  0
  187.5130  177.1680  138.7330 O   0  0  0  0  0  0  0  0  0  0  0  0
  188.9690  177.2600  141.4580 C   0  0  2  0  0  3  0  0  0  0  0  0
  187.9930  177.1720  143.6530 O   0  0  0  0  0  0  0  0  0  0  0  0
  191.5490  176.1100  144.2020 C   0  0  0  0  0  1  0  0  0  0  0  0
  191.8990  177.5220  140.2150 C   0  0  2  0  0  3  0  0  0  0  0  0
  190.1930  176.2700  143.5190 C   0  0  1  0  0  3  0  0  0  0  0  0
  190.9930  176.6580  139.4530 N   0  0  2  0  0  0  0  0  0  0  0  0
  188.7580  176.6930  138.3730 C   0  0  0  0  0  0  0  0  0  0  0  0
  189.2400  177.1810  144.2980 C   0  0  2  0  0  3  0  0  0  0  0  0
  190.3060  176.7330  142.0510 C   0  0  2  0  0  3  0  0  0  0  0  0
  184.4180  178.9550  142.3160 C   0  0  0  0  0  3  0  0  0  0  0  0
  191.7730  176.2870  138.2780 C   0  0  0  0  0  2  0  0  0  0  0  0
  193.3010  177.0090  139.9970 C   0  0  0  0  0  2  0  0  0  0  0  0
  185.8400  178.6270  144.2160 O   0  0  0  0  0  1  0  0  0  0  0  0
  187.6720  178.2930  139.5820 C   0  0  2  0  0  3  0  0  0  0  0  0
  184.2180  179.0150  140.9390 C   0  0  0  0  0  3  0  0  0  0  0  0
  186.7490  178.3350  141.9670 C   0  0  0  0  0  0  0  0  0  0  0  0
  189.0780  178.1400  140.1850 C   0  0  2  0  0  3  0  0  0  0  0  0
  188.9240  175.7530  137.5530 O   0  0  0  0  0  0  0  0  0  0  0  0
  189.8510  177.4720  139.0210 C   0  0  1  0  0  3  0  0  0  0  0  0
  193.2350  176.2700  138.6810 C   0  0  0  0  0  2  0  0  0  0  0  0
  191.4150  178.8800  142.1380 O   0  0  0  0  0  1  0  0  0  0  0  0
  185.2800  178.7740  140.0700 C   0  0  0  0  0  3  0  0  0  0  0  0
  186.5460  178.4450  140.5690 C   0  0  0  0  0  0  0  0  0  0  0  0
  191.5580  177.5600  141.7090 C   0  0  2  0  0  3  0  0  0  0  0  0
  189.0620  176.6980  145.7030 C   0  0  0  0  0  3  0  0  0  0  0  0
  188.3080  176.9790  148.0090 C   0  0  0  0  0  1  0  0  0  0  0  0
  188.4790  177.4720  146.6150 C   0  0  0  0  0  3  0  0  0  0  0  0
  1 19  1  6  0  0  0
  1  5  1  0  0  0  0
  2 16  1  0  0  0  0
  3 17  1  0  0  0  0
  4 12  1  0  0  0  0
  4  1  1  0  0  0  0
  5 11  1  0  0  0  0
  7 27  1  0  0  0  0
  8  6  1  0  0  0  0
  8 11  1  0  0  0  0
  9  7  1  0  0  0  0
 10  3  1  0  0  0  0
 10 22  1  0  0  0  0
 11 28  1  0  0  0  0
 12  8  1  0  0  0  0
 13  2  1  0  0  0  0
 14 23  1  0  0  0  0
 14  9  1  0  0  0  0
 15  7  1  0  0  0  0
 17 20  1  0  0  0  0
 17 26  1  0  0  0  0
 18 13  2  0  0  0  0
 19  2  2  0  0  0  0
 20  4  1  0  0  0  0
 21 10  2  0  0  0  0
 22  9  1  0  0  0  0
 22 20  1  0  0  0  0
 23 15  1  0  0  0  0
 25 26  2  0  0  0  0
 25 18  1  0  0  0  0
 26 19  1  0  0  0  0
 27 12  1  0  0  0  0
 27 24  1  0  0  0  0
 28 30  2  0  0  0  0
 30 29  1  0  0  0  0
M  END
>  <MODEL>
3

>  <REMARK>
 VINA RESULT:      -8.6      2.461      5.808
  Name = 
  1 active torsions:
  status: ('A' for Active; 'I' for Inactive)
    1  A    between atoms: C_11  and  C_28
                            x       y       z     vdW  Elec       q    Type
                         _______ _______ _______ _____ _____    ______ ____

>  <TORSDO>
F 1

$$$$
=
 OpenBabel11122410343D

 30 35  0  0  1  0  0  0  0  0999 V2000
  188.2630  178.0580  143.5560 C   0  0  2  0  0  3  0  0  0  0  0  0
  187.5480  178.3820  141.1290 C   0  0  0  0  0  0  0  0  0  0  0  0
  191.1480  175.6310  142.4860 O   0  0  0  0  0  0  0  0  0  0  0  0
  189.1640  177.0960  144.3500 C   0  0  2  0  0  3  0  0  0  0  0  0
  186.9170  177.7900  143.8550 O   0  0  0  0  0  0  0  0  0  0  0  0
  187.0100  177.6390  147.6020 C   0  0  0  0  0  1  0  0  0  0  0  0
  191.1680  177.2690  146.8310 C   0  0  2  0  0  3  0  0  0  0  0  0
  187.3040  177.2780  146.1480 C   0  0  1  0  0  3  0  0  0  0  0  0
  191.2740  176.0330  146.0520 N   0  0  2  0  0  0  0  0  0  0  0  0
  191.6320  175.2540  143.7220 C   0  0  0  0  0  0  0  0  0  0  0  0
  186.6900  178.2690  145.1560 C   0  0  2  0  0  3  0  0  0  0  0  0
  188.8090  177.0880  145.8640 C   0  0  2  0  0  3  0  0  0  0  0  0
  187.7830  178.2490  139.7580 C   0  0  0  0  0  3  0  0  0  0  0  0
  192.3930  175.3290  146.6690 C   0  0  0  0  0  2  0  0  0  0  0  0
  191.5550  176.9420  148.2520 C   0  0  0  0  0  2  0  0  0  0  0  0
  186.3670  178.9840  141.5440 O   0  0  0  0  0  1  0  0  0  0  0  0
  190.8550  177.0190  142.5060 C   0  0  2  0  0  3  0  0  0  0  0  0
  188.9720  177.6890  139.2970 C   0  0  0  0  0  3  0  0  0  0  0  0
  188.5020  177.9180  142.0630 C   0  0  0  0  0  0  0  0  0  0  0  0
  190.6490  177.3610  143.9910 C   0  0  2  0  0  3  0  0  0  0  0  0
  192.0560  174.0940  143.9680 O   0  0  0  0  0  0  0  0  0  0  0  0
  191.6460  176.3960  144.6800 C   0  0  1  0  0  3  0  0  0  0  0  0
  192.4300  175.7160  148.1350 C   0  0  0  0  0  2  0  0  0  0  0  0
  189.8330  179.2170  146.3810 O   0  0  0  0  0  1  0  0  0  0  0  0
  189.9450  177.2750  140.2050 C   0  0  0  0  0  3  0  0  0  0  0  0
  189.7270  177.3940  141.5820 C   0  0  0  0  0  0  0  0  0  0  0  0
  189.7630  177.8800  146.7760 C   0  0  2  0  0  3  0  0  0  0  0  0
  185.2150  178.4040  145.3720 C   0  0  0  0  0  3  0  0  0  0  0  0
  182.9650  179.0050  144.6350 C   0  0  0  0  0  1  0  0  0  0  0  0
  184.4310  178.8760  144.4070 C   0  0  0  0  0  3  0  0  0  0  0  0
  1 19  1  6  0  0  0
  1  5  1  0  0  0  0
  1  4  1  0  0  0  0
  2 16  1  0  0  0  0
  2 19  1  0  0  0  0
  3 17  1  0  0  0  0
  3 10  1  0  0  0  0
  4 12  1  0  0  0  0
  5 11  1  0  0  0  0
  7 15  1  0  0  0  0
  8  6  1  0  0  0  0
  9 14  1  0  0  0  0
  9  7  1  0  0  0  0
 10 21  2  0  0  0  0
 10 22  1  0  0  0  0
 11 28  1  0  0  0  0
 11  8  1  0  0  0  0
 12  8  1  0  0  0  0
 12 27  1  0  0  0  0
 13  2  2  0  0  0  0
 14 23  1  0  0  0  0
 17 20  1  0  0  0  0
 18 13  1  0  0  0  0
 18 25  2  0  0  0  0
 20  4  1  0  0  0  0
 20 22  1  0  0  0  0
 22  9  1  0  0  0  0
 23 15  1  0  0  0  0
 24 27  1  0  0  0  0
 25 26  1  0  0  0  0
 26 19  2  0  0  0  0
 26 17  1  0  0  0  0
 27  7  1  0  0  0  0
 30 29  1  0  0  0  0
 30 28  2  0  0  0  0
M  END
>  <MODEL>
4

>  <REMARK>
 VINA RESULT:      -8.3      1.385      4.936
  Name = 
  1 active torsions:
  status: ('A' for Active; 'I' for Inactive)
    1  A    between atoms: C_11  and  C_28
                            x       y       z     vdW  Elec       q    Type
                         _______ _______ _______ _____ _____    ______ ____

>  <TORSDO>
F 1

$$$$
=
 OpenBabel11122410343D

 30 35  0  0  1  0  0  0  0  0999 V2000
  186.1500  178.4230  142.8690 C   0  0  2  0  0  3  0  0  0  0  0  0
  184.1930  178.7180  144.4770 C   0  0  0  0  0  0  0  0  0  0  0  0
  183.7150  177.8000  139.8630 O   0  0  0  0  0  0  0  0  0  0  0  0
  186.3700  177.8900  141.4420 C   0  0  2  0  0  3  0  0  0  0  0  0
  186.6990  177.5190  143.7940 O   0  0  0  0  0  0  0  0  0  0  0  0
  190.0830  176.8980  142.3010 C   0  0  0  0  0  1  0  0  0  0  0  0
  188.1860  178.6220  138.9190 C   0  0  2  0  0  3  0  0  0  0  0  0
  188.5630  176.9260  142.4360 C   0  0  1  0  0  3  0  0  0  0  0  0
  187.0840  177.7030  138.6250 N   0  0  2  0  0  0  0  0  0  0  0  0
  184.6190  177.5200  138.8580 C   0  0  0  0  0  0  0  0  0  0  0  0
  188.0940  177.6470  143.7040 C   0  0  2  0  0  3  0  0  0  0  0  0
  187.8550  177.5020  141.1920 C   0  0  2  0  0  3  0  0  0  0  0  0
  182.8300  178.9070  144.7220 C   0  0  0  0  0  3  0  0  0  0  0  0
  187.1580  177.5220  137.1800 C   0  0  0  0  0  2  0  0  0  0  0  0
  189.3000  178.3150  137.9490 C   0  0  0  0  0  2  0  0  0  0  0  0
  185.0570  178.6340  145.5630 O   0  0  0  0  0  1  0  0  0  0  0  0
  184.2100  178.8730  140.6480 C   0  0  2  0  0  3  0  0  0  0  0  0
  181.9350  179.0370  143.6630 C   0  0  0  0  0  3  0  0  0  0  0  0
  184.6720  178.6250  143.1510 C   0  0  0  0  0  0  0  0  0  0  0  0
  185.7300  178.8650  140.4200 C   0  0  2  0  0  3  0  0  0  0  0  0
  184.4010  176.6710  137.9560 O   0  0  0  0  0  0  0  0  0  0  0  0
  185.8270  178.3880  138.9490 C   0  0  1  0  0  3  0  0  0  0  0  0
  188.6110  177.6690  136.7700 C   0  0  0  0  0  2  0  0  0  0  0  0
  188.6800  179.7650  140.9750 O   0  0  0  0  0  1  0  0  0  0  0  0
  182.4000  178.9990  142.3500 C   0  0  0  0  0  3  0  0  0  0  0  0
  183.7590  178.8060  142.0830 C   0  0  0  0  0  0  0  0  0  0  0  0
  188.6760  178.5090  140.3670 C   0  0  2  0  0  3  0  0  0  0  0  0
  188.7150  177.0460  144.9260 C   0  0  0  0  0  3  0  0  0  0  0  0
  189.0650  176.9270  147.3400 C   0  0  0  0  0  1  0  0  0  0  0  0
  188.4410  177.5340  146.1330 C   0  0  0  0  0  3  0  0  0  0  0  0
  1 19  1  1  0  0  0
  1  5  1  0  0  0  0
  2 13  1  0  0  0  0
  2 16  1  0  0  0  0
  3 17  1  0  0  0  0
  4  1  1  0  0  0  0
  6  8  1  0  0  0  0
  7 27  1  0  0  0  0
  8 11  1  0  0  0  0
  9  7  1  0  0  0  0
  9 22  1  0  0  0  0
 10 22  1  0  0  0  0
 10  3  1  0  0  0  0
 11  5  1  0  0  0  0
 11 28  1  0  0  0  0
 12  4  1  0  0  0  0
 12  8  1  0  0  0  0
 14  9  1  0  0  0  0
 15  7  1  0  0  0  0
 17 26  1  0  0  0  0
 18 13  2  0  0  0  0
 19  2  2  0  0  0  0
 20 17  1  0  0  0  0
 20  4  1  0  0  0  0
 21 10  2  0  0  0  0
 22 20  1  0  0  0  0
 23 14  1  0  0  0  0
 23 15  1  0  0  0  0
 25 18  1  0  0  0  0
 26 25  2  0  0  0  0
 26 19  1  0  0  0  0
 27 24  1  0  0  0  0
 27 12  1  0  0  0  0
 28 30  2  0  0  0  0
 30 29  1  0  0  0  0
M  END
>  <MODEL>
5

>  <REMARK>
 VINA RESULT:      -7.9      2.359      6.176
  Name = 
  1 active torsions:
  status: ('A' for Active; 'I' for Inactive)
    1  A    between atoms: C_11  and  C_28
                            x       y       z     vdW  Elec       q    Type
                         _______ _______ _______ _____ _____    ______ ____

>  <TORSDO>
F 1

$$$$
=
 OpenBabel11122410343D

 30 35  0  0  1  0  0  0  0  0999 V2000
  187.0320  178.2890  143.0000 C   0  0  2  0  0  3  0  0  0  0  0  0
  185.6710  178.4800  145.1490 C   0  0  0  0  0  0  0  0  0  0  0  0
  183.7720  178.0090  140.8440 O   0  0  0  0  0  0  0  0  0  0  0  0
  186.7810  177.8850  141.5370 C   0  0  2  0  0  3  0  0  0  0  0  0
  187.7870  177.2890  143.6370 O   0  0  0  0  0  0  0  0  0  0  0  0
  190.5240  176.7270  141.1350 C   0  0  0  0  0  1  0  0  0  0  0  0
  187.7840  178.8050  138.6470 C   0  0  2  0  0  3  0  0  0  0  0  0
  189.1190  176.7790  141.7300 C   0  0  1  0  0  3  0  0  0  0  0  0
  186.5980  177.9450  138.6310 N   0  0  2  0  0  0  0  0  0  0  0  0
  184.3140  177.8020  139.5910 C   0  0  0  0  0  0  0  0  0  0  0  0
  189.0940  177.3900  143.1340 C   0  0  2  0  0  3  0  0  0  0  0  0
  188.0990  177.4870  140.8130 C   0  0  2  0  0  3  0  0  0  0  0  0
  184.4580  178.6780  145.8140 C   0  0  0  0  0  3  0  0  0  0  0  0
  186.2230  177.8980  137.2220 C   0  0  0  0  0  2  0  0  0  0  0  0
  188.5350  178.5620  137.3610 C   0  0  0  0  0  2  0  0  0  0  0  0
  186.8170  178.2740  145.9080 O   0  0  0  0  0  1  0  0  0  0  0  0
  184.5360  178.9920  141.5240 C   0  0  2  0  0  3  0  0  0  0  0  0
  183.2920  178.9300  145.0940 C   0  0  0  0  0  3  0  0  0  0  0  0
  185.7210  178.4990  143.7370 C   0  0  0  0  0  0  0  0  0  0  0  0
  185.9130  178.9670  140.8420 C   0  0  2  0  0  3  0  0  0  0  0  0
  183.7890  177.0460  138.7330 O   0  0  0  0  0  0  0  0  0  0  0  0
  185.5360  178.6280  139.3780 C   0  0  1  0  0  3  0  0  0  0  0  0
  187.4890  178.0460  136.4010 C   0  0  0  0  0  2  0  0  0  0  0  0
  188.9360  179.7390  140.5390 O   0  0  0  0  0  1  0  0  0  0  0  0
  183.3350  179.0030  143.7030 C   0  0  0  0  0  3  0  0  0  0  0  0
  184.5380  178.8020  143.0180 C   0  0  0  0  0  0  0  0  0  0  0  0
  188.6830  178.5450  139.8610 C   0  0  2  0  0  3  0  0  0  0  0  0
  190.0240  176.6630  144.0550 C   0  0  0  0  0  3  0  0  0  0  0  0
  191.6800  176.5950  145.8480 C   0  0  0  0  0  1  0  0  0  0  0  0
  190.7600  177.3310  144.9380 C   0  0  0  0  0  3  0  0  0  0  0  0
  1  5  1  1  0  0  0
  1 19  1  0  0  0  0
  2 13  1  0  0  0  0
  2 16  1  0  0  0  0
  3 17  1  0  0  0  0
  4  1  1  0  0  0  0
  6  8  1  0  0  0  0
  7 27  1  0  0  0  0
  8 11  1  0  0  0  0
  9  7  1  0  0  0  0
  9 22  1  0  0  0  0
 10  3  1  0  0  0  0
 11  5  1  0  0  0  0
 11 28  1  0  0  0  0
 12  4  1  0  0  0  0
 12  8  1  0  0  0  0
 14  9  1  0  0  0  0
 15  7  1  0  0  0  0
 17 26  1  0  0  0  0
 18 13  2  0  0  0  0
 19  2  2  0  0  0  0
 20 17  1  0  0  0  0
 20  4  1  0  0  0  0
 21 10  2  0  0  0  0
 22 10  1  0  0  0  0
 22 20  1  0  0  0  0
 23 14  1  0  0  0  0
 23 15  1  0  0  0  0
 25 18  1  0  0  0  0
 26 25  2  0  0  0  0
 26 19  1  0  0  0  0
 27 24  1  0  0  0  0
 27 12  1  0  0  0  0
 28 30  2  0  0  0  0
 30 29  1  0  0  0  0
M  END
>  <MODEL>
6

>  <REMARK>
 VINA RESULT:      -7.8      2.177      6.070
  Name = 
  1 active torsions:
  status: ('A' for Active; 'I' for Inactive)
    1  A    between atoms: C_11  and  C_28
                            x       y       z     vdW  Elec       q    Type
                         _______ _______ _______ _____ _____    ______ ____

>  <TORSDO>
F 1

$$$$
=
 OpenBabel11122410343D

 30 35  0  0  1  0  0  0  0  0999 V2000
  188.2110  177.3990  140.2050 C   0  0  2  0  0  3  0  0  0  0  0  0
  187.5270  177.8540  142.6200 C   0  0  0  0  0  0  0  0  0  0  0  0
  192.0100  177.4790  141.1620 O   0  0  0  0  0  0  0  0  0  0  0  0
  189.4970  177.4680  139.3630 C   0  0  2  0  0  3  0  0  0  0  0  0
  187.3490  178.4430  139.8260 O   0  0  0  0  0  0  0  0  0  0  0  0
  187.4100  178.1290  136.0890 C   0  0  0  0  0  1  0  0  0  0  0  0
  190.8410  175.7990  136.9940 C   0  0  2  0  0  3  0  0  0  0  0  0
  187.9100  178.3560  137.5130 C   0  0  1  0  0  3  0  0  0  0  0  0
  191.7440  176.7430  137.6570 N   0  0  2  0  0  0  0  0  0  0  0  0
  192.5880  177.3310  139.9170 C   0  0  0  0  0  0  0  0  0  0  0  0
  186.8290  178.0990  138.5680 C   0  0  2  0  0  3  0  0  0  0  0  0
  189.1870  177.5550  137.8410 C   0  0  2  0  0  3  0  0  0  0  0  0
  187.8320  177.9370  143.9810 C   0  0  0  0  0  3  0  0  0  0  0  0
  193.0340  176.4930  137.0250 C   0  0  0  0  0  2  0  0  0  0  0  0
  191.3070  175.6580  135.5650 C   0  0  0  0  0  2  0  0  0  0  0  0
  186.2250  178.1210  142.2140 O   0  0  0  0  0  1  0  0  0  0  0  0
  190.8890  176.6150  141.2600 C   0  0  2  0  0  3  0  0  0  0  0  0
  189.1140  177.6380  144.4370 C   0  0  0  0  0  3  0  0  0  0  0  0
  188.5270  177.4970  141.6870 C   0  0  0  0  0  0  0  0  0  0  0  0
  190.4690  176.3430  139.8060 C   0  0  2  0  0  3  0  0  0  0  0  0
  193.6540  177.9100  139.5810 O   0  0  0  0  0  0  0  0  0  0  0  0
  191.8320  176.3630  139.0720 C   0  0  1  0  0  3  0  0  0  0  0  0
  192.7690  176.0320  135.6040 C   0  0  0  0  0  2  0  0  0  0  0  0
  188.5770  175.2310  137.5690 O   0  0  0  0  0  1  0  0  0  0  0  0
  190.0970  177.2350  143.5350 C   0  0  0  0  0  3  0  0  0  0  0  0
  189.8140  177.1500  142.1670 C   0  0  0  0  0  0  0  0  0  0  0  0
  189.3760  176.2500  137.0480 C   0  0  2  0  0  3  0  0  0  0  0  0
  185.6120  178.9290  138.3040 C   0  0  0  0  0  3  0  0  0  0  0  0
  183.4140  179.8030  138.9140 C   0  0  0  0  0  1  0  0  0  0  0  0
  184.6190  178.9730  139.1890 C   0  0  0  0  0  3  0  0  0  0  0  0
  1  5  1  6  0  0  0
  1 19  1  0  0  0  0
  2 13  1  0  0  0  0
  3 17  1  0  0  0  0
  4 20  1  0  0  0  0
  4  1  1  0  0  0  0
  6  8  1  0  0  0  0
  7 27  1  0  0  0  0
  7  9  1  0  0  0  0
  8 12  1  0  0  0  0
  8 11  1  0  0  0  0
  9 22  1  0  0  0  0
 10  3  1  0  0  0  0
 11  5  1  0  0  0  0
 12  4  1  0  0  0  0
 13 18  2  0  0  0  0
 14  9  1  0  0  0  0
 15 23  1  0  0  0  0
 15  7  1  0  0  0  0
 16  2  1  0  0  0  0
 17 26  1  0  0  0  0
 19 26  1  0  0  0  0
 19  2  2  0  0  0  0
 20 17  1  0  0  0  0
 21 10  2  0  0  0  0
 22 20  1  0  0  0  0
 22 10  1  0  0  0  0
 23 14  1  0  0  0  0
 25 18  1  0  0  0  0
 26 25  2  0  0  0  0
 27 24  1  0  0  0  0
 27 12  1  0  0  0  0
 28 11  1  0  0  0  0
 28 30  2  0  0  0  0
 29 30  1  0  0  0  0
M  END
>  <MODEL>
7

>  <REMARK>
 VINA RESULT:      -7.8      3.278      6.550
  Name = 
  1 active torsions:
  status: ('A' for Active; 'I' for Inactive)
    1  A    between atoms: C_11  and  C_28
                            x       y       z     vdW  Elec       q    Type
                         _______ _______ _______ _____ _____    ______ ____

>  <TORSDO>
F 1

$$$$
=
 OpenBabel11122410343D

 30 35  0  0  1  0  0  0  0  0999 V2000
  187.6170  178.1580  141.3220 C   0  0  2  0  0  3  0  0  0  0  0  0
  186.5520  178.3460  143.6320 C   0  0  0  0  0  0  0  0  0  0  0  0
  184.1230  177.5670  139.6500 O   0  0  0  0  0  0  0  0  0  0  0  0
  187.1990  177.6780  139.9210 C   0  0  2  0  0  3  0  0  0  0  0  0
  188.5230  177.2400  141.8790 O   0  0  0  0  0  0  0  0  0  0  0  0
  190.9270  176.7620  139.0390 C   0  0  0  0  0  1  0  0  0  0  0  0
  187.7280  178.5430  136.8920 C   0  0  2  0  0  3  0  0  0  0  0  0
  189.6170  176.7430  139.8220 C   0  0  1  0  0  3  0  0  0  0  0  0
  186.6170  177.6030  137.0680 N   0  0  2  0  0  0  0  0  0  0  0  0
  184.5020  177.3450  138.3420 C   0  0  0  0  0  0  0  0  0  0  0  0
  189.7390  177.4090  141.1960 C   0  0  2  0  0  3  0  0  0  0  0  0
  188.4320  177.3400  139.0340 C   0  0  2  0  0  3  0  0  0  0  0  0
  185.4300  178.4890  144.4520 C   0  0  0  0  0  3  0  0  0  0  0  0
  186.0570  177.4710  135.7280 C   0  0  0  0  0  2  0  0  0  0  0  0
  188.3120  178.2980  135.5220 C   0  0  0  0  0  2  0  0  0  0  0  0
  187.8030  178.2510  144.2300 O   0  0  0  0  0  1  0  0  0  0  0  0
  184.8990  178.6270  140.1860 C   0  0  2  0  0  3  0  0  0  0  0  0
  184.1610  178.6290  143.8940 C   0  0  0  0  0  3  0  0  0  0  0  0
  186.4070  178.3100  142.2270 C   0  0  0  0  0  0  0  0  0  0  0  0
  186.1680  178.6680  139.3190 C   0  0  2  0  0  3  0  0  0  0  0  0
  183.9220  176.5200  137.5890 O   0  0  0  0  0  0  0  0  0  0  0  0
  185.6200  178.2430  137.9340 C   0  0  1  0  0  3  0  0  0  0  0  0
  187.1850  177.6720  134.7350 C   0  0  0  0  0  2  0  0  0  0  0  0
  189.0560  179.6310  138.5740 O   0  0  0  0  0  1  0  0  0  0  0  0
  184.0090  178.6470  142.5090 C   0  0  0  0  0  3  0  0  0  0  0  0
  185.1180  178.5000  141.6700 C   0  0  0  0  0  0  0  0  0  0  0  0
  188.8010  178.3960  137.9770 C   0  0  2  0  0  3  0  0  0  0  0  0
  190.8360  176.7860  142.0010 C   0  0  0  0  0  3  0  0  0  0  0  0
  191.6810  175.6250  143.9770 C   0  0  0  0  0  1  0  0  0  0  0  0
  190.5800  176.2420  143.1870 C   0  0  0  0  0  3  0  0  0  0  0  0
  1  5  1  1  0  0  0
  1 19  1  0  0  0  0
  2 16  1  0  0  0  0
  2 13  1  0  0  0  0
  3 17  1  0  0  0  0
  4  1  1  0  0  0  0
  6  8  1  0  0  0  0
  7  9  1  0  0  0  0
  7 27  1  0  0  0  0
  8 11  1  0  0  0  0
  9 22  1  0  0  0  0
 10  3  1  0  0  0  0
 11  5  1  0  0  0  0
 11 28  1  0  0  0  0
 12  8  1  0  0  0  0
 12  4  1  0  0  0  0
 14  9  1  0  0  0  0
 15  7  1  0  0  0  0
 17 26  1  0  0  0  0
 18 13  2  0  0  0  0
 19  2  2  0  0  0  0
 20  4  1  0  0  0  0
 20 17  1  0  0  0  0
 21 10  2  0  0  0  0
 22 10  1  0  0  0  0
 22 20  1  0  0  0  0
 23 15  1  0  0  0  0
 23 14  1  0  0  0  0
 25 18  1  0  0  0  0
 26 19  1  0  0  0  0
 26 25  2  0  0  0  0
 27 24  1  0  0  0  0
 27 12  1  0  0  0  0
 28 30  2  0  0  0  0
 30 29  1  0  0  0  0
M  END
>  <MODEL>
8

>  <REMARK>
 VINA RESULT:      -7.7      2.799      6.757
  Name = 
  1 active torsions:
  status: ('A' for Active; 'I' for Inactive)
    1  A    between atoms: C_11  and  C_28
                            x       y       z     vdW  Elec       q    Type
                         _______ _______ _______ _____ _____    ______ ____

>  <TORSDO>
F 1

$$$$
=
 OpenBabel11122410343D

 30 35  0  0  1  0  0  0  0  0999 V2000
  187.4010  177.7390  144.7870 C   0  0  2  0  0  3  0  0  0  0  0  0
  186.6700  178.0000  147.2170 C   0  0  0  0  0  0  0  0  0  0  0  0
  191.1350  178.4650  145.7290 O   0  0  0  0  0  0  0  0  0  0  0  0
  188.6470  178.0580  143.9410 C   0  0  2  0  0  3  0  0  0  0  0  0
  186.3650  178.6230  144.4410 O   0  0  0  0  0  0  0  0  0  0  0  0
  186.4450  178.4260  140.6970 C   0  0  0  0  0  1  0  0  0  0  0  0
  190.2430  176.7180  141.5200 C   0  0  2  0  0  3  0  0  0  0  0  0
  186.9100  178.6990  142.1250 C   0  0  1  0  0  3  0  0  0  0  0  0
  190.9710  177.7890  142.2060 N   0  0  2  0  0  0  0  0  0  0  0  0
  191.7180  178.4550  144.4780 C   0  0  0  0  0  0  0  0  0  0  0  0
  185.9020  178.2270  143.1760 C   0  0  2  0  0  3  0  0  0  0  0  0
  188.3120  178.1290  142.4240 C   0  0  2  0  0  3  0  0  0  0  0  0
  186.9680  178.0980  148.5780 C   0  0  0  0  0  3  0  0  0  0  0  0
  192.2780  177.7890  141.5610 C   0  0  0  0  0  2  0  0  0  0  0  0
  190.7130  176.7010  140.0860 C   0  0  0  0  0  2  0  0  0  0  0  0
  185.3370  178.0420  146.8240 O   0  0  0  0  0  1  0  0  0  0  0  0
  190.1860  177.4130  145.8070 C   0  0  2  0  0  3  0  0  0  0  0  0
  188.2870  178.0190  149.0200 C   0  0  0  0  0  3  0  0  0  0  0  0
  187.7090  177.8510  146.2700 C   0  0  0  0  0  0  0  0  0  0  0  0
  189.8060  177.1110  144.3490 C   0  0  2  0  0  3  0  0  0  0  0  0
  192.6610  179.2240  144.1540 O   0  0  0  0  0  0  0  0  0  0  0  0
  191.1380  177.3920  143.6090 C   0  0  1  0  0  3  0  0  0  0  0  0
  192.0870  177.3270  140.1290 C   0  0  0  0  0  2  0  0  0  0  0  0
  188.1210  175.7420  142.0880 O   0  0  0  0  0  1  0  0  0  0  0  0
  189.3170  177.8210  148.1020 C   0  0  0  0  0  3  0  0  0  0  0  0
  189.0410  177.7250  146.7340 C   0  0  0  0  0  0  0  0  0  0  0  0
  188.7220  176.9000  141.5930 C   0  0  2  0  0  3  0  0  0  0  0  0
  184.5540  178.8340  142.9420 C   0  0  0  0  0  3  0  0  0  0  0  0
  182.2320  179.2560  143.5680 C   0  0  0  0  0  1  0  0  0  0  0  0
  183.5670  178.6460  143.8130 C   0  0  0  0  0  3  0  0  0  0  0  0
  1  5  1  6  0  0  0
  1 19  1  0  0  0  0
  2 13  1  0  0  0  0
  3 17  1  0  0  0  0
  4 20  1  0  0  0  0
  4  1  1  0  0  0  0
  6  8  1  0  0  0  0
  7 27  1  0  0  0  0
  7  9  1  0  0  0  0
  8 12  1  0  0  0  0
  8 11  1  0  0  0  0
  9 22  1  0  0  0  0
 10  3  1  0  0  0  0
 11  5  1  0  0  0  0
 12  4  1  0  0  0  0
 13 18  2  0  0  0  0
 14  9  1  0  0  0  0
 15 23  1  0  0  0  0
 15  7  1  0  0  0  0
 16  2  1  0  0  0  0
 17 26  1  0  0  0  0
 19 26  1  0  0  0  0
 19  2  2  0  0  0  0
 20 17  1  0  0  0  0
 21 10  2  0  0  0  0
 22 20  1  0  0  0  0
 22 10  1  0  0  0  0
 23 14  1  0  0  0  0
 25 18  1  0  0  0  0
 26 25  2  0  0  0  0
 27 24  1  0  0  0  0
 27 12  1  0  0  0  0
 28 11  1  0  0  0  0
 28 30  2  0  0  0  0
 29 30  1  0  0  0  0
M  END
>  <MODEL>
9

>  <REMARK>
 VINA RESULT:      -7.7      2.018      4.824
  Name = 
  1 active torsions:
  status: ('A' for Active; 'I' for Inactive)
    1  A    between atoms: C_11  and  C_28
                            x       y       z     vdW  Elec       q    Type
                         _______ _______ _______ _____ _____    ______ ____

>  <TORSDO>
F 1

$$$$
