=
 OpenBabel11122410583D

 31 35  0  0  1  0  0  0  0  0999 V2000
  188.6160  178.3110  139.8230 C   0  0  0  0  0  0  0  0  0  0  0  0
  185.9220  178.7540  142.4070 N   0  0  0  0  0  0  0  0  0  0  0  0
  184.6250  178.7460  141.7620 C   0  0  0  0  0  0  0  0  0  0  0  0
  183.2290  178.5880  139.7750 C   0  0  0  0  0  0  0  0  0  0  0  0
  187.1000  178.2890  141.7180 C   0  0  0  0  0  0  0  0  0  0  0  0
  189.4160  177.3490  140.4480 C   0  0  0  0  0  3  0  0  0  0  0  0
  184.4920  178.6690  140.3670 C   0  0  0  0  0  3  0  0  0  0  0  0
  186.3410  177.2930  144.3190 C   0  0  2  0  0  3  0  0  0  0  0  0
  188.9770  178.8110  138.5420 N   0  0  0  0  0  1  0  0  0  0  0  0
  183.5710  178.8120  143.9410 O   0  0  0  0  0  0  0  0  0  0  0  0
  183.0840  178.4960  138.0340 Cl  0  0  0  0  0  0  0  0  0  0  0  0
  187.5660  176.8490  143.6530 N   0  0  0  0  0  2  0  0  0  0  0  0
  186.0100  178.7220  143.8770 C   0  0  2  0  0  3  0  0  0  0  0  0
  187.4630  178.7830  140.4570 C   0  0  0  0  0  3  0  0  0  0  0  0
  182.0830  178.5620  140.5740 C   0  0  0  0  0  3  0  0  0  0  0  0
  187.9130  177.3230  142.3450 C   0  0  0  0  0  0  0  0  0  0  0  0
  189.0660  176.8570  141.7090 C   0  0  0  0  0  3  0  0  0  0  0  0
  184.7600  179.2990  144.5520 C   0  0  0  0  0  2  0  0  0  0  0  0
  183.4620  178.7360  142.5550 C   0  0  0  0  0  0  0  0  0  0  0  0
  182.2000  178.6340  141.9630 C   0  0  0  0  0  3  0  0  0  0  0  0
  186.5100  177.1880  145.8260 C   0  0  0  0  0  2  0  0  0  0  0  0
  187.1460  178.7960  147.4840 O   0  0  0  0  0  1  0  0  0  0  0  0
  187.5610  178.1840  146.3000 C   0  0  1  0  0  3  0  0  0  0  0  0
  191.2890  176.2970  147.0040 C   0  0  0  0  0  0  0  0  0  0  0  0
  188.9570  176.6250  147.4990 C   0  0  0  0  0  3  0  0  0  0  0  0
  189.8760  178.6880  144.7890 O   0  0  0  0  0  0  0  0  0  0  0  0
  192.5900  175.6380  147.2860 C   0  0  0  0  0  1  0  0  0  0  0  0
  190.1690  175.9910  147.7750 C   0  0  0  0  0  3  0  0  0  0  0  0
  189.9570  177.8420  145.7200 C   0  0  0  0  0  0  0  0  0  0  0  0
  188.8610  177.5320  146.4860 N   0  0  0  0  0  0  0  0  0  0  0  0
  191.1850  177.2250  145.9710 C   0  0  0  0  0  3  0  0  0  0  0  0
  1  6  2  0  0  0  0
  1 14  1  0  0  0  0
  2 13  1  0  0  0  0
  3  2  1  0  0  0  0
  3 19  1  0  0  0  0
  4  7  1  0  0  0  0
  4 15  2  0  0  0  0
  5 16  1  0  0  0  0
  5  2  1  0  0  0  0
  6 17  1  0  0  0  0
  7  3  2  0  0  0  0
  8 21  1  1  0  0  0
  9  1  1  0  0  0  0
 10 18  1  0  0  0  0
 11  4  1  0  0  0  0
 12  8  1  0  0  0  0
 13  8  1  0  0  0  0
 13 18  1  1  0  0  0
 14  5  2  0  0  0  0
 15 20  1  0  0  0  0
 16 12  1  0  0  0  0
 17 16  2  0  0  0  0
 19 10  1  0  0  0  0
 20 19  2  0  0  0  0
 21 23  1  0  0  0  0
 23 30  1  0  0  0  0
 23 22  1  1  0  0  0
 24 27  1  0  0  0  0
 24 28  1  0  0  0  0
 25 28  2  0  0  0  0
 26 29  2  0  0  0  0
 29 31  1  0  0  0  0
 29 30  1  0  0  0  0
 30 25  1  0  0  0  0
 31 24  2  0  0  0  0
M  END
>  <MODEL>
1

>  <REMARK>
 VINA RESULT:      -8.8      0.000      0.000
  Name = 
  3 active torsions:
  status: ('A' for Active; 'I' for Inactive)
    1  A    between atoms: C_5  and  C_16
    2  A    between atoms: C_5  and  N_30
    3  A    between atoms: C_10  and  C_16
                            x       y       z     vdW  Elec       q    Type
                         _______ _______ _______ _____ _____    ______ ____

>  <TORSDO>
F 3

$$$$
=
 OpenBabel11122410583D

 31 35  0  0  1  0  0  0  0  0999 V2000
  189.7850  176.7090  136.0550 C   0  0  0  0  0  0  0  0  0  0  0  0
  188.2740  178.1590  139.1770 N   0  0  0  0  0  0  0  0  0  0  0  0
  186.8300  178.1680  139.0580 C   0  0  0  0  0  0  0  0  0  0  0  0
  184.7860  177.7070  137.8200 C   0  0  0  0  0  0  0  0  0  0  0  0
  189.0910  177.3760  138.2820 C   0  0  0  0  0  0  0  0  0  0  0  0
  190.7270  175.8350  136.6080 C   0  0  0  0  0  3  0  0  0  0  0  0
  186.1810  177.7600  137.8820 C   0  0  0  0  0  3  0  0  0  0  0  0
  189.3280  177.1840  141.1530 C   0  0  2  0  0  3  0  0  0  0  0  0
  189.6570  176.8150  134.6430 N   0  0  0  0  0  1  0  0  0  0  0  0
  186.6730  178.9260  141.3530 O   0  0  0  0  0  0  0  0  0  0  0  0
  183.9960  177.2000  136.3430 Cl  0  0  0  0  0  0  0  0  0  0  0  0
  190.1980  176.4210  140.2570 N   0  0  0  0  0  2  0  0  0  0  0  0
  188.9060  178.4860  140.4670 C   0  0  2  0  0  3  0  0  0  0  0  0
  188.9710  177.4810  136.8900 C   0  0  0  0  0  3  0  0  0  0  0  0
  184.0230  178.0420  138.9410 C   0  0  0  0  0  3  0  0  0  0  0  0
  190.0440  176.4970  138.8330 C   0  0  0  0  0  0  0  0  0  0  0  0
  190.8590  175.7310  137.9950 C   0  0  0  0  0  3  0  0  0  0  0  0
  188.0200  179.3820  141.3420 C   0  0  0  0  0  2  0  0  0  0  0  0
  186.0500  178.5190  140.1760 C   0  0  0  0  0  0  0  0  0  0  0  0
  184.6550  178.4460  140.1190 C   0  0  0  0  0  3  0  0  0  0  0  0
  190.0450  177.4410  142.4680 C   0  0  0  0  0  2  0  0  0  0  0  0
  190.9290  175.5220  143.5990 O   0  0  0  0  0  1  0  0  0  0  0  0
  189.7780  176.2950  143.4370 C   0  0  1  0  0  3  0  0  0  0  0  0
  188.5300  177.6420  147.2560 C   0  0  0  0  0  0  0  0  0  0  0  0
  190.2280  176.8690  145.7360 C   0  0  0  0  0  3  0  0  0  0  0  0
  187.1420  177.0650  144.0370 O   0  0  0  0  0  0  0  0  0  0  0  0
  188.1130  178.0900  148.6100 C   0  0  0  0  0  1  0  0  0  0  0  0
  189.8570  177.2930  147.0130 C   0  0  0  0  0  3  0  0  0  0  0  0
  187.9980  177.1390  144.9590 C   0  0  0  0  0  0  0  0  0  0  0  0
  189.3090  176.7980  144.7320 N   0  0  0  0  0  0  0  0  0  0  0  0
  187.5950  177.5670  146.2260 C   0  0  0  0  0  3  0  0  0  0  0  0
  1  6  2  0  0  0  0
  1 14  1  0  0  0  0
  2 13  1  0  0  0  0
  3  2  1  0  0  0  0
  3 19  1  0  0  0  0
  4  7  1  0  0  0  0
  4 15  2  0  0  0  0
  5 16  1  0  0  0  0
  5  2  1  0  0  0  0
  6 17  1  0  0  0  0
  7  3  2  0  0  0  0
  8 21  1  1  0  0  0
  9  1  1  0  0  0  0
 11  4  1  0  0  0  0
 12  8  1  0  0  0  0
 13  8  1  0  0  0  0
 13 18  1  1  0  0  0
 14  5  2  0  0  0  0
 15 20  1  0  0  0  0
 16 12  1  0  0  0  0
 17 16  2  0  0  0  0
 18 10  1  0  0  0  0
 19 10  1  0  0  0  0
 20 19  2  0  0  0  0
 21 23  1  0  0  0  0
 23 22  1  1  0  0  0
 23 30  1  0  0  0  0
 24 27  1  0  0  0  0
 25 28  2  0  0  0  0
 26 29  2  0  0  0  0
 28 24  1  0  0  0  0
 29 31  1  0  0  0  0
 30 29  1  0  0  0  0
 30 25  1  0  0  0  0
 31 24  2  0  0  0  0
M  END
>  <MODEL>
2

>  <REMARK>
 VINA RESULT:      -8.4      2.453      3.843
  Name = 
  3 active torsions:
  status: ('A' for Active; 'I' for Inactive)
    1  A    between atoms: C_5  and  C_16
    2  A    between atoms: C_5  and  N_30
    3  A    between atoms: C_10  and  C_16
                            x       y       z     vdW  Elec       q    Type
                         _______ _______ _______ _____ _____    ______ ____

>  <TORSDO>
F 3

$$$$
=
 OpenBabel11122410583D

 31 35  0  0  1  0  0  0  0  0999 V2000
  188.7230  177.7810  136.4940 C   0  0  0  0  0  0  0  0  0  0  0  0
  185.4080  178.3300  138.1790 N   0  0  0  0  0  0  0  0  0  0  0  0
  184.4490  177.3600  137.6910 C   0  0  0  0  0  0  0  0  0  0  0  0
  183.8530  175.4720  136.2750 C   0  0  0  0  0  0  0  0  0  0  0  0
  186.8220  178.1590  137.9540 C   0  0  0  0  0  0  0  0  0  0  0  0
  189.5850  177.8540  137.5930 C   0  0  0  0  0  3  0  0  0  0  0  0
  184.7720  176.4460  136.6750 C   0  0  0  0  0  3  0  0  0  0  0  0
  185.7240  178.6270  140.5830 C   0  0  2  0  0  3  0  0  0  0  0  0
  189.2490  177.5520  135.1940 N   0  0  0  0  0  1  0  0  0  0  0  0
  182.8430  178.1710  139.3120 O   0  0  0  0  0  0  0  0  0  0  0  0
  184.2730  174.3440  135.0050 Cl  0  0  0  0  0  0  0  0  0  0  0  0
  187.1660  178.5060  140.3620 N   0  0  0  0  0  2  0  0  0  0  0  0
  185.0620  179.1920  139.3220 C   0  0  2  0  0  3  0  0  0  0  0  0
  187.3450  177.9370  136.6730 C   0  0  0  0  0  3  0  0  0  0  0  0
  182.6070  175.3870  136.9010 C   0  0  0  0  0  3  0  0  0  0  0  0
  187.6960  178.2350  139.0570 C   0  0  0  0  0  0  0  0  0  0  0  0
  189.0730  178.0840  138.8730 C   0  0  0  0  0  3  0  0  0  0  0  0
  183.5490  179.3970  139.4640 C   0  0  0  0  0  2  0  0  0  0  0  0
  183.1840  177.2750  138.3020 C   0  0  0  0  0  0  0  0  0  0  0  0
  182.2740  176.2870  137.9160 C   0  0  0  0  0  3  0  0  0  0  0  0
  185.4640  179.4980  141.8010 C   0  0  0  0  0  2  0  0  0  0  0  0
  184.1670  177.5380  142.2630 O   0  0  0  0  0  1  0  0  0  0  0  0
  184.6370  178.7270  142.8230 C   0  0  1  0  0  3  0  0  0  0  0  0
  186.9470  177.7970  146.2510 C   0  0  0  0  0  0  0  0  0  0  0  0
  186.6320  177.8600  143.8660 C   0  0  0  0  0  3  0  0  0  0  0  0
  183.8140  179.2680  145.4540 O   0  0  0  0  0  0  0  0  0  0  0  0
  187.7670  177.4400  147.4370 C   0  0  0  0  0  1  0  0  0  0  0  0
  187.4180  177.5220  144.9680 C   0  0  0  0  0  3  0  0  0  0  0  0
  184.9410  178.7290  145.2920 C   0  0  0  0  0  0  0  0  0  0  0  0
  185.4160  178.4530  144.0340 N   0  0  0  0  0  0  0  0  0  0  0  0
  185.7050  178.4030  146.4160 C   0  0  0  0  0  3  0  0  0  0  0  0
  1 14  2  0  0  0  0
  1  6  1  0  0  0  0
  2 13  1  0  0  0  0
  3  2  1  0  0  0  0
  3 19  1  0  0  0  0
  4  7  1  0  0  0  0
  4 15  2  0  0  0  0
  5  2  1  0  0  0  0
  5 16  2  0  0  0  0
  6 17  2  0  0  0  0
  7  3  2  0  0  0  0
  8 21  1  1  0  0  0
  9  1  1  0  0  0  0
 10 18  1  0  0  0  0
 11  4  1  0  0  0  0
 12  8  1  0  0  0  0
 13 18  1  1  0  0  0
 13  8  1  0  0  0  0
 14  5  1  0  0  0  0
 15 20  1  0  0  0  0
 16 12  1  0  0  0  0
 17 16  1  0  0  0  0
 19 10  1  0  0  0  0
 20 19  2  0  0  0  0
 21 23  1  0  0  0  0
 23 22  1  6  0  0  0
 23 30  1  0  0  0  0
 24 31  2  0  0  0  0
 24 27  1  0  0  0  0
 25 30  1  0  0  0  0
 25 28  2  0  0  0  0
 28 24  1  0  0  0  0
 29 26  2  0  0  0  0
 29 31  1  0  0  0  0
 30 29  1  0  0  0  0
M  END
>  <MODEL>
3

>  <REMARK>
 VINA RESULT:      -8.4      2.747      4.536
  Name = 
  3 active torsions:
  status: ('A' for Active; 'I' for Inactive)
    1  A    between atoms: C_5  and  C_16
    2  A    between atoms: C_5  and  N_30
    3  A    between atoms: C_10  and  C_16
                            x       y       z     vdW  Elec       q    Type
                         _______ _______ _______ _____ _____    ______ ____

>  <TORSDO>
F 3

$$$$
=
 OpenBabel11122410583D

 31 35  0  0  1  0  0  0  0  0999 V2000
  187.6500  178.0050  136.0930 C   0  0  0  0  0  0  0  0  0  0  0  0
  186.2080  178.5470  139.5220 N   0  0  0  0  0  0  0  0  0  0  0  0
  184.8090  178.1710  139.5260 C   0  0  0  0  0  0  0  0  0  0  0  0
  182.8210  177.3310  138.4010 C   0  0  0  0  0  0  0  0  0  0  0  0
  187.0850  178.1490  138.4480 C   0  0  0  0  0  0  0  0  0  0  0  0
  188.8480  177.3610  136.4170 C   0  0  0  0  0  3  0  0  0  0  0  0
  184.1500  177.7600  138.3560 C   0  0  0  0  0  3  0  0  0  0  0  0
  187.7150  177.6480  141.2210 C   0  0  2  0  0  3  0  0  0  0  0  0
  187.3260  178.2590  134.7330 N   0  0  0  0  0  1  0  0  0  0  0  0
  184.7420  178.5420  141.9180 O   0  0  0  0  0  0  0  0  0  0  0  0
  182.0160  176.8260  136.9310 Cl  0  0  0  0  0  0  0  0  0  0  0  0
  188.6370  177.2840  140.1450 N   0  0  0  0  0  2  0  0  0  0  0  0
  186.8850  178.8620  140.7910 C   0  0  2  0  0  3  0  0  0  0  0  0
  186.7710  178.4020  137.1060 C   0  0  0  0  0  3  0  0  0  0  0  0
  182.1410  177.2880  139.6200 C   0  0  0  0  0  3  0  0  0  0  0  0
  188.2960  177.5040  138.7690 C   0  0  0  0  0  0  0  0  0  0  0  0
  189.1730  177.1130  137.7540 C   0  0  0  0  0  3  0  0  0  0  0  0
  185.9110  179.3510  141.8700 C   0  0  0  0  0  2  0  0  0  0  0  0
  184.1070  178.1390  140.7460 C   0  0  0  0  0  0  0  0  0  0  0  0
  182.7850  177.6900  140.7920 C   0  0  0  0  0  3  0  0  0  0  0  0
  188.4970  177.9160  142.4970 C   0  0  0  0  0  2  0  0  0  0  0  0
  189.5160  175.8680  143.2090 O   0  0  0  0  0  1  0  0  0  0  0  0
  188.4170  176.7040  143.4170 C   0  0  1  0  0  3  0  0  0  0  0  0
  188.3200  177.7780  147.5150 C   0  0  0  0  0  0  0  0  0  0  0  0
  189.5090  177.1320  145.5260 C   0  0  0  0  0  3  0  0  0  0  0  0
  186.0670  177.3960  144.7950 O   0  0  0  0  0  0  0  0  0  0  0  0
  188.3100  178.1300  148.9590 C   0  0  0  0  0  1  0  0  0  0  0  0
  189.5200  177.4640  146.8810 C   0  0  0  0  0  3  0  0  0  0  0  0
  187.1510  177.4200  145.4370 C   0  0  0  0  0  0  0  0  0  0  0  0
  188.3410  177.1140  144.8230 N   0  0  0  0  0  0  0  0  0  0  0  0
  187.1290  177.7580  146.7920 C   0  0  0  0  0  3  0  0  0  0  0  0
  1  6  2  0  0  0  0
  1 14  1  0  0  0  0
  2  3  1  0  0  0  0
  2 13  1  0  0  0  0
  3 19  1  0  0  0  0
  4 15  2  0  0  0  0
  5 16  1  0  0  0  0
  5  2  1  0  0  0  0
  6 17  1  0  0  0  0
  7  4  1  0  0  0  0
  7  3  2  0  0  0  0
  8 21  1  1  0  0  0
  9  1  1  0  0  0  0
 11  4  1  0  0  0  0
 12  8  1  0  0  0  0
 13  8  1  0  0  0  0
 13 18  1  1  0  0  0
 14  5  2  0  0  0  0
 15 20  1  0  0  0  0
 16 12  1  0  0  0  0
 17 16  2  0  0  0  0
 18 10  1  0  0  0  0
 19 20  2  0  0  0  0
 19 10  1  0  0  0  0
 21 23  1  0  0  0  0
 23 22  1  1  0  0  0
 23 30  1  0  0  0  0
 24 27  1  0  0  0  0
 25 28  2  0  0  0  0
 26 29  2  0  0  0  0
 28 24  1  0  0  0  0
 29 31  1  0  0  0  0
 30 29  1  0  0  0  0
 30 25  1  0  0  0  0
 31 24  2  0  0  0  0
M  END
>  <MODEL>
4

>  <REMARK>
 VINA RESULT:      -8.3      2.143      3.299
  Name = 
  3 active torsions:
  status: ('A' for Active; 'I' for Inactive)
    1  A    between atoms: C_5  and  C_16
    2  A    between atoms: C_5  and  N_30
    3  A    between atoms: C_10  and  C_16
                            x       y       z     vdW  Elec       q    Type
                         _______ _______ _______ _____ _____    ______ ____

>  <TORSDO>
F 3

$$$$
=
 OpenBabel11122410583D

 31 35  0  0  1  0  0  0  0  0999 V2000
  188.9750  176.8720  141.8010 C   0  0  0  0  0  0  0  0  0  0  0  0
  186.6550  177.6240  144.6610 N   0  0  0  0  0  0  0  0  0  0  0  0
  187.4150  177.7170  145.8910 C   0  0  0  0  0  0  0  0  0  0  0  0
  189.5180  177.6320  147.1140 C   0  0  0  0  0  0  0  0  0  0  0  0
  187.3080  177.6640  143.3760 C   0  0  0  0  0  0  0  0  0  0  0  0
  188.5160  177.7880  140.8490 C   0  0  0  0  0  3  0  0  0  0  0  0
  188.7950  177.4620  145.9290 C   0  0  0  0  0  3  0  0  0  0  0  0
  185.1110  179.4130  144.0440 C   0  0  2  0  0  3  0  0  0  0  0  0
  190.0560  176.0040  141.4860 N   0  0  0  0  0  1  0  0  0  0  0  0
  185.4050  178.4100  147.0500 O   0  0  0  0  0  0  0  0  0  0  0  0
  191.2370  177.3060  147.1420 Cl  0  0  0  0  0  0  0  0  0  0  0  0
  185.7310  179.4300  142.7190 N   0  0  0  0  0  2  0  0  0  0  0  0
  185.2340  178.0100  144.6460 C   0  0  2  0  0  3  0  0  0  0  0  0
  188.3710  176.8060  143.0600 C   0  0  0  0  0  3  0  0  0  0  0  0
  188.8720  178.0790  148.2690 C   0  0  0  0  0  3  0  0  0  0  0  0
  186.8470  178.5830  142.4120 C   0  0  0  0  0  0  0  0  0  0  0  0
  187.4510  178.6410  141.1540 C   0  0  0  0  0  3  0  0  0  0  0  0
  184.5750  177.8740  146.0250 C   0  0  0  0  0  2  0  0  0  0  0  0
  186.7730  178.1510  147.0660 C   0  0  0  0  0  0  0  0  0  0  0  0
  187.5000  178.3410  148.2440 C   0  0  0  0  0  3  0  0  0  0  0  0
  183.6630  179.8620  143.9380 C   0  0  0  0  0  2  0  0  0  0  0  0
  181.8110  178.4600  144.5280 O   0  0  0  0  0  1  0  0  0  0  0  0
  182.7810  178.6810  143.5490 C   0  0  1  0  0  3  0  0  0  0  0  0
  180.8180  179.2980  139.8460 C   0  0  0  0  0  0  0  0  0  0  0  0
  180.9920  179.6100  142.2250 C   0  0  0  0  0  3  0  0  0  0  0  0
  183.7390  177.7070  141.0930 O   0  0  0  0  0  0  0  0  0  0  0  0
  180.0980  179.5100  138.5630 C   0  0  0  0  0  1  0  0  0  0  0  0
  180.3040  179.8240  141.0300 C   0  0  0  0  0  3  0  0  0  0  0  0
  182.6700  178.3750  141.0820 C   0  0  0  0  0  0  0  0  0  0  0  0
  182.1540  178.8980  142.2420 N   0  0  0  0  0  0  0  0  0  0  0  0
  182.0060  178.5710  139.8690 C   0  0  0  0  0  3  0  0  0  0  0  0
  1 14  1  0  0  0  0
  2  3  1  0  0  0  0
  3  7  2  0  0  0  0
  3 19  1  0  0  0  0
  4 11  1  0  0  0  0
  4 15  2  0  0  0  0
  5  2  1  0  0  0  0
  6 17  1  0  0  0  0
  6  1  2  0  0  0  0
  7  4  1  0  0  0  0
  8 21  1  6  0  0  0
  8 13  1  0  0  0  0
  9  1  1  0  0  0  0
 10 19  1  0  0  0  0
 12  8  1  0  0  0  0
 13  2  1  0  0  0  0
 13 18  1  1  0  0  0
 14  5  2  0  0  0  0
 16 12  1  0  0  0  0
 16  5  1  0  0  0  0
 17 16  2  0  0  0  0
 18 10  1  0  0  0  0
 19 20  2  0  0  0  0
 20 15  1  0  0  0  0
 23 21  1  0  0  0  0
 23 22  1  1  0  0  0
 24 31  2  0  0  0  0
 24 28  1  0  0  0  0
 25 30  1  0  0  0  0
 27 24  1  0  0  0  0
 28 25  2  0  0  0  0
 29 26  2  0  0  0  0
 29 30  1  0  0  0  0
 30 23  1  0  0  0  0
 31 29  1  0  0  0  0
M  END
>  <MODEL>
5

>  <REMARK>
 VINA RESULT:      -8.3      2.916      7.395
  Name = 
  3 active torsions:
  status: ('A' for Active; 'I' for Inactive)
    1  A    between atoms: C_5  and  C_16
    2  A    between atoms: C_5  and  N_30
    3  A    between atoms: C_10  and  C_16
                            x       y       z     vdW  Elec       q    Type
                         _______ _______ _______ _____ _____    ______ ____

>  <TORSDO>
F 3

$$$$
=
 OpenBabel11122410583D

 31 35  0  0  1  0  0  0  0  0999 V2000
  189.9690  176.1020  142.6640 C   0  0  0  0  0  0  0  0  0  0  0  0
  186.5740  177.5220  143.4300 N   0  0  0  0  0  0  0  0  0  0  0  0
  186.5200  177.9250  144.8210 C   0  0  0  0  0  0  0  0  0  0  0  0
  187.5420  178.1670  147.0160 C   0  0  0  0  0  0  0  0  0  0  0  0
  187.8340  177.2460  142.7830 C   0  0  0  0  0  0  0  0  0  0  0  0
  190.2520  176.7480  141.4560 C   0  0  0  0  0  3  0  0  0  0  0  0
  187.5910  177.7010  145.6990 C   0  0  0  0  0  3  0  0  0  0  0  0
  185.9020  179.0860  141.6800 C   0  0  2  0  0  3  0  0  0  0  0  0
  190.9110  175.1930  143.2190 N   0  0  0  0  0  1  0  0  0  0  0  0
  184.3220  178.8660  144.4330 O   0  0  0  0  0  0  0  0  0  0  0  0
  188.8860  177.8740  148.0970 Cl  0  0  0  0  0  0  0  0  0  0  0  0
  187.1530  178.7780  140.9870 N   0  0  0  0  0  2  0  0  0  0  0  0
  185.4740  177.8790  142.5190 C   0  0  2  0  0  3  0  0  0  0  0  0
  188.7620  176.3460  143.3240 C   0  0  0  0  0  3  0  0  0  0  0  0
  186.4290  178.8820  147.4630 C   0  0  0  0  0  3  0  0  0  0  0  0
  188.1210  177.8910  141.5630 C   0  0  0  0  0  0  0  0  0  0  0  0
  189.3270  177.6400  140.9050 C   0  0  0  0  0  3  0  0  0  0  0  0
  184.1450  178.0850  143.2580 C   0  0  0  0  0  2  0  0  0  0  0  0
  185.3960  178.6330  145.2880 C   0  0  0  0  0  0  0  0  0  0  0  0
  185.3570  179.1160  146.5990 C   0  0  0  0  0  3  0  0  0  0  0  0
  184.8390  179.4810  140.6670 C   0  0  0  0  0  2  0  0  0  0  0  0
  182.5680  178.7430  140.4690 O   0  0  0  0  0  1  0  0  0  0  0  0
  183.8940  178.3100  140.4240 C   0  0  1  0  0  3  0  0  0  0  0  0
  184.7420  176.5800  136.6510 C   0  0  0  0  0  0  0  0  0  0  0  0
  185.1000  178.2600  138.3350 C   0  0  0  0  0  3  0  0  0  0  0  0
  182.6690  175.9680  139.4700 O   0  0  0  0  0  0  0  0  0  0  0  0
  185.0410  176.0050  135.3130 C   0  0  0  0  0  1  0  0  0  0  0  0
  185.3980  177.7320  137.0780 C   0  0  0  0  0  3  0  0  0  0  0  0
  183.5270  176.5230  138.7320 C   0  0  0  0  0  0  0  0  0  0  0  0
  184.1800  177.6590  139.1420 N   0  0  0  0  0  0  0  0  0  0  0  0
  183.8030  175.9690  137.4790 C   0  0  0  0  0  3  0  0  0  0  0  0
  1  9  1  0  0  0  0
  1 14  1  0  0  0  0
  2  3  1  0  0  0  0
  3 19  2  0  0  0  0
  3  7  1  0  0  0  0
  4 15  1  0  0  0  0
  4 11  1  0  0  0  0
  5 14  2  0  0  0  0
  5  2  1  0  0  0  0
  6  1  2  0  0  0  0
  7  4  2  0  0  0  0
  8 21  1  6  0  0  0
  8 13  1  0  0  0  0
 10 19  1  0  0  0  0
 12 16  1  0  0  0  0
 12  8  1  0  0  0  0
 13 18  1  1  0  0  0
 13  2  1  0  0  0  0
 16  5  1  0  0  0  0
 17  6  1  0  0  0  0
 17 16  2  0  0  0  0
 18 10  1  0  0  0  0
 19 20  1  0  0  0  0
 20 15  2  0  0  0  0
 23 22  1  6  0  0  0
 23 21  1  0  0  0  0
 24 28  1  0  0  0  0
 24 31  2  0  0  0  0
 25 30  1  0  0  0  0
 27 24  1  0  0  0  0
 28 25  2  0  0  0  0
 29 30  1  0  0  0  0
 29 26  2  0  0  0  0
 30 23  1  0  0  0  0
 31 29  1  0  0  0  0
M  END
>  <MODEL>
6

>  <REMARK>
 VINA RESULT:      -8.0      3.218      7.196
  Name = 
  3 active torsions:
  status: ('A' for Active; 'I' for Inactive)
    1  A    between atoms: C_5  and  C_16
    2  A    between atoms: C_5  and  N_30
    3  A    between atoms: C_10  and  C_16
                            x       y       z     vdW  Elec       q    Type
                         _______ _______ _______ _____ _____    ______ ____

>  <TORSDO>
F 3

$$$$
=
 OpenBabel11122410583D

 31 35  0  0  1  0  0  0  0  0999 V2000
  185.0200  178.7420  144.5630 C   0  0  0  0  0  0  0  0  0  0  0  0
  188.7270  178.3500  144.0740 N   0  0  0  0  0  0  0  0  0  0  0  0
  189.3050  177.7130  145.2390 C   0  0  0  0  0  0  0  0  0  0  0  0
  189.1020  176.7230  147.4530 C   0  0  0  0  0  0  0  0  0  0  0  0
  187.3020  178.3360  143.8460 C   0  0  0  0  0  0  0  0  0  0  0  0
  184.5490  178.2970  143.3240 C   0  0  0  0  0  3  0  0  0  0  0  0
  188.5360  177.4040  146.3730 C   0  0  0  0  0  3  0  0  0  0  0  0
  189.1930  177.4660  141.8450 C   0  0  2  0  0  3  0  0  0  0  0  0
  184.1020  179.1740  145.5580 N   0  0  0  0  0  1  0  0  0  0  0  0
  191.4370  177.6170  144.0950 O   0  0  0  0  0  0  0  0  0  0  0  0
  188.1280  176.3500  148.8580 Cl  0  0  0  0  0  0  0  0  0  0  0  0
  187.7530  177.4940  141.5830 N   0  0  0  0  0  2  0  0  0  0  0  0
  189.5450  178.5520  142.8660 C   0  0  2  0  0  3  0  0  0  0  0  0
  186.3940  178.7660  144.8230 C   0  0  0  0  0  3  0  0  0  0  0  0
  190.4400  176.3230  147.4050 C   0  0  0  0  0  3  0  0  0  0  0  0
  186.8220  177.8920  142.5980 C   0  0  0  0  0  0  0  0  0  0  0  0
  185.4490  177.8750  142.3410 C   0  0  0  0  0  3  0  0  0  0  0  0
  191.0440  178.6330  143.1810 C   0  0  0  0  0  2  0  0  0  0  0  0
  190.6560  177.3200  145.2090 C   0  0  0  0  0  0  0  0  0  0  0  0
  191.2160  176.6210  146.2820 C   0  0  0  0  0  3  0  0  0  0  0  0
  189.9540  177.6410  140.5420 C   0  0  0  0  0  2  0  0  0  0  0  0
  189.1330  178.9800  138.7320 O   0  0  0  0  0  1  0  0  0  0  0  0
  188.9750  177.7530  139.3800 C   0  0  1  0  0  3  0  0  0  0  0  0
  189.6370  174.6030  136.6240 C   0  0  0  0  0  0  0  0  0  0  0  0
  190.3730  176.0480  138.4020 C   0  0  0  0  0  3  0  0  0  0  0  0
  187.0220  176.8030  137.5960 O   0  0  0  0  0  0  0  0  0  0  0  0
  189.9010  173.5110  135.6520 C   0  0  0  0  0  1  0  0  0  0  0  0
  190.6390  175.0180  137.4990 C   0  0  0  0  0  3  0  0  0  0  0  0
  188.1530  176.2470  137.5770 C   0  0  0  0  0  0  0  0  0  0  0  0
  189.1490  176.6460  138.4340 N   0  0  0  0  0  0  0  0  0  0  0  0
  188.3870  175.2180  136.6620 C   0  0  0  0  0  3  0  0  0  0  0  0
  1 14  1  0  0  0  0
  1  9  1  0  0  0  0
  2  3  1  0  0  0  0
  3  7  1  0  0  0  0
  4 11  1  0  0  0  0
  5  2  1  0  0  0  0
  5 14  2  0  0  0  0
  6  1  2  0  0  0  0
  7  4  2  0  0  0  0
  8 21  1  6  0  0  0
  8 13  1  0  0  0  0
 10 19  1  0  0  0  0
 12  8  1  0  0  0  0
 12 16  1  0  0  0  0
 13 18  1  1  0  0  0
 13  2  1  0  0  0  0
 15  4  1  0  0  0  0
 16  5  1  0  0  0  0
 17 16  2  0  0  0  0
 17  6  1  0  0  0  0
 18 10  1  0  0  0  0
 19  3  2  0  0  0  0
 19 20  1  0  0  0  0
 20 15  2  0  0  0  0
 23 22  1  6  0  0  0
 23 21  1  0  0  0  0
 24 31  2  0  0  0  0
 24 28  1  0  0  0  0
 25 30  1  0  0  0  0
 27 24  1  0  0  0  0
 28 25  2  0  0  0  0
 29 26  2  0  0  0  0
 29 30  1  0  0  0  0
 30 23  1  0  0  0  0
 31 29  1  0  0  0  0
M  END
>  <MODEL>
7

>  <REMARK>
 VINA RESULT:      -8.0      3.633      7.773
  Name = 
  3 active torsions:
  status: ('A' for Active; 'I' for Inactive)
    1  A    between atoms: C_5  and  C_16
    2  A    between atoms: C_5  and  N_30
    3  A    between atoms: C_10  and  C_16
                            x       y       z     vdW  Elec       q    Type
                         _______ _______ _______ _____ _____    ______ ____

>  <TORSDO>
F 3

$$$$
=
 OpenBabel11122410583D

 31 35  0  0  1  0  0  0  0  0999 V2000
  189.5660  176.1830  142.5940 C   0  0  0  0  0  0  0  0  0  0  0  0
  186.5230  177.5570  144.3210 N   0  0  0  0  0  0  0  0  0  0  0  0
  186.8550  177.8980  145.6900 C   0  0  0  0  0  0  0  0  0  0  0  0
  188.4410  178.0450  147.5300 C   0  0  0  0  0  0  0  0  0  0  0  0
  187.5550  177.3140  143.3430 C   0  0  0  0  0  0  0  0  0  0  0  0
  189.5130  176.8830  141.3840 C   0  0  0  0  0  3  0  0  0  0  0  0
  188.1240  177.6380  146.2310 C   0  0  0  0  0  3  0  0  0  0  0  0
  185.4120  179.1950  142.8920 C   0  0  2  0  0  3  0  0  0  0  0  0
  190.6150  175.2530  142.8300 N   0  0  0  0  0  1  0  0  0  0  0  0
  184.6440  178.8480  145.9600 O   0  0  0  0  0  0  0  0  0  0  0  0
  190.0270  177.7080  148.1880 Cl  0  0  0  0  0  0  0  0  0  0  0  0
  186.4230  178.9220  141.8700 N   0  0  0  0  0  2  0  0  0  0  0  0
  185.2190  177.9500  143.7630 C   0  0  2  0  0  3  0  0  0  0  0  0
  188.5880  176.3940  143.5700 C   0  0  0  0  0  3  0  0  0  0  0  0
  187.4990  178.7360  148.2960 C   0  0  0  0  0  3  0  0  0  0  0  0
  187.5040  178.0140  142.1200 C   0  0  0  0  0  0  0  0  0  0  0  0
  188.4820  177.7950  141.1460 C   0  0  0  0  0  3  0  0  0  0  0  0
  184.1450  178.1200  144.8450 C   0  0  0  0  0  2  0  0  0  0  0  0
  185.9090  178.5800  146.4770 C   0  0  0  0  0  0  0  0  0  0  0  0
  186.2340  179.0050  147.7690 C   0  0  0  0  0  3  0  0  0  0  0  0
  184.1170  179.6310  142.2270 C   0  0  0  0  0  2  0  0  0  0  0  0
  183.5830  177.4740  141.3320 O   0  0  0  0  0  1  0  0  0  0  0  0
  183.8670  178.7940  140.9780 C   0  0  1  0  0  3  0  0  0  0  0  0
  180.6370  180.2790  138.6730 C   0  0  0  0  0  0  0  0  0  0  0  0
  181.5090  178.9960  140.5120 C   0  0  0  0  0  3  0  0  0  0  0  0
  184.1810  180.5030  138.7690 O   0  0  0  0  0  0  0  0  0  0  0  0
  179.4880  180.7680  137.8670 C   0  0  0  0  0  1  0  0  0  0  0  0
  180.4170  179.4500  139.7710 C   0  0  0  0  0  3  0  0  0  0  0  0
  183.0090  180.1740  139.0930 C   0  0  0  0  0  0  0  0  0  0  0  0
  182.7790  179.3580  140.1740 N   0  0  0  0  0  0  0  0  0  0  0  0
  181.9370  180.6450  138.3310 C   0  0  0  0  0  3  0  0  0  0  0  0
  1  9  1  0  0  0  0
  1 14  1  0  0  0  0
  2  3  1  0  0  0  0
  3  7  2  0  0  0  0
  3 19  1  0  0  0  0
  4 11  1  0  0  0  0
  4 15  2  0  0  0  0
  5 14  2  0  0  0  0
  5  2  1  0  0  0  0
  6  1  2  0  0  0  0
  7  4  1  0  0  0  0
  8 21  1  6  0  0  0
  8 13  1  0  0  0  0
 10 19  1  0  0  0  0
 12 16  1  0  0  0  0
 12  8  1  0  0  0  0
 13  2  1  0  0  0  0
 13 18  1  1  0  0  0
 16  5  1  0  0  0  0
 17  6  1  0  0  0  0
 17 16  2  0  0  0  0
 18 10  1  0  0  0  0
 19 20  2  0  0  0  0
 20 15  1  0  0  0  0
 23 22  1  1  0  0  0
 23 21  1  0  0  0  0
 24 28  1  0  0  0  0
 26 29  2  0  0  0  0
 27 24  1  0  0  0  0
 28 25  2  0  0  0  0
 29 30  1  0  0  0  0
 30 25  1  0  0  0  0
 30 23  1  0  0  0  0
 31 24  2  0  0  0  0
 31 29  1  0  0  0  0
M  END
>  <MODEL>
8

>  <REMARK>
 VINA RESULT:      -7.9      3.132      7.747
  Name = 
  3 active torsions:
  status: ('A' for Active; 'I' for Inactive)
    1  A    between atoms: C_5  and  C_16
    2  A    between atoms: C_5  and  N_30
    3  A    between atoms: C_10  and  C_16
                            x       y       z     vdW  Elec       q    Type
                         _______ _______ _______ _____ _____    ______ ____

>  <TORSDO>
F 3

$$$$
=
 OpenBabel11122410583D

 31 35  0  0  1  0  0  0  0  0999 V2000
  192.8590  175.8010  136.4510 C   0  0  0  0  0  0  0  0  0  0  0  0
  189.2750  176.5610  137.2910 N   0  0  0  0  0  0  0  0  0  0  0  0
  188.4210  175.5160  136.7650 C   0  0  0  0  0  0  0  0  0  0  0  0
  188.0980  173.4270  135.5590 C   0  0  0  0  0  0  0  0  0  0  0  0
  190.7010  176.3750  137.4000 C   0  0  0  0  0  0  0  0  0  0  0  0
  193.4710  176.0520  137.6830 C   0  0  0  0  0  3  0  0  0  0  0  0
  188.9320  174.4620  135.9920 C   0  0  0  0  0  3  0  0  0  0  0  0
  189.0830  177.2280  139.6330 C   0  0  2  0  0  3  0  0  0  0  0  0
  193.6430  175.3810  135.3420 N   0  0  0  0  0  1  0  0  0  0  0  0
  186.5260  176.5480  137.8650 O   0  0  0  0  0  0  0  0  0  0  0  0
  188.7530  172.1230  134.5940 Cl  0  0  0  0  0  0  0  0  0  0  0  0
  190.5350  177.0910  139.7440 N   0  0  0  0  0  2  0  0  0  0  0  0
  188.7140  177.5840  138.1900 C   0  0  2  0  0  3  0  0  0  0  0  0
  191.4780  175.9660  136.3070 C   0  0  0  0  0  3  0  0  0  0  0  0
  186.7470  173.4240  135.9120 C   0  0  0  0  0  3  0  0  0  0  0  0
  191.3240  176.6300  138.6380 C   0  0  0  0  0  0  0  0  0  0  0  0
  192.7040  176.4690  138.7750 C   0  0  0  0  0  3  0  0  0  0  0  0
  187.2090  177.7910  137.9750 C   0  0  0  0  0  2  0  0  0  0  0  0
  187.0540  175.5110  137.1000 C   0  0  0  0  0  0  0  0  0  0  0  0
  186.2250  174.4650  136.6840 C   0  0  0  0  0  3  0  0  0  0  0  0
  188.5890  178.2720  140.6210 C   0  0  0  0  0  2  0  0  0  0  0  0
  189.7240  178.2600  142.7320 O   0  0  0  0  0  1  0  0  0  0  0  0
  188.6440  177.7120  142.0380 C   0  0  1  0  0  3  0  0  0  0  0  0
  185.0090  178.5920  144.0290 C   0  0  0  0  0  0  0  0  0  0  0  0
  186.4280  178.6640  142.0880 C   0  0  0  0  0  3  0  0  0  0  0  0
  188.0810  176.9300  144.6780 O   0  0  0  0  0  0  0  0  0  0  0  0
  183.7340  178.9330  144.7130 C   0  0  0  0  0  1  0  0  0  0  0  0
  185.2230  178.9890  142.7110 C   0  0  0  0  0  3  0  0  0  0  0  0
  187.1920  177.5680  144.0530 C   0  0  0  0  0  0  0  0  0  0  0  0
  187.3900  177.9650  142.7540 N   0  0  0  0  0  0  0  0  0  0  0  0
  185.9950  177.8780  144.7060 C   0  0  0  0  0  3  0  0  0  0  0  0
  1  6  1  0  0  0  0
  2  5  1  0  0  0  0
  2 13  1  0  0  0  0
  3 19  1  0  0  0  0
  3  2  1  0  0  0  0
  4 15  2  0  0  0  0
  4  7  1  0  0  0  0
  5 16  2  0  0  0  0
  6 17  2  0  0  0  0
  7  3  2  0  0  0  0
  8 12  1  0  0  0  0
  8 21  1  1  0  0  0
  9  1  1  0  0  0  0
 10 18  1  0  0  0  0
 11  4  1  0  0  0  0
 13 18  1  1  0  0  0
 13  8  1  0  0  0  0
 14  1  2  0  0  0  0
 14  5  1  0  0  0  0
 15 20  1  0  0  0  0
 16 17  1  0  0  0  0
 16 12  1  0  0  0  0
 19 10  1  0  0  0  0
 20 19  2  0  0  0  0
 21 23  1  0  0  0  0
 23 22  1  1  0  0  0
 23 30  1  0  0  0  0
 24 31  2  0  0  0  0
 24 27  1  0  0  0  0
 25 28  2  0  0  0  0
 25 30  1  0  0  0  0
 28 24  1  0  0  0  0
 29 26  2  0  0  0  0
 29 31  1  0  0  0  0
 30 29  1  0  0  0  0
M  END
>  <MODEL>
9

>  <REMARK>
 VINA RESULT:      -7.7      4.066      6.487
  Name = 
  3 active torsions:
  status: ('A' for Active; 'I' for Inactive)
    1  A    between atoms: C_5  and  C_16
    2  A    between atoms: C_5  and  N_30
    3  A    between atoms: C_10  and  C_16
                            x       y       z     vdW  Elec       q    Type
                         _______ _______ _______ _____ _____    ______ ____

>  <TORSDO>
F 3

$$$$
