=
 OpenBabel11122410293D

 30 35  0  0  1  0  0  0  0  0999 V2000
  186.0650  178.3110  141.9960 C   0  0  0  0  0  0  0  0  0  0  0  0
  183.6200  178.7120  141.8630 C   0  0  0  0  0  0  0  0  0  0  0  0
  185.9630  178.2180  146.1070 N   0  0  0  0  0  2  0  0  0  0  0  0
  187.2250  178.0590  142.7740 C   0  0  0  0  0  0  0  0  0  0  0  0
  186.1750  178.3510  140.6010 O   0  0  0  0  0  0  0  0  0  0  0  0
  189.6280  177.6270  140.0750 O   0  0  0  0  0  0  0  0  0  0  0  0
  190.1910  177.9140  143.7920 C   0  0  1  0  0  3  0  0  0  0  0  0
  188.5540  177.9040  140.6760 C   0  0  0  0  0  0  0  0  0  0  0  0
  189.4930  178.0130  145.1410 C   0  0  2  0  0  3  0  0  0  0  0  0
  187.2880  178.0480  146.3020 C   0  0  0  0  0  0  0  0  0  0  0  0
  187.4170  178.5390  139.9260 C   0  0  1  0  0  3  0  0  0  0  0  0
  188.4430  177.6950  142.0940 N   0  0  0  0  0  0  0  0  0  0  0  0
  182.3940  178.8800  142.5110 C   0  0  0  0  0  3  0  0  0  0  0  0
  190.1370  176.9530  146.0090 C   0  0  0  0  0  2  0  0  0  0  0  0
  191.5870  177.3950  144.1000 C   0  0  0  0  0  2  0  0  0  0  0  0
  183.6420  178.7680  140.5070 F   0  0  0  0  0  0  0  0  0  0  0  0
  185.8620  178.2370  144.7670 C   0  0  0  0  0  0  0  0  0  0  0  0
  182.3140  178.8320  143.9030 C   0  0  0  0  0  3  0  0  0  0  0  0
  184.7970  178.4890  142.6140 C   0  0  0  0  0  0  0  0  0  0  0  0
  187.0910  178.0700  144.1790 C   0  0  0  0  0  0  0  0  0  0  0  0
  187.7980  178.0320  147.4550 O   0  0  0  0  0  0  0  0  0  0  0  0
  188.0200  177.9400  145.1600 N   0  0  0  0  0  0  0  0  0  0  0  0
  191.5720  176.8750  145.5300 C   0  0  0  0  0  2  0  0  0  0  0  0
  189.0930  175.6310  143.2890 C   0  0  0  0  0  1  0  0  0  0  0  0
  183.4640  178.6150  144.6620 C   0  0  0  0  0  3  0  0  0  0  0  0
  184.6990  178.4410  144.0290 C   0  0  0  0  0  0  0  0  0  0  0  0
  189.5260  177.0000  142.7710 C   0  0  2  0  0  3  0  0  0  0  0  0
  187.3110  178.0540  138.4810 C   0  0  0  0  0  2  0  0  0  0  0  0
  185.4350  177.1160  137.2190 C   0  0  0  0  0  2  0  0  0  0  0  0
  185.9020  178.0990  137.9810 C   0  0  0  0  0  3  0  0  0  0  0  0
  1 19  2  0  0  0  0
  1  4  1  0  0  0  0
  2 13  2  0  0  0  0
  2 19  1  0  0  0  0
  3 10  1  0  0  0  0
  4 20  2  0  0  0  0
  5  1  1  0  0  0  0
  6  8  2  0  0  0  0
  7 15  1  1  0  0  0
  7  9  1  0  0  0  0
  8 12  1  0  0  0  0
  9 22  1  0  0  0  0
  9 14  1  1  0  0  0
 10 21  2  0  0  0  0
 11 28  1  6  0  0  0
 11  5  1  0  0  0  0
 11  8  1  0  0  0  0
 12 27  1  0  0  0  0
 12  4  1  0  0  0  0
 13 18  1  0  0  0  0
 15 23  1  0  0  0  0
 16  2  1  0  0  0  0
 17  3  1  0  0  0  0
 18 25  2  0  0  0  0
 19 26  1  0  0  0  0
 20 17  1  0  0  0  0
 20 22  1  0  0  0  0
 22 10  1  0  0  0  0
 23 14  1  0  0  0  0
 26 25  1  0  0  0  0
 26 17  2  0  0  0  0
 27 24  1  1  0  0  0
 27  7  1  0  0  0  0
 29 30  2  0  0  0  0
 30 28  1  0  0  0  0
M  END
>  <MODEL>
1

>  <REMARK>
 VINA RESULT:     -10.3      0.000      0.000
  Name = 
  2 active torsions:
  status: ('A' for Active; 'I' for Inactive)
    1  A    between atoms: C_11  and  C_28
    2  A    between atoms: C_28  and  C_30
                            x       y       z     vdW  Elec       q    Type
                         _______ _______ _______ _____ _____    ______ ____

>  <TORSDO>
F 2

$$$$
=
 OpenBabel11122410293D

 30 35  0  0  1  0  0  0  0  0999 V2000
  186.9440  178.3300  140.9550 C   0  0  0  0  0  0  0  0  0  0  0  0
  184.6500  178.7070  140.0880 C   0  0  0  0  0  0  0  0  0  0  0  0
  185.5970  178.1900  144.8390 N   0  0  0  0  0  2  0  0  0  0  0  0
  187.8150  178.0810  142.0470 C   0  0  0  0  0  0  0  0  0  0  0  0
  187.4720  178.3870  139.6610 O   0  0  0  0  0  0  0  0  0  0  0  0
  190.9310  177.7020  140.2050 O   0  0  0  0  0  0  0  0  0  0  0  0
  190.3320  177.9540  143.9190 C   0  0  1  0  0  3  0  0  0  0  0  0
  189.7220  177.9610  140.4530 C   0  0  0  0  0  0  0  0  0  0  0  0
  189.2560  178.0300  144.9920 C   0  0  2  0  0  3  0  0  0  0  0  0
  186.8020  178.0310  145.4280 C   0  0  0  0  0  0  0  0  0  0  0  0
  188.8580  178.5940  139.3970 C   0  0  1  0  0  3  0  0  0  0  0  0
  189.1870  177.7360  141.7680 N   0  0  0  0  0  0  0  0  0  0  0  0
  183.2830  178.8560  140.3330 C   0  0  0  0  0  3  0  0  0  0  0  0
  189.6190  176.9680  146.0080 C   0  0  0  0  0  2  0  0  0  0  0  0
  191.5750  177.4450  144.6340 C   0  0  0  0  0  2  0  0  0  0  0  0
  185.0830  178.7790  138.8040 F   0  0  0  0  0  0  0  0  0  0  0  0
  185.9080  178.2220  143.5330 C   0  0  0  0  0  0  0  0  0  0  0  0
  182.7830  178.7930  141.6350 C   0  0  0  0  0  3  0  0  0  0  0  0
  185.5450  178.4880  141.1600 C   0  0  0  0  0  0  0  0  0  0  0  0
  187.2600  178.0740  143.3460 C   0  0  0  0  0  0  0  0  0  0  0  0
  186.9370  178.0070  146.6800 O   0  0  0  0  0  0  0  0  0  0  0  0
  187.8480  177.9430  144.5620 N   0  0  0  0  0  0  0  0  0  0  0  0
  191.1320  176.9090  145.9870 C   0  0  0  0  0  2  0  0  0  0  0  0
  189.4690  175.6650  143.0880 C   0  0  0  0  0  1  0  0  0  0  0  0
  183.6510  178.5780  142.7060 C   0  0  0  0  0  3  0  0  0  0  0  0
  185.0230  178.4240  142.4780 C   0  0  0  0  0  0  0  0  0  0  0  0
  190.0210  177.0440  142.7380 C   0  0  2  0  0  3  0  0  0  0  0  0
  189.2030  178.1240  137.9840 C   0  0  0  0  0  2  0  0  0  0  0  0
  187.4700  178.5760  136.3160 C   0  0  0  0  0  2  0  0  0  0  0  0
  188.5690  178.9870  136.9410 C   0  0  0  0  0  3  0  0  0  0  0  0
  1 19  2  0  0  0  0
  1  4  1  0  0  0  0
  2 13  2  0  0  0  0
  2 19  1  0  0  0  0
  3 10  1  0  0  0  0
  4 20  2  0  0  0  0
  5  1  1  0  0  0  0
  6  8  2  0  0  0  0
  7 15  1  1  0  0  0
  7  9  1  0  0  0  0
  8 12  1  0  0  0  0
  9 14  1  1  0  0  0
 10 21  2  0  0  0  0
 11 28  1  6  0  0  0
 11  5  1  0  0  0  0
 11  8  1  0  0  0  0
 12  4  1  0  0  0  0
 12 27  1  0  0  0  0
 13 18  1  0  0  0  0
 15 23  1  0  0  0  0
 16  2  1  0  0  0  0
 17  3  1  0  0  0  0
 18 25  2  0  0  0  0
 19 26  1  0  0  0  0
 20 17  1  0  0  0  0
 20 22  1  0  0  0  0
 22  9  1  0  0  0  0
 22 10  1  0  0  0  0
 23 14  1  0  0  0  0
 26 25  1  0  0  0  0
 26 17  2  0  0  0  0
 27 24  1  1  0  0  0
 27  7  1  0  0  0  0
 29 30  2  0  0  0  0
 30 28  1  0  0  0  0
M  END
>  <MODEL>
2

>  <REMARK>
 VINA RESULT:     -10.1      1.275      1.514
  Name = 
  2 active torsions:
  status: ('A' for Active; 'I' for Inactive)
    1  A    between atoms: C_11  and  C_28
    2  A    between atoms: C_28  and  C_30
                            x       y       z     vdW  Elec       q    Type
                         _______ _______ _______ _____ _____    ______ ____

>  <TORSDO>
F 2

$$$$
=
 OpenBabel11122410293D

 30 35  0  0  1  0  0  0  0  0999 V2000
  189.1780  177.3470  143.6780 C   0  0  0  0  0  0  0  0  0  0  0  0
  191.1720  176.8500  145.0680 C   0  0  0  0  0  0  0  0  0  0  0  0
  186.8080  177.8250  147.0060 N   0  0  0  0  0  2  0  0  0  0  0  0
  187.8100  177.7110  143.5830 C   0  0  0  0  0  0  0  0  0  0  0  0
  189.9210  177.1780  142.5040 O   0  0  0  0  0  0  0  0  0  0  0  0
  187.5450  177.9700  139.9630 O   0  0  0  0  0  0  0  0  0  0  0  0
  184.8500  178.0550  142.5970 C   0  0  1  0  0  3  0  0  0  0  0  0
  188.0180  177.7140  141.1040 C   0  0  0  0  0  0  0  0  0  0  0  0
  184.5900  178.0610  144.0960 C   0  0  2  0  0  3  0  0  0  0  0  0
  185.6500  178.0580  146.3530 C   0  0  0  0  0  0  0  0  0  0  0  0
  189.3190  176.9710  141.2270 C   0  0  1  0  0  3  0  0  0  0  0  0
  187.2760  178.0520  142.2880 N   0  0  0  0  0  0  0  0  0  0  0  0
  191.7470  176.7010  146.3330 C   0  0  0  0  0  3  0  0  0  0  0  0
  183.6470  179.2190  144.3420 C   0  0  0  0  0  2  0  0  0  0  0  0
  183.5970  178.6490  141.9720 C   0  0  0  0  0  2  0  0  0  0  0  0
  191.9600  176.6670  143.9800 F   0  0  0  0  0  0  0  0  0  0  0  0
  187.6880  177.6760  146.0020 C   0  0  0  0  0  0  0  0  0  0  0  0
  190.9820  176.8770  147.4870 C   0  0  0  0  0  3  0  0  0  0  0  0
  189.8040  177.1840  144.9440 C   0  0  0  0  0  0  0  0  0  0  0  0
  187.0740  177.8290  144.7830 C   0  0  0  0  0  0  0  0  0  0  0  0
  184.5560  178.2010  146.9620 O   0  0  0  0  0  0  0  0  0  0  0  0
  185.7580  178.0830  144.9970 N   0  0  0  0  0  0  0  0  0  0  0  0
  182.7980  179.3020  143.0910 C   0  0  0  0  0  2  0  0  0  0  0  0
  186.2190  180.2410  142.7340 C   0  0  0  0  0  1  0  0  0  0  0  0
  189.6300  177.2060  147.3850 C   0  0  0  0  0  3  0  0  0  0  0  0
  189.0390  177.3620  146.1270 C   0  0  0  0  0  0  0  0  0  0  0  0
  186.0670  178.8450  142.1360 C   0  0  2  0  0  3  0  0  0  0  0  0
  190.3100  177.3140  140.1150 C   0  0  0  0  0  2  0  0  0  0  0  0
  192.7460  177.2630  139.8850 C   0  0  0  0  0  2  0  0  0  0  0  0
  191.6900  177.5290  140.6470 C   0  0  0  0  0  3  0  0  0  0  0  0
  1 19  1  0  0  0  0
  2 13  1  0  0  0  0
  4  1  2  0  0  0  0
  4 20  1  0  0  0  0
  5  1  1  0  0  0  0
  6  8  2  0  0  0  0
  7 15  1  6  0  0  0
  7  9  1  0  0  0  0
  8 11  1  0  0  0  0
  8 12  1  0  0  0  0
  9 14  1  6  0  0  0
  9 22  1  0  0  0  0
 10 21  2  0  0  0  0
 10  3  1  0  0  0  0
 11 28  1  6  0  0  0
 11  5  1  0  0  0  0
 12  4  1  0  0  0  0
 13 18  2  0  0  0  0
 15 23  1  0  0  0  0
 16  2  1  0  0  0  0
 17 26  1  0  0  0  0
 17  3  1  0  0  0  0
 19  2  2  0  0  0  0
 19 26  1  0  0  0  0
 20 22  1  0  0  0  0
 20 17  2  0  0  0  0
 22 10  1  0  0  0  0
 23 14  1  0  0  0  0
 25 18  1  0  0  0  0
 26 25  2  0  0  0  0
 27 12  1  0  0  0  0
 27  7  1  0  0  0  0
 27 24  1  1  0  0  0
 28 30  1  0  0  0  0
 29 30  2  0  0  0  0
M  END
>  <MODEL>
3

>  <REMARK>
 VINA RESULT:      -9.7      2.408      5.645
  Name = 
  2 active torsions:
  status: ('A' for Active; 'I' for Inactive)
    1  A    between atoms: C_11  and  C_28
    2  A    between atoms: C_28  and  C_30
                            x       y       z     vdW  Elec       q    Type
                         _______ _______ _______ _____ _____    ______ ____

>  <TORSDO>
F 2

$$$$
=
 OpenBabel11122410293D

 30 35  0  0  1  0  0  0  0  0999 V2000
  186.7890  177.8190  145.0150 C   0  0  0  0  0  0  0  0  0  0  0  0
  184.4490  178.5090  145.4650 C   0  0  0  0  0  0  0  0  0  0  0  0
  186.3970  178.6280  141.0010 N   0  0  0  0  0  2  0  0  0  0  0  0
  187.8680  177.6650  144.1050 C   0  0  0  0  0  0  0  0  0  0  0  0
  186.9850  177.5040  146.3640 O   0  0  0  0  0  0  0  0  0  0  0  0
  190.4220  176.5500  146.4470 O   0  0  0  0  0  0  0  0  0  0  0  0
  190.4800  176.6680  142.6790 C   0  0  1  0  0  3  0  0  0  0  0  0
  189.2930  176.8740  145.9850 C   0  0  0  0  0  0  0  0  0  0  0  0
  189.7040  177.1090  141.4460 C   0  0  2  0  0  3  0  0  0  0  0  0
  187.6340  178.2320  140.6300 C   0  0  0  0  0  0  0  0  0  0  0  0
  188.0590  176.6840  146.8220 C   0  0  1  0  0  3  0  0  0  0  0  0
  189.1710  177.3430  144.6320 N   0  0  0  0  0  0  0  0  0  0  0  0
  183.2310  179.0030  144.9920 C   0  0  0  0  0  3  0  0  0  0  0  0
  190.6830  177.9090  140.6140 C   0  0  0  0  0  2  0  0  0  0  0  0
  191.9280  176.5690  142.2250 C   0  0  0  0  0  2  0  0  0  0  0  0
  184.5560  178.2250  146.7880 F   0  0  0  0  0  0  0  0  0  0  0  0
  186.4110  178.4330  142.3300 C   0  0  0  0  0  0  0  0  0  0  0  0
  183.0650  179.3110  143.6420 C   0  0  0  0  0  3  0  0  0  0  0  0
  185.5320  178.3180  144.5770 C   0  0  0  0  0  0  0  0  0  0  0  0
  187.6270  177.9470  142.7430 C   0  0  0  0  0  0  0  0  0  0  0  0
  187.9970  178.2160  139.4230 O   0  0  0  0  0  0  0  0  0  0  0  0
  188.4280  177.8190  141.6550 N   0  0  0  0  0  0  0  0  0  0  0  0
  192.0320  177.2730  140.8800 C   0  0  0  0  0  2  0  0  0  0  0  0
  190.5840  179.0830  143.5900 C   0  0  0  0  0  1  0  0  0  0  0  0
  184.1200  179.1280  142.7490 C   0  0  0  0  0  3  0  0  0  0  0  0
  185.3490  178.6370  143.2060 C   0  0  0  0  0  0  0  0  0  0  0  0
  190.3900  177.5970  143.8820 C   0  0  2  0  0  3  0  0  0  0  0  0
  188.3050  176.9200  148.3110 C   0  0  0  0  0  2  0  0  0  0  0  0
  189.8090  178.7760  148.8440 C   0  0  0  0  0  2  0  0  0  0  0  0
  188.5680  178.3610  148.6100 C   0  0  0  0  0  3  0  0  0  0  0  0
  1  5  1  0  0  0  0
  2 16  1  0  0  0  0
  3 17  1  0  0  0  0
  4 12  1  0  0  0  0
  4  1  2  0  0  0  0
  5 11  1  0  0  0  0
  7 15  1  6  0  0  0
  7 27  1  0  0  0  0
  8  6  2  0  0  0  0
  8 11  1  0  0  0  0
  9 14  1  1  0  0  0
  9 22  1  0  0  0  0
  9  7  1  0  0  0  0
 10  3  1  0  0  0  0
 10 22  1  0  0  0  0
 11 28  1  1  0  0  0
 12  8  1  0  0  0  0
 13  2  1  0  0  0  0
 14 23  1  0  0  0  0
 17 20  2  0  0  0  0
 17 26  1  0  0  0  0
 18 13  2  0  0  0  0
 19  1  1  0  0  0  0
 19  2  2  0  0  0  0
 20  4  1  0  0  0  0
 21 10  2  0  0  0  0
 22 20  1  0  0  0  0
 23 15  1  0  0  0  0
 25 26  2  0  0  0  0
 25 18  1  0  0  0  0
 26 19  1  0  0  0  0
 27 24  1  6  0  0  0
 27 12  1  0  0  0  0
 28 30  1  0  0  0  0
 30 29  2  0  0  0  0
M  END
>  <MODEL>
4

>  <REMARK>
 VINA RESULT:      -9.4      2.029      5.356
  Name = 
  2 active torsions:
  status: ('A' for Active; 'I' for Inactive)
    1  A    between atoms: C_11  and  C_28
    2  A    between atoms: C_28  and  C_30
                            x       y       z     vdW  Elec       q    Type
                         _______ _______ _______ _____ _____    ______ ____

>  <TORSDO>
F 2

$$$$
=
 OpenBabel11122410293D

 30 35  0  0  1  0  0  0  0  0999 V2000
  188.0960  177.9240  141.6510 C   0  0  0  0  0  0  0  0  0  0  0  0
  188.9720  177.5110  143.9350 C   0  0  0  0  0  0  0  0  0  0  0  0
  191.6430  176.7490  139.9320 N   0  0  0  0  0  2  0  0  0  0  0  0
  188.2740  177.8800  140.2440 C   0  0  0  0  0  0  0  0  0  0  0  0
  186.8700  178.3550  142.1690 O   0  0  0  0  0  0  0  0  0  0  0  0
  184.9570  178.9780  139.2230 O   0  0  0  0  0  0  0  0  0  0  0  0
  188.0770  178.4700  137.1670 C   0  0  1  0  0  3  0  0  0  0  0  0
  185.9490  178.7180  139.9590 C   0  0  0  0  0  0  0  0  0  0  0  0
  189.5170  177.9810  137.2110 C   0  0  2  0  0  3  0  0  0  0  0  0
  191.2920  176.9840  138.6490 C   0  0  0  0  0  0  0  0  0  0  0  0
  185.9280  179.1100  141.4100 C   0  0  1  0  0  3  0  0  0  0  0  0
  187.1330  178.1270  139.3980 N   0  0  0  0  0  0  0  0  0  0  0  0
  190.0160  177.0910  144.7630 C   0  0  0  0  0  3  0  0  0  0  0  0
  189.6530  177.0100  136.0580 C   0  0  0  0  0  2  0  0  0  0  0  0
  187.6690  178.3820  135.7040 C   0  0  0  0  0  2  0  0  0  0  0  0
  187.8160  177.9180  144.5180 F   0  0  0  0  0  0  0  0  0  0  0  0
  190.5300  177.0770  140.6080 C   0  0  0  0  0  0  0  0  0  0  0  0
  191.2270  176.6630  144.2180 C   0  0  0  0  0  3  0  0  0  0  0  0
  189.1320  177.5060  142.5310 C   0  0  0  0  0  0  0  0  0  0  0  0
  189.5360  177.4840  139.7510 C   0  0  0  0  0  0  0  0  0  0  0  0
  192.1050  176.8420  137.6970 O   0  0  0  0  0  0  0  0  0  0  0  0
  190.0150  177.4220  138.4820 N   0  0  0  0  0  0  0  0  0  0  0  0
  188.7160  177.5370  134.9920 C   0  0  0  0  0  2  0  0  0  0  0  0
  187.1760  176.1620  137.8990 C   0  0  0  0  0  1  0  0  0  0  0  0
  191.4050  176.6520  142.8340 C   0  0  0  0  0  3  0  0  0  0  0  0
  190.3690  177.0670  141.9900 C   0  0  0  0  0  0  0  0  0  0  0  0
  187.0870  177.6820  138.0140 C   0  0  2  0  0  3  0  0  0  0  0  0
  184.5380  179.0060  142.0370 C   0  0  0  0  0  2  0  0  0  0  0  0
  184.0800  179.0410  144.4410 C   0  0  0  0  0  2  0  0  0  0  0  0
  184.5880  178.3910  143.3990 C   0  0  0  0  0  3  0  0  0  0  0  0
  1  5  1  0  0  0  0
  1 19  1  0  0  0  0
  2 16  1  0  0  0  0
  2 13  1  0  0  0  0
  3 17  1  0  0  0  0
  4  1  2  0  0  0  0
  6  8  2  0  0  0  0
  7 15  1  6  0  0  0
  7  9  1  0  0  0  0
  7 27  1  0  0  0  0
  8 11  1  0  0  0  0
  9 14  1  6  0  0  0
  9 22  1  0  0  0  0
 10  3  1  0  0  0  0
 11 28  1  1  0  0  0
 11  5  1  0  0  0  0
 12  8  1  0  0  0  0
 12  4  1  0  0  0  0
 17 26  1  0  0  0  0
 18 13  2  0  0  0  0
 19  2  2  0  0  0  0
 20  4  1  0  0  0  0
 20 17  2  0  0  0  0
 21 10  2  0  0  0  0
 22 10  1  0  0  0  0
 22 20  1  0  0  0  0
 23 15  1  0  0  0  0
 23 14  1  0  0  0  0
 25 18  1  0  0  0  0
 26 19  1  0  0  0  0
 26 25  2  0  0  0  0
 27 24  1  1  0  0  0
 27 12  1  0  0  0  0
 28 30  1  0  0  0  0
 30 29  2  0  0  0  0
M  END
>  <MODEL>
5

>  <REMARK>
 VINA RESULT:      -9.0      2.689      6.774
  Name = 
  2 active torsions:
  status: ('A' for Active; 'I' for Inactive)
    1  A    between atoms: C_11  and  C_28
    2  A    between atoms: C_28  and  C_30
                            x       y       z     vdW  Elec       q    Type
                         _______ _______ _______ _____ _____    ______ ____

>  <TORSDO>
F 2

$$$$
=
 OpenBabel11122410293D

 30 35  0  0  1  0  0  0  0  0999 V2000
  187.7030  177.6000  142.7310 C   0  0  0  0  0  0  0  0  0  0  0  0
  186.6570  178.1320  144.9170 C   0  0  0  0  0  0  0  0  0  0  0  0
  184.5130  179.1800  140.6690 N   0  0  0  0  0  2  0  0  0  0  0  0
  187.6740  177.6550  141.3130 C   0  0  0  0  0  0  0  0  0  0  0  0
  188.8090  177.0280  143.3690 O   0  0  0  0  0  0  0  0  0  0  0  0
  190.9200  176.1590  140.6270 O   0  0  0  0  0  0  0  0  0  0  0  0
  188.1070  177.0220  138.2690 C   0  0  1  0  0  3  0  0  0  0  0  0
  189.8980  176.5410  141.2600 C   0  0  0  0  0  0  0  0  0  0  0  0
  186.7390  177.6810  138.1710 C   0  0  2  0  0  3  0  0  0  0  0  0
  184.9610  178.8940  139.4270 C   0  0  0  0  0  0  0  0  0  0  0  0
  189.7250  176.1600  142.7040 C   0  0  1  0  0  3  0  0  0  0  0  0
  188.8560  177.2660  140.5860 N   0  0  0  0  0  0  0  0  0  0  0  0
  185.5930  178.6810  145.6370 C   0  0  0  0  0  3  0  0  0  0  0  0
  186.8380  178.6530  137.0150 C   0  0  0  0  0  2  0  0  0  0  0  0
  188.6670  177.0490  136.8560 C   0  0  0  0  0  2  0  0  0  0  0  0
  187.6910  177.5940  145.6110 F   0  0  0  0  0  0  0  0  0  0  0  0
  185.5060  178.7260  141.4520 C   0  0  0  0  0  0  0  0  0  0  0  0
  184.5030  179.2470  144.9750 C   0  0  0  0  0  3  0  0  0  0  0  0
  186.6410  178.1460  143.5040 C   0  0  0  0  0  0  0  0  0  0  0  0
  186.5240  178.1950  140.6980 C   0  0  0  0  0  0  0  0  0  0  0  0
  184.2710  179.1260  138.3980 O   0  0  0  0  0  0  0  0  0  0  0  0
  186.1860  178.3050  139.3870 N   0  0  0  0  0  0  0  0  0  0  0  0
  187.8070  178.0080  136.0460 C   0  0  0  0  0  2  0  0  0  0  0  0
  189.2010  179.2100  139.1000 C   0  0  0  0  0  1  0  0  0  0  0  0
  184.4680  179.2690  143.5810 C   0  0  0  0  0  3  0  0  0  0  0  0
  185.5260  178.7270  142.8440 C   0  0  0  0  0  0  0  0  0  0  0  0
  189.0940  177.6920  139.2160 C   0  0  2  0  0  3  0  0  0  0  0  0
  191.0470  176.1010  143.4690 C   0  0  0  0  0  2  0  0  0  0  0  0
  191.6100  176.5970  145.7980 C   0  0  0  0  0  2  0  0  0  0  0  0
  191.0350  176.9950  144.6670 C   0  0  0  0  0  3  0  0  0  0  0  0
  1  5  1  0  0  0  0
  1 19  1  0  0  0  0
  2 16  1  0  0  0  0
  2 13  1  0  0  0  0
  3 17  1  0  0  0  0
  4  1  2  0  0  0  0
  6  8  2  0  0  0  0
  7 15  1  6  0  0  0
  7 27  1  0  0  0  0
  8 11  1  0  0  0  0
  9 14  1  6  0  0  0
  9  7  1  0  0  0  0
  9 22  1  0  0  0  0
 10  3  1  0  0  0  0
 11  5  1  0  0  0  0
 11 28  1  1  0  0  0
 12  8  1  0  0  0  0
 12  4  1  0  0  0  0
 17 26  1  0  0  0  0
 18 13  2  0  0  0  0
 19  2  2  0  0  0  0
 20  4  1  0  0  0  0
 20 17  2  0  0  0  0
 21 10  2  0  0  0  0
 22 10  1  0  0  0  0
 22 20  1  0  0  0  0
 23 15  1  0  0  0  0
 23 14  1  0  0  0  0
 25 18  1  0  0  0  0
 26 19  1  0  0  0  0
 26 25  2  0  0  0  0
 27 24  1  1  0  0  0
 27 12  1  0  0  0  0
 28 30  1  0  0  0  0
 30 29  2  0  0  0  0
M  END
>  <MODEL>
6

>  <REMARK>
 VINA RESULT:      -8.6      2.405      5.820
  Name = 
  2 active torsions:
  status: ('A' for Active; 'I' for Inactive)
    1  A    between atoms: C_11  and  C_28
    2  A    between atoms: C_28  and  C_30
                            x       y       z     vdW  Elec       q    Type
                         _______ _______ _______ _____ _____    ______ ____

>  <TORSDO>
F 2

$$$$
=
 OpenBabel11122410293D

 30 35  0  0  1  0  0  0  0  0999 V2000
  186.3710  178.3920  142.7240 C   0  0  0  0  0  0  0  0  0  0  0  0
  188.6520  177.8660  143.5450 C   0  0  0  0  0  0  0  0  0  0  0  0
  187.5660  178.0810  138.8000 N   0  0  0  0  0  2  0  0  0  0  0  0
  185.4640  178.5520  141.6440 C   0  0  0  0  0  0  0  0  0  0  0  0
  185.9020  178.5330  144.0350 O   0  0  0  0  0  0  0  0  0  0  0  0
  182.4240  179.1630  143.5510 O   0  0  0  0  0  0  0  0  0  0  0  0
  183.0590  179.4680  139.8470 C   0  0  1  0  0  3  0  0  0  0  0  0
  183.6460  178.9950  143.2840 C   0  0  0  0  0  0  0  0  0  0  0  0
  184.0880  179.2410  138.7490 C   0  0  2  0  0  3  0  0  0  0  0  0
  186.3810  178.4060  138.2400 C   0  0  0  0  0  0  0  0  0  0  0  0
  184.6820  179.1970  144.3550 C   0  0  1  0  0  3  0  0  0  0  0  0
  184.0610  178.6950  141.9410 N   0  0  0  0  0  0  0  0  0  0  0  0
  189.9830  177.5390  143.2680 C   0  0  0  0  0  3  0  0  0  0  0  0
  183.3670  178.4560  137.6730 C   0  0  0  0  0  2  0  0  0  0  0  0
  181.7140  179.4890  139.1370 C   0  0  0  0  0  2  0  0  0  0  0  0
  188.2790  177.9870  144.8440 F   0  0  0  0  0  0  0  0  0  0  0  0
  187.2920  178.1220  140.1140 C   0  0  0  0  0  0  0  0  0  0  0  0
  190.4220  177.4020  141.9510 C   0  0  0  0  0  3  0  0  0  0  0  0
  187.7340  178.0600  142.4880 C   0  0  0  0  0  0  0  0  0  0  0  0
  185.9760  178.4490  140.3320 C   0  0  0  0  0  0  0  0  0  0  0  0
  186.2410  178.5270  136.9930 O   0  0  0  0  0  0  0  0  0  0  0  0
  185.3750  178.6280  139.1280 N   0  0  0  0  0  0  0  0  0  0  0  0
  181.9320  178.9360  137.7370 C   0  0  0  0  0  2  0  0  0  0  0  0
  183.0550  176.9660  140.4880 C   0  0  0  0  0  1  0  0  0  0  0  0
  189.5310  177.5910  140.8940 C   0  0  0  0  0  3  0  0  0  0  0  0
  188.1940  177.9160  141.1530 C   0  0  0  0  0  0  0  0  0  0  0  0
  183.0310  178.4210  140.9510 C   0  0  2  0  0  3  0  0  0  0  0  0
  184.1980  178.7730  145.7410 C   0  0  0  0  0  2  0  0  0  0  0  0
  186.0520  179.0930  147.3060 C   0  0  0  0  0  2  0  0  0  0  0  0
  185.3170  178.2530  146.5850 C   0  0  0  0  0  3  0  0  0  0  0  0
  1  5  1  0  0  0  0
  2 16  1  0  0  0  0
  3 17  1  0  0  0  0
  4 12  1  0  0  0  0
  4  1  2  0  0  0  0
  5 11  1  0  0  0  0
  7 15  1  6  0  0  0
  7 27  1  0  0  0  0
  8  6  2  0  0  0  0
  8 11  1  0  0  0  0
  9 14  1  6  0  0  0
  9 22  1  0  0  0  0
  9  7  1  0  0  0  0
 10  3  1  0  0  0  0
 10 22  1  0  0  0  0
 11 28  1  1  0  0  0
 12  8  1  0  0  0  0
 13  2  1  0  0  0  0
 14 23  1  0  0  0  0
 17 20  2  0  0  0  0
 17 26  1  0  0  0  0
 18 13  2  0  0  0  0
 19  1  1  0  0  0  0
 19  2  2  0  0  0  0
 20  4  1  0  0  0  0
 21 10  2  0  0  0  0
 22 20  1  0  0  0  0
 23 15  1  0  0  0  0
 25 26  2  0  0  0  0
 25 18  1  0  0  0  0
 26 19  1  0  0  0  0
 27 24  1  6  0  0  0
 27 12  1  0  0  0  0
 28 30  1  0  0  0  0
 30 29  2  0  0  0  0
M  END
>  <MODEL>
7

>  <REMARK>
 VINA RESULT:      -8.3      2.661      7.401
  Name = 
  2 active torsions:
  status: ('A' for Active; 'I' for Inactive)
    1  A    between atoms: C_11  and  C_28
    2  A    between atoms: C_28  and  C_30
                            x       y       z     vdW  Elec       q    Type
                         _______ _______ _______ _____ _____    ______ ____

>  <TORSDO>
F 2

$$$$
=
 OpenBabel11122410293D

 30 35  0  0  1  0  0  0  0  0999 V2000
  189.6480  177.5550  142.2380 C   0  0  0  0  0  0  0  0  0  0  0  0
  191.0750  177.1760  140.2440 C   0  0  0  0  0  0  0  0  0  0  0  0
  186.4610  178.7060  139.9050 N   0  0  0  0  0  2  0  0  0  0  0  0
  188.3900  177.8990  142.7970 C   0  0  0  0  0  0  0  0  0  0  0  0
  190.6970  177.1940  143.0910 O   0  0  0  0  0  0  0  0  0  0  0  0
  189.1710  177.3660  146.3110 O   0  0  0  0  0  0  0  0  0  0  0  0
  186.1330  178.9320  144.7190 C   0  0  1  0  0  3  0  0  0  0  0  0
  189.3260  177.4940  145.0660 C   0  0  0  0  0  0  0  0  0  0  0  0
  185.4560  179.2360  143.3910 C   0  0  2  0  0  3  0  0  0  0  0  0
  185.6120  178.9930  140.9150 C   0  0  0  0  0  0  0  0  0  0  0  0
  190.7110  177.5130  144.4810 C   0  0  1  0  0  3  0  0  0  0  0  0
  188.1900  177.7090  144.2110 N   0  0  0  0  0  0  0  0  0  0  0  0
  191.2210  177.1770  138.8540 C   0  0  0  0  0  3  0  0  0  0  0  0
  184.0370  178.7270  143.5320 C   0  0  0  0  0  2  0  0  0  0  0  0
  185.0180  178.9570  145.7520 C   0  0  0  0  0  2  0  0  0  0  0  0
  192.1420  176.8160  141.0010 F   0  0  0  0  0  0  0  0  0  0  0  0
  187.5590  178.2820  140.5540 C   0  0  0  0  0  0  0  0  0  0  0  0
  190.1570  177.5390  138.0280 C   0  0  0  0  0  3  0  0  0  0  0  0
  189.8420  177.5430  140.8290 C   0  0  0  0  0  0  0  0  0  0  0  0
  187.3650  178.3030  141.9140 C   0  0  0  0  0  0  0  0  0  0  0  0
  184.4670  179.4790  140.7080 O   0  0  0  0  0  0  0  0  0  0  0  0
  186.1080  178.7540  142.1590 N   0  0  0  0  0  0  0  0  0  0  0  0
  183.6980  178.9200  144.9960 C   0  0  0  0  0  2  0  0  0  0  0  0
  186.1000  176.3910  144.2570 C   0  0  0  0  0  1  0  0  0  0  0  0
  188.9330  177.9050  138.5860 C   0  0  0  0  0  3  0  0  0  0  0  0
  188.7680  177.9070  139.9750 C   0  0  0  0  0  0  0  0  0  0  0  0
  186.8630  177.5980  144.7960 C   0  0  2  0  0  3  0  0  0  0  0  0
  191.6850  176.5980  145.2230 C   0  0  0  0  0  2  0  0  0  0  0  0
  192.1060  175.9080  147.5330 C   0  0  0  0  0  2  0  0  0  0  0  0
  191.6630  176.8420  146.6970 C   0  0  0  0  0  3  0  0  0  0  0  0
  1  4  1  0  0  0  0
  1  5  1  0  0  0  0
  2 19  1  0  0  0  0
  2 16  1  0  0  0  0
  3 17  1  0  0  0  0
  3 10  1  0  0  0  0
  4 12  1  0  0  0  0
  5 11  1  0  0  0  0
  7 27  1  0  0  0  0
  7 15  1  1  0  0  0
  8  6  2  0  0  0  0
  9 14  1  1  0  0  0
  9  7  1  0  0  0  0
 10 22  1  0  0  0  0
 11  8  1  0  0  0  0
 11 28  1  1  0  0  0
 12 27  1  0  0  0  0
 12  8  1  0  0  0  0
 13  2  2  0  0  0  0
 14 23  1  0  0  0  0
 17 20  1  0  0  0  0
 18 25  2  0  0  0  0
 18 13  1  0  0  0  0
 19  1  2  0  0  0  0
 20 22  1  0  0  0  0
 20  4  2  0  0  0  0
 21 10  2  0  0  0  0
 22  9  1  0  0  0  0
 23 15  1  0  0  0  0
 25 26  1  0  0  0  0
 26 17  2  0  0  0  0
 26 19  1  0  0  0  0
 27 24  1  6  0  0  0
 28 30  1  0  0  0  0
 30 29  2  0  0  0  0
M  END
>  <MODEL>
8

>  <REMARK>
 VINA RESULT:      -8.2      2.355      6.633
  Name = 
  2 active torsions:
  status: ('A' for Active; 'I' for Inactive)
    1  A    between atoms: C_11  and  C_28
    2  A    between atoms: C_28  and  C_30
                            x       y       z     vdW  Elec       q    Type
                         _______ _______ _______ _____ _____    ______ ____

>  <TORSDO>
F 2

$$$$
=
 OpenBabel11122410293D

 30 35  0  0  1  0  0  0  0  0999 V2000
  186.3530  178.1880  141.6170 C   0  0  0  0  0  0  0  0  0  0  0  0
  186.1960  177.9760  144.0840 C   0  0  0  0  0  0  0  0  0  0  0  0
  190.3620  177.2680  141.6570 N   0  0  0  0  0  2  0  0  0  0  0  0
  187.1160  178.0900  140.4250 C   0  0  0  0  0  0  0  0  0  0  0  0
  184.9980  178.5270  141.5330 O   0  0  0  0  0  0  0  0  0  0  0  0
  184.4880  178.8170  138.0140 O   0  0  0  0  0  0  0  0  0  0  0  0
  188.2120  178.5020  137.5120 C   0  0  1  0  0  3  0  0  0  0  0  0
  185.0860  178.6890  139.1170 C   0  0  0  0  0  0  0  0  0  0  0  0
  189.5240  178.1550  138.2000 C   0  0  2  0  0  3  0  0  0  0  0  0
  190.5770  177.4040  140.3310 C   0  0  0  0  0  0  0  0  0  0  0  0
  184.4240  179.1510  140.3860 C   0  0  1  0  0  3  0  0  0  0  0  0
  186.4310  178.1850  139.1600 N   0  0  0  0  0  0  0  0  0  0  0  0
  186.8120  177.6980  145.3070 C   0  0  0  0  0  3  0  0  0  0  0  0
  190.2000  177.1430  137.2990 C   0  0  0  0  0  2  0  0  0  0  0  0
  188.4740  178.3030  136.0270 C   0  0  0  0  0  2  0  0  0  0  0  0
  184.8790  178.3000  144.0890 F   0  0  0  0  0  0  0  0  0  0  0  0
  189.0480  177.5230  141.7710 C   0  0  0  0  0  0  0  0  0  0  0  0
  188.1650  177.3600  145.3610 C   0  0  0  0  0  3  0  0  0  0  0  0
  186.9390  177.9140  142.8830 C   0  0  0  0  0  0  0  0  0  0  0  0
  188.4910  177.7910  140.5450 C   0  0  0  0  0  0  0  0  0  0  0  0
  191.7250  177.2910  139.8240 O   0  0  0  0  0  0  0  0  0  0  0  0
  189.4670  177.7100  139.6050 N   0  0  0  0  0  0  0  0  0  0  0  0
  189.7750  177.5250  135.8970 C   0  0  0  0  0  2  0  0  0  0  0  0
  187.2350  176.1600  137.9930 C   0  0  0  0  0  1  0  0  0  0  0  0
  188.9160  177.2960  144.1870 C   0  0  0  0  0  3  0  0  0  0  0  0
  188.3140  177.5670  142.9530 C   0  0  0  0  0  0  0  0  0  0  0  0
  187.0080  177.6680  137.9290 C   0  0  2  0  0  3  0  0  0  0  0  0
  182.9090  178.9470  140.3770 C   0  0  0  0  0  2  0  0  0  0  0  0
  181.1230  178.9250  142.0500 C   0  0  0  0  0  2  0  0  0  0  0  0
  182.3820  178.6330  141.7400 C   0  0  0  0  0  3  0  0  0  0  0  0
  1 19  1  0  0  0  0
  2 16  1  0  0  0  0
  2 13  1  0  0  0  0
  3 17  1  0  0  0  0
  4 20  1  0  0  0  0
  4  1  2  0  0  0  0
  5  1  1  0  0  0  0
  6  8  2  0  0  0  0
  7 15  1  6  0  0  0
  7 27  1  0  0  0  0
  7  9  1  0  0  0  0
  8 12  1  0  0  0  0
  8 11  1  0  0  0  0
  9 14  1  6  0  0  0
  9 22  1  0  0  0  0
 10  3  1  0  0  0  0
 11 28  1  6  0  0  0
 11  5  1  0  0  0  0
 12  4  1  0  0  0  0
 13 18  2  0  0  0  0
 17 26  1  0  0  0  0
 19 26  1  0  0  0  0
 19  2  2  0  0  0  0
 20 17  2  0  0  0  0
 21 10  2  0  0  0  0
 22 10  1  0  0  0  0
 22 20  1  0  0  0  0
 23 15  1  0  0  0  0
 23 14  1  0  0  0  0
 25 18  1  0  0  0  0
 26 25  2  0  0  0  0
 27 24  1  1  0  0  0
 27 12  1  0  0  0  0
 28 30  1  0  0  0  0
 30 29  2  0  0  0  0
M  END
>  <MODEL>
9

>  <REMARK>
 VINA RESULT:      -8.2      2.495      5.627
  Name = 
  2 active torsions:
  status: ('A' for Active; 'I' for Inactive)
    1  A    between atoms: C_11  and  C_28
    2  A    between atoms: C_28  and  C_30
                            x       y       z     vdW  Elec       q    Type
                         _______ _______ _______ _____ _____    ______ ____

>  <TORSDO>
F 2

$$$$
