=
 OpenBabel11122411503D

 28 32  0  0  1  0  0  0  0  0999 V2000
  183.8920  177.6290  137.7210 C   0  0  0  0  0  0  0  0  0  0  0  0
  181.3640  178.9630  134.6390 O   0  0  0  0  0  0  0  0  0  0  0  0
  180.6630  178.2530  141.6170 C   0  0  0  0  0  2  0  0  0  0  0  0
  182.0320  175.7160  136.8680 C   0  0  0  0  0  3  0  0  0  0  0  0
  180.3380  180.2090  140.2350 N   0  0  0  0  0  0  0  0  0  0  0  0
  184.8960  178.6120  138.2360 C   0  0  0  0  0  2  0  0  0  0  0  0
  179.0010  179.3540  135.1240 O   0  0  0  0  0  0  0  0  0  0  0  0
  180.3980  179.8480  135.3740 S   0  0  0  0  0  0  0  0  0  0  0  0
  179.8110  182.3300  135.6550 C   0  0  2  0  0  3  0  0  0  0  0  0
  180.7180  179.7850  137.1450 C   0  0  2  0  0  3  0  0  0  0  0  0
  185.6810  179.2710  141.8350 N   0  0  0  0  0  1  0  0  0  0  0  0
  182.3380  180.0840  138.9400 C   0  0  1  0  0  3  0  0  0  0  0  0
  180.8050  182.6040  137.1420 S   0  0  0  0  0  0  0  0  0  0  0  0
  180.5450  181.4560  134.7600 N   0  0  0  0  0  2  0  0  0  0  0  0
  184.7660  179.0030  140.7800 C   0  0  0  0  0  0  0  0  0  0  0  0
  182.5780  178.0320  137.3990 C   0  0  0  0  0  0  0  0  0  0  0  0
  181.1220  179.1480  140.7490 C   0  0  0  0  0  0  0  0  0  0  0  0
  179.5660  183.6570  134.9690 C   0  0  0  0  0  1  0  0  0  0  0  0
  183.5120  179.3070  140.9540 N   0  0  0  0  0  0  0  0  0  0  0  0
  181.6530  177.0540  136.9880 C   0  0  0  0  0  3  0  0  0  0  0  0
  184.2650  176.2850  137.5940 C   0  0  0  0  0  3  0  0  0  0  0  0
  183.3390  175.3310  137.1650 C   0  0  0  0  0  3  0  0  0  0  0  0
  185.2550  178.3120  139.6180 N   0  0  0  0  0  2  0  0  0  0  0  0
  181.0860  180.9340  139.2270 C   0  0  1  0  0  3  0  0  0  0  0  0
  182.4150  179.0100  140.0430 C   0  0  2  0  0  3  0  0  0  0  0  0
  180.3030  181.0300  137.9290 C   0  0  2  0  0  3  0  0  0  0  0  0
  179.1160  180.7090  140.8450 C   0  0  0  0  0  1  0  0  0  0  0  0
  182.1630  179.4930  137.5270 C   0  0  1  0  0  3  0  0  0  0  0  0
  1  6  1  0  0  0  0
  2  8  2  0  0  0  0
  4 20  2  0  0  0  0
  4 22  1  0  0  0  0
  5 17  1  0  0  0  0
  5 27  1  0  0  0  0
  6 23  1  0  0  0  0
  7  8  2  0  0  0  0
  9 18  1  6  0  0  0
  9 13  1  0  0  0  0
 10  8  1  6  0  0  0
 10 28  1  0  0  0  0
 10 26  1  0  0  0  0
 12 24  1  0  0  0  0
 12 25  1  0  0  0  0
 13 26  1  0  0  0  0
 14  8  1  0  0  0  0
 14  9  1  0  0  0  0
 15 19  2  0  0  0  0
 15 11  1  0  0  0  0
 16 28  1  0  0  0  0
 16  1  2  0  0  0  0
 17  3  2  0  0  0  0
 20 16  1  0  0  0  0
 21  1  1  0  0  0  0
 22 21  2  0  0  0  0
 23 15  1  0  0  0  0
 24  5  1  0  0  0  0
 25 17  1  0  0  0  0
 25 19  1  0  0  0  0
 26 24  1  0  0  0  0
 28 12  1  0  0  0  0
M  END
>  <MODEL>
1

>  <REMARK>
 VINA RESULT:      -5.1      0.000      0.000
  Name = 
  0 active torsions:
  status: ('A' for Active; 'I' for Inactive)
                            x       y       z     vdW  Elec       q    Type
                         _______ _______ _______ _____ _____    ______ ____

>  <TORSDO>
F 0

$$$$
=
 OpenBabel11122411503D

 28 32  0  0  1  0  0  0  0  0999 V2000
  185.9580  175.2940  136.7700 C   0  0  0  0  0  0  0  0  0  0  0  0
  185.9910  178.6160  139.3470 O   0  0  0  0  0  0  0  0  0  0  0  0
  181.4220  176.1210  134.5940 C   0  0  0  0  0  2  0  0  0  0  0  0
  186.6680  177.6980  135.5190 C   0  0  0  0  0  3  0  0  0  0  0  0
  181.0780  176.6260  136.9320 N   0  0  0  0  0  0  0  0  0  0  0  0
  185.5660  173.9830  137.3740 C   0  0  0  0  0  2  0  0  0  0  0  0
  184.2730  180.3360  139.0930 O   0  0  0  0  0  0  0  0  0  0  0  0
  184.5270  178.9150  139.5070 S   0  0  0  0  0  0  0  0  0  0  0  0
  182.6580  178.7580  141.2580 C   0  0  2  0  0  3  0  0  0  0  0  0
  183.5490  177.8290  138.4550 C   0  0  2  0  0  3  0  0  0  0  0  0
  183.2050  171.4930  135.8800 N   0  0  0  0  0  1  0  0  0  0  0  0
  183.0010  175.5380  137.8330 C   0  0  1  0  0  3  0  0  0  0  0  0
  182.0150  177.1530  140.7230 S   0  0  0  0  0  0  0  0  0  0  0  0
  184.1050  178.7300  141.1730 N   0  0  0  0  0  2  0  0  0  0  0  0
  183.5980  172.8270  136.1760 C   0  0  0  0  0  0  0  0  0  0  0  0
  185.2900  176.4870  137.1240 C   0  0  0  0  0  0  0  0  0  0  0  0
  181.7230  175.9400  135.8740 C   0  0  0  0  0  0  0  0  0  0  0  0
  182.2460  179.0030  142.6940 C   0  0  0  0  0  1  0  0  0  0  0  0
  182.6880  173.7580  136.1680 N   0  0  0  0  0  0  0  0  0  0  0  0
  185.6500  177.6820  136.4740 C   0  0  0  0  0  3  0  0  0  0  0  0
  186.9810  175.3210  135.8140 C   0  0  0  0  0  3  0  0  0  0  0  0
  187.3370  176.5190  135.1920 C   0  0  0  0  0  3  0  0  0  0  0  0
  184.9980  173.0950  136.3650 N   0  0  0  0  0  2  0  0  0  0  0  0
  181.7110  176.2980  138.1940 C   0  0  1  0  0  3  0  0  0  0  0  0
  182.9120  175.1870  136.3340 C   0  0  2  0  0  3  0  0  0  0  0  0
  182.1270  177.5540  138.9410 C   0  0  2  0  0  3  0  0  0  0  0  0
  179.7850  177.2850  136.8270 C   0  0  0  0  0  1  0  0  0  0  0  0
  184.1810  176.4720  138.1690 C   0  0  1  0  0  3  0  0  0  0  0  0
  1 16  1  0  0  0  0
  1  6  1  0  0  0  0
  2  8  2  0  0  0  0
  3 17  2  0  0  0  0
  4 20  1  0  0  0  0
  5 24  1  0  0  0  0
  7  8  2  0  0  0  0
  8 14  1  0  0  0  0
  9 18  1  1  0  0  0
 10 26  1  0  0  0  0
 10  8  1  1  0  0  0
 11 15  1  0  0  0  0
 12 28  1  0  0  0  0
 12 24  1  0  0  0  0
 13  9  1  0  0  0  0
 14  9  1  0  0  0  0
 15 23  1  0  0  0  0
 16 28  1  0  0  0  0
 17 25  1  0  0  0  0
 17  5  1  0  0  0  0
 19 15  2  0  0  0  0
 19 25  1  0  0  0  0
 20 16  2  0  0  0  0
 21  1  2  0  0  0  0
 22  4  2  0  0  0  0
 22 21  1  0  0  0  0
 23  6  1  0  0  0  0
 24 26  1  0  0  0  0
 25 12  1  0  0  0  0
 26 13  1  0  0  0  0
 27  5  1  0  0  0  0
 28 10  1  0  0  0  0
M  END
>  <MODEL>
2

>  <REMARK>
 VINA RESULT:      -5.0      3.772      5.985
  Name = 
  0 active torsions:
  status: ('A' for Active; 'I' for Inactive)
                            x       y       z     vdW  Elec       q    Type
                         _______ _______ _______ _____ _____    ______ ____

>  <TORSDO>
F 0

$$$$
=
 OpenBabel11122411503D

 28 32  0  0  1  0  0  0  0  0999 V2000
  182.3920  178.6660  138.8170 C   0  0  0  0  0  0  0  0  0  0  0  0
  180.6200  175.5270  136.6530 O   0  0  0  0  0  0  0  0  0  0  0  0
  186.8020  178.8930  136.2700 C   0  0  0  0  0  2  0  0  0  0  0  0
  181.2770  179.4580  136.3730 C   0  0  0  0  0  3  0  0  0  0  0  0
  186.3560  176.5300  136.5080 N   0  0  0  0  0  0  0  0  0  0  0  0
  183.0250  178.3040  140.1240 C   0  0  0  0  0  2  0  0  0  0  0  0
  181.6850  174.7530  134.5940 O   0  0  0  0  0  0  0  0  0  0  0  0
  181.8140  174.8100  136.0890 S   0  0  0  0  0  0  0  0  0  0  0  0
  183.1220  172.6210  136.3770 C   0  0  2  0  0  3  0  0  0  0  0  0
  183.3260  175.6970  136.5000 C   0  0  2  0  0  3  0  0  0  0  0  0
  186.3680  179.4630  141.3430 N   0  0  0  0  0  1  0  0  0  0  0  0
  184.7330  176.6340  138.2540 C   0  0  1  0  0  3  0  0  0  0  0  0
  184.3680  173.2800  137.5130 S   0  0  0  0  0  0  0  0  0  0  0  0
  181.8360  173.1990  136.7150 N   0  0  0  0  0  2  0  0  0  0  0  0
  185.4980  179.0030  140.3170 C   0  0  0  0  0  0  0  0  0  0  0  0
  182.5190  177.8250  137.6900 C   0  0  0  0  0  0  0  0  0  0  0  0
  186.2630  177.8770  136.9330 C   0  0  0  0  0  0  0  0  0  0  0  0
  183.0520  171.1170  136.5350 C   0  0  0  0  0  1  0  0  0  0  0  0
  186.0240  178.4730  139.2500 N   0  0  0  0  0  0  0  0  0  0  0  0
  181.9660  178.2470  136.4670 C   0  0  0  0  0  3  0  0  0  0  0  0
  181.6950  179.8760  138.7150 C   0  0  0  0  0  3  0  0  0  0  0  0
  181.1360  180.2700  137.4980 C   0  0  0  0  0  3  0  0  0  0  0  0
  184.0890  179.2430  140.4640 N   0  0  0  0  0  2  0  0  0  0  0  0
  185.5670  175.6800  137.3770 C   0  0  1  0  0  3  0  0  0  0  0  0
  185.3100  178.0490  138.0530 C   0  0  2  0  0  3  0  0  0  0  0  0
  184.5880  174.8380  136.5780 C   0  0  2  0  0  3  0  0  0  0  0  0
  187.3440  176.0230  135.5670 C   0  0  0  0  0  1  0  0  0  0  0  0
  183.2690  176.5020  137.7910 C   0  0  1  0  0  3  0  0  0  0  0  0
  1  6  1  0  0  0  0
  3 17  2  0  0  0  0
  4 20  2  0  0  0  0
  4 22  1  0  0  0  0
  5 17  1  0  0  0  0
  5 24  1  0  0  0  0
  6 23  1  0  0  0  0
  7  8  2  0  0  0  0
  8  2  2  0  0  0  0
  8 14  1  0  0  0  0
  9 18  1  1  0  0  0
  9 14  1  0  0  0  0
  9 13  1  0  0  0  0
 10  8  1  1  0  0  0
 10 26  1  0  0  0  0
 10 28  1  0  0  0  0
 15 23  1  0  0  0  0
 15 11  1  0  0  0  0
 16 28  1  0  0  0  0
 16  1  2  0  0  0  0
 17 25  1  0  0  0  0
 19 15  2  0  0  0  0
 20 16  1  0  0  0  0
 21  1  1  0  0  0  0
 22 21  2  0  0  0  0
 24 12  1  0  0  0  0
 25 12  1  0  0  0  0
 25 19  1  0  0  0  0
 26 24  1  0  0  0  0
 26 13  1  0  0  0  0
 27  5  1  0  0  0  0
 28 12  1  0  0  0  0
M  END
>  <MODEL>
3

>  <REMARK>
 VINA RESULT:      -4.8      3.064      6.218
  Name = 
  0 active torsions:
  status: ('A' for Active; 'I' for Inactive)
                            x       y       z     vdW  Elec       q    Type
                         _______ _______ _______ _____ _____    ______ ____

>  <TORSDO>
F 0

$$$$
=
 OpenBabel11122411503D

 28 32  0  0  1  0  0  0  0  0999 V2000
  183.8000  176.2010  138.0470 C   0  0  0  0  0  0  0  0  0  0  0  0
  185.9770  177.7980  141.2690 O   0  0  0  0  0  0  0  0  0  0  0  0
  180.5240  180.0570  137.4150 C   0  0  0  0  0  2  0  0  0  0  0  0
  185.7210  178.0960  137.2940 C   0  0  0  0  0  3  0  0  0  0  0  0
  180.7030  179.7940  139.8110 N   0  0  0  0  0  0  0  0  0  0  0  0
  182.7430  175.1980  138.3850 C   0  0  0  0  0  2  0  0  0  0  0  0
  185.6140  180.1280  141.9130 O   0  0  0  0  0  0  0  0  0  0  0  0
  184.9940  178.7590  141.8770 S   0  0  0  0  0  0  0  0  0  0  0  0
  183.5200  179.0250  143.9600 C   0  0  2  0  0  3  0  0  0  0  0  0
  183.4960  178.8340  140.8820 C   0  0  2  0  0  3  0  0  0  0  0  0
  179.2710  175.1060  136.9900 N   0  0  0  0  0  1  0  0  0  0  0  0
  181.6500  177.6050  139.8740 C   0  0  1  0  0  3  0  0  0  0  0  0
  182.0140  178.3390  143.2290 S   0  0  0  0  0  0  0  0  0  0  0  0
  184.6550  178.2530  143.4950 N   0  0  0  0  0  2  0  0  0  0  0  0
  180.4010  175.8050  137.4960 C   0  0  0  0  0  0  0  0  0  0  0  0
  184.0010  177.3450  138.8500 C   0  0  0  0  0  0  0  0  0  0  0  0
  180.7400  179.3000  138.4840 C   0  0  0  0  0  0  0  0  0  0  0  0
  183.4310  178.9240  145.4680 C   0  0  0  0  0  1  0  0  0  0  0  0
  180.2290  177.0100  137.9600 N   0  0  0  0  0  0  0  0  0  0  0  0
  184.9590  178.2930  138.4480 C   0  0  0  0  0  3  0  0  0  0  0  0
  184.5710  176.0090  136.8940 C   0  0  0  0  0  3  0  0  0  0  0  0
  185.5310  176.9510  136.5200 C   0  0  0  0  0  3  0  0  0  0  0  0
  181.6930  175.1870  137.3720 N   0  0  0  0  0  2  0  0  0  0  0  0
  181.0960  178.7530  140.7390 C   0  0  1  0  0  3  0  0  0  0  0  0
  181.2710  177.9200  138.4130 C   0  0  2  0  0  3  0  0  0  0  0  0
  182.2260  179.2200  141.6390 C   0  0  2  0  0  3  0  0  0  0  0  0
  180.0560  181.0330  140.2160 C   0  0  0  0  0  1  0  0  0  0  0  0
  183.1720  177.5600  140.1110 C   0  0  1  0  0  3  0  0  0  0  0  0
  1  6  1  0  0  0  0
  1 16  1  0  0  0  0
  2  8  2  0  0  0  0
  3 17  2  0  0  0  0
  4 20  1  0  0  0  0
  5 27  1  0  0  0  0
  5 24  1  0  0  0  0
  8  7  2  0  0  0  0
  8 14  1  0  0  0  0
  9 18  1  1  0  0  0
 10 26  1  0  0  0  0
 10  8  1  1  0  0  0
 11 15  1  0  0  0  0
 12 28  1  0  0  0  0
 12 24  1  0  0  0  0
 13  9  1  0  0  0  0
 14  9  1  0  0  0  0
 15 19  2  0  0  0  0
 16 28  1  0  0  0  0
 17  5  1  0  0  0  0
 19 25  1  0  0  0  0
 20 16  2  0  0  0  0
 21  1  2  0  0  0  0
 22 21  1  0  0  0  0
 22  4  2  0  0  0  0
 23 15  1  0  0  0  0
 23  6  1  0  0  0  0
 24 26  1  0  0  0  0
 25 17  1  0  0  0  0
 25 12  1  0  0  0  0
 26 13  1  0  0  0  0
 28 10  1  0  0  0  0
M  END
>  <MODEL>
4

>  <REMARK>
 VINA RESULT:      -4.7      3.775      5.873
  Name = 
  0 active torsions:
  status: ('A' for Active; 'I' for Inactive)
                            x       y       z     vdW  Elec       q    Type
                         _______ _______ _______ _____ _____    ______ ____

>  <TORSDO>
F 0

$$$$
=
 OpenBabel11122411503D

 28 32  0  0  1  0  0  0  0  0999 V2000
  183.6210  175.1340  136.7730 C   0  0  0  0  0  0  0  0  0  0  0  0
  185.7370  178.2660  138.6140 O   0  0  0  0  0  0  0  0  0  0  0  0
  178.9340  177.1010  137.1780 C   0  0  0  0  0  2  0  0  0  0  0  0
  184.0810  177.3340  135.1000 C   0  0  0  0  0  3  0  0  0  0  0  0
  179.9910  177.5990  139.2940 N   0  0  0  0  0  0  0  0  0  0  0  0
  183.3240  173.9380  137.6210 C   0  0  0  0  0  2  0  0  0  0  0  0
  184.5740  180.3570  139.1110 O   0  0  0  0  0  0  0  0  0  0  0  0
  184.6840  178.9040  139.4760 S   0  0  0  0  0  0  0  0  0  0  0  0
  184.0310  179.1470  141.9450 C   0  0  2  0  0  3  0  0  0  0  0  0
  183.0880  178.1200  139.1940 C   0  0  2  0  0  3  0  0  0  0  0  0
  180.0480  172.1400  137.8180 N   0  0  0  0  0  1  0  0  0  0  0  0
  181.8020  176.0500  139.1780 C   0  0  1  0  0  3  0  0  0  0  0  0
  182.8660  177.7630  141.9830 S   0  0  0  0  0  0  0  0  0  0  0  0
  185.1700  178.7730  141.1290 N   0  0  0  0  0  2  0  0  0  0  0  0
  180.8220  173.3290  137.7330 C   0  0  0  0  0  0  0  0  0  0  0  0
  183.5230  176.4410  137.2990 C   0  0  0  0  0  0  0  0  0  0  0  0
  179.8130  176.8120  138.1310 C   0  0  0  0  0  0  0  0  0  0  0  0
  184.5010  179.4390  143.3550 C   0  0  0  0  0  1  0  0  0  0  0  0
  180.2770  174.4530  138.1020 N   0  0  0  0  0  0  0  0  0  0  0  0
  183.7420  177.5330  136.4400 C   0  0  0  0  0  3  0  0  0  0  0  0
  183.9660  174.9430  135.4290 C   0  0  0  0  0  3  0  0  0  0  0  0
  184.1990  176.0390  134.5960 C   0  0  0  0  0  3  0  0  0  0  0  0
  182.1310  173.2460  137.1440 N   0  0  0  0  0  2  0  0  0  0  0  0
  181.1000  177.0880  140.0740 C   0  0  1  0  0  3  0  0  0  0  0  0
  180.8650  175.7800  137.9840 C   0  0  2  0  0  3  0  0  0  0  0  0
  182.1120  178.1820  140.3690 C   0  0  2  0  0  3  0  0  0  0  0  0
  179.0190  178.5540  139.8060 C   0  0  0  0  0  1  0  0  0  0  0  0
  183.1560  176.6610  138.7620 C   0  0  1  0  0  3  0  0  0  0  0  0
  1 16  1  0  0  0  0
  1  6  1  0  0  0  0
  2  8  2  0  0  0  0
  3 17  2  0  0  0  0
  4 20  1  0  0  0  0
  5 27  1  0  0  0  0
  5 24  1  0  0  0  0
  7  8  2  0  0  0  0
  8 14  1  0  0  0  0
  9 13  1  0  0  0  0
  9 18  1  1  0  0  0
 10  8  1  1  0  0  0
 10 26  1  0  0  0  0
 12 24  1  0  0  0  0
 14  9  1  0  0  0  0
 15 11  1  0  0  0  0
 15 19  2  0  0  0  0
 16 28  1  0  0  0  0
 17  5  1  0  0  0  0
 20 16  2  0  0  0  0
 21  1  2  0  0  0  0
 22  4  2  0  0  0  0
 22 21  1  0  0  0  0
 23  6  1  0  0  0  0
 23 15  1  0  0  0  0
 24 26  1  0  0  0  0
 25 19  1  0  0  0  0
 25 17  1  0  0  0  0
 25 12  1  0  0  0  0
 26 13  1  0  0  0  0
 28 12  1  0  0  0  0
 28 10  1  0  0  0  0
M  END
>  <MODEL>
5

>  <REMARK>
 VINA RESULT:      -4.6      3.706      5.558
  Name = 
  0 active torsions:
  status: ('A' for Active; 'I' for Inactive)
                            x       y       z     vdW  Elec       q    Type
                         _______ _______ _______ _____ _____    ______ ____

>  <TORSDO>
F 0

$$$$
=
 OpenBabel11122411503D

 28 32  0  0  1  0  0  0  0  0999 V2000
  181.0070  179.3650  139.7290 C   0  0  0  0  0  0  0  0  0  0  0  0
  178.9310  177.4820  136.5960 O   0  0  0  0  0  0  0  0  0  0  0  0
  185.7470  178.5770  138.0240 C   0  0  0  0  0  2  0  0  0  0  0  0
  180.7540  180.9380  137.4250 C   0  0  0  0  0  3  0  0  0  0  0  0
  184.5870  176.5020  137.5840 N   0  0  0  0  0  0  0  0  0  0  0  0
  181.1950  178.5680  140.9820 C   0  0  0  0  0  2  0  0  0  0  0  0
  180.1590  176.8040  134.5940 O   0  0  0  0  0  0  0  0  0  0  0  0
  179.9580  176.5260  136.0570 S   0  0  0  0  0  0  0  0  0  0  0  0
  180.4680  174.0130  135.9750 C   0  0  2  0  0  3  0  0  0  0  0  0
  181.5300  176.7560  136.9040 C   0  0  2  0  0  3  0  0  0  0  0  0
  184.3650  178.2770  142.9490 N   0  0  0  0  0  1  0  0  0  0  0  0
  182.7150  176.8100  139.0320 C   0  0  1  0  0  3  0  0  0  0  0  0
  181.5620  173.9830  137.4160 S   0  0  0  0  0  0  0  0  0  0  0  0
  179.3660  174.9140  136.2480 N   0  0  0  0  0  2  0  0  0  0  0  0
  183.6540  178.3420  141.7200 C   0  0  0  0  0  0  0  0  0  0  0  0
  181.1340  178.7630  138.4580 C   0  0  0  0  0  0  0  0  0  0  0  0
  184.7990  177.6950  138.3170 C   0  0  0  0  0  0  0  0  0  0  0  0
  179.9270  172.6200  135.7340 C   0  0  0  0  0  1  0  0  0  0  0  0
  184.2280  177.8810  140.6460 N   0  0  0  0  0  0  0  0  0  0  0  0
  181.0190  179.5720  137.3130 C   0  0  0  0  0  3  0  0  0  0  0  0
  180.7370  180.7350  139.8320 C   0  0  0  0  0  3  0  0  0  0  0  0
  180.6070  181.5190  138.6850 C   0  0  0  0  0  3  0  0  0  0  0  0
  182.3810  179.0110  141.7060 N   0  0  0  0  0  2  0  0  0  0  0  0
  183.4090  175.8190  138.0790 C   0  0  1  0  0  3  0  0  0  0  0  0
  183.7110  177.9600  139.2860 C   0  0  2  0  0  3  0  0  0  0  0  0
  182.4330  175.5240  136.9520 C   0  0  2  0  0  3  0  0  0  0  0  0
  185.5690  175.8830  136.7070 C   0  0  0  0  0  1  0  0  0  0  0  0
  181.4200  177.2710  138.3330 C   0  0  1  0  0  3  0  0  0  0  0  0
  1 21  1  0  0  0  0
  1  6  1  0  0  0  0
  3 17  2  0  0  0  0
  4 22  1  0  0  0  0
  5 24  1  0  0  0  0
  5 17  1  0  0  0  0
  6 23  1  0  0  0  0
  7  8  2  0  0  0  0
  8 14  1  0  0  0  0
  8  2  2  0  0  0  0
  9 18  1  1  0  0  0
  9 14  1  0  0  0  0
  9 13  1  0  0  0  0
 10  8  1  1  0  0  0
 10 26  1  0  0  0  0
 10 28  1  0  0  0  0
 12 25  1  0  0  0  0
 15 11  1  0  0  0  0
 16  1  2  0  0  0  0
 17 25  1  0  0  0  0
 19 15  2  0  0  0  0
 20  4  2  0  0  0  0
 20 16  1  0  0  0  0
 22 21  2  0  0  0  0
 23 15  1  0  0  0  0
 24 12  1  0  0  0  0
 25 19  1  0  0  0  0
 26 13  1  0  0  0  0
 26 24  1  0  0  0  0
 27  5  1  0  0  0  0
 28 16  1  0  0  0  0
 28 12  1  0  0  0  0
M  END
>  <MODEL>
6

>  <REMARK>
 VINA RESULT:      -4.5      2.451      5.377
  Name = 
  0 active torsions:
  status: ('A' for Active; 'I' for Inactive)
                            x       y       z     vdW  Elec       q    Type
                         _______ _______ _______ _____ _____    ______ ____

>  <TORSDO>
F 0

$$$$
=
 OpenBabel11122411503D

 28 32  0  0  1  0  0  0  0  0999 V2000
  182.0520  179.3270  138.5080 C   0  0  0  0  0  0  0  0  0  0  0  0
  178.9310  176.9000  137.0790 O   0  0  0  0  0  0  0  0  0  0  0  0
  185.6790  177.8150  135.2590 C   0  0  0  0  0  2  0  0  0  0  0  0
  180.8080  180.3150  136.2000 C   0  0  0  0  0  3  0  0  0  0  0  0
  184.5170  175.7850  135.8650 N   0  0  0  0  0  0  0  0  0  0  0  0
  182.7720  178.8440  139.7270 C   0  0  0  0  0  2  0  0  0  0  0  0
  179.2390  175.6750  134.9870 O   0  0  0  0  0  0  0  0  0  0  0  0
  179.6750  175.7720  136.4220 S   0  0  0  0  0  0  0  0  0  0  0  0
  180.1950  173.2830  136.7640 C   0  0  2  0  0  3  0  0  0  0  0  0
  181.4470  176.0860  136.4620 C   0  0  2  0  0  3  0  0  0  0  0  0
  186.4810  178.8080  140.2220 N   0  0  0  0  0  1  0  0  0  0  0  0
  183.4070  176.5650  137.8280 C   0  0  1  0  0  3  0  0  0  0  0  0
  181.7890  173.5220  137.5860 S   0  0  0  0  0  0  0  0  0  0  0  0
  179.2740  174.3000  137.2340 N   0  0  0  0  0  2  0  0  0  0  0  0
  185.3220  178.6260  139.4200 C   0  0  0  0  0  0  0  0  0  0  0  0
  181.6610  178.4300  137.4900 C   0  0  0  0  0  0  0  0  0  0  0  0
  184.9710  177.1000  136.1260 C   0  0  0  0  0  0  0  0  0  0  0  0
  179.6530  171.9150  137.1210 C   0  0  0  0  0  1  0  0  0  0  0  0
  185.4140  177.8800  138.3560 N   0  0  0  0  0  0  0  0  0  0  0  0
  181.0520  178.9460  136.3320 C   0  0  0  0  0  3  0  0  0  0  0  0
  181.8000  180.6980  138.3700 C   0  0  0  0  0  3  0  0  0  0  0  0
  181.1780  181.1910  137.2210 C   0  0  0  0  0  3  0  0  0  0  0  0
  184.1360  179.3610  139.7650 N   0  0  0  0  0  2  0  0  0  0  0  0
  183.6770  175.3260  136.9530 C   0  0  1  0  0  3  0  0  0  0  0  0
  184.3760  177.6670  137.3570 C   0  0  2  0  0  3  0  0  0  0  0  0
  182.3320  174.8400  136.4390 C   0  0  2  0  0  3  0  0  0  0  0  0
  185.0670  174.9040  134.8460 C   0  0  0  0  0  1  0  0  0  0  0  0
  181.9230  176.9350  137.6330 C   0  0  1  0  0  3  0  0  0  0  0  0
  1  6  1  0  0  0  0
  3 17  2  0  0  0  0
  4 20  2  0  0  0  0
  4 22  1  0  0  0  0
  5 17  1  0  0  0  0
  5 24  1  0  0  0  0
  6 23  1  0  0  0  0
  7  8  2  0  0  0  0
  8  2  2  0  0  0  0
  8 14  1  0  0  0  0
  9 18  1  1  0  0  0
  9 14  1  0  0  0  0
  9 13  1  0  0  0  0
 10  8  1  1  0  0  0
 10 28  1  0  0  0  0
 15 23  1  0  0  0  0
 15 11  1  0  0  0  0
 16 28  1  0  0  0  0
 16  1  2  0  0  0  0
 17 25  1  0  0  0  0
 19 15  2  0  0  0  0
 20 16  1  0  0  0  0
 21  1  1  0  0  0  0
 22 21  2  0  0  0  0
 24 12  1  0  0  0  0
 25 12  1  0  0  0  0
 25 19  1  0  0  0  0
 26 10  1  0  0  0  0
 26 24  1  0  0  0  0
 26 13  1  0  0  0  0
 27  5  1  0  0  0  0
 28 12  1  0  0  0  0
M  END
>  <MODEL>
7

>  <REMARK>
 VINA RESULT:      -4.4      2.823      5.820
  Name = 
  0 active torsions:
  status: ('A' for Active; 'I' for Inactive)
                            x       y       z     vdW  Elec       q    Type
                         _______ _______ _______ _____ _____    ______ ____

>  <TORSDO>
F 0

$$$$
=
 OpenBabel11122411503D

 28 32  0  0  1  0  0  0  0  0999 V2000
  182.0200  178.5760  137.9650 C   0  0  0  0  0  0  0  0  0  0  0  0
  186.1720  179.0030  138.4620 O   0  0  0  0  0  0  0  0  0  0  0  0
  181.9020  173.5330  137.2240 C   0  0  0  0  0  2  0  0  0  0  0  0
  182.9370  177.8830  140.5200 C   0  0  0  0  0  3  0  0  0  0  0  0
  183.8260  174.2890  135.9720 N   0  0  0  0  0  0  0  0  0  0  0  0
  181.4700  178.9100  136.6150 C   0  0  0  0  0  2  0  0  0  0  0  0
  187.5560  177.0000  138.6890 O   0  0  0  0  0  0  0  0  0  0  0  0
  186.7090  177.8000  137.7390 S   0  0  0  0  0  0  0  0  0  0  0  0
  187.9760  177.1860  135.5940 C   0  0  2  0  0  3  0  0  0  0  0  0
  185.3560  176.7610  137.1650 C   0  0  2  0  0  3  0  0  0  0  0  0
  178.9690  176.8900  134.6970 N   0  0  0  0  0  1  0  0  0  0  0  0
  183.3040  176.6150  135.8590 C   0  0  1  0  0  3  0  0  0  0  0  0
  186.5120  176.8210  134.5940 S   0  0  0  0  0  0  0  0  0  0  0  0
  187.6940  178.3400  136.4250 N   0  0  0  0  0  2  0  0  0  0  0  0
  180.1110  177.0030  135.5380 C   0  0  0  0  0  0  0  0  0  0  0  0
  183.2440  177.8840  138.1020 C   0  0  0  0  0  0  0  0  0  0  0  0
  182.5400  174.4720  136.5350 C   0  0  0  0  0  0  0  0  0  0  0  0
  189.1370  177.5030  134.6760 C   0  0  0  0  0  1  0  0  0  0  0  0
  180.9400  176.0000  135.5950 N   0  0  0  0  0  0  0  0  0  0  0  0
  183.6800  177.5310  139.3920 C   0  0  0  0  0  3  0  0  0  0  0  0
  181.2840  178.9290  139.1030 C   0  0  0  0  0  3  0  0  0  0  0  0
  181.7410  178.5870  140.3760 C   0  0  0  0  0  3  0  0  0  0  0  0
  180.2350  178.1750  136.3600 N   0  0  0  0  0  2  0  0  0  0  0  0
  184.2940  175.5310  135.3900 C   0  0  1  0  0  3  0  0  0  0  0  0
  182.0950  175.8830  136.4740 C   0  0  2  0  0  3  0  0  0  0  0  0
  185.6610  175.9100  135.9330 C   0  0  2  0  0  3  0  0  0  0  0  0
  184.4420  172.9960  135.7130 C   0  0  0  0  0  1  0  0  0  0  0  0
  184.0570  177.5010  136.8710 C   0  0  1  0  0  3  0  0  0  0  0  0
  1 16  2  0  0  0  0
  1 21  1  0  0  0  0
  5 17  1  0  0  0  0
  6  1  1  0  0  0  0
  8  2  2  0  0  0  0
  8  7  2  0  0  0  0
  9 18  1  6  0  0  0
  9 14  1  0  0  0  0
 10  8  1  6  0  0  0
 11 15  1  0  0  0  0
 12 25  1  0  0  0  0
 12 28  1  0  0  0  0
 13  9  1  0  0  0  0
 13 26  1  0  0  0  0
 14  8  1  0  0  0  0
 15 19  2  0  0  0  0
 15 23  1  0  0  0  0
 16 20  1  0  0  0  0
 17  3  2  0  0  0  0
 19 25  1  0  0  0  0
 20  4  2  0  0  0  0
 21 22  2  0  0  0  0
 22  4  1  0  0  0  0
 23  6  1  0  0  0  0
 24 12  1  0  0  0  0
 24 26  1  0  0  0  0
 24  5  1  0  0  0  0
 25 17  1  0  0  0  0
 26 10  1  0  0  0  0
 27  5  1  0  0  0  0
 28 10  1  0  0  0  0
 28 16  1  0  0  0  0
M  END
>  <MODEL>
8

>  <REMARK>
 VINA RESULT:      -4.4      3.838      6.882
  Name = 
  0 active torsions:
  status: ('A' for Active; 'I' for Inactive)
                            x       y       z     vdW  Elec       q    Type
                         _______ _______ _______ _____ _____    ______ ____

>  <TORSDO>
F 0

$$$$
=
 OpenBabel11122411503D

 28 32  0  0  1  0  0  0  0  0999 V2000
  180.4220  180.2950  140.5680 C   0  0  0  0  0  0  0  0  0  0  0  0
  183.9830  179.7420  142.7320 O   0  0  0  0  0  0  0  0  0  0  0  0
  180.2110  175.7080  138.3520 C   0  0  0  0  0  2  0  0  0  0  0  0
  180.0970  178.8390  142.9390 C   0  0  0  0  0  3  0  0  0  0  0  0
  182.5410  176.3370  138.2320 N   0  0  0  0  0  0  0  0  0  0  0  0
  180.5310  181.0470  139.2800 C   0  0  0  0  0  2  0  0  0  0  0  0
  184.9640  177.5070  142.8580 O   0  0  0  0  0  0  0  0  0  0  0  0
  184.6750  178.6650  141.9450 S   0  0  0  0  0  0  0  0  0  0  0  0
  186.6800  178.3410  140.3780 C   0  0  2  0  0  3  0  0  0  0  0  0
  183.6150  178.0890  140.6090 C   0  0  2  0  0  3  0  0  0  0  0  0
  178.9310  180.0950  136.0330 N   0  0  0  0  0  1  0  0  0  0  0  0
  182.3140  178.6780  138.6350 C   0  0  1  0  0  3  0  0  0  0  0  0
  185.7590  178.5300  138.8310 S   0  0  0  0  0  0  0  0  0  0  0  0
  186.1680  179.2940  141.3430 N   0  0  0  0  0  2  0  0  0  0  0  0
  179.6090  179.7700  137.2400 C   0  0  0  0  0  0  0  0  0  0  0  0
  181.4070  179.3580  140.9500 C   0  0  0  0  0  0  0  0  0  0  0  0
  181.1580  176.6360  138.2820 C   0  0  0  0  0  0  0  0  0  0  0  0
  188.1450  178.6270  140.1210 C   0  0  0  0  0  1  0  0  0  0  0  0
  180.2460  178.6360  137.3070 N   0  0  0  0  0  0  0  0  0  0  0  0
  181.2190  178.6250  142.1360 C   0  0  0  0  0  3  0  0  0  0  0  0
  179.3020  180.5060  141.3820 C   0  0  0  0  0  3  0  0  0  0  0  0
  179.1410  179.7830  142.5660 C   0  0  0  0  0  3  0  0  0  0  0  0
  179.4670  180.6600  138.3590 N   0  0  0  0  0  2  0  0  0  0  0  0
  183.3140  177.5620  138.2800 C   0  0  1  0  0  3  0  0  0  0  0  0
  180.9010  178.0800  138.4830 C   0  0  2  0  0  3  0  0  0  0  0  0
  184.3450  177.5150  139.3960 C   0  0  2  0  0  3  0  0  0  0  0  0
  183.0980  175.0480  137.8520 C   0  0  0  0  0  1  0  0  0  0  0  0
  182.6340  179.1250  140.0750 C   0  0  1  0  0  3  0  0  0  0  0  0
  1 16  2  0  0  0  0
  1 21  1  0  0  0  0
  5 24  1  0  0  0  0
  5 17  1  0  0  0  0
  6  1  1  0  0  0  0
  8  2  2  0  0  0  0
  8  7  2  0  0  0  0
  9 18  1  6  0  0  0
  9 14  1  0  0  0  0
 10  8  1  1  0  0  0
 11 15  1  0  0  0  0
 12 28  1  0  0  0  0
 13 26  1  0  0  0  0
 13  9  1  0  0  0  0
 14  8  1  0  0  0  0
 15 19  2  0  0  0  0
 15 23  1  0  0  0  0
 16 20  1  0  0  0  0
 17  3  2  0  0  0  0
 17 25  1  0  0  0  0
 19 25  1  0  0  0  0
 20  4  2  0  0  0  0
 21 22  2  0  0  0  0
 22  4  1  0  0  0  0
 23  6  1  0  0  0  0
 24 12  1  0  0  0  0
 24 26  1  0  0  0  0
 25 12  1  0  0  0  0
 26 10  1  0  0  0  0
 27  5  1  0  0  0  0
 28 10  1  0  0  0  0
 28 16  1  0  0  0  0
M  END
>  <MODEL>
9

>  <REMARK>
 VINA RESULT:      -4.4      3.453      6.606
  Name = 
  0 active torsions:
  status: ('A' for Active; 'I' for Inactive)
                            x       y       z     vdW  Elec       q    Type
                         _______ _______ _______ _____ _____    ______ ____

>  <TORSDO>
F 0

$$$$
