=
 OpenBabel11122412003D

 28 32  0  0  1  0  0  0  0  0999 V2000
  187.9590  176.3940  136.6310 C   0  0  0  0  0  0  0  0  0  0  0  0
  188.9950  175.9520  139.7500 F   0  0  0  0  0  0  0  0  0  0  0  0
  184.2090  180.1280  139.4820 O   0  0  0  0  0  1  0  0  0  0  0  0
  189.8250  177.7760  135.0590 C   0  0  0  0  0  3  0  0  0  0  0  0
  185.7680  178.9780  140.8650 C   0  0  2  0  0  3  0  0  0  0  0  0
  187.0220  175.6480  137.4110 N   0  0  0  0  0  2  0  0  0  0  0  0
  190.8630  176.8270  138.8190 O   0  0  0  0  0  1  0  0  0  0  0  0
  189.8760  177.0190  139.7870 C   0  0  1  0  0  0  0  0  0  0  0  0
  189.8640  177.6740  142.2090 C   0  0  0  0  0  0  0  0  0  0  0  0
  189.1440  178.3560  139.5250 C   0  0  2  0  0  3  0  0  0  0  0  0
  183.2790  176.0000  137.5440 C   0  0  0  0  0  1  0  0  0  0  0  0
  186.8100  177.8300  139.0270 C   0  0  1  0  0  3  0  0  0  0  0  0
  188.8470  178.4600  142.0280 N   0  0  0  0  0  0  0  0  0  0  0  0
  190.5070  177.0530  141.0970 N   0  0  0  0  0  2  0  0  0  0  0  0
  184.7180  176.3720  137.8330 C   0  0  2  0  0  3  0  0  0  0  0  0
  188.5220  177.6080  137.1060 C   0  0  0  0  0  0  0  0  0  0  0  0
  184.8490  178.9020  139.6630 C   0  0  2  0  0  3  0  0  0  0  0  0
  190.3810  177.4810  143.5200 N   0  0  0  0  0  1  0  0  0  0  0  0
  184.9280  177.8560  137.5000 C   0  0  0  0  0  2  0  0  0  0  0  0
  189.4490  178.2840  136.3030 C   0  0  0  0  0  3  0  0  0  0  0  0
  188.3350  175.9000  135.3750 C   0  0  0  0  0  3  0  0  0  0  0  0
  189.2660  176.5850  134.5940 C   0  0  0  0  0  3  0  0  0  0  0  0
  185.6380  175.4890  136.9890 C   0  0  0  0  0  2  0  0  0  0  0  0
  186.9270  178.0730  140.5190 C   0  0  1  0  0  3  0  0  0  0  0  0
  185.6900  178.6090  138.5090 N   0  0  2  0  0  0  0  0  0  0  0  0
  188.2670  178.7670  140.7180 C   0  0  2  0  0  3  0  0  0  0  0  0
  185.0540  178.4550  142.0970 C   0  0  0  0  0  1  0  0  0  0  0  0
  188.1140  178.2870  138.3970 C   0  0  2  0  0  3  0  0  0  0  0  0
  1 16  1  0  0  0  0
  1  6  1  0  0  0  0
  2  8  1  0  0  0  0
  3 17  1  0  0  0  0
  4 20  1  0  0  0  0
  5 27  1  1  0  0  0
  8  7  1  6  0  0  0
  8 14  1  0  0  0  0
  9 18  1  0  0  0  0
 10  8  1  0  0  0  0
 10 26  1  0  0  0  0
 11 15  1  0  0  0  0
 12 24  1  0  0  0  0
 13  9  2  0  0  0  0
 14  9  1  0  0  0  0
 16 28  1  0  0  0  0
 17  5  1  0  0  0  0
 19 15  1  0  0  0  0
 19 25  1  0  0  0  0
 20 16  2  0  0  0  0
 21  1  2  0  0  0  0
 22  4  2  0  0  0  0
 22 21  1  0  0  0  0
 23  6  1  0  0  0  0
 23 15  1  0  0  0  0
 24 26  1  0  0  0  0
 24  5  1  0  0  0  0
 25 12  1  0  0  0  0
 25 17  1  0  0  0  0
 26 13  1  0  0  0  0
 28 12  1  0  0  0  0
 28 10  1  0  0  0  0
M  END
>  <MODEL>
1

>  <REMARK>
 VINA RESULT:      -6.2      0.000      0.000
  Name = 
  0 active torsions:
  status: ('A' for Active; 'I' for Inactive)
                            x       y       z     vdW  Elec       q    Type
                         _______ _______ _______ _____ _____    ______ ____

>  <TORSDO>
F 0

$$$$
=
 OpenBabel11122412003D

 28 32  0  0  1  0  0  0  0  0999 V2000
  191.4180  174.7250  137.4090 C   0  0  0  0  0  0  0  0  0  0  0  0
  189.6360  175.6960  140.0310 F   0  0  0  0  0  0  0  0  0  0  0  0
  187.1360  177.8790  134.6090 O   0  0  0  0  0  1  0  0  0  0  0  0
  193.9170  175.9900  137.2710 C   0  0  0  0  0  3  0  0  0  0  0  0
  186.9670  177.7930  136.9830 C   0  0  2  0  0  3  0  0  0  0  0  0
  190.1670  174.0390  137.4960 N   0  0  0  0  0  2  0  0  0  0  0  0
  191.6020  176.7270  140.4680 O   0  0  0  0  0  1  0  0  0  0  0  0
  190.2470  176.9270  140.2030 C   0  0  1  0  0  0  0  0  0  0  0  0
  188.4230  178.3240  141.2110 C   0  0  0  0  0  0  0  0  0  0  0  0
  190.0880  177.8080  138.9420 C   0  0  2  0  0  3  0  0  0  0  0  0
  187.7240  173.2640  134.7430 C   0  0  0  0  0  1  0  0  0  0  0  0
  188.9550  176.4650  137.2440 C   0  0  1  0  0  3  0  0  0  0  0  0
  187.9800  178.6550  140.0370 N   0  0  0  0  0  0  0  0  0  0  0  0
  189.6400  177.5900  141.3460 N   0  0  0  0  0  2  0  0  0  0  0  0
  188.4400  174.1290  135.7580 C   0  0  2  0  0  3  0  0  0  0  0  0
  191.5020  176.1370  137.5240 C   0  0  0  0  0  0  0  0  0  0  0  0
  187.3070  177.0410  135.7110 C   0  0  2  0  0  3  0  0  0  0  0  0
  187.7260  178.7500  142.3750 N   0  0  0  0  0  1  0  0  0  0  0  0
  188.9430  175.4030  135.0650 C   0  0  0  0  0  2  0  0  0  0  0  0
  192.7590  176.7500  137.4490 C   0  0  0  0  0  3  0  0  0  0  0  0
  192.5860  173.9750  137.2180 C   0  0  0  0  0  3  0  0  0  0  0  0
  193.8300  174.6030  137.1530 C   0  0  0  0  0  3  0  0  0  0  0  0
  189.6040  173.3360  136.3520 C   0  0  0  0  0  2  0  0  0  0  0  0
  187.8980  177.2200  138.0260 C   0  0  1  0  0  3  0  0  0  0  0  0
  188.7050  176.6460  135.8170 N   0  0  2  0  0  0  0  0  0  0  0  0
  188.6460  178.3120  138.7780 C   0  0  2  0  0  3  0  0  0  0  0  0
  185.5270  177.5260  137.3730 C   0  0  0  0  0  1  0  0  0  0  0  0
  190.3000  177.0550  137.6290 C   0  0  2  0  0  3  0  0  0  0  0  0
  1  6  1  0  0  0  0
  1 16  1  0  0  0  0
  3 17  1  0  0  0  0
  4 20  1  0  0  0  0
  5 27  1  1  0  0  0
  5 24  1  0  0  0  0
  8  2  1  6  0  0  0
  8  7  1  0  0  0  0
  8 14  1  0  0  0  0
  9 14  1  0  0  0  0
  9 18  1  0  0  0  0
 10  8  1  0  0  0  0
 11 15  1  0  0  0  0
 12 28  1  0  0  0  0
 12 24  1  0  0  0  0
 13  9  2  0  0  0  0
 15 23  1  0  0  0  0
 16 28  1  0  0  0  0
 17 25  1  0  0  0  0
 17  5  1  0  0  0  0
 19 15  1  0  0  0  0
 19 25  1  0  0  0  0
 20 16  2  0  0  0  0
 21  1  2  0  0  0  0
 22 21  1  0  0  0  0
 22  4  2  0  0  0  0
 23  6  1  0  0  0  0
 24 26  1  0  0  0  0
 25 12  1  0  0  0  0
 26 10  1  0  0  0  0
 26 13  1  0  0  0  0
 28 10  1  0  0  0  0
M  END
>  <MODEL>
2

>  <REMARK>
 VINA RESULT:      -6.0      2.727      3.871
  Name = 
  0 active torsions:
  status: ('A' for Active; 'I' for Inactive)
                            x       y       z     vdW  Elec       q    Type
                         _______ _______ _______ _____ _____    ______ ____

>  <TORSDO>
F 0

$$$$
=
 OpenBabel11122412003D

 28 32  0  0  1  0  0  0  0  0999 V2000
  181.0820  179.3590  140.2520 C   0  0  0  0  0  0  0  0  0  0  0  0
  180.7260  176.5660  138.5000 F   0  0  0  0  0  0  0  0  0  0  0  0
  186.5550  179.0030  137.7940 O   0  0  0  0  0  1  0  0  0  0  0  0
  179.5940  181.4910  139.2010 C   0  0  0  0  0  3  0  0  0  0  0  0
  185.0460  177.2580  137.2070 C   0  0  2  0  0  3  0  0  0  0  0  0
  181.8070  178.2670  140.8230 N   0  0  0  0  0  2  0  0  0  0  0  0
  179.1900  177.8830  137.4870 O   0  0  0  0  0  1  0  0  0  0  0  0
  180.3710  177.1630  137.3020 C   0  0  1  0  0  0  0  0  0  0  0  0
  181.2130  175.5340  135.5900 C   0  0  0  0  0  0  0  0  0  0  0  0
  181.4850  178.1120  136.8010 C   0  0  2  0  0  3  0  0  0  0  0  0
  185.3020  178.2460  142.2120 C   0  0  0  0  0  1  0  0  0  0  0  0
  183.2350  178.1580  138.5060 C   0  0  1  0  0  3  0  0  0  0  0  0
  182.3820  176.0970  135.5780 N   0  0  0  0  0  0  0  0  0  0  0  0
  180.1340  176.1200  136.3170 N   0  0  0  0  0  2  0  0  0  0  0  0
  184.2380  178.2600  141.1350 C   0  0  2  0  0  3  0  0  0  0  0  0
  181.1710  179.6690  138.8690 C   0  0  0  0  0  0  0  0  0  0  0  0
  185.5480  178.1800  138.2990 C   0  0  2  0  0  3  0  0  0  0  0  0
  180.9880  174.3580  134.8220 N   0  0  0  0  0  1  0  0  0  0  0  0
  184.5560  179.3780  140.1320 C   0  0  0  0  0  2  0  0  0  0  0  0
  180.4220  180.7400  138.3650 C   0  0  0  0  0  3  0  0  0  0  0  0
  180.2560  180.1280  141.0830 C   0  0  0  0  0  3  0  0  0  0  0  0
  179.5130  181.1870  140.5600 C   0  0  0  0  0  3  0  0  0  0  0  0
  182.8740  178.4850  141.7880 C   0  0  0  0  0  2  0  0  0  0  0  0
  183.5790  177.0670  137.5110 C   0  0  1  0  0  3  0  0  0  0  0  0
  184.4130  178.9920  138.7180 N   0  0  2  0  0  0  0  0  0  0  0  0
  182.7080  177.3340  136.2920 C   0  0  2  0  0  3  0  0  0  0  0  0
  185.7670  175.9260  137.2820 C   0  0  0  0  0  1  0  0  0  0  0  0
  182.1060  178.9740  137.9000 C   0  0  2  0  0  3  0  0  0  0  0  0
  1  6  1  0  0  0  0
  1 21  1  0  0  0  0
  3 17  1  0  0  0  0
  4 22  1  0  0  0  0
  5 27  1  1  0  0  0
  5 24  1  0  0  0  0
  5 17  1  0  0  0  0
  6 23  1  0  0  0  0
  8  7  1  1  0  0  0
  8  2  1  0  0  0  0
  9 14  1  0  0  0  0
 10  8  1  0  0  0  0
 10 28  1  0  0  0  0
 12 25  1  0  0  0  0
 13  9  2  0  0  0  0
 13 26  1  0  0  0  0
 14  8  1  0  0  0  0
 15 23  1  0  0  0  0
 15 11  1  0  0  0  0
 16  1  2  0  0  0  0
 17 25  1  0  0  0  0
 18  9  1  0  0  0  0
 19 15  1  0  0  0  0
 20 16  1  0  0  0  0
 20  4  2  0  0  0  0
 22 21  2  0  0  0  0
 24 12  1  0  0  0  0
 25 19  1  0  0  0  0
 26 10  1  0  0  0  0
 26 24  1  0  0  0  0
 28 12  1  0  0  0  0
 28 16  1  0  0  0  0
M  END
>  <MODEL>
3

>  <REMARK>
 VINA RESULT:      -5.6      4.008      8.107
  Name = 
  0 active torsions:
  status: ('A' for Active; 'I' for Inactive)
                            x       y       z     vdW  Elec       q    Type
                         _______ _______ _______ _____ _____    ______ ____

>  <TORSDO>
F 0

$$$$
=
 OpenBabel11122412003D

 28 32  0  0  1  0  0  0  0  0999 V2000
  181.2630  176.1260  136.9370 C   0  0  0  0  0  0  0  0  0  0  0  0
  184.4140  176.1730  137.9710 F   0  0  0  0  0  0  0  0  0  0  0  0
  180.6560  179.4920  141.8790 O   0  0  0  0  0  1  0  0  0  0  0  0
  180.8730  177.6170  134.5940 C   0  0  0  0  0  3  0  0  0  0  0  0
  182.8670  178.7500  141.4030 C   0  0  2  0  0  3  0  0  0  0  0  0
  181.4600  175.3250  138.1040 N   0  0  0  0  0  2  0  0  0  0  0  0
  184.6200  177.2320  135.9820 O   0  0  0  0  0  1  0  0  0  0  0  0
  184.7720  177.3640  137.3620 C   0  0  1  0  0  0  0  0  0  0  0  0
  186.5630  178.2520  138.8790 C   0  0  0  0  0  0  0  0  0  0  0  0
  183.8990  178.5350  137.8720 C   0  0  2  0  0  3  0  0  0  0  0  0
  179.3060  175.0930  141.1780 C   0  0  0  0  0  1  0  0  0  0  0  0
  182.2280  177.6000  139.3900 C   0  0  1  0  0  3  0  0  0  0  0  0
  185.6840  178.8450  139.6280 N   0  0  0  0  0  0  0  0  0  0  0  0
  186.1720  177.6300  137.6550 N   0  0  0  0  0  2  0  0  0  0  0  0
  180.3130  175.7150  140.2350 C   0  0  2  0  0  3  0  0  0  0  0  0
  181.7550  177.4560  136.8550 C   0  0  0  0  0  0  0  0  0  0  0  0
  181.3910  178.4070  141.4010 C   0  0  2  0  0  3  0  0  0  0  0  0
  187.9360  178.2770  139.2480 N   0  0  0  0  0  1  0  0  0  0  0  0
  179.9120  177.1720  139.9630 C   0  0  0  0  0  2  0  0  0  0  0  0
  181.5460  178.1840  135.6770 C   0  0  0  0  0  3  0  0  0  0  0  0
  180.5790  175.5720  135.8470 C   0  0  0  0  0  3  0  0  0  0  0  0
  180.3870  176.3120  134.6800 C   0  0  0  0  0  3  0  0  0  0  0  0
  180.3430  174.9080  138.9380 C   0  0  0  0  0  2  0  0  0  0  0  0
  183.4330  178.0090  140.2140 C   0  0  1  0  0  3  0  0  0  0  0  0
  181.0240  178.1350  140.0170 N   0  0  2  0  0  0  0  0  0  0  0  0
  184.2550  178.9220  139.3160 C   0  0  2  0  0  3  0  0  0  0  0  0
  183.5130  178.2490  142.6800 C   0  0  0  0  0  1  0  0  0  0  0  0
  182.4160  178.1900  138.0040 C   0  0  2  0  0  3  0  0  0  0  0  0
  1  6  1  0  0  0  0
  4 22  2  0  0  0  0
  4 20  1  0  0  0  0
  5 27  1  1  0  0  0
  6 23  1  0  0  0  0
  8  7  1  6  0  0  0
  8 14  1  0  0  0  0
  8 10  1  0  0  0  0
  8  2  1  0  0  0  0
  9 18  1  0  0  0  0
  9 13  2  0  0  0  0
 10 28  1  0  0  0  0
 10 26  1  0  0  0  0
 12 25  1  0  0  0  0
 12 24  1  0  0  0  0
 14  9  1  0  0  0  0
 15 11  1  0  0  0  0
 16  1  1  0  0  0  0
 16 28  1  0  0  0  0
 17  5  1  0  0  0  0
 17  3  1  0  0  0  0
 19 25  1  0  0  0  0
 19 15  1  0  0  0  0
 20 16  2  0  0  0  0
 21  1  2  0  0  0  0
 22 21  1  0  0  0  0
 23 15  1  0  0  0  0
 24  5  1  0  0  0  0
 25 17  1  0  0  0  0
 26 13  1  0  0  0  0
 26 24  1  0  0  0  0
 28 12  1  0  0  0  0
M  END
>  <MODEL>
4

>  <REMARK>
 VINA RESULT:      -5.5      3.379      5.689
  Name = 
  0 active torsions:
  status: ('A' for Active; 'I' for Inactive)
                            x       y       z     vdW  Elec       q    Type
                         _______ _______ _______ _____ _____    ______ ____

>  <TORSDO>
F 0

$$$$
=
 OpenBabel11122412003D

 28 32  0  0  1  0  0  0  0  0999 V2000
  189.8870  174.2000  135.8430 C   0  0  0  0  0  0  0  0  0  0  0  0
  189.2490  175.5070  138.8230 F   0  0  0  0  0  0  0  0  0  0  0  0
  184.7710  177.0990  134.6010 O   0  0  0  0  0  1  0  0  0  0  0  0
  192.1000  175.3880  134.5940 C   0  0  0  0  0  3  0  0  0  0  0  0
  185.5470  177.2930  136.8430 C   0  0  2  0  0  3  0  0  0  0  0  0
  188.7880  173.5550  136.4910 N   0  0  0  0  0  2  0  0  0  0  0  0
  191.2020  176.5390  138.3340 O   0  0  0  0  0  1  0  0  0  0  0  0
  189.8470  176.7360  138.5990 C   0  0  1  0  0  0  0  0  0  0  0  0
  188.5260  178.2790  140.0730 C   0  0  0  0  0  0  0  0  0  0  0  0
  189.1840  177.4680  137.4080 C   0  0  2  0  0  3  0  0  0  0  0  0
  185.4840  172.5190  135.0230 C   0  0  0  0  0  1  0  0  0  0  0  0
  187.5120  175.9620  136.4560 C   0  0  1  0  0  3  0  0  0  0  0  0
  187.6510  178.4810  139.1360 N   0  0  0  0  0  0  0  0  0  0  0  0
  189.7170  177.5400  139.8040 N   0  0  0  0  0  2  0  0  0  0  0  0
  186.5180  173.4810  135.5700 C   0  0  2  0  0  3  0  0  0  0  0  0
  189.9730  175.6140  135.7530 C   0  0  0  0  0  0  0  0  0  0  0  0
  185.3820  176.3910  135.6360 C   0  0  2  0  0  3  0  0  0  0  0  0
  188.3290  178.8520  141.3590 N   0  0  0  0  0  1  0  0  0  0  0  0
  186.6760  174.6550  134.5940 C   0  0  0  0  0  2  0  0  0  0  0  0
  191.0850  176.1870  135.1220 C   0  0  0  0  0  3  0  0  0  0  0  0
  190.9070  173.4080  135.2980 C   0  0  0  0  0  3  0  0  0  0  0  0
  192.0090  173.9980  134.6800 C   0  0  0  0  0  3  0  0  0  0  0  0
  187.8410  172.7370  135.7480 C   0  0  0  0  0  2  0  0  0  0  0  0
  186.8270  176.8250  137.4970 C   0  0  1  0  0  3  0  0  0  0  0  0
  186.7200  175.9810  135.2310 N   0  0  2  0  0  0  0  0  0  0  0  0
  187.7800  177.9800  137.7660 C   0  0  2  0  0  3  0  0  0  0  0  0
  184.3810  177.1040  137.7940 C   0  0  0  0  0  1  0  0  0  0  0  0
  188.8850  176.5630  136.2130 C   0  0  2  0  0  3  0  0  0  0  0  0
  1  6  1  0  0  0  0
  3 17  1  0  0  0  0
  4 22  2  0  0  0  0
  4 20  1  0  0  0  0
  5 24  1  0  0  0  0
  5 27  1  1  0  0  0
  8  7  1  6  0  0  0
  8  2  1  0  0  0  0
  8 14  1  0  0  0  0
  9 18  1  0  0  0  0
 10 26  1  0  0  0  0
 10  8  1  0  0  0  0
 11 15  1  0  0  0  0
 12 24  1  0  0  0  0
 13  9  2  0  0  0  0
 14  9  1  0  0  0  0
 15 23  1  0  0  0  0
 16  1  1  0  0  0  0
 16 28  1  0  0  0  0
 17  5  1  0  0  0  0
 19 25  1  0  0  0  0
 19 15  1  0  0  0  0
 20 16  2  0  0  0  0
 21  1  2  0  0  0  0
 22 21  1  0  0  0  0
 23  6  1  0  0  0  0
 24 26  1  0  0  0  0
 25 17  1  0  0  0  0
 25 12  1  0  0  0  0
 26 13  1  0  0  0  0
 28 12  1  0  0  0  0
 28 10  1  0  0  0  0
M  END
>  <MODEL>
5

>  <REMARK>
 VINA RESULT:      -5.4      2.320      3.484
  Name = 
  0 active torsions:
  status: ('A' for Active; 'I' for Inactive)
                            x       y       z     vdW  Elec       q    Type
                         _______ _______ _______ _____ _____    ______ ____

>  <TORSDO>
F 0

$$$$
=
 OpenBabel11122412003D

 28 32  0  0  1  0  0  0  0  0999 V2000
  183.6100  177.2520  139.3200 C   0  0  0  0  0  0  0  0  0  0  0  0
  184.3060  177.0030  142.5520 F   0  0  0  0  0  0  0  0  0  0  0  0
  178.9330  180.2630  141.5960 O   0  0  0  0  0  1  0  0  0  0  0  0
  185.3880  178.9410  137.9590 C   0  0  0  0  0  3  0  0  0  0  0  0
  180.4830  179.4090  143.1880 C   0  0  2  0  0  3  0  0  0  0  0  0
  182.7280  176.3520  139.9940 N   0  0  0  0  0  2  0  0  0  0  0  0
  186.0930  178.1950  141.8400 O   0  0  0  0  0  1  0  0  0  0  0  0
  184.9740  178.2100  142.6740 C   0  0  1  0  0  0  0  0  0  0  0  0
  184.5410  178.8540  145.0600 C   0  0  0  0  0  0  0  0  0  0  0  0
  184.0570  179.3950  142.2920 C   0  0  2  0  0  3  0  0  0  0  0  0
  178.9960  176.0340  139.6530 C   0  0  0  0  0  1  0  0  0  0  0  0
  181.9340  178.4630  141.5200 C   0  0  1  0  0  3  0  0  0  0  0  0
  183.4330  179.4470  144.7360 N   0  0  0  0  0  0  0  0  0  0  0  0
  185.4190  178.3560  144.0510 N   0  0  0  0  0  2  0  0  0  0  0  0
  180.2990  176.6560  140.1100 C   0  0  2  0  0  3  0  0  0  0  0  0
  183.8870  178.5470  139.8320 C   0  0  0  0  0  0  0  0  0  0  0  0
  179.7510  179.1700  141.8830 C   0  0  2  0  0  3  0  0  0  0  0  0
  184.9150  178.7560  146.4280 N   0  0  0  0  0  1  0  0  0  0  0  0
  180.2840  178.1530  139.7710 C   0  0  0  0  0  2  0  0  0  0  0  0
  184.7740  179.3760  139.1350 C   0  0  0  0  0  3  0  0  0  0  0  0
  184.2230  176.8320  138.1320 C   0  0  0  0  0  3  0  0  0  0  0  0
  185.1100  177.6700  137.4560 C   0  0  0  0  0  3  0  0  0  0  0  0
  181.4580  175.9500  139.4080 C   0  0  0  0  0  2  0  0  0  0  0  0
  181.8180  178.7240  143.0090 C   0  0  1  0  0  3  0  0  0  0  0  0
  180.7680  179.0310  140.8500 N   0  0  2  0  0  0  0  0  0  0  0  0
  182.9780  179.6450  143.3570 C   0  0  2  0  0  3  0  0  0  0  0  0
  179.7220  178.7690  144.3330 C   0  0  0  0  0  1  0  0  0  0  0  0
  183.2060  179.1440  141.0470 C   0  0  2  0  0  3  0  0  0  0  0  0
  1 16  1  0  0  0  0
  1  6  1  0  0  0  0
  2  8  1  0  0  0  0
  3 17  1  0  0  0  0
  4 20  1  0  0  0  0
  5 27  1  1  0  0  0
  8  7  1  6  0  0  0
  8 14  1  0  0  0  0
  9 18  1  0  0  0  0
 10  8  1  0  0  0  0
 10 26  1  0  0  0  0
 11 15  1  0  0  0  0
 12 24  1  0  0  0  0
 13  9  2  0  0  0  0
 14  9  1  0  0  0  0
 16 28  1  0  0  0  0
 17  5  1  0  0  0  0
 19 15  1  0  0  0  0
 19 25  1  0  0  0  0
 20 16  2  0  0  0  0
 21  1  2  0  0  0  0
 22  4  2  0  0  0  0
 22 21  1  0  0  0  0
 23  6  1  0  0  0  0
 23 15  1  0  0  0  0
 24  5  1  0  0  0  0
 24 26  1  0  0  0  0
 25 12  1  0  0  0  0
 25 17  1  0  0  0  0
 26 13  1  0  0  0  0
 28 12  1  0  0  0  0
 28 10  1  0  0  0  0
M  END
>  <MODEL>
6

>  <REMARK>
 VINA RESULT:      -5.3      3.911      5.569
  Name = 
  0 active torsions:
  status: ('A' for Active; 'I' for Inactive)
                            x       y       z     vdW  Elec       q    Type
                         _______ _______ _______ _____ _____    ______ ____

>  <TORSDO>
F 0

$$$$
=
 OpenBabel11122412003D

 28 32  0  0  1  0  0  0  0  0999 V2000
  186.0070  178.0520  143.7740 C   0  0  0  0  0  0  0  0  0  0  0  0
  184.0080  176.8630  141.4110 F   0  0  0  0  0  0  0  0  0  0  0  0
  189.2380  179.4710  138.9080 O   0  0  0  0  0  1  0  0  0  0  0  0
  184.9550  180.3240  145.0380 C   0  0  0  0  0  3  0  0  0  0  0  0
  187.1690  178.3710  138.4870 C   0  0  2  0  0  3  0  0  0  0  0  0
  186.5310  176.8670  143.1700 N   0  0  0  0  0  2  0  0  0  0  0  0
  182.6780  178.4600  142.3070 O   0  0  0  0  0  1  0  0  0  0  0  0
  183.3360  178.0460  141.1490 C   0  0  1  0  0  0  0  0  0  0  0  0
  182.7080  177.8100  138.7310 C   0  0  0  0  0  0  0  0  0  0  0  0
  184.3150  179.1500  140.6830 C   0  0  2  0  0  3  0  0  0  0  0  0
  190.0580  176.1580  142.0730 C   0  0  0  0  0  1  0  0  0  0  0  0
  186.5760  178.2330  140.8130 C   0  0  1  0  0  3  0  0  0  0  0  0
  183.8410  178.3150  138.3500 N   0  0  0  0  0  0  0  0  0  0  0  0
  182.3470  177.7960  140.1120 N   0  0  0  0  0  2  0  0  0  0  0  0
  188.6770  176.7740  141.9890 C   0  0  2  0  0  3  0  0  0  0  0  0
  185.5240  179.1350  142.9930 C   0  0  0  0  0  0  0  0  0  0  0  0
  188.3890  178.4700  139.3810 C   0  0  2  0  0  3  0  0  0  0  0  0
  181.7890  177.3250  137.7590 N   0  0  0  0  0  1  0  0  0  0  0  0
  188.8160  178.2820  141.7390 C   0  0  0  0  0  2  0  0  0  0  0  0
  185.0060  180.2620  143.6440 C   0  0  0  0  0  3  0  0  0  0  0  0
  185.9630  178.1320  145.1720 C   0  0  0  0  0  3  0  0  0  0  0  0
  185.4360  179.2610  145.8020 C   0  0  0  0  0  3  0  0  0  0  0  0
  187.9350  176.5040  143.2980 C   0  0  0  0  0  2  0  0  0  0  0  0
  186.0450  177.9750  139.4160 C   0  0  1  0  0  3  0  0  0  0  0  0
  187.9080  178.8190  140.7110 N   0  0  2  0  0  0  0  0  0  0  0  0
  184.8360  178.8860  139.2620 C   0  0  2  0  0  3  0  0  0  0  0  0
  187.3790  177.2930  137.4420 C   0  0  0  0  0  1  0  0  0  0  0  0
  185.6170  179.2020  141.4820 C   0  0  2  0  0  3  0  0  0  0  0  0
  1 21  1  0  0  0  0
  3 17  1  0  0  0  0
  4 22  1  0  0  0  0
  5 27  1  6  0  0  0
  5 17  1  0  0  0  0
  5 24  1  0  0  0  0
  6 23  1  0  0  0  0
  6  1  1  0  0  0  0
  8  2  1  1  0  0  0
  8  7  1  0  0  0  0
  9 14  1  0  0  0  0
 10  8  1  0  0  0  0
 10 28  1  0  0  0  0
 12 28  1  0  0  0  0
 13  9  2  0  0  0  0
 13 26  1  0  0  0  0
 14  8  1  0  0  0  0
 15 11  1  0  0  0  0
 15 23  1  0  0  0  0
 16 20  1  0  0  0  0
 16  1  2  0  0  0  0
 17 25  1  0  0  0  0
 18  9  1  0  0  0  0
 19 15  1  0  0  0  0
 20  4  2  0  0  0  0
 21 22  2  0  0  0  0
 24 12  1  0  0  0  0
 25 12  1  0  0  0  0
 25 19  1  0  0  0  0
 26 24  1  0  0  0  0
 26 10  1  0  0  0  0
 28 16  1  0  0  0  0
M  END
>  <MODEL>
7

>  <REMARK>
 VINA RESULT:      -5.3      2.511      6.964
  Name = 
  0 active torsions:
  status: ('A' for Active; 'I' for Inactive)
                            x       y       z     vdW  Elec       q    Type
                         _______ _______ _______ _____ _____    ______ ____

>  <TORSDO>
F 0

$$$$
=
 OpenBabel11122412003D

 28 32  0  0  1  0  0  0  0  0999 V2000
  182.6020  178.9780  138.4010 C   0  0  0  0  0  0  0  0  0  0  0  0
  181.6070  175.8890  139.0820 F   0  0  0  0  0  0  0  0  0  0  0  0
  186.8560  175.8820  135.4950 O   0  0  0  0  0  1  0  0  0  0  0  0
  180.8740  180.3040  136.6340 C   0  0  0  0  0  3  0  0  0  0  0  0
  185.2080  174.5730  136.6090 C   0  0  2  0  0  3  0  0  0  0  0  0
  183.4630  178.3280  139.3380 N   0  0  0  0  0  2  0  0  0  0  0  0
  179.8350  176.6350  137.8910 O   0  0  0  0  0  1  0  0  0  0  0  0
  180.8630  175.6940  137.9310 C   0  0  1  0  0  0  0  0  0  0  0  0
  181.0240  173.2150  137.5720 C   0  0  0  0  0  0  0  0  0  0  0  0
  181.7460  175.8330  136.6680 C   0  0  2  0  0  3  0  0  0  0  0  0
  187.2220  178.3130  139.4470 C   0  0  0  0  0  1  0  0  0  0  0  0
  183.9840  176.4850  137.4020 C   0  0  1  0  0  3  0  0  0  0  0  0
  182.1230  173.3490  136.8950 N   0  0  0  0  0  0  0  0  0  0  0  0
  180.2780  174.3630  137.9780 N   0  0  0  0  0  2  0  0  0  0  0  0
  185.8480  177.9240  138.9450 C   0  0  2  0  0  3  0  0  0  0  0  0
  182.2040  178.3460  137.1930 C   0  0  0  0  0  0  0  0  0  0  0  0
  186.0770  175.8140  136.6510 C   0  0  2  0  0  3  0  0  0  0  0  0
  180.5240  171.9150  137.8560 N   0  0  0  0  0  1  0  0  0  0  0  0
  185.8110  178.0770  137.4180 C   0  0  0  0  0  2  0  0  0  0  0  0
  181.3430  179.0260  136.3230 C   0  0  0  0  0  3  0  0  0  0  0  0
  182.1330  180.2650  138.6950 C   0  0  0  0  0  3  0  0  0  0  0  0
  181.2710  180.9240  137.8180 C   0  0  0  0  0  3  0  0  0  0  0  0
  184.8050  178.8230  139.6080 C   0  0  0  0  0  2  0  0  0  0  0  0
  183.9380  174.9710  137.3240 C   0  0  1  0  0  3  0  0  0  0  0  0
  185.1750  176.9570  136.7040 N   0  0  2  0  0  0  0  0  0  0  0  0
  182.6990  174.6390  136.5060 C   0  0  2  0  0  3  0  0  0  0  0  0
  185.8880  173.4400  137.3530 C   0  0  0  0  0  1  0  0  0  0  0  0
  182.7270  177.0030  136.7230 C   0  0  2  0  0  3  0  0  0  0  0  0
  1 21  1  0  0  0  0
  1  6  1  0  0  0  0
  3 17  1  0  0  0  0
  4 22  1  0  0  0  0
  5 17  1  0  0  0  0
  5 24  1  0  0  0  0
  5 27  1  1  0  0  0
  6 23  1  0  0  0  0
  8  7  1  6  0  0  0
  8 14  1  0  0  0  0
  8  2  1  0  0  0  0
  9 18  1  0  0  0  0
  9 14  1  0  0  0  0
 10 28  1  0  0  0  0
 10  8  1  0  0  0  0
 13  9  2  0  0  0  0
 15 11  1  0  0  0  0
 15 23  1  0  0  0  0
 16  1  2  0  0  0  0
 17 25  1  0  0  0  0
 19 15  1  0  0  0  0
 20  4  2  0  0  0  0
 20 16  1  0  0  0  0
 22 21  2  0  0  0  0
 24 12  1  0  0  0  0
 25 12  1  0  0  0  0
 25 19  1  0  0  0  0
 26 10  1  0  0  0  0
 26 13  1  0  0  0  0
 26 24  1  0  0  0  0
 28 16  1  0  0  0  0
 28 12  1  0  0  0  0
M  END
>  <MODEL>
8

>  <REMARK>
 VINA RESULT:      -5.0      3.744      7.547
  Name = 
  0 active torsions:
  status: ('A' for Active; 'I' for Inactive)
                            x       y       z     vdW  Elec       q    Type
                         _______ _______ _______ _____ _____    ______ ____

>  <TORSDO>
F 0

$$$$
=
 OpenBabel11122412003D

 28 32  0  0  1  0  0  0  0  0999 V2000
  181.7630  177.2700  138.6750 C   0  0  0  0  0  0  0  0  0  0  0  0
  183.2080  174.3640  138.0000 F   0  0  0  0  0  0  0  0  0  0  0  0
  187.2230  179.2050  137.0730 O   0  0  0  0  0  1  0  0  0  0  0  0
  179.8050  177.9670  136.7910 C   0  0  0  0  0  3  0  0  0  0  0  0
  186.9000  176.8480  136.9910 C   0  0  2  0  0  3  0  0  0  0  0  0
  182.7240  176.9020  139.6660 N   0  0  0  0  0  2  0  0  0  0  0  0
  181.5730  174.3800  136.4350 O   0  0  0  0  0  1  0  0  0  0  0  0
  182.9540  174.3620  136.6380 C   0  0  1  0  0  0  0  0  0  0  0  0
  184.8720  173.0370  135.7100 C   0  0  0  0  0  0  0  0  0  0  0  0
  183.5980  175.5880  135.9490 C   0  0  2  0  0  3  0  0  0  0  0  0
  185.3260  179.0570  141.3200 C   0  0  0  0  0  1  0  0  0  0  0  0
  184.6040  176.9690  137.6960 C   0  0  1  0  0  3  0  0  0  0  0  0
  185.6090  174.1010  135.6180 N   0  0  0  0  0  0  0  0  0  0  0  0
  183.4940  173.1370  136.0680 N   0  0  0  0  0  2  0  0  0  0  0  0
  184.7050  178.2410  140.2060 C   0  0  2  0  0  3  0  0  0  0  0  0
  182.0660  177.2180  137.2880 C   0  0  0  0  0  0  0  0  0  0  0  0
  186.6110  178.1380  137.7320 C   0  0  2  0  0  3  0  0  0  0  0  0
  185.4240  171.7660  135.3900 N   0  0  0  0  0  1  0  0  0  0  0  0
  184.7310  179.0630  138.9100 C   0  0  0  0  0  2  0  0  0  0  0  0
  181.0750  177.5740  136.3640 C   0  0  0  0  0  3  0  0  0  0  0  0
  180.4880  177.6790  139.0900 C   0  0  0  0  0  3  0  0  0  0  0  0
  179.5130  178.0220  138.1540 C   0  0  0  0  0  3  0  0  0  0  0  0
  183.2720  177.8810  140.5950 C   0  0  0  0  0  2  0  0  0  0  0  0
  185.6610  176.0060  137.1930 C   0  0  1  0  0  3  0  0  0  0  0  0
  185.1650  178.3160  137.7180 N   0  0  2  0  0  0  0  0  0  0  0  0
  185.1270  175.4600  135.8760 C   0  0  2  0  0  3  0  0  0  0  0  0
  188.1010  176.1560  137.6060 C   0  0  0  0  0  1  0  0  0  0  0  0
  183.4360  176.8930  136.7290 C   0  0  2  0  0  3  0  0  0  0  0  0
  1 21  1  0  0  0  0
  1  6  1  0  0  0  0
  3 17  1  0  0  0  0
  4 22  1  0  0  0  0
  5 24  1  0  0  0  0
  5 27  1  1  0  0  0
  5 17  1  0  0  0  0
  6 23  1  0  0  0  0
  8  7  1  6  0  0  0
  8  2  1  0  0  0  0
  9 14  1  0  0  0  0
 10  8  1  0  0  0  0
 10 28  1  0  0  0  0
 12 25  1  0  0  0  0
 13  9  2  0  0  0  0
 13 26  1  0  0  0  0
 14  8  1  0  0  0  0
 15 23  1  0  0  0  0
 15 11  1  0  0  0  0
 16  1  2  0  0  0  0
 18  9  1  0  0  0  0
 19 15  1  0  0  0  0
 20  4  2  0  0  0  0
 20 16  1  0  0  0  0
 22 21  2  0  0  0  0
 24 12  1  0  0  0  0
 25 17  1  0  0  0  0
 25 19  1  0  0  0  0
 26 10  1  0  0  0  0
 26 24  1  0  0  0  0
 28 16  1  0  0  0  0
 28 12  1  0  0  0  0
M  END
>  <MODEL>
9

>  <REMARK>
 VINA RESULT:      -5.0      3.405      6.912
  Name = 
  0 active torsions:
  status: ('A' for Active; 'I' for Inactive)
                            x       y       z     vdW  Elec       q    Type
                         _______ _______ _______ _____ _____    ______ ____

>  <TORSDO>
F 0

$$$$
