=
 OpenBabel11122410263D

 30 35  0  0  1  0  0  0  0  0999 V2000
  182.9090  178.4380  141.3100 C   0  0  1  0  0  3  0  0  0  0  0  0
  181.7670  178.5940  143.5800 C   0  0  2  0  0  3  0  0  0  0  0  0
  179.3710  179.0550  139.3510 N   0  0  0  0  0  2  0  0  0  0  0  0
  183.0330  179.1200  139.9390 C   0  0  1  0  0  3  0  0  0  0  0  0
  184.2720  178.1900  141.9870 C   0  0  0  0  0  2  0  0  0  0  0  0
  186.5650  178.5570  139.2950 O   0  0  0  0  0  0  0  0  0  0  0  0
  182.9370  176.4630  138.8760 C   0  0  1  0  0  3  0  0  0  0  0  0
  185.4930  178.6860  139.8690 C   0  0  0  0  0  0  0  0  0  0  0  0
  181.4840  176.9000  138.6330 C   0  0  2  0  0  3  0  0  0  0  0  0
  179.8490  178.5240  138.0750 C   0  0  1  0  0  3  0  0  0  0  0  0
  185.4400  178.9530  141.3560 C   0  0  2  0  0  3  0  0  0  0  0  0
  184.2200  178.6910  139.0640 C   0  0  1  0  0  3  0  0  0  0  0  0
  180.4970  179.0100  144.3080 C   0  0  0  0  0  2  0  0  0  0  0  0
  180.9220  175.9710  137.6560 N   0  0  0  0  0  2  0  0  0  0  0  0
  183.0430  175.0690  138.3030 C   0  0  0  0  0  2  0  0  0  0  0  0
  182.8630  178.9420  144.3700 O   0  0  0  0  0  1  0  0  0  0  0  0
  180.5170  179.3840  140.1050 C   0  0  2  0  0  3  0  0  0  0  0  0
  179.2910  178.6150  143.4800 C   0  0  0  0  0  2  0  0  0  0  0  0
  181.9010  179.2320  142.1780 C   0  0  2  0  0  3  0  0  0  0  0  0
  181.6910  179.2750  139.2230 C   0  0  2  0  0  3  0  0  0  0  0  0
  179.5520  179.5090  136.9580 C   0  0  0  0  0  1  0  0  0  0  0  0
  181.3090  178.3020  138.1840 N   0  0  1  0  0  0  0  0  0  0  0  0
  181.6400  174.7230  137.8560 C   0  0  0  0  0  2  0  0  0  0  0  0
  183.9030  177.6220  136.8090 C   0  0  0  0  0  1  0  0  0  0  0  0
  179.2670  179.4450  142.2090 C   0  0  0  0  0  2  0  0  0  0  0  0
  180.5570  179.3300  141.4460 C   0  0  1  0  0  3  0  0  0  0  0  0
  184.0370  177.3710  138.3050 C   0  0  2  0  0  3  0  0  0  0  0  0
  186.7430  178.5750  142.0540 C   0  0  0  0  0  2  0  0  0  0  0  0
  187.5460  176.7750  143.5840 C   0  0  0  0  0  1  0  0  0  0  0  0
  186.4800  177.8290  143.3530 C   0  0  0  0  0  2  0  0  0  0  0  0
  1  5  1  1  0  0  0
  1 19  1  0  0  0  0
  2 13  1  0  0  0  0
  2 16  1  1  0  0  0
  3 17  1  0  0  0  0
  4  1  1  0  0  0  0
  6  8  2  0  0  0  0
  8 11  1  0  0  0  0
  9  7  1  0  0  0  0
 10 22  1  0  0  0  0
 10  3  1  0  0  0  0
 11  5  1  0  0  0  0
 11 28  1  0  0  0  0
 12  8  1  0  0  0  0
 12  4  1  0  0  0  0
 14 23  1  0  0  0  0
 14  9  1  0  0  0  0
 15  7  1  0  0  0  0
 17 26  1  0  0  0  0
 18 13  1  0  0  0  0
 19  2  1  0  0  0  0
 20  4  1  0  0  0  0
 20 17  1  0  0  0  0
 21 10  1  0  0  0  0
 22  9  1  0  0  0  0
 22 20  1  0  0  0  0
 23 15  1  0  0  0  0
 24 27  1  0  0  0  0
 25 18  1  0  0  0  0
 26 19  1  0  0  0  0
 26 25  1  0  0  0  0
 27  7  1  0  0  0  0
 27 12  1  0  0  0  0
 28 30  1  0  0  0  0
 30 29  1  0  0  0  0
M  END
>  <MODEL>
1

>  <REMARK>
 VINA RESULT:      -7.0      0.000      0.000
  Name = 
  2 active torsions:
  status: ('A' for Active; 'I' for Inactive)
    1  A    between atoms: C_11  and  C_28
    2  A    between atoms: C_28  and  C_30
                            x       y       z     vdW  Elec       q    Type
                         _______ _______ _______ _____ _____    ______ ____

>  <TORSDO>
F 2

$$$$
=
 OpenBabel11122410263D

 30 35  0  0  1  0  0  0  0  0999 V2000
  184.3460  178.5490  139.0470 C   0  0  1  0  0  3  0  0  0  0  0  0
  186.6440  178.3920  137.9630 C   0  0  2  0  0  3  0  0  0  0  0  0
  182.5260  177.0940  135.6850 N   0  0  0  0  0  2  0  0  0  0  0  0
  183.0410  177.7770  139.2940 C   0  0  1  0  0  3  0  0  0  0  0  0
  184.9690  179.1110  140.3410 C   0  0  0  0  0  2  0  0  0  0  0  0
  182.2740  178.9350  142.6520 O   0  0  0  0  0  0  0  0  0  0  0  0
  181.7420  180.2580  138.6910 C   0  0  1  0  0  3  0  0  0  0  0  0
  182.8790  178.6590  141.6270 C   0  0  0  0  0  0  0  0  0  0  0  0
  181.5710  179.5330  137.3480 C   0  0  2  0  0  3  0  0  0  0  0  0
  181.1970  177.5850  136.0490 C   0  0  1  0  0  3  0  0  0  0  0  0
  184.3850  178.5270  141.6300 C   0  0  2  0  0  3  0  0  0  0  0  0
  182.1050  178.3400  140.3750 C   0  0  1  0  0  3  0  0  0  0  0  0
  187.4340  177.8120  136.7980 C   0  0  0  0  0  2  0  0  0  0  0  0
  180.5260  180.2440  136.6160 N   0  0  0  0  0  2  0  0  0  0  0  0
  181.0430  181.5870  138.5280 C   0  0  0  0  0  2  0  0  0  0  0  0
  187.4390  178.3310  139.1080 O   0  0  0  0  0  1  0  0  0  0  0  0
  183.2820  177.0590  136.8740 C   0  0  2  0  0  3  0  0  0  0  0  0
  186.5980  177.8930  135.5360 C   0  0  0  0  0  2  0  0  0  0  0  0
  185.3030  177.6620  138.2120 C   0  0  2  0  0  3  0  0  0  0  0  0
  182.3700  177.3050  138.0030 C   0  0  2  0  0  3  0  0  0  0  0  0
  180.1810  176.4620  135.9400 C   0  0  0  0  0  1  0  0  0  0  0  0
  181.2540  178.0880  137.4410 N   0  0  1  0  0  0  0  0  0  0  0  0
  180.5960  181.6190  137.0840 C   0  0  0  0  0  2  0  0  0  0  0  0
  179.7700  179.1140  139.8530 C   0  0  0  0  0  1  0  0  0  0  0  0
  185.4090  176.9600  135.6660 C   0  0  0  0  0  2  0  0  0  0  0  0
  184.6120  177.2440  136.9080 C   0  0  1  0  0  3  0  0  0  0  0  0
  181.2340  179.5250  139.9420 C   0  0  2  0  0  3  0  0  0  0  0  0
  185.0190  179.2080  142.8400 C   0  0  0  0  0  2  0  0  0  0  0  0
  185.0140  178.6260  145.2670 C   0  0  0  0  0  1  0  0  0  0  0  0
  185.4560  178.1910  143.8830 C   0  0  0  0  0  2  0  0  0  0  0  0
  1  4  1  0  0  0  0
  1  5  1  1  0  0  0
  2 19  1  0  0  0  0
  2 16  1  1  0  0  0
  3 10  1  0  0  0  0
  3 17  1  0  0  0  0
  4 12  1  0  0  0  0
  5 11  1  0  0  0  0
  7 27  1  0  0  0  0
  8 11  1  0  0  0  0
  8  6  2  0  0  0  0
  9 22  1  0  0  0  0
  9  7  1  0  0  0  0
 10 22  1  0  0  0  0
 11 28  1  0  0  0  0
 12  8  1  0  0  0  0
 13  2  1  0  0  0  0
 14 23  1  0  0  0  0
 14  9  1  0  0  0  0
 15  7  1  0  0  0  0
 17 26  1  0  0  0  0
 17 20  1  0  0  0  0
 18 25  1  0  0  0  0
 18 13  1  0  0  0  0
 19  1  1  0  0  0  0
 20  4  1  0  0  0  0
 21 10  1  0  0  0  0
 22 20  1  0  0  0  0
 23 15  1  0  0  0  0
 24 27  1  0  0  0  0
 25 26  1  0  0  0  0
 26 19  1  0  0  0  0
 27 12  1  0  0  0  0
 28 30  1  0  0  0  0
 30 29  1  0  0  0  0
M  END
>  <MODEL>
2

>  <REMARK>
 VINA RESULT:      -6.9      1.851      5.236
  Name = 
  2 active torsions:
  status: ('A' for Active; 'I' for Inactive)
    1  A    between atoms: C_11  and  C_28
    2  A    between atoms: C_28  and  C_30
                            x       y       z     vdW  Elec       q    Type
                         _______ _______ _______ _____ _____    ______ ____

>  <TORSDO>
F 2

$$$$
=
 OpenBabel11122410263D

 30 35  0  0  1  0  0  0  0  0999 V2000
  190.5490  176.5390  138.7360 C   0  0  1  0  0  3  0  0  0  0  0  0
  190.8480  177.1320  141.1930 C   0  0  2  0  0  3  0  0  0  0  0  0
  186.7110  177.9550  138.7360 N   0  0  0  0  0  2  0  0  0  0  0  0
  190.0520  177.0790  137.3860 C   0  0  1  0  0  3  0  0  0  0  0  0
  191.9840  175.9790  138.6710 C   0  0  0  0  0  2  0  0  0  0  0  0
  192.5080  175.5570  135.1810 O   0  0  0  0  0  0  0  0  0  0  0  0
  188.8900  174.4830  137.0470 C   0  0  1  0  0  3  0  0  0  0  0  0
  191.9560  176.0020  136.1770 C   0  0  0  0  0  0  0  0  0  0  0  0
  187.6500  175.2760  137.4850 C   0  0  2  0  0  3  0  0  0  0  0  0
  186.3210  177.2390  137.5220 C   0  0  1  0  0  3  0  0  0  0  0  0
  192.7570  176.3630  137.4070 C   0  0  2  0  0  3  0  0  0  0  0  0
  190.4800  176.2960  136.1340 C   0  0  1  0  0  3  0  0  0  0  0  0
  190.2710  177.9150  142.3640 C   0  0  0  0  0  2  0  0  0  0  0  0
  186.4860  174.4720  137.1220 N   0  0  0  0  0  2  0  0  0  0  0  0
  188.4010  173.0780  136.7780 C   0  0  0  0  0  2  0  0  0  0  0  0
  192.2390  177.2240  141.2440 O   0  0  0  0  0  1  0  0  0  0  0  0
  188.1190  178.0120  138.7350 C   0  0  2  0  0  3  0  0  0  0  0  0
  188.7600  177.8050  142.3450 C   0  0  0  0  0  2  0  0  0  0  0  0
  190.3350  177.6250  139.8200 C   0  0  2  0  0  3  0  0  0  0  0  0
  188.5950  177.5420  137.4240 C   0  0  2  0  0  3  0  0  0  0  0  0
  185.6720  178.1970  136.5390 C   0  0  0  0  0  1  0  0  0  0  0  0
  187.5380  176.6430  136.9250 N   0  0  1  0  0  0  0  0  0  0  0  0
  186.9410  173.0920  137.1700 C   0  0  0  0  0  2  0  0  0  0  0  0
  188.8100  175.2150  134.5960 C   0  0  0  0  0  1  0  0  0  0  0  0
  188.2240  178.5320  141.1250 C   0  0  0  0  0  2  0  0  0  0  0  0
  188.8570  178.0320  139.8570 C   0  0  1  0  0  3  0  0  0  0  0  0
  189.6680  175.0290  135.8400 C   0  0  2  0  0  3  0  0  0  0  0  0
  194.1290  175.6950  137.4160 C   0  0  0  0  0  2  0  0  0  0  0  0
  195.3290  173.9120  138.6840 C   0  0  0  0  0  1  0  0  0  0  0  0
  194.0500  174.2750  137.9530 C   0  0  0  0  0  2  0  0  0  0  0  0
  1  5  1  6  0  0  0
  1 19  1  0  0  0  0
  2 16  1  6  0  0  0
  2 13  1  0  0  0  0
  4 20  1  0  0  0  0
  4  1  1  0  0  0  0
  6  8  2  0  0  0  0
  7  9  1  0  0  0  0
  8 11  1  0  0  0  0
 10  3  1  0  0  0  0
 11 28  1  0  0  0  0
 11  5  1  0  0  0  0
 12  8  1  0  0  0  0
 12  4  1  0  0  0  0
 14 23  1  0  0  0  0
 14  9  1  0  0  0  0
 15  7  1  0  0  0  0
 15 23  1  0  0  0  0
 17  3  1  0  0  0  0
 17 26  1  0  0  0  0
 18 13  1  0  0  0  0
 19 26  1  0  0  0  0
 19  2  1  0  0  0  0
 20 17  1  0  0  0  0
 21 10  1  0  0  0  0
 22 20  1  0  0  0  0
 22  9  1  0  0  0  0
 22 10  1  0  0  0  0
 24 27  1  0  0  0  0
 25 18  1  0  0  0  0
 26 25  1  0  0  0  0
 27 12  1  0  0  0  0
 27  7  1  0  0  0  0
 28 30  1  0  0  0  0
 30 29  1  0  0  0  0
M  END
>  <MODEL>
3

>  <REMARK>
 VINA RESULT:      -6.5      5.815      7.981
  Name = 
  2 active torsions:
  status: ('A' for Active; 'I' for Inactive)
    1  A    between atoms: C_11  and  C_28
    2  A    between atoms: C_28  and  C_30
                            x       y       z     vdW  Elec       q    Type
                         _______ _______ _______ _____ _____    ______ ____

>  <TORSDO>
F 2

$$$$
=
 OpenBabel11122410263D

 30 35  0  0  1  0  0  0  0  0999 V2000
  187.4990  177.4390  138.8550 C   0  0  1  0  0  3  0  0  0  0  0  0
  188.4110  177.4700  141.2320 C   0  0  2  0  0  3  0  0  0  0  0  0
  183.8450  178.7850  140.1090 N   0  0  0  0  0  2  0  0  0  0  0  0
  186.7170  178.2630  137.8210 C   0  0  1  0  0  3  0  0  0  0  0  0
  188.8480  176.9210  138.3190 C   0  0  0  0  0  2  0  0  0  0  0  0
  188.4940  177.2950  134.8020 O   0  0  0  0  0  0  0  0  0  0  0  0
  185.3880  175.7980  137.2190 C   0  0  1  0  0  3  0  0  0  0  0  0
  188.2200  177.5000  135.9760 C   0  0  0  0  0  0  0  0  0  0  0  0
  184.3280  176.4620  138.1110 C   0  0  2  0  0  3  0  0  0  0  0  0
  183.1410  178.3560  138.9030 C   0  0  1  0  0  3  0  0  0  0  0  0
  189.3110  177.5840  137.0190 C   0  0  2  0  0  3  0  0  0  0  0  0
  186.7930  177.7830  136.3630 C   0  0  1  0  0  3  0  0  0  0  0  0
  188.1710  177.9660  142.6510 C   0  0  0  0  0  2  0  0  0  0  0  0
  183.0750  175.7500  137.8780 N   0  0  0  0  0  2  0  0  0  0  0  0
  184.7830  174.4850  136.7780 C   0  0  0  0  0  2  0  0  0  0  0  0
  189.7760  177.5600  140.9580 O   0  0  0  0  0  1  0  0  0  0  0  0
  185.2130  178.8540  139.7750 C   0  0  2  0  0  3  0  0  0  0  0  0
  186.6970  177.8500  142.9800 C   0  0  0  0  0  2  0  0  0  0  0  0
  187.6050  178.2530  140.1700 C   0  0  2  0  0  3  0  0  0  0  0  0
  185.3350  178.6920  138.3170 C   0  0  2  0  0  3  0  0  0  0  0  0
  182.3190  179.5040  138.3440 C   0  0  0  0  0  1  0  0  0  0  0  0
  184.1480  177.9190  137.9090 N   0  0  1  0  0  0  0  0  0  0  0  0
  183.4640  174.3980  137.5100 C   0  0  0  0  0  2  0  0  0  0  0  0
  184.7520  177.0590  135.0850 C   0  0  0  0  0  1  0  0  0  0  0  0
  185.9170  178.8270  142.1200 C   0  0  0  0  0  2  0  0  0  0  0  0
  186.2000  178.6280  140.6570 C   0  0  1  0  0  3  0  0  0  0  0  0
  185.8760  176.6070  136.0070 C   0  0  2  0  0  3  0  0  0  0  0  0
  190.6110  176.9430  136.5440 C   0  0  0  0  0  2  0  0  0  0  0  0
  192.5800  176.3780  137.9680 C   0  0  0  0  0  1  0  0  0  0  0  0
  191.1680  175.9830  137.5840 C   0  0  0  0  0  2  0  0  0  0  0  0
  1  5  1  6  0  0  0
  1 19  1  0  0  0  0
  2 16  1  6  0  0  0
  2 13  1  0  0  0  0
  4 20  1  0  0  0  0
  4  1  1  0  0  0  0
  6  8  2  0  0  0  0
  7  9  1  0  0  0  0
  8 12  1  0  0  0  0
  8 11  1  0  0  0  0
 10  3  1  0  0  0  0
 11  5  1  0  0  0  0
 12  4  1  0  0  0  0
 13 18  1  0  0  0  0
 14  9  1  0  0  0  0
 15  7  1  0  0  0  0
 15 23  1  0  0  0  0
 17  3  1  0  0  0  0
 17 26  1  0  0  0  0
 19 26  1  0  0  0  0
 19  2  1  0  0  0  0
 20 17  1  0  0  0  0
 21 10  1  0  0  0  0
 22  9  1  0  0  0  0
 22 20  1  0  0  0  0
 22 10  1  0  0  0  0
 23 14  1  0  0  0  0
 24 27  1  0  0  0  0
 25 18  1  0  0  0  0
 26 25  1  0  0  0  0
 27 12  1  0  0  0  0
 27  7  1  0  0  0  0
 28 11  1  0  0  0  0
 28 30  1  0  0  0  0
 30 29  1  0  0  0  0
M  END
>  <MODEL>
4

>  <REMARK>
 VINA RESULT:      -6.3      3.296      5.241
  Name = 
  2 active torsions:
  status: ('A' for Active; 'I' for Inactive)
    1  A    between atoms: C_11  and  C_28
    2  A    between atoms: C_28  and  C_30
                            x       y       z     vdW  Elec       q    Type
                         _______ _______ _______ _____ _____    ______ ____

>  <TORSDO>
F 2

$$$$
=
 OpenBabel11122410263D

 30 35  0  0  1  0  0  0  0  0999 V2000
  188.6910  177.3180  139.7590 C   0  0  1  0  0  3  0  0  0  0  0  0
  187.0560  177.8920  141.6230 C   0  0  2  0  0  3  0  0  0  0  0  0
  185.8810  178.0920  136.8890 N   0  0  0  0  0  2  0  0  0  0  0  0
  189.2500  177.8020  138.4120 C   0  0  1  0  0  3  0  0  0  0  0  0
  189.7930  177.0000  140.7900 C   0  0  0  0  0  2  0  0  0  0  0  0
  192.7110  176.7540  138.7750 O   0  0  0  0  0  0  0  0  0  0  0  0
  189.0360  175.0610  137.6100 C   0  0  1  0  0  3  0  0  0  0  0  0
  191.5600  177.0790  139.0320 C   0  0  0  0  0  0  0  0  0  0  0  0
  187.7690  175.6310  136.9540 C   0  0  2  0  0  3  0  0  0  0  0  0
  186.5780  177.3520  135.8380 C   0  0  1  0  0  3  0  0  0  0  0  0
  191.1790  177.5350  140.4210 C   0  0  2  0  0  3  0  0  0  0  0  0
  190.5430  177.1300  137.9230 C   0  0  1  0  0  3  0  0  0  0  0  0
  185.7190  178.5420  141.9500 C   0  0  0  0  0  2  0  0  0  0  0  0
  187.3390  174.6590  135.9530 N   0  0  0  0  0  2  0  0  0  0  0  0
  189.0770  173.6030  137.2150 C   0  0  0  0  0  2  0  0  0  0  0  0
  187.9600  178.2070  142.6380 O   0  0  0  0  0  1  0  0  0  0  0  0
  186.8380  178.3770  137.8840 C   0  0  2  0  0  3  0  0  0  0  0  0
  184.7130  178.1890  140.8730 C   0  0  0  0  0  2  0  0  0  0  0  0
  187.6260  178.3280  140.2530 C   0  0  2  0  0  3  0  0  0  0  0  0
  188.1650  178.0220  137.3560 C   0  0  2  0  0  3  0  0  0  0  0  0
  186.7140  178.2150  134.5960 C   0  0  0  0  0  1  0  0  0  0  0  0
  187.9170  176.9750  136.3470 N   0  0  1  0  0  0  0  0  0  0  0  0
  187.7950  173.3700  136.4490 C   0  0  0  0  0  2  0  0  0  0  0  0
  190.6440  175.8300  135.7730 C   0  0  0  0  0  1  0  0  0  0  0  0
  185.1270  178.8490  139.5700 C   0  0  0  0  0  2  0  0  0  0  0  0
  186.5350  178.4890  139.1880 C   0  0  1  0  0  3  0  0  0  0  0  0
  190.3630  175.7550  137.2680 C   0  0  2  0  0  3  0  0  0  0  0  0
  192.1980  177.0990  141.4700 C   0  0  0  0  0  2  0  0  0  0  0  0
  191.6420  178.3000  143.5850 C   0  0  0  0  0  1  0  0  0  0  0  0
  191.5610  176.9780  142.8450 C   0  0  0  0  0  2  0  0  0  0  0  0
  1 19  1  0  0  0  0
  1  5  1  1  0  0  0
  2 13  1  0  0  0  0
  2 16  1  1  0  0  0
  3 17  1  0  0  0  0
  4  1  1  0  0  0  0
  6  8  2  0  0  0  0
  8 11  1  0  0  0  0
  9  7  1  0  0  0  0
 10 22  1  0  0  0  0
 10  3  1  0  0  0  0
 11  5  1  0  0  0  0
 11 28  1  0  0  0  0
 12  4  1  0  0  0  0
 12  8  1  0  0  0  0
 14 23  1  0  0  0  0
 14  9  1  0  0  0  0
 15  7  1  0  0  0  0
 17 26  1  0  0  0  0
 18 13  1  0  0  0  0
 19  2  1  0  0  0  0
 20 17  1  0  0  0  0
 20  4  1  0  0  0  0
 21 10  1  0  0  0  0
 22  9  1  0  0  0  0
 22 20  1  0  0  0  0
 23 15  1  0  0  0  0
 24 27  1  0  0  0  0
 25 18  1  0  0  0  0
 26 25  1  0  0  0  0
 26 19  1  0  0  0  0
 27  7  1  0  0  0  0
 27 12  1  0  0  0  0
 28 30  1  0  0  0  0
 30 29  1  0  0  0  0
M  END
>  <MODEL>
5

>  <REMARK>
 VINA RESULT:      -6.2      4.549      6.352
  Name = 
  2 active torsions:
  status: ('A' for Active; 'I' for Inactive)
    1  A    between atoms: C_11  and  C_28
    2  A    between atoms: C_28  and  C_30
                            x       y       z     vdW  Elec       q    Type
                         _______ _______ _______ _____ _____    ______ ____

>  <TORSDO>
F 2

$$$$
=
 OpenBabel11122410263D

 30 35  0  0  1  0  0  0  0  0999 V2000
  187.0100  177.8240  139.6250 C   0  0  1  0  0  3  0  0  0  0  0  0
  187.4350  177.8570  142.1340 C   0  0  2  0  0  3  0  0  0  0  0  0
  183.1230  178.9880  140.1460 N   0  0  0  0  0  2  0  0  0  0  0  0
  186.4080  178.6290  138.4630 C   0  0  1  0  0  3  0  0  0  0  0  0
  188.4610  177.3740  139.3610 C   0  0  0  0  0  2  0  0  0  0  0  0
  188.7860  177.7890  135.8450 O   0  0  0  0  0  0  0  0  0  0  0  0
  185.3390  176.1180  137.5930 C   0  0  1  0  0  3  0  0  0  0  0  0
  188.2780  177.9630  136.9440 C   0  0  0  0  0  0  0  0  0  0  0  0
  184.0960  176.7200  138.2650 C   0  0  2  0  0  3  0  0  0  0  0  0
  182.6890  178.5470  138.8210 C   0  0  1  0  0  3  0  0  0  0  0  0
  189.1380  178.0790  138.1820 C   0  0  2  0  0  3  0  0  0  0  0  0
  186.7910  178.1770  137.0450 C   0  0  1  0  0  3  0  0  0  0  0  0
  186.8990  178.3190  143.4820 C   0  0  0  0  0  2  0  0  0  0  0  0
  182.9470  175.9570  137.7850 N   0  0  0  0  0  2  0  0  0  0  0  0
  184.8950  174.7870  137.0330 C   0  0  0  0  0  2  0  0  0  0  0  0
  188.8220  178.0120  142.1340 O   0  0  0  0  0  1  0  0  0  0  0  0
  184.5250  179.1220  140.0870 C   0  0  2  0  0  3  0  0  0  0  0  0
  185.3960  178.1330  143.5140 C   0  0  0  0  0  2  0  0  0  0  0  0
  186.8180  178.6200  140.9400 C   0  0  2  0  0  3  0  0  0  0  0  0
  184.9380  178.9890  138.6800 C   0  0  2  0  0  3  0  0  0  0  0  0
  181.9410  179.6660  138.1190 C   0  0  0  0  0  1  0  0  0  0  0  0
  183.8920  178.1700  138.0410 N   0  0  1  0  0  0  0  0  0  0  0  0
  183.4620  174.6300  137.4910 C   0  0  0  0  0  2  0  0  0  0  0  0
  185.0760  177.3840  135.3850 C   0  0  0  0  0  1  0  0  0  0  0  0
  184.7560  179.0880  142.5240 C   0  0  0  0  0  2  0  0  0  0  0  0
  185.3300  178.9260  141.1450 C   0  0  1  0  0  3  0  0  0  0  0  0
  186.0170  176.9670  136.5070 C   0  0  2  0  0  3  0  0  0  0  0  0
  190.5350  177.5030  137.9670 C   0  0  0  0  0  2  0  0  0  0  0  0
  190.6740  175.0640  137.4640 C   0  0  0  0  0  1  0  0  0  0  0  0
  190.6570  176.1090  138.5620 C   0  0  0  0  0  2  0  0  0  0  0  0
  1  5  1  6  0  0  0
  1 19  1  0  0  0  0
  2 16  1  1  0  0  0
  2 13  1  0  0  0  0
  4 20  1  0  0  0  0
  4  1  1  0  0  0  0
  6  8  2  0  0  0  0
  7  9  1  0  0  0  0
  8 12  1  0  0  0  0
  8 11  1  0  0  0  0
 10  3  1  0  0  0  0
 11  5  1  0  0  0  0
 12  4  1  0  0  0  0
 13 18  1  0  0  0  0
 14  9  1  0  0  0  0
 15 23  1  0  0  0  0
 15  7  1  0  0  0  0
 17  3  1  0  0  0  0
 17 26  1  0  0  0  0
 19 26  1  0  0  0  0
 19  2  1  0  0  0  0
 20 17  1  0  0  0  0
 21 10  1  0  0  0  0
 22  9  1  0  0  0  0
 22 20  1  0  0  0  0
 22 10  1  0  0  0  0
 23 14  1  0  0  0  0
 24 27  1  0  0  0  0
 25 18  1  0  0  0  0
 26 25  1  0  0  0  0
 27 12  1  0  0  0  0
 27  7  1  0  0  0  0
 28 11  1  0  0  0  0
 28 30  1  0  0  0  0
 29 30  1  0  0  0  0
M  END
>  <MODEL>
6

>  <REMARK>
 VINA RESULT:      -6.1      2.870      4.442
  Name = 
  2 active torsions:
  status: ('A' for Active; 'I' for Inactive)
    1  A    between atoms: C_11  and  C_28
    2  A    between atoms: C_28  and  C_30
                            x       y       z     vdW  Elec       q    Type
                         _______ _______ _______ _____ _____    ______ ____

>  <TORSDO>
F 2

$$$$
=
 OpenBabel11122410263D

 30 35  0  0  1  0  0  0  0  0999 V2000
  188.2420  176.8130  138.3190 C   0  0  1  0  0  3  0  0  0  0  0  0
  188.7980  177.6760  140.6480 C   0  0  2  0  0  3  0  0  0  0  0  0
  184.3200  177.9070  138.7180 N   0  0  0  0  0  2  0  0  0  0  0  0
  187.5270  177.1710  137.0070 C   0  0  1  0  0  3  0  0  0  0  0  0
  189.7030  176.3680  138.1080 C   0  0  0  0  0  2  0  0  0  0  0  0
  189.8100  175.6360  134.6320 O   0  0  0  0  0  0  0  0  0  0  0  0
  186.5800  174.4680  137.0660 C   0  0  1  0  0  3  0  0  0  0  0  0
  189.3520  176.1340  135.6500 C   0  0  0  0  0  0  0  0  0  0  0  0
  185.3370  175.1990  137.5970 C   0  0  2  0  0  3  0  0  0  0  0  0
  183.8460  177.0420  137.6390 C   0  0  1  0  0  3  0  0  0  0  0  0
  190.2670  176.6830  136.7210 C   0  0  2  0  0  3  0  0  0  0  0  0
  187.8620  176.3010  135.7840 C   0  0  1  0  0  3  0  0  0  0  0  0
  188.3060  178.5250  141.8120 C   0  0  0  0  0  2  0  0  0  0  0  0
  184.2170  174.2710  137.4710 N   0  0  0  0  0  2  0  0  0  0  0  0
  186.1950  173.0090  136.9950 C   0  0  0  0  0  2  0  0  0  0  0  0
  190.1700  177.8850  140.4980 O   0  0  0  0  0  1  0  0  0  0  0  0
  185.7050  178.0770  138.5190 C   0  0  2  0  0  3  0  0  0  0  0  0
  186.8220  178.2920  142.0100 C   0  0  0  0  0  2  0  0  0  0  0  0
  188.0690  177.9830  139.3200 C   0  0  2  0  0  3  0  0  0  0  0  0
  186.0500  177.5160  137.2020 C   0  0  2  0  0  3  0  0  0  0  0  0
  182.9880  177.8390  136.6720 C   0  0  0  0  0  1  0  0  0  0  0  0
  185.0270  176.4880  136.9360 N   0  0  1  0  0  0  0  0  0  0  0  0
  184.8030  172.9440  137.5810 C   0  0  0  0  0  2  0  0  0  0  0  0
  186.1160  174.9380  134.5940 C   0  0  0  0  0  1  0  0  0  0  0  0
  186.0680  178.8450  140.8150 C   0  0  0  0  0  2  0  0  0  0  0  0
  186.5760  178.2710  139.5230 C   0  0  1  0  0  3  0  0  0  0  0  0
  187.1410  174.9490  135.7190 C   0  0  2  0  0  3  0  0  0  0  0  0
  191.6860  176.1320  136.6010 C   0  0  0  0  0  2  0  0  0  0  0  0
  192.4000  173.7560  136.8620 C   0  0  0  0  0  1  0  0  0  0  0  0
  191.9260  175.0000  137.5880 C   0  0  0  0  0  2  0  0  0  0  0  0
  1  5  1  6  0  0  0
  1 19  1  0  0  0  0
  2 16  1  6  0  0  0
  2 13  1  0  0  0  0
  4 20  1  0  0  0  0
  4  1  1  0  0  0  0
  6  8  2  0  0  0  0
  7  9  1  0  0  0  0
  8 12  1  0  0  0  0
  8 11  1  0  0  0  0
 10  3  1  0  0  0  0
 11  5  1  0  0  0  0
 12  4  1  0  0  0  0
 13 18  1  0  0  0  0
 14 23  1  0  0  0  0
 14  9  1  0  0  0  0
 15  7  1  0  0  0  0
 15 23  1  0  0  0  0
 17  3  1  0  0  0  0
 17 26  1  0  0  0  0
 19 26  1  0  0  0  0
 19  2  1  0  0  0  0
 20 17  1  0  0  0  0
 21 10  1  0  0  0  0
 22 20  1  0  0  0  0
 22  9  1  0  0  0  0
 22 10  1  0  0  0  0
 24 27  1  0  0  0  0
 25 18  1  0  0  0  0
 26 25  1  0  0  0  0
 27 12  1  0  0  0  0
 27  7  1  0  0  0  0
 28 11  1  0  0  0  0
 28 30  1  0  0  0  0
 29 30  1  0  0  0  0
M  END
>  <MODEL>
7

>  <REMARK>
 VINA RESULT:      -6.0      4.233      6.159
  Name = 
  2 active torsions:
  status: ('A' for Active; 'I' for Inactive)
    1  A    between atoms: C_11  and  C_28
    2  A    between atoms: C_28  and  C_30
                            x       y       z     vdW  Elec       q    Type
                         _______ _______ _______ _____ _____    ______ ____

>  <TORSDO>
F 2

$$$$
=
 OpenBabel11122410263D

 30 35  0  0  1  0  0  0  0  0999 V2000
  187.5890  178.0600  142.2580 C   0  0  1  0  0  3  0  0  0  0  0  0
  185.3780  179.3140  142.1380 C   0  0  2  0  0  3  0  0  0  0  0  0
  187.2410  177.5880  146.3060 N   0  0  0  0  0  2  0  0  0  0  0  0
  188.2700  176.8070  142.8300 C   0  0  1  0  0  3  0  0  0  0  0  0
  187.7860  178.2120  140.7360 C   0  0  0  0  0  2  0  0  0  0  0  0
  190.4900  176.0050  140.0660 O   0  0  0  0  0  0  0  0  0  0  0  0
  190.4600  178.5570  143.4150 C   0  0  1  0  0  3  0  0  0  0  0  0
  189.5630  176.4620  140.7180 C   0  0  0  0  0  0  0  0  0  0  0  0
  189.8060  178.4740  144.8020 C   0  0  2  0  0  3  0  0  0  0  0  0
  188.6600  177.2990  146.5140 C   0  0  1  0  0  3  0  0  0  0  0  0
  188.3080  176.9550  140.0350 C   0  0  2  0  0  3  0  0  0  0  0  0
  189.6300  176.4270  142.2220 C   0  0  1  0  0  3  0  0  0  0  0  0
  184.0990  179.6580  142.8890 C   0  0  0  0  0  2  0  0  0  0  0  0
  190.7980  178.9450  145.7650 N   0  0  0  0  0  2  0  0  0  0  0  0
  191.6840  179.4250  143.5940 C   0  0  0  0  0  2  0  0  0  0  0  0
  185.0560  179.0940  140.7980 O   0  0  0  0  0  1  0  0  0  0  0  0
  186.9780  177.3540  144.9410 C   0  0  2  0  0  3  0  0  0  0  0  0
  184.4280  179.9280  144.3430 C   0  0  0  0  0  2  0  0  0  0  0  0
  186.1090  178.0800  142.7150 C   0  0  2  0  0  3  0  0  0  0  0  0
  188.1620  176.7060  144.3520 C   0  0  2  0  0  3  0  0  0  0  0  0
  188.8180  176.0280  147.3290 C   0  0  0  0  0  1  0  0  0  0  0  0
  189.2980  177.1360  145.1870 N   0  0  1  0  0  0  0  0  0  0  0  0
  191.6270  179.8890  145.0310 C   0  0  0  0  0  2  0  0  0  0  0  0
  191.7330  176.3440  143.5990 C   0  0  0  0  0  1  0  0  0  0  0  0
  184.8950  178.6400  144.9950 C   0  0  0  0  0  2  0  0  0  0  0  0
  186.0420  178.0220  144.2460 C   0  0  1  0  0  3  0  0  0  0  0  0
  190.8310  177.2250  142.7450 C   0  0  2  0  0  3  0  0  0  0  0  0
  188.5350  177.2440  138.5540 C   0  0  0  0  0  2  0  0  0  0  0  0
  189.0550  179.0030  136.8620 C   0  0  0  0  0  1  0  0  0  0  0  0
  189.0550  178.6570  138.3390 C   0  0  0  0  0  2  0  0  0  0  0  0
  1  5  1  6  0  0  0
  1 19  1  0  0  0  0
  1  4  1  0  0  0  0
  2 16  1  6  0  0  0
  2 19  1  0  0  0  0
  2 13  1  0  0  0  0
  3 10  1  0  0  0  0
  4 20  1  0  0  0  0
  6  8  2  0  0  0  0
  7 15  1  0  0  0  0
  7  9  1  0  0  0  0
  8 12  1  0  0  0  0
  9 22  1  0  0  0  0
  9 14  1  0  0  0  0
 10 21  1  0  0  0  0
 11  8  1  0  0  0  0
 11  5  1  0  0  0  0
 12 27  1  0  0  0  0
 12  4  1  0  0  0  0
 13 18  1  0  0  0  0
 15 23  1  0  0  0  0
 17  3  1  0  0  0  0
 18 25  1  0  0  0  0
 19 26  1  0  0  0  0
 20 17  1  0  0  0  0
 20 22  1  0  0  0  0
 22 10  1  0  0  0  0
 23 14  1  0  0  0  0
 26 17  1  0  0  0  0
 26 25  1  0  0  0  0
 27  7  1  0  0  0  0
 27 24  1  0  0  0  0
 28 11  1  0  0  0  0
 29 30  1  0  0  0  0
 30 28  1  0  0  0  0
M  END
>  <MODEL>
8

>  <REMARK>
 VINA RESULT:      -6.0      5.201      8.214
  Name = 
  2 active torsions:
  status: ('A' for Active; 'I' for Inactive)
    1  A    between atoms: C_11  and  C_28
    2  A    between atoms: C_28  and  C_30
                            x       y       z     vdW  Elec       q    Type
                         _______ _______ _______ _____ _____    ______ ____

>  <TORSDO>
F 2

$$$$
=
 OpenBabel11122410263D

 30 35  0  0  1  0  0  0  0  0999 V2000
  185.8980  177.7140  138.6050 C   0  0  1  0  0  3  0  0  0  0  0  0
  185.8770  178.5980  140.9920 C   0  0  2  0  0  3  0  0  0  0  0  0
  181.8630  177.0440  138.6900 N   0  0  0  0  0  2  0  0  0  0  0  0
  185.1910  177.8140  137.2450 C   0  0  1  0  0  3  0  0  0  0  0  0
  187.4210  177.9340  138.5110 C   0  0  0  0  0  2  0  0  0  0  0  0
  188.0650  177.5110  135.0420 O   0  0  0  0  0  0  0  0  0  0  0  0
  185.4690  174.9650  137.1620 C   0  0  1  0  0  3  0  0  0  0  0  0
  187.3710  177.7140  136.0270 C   0  0  0  0  0  0  0  0  0  0  0  0
  184.0010  175.0770  137.6000 C   0  0  2  0  0  3  0  0  0  0  0  0
  181.8730  176.1220  137.5550 C   0  0  1  0  0  3  0  0  0  0  0  0
  187.8940  178.5330  137.1850 C   0  0  2  0  0  3  0  0  0  0  0  0
  185.9440  177.2350  136.0360 C   0  0  1  0  0  3  0  0  0  0  0  0
  184.9950  179.0960  142.1280 C   0  0  0  0  0  2  0  0  0  0  0  0
  183.3870  173.7750  137.3570 N   0  0  0  0  0  2  0  0  0  0  0  0
  185.7400  173.4840  137.0250 C   0  0  0  0  0  2  0  0  0  0  0  0
  187.0400  179.3690  140.9660 O   0  0  0  0  0  1  0  0  0  0  0  0
  183.0570  177.7890  138.6140 C   0  0  2  0  0  3  0  0  0  0  0  0
  183.7370  178.2540  142.1930 C   0  0  0  0  0  2  0  0  0  0  0  0
  185.1790  178.6470  139.6130 C   0  0  2  0  0  3  0  0  0  0  0  0
  183.6960  177.4980  137.3200 C   0  0  2  0  0  3  0  0  0  0  0  0
  180.8280  176.5420  136.5350 C   0  0  0  0  0  1  0  0  0  0  0  0
  183.2220  176.1540  136.9440 N   0  0  1  0  0  0  0  0  0  0  0  0
  184.4680  172.8100  137.4880 C   0  0  0  0  0  2  0  0  0  0  0  0
  185.0210  175.3360  134.6700 C   0  0  0  0  0  1  0  0  0  0  0  0
  182.9040  178.5070  140.9500 C   0  0  0  0  0  2  0  0  0  0  0  0
  183.6950  178.2720  139.6930 C   0  0  1  0  0  3  0  0  0  0  0  0
  185.8660  175.7110  135.8800 C   0  0  2  0  0  3  0  0  0  0  0  0
  189.4170  178.6340  137.1760 C   0  0  0  0  0  2  0  0  0  0  0  0
  190.6760  176.4810  137.2480 C   0  0  0  0  0  1  0  0  0  0  0  0
  190.0470  177.5840  138.0780 C   0  0  0  0  0  2  0  0  0  0  0  0
  1  5  1  6  0  0  0
  1 19  1  0  0  0  0
  2 16  1  6  0  0  0
  2 13  1  0  0  0  0
  4 20  1  0  0  0  0
  4  1  1  0  0  0  0
  6  8  2  0  0  0  0
  7  9  1  0  0  0  0
  8 12  1  0  0  0  0
  8 11  1  0  0  0  0
 10  3  1  0  0  0  0
 11  5  1  0  0  0  0
 12  4  1  0  0  0  0
 13 18  1  0  0  0  0
 14 23  1  0  0  0  0
 14  9  1  0  0  0  0
 15  7  1  0  0  0  0
 15 23  1  0  0  0  0
 17  3  1  0  0  0  0
 17 26  1  0  0  0  0
 19 26  1  0  0  0  0
 19  2  1  0  0  0  0
 20 17  1  0  0  0  0
 21 10  1  0  0  0  0
 22 20  1  0  0  0  0
 22 10  1  0  0  0  0
 22  9  1  0  0  0  0
 24 27  1  0  0  0  0
 25 18  1  0  0  0  0
 26 25  1  0  0  0  0
 27 12  1  0  0  0  0
 27  7  1  0  0  0  0
 28 11  1  0  0  0  0
 28 30  1  0  0  0  0
 29 30  1  0  0  0  0
M  END
>  <MODEL>
9

>  <REMARK>
 VINA RESULT:      -5.8      2.770      4.251
  Name = 
  2 active torsions:
  status: ('A' for Active; 'I' for Inactive)
    1  A    between atoms: C_11  and  C_28
    2  A    between atoms: C_28  and  C_30
                            x       y       z     vdW  Elec       q    Type
                         _______ _______ _______ _____ _____    ______ ____

>  <TORSDO>
F 2

$$$$
