=
 OpenBabel11122412013D

 28 32  0  0  1  0  0  0  0  0999 V2000
  181.9470  180.3210  138.4320 C   0  0  0  0  0  0  0  0  0  0  0  0
  180.8520  177.6510  140.0120 F   0  0  0  0  0  0  0  0  0  0  0  0
  185.5950  176.0130  136.1020 O   0  0  0  0  0  0  0  0  0  0  0  0
  180.3770  181.2070  136.2850 C   0  0  0  0  0  3  0  0  0  0  0  0
  183.7630  175.3150  137.4060 N   0  0  0  0  0  0  0  0  0  0  0  0
  182.8540  179.9540  139.5540 C   0  0  0  0  0  2  0  0  0  0  0  0
  179.0520  178.3910  138.7800 N   0  0  0  0  0  1  0  0  0  0  0  0
  179.9680  177.2880  139.0070 C   0  0  1  0  0  0  0  0  0  0  0  0
  180.0560  174.9450  139.8600 C   0  0  1  0  0  3  0  0  0  0  0  0
  180.7150  176.9700  137.6810 C   0  0  2  0  0  3  0  0  0  0  0  0
  185.6540  178.9870  140.5970 O   0  0  0  0  0  0  0  0  0  0  0  0
  183.0470  177.3400  138.1880 C   0  0  1  0  0  3  0  0  0  0  0  0
  180.6480  174.1670  138.3370 S   0  0  0  0  0  0  0  0  0  0  0  0
  179.1480  176.1010  139.4940 C   0  0  0  0  0  2  0  0  0  0  0  0
  185.1420  179.0030  139.4470 C   0  0  0  0  0  0  0  0  0  0  0  0
  181.5560  179.4030  137.4220 C   0  0  0  0  0  0  0  0  0  0  0  0
  184.6600  176.2780  136.9040 C   0  0  0  0  0  0  0  0  0  0  0  0
  179.3350  174.0120  140.6020 O   0  0  0  0  0  1  0  0  0  0  0  0
  185.5010  177.9330  138.4630 C   0  0  0  0  0  2  0  0  0  0  0  0
  180.7700  179.8700  136.3590 C   0  0  0  0  0  3  0  0  0  0  0  0
  181.5540  181.6610  138.3430 C   0  0  0  0  0  3  0  0  0  0  0  0
  180.7670  182.1020  137.2800 C   0  0  0  0  0  3  0  0  0  0  0  0
  184.2280  180.0330  139.0930 N   0  0  0  0  0  2  0  0  0  0  0  0
  182.8180  175.8770  138.2790 N   0  0  1  0  0  0  0  0  0  0  0  0
  184.3840  177.6060  137.4630 C   0  0  2  0  0  3  0  0  0  0  0  0
  181.4940  175.6550  137.6890 C   0  0  2  0  0  3  0  0  0  0  0  0
  183.9930  173.8820  137.3100 C   0  0  0  0  0  1  0  0  0  0  0  0
  181.8690  177.9190  137.4070 C   0  0  2  0  0  3  0  0  0  0  0  0
  1  6  1  0  0  0  0
  3 17  2  0  0  0  0
  4 20  2  0  0  0  0
  4 22  1  0  0  0  0
  5 24  1  0  0  0  0
  8  7  1  6  0  0  0
  8 14  1  0  0  0  0
  8  2  1  0  0  0  0
  9 18  1  1  0  0  0
 10 26  1  0  0  0  0
 10  8  1  0  0  0  0
 12 24  1  0  0  0  0
 13  9  1  0  0  0  0
 14  9  1  0  0  0  0
 15 11  2  0  0  0  0
 16  1  2  0  0  0  0
 17  5  1  0  0  0  0
 17 25  1  0  0  0  0
 19 15  1  0  0  0  0
 20 16  1  0  0  0  0
 21  1  1  0  0  0  0
 22 21  2  0  0  0  0
 23 15  1  0  0  0  0
 23  6  1  0  0  0  0
 25 12  1  0  0  0  0
 25 19  1  0  0  0  0
 26 24  1  0  0  0  0
 26 13  1  0  0  0  0
 27  5  1  0  0  0  0
 28 16  1  0  0  0  0
 28 10  1  0  0  0  0
 28 12  1  0  0  0  0
M  END
>  <MODEL>
1

>  <REMARK>
 VINA RESULT:      -6.0      0.000      0.000
  Name = 
  0 active torsions:
  status: ('A' for Active; 'I' for Inactive)
                            x       y       z     vdW  Elec       q    Type
                         _______ _______ _______ _____ _____    ______ ____

>  <TORSDO>
F 0

$$$$
=
 OpenBabel11122412013D

 28 32  0  0  1  0  0  0  0  0999 V2000
  181.3420  179.3110  139.9270 C   0  0  0  0  0  0  0  0  0  0  0  0
  181.4430  176.1180  139.1400 F   0  0  0  0  0  0  0  0  0  0  0  0
  186.9920  178.8530  137.6590 O   0  0  0  0  0  0  0  0  0  0  0  0
  179.9560  180.9730  138.1440 C   0  0  0  0  0  3  0  0  0  0  0  0
  185.5440  177.0190  137.3800 N   0  0  0  0  0  0  0  0  0  0  0  0
  182.0910  178.5320  140.9500 C   0  0  0  0  0  2  0  0  0  0  0  0
  179.7690  177.0010  137.8260 N   0  0  0  0  0  1  0  0  0  0  0  0
  181.0520  176.3210  137.8250 C   0  0  1  0  0  0  0  0  0  0  0  0
  182.1290  174.1500  137.2340 C   0  0  1  0  0  3  0  0  0  0  0  0
  182.0850  177.1910  137.0520 C   0  0  2  0  0  3  0  0  0  0  0  0
  184.7610  177.8780  142.4680 O   0  0  0  0  0  0  0  0  0  0  0  0
  183.7930  177.7030  138.6810 C   0  0  1  0  0  3  0  0  0  0  0  0
  183.2930  174.7960  136.0060 S   0  0  0  0  0  0  0  0  0  0  0  0
  180.8530  174.9630  137.1680 C   0  0  0  0  0  2  0  0  0  0  0  0
  184.5260  178.5360  141.4200 C   0  0  0  0  0  0  0  0  0  0  0  0
  181.6440  179.2610  138.5410 C   0  0  0  0  0  0  0  0  0  0  0  0
  185.9220  178.2530  137.9420 C   0  0  0  0  0  0  0  0  0  0  0  0
  181.8430  172.8190  136.9390 O   0  0  0  0  0  1  0  0  0  0  0  0
  185.5380  178.5550  140.3170 C   0  0  0  0  0  2  0  0  0  0  0  0
  180.9370  180.1010  137.6690 C   0  0  0  0  0  3  0  0  0  0  0  0
  180.3610  180.1950  140.3930 C   0  0  0  0  0  3  0  0  0  0  0  0
  179.6660  181.0170  139.5060 C   0  0  0  0  0  3  0  0  0  0  0  0
  183.3040  179.2510  141.2940 N   0  0  0  0  0  2  0  0  0  0  0  0
  184.3040  176.5730  137.8660 N   0  0  1  0  0  0  0  0  0  0  0  0
  184.9300  178.7200  138.9180 C   0  0  2  0  0  3  0  0  0  0  0  0
  183.3950  176.4790  136.7200 C   0  0  2  0  0  3  0  0  0  0  0  0
  186.4640  176.1530  136.6580 C   0  0  0  0  0  1  0  0  0  0  0  0
  182.6460  178.3280  137.8890 C   0  0  2  0  0  3  0  0  0  0  0  0
  1 21  1  0  0  0  0
  1  6  1  0  0  0  0
  3 17  2  0  0  0  0
  4 22  1  0  0  0  0
  5 24  1  0  0  0  0
  5 17  1  0  0  0  0
  6 23  1  0  0  0  0
  8  7  1  1  0  0  0
  8  2  1  0  0  0  0
  9 18  1  6  0  0  0
 10  8  1  0  0  0  0
 10 28  1  0  0  0  0
 12 25  1  0  0  0  0
 13 26  1  0  0  0  0
 13  9  1  0  0  0  0
 14  9  1  0  0  0  0
 14  8  1  0  0  0  0
 15 11  2  0  0  0  0
 16  1  2  0  0  0  0
 17 25  1  0  0  0  0
 19 15  1  0  0  0  0
 20  4  2  0  0  0  0
 20 16  1  0  0  0  0
 22 21  2  0  0  0  0
 23 15  1  0  0  0  0
 24 12  1  0  0  0  0
 25 19  1  0  0  0  0
 26 10  1  0  0  0  0
 26 24  1  0  0  0  0
 27  5  1  0  0  0  0
 28 16  1  0  0  0  0
 28 12  1  0  0  0  0
M  END
>  <MODEL>
2

>  <REMARK>
 VINA RESULT:      -5.5      2.017      2.455
  Name = 
  0 active torsions:
  status: ('A' for Active; 'I' for Inactive)
                            x       y       z     vdW  Elec       q    Type
                         _______ _______ _______ _____ _____    ______ ____

>  <TORSDO>
F 0

$$$$
=
 OpenBabel11122412013D

 28 32  0  0  1  0  0  0  0  0999 V2000
  191.2540  174.2860  136.0390 C   0  0  0  0  0  0  0  0  0  0  0  0
  190.5550  175.3150  139.0850 F   0  0  0  0  0  0  0  0  0  0  0  0
  185.7880  176.8650  135.1700 O   0  0  0  0  0  0  0  0  0  0  0  0
  193.0620  175.8690  134.5940 C   0  0  0  0  0  3  0  0  0  0  0  0
  186.8470  177.2070  137.2440 N   0  0  0  0  0  0  0  0  0  0  0  0
  190.2970  173.3640  136.7080 C   0  0  0  0  0  2  0  0  0  0  0  0
  192.4560  176.4730  138.4900 N   0  0  0  0  0  1  0  0  0  0  0  0
  191.0640  176.5890  138.8860 C   0  0  1  0  0  0  0  0  0  0  0  0
  189.6070  177.3940  140.7450 C   0  0  1  0  0  3  0  0  0  0  0  0
  190.2820  177.3460  137.7740 C   0  0  2  0  0  3  0  0  0  0  0  0
  187.4570  172.0360  136.8870 O   0  0  0  0  0  0  0  0  0  0  0  0
  188.6120  175.7720  137.0220 C   0  0  1  0  0  3  0  0  0  0  0  0
  188.6820  178.6270  139.7950 S   0  0  0  0  0  0  0  0  0  0  0  0
  191.0240  177.3350  140.2130 C   0  0  0  0  0  2  0  0  0  0  0  0
  187.8890  173.0180  136.2280 C   0  0  0  0  0  0  0  0  0  0  0  0
  191.0380  175.6860  135.9380 C   0  0  0  0  0  0  0  0  0  0  0  0
  186.6930  176.5740  135.9960 C   0  0  0  0  0  0  0  0  0  0  0  0
  189.6340  177.7730  142.0850 O   0  0  0  0  0  1  0  0  0  0  0  0
  186.9750  174.1670  135.9300 C   0  0  0  0  0  2  0  0  0  0  0  0
  191.9570  176.4560  135.2100 C   0  0  0  0  0  3  0  0  0  0  0  0
  192.3620  173.7070  135.4100 C   0  0  0  0  0  3  0  0  0  0  0  0
  193.2660  174.4940  134.6960 C   0  0  0  0  0  3  0  0  0  0  0  0
  189.2360  173.0290  135.7760 N   0  0  0  0  0  2  0  0  0  0  0  0
  187.9350  176.6940  137.9680 N   0  0  1  0  0  0  0  0  0  0  0  0
  187.6930  175.5170  135.8080 C   0  0  2  0  0  3  0  0  0  0  0  0
  188.8790  177.7960  138.1770 C   0  0  2  0  0  3  0  0  0  0  0  0
  185.8190  178.0370  137.8520 C   0  0  0  0  0  1  0  0  0  0  0  0
  189.9120  176.4560  136.6010 C   0  0  2  0  0  3  0  0  0  0  0  0
  1  6  1  0  0  0  0
  3 17  2  0  0  0  0
  4 22  2  0  0  0  0
  4 20  1  0  0  0  0
  5 27  1  0  0  0  0
  5 24  1  0  0  0  0
  8  7  1  6  0  0  0
  8  2  1  0  0  0  0
  8 14  1  0  0  0  0
  9 18  1  1  0  0  0
 10 26  1  0  0  0  0
 10  8  1  0  0  0  0
 12 24  1  0  0  0  0
 13  9  1  0  0  0  0
 14  9  1  0  0  0  0
 15 11  2  0  0  0  0
 16  1  1  0  0  0  0
 16 28  1  0  0  0  0
 17  5  1  0  0  0  0
 19 15  1  0  0  0  0
 20 16  2  0  0  0  0
 21  1  2  0  0  0  0
 22 21  1  0  0  0  0
 23 15  1  0  0  0  0
 23  6  1  0  0  0  0
 24 26  1  0  0  0  0
 25 19  1  0  0  0  0
 25 17  1  0  0  0  0
 25 12  1  0  0  0  0
 26 13  1  0  0  0  0
 28 12  1  0  0  0  0
 28 10  1  0  0  0  0
M  END
>  <MODEL>
3

>  <REMARK>
 VINA RESULT:      -5.5      5.970      9.459
  Name = 
  0 active torsions:
  status: ('A' for Active; 'I' for Inactive)
                            x       y       z     vdW  Elec       q    Type
                         _______ _______ _______ _____ _____    ______ ____

>  <TORSDO>
F 0

$$$$
=
 OpenBabel11122412013D

 28 32  0  0  1  0  0  0  0  0999 V2000
  183.2550  177.6460  137.9120 C   0  0  0  0  0  0  0  0  0  0  0  0
  182.3070  180.7930  137.7570 F   0  0  0  0  0  0  0  0  0  0  0  0
  180.3770  178.2580  143.2620 O   0  0  0  0  0  0  0  0  0  0  0  0
  181.7120  175.8250  136.4410 C   0  0  0  0  0  3  0  0  0  0  0  0
  180.1650  180.0010  141.6950 N   0  0  0  0  0  0  0  0  0  0  0  0
  184.1530  178.5150  138.7200 C   0  0  0  0  0  2  0  0  0  0  0  0
  181.2240  179.7600  136.0050 N   0  0  0  0  0  1  0  0  0  0  0  0
  181.0530  180.5010  137.2430 C   0  0  1  0  0  0  0  0  0  0  0  0
  180.2460  182.6870  138.1330 C   0  0  1  0  0  3  0  0  0  0  0  0
  180.2180  179.6420  138.2350 C   0  0  2  0  0  3  0  0  0  0  0  0
  185.3440  179.3800  141.4940 O   0  0  0  0  0  0  0  0  0  0  0  0
  181.6770  179.3030  140.1290 C   0  0  1  0  0  3  0  0  0  0  0  0
  178.9340  182.0330  139.1950 S   0  0  0  0  0  0  0  0  0  0  0  0
  180.3560  181.8110  136.9020 C   0  0  0  0  0  2  0  0  0  0  0  0
  184.3600  178.6560  141.1870 C   0  0  0  0  0  0  0  0  0  0  0  0
  181.8440  177.6360  138.0650 C   0  0  0  0  0  0  0  0  0  0  0  0
  180.7430  178.8190  142.1960 C   0  0  0  0  0  0  0  0  0  0  0  0
  179.9190  183.9850  137.7460 O   0  0  0  0  0  1  0  0  0  0  0  0
  183.1570  178.6270  142.0780 C   0  0  0  0  0  2  0  0  0  0  0  0
  181.0930  176.7170  137.3180 C   0  0  0  0  0  3  0  0  0  0  0  0
  183.8650  176.7420  137.0340 C   0  0  0  0  0  3  0  0  0  0  0  0
  183.0980  175.8400  136.2970 C   0  0  0  0  0  3  0  0  0  0  0  0
  184.4000  177.8760  140.0000 N   0  0  0  0  0  2  0  0  0  0  0  0
  180.7590  180.4120  140.4900 N   0  0  1  0  0  0  0  0  0  0  0  0
  181.8400  178.3580  141.3380 C   0  0  2  0  0  3  0  0  0  0  0  0
  179.7140  180.3990  139.4620 C   0  0  2  0  0  3  0  0  0  0  0  0
  179.3090  180.8700  142.4860 C   0  0  0  0  0  1  0  0  0  0  0  0
  181.0440  178.5810  138.9410 C   0  0  2  0  0  3  0  0  0  0  0  0
  1 16  1  0  0  0  0
  1  6  1  0  0  0  0
  4 20  1  0  0  0  0
  5 17  1  0  0  0  0
  5 27  1  0  0  0  0
  6 23  1  0  0  0  0
  8  7  1  6  0  0  0
  8  2  1  0  0  0  0
  8 10  1  0  0  0  0
  9 18  1  6  0  0  0
  9 13  1  0  0  0  0
 10 28  1  0  0  0  0
 10 26  1  0  0  0  0
 12 24  1  0  0  0  0
 12 25  1  0  0  0  0
 13 26  1  0  0  0  0
 14  8  1  0  0  0  0
 14  9  1  0  0  0  0
 15 11  2  0  0  0  0
 15 19  1  0  0  0  0
 16 28  1  0  0  0  0
 17  3  2  0  0  0  0
 20 16  2  0  0  0  0
 21  1  2  0  0  0  0
 22  4  2  0  0  0  0
 22 21  1  0  0  0  0
 23 15  1  0  0  0  0
 24  5  1  0  0  0  0
 25 19  1  0  0  0  0
 25 17  1  0  0  0  0
 26 24  1  0  0  0  0
 28 12  1  0  0  0  0
M  END
>  <MODEL>
4

>  <REMARK>
 VINA RESULT:      -5.5      3.253      5.586
  Name = 
  0 active torsions:
  status: ('A' for Active; 'I' for Inactive)
                            x       y       z     vdW  Elec       q    Type
                         _______ _______ _______ _____ _____    ______ ____

>  <TORSDO>
F 0

$$$$
=
 OpenBabel11122412013D

 28 32  0  0  1  0  0  0  0  0999 V2000
  180.3300  180.1160  140.5180 C   0  0  0  0  0  0  0  0  0  0  0  0
  183.4440  180.0630  139.4580 F   0  0  0  0  0  0  0  0  0  0  0  0
  179.7120  177.0910  135.2500 O   0  0  0  0  0  0  0  0  0  0  0  0
  179.6830  178.2630  142.5210 C   0  0  0  0  0  3  0  0  0  0  0  0
  181.8940  177.4800  136.0450 N   0  0  0  0  0  0  0  0  0  0  0  0
  180.5540  181.1460  139.4680 C   0  0  0  0  0  2  0  0  0  0  0  0
  183.4710  178.8850  141.4380 N   0  0  0  0  0  1  0  0  0  0  0  0
  183.7220  178.8220  140.0090 C   0  0  1  0  0  0  0  0  0  0  0  0
  185.5610  178.5630  138.3440 C   0  0  1  0  0  3  0  0  0  0  0  0
  182.8290  177.7100  139.3870 C   0  0  2  0  0  3  0  0  0  0  0  0
  179.9730  182.3010  136.6060 O   0  0  0  0  0  0  0  0  0  0  0  0
  181.4270  178.8700  137.7990 C   0  0  1  0  0  3  0  0  0  0  0  0
  184.9570  177.0430  137.5670 S   0  0  0  0  0  0  0  0  0  0  0  0
  185.2040  178.5310  139.8150 C   0  0  0  0  0  2  0  0  0  0  0  0
  179.7170  181.1870  137.1350 C   0  0  0  0  0  0  0  0  0  0  0  0
  180.6580  178.7460  140.3410 C   0  0  0  0  0  0  0  0  0  0  0  0
  180.5000  177.6780  136.0390 C   0  0  0  0  0  0  0  0  0  0  0  0
  186.9470  178.6280  138.2070 O   0  0  0  0  0  1  0  0  0  0  0  0
  179.6990  179.9530  136.2860 C   0  0  0  0  0  2  0  0  0  0  0  0
  180.3250  177.8390  141.3570 C   0  0  0  0  0  3  0  0  0  0  0  0
  179.6790  180.5280  141.6870 C   0  0  0  0  0  3  0  0  0  0  0  0
  179.3620  179.6090  142.6870 C   0  0  0  0  0  3  0  0  0  0  0  0
  179.4490  181.1100  138.5290 N   0  0  0  0  0  2  0  0  0  0  0  0
  182.5340  178.2560  137.0240 N   0  0  1  0  0  0  0  0  0  0  0  0
  180.0990  178.6760  137.0370 C   0  0  2  0  0  3  0  0  0  0  0  0
  183.1910  177.3310  137.9520 C   0  0  2  0  0  3  0  0  0  0  0  0
  182.6130  176.8280  134.9620 C   0  0  0  0  0  1  0  0  0  0  0  0
  181.3980  178.1620  139.1530 C   0  0  2  0  0  3  0  0  0  0  0  0
  1 21  1  0  0  0  0
  3 17  2  0  0  0  0
  4 22  1  0  0  0  0
  5 24  1  0  0  0  0
  6  1  1  0  0  0  0
  8  2  1  6  0  0  0
  8  7  1  0  0  0  0
  9 18  1  1  0  0  0
  9 14  1  0  0  0  0
 10  8  1  0  0  0  0
 11 15  2  0  0  0  0
 12 28  1  0  0  0  0
 13 26  1  0  0  0  0
 13  9  1  0  0  0  0
 14  8  1  0  0  0  0
 15 23  1  0  0  0  0
 16  1  2  0  0  0  0
 16 20  1  0  0  0  0
 17  5  1  0  0  0  0
 17 25  1  0  0  0  0
 19 25  1  0  0  0  0
 19 15  1  0  0  0  0
 20  4  2  0  0  0  0
 21 22  2  0  0  0  0
 23  6  1  0  0  0  0
 24 12  1  0  0  0  0
 24 26  1  0  0  0  0
 25 12  1  0  0  0  0
 26 10  1  0  0  0  0
 27  5  1  0  0  0  0
 28 10  1  0  0  0  0
 28 16  1  0  0  0  0
M  END
>  <MODEL>
5

>  <REMARK>
 VINA RESULT:      -5.2      3.078      5.034
  Name = 
  0 active torsions:
  status: ('A' for Active; 'I' for Inactive)
                            x       y       z     vdW  Elec       q    Type
                         _______ _______ _______ _____ _____    ______ ____

>  <TORSDO>
F 0

$$$$
=
 OpenBabel11122412013D

 28 32  0  0  1  0  0  0  0  0999 V2000
  182.2330  177.6550  137.0850 C   0  0  0  0  0  0  0  0  0  0  0  0
  182.0200  180.9340  137.2570 F   0  0  0  0  0  0  0  0  0  0  0  0
  179.3560  178.3540  142.4250 O   0  0  0  0  0  0  0  0  0  0  0  0
  180.3810  176.3910  135.4020 C   0  0  0  0  0  3  0  0  0  0  0  0
  179.6020  180.2500  141.0530 N   0  0  0  0  0  0  0  0  0  0  0  0
  183.2690  178.2110  137.9960 C   0  0  0  0  0  2  0  0  0  0  0  0
  180.8030  180.3570  135.3880 N   0  0  0  0  0  1  0  0  0  0  0  0
  180.7530  180.9870  136.6950 C   0  0  1  0  0  0  0  0  0  0  0  0
  180.4210  183.1970  137.8040 C   0  0  1  0  0  3  0  0  0  0  0  0
  179.7090  180.2430  137.5760 C   0  0  2  0  0  3  0  0  0  0  0  0
  184.5140  178.4960  140.8660 O   0  0  0  0  0  0  0  0  0  0  0  0
  180.9800  179.3910  139.4440 C   0  0  1  0  0  3  0  0  0  0  0  0
  178.9550  182.7520  138.7700 S   0  0  0  0  0  0  0  0  0  0  0  0
  180.3800  182.4480  136.4880 C   0  0  0  0  0  2  0  0  0  0  0  0
  183.4060  178.0490  140.4670 C   0  0  0  0  0  0  0  0  0  0  0  0
  180.8500  177.9490  137.2140 C   0  0  0  0  0  0  0  0  0  0  0  0
  179.8800  178.9230  141.4320 C   0  0  0  0  0  0  0  0  0  0  0  0
  180.4080  184.5680  137.5550 O   0  0  0  0  0  1  0  0  0  0  0  0
  182.1930  178.2020  141.3310 C   0  0  0  0  0  2  0  0  0  0  0  0
  179.9430  177.3050  136.3610 C   0  0  0  0  0  3  0  0  0  0  0  0
  182.6590  176.7300  136.1240 C   0  0  0  0  0  3  0  0  0  0  0  0
  181.7400  176.1060  135.2820 C   0  0  0  0  0  3  0  0  0  0  0  0
  183.3170  177.4050  139.2020 N   0  0  0  0  0  2  0  0  0  0  0  0
  180.3190  180.6360  139.9090 N   0  0  1  0  0  0  0  0  0  0  0  0
  180.8800  178.3150  140.5460 C   0  0  2  0  0  3  0  0  0  0  0  0
  179.3390  180.9650  138.8700 C   0  0  2  0  0  3  0  0  0  0  0  0
  178.9310  181.2050  141.9210 C   0  0  0  0  0  1  0  0  0  0  0  0
  180.2480  178.9560  138.1760 C   0  0  2  0  0  3  0  0  0  0  0  0
  1 16  1  0  0  0  0
  1  6  1  0  0  0  0
  4 20  1  0  0  0  0
  5 17  1  0  0  0  0
  5 27  1  0  0  0  0
  6 23  1  0  0  0  0
  8  7  1  6  0  0  0
  8  2  1  0  0  0  0
  8 10  1  0  0  0  0
  9 18  1  6  0  0  0
  9 13  1  0  0  0  0
 10 28  1  0  0  0  0
 10 26  1  0  0  0  0
 12 24  1  0  0  0  0
 12 25  1  0  0  0  0
 13 26  1  0  0  0  0
 14  8  1  0  0  0  0
 14  9  1  0  0  0  0
 15 11  2  0  0  0  0
 15 19  1  0  0  0  0
 16 28  1  0  0  0  0
 17  3  2  0  0  0  0
 20 16  2  0  0  0  0
 21  1  2  0  0  0  0
 22  4  2  0  0  0  0
 22 21  1  0  0  0  0
 23 15  1  0  0  0  0
 24  5  1  0  0  0  0
 25 19  1  0  0  0  0
 25 17  1  0  0  0  0
 26 24  1  0  0  0  0
 28 12  1  0  0  0  0
M  END
>  <MODEL>
6

>  <REMARK>
 VINA RESULT:      -4.8      3.315      5.787
  Name = 
  0 active torsions:
  status: ('A' for Active; 'I' for Inactive)
                            x       y       z     vdW  Elec       q    Type
                         _______ _______ _______ _____ _____    ______ ____

>  <TORSDO>
F 0

$$$$
=
 OpenBabel11122412013D

 28 32  0  0  1  0  0  0  0  0999 V2000
  179.6990  181.3170  139.0950 C   0  0  0  0  0  0  0  0  0  0  0  0
  179.2790  178.5230  137.4100 F   0  0  0  0  0  0  0  0  0  0  0  0
  185.2490  178.8180  139.5870 O   0  0  0  0  0  0  0  0  0  0  0  0
  180.0600  183.6350  137.5600 C   0  0  0  0  0  3  0  0  0  0  0  0
  183.7270  177.8280  138.0890 N   0  0  0  0  0  0  0  0  0  0  0  0
  179.5080  180.1620  140.0140 C   0  0  0  0  0  2  0  0  0  0  0  0
  178.9310  180.2020  135.8720 N   0  0  0  0  0  1  0  0  0  0  0  0
  179.7450  179.0490  136.2150 C   0  0  1  0  0  0  0  0  0  0  0  0
  180.2830  176.7290  135.4740 C   0  0  1  0  0  3  0  0  0  0  0  0
  181.2300  179.4950  136.3300 C   0  0  2  0  0  3  0  0  0  0  0  0
  180.5950  178.2380  142.2450 O   0  0  0  0  0  0  0  0  0  0  0  0
  181.8400  179.0070  138.6160 C   0  0  1  0  0  3  0  0  0  0  0  0
  182.0540  176.9810  135.1950 S   0  0  0  0  0  0  0  0  0  0  0  0
  179.5500  178.0070  135.1230 C   0  0  0  0  0  2  0  0  0  0  0  0
  181.1700  179.0690  141.4940 C   0  0  0  0  0  0  0  0  0  0  0  0
  180.6760  181.3330  138.0650 C   0  0  0  0  0  0  0  0  0  0  0  0
  184.0780  178.6970  139.1410 C   0  0  0  0  0  0  0  0  0  0  0  0
  179.8310  175.6980  134.6520 O   0  0  0  0  0  1  0  0  0  0  0  0
  182.5730  178.8070  141.0390 C   0  0  0  0  0  2  0  0  0  0  0  0
  180.8370  182.5030  137.3100 C   0  0  0  0  0  3  0  0  0  0  0  0
  178.9310  182.4610  139.3410 C   0  0  0  0  0  3  0  0  0  0  0  0
  179.1040  183.6120  138.5740 C   0  0  0  0  0  3  0  0  0  0  0  0
  180.4850  180.2450  141.0840 N   0  0  0  0  0  2  0  0  0  0  0  0
  182.3570  177.8890  137.7870 N   0  0  1  0  0  0  0  0  0  0  0  0
  182.9020  179.4020  139.6630 C   0  0  2  0  0  3  0  0  0  0  0  0
  182.2350  178.3460  136.4000 C   0  0  2  0  0  3  0  0  0  0  0  0
  184.5920  176.7620  137.6110 C   0  0  0  0  0  1  0  0  0  0  0  0
  181.5480  180.1600  137.6580 C   0  0  2  0  0  3  0  0  0  0  0  0
  1 21  1  0  0  0  0
  1  6  1  0  0  0  0
  4 22  1  0  0  0  0
  5 17  1  0  0  0  0
  6 23  1  0  0  0  0
  8  7  1  6  0  0  0
  8 10  1  0  0  0  0
  8  2  1  0  0  0  0
  9 18  1  6  0  0  0
 10 26  1  0  0  0  0
 10 28  1  0  0  0  0
 12 25  1  0  0  0  0
 13  9  1  0  0  0  0
 13 26  1  0  0  0  0
 14  9  1  0  0  0  0
 14  8  1  0  0  0  0
 15 11  2  0  0  0  0
 16  1  2  0  0  0  0
 17  3  2  0  0  0  0
 17 25  1  0  0  0  0
 19 15  1  0  0  0  0
 20  4  2  0  0  0  0
 20 16  1  0  0  0  0
 22 21  2  0  0  0  0
 23 15  1  0  0  0  0
 24  5  1  0  0  0  0
 24 12  1  0  0  0  0
 25 19  1  0  0  0  0
 26 24  1  0  0  0  0
 27  5  1  0  0  0  0
 28 16  1  0  0  0  0
 28 12  1  0  0  0  0
M  END
>  <MODEL>
7

>  <REMARK>
 VINA RESULT:      -4.7      2.557      3.595
  Name = 
  0 active torsions:
  status: ('A' for Active; 'I' for Inactive)
                            x       y       z     vdW  Elec       q    Type
                         _______ _______ _______ _____ _____    ______ ____

>  <TORSDO>
F 0

$$$$
=
 OpenBabel11122412013D

 28 32  0  0  1  0  0  0  0  0999 V2000
  185.1480  174.4410  135.6670 C   0  0  0  0  0  0  0  0  0  0  0  0
  182.5100  176.2750  134.9590 F   0  0  0  0  0  0  0  0  0  0  0  0
  185.7060  178.9170  139.7820 O   0  0  0  0  0  0  0  0  0  0  0  0
  184.6630  172.1160  137.1580 C   0  0  0  0  0  3  0  0  0  0  0  0
  183.6970  178.7890  138.5640 N   0  0  0  0  0  0  0  0  0  0  0  0
  185.5280  175.6370  134.8670 C   0  0  0  0  0  2  0  0  0  0  0  0
  181.6570  174.2390  135.6170 N   0  0  0  0  0  1  0  0  0  0  0  0
  181.6990  175.6620  135.9010 C   0  0  1  0  0  0  0  0  0  0  0  0
  180.2730  177.7090  135.9150 C   0  0  1  0  0  3  0  0  0  0  0  0
  182.2420  175.8740  137.3430 C   0  0  2  0  0  3  0  0  0  0  0  0
  187.0580  178.3660  134.5940 O   0  0  0  0  0  0  0  0  0  0  0  0
  184.2600  177.1690  137.0530 C   0  0  1  0  0  3  0  0  0  0  0  0
  180.4380  178.0930  137.6760 S   0  0  0  0  0  0  0  0  0  0  0  0
  180.2850  176.2040  135.7430 C   0  0  0  0  0  2  0  0  0  0  0  0
  186.7840  177.6490  135.5920 C   0  0  0  0  0  0  0  0  0  0  0  0
  184.3950  174.5200  136.8680 C   0  0  0  0  0  0  0  0  0  0  0  0
  185.0380  178.4500  138.8230 C   0  0  0  0  0  0  0  0  0  0  0  0
  179.0620  178.2160  135.4460 O   0  0  0  0  0  1  0  0  0  0  0  0
  186.5320  178.2950  136.9190 C   0  0  0  0  0  2  0  0  0  0  0  0
  184.1650  173.3440  137.5950 C   0  0  0  0  0  3  0  0  0  0  0  0
  185.6490  173.2050  135.2420 C   0  0  0  0  0  3  0  0  0  0  0  0
  185.4030  172.0470  135.9790 C   0  0  0  0  0  3  0  0  0  0  0  0
  186.7150  176.2360  135.4500 N   0  0  0  0  0  2  0  0  0  0  0  0
  183.1900  178.1240  137.4360 N   0  0  1  0  0  0  0  0  0  0  0  0
  185.5570  177.5190  137.8140 C   0  0  2  0  0  3  0  0  0  0  0  0
  182.0700  177.2930  137.8850 C   0  0  2  0  0  3  0  0  0  0  0  0
  183.0290  179.9300  139.1700 C   0  0  0  0  0  1  0  0  0  0  0  0
  183.7550  175.7760  137.4270 C   0  0  2  0  0  3  0  0  0  0  0  0
  1 16  1  0  0  0  0
  4 20  1  0  0  0  0
  5 17  1  0  0  0  0
  5 27  1  0  0  0  0
  6 23  1  0  0  0  0
  6  1  1  0  0  0  0
  7  8  1  0  0  0  0
  8  2  1  6  0  0  0
  8 10  1  0  0  0  0
  9 18  1  1  0  0  0
  9 13  1  0  0  0  0
 10 28  1  0  0  0  0
 10 26  1  0  0  0  0
 11 15  2  0  0  0  0
 12 28  1  0  0  0  0
 12 24  1  0  0  0  0
 12 25  1  0  0  0  0
 13 26  1  0  0  0  0
 14  8  1  0  0  0  0
 14  9  1  0  0  0  0
 15 19  1  0  0  0  0
 16 28  1  0  0  0  0
 16 20  2  0  0  0  0
 17  3  2  0  0  0  0
 19 25  1  0  0  0  0
 21  1  2  0  0  0  0
 21 22  1  0  0  0  0
 22  4  2  0  0  0  0
 23 15  1  0  0  0  0
 24 26  1  0  0  0  0
 24  5  1  0  0  0  0
 25 17  1  0  0  0  0
M  END
>  <MODEL>
8

>  <REMARK>
 VINA RESULT:      -4.7      2.788      5.656
  Name = 
  0 active torsions:
  status: ('A' for Active; 'I' for Inactive)
                            x       y       z     vdW  Elec       q    Type
                         _______ _______ _______ _____ _____    ______ ____

>  <TORSDO>
F 0

$$$$
=
 OpenBabel11122412013D

 28 32  0  0  1  0  0  0  0  0999 V2000
  183.4580  176.9970  137.2990 C   0  0  0  0  0  0  0  0  0  0  0  0
  181.1350  177.1500  139.6240 F   0  0  0  0  0  0  0  0  0  0  0  0
  180.4530  182.0370  135.6110 O   0  0  0  0  0  0  0  0  0  0  0  0
  186.0120  177.8720  138.0560 C   0  0  0  0  0  3  0  0  0  0  0  0
  179.9390  181.1020  137.7090 N   0  0  0  0  0  0  0  0  0  0  0  0
  182.1530  176.4980  136.7850 C   0  0  0  0  0  2  0  0  0  0  0  0
  183.1280  177.3530  140.7620 N   0  0  0  0  0  1  0  0  0  0  0  0
  181.8640  177.9950  140.4470 C   0  0  1  0  0  0  0  0  0  0  0  0
  179.7200  178.7350  141.4840 C   0  0  1  0  0  3  0  0  0  0  0  0
  182.1480  179.3580  139.7530 C   0  0  2  0  0  3  0  0  0  0  0  0
  179.7110  176.7560  134.8280 O   0  0  0  0  0  0  0  0  0  0  0  0
  181.1320  179.1570  137.5710 C   0  0  1  0  0  3  0  0  0  0  0  0
  179.8750  180.4980  141.1030 S   0  0  0  0  0  0  0  0  0  0  0  0
  181.1000  178.1720  141.7510 C   0  0  0  0  0  2  0  0  0  0  0  0
  180.6320  177.5570  135.1370 C   0  0  0  0  0  0  0  0  0  0  0  0
  183.6110  178.2640  137.9210 C   0  0  0  0  0  0  0  0  0  0  0  0
  180.5290  181.0850  136.4310 C   0  0  0  0  0  0  0  0  0  0  0  0
  178.9310  178.5790  142.6220 O   0  0  0  0  0  1  0  0  0  0  0  0
  180.3570  179.0290  135.1570 C   0  0  0  0  0  2  0  0  0  0  0  0
  184.8990  178.6790  138.2900 C   0  0  0  0  0  3  0  0  0  0  0  0
  184.5830  176.1990  137.0620 C   0  0  0  0  0  3  0  0  0  0  0  0
  185.8530  176.6300  137.4430 C   0  0  0  0  0  3  0  0  0  0  0  0
  181.9220  177.0580  135.4660 N   0  0  0  0  0  2  0  0  0  0  0  0
  180.1780  179.9150  138.4190 N   0  0  1  0  0  0  0  0  0  0  0  0
  181.2030  179.8070  136.1730 C   0  0  2  0  0  3  0  0  0  0  0  0
  180.9310  180.2720  139.6250 C   0  0  2  0  0  3  0  0  0  0  0  0
  178.9310  182.0710  138.1100 C   0  0  0  0  0  1  0  0  0  0  0  0
  182.4840  179.2140  138.2790 C   0  0  2  0  0  3  0  0  0  0  0  0
  1 16  1  0  0  0  0
  3 17  2  0  0  0  0
  4 20  1  0  0  0  0
  5 27  1  0  0  0  0
  5 24  1  0  0  0  0
  6  1  1  0  0  0  0
  8  2  1  6  0  0  0
  8  7  1  0  0  0  0
  8 14  1  0  0  0  0
  9 14  1  0  0  0  0
  9 18  1  1  0  0  0
 10  8  1  0  0  0  0
 11 15  2  0  0  0  0
 12 28  1  0  0  0  0
 12 24  1  0  0  0  0
 13  9  1  0  0  0  0
 15 19  1  0  0  0  0
 15 23  1  0  0  0  0
 16 28  1  0  0  0  0
 16 20  2  0  0  0  0
 17  5  1  0  0  0  0
 19 25  1  0  0  0  0
 21  1  2  0  0  0  0
 21 22  1  0  0  0  0
 22  4  2  0  0  0  0
 23  6  1  0  0  0  0
 24 26  1  0  0  0  0
 25 17  1  0  0  0  0
 25 12  1  0  0  0  0
 26 10  1  0  0  0  0
 26 13  1  0  0  0  0
 28 10  1  0  0  0  0
M  END
>  <MODEL>
9

>  <REMARK>
 VINA RESULT:      -4.7      3.007      5.510
  Name = 
  0 active torsions:
  status: ('A' for Active; 'I' for Inactive)
                            x       y       z     vdW  Elec       q    Type
                         _______ _______ _______ _____ _____    ______ ____

>  <TORSDO>
F 0

$$$$
