=
 OpenBabel11122411473D

 37 43  0  0  1  0  0  0  0  0999 V2000
  187.5070  177.6220  141.6360 C   0  0  1  0  0  3  0  0  0  0  0  0
  190.5660  176.2620  142.0340 O   0  0  0  0  0  0  0  0  0  0  0  0
  185.4530  178.4650  143.0460 C   0  0  2  0  0  3  0  0  0  0  0  0
  188.8880  177.9670  142.0920 C   0  0  2  0  0  3  0  0  0  0  0  0
  186.7820  177.6880  142.9860 C   0  0  2  0  0  3  0  0  0  0  0  0
  190.0290  177.3300  141.2950 C   0  0  2  0  0  3  0  0  0  0  0  0
  185.3120  179.5060  141.9500 C   0  0  0  0  0  2  0  0  0  0  0  0
  187.7140  178.0800  143.9680 O   0  0  0  0  0  0  0  0  0  0  0  0
  187.4640  178.0650  139.3220 C   0  0  0  0  0  2  0  0  0  0  0  0
  185.6950  178.8630  140.6320 C   0  0  0  0  0  2  0  0  0  0  0  0
  192.1140  178.1250  142.8560 C   0  0  0  0  0  2  0  0  0  0  0  0
  191.7050  176.6550  142.7990 C   0  0  1  0  0  3  0  0  0  0  0  0
  187.1300  178.6240  140.6310 N   0  0  1  0  0  0  0  0  0  0  0  0
  188.9070  177.6090  143.4980 N   0  0  2  0  0  0  0  0  0  0  0  0
  189.6550  176.9090  139.8600 C   0  0  1  0  0  3  0  0  0  0  0  0
  191.3530  177.5290  144.0290 C   0  0  2  0  0  3  0  0  0  0  0  0
  190.0270  178.3180  144.1240 C   0  0  2  0  0  3  0  0  0  0  0  0
  188.9770  178.0440  139.0820 C   0  0  0  0  0  2  0  0  0  0  0  0
  192.0700  177.1050  139.2570 C   0  0  0  0  0  3  0  0  0  0  0  0
  190.8610  176.4210  139.1170 C   0  0  0  0  0  0  0  0  0  0  0  0
  190.7950  175.2980  138.2810 C   0  0  0  0  0  3  0  0  0  0  0  0
  191.8890  173.7450  136.7500 N   0  0  0  0  0  1  0  0  0  0  0  0
  193.1080  175.5650  137.7540 N   0  0  0  0  0  0  0  0  0  0  0  0
  191.9410  174.8820  137.6020 C   0  0  0  0  0  0  0  0  0  0  0  0
  193.1950  176.6570  138.5600 C   0  0  0  0  0  3  0  0  0  0  0  0
  189.7600  178.6100  145.5990 C   0  0  0  0  0  2  0  0  0  0  0  0
  190.1300  177.4120  146.4600 C   0  0  0  0  0  0  0  0  0  0  0  0
  189.5520  177.4250  147.8550 C   0  0  0  0  0  2  0  0  0  0  0  0
  188.9860  176.4860  146.7970 C   0  0  0  0  0  2  0  0  0  0  0  0
  191.4870  176.7280  146.3200 C   0  0  0  0  0  2  0  0  0  0  0  0
  191.7340  175.7360  147.4470 C   0  0  0  0  0  2  0  0  0  0  0  0
  192.8330  176.1370  148.2070 O   0  0  0  0  0  1  0  0  0  0  0  0
  185.2650  179.0620  144.3060 O   0  0  0  0  0  0  0  0  0  0  0  0
  183.8860  179.0500  144.5970 C   0  0  0  0  0  0  0  0  0  0  0  0
  183.3200  180.2930  144.3590 F   0  0  0  0  0  0  0  0  0  0  0  0
  183.2320  178.0840  143.8460 F   0  0  0  0  0  0  0  0  0  0  0  0
  183.7220  178.7440  145.9350 F   0  0  0  0  0  0  0  0  0  0  0  0
  1  4  1  0  0  0  0
  1  5  1  0  0  0  0
  2 12  1  0  0  0  0
  3 33  1  0  0  0  0
  4 14  1  0  0  0  0
  5  3  1  0  0  0  0
  5  8  1  0  0  0  0
  6  2  1  0  0  0  0
  6  4  1  0  0  0  0
  7  3  1  0  0  0  0
  9 13  1  0  0  0  0
 10  7  1  0  0  0  0
 11 16  1  0  0  0  0
 12 11  1  0  0  0  0
 12 16  1  0  0  0  0
 13 10  1  0  0  0  0
 13  1  1  0  0  0  0
 14  8  1  0  0  0  0
 14 17  1  0  0  0  0
 15  6  1  0  0  0  0
 16 17  1  0  0  0  0
 17 26  1  0  0  0  0
 18  9  1  0  0  0  0
 18 15  1  0  0  0  0
 20 19  1  0  0  0  0
 20 15  1  0  0  0  0
 21 20  2  0  0  0  0
 22 24  1  0  0  0  0
 23 25  1  0  0  0  0
 24 23  2  0  0  0  0
 24 21  1  0  0  0  0
 25 19  2  0  0  0  0
 26 27  1  0  0  0  0
 27 29  1  0  0  0  0
 27 28  1  0  0  0  0
 29 28  1  0  0  0  0
 30 27  1  0  0  0  0
 30 31  1  0  0  0  0
 31 32  1  0  0  0  0
 33 34  1  0  0  0  0
 34 37  1  0  0  0  0
 35 34  1  0  0  0  0
 36 34  1  0  0  0  0
M  END
>  <MODEL>
1

>  <REMARK>
 VINA RESULT:      -9.0      0.000      0.000
  Name = 
  7 active torsions:
  status: ('A' for Active; 'I' for Inactive)
    1  A    between atoms: C_1  and  C_4
    2  A    between atoms: C_1  and  C_27
    3  A    between atoms: C_2  and  O_22
    4  A    between atoms: C_4  and  C_12
    5  A    between atoms: C_6  and  O_22
    6  A    between atoms: C_8  and  C_12
    7  A    between atoms: C_23  and  C_30
                            x       y       z     vdW  Elec       q    Type
                         _______ _______ _______ _____ _____    ______ ____

>  <TORSDO>
F 7

$$$$
=
 OpenBabel11122411473D

 37 43  0  0  1  0  0  0  0  0999 V2000
  185.6890  178.8990  141.1210 C   0  0  1  0  0  3  0  0  0  0  0  0
  188.9640  178.7770  140.3350 O   0  0  0  0  0  0  0  0  0  0  0  0
  183.3410  179.3150  140.0100 C   0  0  2  0  0  3  0  0  0  0  0  0
  186.6860  178.0480  140.4060 C   0  0  2  0  0  3  0  0  0  0  0  0
  184.8770  179.3890  139.9140 C   0  0  2  0  0  3  0  0  0  0  0  0
  188.0710  177.9630  141.0520 C   0  0  2  0  0  3  0  0  0  0  0  0
  182.8460  178.2880  141.0120 C   0  0  0  0  0  2  0  0  0  0  0  0
  185.4040  178.7830  138.7560 O   0  0  0  0  0  0  0  0  0  0  0  0
  185.6920  178.1540  143.3570 C   0  0  0  0  0  2  0  0  0  0  0  0
  183.6250  178.4650  142.2990 C   0  0  0  0  0  2  0  0  0  0  0  0
  189.3560  176.5780  139.0900 C   0  0  0  0  0  2  0  0  0  0  0  0
  189.6950  178.0430  139.3530 C   0  0  1  0  0  3  0  0  0  0  0  0
  184.9950  178.0270  142.0770 N   0  0  1  0  0  0  0  0  0  0  0  0
  186.7210  178.5820  139.0560 N   0  0  2  0  0  0  0  0  0  0  0  0
  188.0970  178.2680  142.5620 C   0  0  1  0  0  3  0  0  0  0  0  0
  188.8430  177.6350  138.1260 C   0  0  2  0  0  3  0  0  0  0  0  0
  187.3010  177.5560  138.1850 C   0  0  2  0  0  3  0  0  0  0  0  0
  187.0530  177.4520  143.3350 C   0  0  0  0  0  2  0  0  0  0  0  0
  190.2300  179.1240  143.5380 C   0  0  0  0  0  3  0  0  0  0  0  0
  189.4620  178.0310  143.1310 C   0  0  0  0  0  0  0  0  0  0  0  0
  189.9840  176.7360  143.2540 C   0  0  0  0  0  3  0  0  0  0  0  0
  191.8070  175.2540  143.9140 N   0  0  0  0  0  1  0  0  0  0  0  0
  191.9930  177.6420  144.1730 N   0  0  0  0  0  0  0  0  0  0  0  0
  191.2640  176.5610  143.7830 C   0  0  0  0  0  0  0  0  0  0  0  0
  191.5060  178.9080  144.0620 C   0  0  0  0  0  3  0  0  0  0  0  0
  186.7710  177.6600  136.7560 C   0  0  0  0  0  2  0  0  0  0  0  0
  186.0220  176.3940  136.3670 C   0  0  0  0  0  0  0  0  0  0  0  0
  184.5250  176.5480  136.2510 C   0  0  0  0  0  2  0  0  0  0  0  0
  185.3840  176.4200  134.9990 C   0  0  0  0  0  2  0  0  0  0  0  0
  186.5050  175.0200  136.8210 C   0  0  0  0  0  2  0  0  0  0  0  0
  185.3430  174.1100  137.1910 C   0  0  0  0  0  2  0  0  0  0  0  0
  185.7970  173.0470  137.9720 O   0  0  0  0  0  1  0  0  0  0  0  0
  182.7600  179.0820  138.7510 O   0  0  0  0  0  0  0  0  0  0  0  0
  181.9340  180.1800  138.4360 C   0  0  0  0  0  0  0  0  0  0  0  0
  180.8030  180.1930  139.2380 F   0  0  0  0  0  0  0  0  0  0  0  0
  182.6260  181.3740  138.5800 F   0  0  0  0  0  0  0  0  0  0  0  0
  181.5340  180.0660  137.1190 F   0  0  0  0  0  0  0  0  0  0  0  0
  1 13  1  0  0  0  0
  2  6  1  0  0  0  0
  3  7  1  0  0  0  0
  4  6  1  0  0  0  0
  4  1  1  0  0  0  0
  5  3  1  0  0  0  0
  5  1  1  0  0  0  0
  6 15  1  0  0  0  0
  7 10  1  0  0  0  0
  8 14  1  0  0  0  0
  8  5  1  0  0  0  0
 11 12  1  0  0  0  0
 12  2  1  0  0  0  0
 13 10  1  0  0  0  0
 13  9  1  0  0  0  0
 14  4  1  0  0  0  0
 15 20  1  0  0  0  0
 15 18  1  0  0  0  0
 16 17  1  0  0  0  0
 16 11  1  0  0  0  0
 16 12  1  0  0  0  0
 17 14  1  0  0  0  0
 18  9  1  0  0  0  0
 19 25  1  0  0  0  0
 20 21  1  0  0  0  0
 20 19  2  0  0  0  0
 21 24  2  0  0  0  0
 24 22  1  0  0  0  0
 24 23  1  0  0  0  0
 25 23  2  0  0  0  0
 26 17  1  0  0  0  0
 27 26  1  0  0  0  0
 27 30  1  0  0  0  0
 28 27  1  0  0  0  0
 29 28  1  0  0  0  0
 29 27  1  0  0  0  0
 30 31  1  0  0  0  0
 31 32  1  0  0  0  0
 33  3  1  0  0  0  0
 34 36  1  0  0  0  0
 34 33  1  0  0  0  0
 34 35  1  0  0  0  0
 37 34  1  0  0  0  0
M  END
>  <MODEL>
2

>  <REMARK>
 VINA RESULT:      -8.7      3.663      6.899
  Name = 
  7 active torsions:
  status: ('A' for Active; 'I' for Inactive)
    1  A    between atoms: C_1  and  C_4
    2  A    between atoms: C_1  and  C_27
    3  A    between atoms: C_2  and  O_22
    4  A    between atoms: C_4  and  C_12
    5  A    between atoms: C_6  and  O_22
    6  A    between atoms: C_8  and  C_12
    7  A    between atoms: C_23  and  C_30
                            x       y       z     vdW  Elec       q    Type
                         _______ _______ _______ _____ _____    ______ ____

>  <TORSDO>
F 7

$$$$
=
 OpenBabel11122411473D

 37 43  0  0  1  0  0  0  0  0999 V2000
  186.4410  178.6710  142.6340 C   0  0  1  0  0  3  0  0  0  0  0  0
  189.7690  178.5400  143.1500 O   0  0  0  0  0  0  0  0  0  0  0  0
  184.6910  179.2630  140.7610 C   0  0  2  0  0  3  0  0  0  0  0  0
  187.6480  177.8700  142.2690 C   0  0  2  0  0  3  0  0  0  0  0  0
  186.1450  179.3040  141.2680 C   0  0  2  0  0  3  0  0  0  0  0  0
  188.6810  177.6810  143.3820 C   0  0  2  0  0  3  0  0  0  0  0  0
  183.8640  178.1530  141.3840 C   0  0  0  0  0  2  0  0  0  0  0  0
  187.0840  178.8060  140.3410 O   0  0  0  0  0  0  0  0  0  0  0  0
  185.5980  177.7020  144.6100 C   0  0  0  0  0  2  0  0  0  0  0  0
  184.0900  178.1760  142.8820 C   0  0  0  0  0  2  0  0  0  0  0  0
  190.6370  176.4700  141.9250 C   0  0  0  0  0  2  0  0  0  0  0  0
  190.8300  177.8900  142.4500 C   0  0  1  0  0  3  0  0  0  0  0  0
  185.4460  177.7250  143.1560 N   0  0  1  0  0  0  0  0  0  0  0  0
  188.1880  178.5390  141.0990 N   0  0  2  0  0  0  0  0  0  0  0  0
  188.1230  177.8300  144.8100 C   0  0  1  0  0  3  0  0  0  0  0  0
  190.5180  177.6340  140.9550 C   0  0  2  0  0  3  0  0  0  0  0  0
  189.0710  177.5920  140.4120 C   0  0  2  0  0  3  0  0  0  0  0  0
  186.8740  176.9680  145.0360 C   0  0  0  0  0  2  0  0  0  0  0  0
  189.0510  178.0140  147.1210 C   0  0  0  0  0  3  0  0  0  0  0  0
  189.1700  177.4980  145.8290 C   0  0  0  0  0  0  0  0  0  0  0  0
  190.2680  176.6890  145.5060 C   0  0  0  0  0  3  0  0  0  0  0  0
  192.3430  175.5920  146.1720 N   0  0  0  0  0  1  0  0  0  0  0  0
  191.0860  176.9240  147.7370 N   0  0  0  0  0  0  0  0  0  0  0  0
  191.2240  176.4110  146.4850 C   0  0  0  0  0  0  0  0  0  0  0  0
  190.0290  177.7120  148.0720 C   0  0  0  0  0  3  0  0  0  0  0  0
  189.1270  177.8550  138.9090 C   0  0  0  0  0  2  0  0  0  0  0  0
  189.2930  176.5530  138.1400 C   0  0  0  0  0  0  0  0  0  0  0  0
  188.0080  175.8180  137.8440 C   0  0  0  0  0  2  0  0  0  0  0  0
  188.7410  176.5620  136.7350 C   0  0  0  0  0  2  0  0  0  0  0  0
  190.5220  175.6710  138.3390 C   0  0  0  0  0  2  0  0  0  0  0  0
  191.7080  176.1680  137.5270 C   0  0  0  0  0  2  0  0  0  0  0  0
  192.6860  176.6870  138.3750 O   0  0  0  0  0  1  0  0  0  0  0  0
  184.6390  179.1760  139.3590 O   0  0  0  0  0  0  0  0  0  0  0  0
  183.3940  179.6830  138.9320 C   0  0  0  0  0  0  0  0  0  0  0  0
  182.4150  179.4540  139.8850 F   0  0  0  0  0  0  0  0  0  0  0  0
  183.4810  181.0400  138.6620 F   0  0  0  0  0  0  0  0  0  0  0  0
  183.0310  179.0310  137.7680 F   0  0  0  0  0  0  0  0  0  0  0  0
  1 13  1  0  0  0  0
  2  6  1  0  0  0  0
  3  5  1  0  0  0  0
  3  7  1  0  0  0  0
  4  1  1  0  0  0  0
  4  6  1  0  0  0  0
  5  1  1  0  0  0  0
  6 15  1  0  0  0  0
  7 10  1  0  0  0  0
  8 14  1  0  0  0  0
  8  5  1  0  0  0  0
  9 18  1  0  0  0  0
 10 13  1  0  0  0  0
 11 12  1  0  0  0  0
 12  2  1  0  0  0  0
 13  9  1  0  0  0  0
 14  4  1  0  0  0  0
 15 18  1  0  0  0  0
 15 20  1  0  0  0  0
 16 11  1  0  0  0  0
 16 12  1  0  0  0  0
 17 16  1  0  0  0  0
 17 14  1  0  0  0  0
 19 25  1  0  0  0  0
 20 19  2  0  0  0  0
 21 20  1  0  0  0  0
 21 24  2  0  0  0  0
 22 24  1  0  0  0  0
 23 25  2  0  0  0  0
 24 23  1  0  0  0  0
 26 17  1  0  0  0  0
 27 30  1  0  0  0  0
 27 26  1  0  0  0  0
 28 27  1  0  0  0  0
 29 28  1  0  0  0  0
 29 27  1  0  0  0  0
 31 30  1  0  0  0  0
 31 32  1  0  0  0  0
 33  3  1  0  0  0  0
 34 33  1  0  0  0  0
 34 35  1  0  0  0  0
 36 34  1  0  0  0  0
 37 34  1  0  0  0  0
M  END
>  <MODEL>
3

>  <REMARK>
 VINA RESULT:      -8.7      2.853      6.433
  Name = 
  7 active torsions:
  status: ('A' for Active; 'I' for Inactive)
    1  A    between atoms: C_1  and  C_4
    2  A    between atoms: C_1  and  C_27
    3  A    between atoms: C_2  and  O_22
    4  A    between atoms: C_4  and  C_12
    5  A    between atoms: C_6  and  O_22
    6  A    between atoms: C_8  and  C_12
    7  A    between atoms: C_23  and  C_30
                            x       y       z     vdW  Elec       q    Type
                         _______ _______ _______ _____ _____    ______ ____

>  <TORSDO>
F 7

$$$$
=
 OpenBabel11122411473D

 37 43  0  0  1  0  0  0  0  0999 V2000
  187.3230  177.7580  142.1050 C   0  0  1  0  0  3  0  0  0  0  0  0
  190.3460  176.2820  141.8960 O   0  0  0  0  0  0  0  0  0  0  0  0
  185.6110  178.6500  143.8920 C   0  0  2  0  0  3  0  0  0  0  0  0
  188.7780  178.0450  142.2910 C   0  0  2  0  0  3  0  0  0  0  0  0
  186.8720  177.8260  143.5700 C   0  0  2  0  0  3  0  0  0  0  0  0
  189.7200  177.3810  141.2840 C   0  0  2  0  0  3  0  0  0  0  0  0
  185.3030  179.7140  142.8540 C   0  0  0  0  0  2  0  0  0  0  0  0
  187.9900  178.1670  144.3580 O   0  0  0  0  0  0  0  0  0  0  0  0
  186.8550  178.2420  139.8470 C   0  0  0  0  0  2  0  0  0  0  0  0
  185.4020  179.0810  141.4810 C   0  0  0  0  0  2  0  0  0  0  0  0
  192.0940  178.0720  142.4240 C   0  0  0  0  0  2  0  0  0  0  0  0
  191.6250  176.6190  142.4320 C   0  0  1  0  0  3  0  0  0  0  0  0
  186.8000  178.7900  141.2010 N   0  0  1  0  0  0  0  0  0  0  0  0
  189.0520  177.6610  143.6640 N   0  0  2  0  0  0  0  0  0  0  0  0
  189.0620  176.9980  139.9440 C   0  0  1  0  0  3  0  0  0  0  0  0
  191.5490  177.4840  143.7150 C   0  0  2  0  0  3  0  0  0  0  0  0
  190.2970  178.3190  144.0710 C   0  0  2  0  0  3  0  0  0  0  0  0
  188.2920  178.1700  139.3210 C   0  0  0  0  0  2  0  0  0  0  0  0
  189.6990  175.5450  138.0150 C   0  0  0  0  0  3  0  0  0  0  0  0
  190.0840  176.4800  138.9780 C   0  0  0  0  0  0  0  0  0  0  0  0
  191.4170  176.9110  139.0290 C   0  0  0  0  0  3  0  0  0  0  0  0
  193.6930  176.8240  138.1540 N   0  0  0  0  0  1  0  0  0  0  0  0
  191.9380  175.4870  137.1840 N   0  0  0  0  0  0  0  0  0  0  0  0
  192.3370  176.3970  138.1140 C   0  0  0  0  0  0  0  0  0  0  0  0
  190.6500  175.0550  137.1170 C   0  0  0  0  0  3  0  0  0  0  0  0
  190.3290  178.5940  145.5730 C   0  0  0  0  0  2  0  0  0  0  0  0
  190.4830  177.2980  146.3540 C   0  0  0  0  0  0  0  0  0  0  0  0
  189.8820  177.3130  147.7390 C   0  0  0  0  0  2  0  0  0  0  0  0
  189.1990  176.5480  146.6130 C   0  0  0  0  0  2  0  0  0  0  0  0
  191.7170  176.4170  146.1860 C   0  0  0  0  0  2  0  0  0  0  0  0
  191.9580  175.5480  147.4110 C   0  0  0  0  0  2  0  0  0  0  0  0
  193.0800  175.9990  148.1060 O   0  0  0  0  0  1  0  0  0  0  0  0
  185.6900  179.2310  145.1700 O   0  0  0  0  0  0  0  0  0  0  0  0
  184.9850  178.4080  146.0720 C   0  0  0  0  0  0  0  0  0  0  0  0
  183.6370  178.3650  145.7500 F   0  0  0  0  0  0  0  0  0  0  0  0
  185.5080  177.1230  146.0800 F   0  0  0  0  0  0  0  0  0  0  0  0
  185.1140  178.9370  147.3420 F   0  0  0  0  0  0  0  0  0  0  0  0
  1  4  1  0  0  0  0
  1  5  1  0  0  0  0
  2 12  1  0  0  0  0
  3 33  1  0  0  0  0
  4 14  1  0  0  0  0
  5  3  1  0  0  0  0
  5  8  1  0  0  0  0
  6  2  1  0  0  0  0
  6  4  1  0  0  0  0
  7  3  1  0  0  0  0
  9 13  1  0  0  0  0
 10  7  1  0  0  0  0
 11 12  1  0  0  0  0
 11 16  1  0  0  0  0
 12 16  1  0  0  0  0
 13 10  1  0  0  0  0
 13  1  1  0  0  0  0
 14 17  1  0  0  0  0
 14  8  1  0  0  0  0
 15  6  1  0  0  0  0
 16 17  1  0  0  0  0
 17 26  1  0  0  0  0
 18  9  1  0  0  0  0
 18 15  1  0  0  0  0
 19 20  1  0  0  0  0
 20 21  2  0  0  0  0
 20 15  1  0  0  0  0
 23 24  2  0  0  0  0
 24 22  1  0  0  0  0
 24 21  1  0  0  0  0
 25 23  1  0  0  0  0
 25 19  2  0  0  0  0
 26 27  1  0  0  0  0
 27 29  1  0  0  0  0
 27 28  1  0  0  0  0
 29 28  1  0  0  0  0
 30 27  1  0  0  0  0
 30 31  1  0  0  0  0
 31 32  1  0  0  0  0
 33 34  1  0  0  0  0
 34 36  1  0  0  0  0
 34 37  1  0  0  0  0
 35 34  1  0  0  0  0
M  END
>  <MODEL>
4

>  <REMARK>
 VINA RESULT:      -8.6      0.922      1.441
  Name = 
  7 active torsions:
  status: ('A' for Active; 'I' for Inactive)
    1  A    between atoms: C_1  and  C_4
    2  A    between atoms: C_1  and  C_27
    3  A    between atoms: C_2  and  O_22
    4  A    between atoms: C_4  and  C_12
    5  A    between atoms: C_6  and  O_22
    6  A    between atoms: C_8  and  C_12
    7  A    between atoms: C_23  and  C_30
                            x       y       z     vdW  Elec       q    Type
                         _______ _______ _______ _____ _____    ______ ____

>  <TORSDO>
F 7

$$$$
=
 OpenBabel11122411473D

 37 43  0  0  1  0  0  0  0  0999 V2000
  187.5150  178.3850  141.7580 C   0  0  1  0  0  3  0  0  0  0  0  0
  189.0170  178.6650  138.7540 O   0  0  0  0  0  0  0  0  0  0  0  0
  185.2480  178.9580  142.9640 C   0  0  2  0  0  3  0  0  0  0  0  0
  187.4760  177.8180  140.3760 C   0  0  2  0  0  3  0  0  0  0  0  0
  186.1790  179.1390  141.7490 C   0  0  2  0  0  3  0  0  0  0  0  0
  188.8340  177.6370  139.6940 C   0  0  2  0  0  3  0  0  0  0  0  0
  185.4970  177.6700  143.7280 C   0  0  0  0  0  2  0  0  0  0  0  0
  185.5490  178.9030  140.5100 O   0  0  0  0  0  0  0  0  0  0  0  0
  189.0530  177.0600  142.9550 C   0  0  0  0  0  2  0  0  0  0  0  0
  186.9880  177.5330  143.9550 C   0  0  0  0  0  2  0  0  0  0  0  0
  187.9590  176.9140  137.2200 C   0  0  0  0  0  2  0  0  0  0  0  0
  188.6280  178.2680  137.4390 C   0  0  1  0  0  3  0  0  0  0  0  0
  187.6290  177.2480  142.6800 N   0  0  1  0  0  0  0  0  0  0  0  0
  186.5860  178.7010  139.6450 N   0  0  2  0  0  0  0  0  0  0  0  0
  190.0290  177.5200  140.6610 C   0  0  1  0  0  3  0  0  0  0  0  0
  187.0940  178.1630  137.2530 C   0  0  2  0  0  3  0  0  0  0  0  0
  186.1310  177.9860  138.4490 C   0  0  2  0  0  3  0  0  0  0  0  0
  189.7910  176.4670  141.7510 C   0  0  0  0  0  2  0  0  0  0  0  0
  192.5170  177.5970  140.4600 C   0  0  0  0  0  3  0  0  0  0  0  0
  191.2910  177.2130  139.9130 C   0  0  0  0  0  0  0  0  0  0  0  0
  191.2610  176.5570  138.6750 C   0  0  0  0  0  3  0  0  0  0  0  0
  192.4460  175.6330  136.7530 N   0  0  0  0  0  1  0  0  0  0  0  0
  193.6430  176.6800  138.5630 N   0  0  0  0  0  0  0  0  0  0  0  0
  192.4610  176.2970  138.0090 C   0  0  0  0  0  0  0  0  0  0  0  0
  193.6950  177.3180  139.7630 C   0  0  0  0  0  3  0  0  0  0  0  0
  184.7430  178.4450  138.0060 C   0  0  0  0  0  2  0  0  0  0  0  0
  183.8090  177.2560  137.8430 C   0  0  0  0  0  0  0  0  0  0  0  0
  183.1160  176.8110  139.1090 C   0  0  0  0  0  2  0  0  0  0  0  0
  182.3430  177.5600  138.0310 C   0  0  0  0  0  2  0  0  0  0  0  0
  184.1090  176.1480  136.8380 C   0  0  0  0  0  2  0  0  0  0  0  0
  184.2160  174.7890  137.5130 C   0  0  0  0  0  2  0  0  0  0  0  0
  185.5010  174.2720  137.3500 O   0  0  0  0  0  1  0  0  0  0  0  0
  183.8950  179.0440  142.5900 O   0  0  0  0  0  0  0  0  0  0  0  0
  183.1450  179.3990  143.7300 C   0  0  0  0  0  0  0  0  0  0  0  0
  182.9520  178.3010  144.5540 F   0  0  0  0  0  0  0  0  0  0  0  0
  183.7730  180.4130  144.4370 F   0  0  0  0  0  0  0  0  0  0  0  0
  181.9090  179.8580  143.3160 F   0  0  0  0  0  0  0  0  0  0  0  0
  1 13  1  0  0  0  0
  2  6  1  0  0  0  0
  3  7  1  0  0  0  0
  4  1  1  0  0  0  0
  5  1  1  0  0  0  0
  5  3  1  0  0  0  0
  6  4  1  0  0  0  0
  6 15  1  0  0  0  0
  7 10  1  0  0  0  0
  8  5  1  0  0  0  0
 11 16  1  0  0  0  0
 11 12  1  0  0  0  0
 12  2  1  0  0  0  0
 13  9  1  0  0  0  0
 13 10  1  0  0  0  0
 14  4  1  0  0  0  0
 14  8  1  0  0  0  0
 15 18  1  0  0  0  0
 16 12  1  0  0  0  0
 16 17  1  0  0  0  0
 17 14  1  0  0  0  0
 18  9  1  0  0  0  0
 20 19  1  0  0  0  0
 20 15  1  0  0  0  0
 21 20  2  0  0  0  0
 22 24  1  0  0  0  0
 23 25  1  0  0  0  0
 24 23  2  0  0  0  0
 24 21  1  0  0  0  0
 25 19  2  0  0  0  0
 26 17  1  0  0  0  0
 27 26  1  0  0  0  0
 27 29  1  0  0  0  0
 27 28  1  0  0  0  0
 29 28  1  0  0  0  0
 30 31  1  0  0  0  0
 30 27  1  0  0  0  0
 32 31  1  0  0  0  0
 33  3  1  0  0  0  0
 33 34  1  0  0  0  0
 34 36  1  0  0  0  0
 34 35  1  0  0  0  0
 37 34  1  0  0  0  0
M  END
>  <MODEL>
5

>  <REMARK>
 VINA RESULT:      -8.5      2.885      5.899
  Name = 
  7 active torsions:
  status: ('A' for Active; 'I' for Inactive)
    1  A    between atoms: C_1  and  C_4
    2  A    between atoms: C_1  and  C_27
    3  A    between atoms: C_2  and  O_22
    4  A    between atoms: C_4  and  C_12
    5  A    between atoms: C_6  and  O_22
    6  A    between atoms: C_8  and  C_12
    7  A    between atoms: C_23  and  C_30
                            x       y       z     vdW  Elec       q    Type
                         _______ _______ _______ _____ _____    ______ ____

>  <TORSDO>
F 7

$$$$
=
 OpenBabel11122411473D

 37 43  0  0  1  0  0  0  0  0999 V2000
  187.5650  178.3270  141.8320 C   0  0  1  0  0  3  0  0  0  0  0  0
  189.0500  178.6470  138.8230 O   0  0  0  0  0  0  0  0  0  0  0  0
  185.3040  178.8800  143.0570 C   0  0  2  0  0  3  0  0  0  0  0  0
  187.5200  177.7770  140.4440 C   0  0  2  0  0  3  0  0  0  0  0  0
  186.2270  179.0790  141.8400 C   0  0  2  0  0  3  0  0  0  0  0  0
  188.8750  177.6070  139.7520 C   0  0  2  0  0  3  0  0  0  0  0  0
  185.5590  177.5840  143.8050 C   0  0  0  0  0  2  0  0  0  0  0  0
  185.5920  178.8570  140.6020 O   0  0  0  0  0  0  0  0  0  0  0  0
  189.1120  176.9910  143.0040 C   0  0  0  0  0  2  0  0  0  0  0  0
  187.0520  177.4460  144.0220 C   0  0  0  0  0  2  0  0  0  0  0  0
  187.9860  176.9130  137.2740 C   0  0  0  0  0  2  0  0  0  0  0  0
  188.6550  178.2660  137.5060 C   0  0  1  0  0  3  0  0  0  0  0  0
  187.6860  177.1790  142.7400 N   0  0  1  0  0  0  0  0  0  0  0  0
  186.6240  178.6680  139.7280 N   0  0  2  0  0  0  0  0  0  0  0  0
  190.0750  177.4810  140.7100 C   0  0  1  0  0  3  0  0  0  0  0  0
  187.1190  178.1600  137.3270 C   0  0  2  0  0  3  0  0  0  0  0  0
  186.1640  177.9660  138.5270 C   0  0  2  0  0  3  0  0  0  0  0  0
  189.8450  176.4140  141.7890 C   0  0  0  0  0  2  0  0  0  0  0  0
  192.5570  177.6140  140.4700 C   0  0  0  0  0  3  0  0  0  0  0  0
  191.3330  177.1860  139.9520 C   0  0  0  0  0  0  0  0  0  0  0  0
  191.3020  176.4960  138.7320 C   0  0  0  0  0  3  0  0  0  0  0  0
  192.4820  175.5510  136.8180 N   0  0  0  0  0  1  0  0  0  0  0  0
  193.6780  176.6750  138.5810 N   0  0  0  0  0  0  0  0  0  0  0  0
  192.4980  176.2480  138.0560 C   0  0  0  0  0  0  0  0  0  0  0  0
  193.7310  177.3470  139.7630 C   0  0  0  0  0  3  0  0  0  0  0  0
  184.7730  178.4280  138.0970 C   0  0  0  0  0  2  0  0  0  0  0  0
  183.8000  177.2590  138.0770 C   0  0  0  0  0  0  0  0  0  0  0  0
  183.1190  177.0180  136.7510 C   0  0  0  0  0  2  0  0  0  0  0  0
  184.2240  176.0850  137.2290 C   0  0  0  0  0  2  0  0  0  0  0  0
  182.9790  176.8940  139.3100 C   0  0  0  0  0  2  0  0  0  0  0  0
  181.7320  177.7580  139.4310 C   0  0  0  0  0  2  0  0  0  0  0  0
  181.4480  178.0040  140.7740 O   0  0  0  0  0  1  0  0  0  0  0  0
  183.9490  178.9690  142.6920 O   0  0  0  0  0  0  0  0  0  0  0  0
  183.2160  179.3940  143.8190 C   0  0  0  0  0  0  0  0  0  0  0  0
  183.0100  178.3430  144.6990 F   0  0  0  0  0  0  0  0  0  0  0  0
  183.8690  180.4310  144.4690 F   0  0  0  0  0  0  0  0  0  0  0  0
  181.9850  179.8540  143.3940 F   0  0  0  0  0  0  0  0  0  0  0  0
  1  5  1  0  0  0  0
  1 13  1  0  0  0  0
  2  6  1  0  0  0  0
  3  7  1  0  0  0  0
  4  1  1  0  0  0  0
  5  3  1  0  0  0  0
  6  4  1  0  0  0  0
  6 15  1  0  0  0  0
  7 10  1  0  0  0  0
  8  5  1  0  0  0  0
 11 16  1  0  0  0  0
 11 12  1  0  0  0  0
 12  2  1  0  0  0  0
 13  9  1  0  0  0  0
 13 10  1  0  0  0  0
 14  4  1  0  0  0  0
 14  8  1  0  0  0  0
 15 18  1  0  0  0  0
 16 12  1  0  0  0  0
 16 17  1  0  0  0  0
 17 14  1  0  0  0  0
 18  9  1  0  0  0  0
 20 19  1  0  0  0  0
 20 15  1  0  0  0  0
 21 20  2  0  0  0  0
 22 24  1  0  0  0  0
 23 25  1  0  0  0  0
 24 23  2  0  0  0  0
 24 21  1  0  0  0  0
 25 19  2  0  0  0  0
 26 17  1  0  0  0  0
 27 26  1  0  0  0  0
 27 30  1  0  0  0  0
 28 29  1  0  0  0  0
 28 27  1  0  0  0  0
 29 27  1  0  0  0  0
 30 31  1  0  0  0  0
 31 32  1  0  0  0  0
 33  3  1  0  0  0  0
 33 34  1  0  0  0  0
 34 36  1  0  0  0  0
 34 35  1  0  0  0  0
 37 34  1  0  0  0  0
M  END
>  <MODEL>
6

>  <REMARK>
 VINA RESULT:      -8.5      2.843      5.967
  Name = 
  7 active torsions:
  status: ('A' for Active; 'I' for Inactive)
    1  A    between atoms: C_1  and  C_4
    2  A    between atoms: C_1  and  C_27
    3  A    between atoms: C_2  and  O_22
    4  A    between atoms: C_4  and  C_12
    5  A    between atoms: C_6  and  O_22
    6  A    between atoms: C_8  and  C_12
    7  A    between atoms: C_23  and  C_30
                            x       y       z     vdW  Elec       q    Type
                         _______ _______ _______ _____ _____    ______ ____

>  <TORSDO>
F 7

$$$$
=
 OpenBabel11122411473D

 37 43  0  0  1  0  0  0  0  0999 V2000
  186.8560  178.0470  137.9920 C   0  0  1  0  0  3  0  0  0  0  0  0
  185.2770  179.7170  140.4570 O   0  0  0  0  0  0  0  0  0  0  0  0
  189.2760  177.3680  137.2160 C   0  0  2  0  0  3  0  0  0  0  0  0
  186.5010  177.9310  139.4390 C   0  0  2  0  0  3  0  0  0  0  0  0
  188.3740  178.2230  138.1270 C   0  0  2  0  0  3  0  0  0  0  0  0
  185.1220  178.4690  139.8290 C   0  0  2  0  0  3  0  0  0  0  0  0
  188.6050  176.1010  136.7180 C   0  0  0  0  0  2  0  0  0  0  0  0
  188.7060  178.1410  139.4940 O   0  0  0  0  0  0  0  0  0  0  0  0
  185.0530  177.0960  136.8090 C   0  0  0  0  0  2  0  0  0  0  0  0
  187.2250  176.4630  136.2060 C   0  0  0  0  0  2  0  0  0  0  0  0
  185.3370  178.2240  142.5330 C   0  0  0  0  0  2  0  0  0  0  0  0
  185.3160  179.6030  141.8800 C   0  0  1  0  0  3  0  0  0  0  0  0
  186.3860  176.8170  137.3410 N   0  0  1  0  0  0  0  0  0  0  0  0
  187.5890  178.5950  140.1340 N   0  0  2  0  0  0  0  0  0  0  0  0
  184.1030  178.5260  138.6750 C   0  0  1  0  0  3  0  0  0  0  0  0
  186.6390  179.0000  142.4150 C   0  0  2  0  0  3  0  0  0  0  0  0
  187.5690  178.1420  141.5280 C   0  0  2  0  0  3  0  0  0  0  0  0
  184.0050  177.1920  137.9230 C   0  0  0  0  0  2  0  0  0  0  0  0
  182.1570  180.0910  138.6640 C   0  0  0  0  0  3  0  0  0  0  0  0
  182.7520  178.9360  139.1770 C   0  0  0  0  0  0  0  0  0  0  0  0
  182.0820  178.1880  140.1550 C   0  0  0  0  0  3  0  0  0  0  0  0
  180.1360  177.8630  141.5900 N   0  0  0  0  0  1  0  0  0  0  0  0
  180.2670  179.7380  140.0830 N   0  0  0  0  0  0  0  0  0  0  0  0
  180.8270  178.6110  140.5980 C   0  0  0  0  0  0  0  0  0  0  0  0
  180.9000  180.4800  139.1340 C   0  0  0  0  0  3  0  0  0  0  0  0
  188.9630  178.1650  142.1520 C   0  0  0  0  0  2  0  0  0  0  0  0
  189.0190  177.2670  143.3780 C   0  0  0  0  0  0  0  0  0  0  0  0
  188.2140  175.9930  143.2740 C   0  0  0  0  0  2  0  0  0  0  0  0
  189.7340  175.9520  143.1800 C   0  0  0  0  0  2  0  0  0  0  0  0
  189.1360  177.8540  144.7820 C   0  0  0  0  0  2  0  0  0  0  0  0
  188.0280  177.3500  145.6950 C   0  0  0  0  0  2  0  0  0  0  0  0
  187.0160  178.3040  145.7920 O   0  0  0  0  0  1  0  0  0  0  0  0
  190.4920  177.0540  137.8480 O   0  0  0  0  0  0  0  0  0  0  0  0
  191.3120  176.3840  136.9180 C   0  0  0  0  0  0  0  0  0  0  0  0
  191.2020  175.0100  137.0630 F   0  0  0  0  0  0  0  0  0  0  0  0
  190.9850  176.7470  135.6200 F   0  0  0  0  0  0  0  0  0  0  0  0
  192.6260  176.7440  137.1520 F   0  0  0  0  0  0  0  0  0  0  0  0
  1  5  1  0  0  0  0
  1  4  1  0  0  0  0
  2 12  1  0  0  0  0
  3 33  1  0  0  0  0
  3  5  1  0  0  0  0
  4  6  1  0  0  0  0
  4 14  1  0  0  0  0
  5  8  1  0  0  0  0
  6  2  1  0  0  0  0
  7  3  1  0  0  0  0
  8 14  1  0  0  0  0
  9 13  1  0  0  0  0
  9 18  1  0  0  0  0
 10  7  1  0  0  0  0
 10 13  1  0  0  0  0
 12 16  1  0  0  0  0
 12 11  1  0  0  0  0
 13  1  1  0  0  0  0
 14 17  1  0  0  0  0
 15 20  1  0  0  0  0
 15  6  1  0  0  0  0
 16 11  1  0  0  0  0
 17 26  1  0  0  0  0
 17 16  1  0  0  0  0
 18 15  1  0  0  0  0
 19 25  2  0  0  0  0
 19 20  1  0  0  0  0
 20 21  2  0  0  0  0
 21 24  1  0  0  0  0
 23 24  2  0  0  0  0
 24 22  1  0  0  0  0
 25 23  1  0  0  0  0
 26 27  1  0  0  0  0
 27 30  1  0  0  0  0
 28 27  1  0  0  0  0
 29 28  1  0  0  0  0
 29 27  1  0  0  0  0
 30 31  1  0  0  0  0
 31 32  1  0  0  0  0
 34 35  1  0  0  0  0
 34 37  1  0  0  0  0
 34 33  1  0  0  0  0
 36 34  1  0  0  0  0
M  END
>  <MODEL>
7

>  <REMARK>
 VINA RESULT:      -8.3      4.428      7.745
  Name = 
  7 active torsions:
  status: ('A' for Active; 'I' for Inactive)
    1  A    between atoms: C_1  and  C_4
    2  A    between atoms: C_1  and  C_27
    3  A    between atoms: C_2  and  O_22
    4  A    between atoms: C_4  and  C_12
    5  A    between atoms: C_6  and  O_22
    6  A    between atoms: C_8  and  C_12
    7  A    between atoms: C_23  and  C_30
                            x       y       z     vdW  Elec       q    Type
                         _______ _______ _______ _____ _____    ______ ____

>  <TORSDO>
F 7

$$$$
=
 OpenBabel11122411473D

 37 43  0  0  1  0  0  0  0  0999 V2000
  187.3290  178.0760  138.2510 C   0  0  1  0  0  3  0  0  0  0  0  0
  185.5950  179.7440  140.6120 O   0  0  0  0  0  0  0  0  0  0  0  0
  189.7940  177.4040  137.6270 C   0  0  2  0  0  3  0  0  0  0  0  0
  186.8860  177.9610  139.6730 C   0  0  2  0  0  3  0  0  0  0  0  0
  188.8350  178.2570  138.4790 C   0  0  2  0  0  3  0  0  0  0  0  0
  185.4840  178.4950  139.9770 C   0  0  2  0  0  3  0  0  0  0  0  0
  189.1580  176.1350  137.0900 C   0  0  0  0  0  2  0  0  0  0  0  0
  189.0820  178.1770  139.8640 O   0  0  0  0  0  0  0  0  0  0  0  0
  185.6050  177.1200  136.9590 C   0  0  0  0  0  2  0  0  0  0  0  0
  187.8130  176.4930  136.4930 C   0  0  0  0  0  2  0  0  0  0  0  0
  185.5310  178.2530  142.6880 C   0  0  0  0  0  2  0  0  0  0  0  0
  185.5470  179.6320  142.0340 C   0  0  1  0  0  3  0  0  0  0  0  0
  186.9040  176.8450  137.5720 N   0  0  1  0  0  0  0  0  0  0  0  0
  187.9260  178.6290  140.4340 N   0  0  2  0  0  0  0  0  0  0  0  0
  184.5380  178.5490  138.7610 C   0  0  1  0  0  3  0  0  0  0  0  0
  186.8350  179.0320  142.6510 C   0  0  2  0  0  3  0  0  0  0  0  0
  187.8210  178.1760  141.8240 C   0  0  2  0  0  3  0  0  0  0  0  0
  184.4900  177.2150  138.0050 C   0  0  0  0  0  2  0  0  0  0  0  0
  182.4450  178.1430  140.0620 C   0  0  0  0  0  3  0  0  0  0  0  0
  183.1570  178.9560  139.1780 C   0  0  0  0  0  0  0  0  0  0  0  0
  182.5680  180.1310  138.6920 C   0  0  0  0  0  3  0  0  0  0  0  0
  180.6650  181.6560  138.6160 N   0  0  0  0  0  1  0  0  0  0  0  0
  180.6020  179.6610  139.9640 N   0  0  0  0  0  0  0  0  0  0  0  0
  181.2760  180.4680  139.1010 C   0  0  0  0  0  0  0  0  0  0  0  0
  181.1560  178.5160  140.4480 C   0  0  0  0  0  3  0  0  0  0  0  0
  189.1740  178.2030  142.5330 C   0  0  0  0  0  2  0  0  0  0  0  0
  189.3090  177.0200  143.4800 C   0  0  0  0  0  0  0  0  0  0  0  0
  188.2970  175.9180  143.2730 C   0  0  0  0  0  2  0  0  0  0  0  0
  189.7440  175.7270  142.8340 C   0  0  0  0  0  2  0  0  0  0  0  0
  189.7850  177.2090  144.9170 C   0  0  0  0  0  2  0  0  0  0  0  0
  191.2380  176.7910  145.0860 C   0  0  0  0  0  2  0  0  0  0  0  0
  191.6880  177.1250  146.3640 O   0  0  0  0  0  1  0  0  0  0  0  0
  190.9700  177.0940  138.3340 O   0  0  0  0  0  0  0  0  0  0  0  0
  191.8430  176.4150  137.4600 C   0  0  0  0  0  0  0  0  0  0  0  0
  191.8110  175.0490  137.6930 F   0  0  0  0  0  0  0  0  0  0  0  0
  191.5170  176.6740  136.1370 F   0  0  0  0  0  0  0  0  0  0  0  0
  193.1290  176.8660  137.6870 F   0  0  0  0  0  0  0  0  0  0  0  0
  1  5  1  0  0  0  0
  1  4  1  0  0  0  0
  2 12  1  0  0  0  0
  3 33  1  0  0  0  0
  3  5  1  0  0  0  0
  4  6  1  0  0  0  0
  4 14  1  0  0  0  0
  5  8  1  0  0  0  0
  6  2  1  0  0  0  0
  7  3  1  0  0  0  0
  8 14  1  0  0  0  0
  9 13  1  0  0  0  0
  9 18  1  0  0  0  0
 10  7  1  0  0  0  0
 10 13  1  0  0  0  0
 12 16  1  0  0  0  0
 12 11  1  0  0  0  0
 13  1  1  0  0  0  0
 14 17  1  0  0  0  0
 15 20  1  0  0  0  0
 15  6  1  0  0  0  0
 16 11  1  0  0  0  0
 17 26  1  0  0  0  0
 17 16  1  0  0  0  0
 18 15  1  0  0  0  0
 19 25  1  0  0  0  0
 20 19  2  0  0  0  0
 21 24  2  0  0  0  0
 21 20  1  0  0  0  0
 22 24  1  0  0  0  0
 23 25  2  0  0  0  0
 24 23  1  0  0  0  0
 26 27  1  0  0  0  0
 27 30  1  0  0  0  0
 28 27  1  0  0  0  0
 29 28  1  0  0  0  0
 29 27  1  0  0  0  0
 30 31  1  0  0  0  0
 31 32  1  0  0  0  0
 34 37  1  0  0  0  0
 34 35  1  0  0  0  0
 34 33  1  0  0  0  0
 36 34  1  0  0  0  0
M  END
>  <MODEL>
8

>  <REMARK>
 VINA RESULT:      -8.3      4.332      7.520
  Name = 
  7 active torsions:
  status: ('A' for Active; 'I' for Inactive)
    1  A    between atoms: C_1  and  C_4
    2  A    between atoms: C_1  and  C_27
    3  A    between atoms: C_2  and  O_22
    4  A    between atoms: C_4  and  C_12
    5  A    between atoms: C_6  and  O_22
    6  A    between atoms: C_8  and  C_12
    7  A    between atoms: C_23  and  C_30
                            x       y       z     vdW  Elec       q    Type
                         _______ _______ _______ _____ _____    ______ ____

>  <TORSDO>
F 7

$$$$
=
 OpenBabel11122411473D

 37 43  0  0  1  0  0  0  0  0999 V2000
  186.4700  178.6030  142.3090 C   0  0  1  0  0  3  0  0  0  0  0  0
  189.8330  178.4480  142.4620 O   0  0  0  0  0  0  0  0  0  0  0  0
  184.5310  179.1930  140.6310 C   0  0  2  0  0  3  0  0  0  0  0  0
  187.6240  177.7890  141.8230 C   0  0  2  0  0  3  0  0  0  0  0  0
  186.0330  179.2260  140.9760 C   0  0  2  0  0  3  0  0  0  0  0  0
  188.7710  177.6010  142.8190 C   0  0  2  0  0  3  0  0  0  0  0  0
  183.7690  178.0960  141.3510 C   0  0  0  0  0  2  0  0  0  0  0  0
  186.8610  178.7110  139.9590 O   0  0  0  0  0  0  0  0  0  0  0  0
  185.8400  177.6590  144.3740 C   0  0  0  0  0  2  0  0  0  0  0  0
  184.1560  178.1310  142.8160 C   0  0  0  0  0  2  0  0  0  0  0  0
  190.5470  176.3600  141.1710 C   0  0  0  0  0  2  0  0  0  0  0  0
  190.8070  177.7830  141.6580 C   0  0  1  0  0  3  0  0  0  0  0  0
  185.5300  177.6710  142.9450 N   0  0  1  0  0  0  0  0  0  0  0  0
  188.0390  178.4420  140.5940 N   0  0  2  0  0  0  0  0  0  0  0  0
  188.3720  177.7680  144.2980 C   0  0  1  0  0  3  0  0  0  0  0  0
  190.3320  177.5150  140.2080 C   0  0  2  0  0  3  0  0  0  0  0  0
  188.8350  177.4800  139.8260 C   0  0  2  0  0  3  0  0  0  0  0  0
  187.1480  176.9180  144.6670 C   0  0  0  0  0  2  0  0  0  0  0  0
  190.6060  176.7220  144.6880 C   0  0  0  0  0  3  0  0  0  0  0  0
  189.5210  177.4360  145.2010 C   0  0  0  0  0  0  0  0  0  0  0  0
  189.5230  177.8230  146.5480 C   0  0  0  0  0  3  0  0  0  0  0  0
  190.6270  177.8730  148.7230 N   0  0  0  0  0  1  0  0  0  0  0  0
  191.6580  176.7920  146.8320 N   0  0  0  0  0  0  0  0  0  0  0  0
  190.6120  177.4880  147.3550 C   0  0  0  0  0  0  0  0  0  0  0  0
  191.6760  176.4060  145.5280 C   0  0  0  0  0  3  0  0  0  0  0  0
  188.7290  177.7300  138.3230 C   0  0  0  0  0  2  0  0  0  0  0  0
  188.4610  176.4300  137.5790 C   0  0  0  0  0  0  0  0  0  0  0  0
  189.2850  176.2270  136.3300 C   0  0  0  0  0  2  0  0  0  0  0  0
  189.5980  175.4360  137.5940 C   0  0  0  0  0  2  0  0  0  0  0  0
  187.0680  175.8090  137.5520 C   0  0  0  0  0  2  0  0  0  0  0  0
  186.3590  176.0760  136.2330 C   0  0  0  0  0  2  0  0  0  0  0  0
  185.9060  177.3950  136.1910 O   0  0  0  0  0  1  0  0  0  0  0  0
  184.3270  179.0930  139.2430 O   0  0  0  0  0  0  0  0  0  0  0  0
  183.1100  179.7330  138.9310 C   0  0  0  0  0  0  0  0  0  0  0  0
  182.5490  179.1920  137.7840 F   0  0  0  0  0  0  0  0  0  0  0  0
  182.2140  179.6310  139.9850 F   0  0  0  0  0  0  0  0  0  0  0  0
  183.3630  181.0720  138.7030 F   0  0  0  0  0  0  0  0  0  0  0  0
  1 13  1  0  0  0  0
  2  6  1  0  0  0  0
  3  5  1  0  0  0  0
  3  7  1  0  0  0  0
  4  1  1  0  0  0  0
  4  6  1  0  0  0  0
  5  1  1  0  0  0  0
  6 15  1  0  0  0  0
  7 10  1  0  0  0  0
  8 14  1  0  0  0  0
  8  5  1  0  0  0  0
  9 18  1  0  0  0  0
 10 13  1  0  0  0  0
 11 12  1  0  0  0  0
 12  2  1  0  0  0  0
 13  9  1  0  0  0  0
 14  4  1  0  0  0  0
 15 18  1  0  0  0  0
 15 20  1  0  0  0  0
 16 11  1  0  0  0  0
 16 12  1  0  0  0  0
 17 16  1  0  0  0  0
 17 14  1  0  0  0  0
 19 20  2  0  0  0  0
 19 25  1  0  0  0  0
 20 21  1  0  0  0  0
 21 24  2  0  0  0  0
 23 24  1  0  0  0  0
 24 22  1  0  0  0  0
 25 23  2  0  0  0  0
 26 17  1  0  0  0  0
 27 29  1  0  0  0  0
 27 26  1  0  0  0  0
 28 27  1  0  0  0  0
 28 29  1  0  0  0  0
 30 27  1  0  0  0  0
 31 30  1  0  0  0  0
 32 31  1  0  0  0  0
 33  3  1  0  0  0  0
 34 33  1  0  0  0  0
 34 36  1  0  0  0  0
 35 34  1  0  0  0  0
 37 34  1  0  0  0  0
M  END
>  <MODEL>
9

>  <REMARK>
 VINA RESULT:      -8.1      2.998      6.869
  Name = 
  7 active torsions:
  status: ('A' for Active; 'I' for Inactive)
    1  A    between atoms: C_1  and  C_4
    2  A    between atoms: C_1  and  C_27
    3  A    between atoms: C_2  and  O_22
    4  A    between atoms: C_4  and  C_12
    5  A    between atoms: C_6  and  O_22
    6  A    between atoms: C_8  and  C_12
    7  A    between atoms: C_23  and  C_30
                            x       y       z     vdW  Elec       q    Type
                         _______ _______ _______ _____ _____    ______ ____

>  <TORSDO>
F 7

$$$$
