=
 OpenBabel11122410413D

 32 38  0  0  1  0  0  0  0  0999 V2000
  188.1870  178.4850  137.0880 C   0  0  1  0  0  3  0  0  0  0  0  0
  187.8060  177.9700  142.2170 C   0  0  0  0  0  0  0  0  0  0  0  0
  183.1180  178.9760  143.1960 C   0  0  0  0  0  3  0  0  0  0  0  0
  183.3700  178.8440  144.5600 C   0  0  0  0  0  3  0  0  0  0  0  0
  189.3780  177.5050  144.1140 C   0  0  0  0  0  0  0  0  0  0  0  0
  189.5490  177.3890  145.4900 C   0  0  0  0  0  0  0  0  0  0  0  0
  188.5410  177.9410  139.8910 C   0  0  0  0  0  0  0  0  0  0  0  0
  186.2390  178.4220  140.3950 C   0  0  0  0  0  3  0  0  0  0  0  0
  188.9910  177.3930  147.6670 N   0  0  0  0  0  0  0  0  0  0  0  0
  186.9440  178.3860  137.9910 C   0  0  2  0  0  3  0  0  0  0  0  0
  184.1510  178.7940  142.2770 C   0  0  0  0  0  3  0  0  0  0  0  0
  186.4930  178.2910  141.7750 C   0  0  0  0  0  0  0  0  0  0  0  0
  185.4540  178.4750  142.7060 C   0  0  0  0  0  0  0  0  0  0  0  0
  187.0060  178.0200  144.5440 C   0  0  0  0  0  0  0  0  0  0  0  0
  190.3620  177.0800  147.6960 N   0  0  0  0  0  0  0  0  0  0  0  0
  189.4240  178.6230  137.7990 O   0  0  0  0  0  0  0  0  0  0  0  0
  187.2530  178.2440  139.4570 C   0  0  0  0  0  0  0  0  0  0  0  0
  190.7770  177.0650  146.2750 C   0  0  0  0  0  3  0  0  0  0  0  0
  189.5920  177.7090  138.8650 C   0  0  0  0  0  2  0  0  0  0  0  0
  187.4420  177.1590  137.2310 C   0  0  1  0  0  3  0  0  0  0  0  0
  184.6540  178.5280  145.0030 C   0  0  0  0  0  3  0  0  0  0  0  0
  185.7100  178.3390  144.0910 C   0  0  0  0  0  0  0  0  0  0  0  0
  187.2500  177.8860  145.9280 C   0  0  0  0  0  3  0  0  0  0  0  0
  188.8120  177.7940  141.2500 C   0  0  0  0  0  3  0  0  0  0  0  0
  190.4780  177.3010  143.2870 O   0  0  0  0  0  1  0  0  0  0  0  0
  188.0170  177.5330  149.1020 Cl  0  0  0  0  0  0  0  0  0  0  0  0
  188.0780  177.8290  143.6070 C   0  0  0  0  0  0  0  0  0  0  0  0
  188.5310  177.5710  146.3520 C   0  0  0  0  0  0  0  0  0  0  0  0
  186.6070  176.9450  136.0610 N   0  0  0  0  0  2  0  0  0  0  0  0
  185.7820  175.7880  135.9060 C   0  0  0  0  0  0  0  0  0  0  0  0
  185.7330  174.7300  136.9560 C   0  0  0  0  0  1  0  0  0  0  0  0
  185.0850  175.6600  134.8690 O   0  0  0  0  0  0  0  0  0  0  0  0
  1 20  1  0  0  0  0
  1 16  1  1  0  0  0
  1 10  1  0  0  0  0
  2 27  1  0  0  0  0
  3  4  1  0  0  0  0
  4 21  2  0  0  0  0
  5  6  1  0  0  0  0
  6 18  1  0  0  0  0
  6 28  2  0  0  0  0
  7 24  1  0  0  0  0
  8 12  2  0  0  0  0
  9 15  1  0  0  0  0
  9 26  1  0  0  0  0
 10 17  1  1  0  0  0
 11 13  1  0  0  0  0
 11  3  2  0  0  0  0
 12  2  1  0  0  0  0
 12 13  1  0  0  0  0
 13 22  2  0  0  0  0
 14 23  2  0  0  0  0
 16 19  1  0  0  0  0
 17  7  2  0  0  0  0
 17  8  1  0  0  0  0
 18 15  2  0  0  0  0
 19  7  1  0  0  0  0
 20 29  1  6  0  0  0
 20 10  1  0  0  0  0
 22 14  1  0  0  0  0
 22 21  1  0  0  0  0
 23 28  1  0  0  0  0
 24  2  2  0  0  0  0
 25  5  1  0  0  0  0
 27  5  2  0  0  0  0
 27 14  1  0  0  0  0
 28  9  1  0  0  0  0
 30 29  1  0  0  0  0
 30 31  1  0  0  0  0
 32 30  2  0  0  0  0
M  END
>  <MODEL>
1

>  <REMARK>
 VINA RESULT:     -11.8      0.000      0.000
  Name = 
  1 active torsions:
  status: ('A' for Active; 'I' for Inactive)
    1  A    between atoms: C_20  and  N_29
                            x       y       z     vdW  Elec       q    Type
                         _______ _______ _______ _____ _____    ______ ____

>  <TORSDO>
F 1

$$$$
=
 OpenBabel11122410413D

 32 38  0  0  1  0  0  0  0  0999 V2000
  189.6060  178.0060  147.9950 C   0  0  1  0  0  3  0  0  0  0  0  0
  186.1000  178.2930  144.2080 C   0  0  0  0  0  0  0  0  0  0  0  0
  188.7350  178.0710  140.0910 C   0  0  0  0  0  3  0  0  0  0  0  0
  187.5790  178.2520  139.3350 C   0  0  0  0  0  3  0  0  0  0  0  0
  183.6210  178.6310  144.0550 C   0  0  0  0  0  0  0  0  0  0  0  0
  182.5120  178.8060  143.2320 C   0  0  0  0  0  0  0  0  0  0  0  0
  187.2460  178.0770  146.3500 C   0  0  0  0  0  0  0  0  0  0  0  0
  188.5200  177.9580  144.3130 C   0  0  0  0  0  3  0  0  0  0  0  0
  181.3490  179.0260  141.3220 N   0  0  0  0  0  0  0  0  0  0  0  0
  189.7380  177.7130  146.4900 C   0  0  2  0  0  3  0  0  0  0  0  0
  188.6590  178.0360  141.4830 C   0  0  0  0  0  3  0  0  0  0  0  0
  187.3520  178.1450  143.5490 C   0  0  0  0  0  0  0  0  0  0  0  0
  187.4240  178.1810  142.1440 C   0  0  0  0  0  0  0  0  0  0  0  0
  185.0010  178.5120  142.0170 C   0  0  0  0  0  0  0  0  0  0  0  0
  180.3510  179.1270  142.3080 N   0  0  0  0  0  0  0  0  0  0  0  0
  188.3620  178.6120  148.3720 O   0  0  0  0  0  0  0  0  0  0  0  0
  188.4700  177.9190  145.7050 C   0  0  0  0  0  0  0  0  0  0  0  0
  181.0750  178.9870  143.5930 C   0  0  0  0  0  3  0  0  0  0  0  0
  187.2170  177.9820  147.8340 C   0  0  0  0  0  2  0  0  0  0  0  0
  189.5560  176.5680  147.4830 C   0  0  1  0  0  3  0  0  0  0  0  0
  186.3470  178.3970  139.9730 C   0  0  0  0  0  3  0  0  0  0  0  0
  186.2490  178.3650  141.3770 C   0  0  0  0  0  0  0  0  0  0  0  0
  183.8350  178.6940  141.2410 C   0  0  0  0  0  3  0  0  0  0  0  0
  186.0760  178.2490  145.6140 C   0  0  0  0  0  3  0  0  0  0  0  0
  183.4300  178.6110  145.4330 O   0  0  0  0  0  1  0  0  0  0  0  0
  181.0140  179.1260  139.6170 Cl  0  0  0  0  0  0  0  0  0  0  0  0
  184.9100  178.4770  143.4500 C   0  0  0  0  0  0  0  0  0  0  0  0
  182.6190  178.8360  141.8900 C   0  0  0  0  0  0  0  0  0  0  0  0
  190.8380  175.9260  147.7180 N   0  0  0  0  0  2  0  0  0  0  0  0
  191.8430  175.8220  146.7080 C   0  0  0  0  0  0  0  0  0  0  0  0
  191.6250  176.3810  145.3430 C   0  0  0  0  0  1  0  0  0  0  0  0
  192.9320  175.2530  146.9730 O   0  0  0  0  0  0  0  0  0  0  0  0
  1 16  1  6  0  0  0
  2 24  1  0  0  0  0
  3 11  1  0  0  0  0
  4 21  1  0  0  0  0
  4  3  2  0  0  0  0
  5 25  1  0  0  0  0
  6 18  1  0  0  0  0
  6  5  2  0  0  0  0
  7 19  1  0  0  0  0
  8 17  2  0  0  0  0
  9 28  1  0  0  0  0
  9 15  1  0  0  0  0
 10 17  1  6  0  0  0
 10 20  1  0  0  0  0
 10  1  1  0  0  0  0
 11 13  2  0  0  0  0
 12  2  2  0  0  0  0
 12  8  1  0  0  0  0
 13 12  1  0  0  0  0
 14 27  2  0  0  0  0
 15 18  2  0  0  0  0
 17  7  1  0  0  0  0
 19 16  1  0  0  0  0
 20 29  1  1  0  0  0
 20  1  1  0  0  0  0
 21 22  2  0  0  0  0
 22 14  1  0  0  0  0
 22 13  1  0  0  0  0
 23 28  2  0  0  0  0
 23 14  1  0  0  0  0
 24  7  2  0  0  0  0
 26  9  1  0  0  0  0
 27  5  1  0  0  0  0
 27  2  1  0  0  0  0
 28  6  1  0  0  0  0
 30 32  2  0  0  0  0
 30 29  1  0  0  0  0
 31 30  1  0  0  0  0
M  END
>  <MODEL>
2

>  <REMARK>
 VINA RESULT:     -10.4      4.028      8.229
  Name = 
  1 active torsions:
  status: ('A' for Active; 'I' for Inactive)
    1  A    between atoms: C_20  and  N_29
                            x       y       z     vdW  Elec       q    Type
                         _______ _______ _______ _____ _____    ______ ____

>  <TORSDO>
F 1

$$$$
=
 OpenBabel11122410413D

 32 38  0  0  1  0  0  0  0  0999 V2000
  182.9070  179.7150  138.8030 C   0  0  1  0  0  3  0  0  0  0  0  0
  186.4320  178.1760  142.2560 C   0  0  0  0  0  0  0  0  0  0  0  0
  184.1790  178.6250  146.5770 C   0  0  0  0  0  3  0  0  0  0  0  0
  185.3490  178.2460  147.2310 C   0  0  0  0  0  3  0  0  0  0  0  0
  188.8350  177.4650  142.1990 C   0  0  0  0  0  0  0  0  0  0  0  0
  189.9630  177.0930  142.9250 C   0  0  0  0  0  0  0  0  0  0  0  0
  185.1780  178.6590  140.2200 C   0  0  0  0  0  0  0  0  0  0  0  0
  184.0870  178.8610  142.3550 C   0  0  0  0  0  3  0  0  0  0  0  0
  191.2210  176.6280  144.7280 N   0  0  0  0  0  0  0  0  0  0  0  0
  182.7530  179.3500  140.2900 C   0  0  2  0  0  3  0  0  0  0  0  0
  184.1550  178.7030  145.1850 C   0  0  0  0  0  3  0  0  0  0  0  0
  185.2700  178.4810  143.0180 C   0  0  0  0  0  0  0  0  0  0  0  0
  185.3000  178.4020  144.4220 C   0  0  0  0  0  0  0  0  0  0  0  0
  187.6470  177.7090  144.3450 C   0  0  0  0  0  0  0  0  0  0  0  0
  192.1140  176.4170  143.6620 N   0  0  0  0  0  0  0  0  0  0  0  0
  184.2670  179.8010  138.3530 O   0  0  0  0  0  0  0  0  0  0  0  0
  184.0360  178.9460  140.9660 C   0  0  0  0  0  0  0  0  0  0  0  0
  191.3250  176.7120  142.4440 C   0  0  0  0  0  3  0  0  0  0  0  0
  185.0800  178.7110  138.7370 C   0  0  0  0  0  2  0  0  0  0  0  0
  182.3910  178.3360  139.2080 C   0  0  1  0  0  3  0  0  0  0  0  0
  186.4930  177.9430  146.4920 C   0  0  0  0  0  3  0  0  0  0  0  0
  186.4890  178.0150  145.0860 C   0  0  0  0  0  0  0  0  0  0  0  0
  188.8280  177.3250  145.0180 C   0  0  0  0  0  3  0  0  0  0  0  0
  186.3550  178.2680  140.8540 C   0  0  0  0  0  3  0  0  0  0  0  0
  188.9210  177.5080  140.8110 O   0  0  0  0  0  1  0  0  0  0  0  0
  191.6650  176.4120  146.3970 Cl  0  0  0  0  0  0  0  0  0  0  0  0
  187.6340  177.7850  142.9100 C   0  0  0  0  0  0  0  0  0  0  0  0
  189.9550  177.0270  144.2690 C   0  0  0  0  0  0  0  0  0  0  0  0
  180.9470  178.2960  139.0500 N   0  0  0  0  0  2  0  0  0  0  0  0
  180.1780  177.1190  139.3080 C   0  0  0  0  0  0  0  0  0  0  0  0
  180.8280  175.8570  139.7650 C   0  0  0  0  0  1  0  0  0  0  0  0
  178.9310  177.1470  139.1500 O   0  0  0  0  0  0  0  0  0  0  0  0
  1 16  1  1  0  0  0
  1 20  1  0  0  0  0
  1 10  1  0  0  0  0
  2 27  1  0  0  0  0
  2 12  1  0  0  0  0
  3  4  1  0  0  0  0
  5 27  2  0  0  0  0
  5  6  1  0  0  0  0
  6 28  2  0  0  0  0
  7 24  1  0  0  0  0
  7 17  2  0  0  0  0
  8 12  2  0  0  0  0
  9 26  1  0  0  0  0
 10 17  1  1  0  0  0
 11  3  2  0  0  0  0
 12 13  1  0  0  0  0
 13 22  2  0  0  0  0
 13 11  1  0  0  0  0
 14 23  2  0  0  0  0
 14 22  1  0  0  0  0
 15  9  1  0  0  0  0
 16 19  1  0  0  0  0
 17  8  1  0  0  0  0
 18  6  1  0  0  0  0
 18 15  2  0  0  0  0
 19  7  1  0  0  0  0
 20 29  1  6  0  0  0
 20 10  1  0  0  0  0
 21  4  2  0  0  0  0
 22 21  1  0  0  0  0
 24  2  2  0  0  0  0
 25  5  1  0  0  0  0
 27 14  1  0  0  0  0
 28  9  1  0  0  0  0
 28 23  1  0  0  0  0
 29 30  1  0  0  0  0
 30 31  1  0  0  0  0
 32 30  2  0  0  0  0
M  END
>  <MODEL>
3

>  <REMARK>
 VINA RESULT:     -10.4      3.095      3.976
  Name = 
  1 active torsions:
  status: ('A' for Active; 'I' for Inactive)
    1  A    between atoms: C_20  and  N_29
                            x       y       z     vdW  Elec       q    Type
                         _______ _______ _______ _____ _____    ______ ____

>  <TORSDO>
F 1

$$$$
=
 OpenBabel11122410413D

 32 38  0  0  1  0  0  0  0  0999 V2000
  181.9140  178.7530  139.9660 C   0  0  1  0  0  3  0  0  0  0  0  0
  186.0900  178.1870  142.9590 C   0  0  0  0  0  0  0  0  0  0  0  0
  189.7840  177.6210  139.8000 C   0  0  0  0  0  3  0  0  0  0  0  0
  190.6650  177.4190  140.8590 C   0  0  0  0  0  3  0  0  0  0  0  0
  186.5480  178.0160  145.4180 C   0  0  0  0  0  0  0  0  0  0  0  0
  187.4890  177.8070  146.4210 C   0  0  0  0  0  0  0  0  0  0  0  0
  183.8530  178.6220  142.0870 C   0  0  0  0  0  0  0  0  0  0  0  0
  185.6870  178.3530  140.5530 C   0  0  0  0  0  3  0  0  0  0  0  0
  189.5000  177.4030  147.3410 N   0  0  0  0  0  0  0  0  0  0  0  0
  183.4110  178.8170  139.6120 C   0  0  2  0  0  3  0  0  0  0  0  0
  188.4330  177.8600  140.0540 C   0  0  0  0  0  3  0  0  0  0  0  0
  186.5780  178.1460  141.6240 C   0  0  0  0  0  0  0  0  0  0  0  0
  187.9410  177.9030  141.3720 C   0  0  0  0  0  0  0  0  0  0  0  0
  188.3670  177.7390  143.7780 C   0  0  0  0  0  0  0  0  0  0  0  0
  188.6600  177.5190  148.4630 N   0  0  0  0  0  0  0  0  0  0  0  0
  181.6410  178.3010  141.2990 O   0  0  0  0  0  0  0  0  0  0  0  0
  184.3340  178.5950  140.7800 C   0  0  0  0  0  0  0  0  0  0  0  0
  187.3150  177.7870  147.9040 C   0  0  0  0  0  3  0  0  0  0  0  0
  182.4140  178.9310  142.3010 C   0  0  0  0  0  2  0  0  0  0  0  0
  182.6130  180.1030  139.8150 C   0  0  1  0  0  3  0  0  0  0  0  0
  190.1950  177.4590  142.1730 C   0  0  0  0  0  3  0  0  0  0  0  0
  188.8360  177.7000  142.4500 C   0  0  0  0  0  0  0  0  0  0  0  0
  189.2690  177.5350  144.8450 C   0  0  0  0  0  3  0  0  0  0  0  0
  184.7190  178.4340  143.1620 C   0  0  0  0  0  3  0  0  0  0  0  0
  185.2250  178.2470  145.7840 O   0  0  0  0  0  1  0  0  0  0  0  0
  191.2070  177.0850  147.4580 Cl  0  0  0  0  0  0  0  0  0  0  0  0
  186.9780  177.9850  144.0520 C   0  0  0  0  0  0  0  0  0  0  0  0
  188.7860  177.5770  146.1430 C   0  0  0  0  0  0  0  0  0  0  0  0
  182.2840  180.6740  138.5190 N   0  0  0  0  0  2  0  0  0  0  0  0
  181.0730  181.3950  138.2820 C   0  0  0  0  0  0  0  0  0  0  0  0
  180.0750  181.6040  139.3690 C   0  0  0  0  0  1  0  0  0  0  0  0
  180.8450  181.8630  137.1380 O   0  0  0  0  0  0  0  0  0  0  0  0
  1 16  1  1  0  0  0
  2 24  1  0  0  0  0
  2 27  1  0  0  0  0
  3 11  2  0  0  0  0
  3  4  1  0  0  0  0
  4 21  2  0  0  0  0
  5 25  1  0  0  0  0
  5  6  1  0  0  0  0
  6 18  1  0  0  0  0
  7 19  1  0  0  0  0
  7 24  2  0  0  0  0
  8 17  2  0  0  0  0
  8 12  1  0  0  0  0
  9 26  1  0  0  0  0
  9 15  1  0  0  0  0
 10 20  1  0  0  0  0
 10  1  1  0  0  0  0
 10 17  1  1  0  0  0
 11 13  1  0  0  0  0
 12  2  2  0  0  0  0
 13 12  1  0  0  0  0
 13 22  2  0  0  0  0
 14 27  1  0  0  0  0
 14 23  2  0  0  0  0
 16 19  1  0  0  0  0
 17  7  1  0  0  0  0
 18 15  2  0  0  0  0
 20 29  1  6  0  0  0
 20  1  1  0  0  0  0
 21 22  1  0  0  0  0
 22 14  1  0  0  0  0
 23 28  1  0  0  0  0
 27  5  2  0  0  0  0
 28  6  2  0  0  0  0
 28  9  1  0  0  0  0
 30 29  1  0  0  0  0
 30 31  1  0  0  0  0
 32 30  2  0  0  0  0
M  END
>  <MODEL>
4

>  <REMARK>
 VINA RESULT:     -10.3      3.173      5.154
  Name = 
  1 active torsions:
  status: ('A' for Active; 'I' for Inactive)
    1  A    between atoms: C_20  and  N_29
                            x       y       z     vdW  Elec       q    Type
                         _______ _______ _______ _____ _____    ______ ____

>  <TORSDO>
F 1

$$$$
=
 OpenBabel11122410413D

 32 38  0  0  1  0  0  0  0  0999 V2000
  179.5470  178.8950  141.8940 C   0  0  1  0  0  3  0  0  0  0  0  0
  184.4650  178.4570  143.4220 C   0  0  0  0  0  0  0  0  0  0  0  0
  187.0210  178.2530  139.2530 C   0  0  0  0  0  3  0  0  0  0  0  0
  188.1950  178.0600  139.9770 C   0  0  0  0  0  3  0  0  0  0  0  0
  185.6700  178.2090  145.6060 C   0  0  0  0  0  0  0  0  0  0  0  0
  186.8840  178.0160  146.2580 C   0  0  0  0  0  0  0  0  0  0  0  0
  182.0520  178.7920  143.3060 C   0  0  0  0  0  0  0  0  0  0  0  0
  183.3300  178.7010  141.2700 C   0  0  0  0  0  3  0  0  0  0  0  0
  189.0970  177.6970  146.4900 N   0  0  0  0  0  0  0  0  0  0  0  0
  180.8560  179.0640  141.1020 C   0  0  2  0  0  3  0  0  0  0  0  0
  185.8060  178.3980  139.9230 C   0  0  0  0  0  3  0  0  0  0  0  0
  184.5170  178.5030  142.0010 C   0  0  0  0  0  0  0  0  0  0  0  0
  185.7450  178.3550  141.3290 C   0  0  0  0  0  0  0  0  0  0  0  0
  186.9020  178.1140  143.4740 C   0  0  0  0  0  0  0  0  0  0  0  0
  188.6420  177.7130  147.8210 N   0  0  0  0  0  0  0  0  0  0  0  0
  179.7210  178.3700  143.2170 O   0  0  0  0  0  0  0  0  0  0  0  0
  182.1040  178.8500  141.9150 C   0  0  0  0  0  0  0  0  0  0  0  0
  187.1790  177.9220  147.7180 C   0  0  0  0  0  3  0  0  0  0  0  0
  180.7370  179.0030  143.9690 C   0  0  0  0  0  2  0  0  0  0  0  0
  180.1030  180.2890  141.6160 C   0  0  1  0  0  3  0  0  0  0  0  0
  188.1540  178.0150  141.3710 C   0  0  0  0  0  3  0  0  0  0  0  0
  186.9380  178.1610  142.0660 C   0  0  0  0  0  0  0  0  0  0  0  0
  188.0980  177.9200  144.1980 C   0  0  0  0  0  3  0  0  0  0  0  0
  183.2160  178.6110  144.0500 C   0  0  0  0  0  3  0  0  0  0  0  0
  184.5170  178.3440  146.3730 O   0  0  0  0  0  1  0  0  0  0  0  0
  190.7680  177.4780  146.0590 Cl  0  0  0  0  0  0  0  0  0  0  0  0
  185.6570  178.2630  144.1750 C   0  0  0  0  0  0  0  0  0  0  0  0
  188.0400  177.8780  145.5820 C   0  0  0  0  0  0  0  0  0  0  0  0
  179.3640  180.8950  140.5210 N   0  0  0  0  0  2  0  0  0  0  0  0
  179.9980  181.3440  139.3210 C   0  0  0  0  0  0  0  0  0  0  0  0
  181.4700  181.2070  139.1290 C   0  0  0  0  0  1  0  0  0  0  0  0
  179.3030  181.8630  138.4110 O   0  0  0  0  0  0  0  0  0  0  0  0
  1 16  1  1  0  0  0
  2 24  1  0  0  0  0
  2 27  1  0  0  0  0
  3 11  2  0  0  0  0
  3  4  1  0  0  0  0
  4 21  2  0  0  0  0
  5  6  1  0  0  0  0
  5 25  1  0  0  0  0
  6 18  1  0  0  0  0
  7 19  1  0  0  0  0
  7 24  2  0  0  0  0
  8 17  2  0  0  0  0
  8 12  1  0  0  0  0
  9 15  1  0  0  0  0
 10 20  1  0  0  0  0
 10  1  1  0  0  0  0
 10 17  1  1  0  0  0
 11 13  1  0  0  0  0
 12  2  2  0  0  0  0
 13 12  1  0  0  0  0
 13 22  2  0  0  0  0
 14 27  1  0  0  0  0
 14 23  2  0  0  0  0
 16 19  1  0  0  0  0
 17  7  1  0  0  0  0
 18 15  2  0  0  0  0
 20 29  1  6  0  0  0
 20  1  1  0  0  0  0
 21 22  1  0  0  0  0
 22 14  1  0  0  0  0
 23 28  1  0  0  0  0
 26  9  1  0  0  0  0
 27  5  2  0  0  0  0
 28  6  2  0  0  0  0
 28  9  1  0  0  0  0
 30 29  1  0  0  0  0
 31 30  1  0  0  0  0
 32 30  2  0  0  0  0
M  END
>  <MODEL>
5

>  <REMARK>
 VINA RESULT:     -10.2      3.779      6.028
  Name = 
  1 active torsions:
  status: ('A' for Active; 'I' for Inactive)
    1  A    between atoms: C_20  and  N_29
                            x       y       z     vdW  Elec       q    Type
                         _______ _______ _______ _____ _____    ______ ____

>  <TORSDO>
F 1

$$$$
=
 OpenBabel11122410413D

 32 38  0  0  1  0  0  0  0  0999 V2000
  180.5140  179.0930  138.4000 C   0  0  1  0  0  3  0  0  0  0  0  0
  184.5100  178.5930  141.6400 C   0  0  0  0  0  0  0  0  0  0  0  0
  188.3880  178.0250  138.7110 C   0  0  0  0  0  3  0  0  0  0  0  0
  189.2070  177.8420  139.8220 C   0  0  0  0  0  3  0  0  0  0  0  0
  184.8230  178.4510  144.1230 C   0  0  0  0  0  0  0  0  0  0  0  0
  185.7060  178.2600  145.1830 C   0  0  0  0  0  0  0  0  0  0  0  0
  182.3260  179.0010  140.6330 C   0  0  0  0  0  0  0  0  0  0  0  0
  184.2480  178.7310  139.2130 C   0  0  0  0  0  3  0  0  0  0  0  0
  187.6610  177.8830  146.2230 N   0  0  0  0  0  0  0  0  0  0  0  0
  182.0290  179.1660  138.1340 C   0  0  2  0  0  3  0  0  0  0  0  0
  187.0230  178.2560  138.8820 C   0  0  0  0  0  3  0  0  0  0  0  0
  185.0770  178.5430  140.3370 C   0  0  0  0  0  0  0  0  0  0  0  0
  186.4540  178.3080  140.1680 C   0  0  0  0  0  0  0  0  0  0  0  0
  186.7380  178.1720  142.5970 C   0  0  0  0  0  0  0  0  0  0  0  0
  186.7560  178.0030  147.2930 N   0  0  0  0  0  0  0  0  0  0  0  0
  180.1660  178.6530  139.7200 O   0  0  0  0  0  0  0  0  0  0  0  0
  182.8830  178.9640  139.3570 C   0  0  0  0  0  0  0  0  0  0  0  0
  185.4450  178.2540  146.6530 C   0  0  0  0  0  3  0  0  0  0  0  0
  180.8740  179.2990  140.7580 C   0  0  0  0  0  2  0  0  0  0  0  0
  181.2100  180.4470  138.2760 C   0  0  1  0  0  3  0  0  0  0  0  0
  188.6600  177.8910  141.1050 C   0  0  0  0  0  3  0  0  0  0  0  0
  187.2850  178.1240  141.2990 C   0  0  0  0  0  0  0  0  0  0  0  0
  187.5770  177.9860  143.7170 C   0  0  0  0  0  3  0  0  0  0  0  0
  183.1280  178.8310  141.7590 C   0  0  0  0  0  3  0  0  0  0  0  0
  183.4800  178.6750  144.4080 O   0  0  0  0  0  1  0  0  0  0  0  0
  189.3610  177.5800  146.4450 Cl  0  0  0  0  0  0  0  0  0  0  0  0
  185.3340  178.4090  142.7850 C   0  0  0  0  0  0  0  0  0  0  0  0
  187.0190  178.0390  144.9840 C   0  0  0  0  0  0  0  0  0  0  0  0
  180.9540  181.0030  136.9570 N   0  0  0  0  0  2  0  0  0  0  0  0
  180.4760  182.3350  136.7640 C   0  0  0  0  0  0  0  0  0  0  0  0
  180.2180  183.2380  137.9230 C   0  0  0  0  0  1  0  0  0  0  0  0
  180.2710  182.7570  135.5980 O   0  0  0  0  0  0  0  0  0  0  0  0
  1 16  1  1  0  0  0
  2 24  1  0  0  0  0
  2 27  1  0  0  0  0
  3 11  2  0  0  0  0
  3  4  1  0  0  0  0
  4 21  2  0  0  0  0
  5 25  1  0  0  0  0
  5  6  1  0  0  0  0
  6 18  1  0  0  0  0
  7 19  1  0  0  0  0
  7 24  2  0  0  0  0
  8 17  2  0  0  0  0
  8 12  1  0  0  0  0
  9 26  1  0  0  0  0
  9 15  1  0  0  0  0
 10 20  1  0  0  0  0
 10  1  1  0  0  0  0
 10 17  1  1  0  0  0
 11 13  1  0  0  0  0
 12  2  2  0  0  0  0
 13 12  1  0  0  0  0
 13 22  2  0  0  0  0
 14 27  1  0  0  0  0
 14 23  2  0  0  0  0
 16 19  1  0  0  0  0
 17  7  1  0  0  0  0
 18 15  2  0  0  0  0
 20 29  1  6  0  0  0
 20  1  1  0  0  0  0
 21 22  1  0  0  0  0
 22 14  1  0  0  0  0
 23 28  1  0  0  0  0
 27  5  2  0  0  0  0
 28  6  2  0  0  0  0
 28  9  1  0  0  0  0
 30 29  1  0  0  0  0
 30 31  1  0  0  0  0
 32 30  2  0  0  0  0
M  END
>  <MODEL>
6

>  <REMARK>
 VINA RESULT:      -9.5      3.892      5.770
  Name = 
  1 active torsions:
  status: ('A' for Active; 'I' for Inactive)
    1  A    between atoms: C_20  and  N_29
                            x       y       z     vdW  Elec       q    Type
                         _______ _______ _______ _____ _____    ______ ____

>  <TORSDO>
F 1

$$$$
=
 OpenBabel11122410413D

 32 38  0  0  1  0  0  0  0  0999 V2000
  191.6890  175.9170  147.1730 C   0  0  1  0  0  3  0  0  0  0  0  0
  188.2380  177.5890  143.7070 C   0  0  0  0  0  0  0  0  0  0  0  0
  184.2720  178.6700  146.3630 C   0  0  0  0  0  3  0  0  0  0  0  0
  183.5710  178.9760  145.2000 C   0  0  0  0  0  3  0  0  0  0  0  0
  188.1320  177.8020  141.2120 C   0  0  0  0  0  0  0  0  0  0  0  0
  187.3660  178.1270  140.0960 C   0  0  0  0  0  0  0  0  0  0  0  0
  190.2590  176.8530  144.8590 C   0  0  0  0  0  0  0  0  0  0  0  0
  188.3010  177.4010  146.1450 C   0  0  0  0  0  3  0  0  0  0  0  0
  185.5640  178.7860  138.9260 N   0  0  0  0  0  0  0  0  0  0  0  0
  190.3590  176.6670  147.3720 C   0  0  2  0  0  3  0  0  0  0  0  0
  185.6000  178.2500  146.2860 C   0  0  0  0  0  3  0  0  0  0  0  0
  187.5900  177.7080  144.9680 C   0  0  0  0  0  0  0  0  0  0  0  0
  186.2500  178.1310  145.0420 C   0  0  0  0  0  0  0  0  0  0  0  0
  186.1670  178.3310  142.6030 C   0  0  0  0  0  0  0  0  0  0  0  0
  186.5200  178.5530  137.9220 N   0  0  0  0  0  0  0  0  0  0  0  0
  191.9200  175.4690  145.8310 O   0  0  0  0  0  0  0  0  0  0  0  0
  189.6280  176.9810  146.0940 C   0  0  0  0  0  0  0  0  0  0  0  0
  187.7330  178.1130  138.6500 C   0  0  0  0  0  3  0  0  0  0  0  0
  191.6900  176.4490  144.8390 C   0  0  0  0  0  2  0  0  0  0  0  0
  191.6830  177.4250  147.4150 C   0  0  1  0  0  3  0  0  0  0  0  0
  184.1980  178.8630  143.9590 C   0  0  0  0  0  3  0  0  0  0  0  0
  185.5380  178.4430  143.8590 C   0  0  0  0  0  0  0  0  0  0  0  0
  185.4470  178.6450  141.4300 C   0  0  0  0  0  3  0  0  0  0  0  0
  189.5790  177.1640  143.6830 C   0  0  0  0  0  3  0  0  0  0  0  0
  189.4490  177.3960  141.0200 O   0  0  0  0  0  1  0  0  0  0  0  0
  183.9450  179.3290  138.5910 Cl  0  0  0  0  0  0  0  0  0  0  0  0
  187.5350  177.9000  142.5100 C   0  0  0  0  0  0  0  0  0  0  0  0
  186.0860  178.5280  140.2050 C   0  0  0  0  0  0  0  0  0  0  0  0
  192.0390  177.6940  148.7990 N   0  0  0  0  0  2  0  0  0  0  0  0
  193.0600  176.9660  149.4850 C   0  0  0  0  0  0  0  0  0  0  0  0
  193.8260  175.8840  148.8040 C   0  0  0  0  0  1  0  0  0  0  0  0
  193.3190  177.2440  150.6830 O   0  0  0  0  0  0  0  0  0  0  0  0
  1 16  1  6  0  0  0
  1 10  1  0  0  0  0
  1 20  1  0  0  0  0
  2 12  1  0  0  0  0
  4  3  2  0  0  0  0
  5 27  1  0  0  0  0
  6 28  1  0  0  0  0
  6  5  2  0  0  0  0
  7 17  2  0  0  0  0
  9 28  1  0  0  0  0
 10 17  1  6  0  0  0
 10 20  1  0  0  0  0
 11  3  1  0  0  0  0
 12 13  1  0  0  0  0
 12  8  2  0  0  0  0
 13 11  2  0  0  0  0
 14 22  1  0  0  0  0
 15 18  2  0  0  0  0
 15  9  1  0  0  0  0
 17  8  1  0  0  0  0
 18  6  1  0  0  0  0
 19  7  1  0  0  0  0
 19 16  1  0  0  0  0
 20 29  1  1  0  0  0
 21  4  1  0  0  0  0
 22 21  2  0  0  0  0
 22 13  1  0  0  0  0
 23 14  1  0  0  0  0
 24  2  2  0  0  0  0
 24  7  1  0  0  0  0
 25  5  1  0  0  0  0
 26  9  1  0  0  0  0
 27 14  2  0  0  0  0
 27  2  1  0  0  0  0
 28 23  2  0  0  0  0
 29 30  1  0  0  0  0
 30 32  2  0  0  0  0
 31 30  1  0  0  0  0
M  END
>  <MODEL>
7

>  <REMARK>
 VINA RESULT:      -9.0      3.015      8.160
  Name = 
  1 active torsions:
  status: ('A' for Active; 'I' for Inactive)
    1  A    between atoms: C_20  and  N_29
                            x       y       z     vdW  Elec       q    Type
                         _______ _______ _______ _____ _____    ______ ____

>  <TORSDO>
F 1

$$$$
=
 OpenBabel11122410413D

 32 38  0  0  1  0  0  0  0  0999 V2000
  193.1640  177.0180  138.4630 C   0  0  1  0  0  3  0  0  0  0  0  0
  189.4910  177.4950  142.0680 C   0  0  0  0  0  0  0  0  0  0  0  0
  185.4480  178.6090  139.5460 C   0  0  0  0  0  3  0  0  0  0  0  0
  184.7370  178.7450  140.7360 C   0  0  0  0  0  3  0  0  0  0  0  0
  189.3880  177.4260  144.5720 C   0  0  0  0  0  0  0  0  0  0  0  0
  188.6110  177.5790  145.7160 C   0  0  0  0  0  0  0  0  0  0  0  0
  191.5490  177.0300  140.8440 C   0  0  0  0  0  0  0  0  0  0  0  0
  189.5460  177.5670  139.6250 C   0  0  0  0  0  3  0  0  0  0  0  0
  186.7800  177.9950  146.9510 N   0  0  0  0  0  0  0  0  0  0  0  0
  191.6320  177.0790  138.3240 C   0  0  2  0  0  3  0  0  0  0  0  0
  186.8000  178.2670  139.5770 C   0  0  0  0  0  3  0  0  0  0  0  0
  188.8280  177.7080  140.8280 C   0  0  0  0  0  0  0  0  0  0  0  0
  187.4640  178.0540  140.8000 C   0  0  0  0  0  0  0  0  0  0  0  0
  187.3860  177.9820  143.2470 C   0  0  0  0  0  0  0  0  0  0  0  0
  187.7550  177.7110  147.9240 N   0  0  0  0  0  0  0  0  0  0  0  0
  193.6500  177.3080  139.7810 O   0  0  0  0  0  0  0  0  0  0  0  0
  190.8970  177.2260  139.6290 C   0  0  0  0  0  0  0  0  0  0  0  0
  188.9880  177.4290  147.1530 C   0  0  0  0  0  3  0  0  0  0  0  0
  192.9780  176.6190  140.8170 C   0  0  0  0  0  2  0  0  0  0  0  0
  192.3560  175.7350  138.2820 C   0  0  1  0  0  3  0  0  0  0  0  0
  185.3790  178.5370  141.9570 C   0  0  0  0  0  3  0  0  0  0  0  0
  186.7420  178.1900  142.0100 C   0  0  0  0  0  0  0  0  0  0  0  0
  186.6560  178.1210  144.4480 C   0  0  0  0  0  3  0  0  0  0  0  0
  190.8550  177.1500  142.0460 C   0  0  0  0  0  3  0  0  0  0  0  0
  190.7280  177.0810  144.7190 O   0  0  0  0  0  1  0  0  0  0  0  0
  185.1320  178.3950  147.3440 Cl  0  0  0  0  0  0  0  0  0  0  0  0
  188.7780  177.6290  143.2920 C   0  0  0  0  0  0  0  0  0  0  0  0
  187.3080  177.9100  145.6520 C   0  0  0  0  0  0  0  0  0  0  0  0
  192.4620  175.2890  136.9030 N   0  0  0  0  0  2  0  0  0  0  0  0
  191.4580  174.4900  136.2740 C   0  0  0  0  0  0  0  0  0  0  0  0
  190.2300  174.0730  137.0100 C   0  0  0  0  0  1  0  0  0  0  0  0
  191.6090  174.1330  135.0780 O   0  0  0  0  0  0  0  0  0  0  0  0
  1 16  1  1  0  0  0
  2 27  1  0  0  0  0
  3 11  2  0  0  0  0
  3  4  1  0  0  0  0
  4 21  2  0  0  0  0
  5 25  1  0  0  0  0
  5  6  1  0  0  0  0
  6 18  1  0  0  0  0
  7 24  2  0  0  0  0
  8 17  2  0  0  0  0
  8 12  1  0  0  0  0
  9 26  1  0  0  0  0
  9 15  1  0  0  0  0
 10  1  1  0  0  0  0
 10 17  1  1  0  0  0
 11 13  1  0  0  0  0
 12  2  2  0  0  0  0
 13 12  1  0  0  0  0
 13 22  2  0  0  0  0
 14 27  1  0  0  0  0
 14 23  2  0  0  0  0
 16 19  1  0  0  0  0
 17  7  1  0  0  0  0
 18 15  2  0  0  0  0
 19  7  1  0  0  0  0
 20 29  1  6  0  0  0
 20 10  1  0  0  0  0
 20  1  1  0  0  0  0
 21 22  1  0  0  0  0
 22 14  1  0  0  0  0
 23 28  1  0  0  0  0
 24  2  1  0  0  0  0
 27  5  2  0  0  0  0
 28  6  2  0  0  0  0
 28  9  1  0  0  0  0
 30 29  1  0  0  0  0
 30 31  1  0  0  0  0
 32 30  2  0  0  0  0
M  END
>  <MODEL>
8

>  <REMARK>
 VINA RESULT:      -9.0      2.657      3.633
  Name = 
  1 active torsions:
  status: ('A' for Active; 'I' for Inactive)
    1  A    between atoms: C_20  and  N_29
                            x       y       z     vdW  Elec       q    Type
                         _______ _______ _______ _____ _____    ______ ____

>  <TORSDO>
F 1

$$$$
