=
 OpenBabel11122412023D

 28 32  0  0  1  0  0  0  0  0999 V2000
  182.0220  178.6320  140.6970 C   0  0  0  0  0  0  0  0  0  0  0  0
  182.0810  175.3630  139.6800 F   0  0  0  0  0  0  0  0  0  0  0  0
  186.8250  178.8540  136.6750 C   0  0  0  0  0  1  0  0  0  0  0  0
  179.7960  179.9580  139.6140 C   0  0  0  0  0  3  0  0  0  0  0  0
  185.6250  176.7250  137.1480 C   0  0  2  0  0  3  0  0  0  0  0  0
  183.1970  177.9800  141.3660 C   0  0  0  0  0  2  0  0  0  0  0  0
  180.1530  176.2640  138.9130 O   0  0  0  0  0  1  0  0  0  0  0  0
  181.3540  175.6610  138.5400 C   0  0  1  0  0  0  0  0  0  0  0  0
  181.9770  174.0080  136.6880 C   0  0  2  0  0  3  0  0  0  0  0  0
  182.1690  176.6120  137.6180 C   0  0  2  0  0  3  0  0  0  0  0  0
  186.4550  178.2610  141.0870 O   0  0  0  0  0  0  0  0  0  0  0  0
  184.0570  177.5470  138.6780 C   0  0  1  0  0  3  0  0  0  0  0  0
  183.3690  174.5210  137.0210 C   0  0  0  0  0  2  0  0  0  0  0  0
  181.0130  174.3520  137.8190 C   0  0  0  0  0  2  0  0  0  0  0  0
  185.4240  178.9070  140.7660 C   0  0  0  0  0  0  0  0  0  0  0  0
  181.7880  178.5930  139.2910 C   0  0  0  0  0  0  0  0  0  0  0  0
  186.2050  177.9890  137.7540 C   0  0  2  0  0  3  0  0  0  0  0  0
  182.0150  172.5690  136.5030 N   0  0  0  0  0  1  0  0  0  0  0  0
  185.3140  179.4610  139.4870 O   0  0  0  0  0  0  0  0  0  0  0  0
  180.6740  179.2710  138.7750 C   0  0  0  0  0  3  0  0  0  0  0  0
  181.1280  179.3240  141.5240 C   0  0  0  0  0  3  0  0  0  0  0  0
  180.0210  179.9810  140.9880 C   0  0  0  0  0  3  0  0  0  0  0  0
  184.2760  179.0040  141.7160 C   0  0  0  0  0  2  0  0  0  0  0  0
  184.4620  176.3440  137.9510 N   0  0  1  0  0  0  0  0  0  0  0  0
  185.0010  178.6780  138.3340 C   0  0  2  0  0  3  0  0  0  0  0  0
  183.4040  175.9900  137.0810 N   0  0  2  0  0  0  0  0  0  0  0  0
  186.6580  175.6160  137.1800 C   0  0  0  0  0  1  0  0  0  0  0  0
  182.6600  177.8890  138.2710 C   0  0  2  0  0  3  0  0  0  0  0  0
  1  6  1  0  0  0  0
  1 21  1  0  0  0  0
  3 17  1  0  0  0  0
  4 22  1  0  0  0  0
  5 27  1  1  0  0  0
  5 17  1  0  0  0  0
  5 24  1  0  0  0  0
  6 23  1  0  0  0  0
  8  7  1  1  0  0  0
  8  2  1  0  0  0  0
  9 18  1  1  0  0  0
  9 13  1  0  0  0  0
  9 14  1  0  0  0  0
 10 28  1  0  0  0  0
 10  8  1  0  0  0  0
 13 26  1  0  0  0  0
 14  8  1  0  0  0  0
 15 11  2  0  0  0  0
 15 23  1  0  0  0  0
 16  1  2  0  0  0  0
 17 25  1  0  0  0  0
 19 15  1  0  0  0  0
 20 16  1  0  0  0  0
 20  4  2  0  0  0  0
 22 21  2  0  0  0  0
 24 12  1  0  0  0  0
 25 12  1  0  0  0  0
 25 19  1  0  0  0  0
 26 10  1  0  0  0  0
 26 24  1  0  0  0  0
 28 12  1  0  0  0  0
 28 16  1  0  0  0  0
M  END
>  <MODEL>
1

>  <REMARK>
 VINA RESULT:      -5.8      0.000      0.000
  Name = 
  0 active torsions:
  status: ('A' for Active; 'I' for Inactive)
                            x       y       z     vdW  Elec       q    Type
                         _______ _______ _______ _____ _____    ______ ____

>  <TORSDO>
F 0

$$$$
=
 OpenBabel11122412023D

 28 32  0  0  1  0  0  0  0  0999 V2000
  179.9590  177.7510  141.6300 C   0  0  0  0  0  0  0  0  0  0  0  0
  179.0580  179.9660  139.1800 F   0  0  0  0  0  0  0  0  0  0  0  0
  183.9410  176.0180  137.1090 C   0  0  0  0  0  1  0  0  0  0  0  0
  181.3480  179.0700  143.6840 C   0  0  0  0  0  3  0  0  0  0  0  0
  182.2760  177.8330  136.7480 C   0  0  2  0  0  3  0  0  0  0  0  0
  179.1700  176.9860  140.6080 C   0  0  0  0  0  2  0  0  0  0  0  0
  179.9840  181.1690  140.8570 O   0  0  0  0  0  1  0  0  0  0  0  0
  180.0970  180.8200  139.5120 C   0  0  1  0  0  0  0  0  0  0  0  0
  180.8210  182.1140  137.4250 C   0  0  2  0  0  3  0  0  0  0  0  0
  181.4640  180.1270  139.2480 C   0  0  2  0  0  3  0  0  0  0  0  0
  179.8920  174.6540  138.4140 O   0  0  0  0  0  0  0  0  0  0  0  0
  181.2760  177.8080  138.8620 C   0  0  1  0  0  3  0  0  0  0  0  0
  180.9630  180.7010  136.8840 C   0  0  0  0  0  2  0  0  0  0  0  0
  179.9600  182.1040  138.6850 C   0  0  0  0  0  2  0  0  0  0  0  0
  180.4020  175.1670  139.4440 C   0  0  0  0  0  0  0  0  0  0  0  0
  181.0900  178.5600  141.3160 C   0  0  0  0  0  0  0  0  0  0  0  0
  182.5080  176.4560  137.3410 C   0  0  2  0  0  3  0  0  0  0  0  0
  180.2060  182.9640  136.4230 N   0  0  0  0  0  1  0  0  0  0  0  0
  181.7580  175.5040  139.4620 O   0  0  0  0  0  0  0  0  0  0  0  0
  181.7710  179.2000  142.3610 C   0  0  0  0  0  3  0  0  0  0  0  0
  179.5470  177.6330  142.9640 C   0  0  0  0  0  3  0  0  0  0  0  0
  180.2340  178.2890  143.9850 C   0  0  0  0  0  3  0  0  0  0  0  0
  179.5400  175.5030  140.6160 C   0  0  0  0  0  2  0  0  0  0  0  0
  181.2780  178.5090  137.5780 N   0  0  1  0  0  0  0  0  0  0  0  0
  182.2690  176.6690  138.8100 C   0  0  2  0  0  3  0  0  0  0  0  0
  181.7060  179.8370  137.8140 N   0  0  2  0  0  0  0  0  0  0  0  0
  181.7590  177.7020  135.3280 C   0  0  0  0  0  1  0  0  0  0  0  0
  181.6550  178.7850  139.9280 C   0  0  2  0  0  3  0  0  0  0  0  0
  1 21  1  0  0  0  0
  3 17  1  0  0  0  0
  4 22  1  0  0  0  0
  5 27  1  6  0  0  0
  5 17  1  0  0  0  0
  5 24  1  0  0  0  0
  6 23  1  0  0  0  0
  6  1  1  0  0  0  0
  8  2  1  6  0  0  0
  8  7  1  0  0  0  0
  9 18  1  6  0  0  0
  9 14  1  0  0  0  0
 10  8  1  0  0  0  0
 10 28  1  0  0  0  0
 11 15  2  0  0  0  0
 12 28  1  0  0  0  0
 13  9  1  0  0  0  0
 13 26  1  0  0  0  0
 14  8  1  0  0  0  0
 15 19  1  0  0  0  0
 15 23  1  0  0  0  0
 16  1  2  0  0  0  0
 16 20  1  0  0  0  0
 17 25  1  0  0  0  0
 20  4  2  0  0  0  0
 21 22  2  0  0  0  0
 24 26  1  0  0  0  0
 24 12  1  0  0  0  0
 25 12  1  0  0  0  0
 25 19  1  0  0  0  0
 26 10  1  0  0  0  0
 28 16  1  0  0  0  0
M  END
>  <MODEL>
2

>  <REMARK>
 VINA RESULT:      -5.7      3.036      5.251
  Name = 
  0 active torsions:
  status: ('A' for Active; 'I' for Inactive)
                            x       y       z     vdW  Elec       q    Type
                         _______ _______ _______ _____ _____    ______ ____

>  <TORSDO>
F 0

$$$$
=
 OpenBabel11122412023D

 28 32  0  0  1  0  0  0  0  0999 V2000
  187.8990  176.2360  136.5020 C   0  0  0  0  0  0  0  0  0  0  0  0
  188.8770  176.0420  139.7780 F   0  0  0  0  0  0  0  0  0  0  0  0
  183.7230  180.1270  139.0930 C   0  0  0  0  0  1  0  0  0  0  0  0
  189.7740  177.6940  135.0030 C   0  0  0  0  0  3  0  0  0  0  0  0
  185.4100  178.9250  140.4740 C   0  0  2  0  0  3  0  0  0  0  0  0
  186.8860  175.3920  137.2190 C   0  0  0  0  0  2  0  0  0  0  0  0
  190.5500  177.0570  138.6430 O   0  0  0  0  0  1  0  0  0  0  0  0
  189.6180  177.2070  139.6690 C   0  0  1  0  0  0  0  0  0  0  0  0
  189.7000  178.3660  141.9500 C   0  0  2  0  0  3  0  0  0  0  0  0
  188.6800  178.4120  139.3730 C   0  0  2  0  0  3  0  0  0  0  0  0
  183.7350  175.7840  138.0470 O   0  0  0  0  0  0  0  0  0  0  0  0
  186.4970  177.7660  138.7570 C   0  0  1  0  0  3  0  0  0  0  0  0
  188.1920  178.2480  141.8020 C   0  0  0  0  0  2  0  0  0  0  0  0
  190.3930  177.4180  140.9750 C   0  0  0  0  0  2  0  0  0  0  0  0
  184.5730  176.3020  137.2640 C   0  0  0  0  0  0  0  0  0  0  0  0
  188.2960  177.5360  136.9320 C   0  0  0  0  0  0  0  0  0  0  0  0
  184.4320  178.8070  139.3200 C   0  0  2  0  0  3  0  0  0  0  0  0
  190.0890  178.0340  143.3080 N   0  0  0  0  0  1  0  0  0  0  0  0
  184.6700  177.6920  137.1590 O   0  0  0  0  0  0  0  0  0  0  0  0
  189.2260  178.2470  136.1600 C   0  0  0  0  0  3  0  0  0  0  0  0
  188.4620  175.6960  135.3380 C   0  0  0  0  0  3  0  0  0  0  0  0
  189.3950  176.4180  134.5940 C   0  0  0  0  0  3  0  0  0  0  0  0
  185.5300  175.4350  136.5150 C   0  0  0  0  0  2  0  0  0  0  0  0
  186.5320  178.0280  140.1970 N   0  0  1  0  0  0  0  0  0  0  0  0
  185.3200  178.4940  138.1470 C   0  0  2  0  0  3  0  0  0  0  0  0
  187.7390  178.7080  140.4810 N   0  0  2  0  0  0  0  0  0  0  0  0
  184.7320  178.5150  141.7670 C   0  0  0  0  0  1  0  0  0  0  0  0
  187.7790  178.2530  138.1640 C   0  0  2  0  0  3  0  0  0  0  0  0
  1 16  1  0  0  0  0
  1  6  1  0  0  0  0
  3 17  1  0  0  0  0
  4 20  1  0  0  0  0
  5 27  1  1  0  0  0
  8  7  1  6  0  0  0
  8  2  1  0  0  0  0
  8 14  1  0  0  0  0
  9 18  1  1  0  0  0
 10  8  1  0  0  0  0
 10 26  1  0  0  0  0
 12 24  1  0  0  0  0
 13  9  1  0  0  0  0
 14  9  1  0  0  0  0
 15 11  2  0  0  0  0
 16 28  1  0  0  0  0
 17  5  1  0  0  0  0
 19 15  1  0  0  0  0
 19 25  1  0  0  0  0
 20 16  2  0  0  0  0
 21  1  2  0  0  0  0
 22  4  2  0  0  0  0
 22 21  1  0  0  0  0
 23  6  1  0  0  0  0
 23 15  1  0  0  0  0
 24  5  1  0  0  0  0
 24 26  1  0  0  0  0
 25 12  1  0  0  0  0
 25 17  1  0  0  0  0
 26 13  1  0  0  0  0
 28 12  1  0  0  0  0
 28 10  1  0  0  0  0
M  END
>  <MODEL>
3

>  <REMARK>
 VINA RESULT:      -5.6      3.449      7.409
  Name = 
  0 active torsions:
  status: ('A' for Active; 'I' for Inactive)
                            x       y       z     vdW  Elec       q    Type
                         _______ _______ _______ _____ _____    ______ ____

>  <TORSDO>
F 0

$$$$
=
 OpenBabel11122412023D

 28 32  0  0  1  0  0  0  0  0999 V2000
  190.1740  176.9660  138.1110 C   0  0  0  0  0  0  0  0  0  0  0  0
  189.8580  173.6240  137.4380 F   0  0  0  0  0  0  0  0  0  0  0  0
  195.6210  175.9490  135.1810 C   0  0  0  0  0  1  0  0  0  0  0  0
  188.4600  178.4650  136.4670 C   0  0  0  0  0  3  0  0  0  0  0  0
  194.0010  174.1030  135.5890 C   0  0  2  0  0  3  0  0  0  0  0  0
  191.0670  176.2330  139.0700 C   0  0  0  0  0  2  0  0  0  0  0  0
  188.2980  174.7020  136.2050 O   0  0  0  0  0  1  0  0  0  0  0  0
  189.4240  173.8820  136.1490 C   0  0  1  0  0  0  0  0  0  0  0  0
  190.0940  171.9320  134.6310 C   0  0  2  0  0  3  0  0  0  0  0  0
  190.5530  174.5740  135.3330 C   0  0  2  0  0  3  0  0  0  0  0  0
  194.3170  175.9810  139.4530 O   0  0  0  0  0  0  0  0  0  0  0  0
  192.3370  175.3400  136.6730 C   0  0  1  0  0  3  0  0  0  0  0  0
  191.4630  172.2670  135.1980 C   0  0  0  0  0  2  0  0  0  0  0  0
  189.0060  172.5580  135.4980 C   0  0  0  0  0  2  0  0  0  0  0  0
  193.4950  176.7300  138.8650 C   0  0  0  0  0  0  0  0  0  0  0  0
  190.2090  176.7850  136.6980 C   0  0  0  0  0  0  0  0  0  0  0  0
  194.6660  175.3320  136.1820 C   0  0  2  0  0  3  0  0  0  0  0  0
  189.9160  170.4930  134.5940 N   0  0  0  0  0  1  0  0  0  0  0  0
  193.7290  177.1290  137.5460 O   0  0  0  0  0  0  0  0  0  0  0  0
  189.3500  177.5530  135.8990 C   0  0  0  0  0  3  0  0  0  0  0  0
  189.2720  177.8840  138.6650 C   0  0  0  0  0  3  0  0  0  0  0  0
  188.4190  178.6280  137.8500 C   0  0  0  0  0  3  0  0  0  0  0  0
  192.2210  177.1190  139.5400 C   0  0  0  0  0  2  0  0  0  0  0  0
  192.6580  174.0060  136.1630 N   0  0  1  0  0  0  0  0  0  0  0  0
  193.5110  176.2620  136.4310 C   0  0  2  0  0  3  0  0  0  0  0  0
  191.7410  173.7090  135.1270 N   0  0  2  0  0  0  0  0  0  0  0  0
  194.8010  172.8640  135.9400 C   0  0  0  0  0  1  0  0  0  0  0  0
  191.1250  175.8340  135.9530 C   0  0  2  0  0  3  0  0  0  0  0  0
  1 21  1  0  0  0  0
  1  6  1  0  0  0  0
  3 17  1  0  0  0  0
  4 22  1  0  0  0  0
  5 27  1  1  0  0  0
  5 24  1  0  0  0  0
  5 17  1  0  0  0  0
  6 23  1  0  0  0  0
  8  7  1  1  0  0  0
  8  2  1  0  0  0  0
  9 18  1  1  0  0  0
  9 13  1  0  0  0  0
  9 14  1  0  0  0  0
 10 28  1  0  0  0  0
 10  8  1  0  0  0  0
 14  8  1  0  0  0  0
 15 11  2  0  0  0  0
 15 23  1  0  0  0  0
 16  1  2  0  0  0  0
 17 25  1  0  0  0  0
 19 15  1  0  0  0  0
 20  4  2  0  0  0  0
 20 16  1  0  0  0  0
 22 21  2  0  0  0  0
 24 12  1  0  0  0  0
 25 12  1  0  0  0  0
 25 19  1  0  0  0  0
 26 13  1  0  0  0  0
 26 10  1  0  0  0  0
 26 24  1  0  0  0  0
 28 12  1  0  0  0  0
 28 16  1  0  0  0  0
M  END
>  <MODEL>
4

>  <REMARK>
 VINA RESULT:      -5.5      6.767      8.789
  Name = 
  0 active torsions:
  status: ('A' for Active; 'I' for Inactive)
                            x       y       z     vdW  Elec       q    Type
                         _______ _______ _______ _____ _____    ______ ____

>  <TORSDO>
F 0

$$$$
=
 OpenBabel11122412023D

 28 32  0  0  1  0  0  0  0  0999 V2000
  183.1730  176.9910  137.1600 C   0  0  0  0  0  0  0  0  0  0  0  0
  184.8850  174.0520  137.5520 F   0  0  0  0  0  0  0  0  0  0  0  0
  189.0530  179.1590  137.0410 C   0  0  0  0  0  1  0  0  0  0  0  0
  182.0400  177.1340  134.5940 C   0  0  0  0  0  3  0  0  0  0  0  0
  188.5670  176.7410  137.3790 C   0  0  2  0  0  3  0  0  0  0  0  0
  183.6890  176.9620  138.5700 C   0  0  0  0  0  2  0  0  0  0  0  0
  183.8600  173.9630  135.5370 O   0  0  0  0  0  1  0  0  0  0  0  0
  185.0940  173.9440  136.1870 C   0  0  1  0  0  0  0  0  0  0  0  0
  187.2710  172.6640  135.7690 C   0  0  2  0  0  3  0  0  0  0  0  0
  185.9840  175.1170  135.6870 C   0  0  2  0  0  3  0  0  0  0  0  0
  185.9610  178.6560  140.2250 O   0  0  0  0  0  0  0  0  0  0  0  0
  186.2320  176.8430  137.2760 C   0  0  1  0  0  3  0  0  0  0  0  0
  187.8140  173.7580  136.6730 C   0  0  0  0  0  2  0  0  0  0  0  0
  185.7520  172.5900  135.8980 C   0  0  0  0  0  2  0  0  0  0  0  0
  185.3030  178.7600  139.1570 C   0  0  0  0  0  0  0  0  0  0  0  0
  183.9920  176.7900  136.0110 C   0  0  0  0  0  0  0  0  0  0  0  0
  188.1600  178.1570  137.7440 C   0  0  2  0  0  3  0  0  0  0  0  0
  187.8520  171.3870  136.1400 N   0  0  0  0  0  1  0  0  0  0  0  0
  185.9400  179.1500  137.9760 O   0  0  0  0  0  0  0  0  0  0  0  0
  183.4040  176.8760  134.7420 C   0  0  0  0  0  3  0  0  0  0  0  0
  181.8050  177.2470  136.9940 C   0  0  0  0  0  3  0  0  0  0  0  0
  181.2410  177.3160  135.7210 C   0  0  0  0  0  3  0  0  0  0  0  0
  183.8610  178.3750  139.1280 C   0  0  0  0  0  2  0  0  0  0  0  0
  187.3580  175.9160  137.3940 N   0  0  1  0  0  0  0  0  0  0  0  0
  186.7570  178.2590  137.2130 C   0  0  2  0  0  3  0  0  0  0  0  0
  187.3580  175.0900  136.2460 N   0  0  2  0  0  0  0  0  0  0  0  0
  189.5630  176.2130  138.3940 C   0  0  0  0  0  1  0  0  0  0  0  0
  185.4810  176.5060  136.0290 C   0  0  2  0  0  3  0  0  0  0  0  0
  1  6  1  0  0  0  0
  3 17  1  0  0  0  0
  4 20  2  0  0  0  0
  4 22  1  0  0  0  0
  5 24  1  0  0  0  0
  5 17  1  0  0  0  0
  5 27  1  1  0  0  0
  6 23  1  0  0  0  0
  8  7  1  6  0  0  0
  8  2  1  0  0  0  0
  9 14  1  0  0  0  0
  9 18  1  1  0  0  0
  9 13  1  0  0  0  0
 10 28  1  0  0  0  0
 10  8  1  0  0  0  0
 10 26  1  0  0  0  0
 12 24  1  0  0  0  0
 14  8  1  0  0  0  0
 15 11  2  0  0  0  0
 16 28  1  0  0  0  0
 16  1  2  0  0  0  0
 19 15  1  0  0  0  0
 20 16  1  0  0  0  0
 21  1  1  0  0  0  0
 22 21  2  0  0  0  0
 23 15  1  0  0  0  0
 25 12  1  0  0  0  0
 25 17  1  0  0  0  0
 25 19  1  0  0  0  0
 26 13  1  0  0  0  0
 26 24  1  0  0  0  0
 28 12  1  0  0  0  0
M  END
>  <MODEL>
5

>  <REMARK>
 VINA RESULT:      -5.5      2.871      4.105
  Name = 
  0 active torsions:
  status: ('A' for Active; 'I' for Inactive)
                            x       y       z     vdW  Elec       q    Type
                         _______ _______ _______ _____ _____    ______ ____

>  <TORSDO>
F 0

$$$$
=
 OpenBabel11122412023D

 28 32  0  0  1  0  0  0  0  0999 V2000
  183.6520  177.2390  139.2300 C   0  0  0  0  0  0  0  0  0  0  0  0
  184.3990  177.0250  142.5650 F   0  0  0  0  0  0  0  0  0  0  0  0
  178.9310  180.6150  141.5970 C   0  0  0  0  0  1  0  0  0  0  0  0
  185.4790  178.9220  137.9200 C   0  0  0  0  0  3  0  0  0  0  0  0
  180.6220  179.5350  143.0710 C   0  0  2  0  0  3  0  0  0  0  0  0
  182.6770  176.2760  139.8430 C   0  0  0  0  0  2  0  0  0  0  0  0
  186.0430  178.2360  141.5900 O   0  0  0  0  0  1  0  0  0  0  0  0
  185.0270  178.2590  142.5450 C   0  0  1  0  0  0  0  0  0  0  0  0
  184.8260  179.3420  144.8570 C   0  0  2  0  0  3  0  0  0  0  0  0
  183.9990  179.3780  142.2110 C   0  0  2  0  0  3  0  0  0  0  0  0
  179.4490  176.3330  140.4370 O   0  0  0  0  0  0  0  0  0  0  0  0
  181.9420  178.5460  141.4120 C   0  0  1  0  0  3  0  0  0  0  0  0
  183.3520  179.0840  144.5900 C   0  0  0  0  0  2  0  0  0  0  0  0
  185.6790  178.4990  143.9120 C   0  0  0  0  0  2  0  0  0  0  0  0
  180.2880  176.9560  139.7350 C   0  0  0  0  0  0  0  0  0  0  0  0
  183.8850  178.5550  139.7250 C   0  0  0  0  0  0  0  0  0  0  0  0
  179.7490  179.3630  141.8420 C   0  0  2  0  0  3  0  0  0  0  0  0
  185.1430  179.0010  146.2310 N   0  0  0  0  0  1  0  0  0  0  0  0
  180.2540  178.3520  139.6760 O   0  0  0  0  0  0  0  0  0  0  0  0
  184.7950  179.3780  139.0460 C   0  0  0  0  0  3  0  0  0  0  0  0
  184.3500  176.7960  138.0990 C   0  0  0  0  0  3  0  0  0  0  0  0
  185.2590  177.6300  137.4480 C   0  0  0  0  0  3  0  0  0  0  0  0
  181.3790  176.2120  139.0380 C   0  0  0  0  0  2  0  0  0  0  0  0
  181.8450  178.7600  142.8560 N   0  0  1  0  0  0  0  0  0  0  0  0
  180.7470  179.1780  140.7330 C   0  0  2  0  0  3  0  0  0  0  0  0
  182.9540  179.5430  143.2510 N   0  0  2  0  0  0  0  0  0  0  0  0
  179.8940  179.0160  144.2960 C   0  0  0  0  0  1  0  0  0  0  0  0
  183.2100  179.1750  140.9320 C   0  0  2  0  0  3  0  0  0  0  0  0
  1 16  1  0  0  0  0
  1  6  1  0  0  0  0
  3 17  1  0  0  0  0
  4 20  1  0  0  0  0
  5 27  1  1  0  0  0
  8  7  1  6  0  0  0
  8  2  1  0  0  0  0
  8 14  1  0  0  0  0
  9 18  1  1  0  0  0
 10  8  1  0  0  0  0
 10 26  1  0  0  0  0
 12 24  1  0  0  0  0
 13  9  1  0  0  0  0
 14  9  1  0  0  0  0
 15 11  2  0  0  0  0
 16 28  1  0  0  0  0
 17  5  1  0  0  0  0
 19 15  1  0  0  0  0
 19 25  1  0  0  0  0
 20 16  2  0  0  0  0
 21  1  2  0  0  0  0
 22  4  2  0  0  0  0
 22 21  1  0  0  0  0
 23 15  1  0  0  0  0
 23  6  1  0  0  0  0
 24  5  1  0  0  0  0
 24 26  1  0  0  0  0
 25 12  1  0  0  0  0
 25 17  1  0  0  0  0
 26 13  1  0  0  0  0
 28 12  1  0  0  0  0
 28 10  1  0  0  0  0
M  END
>  <MODEL>
6

>  <REMARK>
 VINA RESULT:      -5.4      2.957      6.741
  Name = 
  0 active torsions:
  status: ('A' for Active; 'I' for Inactive)
                            x       y       z     vdW  Elec       q    Type
                         _______ _______ _______ _____ _____    ______ ____

>  <TORSDO>
F 0

$$$$
=
 OpenBabel11122412023D

 28 32  0  0  1  0  0  0  0  0999 V2000
  181.9460  178.2700  139.5140 C   0  0  0  0  0  0  0  0  0  0  0  0
  182.4750  174.9920  138.6790 F   0  0  0  0  0  0  0  0  0  0  0  0
  187.4800  178.7890  136.6170 C   0  0  0  0  0  1  0  0  0  0  0  0
  179.9150  179.3750  137.9190 C   0  0  0  0  0  3  0  0  0  0  0  0
  186.3710  176.5800  136.9130 C   0  0  2  0  0  3  0  0  0  0  0  0
  182.9920  177.7370  140.4500 C   0  0  0  0  0  2  0  0  0  0  0  0
  180.6980  175.7080  137.4760 O   0  0  0  0  0  1  0  0  0  0  0  0
  181.9930  175.1980  137.3970 C   0  0  1  0  0  0  0  0  0  0  0  0
  183.1310  173.5550  135.7970 C   0  0  2  0  0  3  0  0  0  0  0  0
  182.9160  176.1900  136.6320 C   0  0  2  0  0  3  0  0  0  0  0  0
  186.2010  178.2830  140.8670 O   0  0  0  0  0  0  0  0  0  0  0  0
  184.4500  177.3080  138.0310 C   0  0  1  0  0  3  0  0  0  0  0  0
  184.3730  174.1910  136.4000 C   0  0  0  0  0  2  0  0  0  0  0  0
  181.9190  173.8460  136.6780 C   0  0  0  0  0  2  0  0  0  0  0  0
  185.2190  178.8320  140.3030 C   0  0  0  0  0  0  0  0  0  0  0  0
  182.0280  178.1750  138.0950 C   0  0  0  0  0  0  0  0  0  0  0  0
  186.7070  177.9040  137.5740 C   0  0  2  0  0  3  0  0  0  0  0  0
  183.3180  172.1200  135.6890 N   0  0  0  0  0  1  0  0  0  0  0  0
  185.3490  179.3410  139.0080 O   0  0  0  0  0  0  0  0  0  0  0  0
  181.0060  178.7430  137.3210 C   0  0  0  0  0  3  0  0  0  0  0  0
  180.8420  178.9060  140.0980 C   0  0  0  0  0  3  0  0  0  0  0  0
  179.8320  179.4540  139.3080 C   0  0  0  0  0  3  0  0  0  0  0  0
  183.8880  178.8570  140.9790 C   0  0  0  0  0  2  0  0  0  0  0  0
  185.0940  176.1230  137.4630 N   0  0  1  0  0  0  0  0  0  0  0  0
  185.3560  178.5040  137.8500 C   0  0  2  0  0  3  0  0  0  0  0  0
  184.2820  175.6590  136.4010 N   0  0  2  0  0  0  0  0  0  0  0  0
  187.4540  175.5630  137.2170 C   0  0  0  0  0  1  0  0  0  0  0  0
  183.1530  177.5200  137.3190 C   0  0  2  0  0  3  0  0  0  0  0  0
  1 21  1  0  0  0  0
  1  6  1  0  0  0  0
  3 17  1  0  0  0  0
  4 22  1  0  0  0  0
  5 27  1  1  0  0  0
  5 24  1  0  0  0  0
  5 17  1  0  0  0  0
  6 23  1  0  0  0  0
  8  7  1  1  0  0  0
  8  2  1  0  0  0  0
  9 18  1  1  0  0  0
  9 13  1  0  0  0  0
  9 14  1  0  0  0  0
 10 28  1  0  0  0  0
 10  8  1  0  0  0  0
 13 26  1  0  0  0  0
 14  8  1  0  0  0  0
 15 11  2  0  0  0  0
 15 23  1  0  0  0  0
 16  1  2  0  0  0  0
 17 25  1  0  0  0  0
 19 15  1  0  0  0  0
 20  4  2  0  0  0  0
 20 16  1  0  0  0  0
 22 21  2  0  0  0  0
 24 12  1  0  0  0  0
 25 12  1  0  0  0  0
 25 19  1  0  0  0  0
 26 10  1  0  0  0  0
 26 24  1  0  0  0  0
 28 12  1  0  0  0  0
 28 16  1  0  0  0  0
M  END
>  <MODEL>
7

>  <REMARK>
 VINA RESULT:      -5.4      1.025      1.185
  Name = 
  0 active torsions:
  status: ('A' for Active; 'I' for Inactive)
                            x       y       z     vdW  Elec       q    Type
                         _______ _______ _______ _____ _____    ______ ____

>  <TORSDO>
F 0

$$$$
=
 OpenBabel11122412023D

 28 32  0  0  1  0  0  0  0  0999 V2000
  180.5010  176.3230  137.4940 C   0  0  0  0  0  0  0  0  0  0  0  0
  183.6980  176.3710  138.7210 F   0  0  0  0  0  0  0  0  0  0  0  0
  179.6710  180.0200  142.4870 C   0  0  0  0  0  1  0  0  0  0  0  0
  180.3320  177.8370  135.1340 C   0  0  0  0  0  3  0  0  0  0  0  0
  181.8900  179.0200  141.9670 C   0  0  2  0  0  3  0  0  0  0  0  0
  180.5240  175.4430  138.7100 C   0  0  0  0  0  2  0  0  0  0  0  0
  183.7320  177.4480  136.7320 O   0  0  0  0  0  1  0  0  0  0  0  0
  183.9620  177.5810  138.1010 C   0  0  1  0  0  0  0  0  0  0  0  0
  185.7120  178.8590  139.4630 C   0  0  2  0  0  3  0  0  0  0  0  0
  183.0540  178.6950  138.6930 C   0  0  2  0  0  3  0  0  0  0  0  0
  179.2280  175.6420  141.7190 O   0  0  0  0  0  0  0  0  0  0  0  0
  181.2960  177.8580  140.0250 C   0  0  1  0  0  3  0  0  0  0  0  0
  184.6890  178.6220  140.5610 C   0  0  0  0  0  2  0  0  0  0  0  0
  185.4450  177.9160  138.2930 C   0  0  0  0  0  2  0  0  0  0  0  0
  179.0740  176.1800  140.5910 C   0  0  0  0  0  0  0  0  0  0  0  0
  180.9690  177.6690  137.4800 C   0  0  0  0  0  0  0  0  0  0  0  0
  180.3950  178.7700  142.0290 C   0  0  2  0  0  3  0  0  0  0  0  0
  187.0480  178.6280  139.9780 N   0  0  0  0  0  1  0  0  0  0  0  0
  178.9310  177.5660  140.4890 O   0  0  0  0  0  0  0  0  0  0  0  0
  180.8640  178.4060  136.2910 C   0  0  0  0  0  3  0  0  0  0  0  0
  179.9720  175.7670  136.3220 C   0  0  0  0  0  3  0  0  0  0  0  0
  179.8890  176.5160  135.1490 C   0  0  0  0  0  3  0  0  0  0  0  0
  179.1400  175.3490  139.3530 C   0  0  0  0  0  2  0  0  0  0  0  0
  182.4310  178.1960  140.8850 N   0  0  1  0  0  0  0  0  0  0  0  0
  180.0370  178.4640  140.6020 C   0  0  2  0  0  3  0  0  0  0  0  0
  183.3310  178.9780  140.1230 N   0  0  2  0  0  0  0  0  0  0  0  0
  182.5340  178.6290  143.2820 C   0  0  0  0  0  1  0  0  0  0  0  0
  181.5660  178.4080  138.6610 C   0  0  2  0  0  3  0  0  0  0  0  0
  1  6  1  0  0  0  0
  4 22  2  0  0  0  0
  4 20  1  0  0  0  0
  5 17  1  0  0  0  0
  5 27  1  1  0  0  0
  6 23  1  0  0  0  0
  8  7  1  6  0  0  0
  8 14  1  0  0  0  0
  8 10  1  0  0  0  0
  8  2  1  0  0  0  0
  9 18  1  1  0  0  0
  9 13  1  0  0  0  0
 10 26  1  0  0  0  0
 12 25  1  0  0  0  0
 12 24  1  0  0  0  0
 14  9  1  0  0  0  0
 15 11  2  0  0  0  0
 16  1  1  0  0  0  0
 16 28  1  0  0  0  0
 17  3  1  0  0  0  0
 19 15  1  0  0  0  0
 19 25  1  0  0  0  0
 20 16  2  0  0  0  0
 21  1  2  0  0  0  0
 22 21  1  0  0  0  0
 23 15  1  0  0  0  0
 24  5  1  0  0  0  0
 25 17  1  0  0  0  0
 26 13  1  0  0  0  0
 26 24  1  0  0  0  0
 28 10  1  0  0  0  0
 28 12  1  0  0  0  0
M  END
>  <MODEL>
8

>  <REMARK>
 VINA RESULT:      -5.4      2.618      5.681
  Name = 
  0 active torsions:
  status: ('A' for Active; 'I' for Inactive)
                            x       y       z     vdW  Elec       q    Type
                         _______ _______ _______ _____ _____    ______ ____

>  <TORSDO>
F 0

$$$$
=
 OpenBabel11122412023D

 28 32  0  0  1  0  0  0  0  0999 V2000
  181.7190  178.3200  141.7310 C   0  0  0  0  0  0  0  0  0  0  0  0
  181.3190  175.2960  140.1760 F   0  0  0  0  0  0  0  0  0  0  0  0
  180.8620  180.2600  135.8330 C   0  0  0  0  0  1  0  0  0  0  0  0
  179.4600  178.9310  143.2850 C   0  0  0  0  0  3  0  0  0  0  0  0
  180.8980  177.8390  136.4110 C   0  0  2  0  0  3  0  0  0  0  0  0
  182.9860  178.0360  140.9790 C   0  0  0  0  0  2  0  0  0  0  0  0
  179.5390  175.5820  141.5430 O   0  0  0  0  0  1  0  0  0  0  0  0
  179.9400  175.4090  140.2180 C   0  0  1  0  0  0  0  0  0  0  0  0
  178.9310  174.1380  138.2380 C   0  0  2  0  0  3  0  0  0  0  0  0
  179.4760  176.6170  139.3540 C   0  0  2  0  0  3  0  0  0  0  0  0
  184.4410  179.3450  138.3440 O   0  0  0  0  0  0  0  0  0  0  0  0
  181.2440  178.0420  138.7160 C   0  0  1  0  0  3  0  0  0  0  0  0
  179.8810  175.0450  137.4740 C   0  0  0  0  0  2  0  0  0  0  0  0
  179.3240  174.1000  139.7120 C   0  0  0  0  0  2  0  0  0  0  0  0
  183.5430  179.6500  139.1710 C   0  0  0  0  0  0  0  0  0  0  0  0
  180.4210  178.2840  141.1420 C   0  0  0  0  0  0  0  0  0  0  0  0
  181.5510  179.1870  136.6530 C   0  0  2  0  0  3  0  0  0  0  0  0
  178.9830  172.7970  137.6870 N   0  0  0  0  0  1  0  0  0  0  0  0
  182.3410  180.2080  138.7260 O   0  0  0  0  0  0  0  0  0  0  0  0
  179.3120  178.6030  141.9370 C   0  0  0  0  0  3  0  0  0  0  0  0
  181.8490  178.6500  143.0870 C   0  0  0  0  0  3  0  0  0  0  0  0
  180.7290  178.9520  143.8600 C   0  0  0  0  0  3  0  0  0  0  0  0
  183.7190  179.3280  140.6180 C   0  0  0  0  0  2  0  0  0  0  0  0
  181.0050  177.0680  137.6510 N   0  0  1  0  0  0  0  0  0  0  0  0
  181.3100  179.4290  138.1180 C   0  0  2  0  0  3  0  0  0  0  0  0
  179.7610  176.4450  137.9080 N   0  0  2  0  0  0  0  0  0  0  0  0
  181.6160  177.1120  135.2910 C   0  0  0  0  0  1  0  0  0  0  0  0
  180.1190  177.9460  139.6960 C   0  0  2  0  0  3  0  0  0  0  0  0
  1 21  1  0  0  0  0
  3 17  1  0  0  0  0
  4 22  1  0  0  0  0
  5 27  1  6  0  0  0
  5 17  1  0  0  0  0
  5 24  1  0  0  0  0
  6  1  1  0  0  0  0
  8  2  1  6  0  0  0
  8  7  1  0  0  0  0
  9 18  1  6  0  0  0
  9 14  1  0  0  0  0
 10 28  1  0  0  0  0
 10  8  1  0  0  0  0
 11 15  2  0  0  0  0
 12 28  1  0  0  0  0
 13 26  1  0  0  0  0
 13  9  1  0  0  0  0
 14  8  1  0  0  0  0
 15 23  1  0  0  0  0
 16  1  2  0  0  0  0
 16 20  1  0  0  0  0
 17 25  1  0  0  0  0
 19 15  1  0  0  0  0
 20  4  2  0  0  0  0
 21 22  2  0  0  0  0
 23  6  1  0  0  0  0
 24 26  1  0  0  0  0
 24 12  1  0  0  0  0
 25 12  1  0  0  0  0
 25 19  1  0  0  0  0
 26 10  1  0  0  0  0
 28 16  1  0  0  0  0
M  END
>  <MODEL>
9

>  <REMARK>
 VINA RESULT:      -5.3      2.579      3.374
  Name = 
  0 active torsions:
  status: ('A' for Active; 'I' for Inactive)
                            x       y       z     vdW  Elec       q    Type
                         _______ _______ _______ _____ _____    ______ ____

>  <TORSDO>
F 0

$$$$
