=
 OpenBabel11122411113D

 31 35  0  0  0  0  0  0  0  0999 V2000
  184.5380  178.6560  144.5440 C   0  0  0  0  0  0  0  0  0  0  0  0
  188.1610  177.6400  144.3840 C   0  0  0  0  0  0  0  0  0  0  0  0
  188.6420  177.5710  145.7240 C   0  0  0  0  0  0  0  0  0  0  0  0
  188.2210  177.3670  139.1300 O   0  0  0  0  0  0  0  0  0  0  0  0
  189.3670  177.0700  139.5580 C   0  0  0  0  0  0  0  0  0  0  0  0
  188.3520  177.7690  148.1410 C   0  0  0  0  0  0  0  0  0  0  0  0
  186.8280  177.9920  144.0120 C   0  0  0  0  0  0  0  0  0  0  0  0
  184.2170  178.6790  143.1880 C   0  0  0  0  0  3  0  0  0  0  0  0
  187.8390  177.8490  146.8440 C   0  0  0  0  0  3  0  0  0  0  0  0
  188.6800  177.3790  142.0050 C   0  0  0  0  0  0  0  0  0  0  0  0
  183.5980  178.9620  145.4690 F   0  0  0  0  0  0  0  0  0  0  0  0
  190.8000  176.9300  144.9010 N   0  0  0  0  0  0  0  0  0  0  0  0
  187.5550  178.0430  149.2020 F   0  0  0  0  0  0  0  0  0  0  0  0
  187.4040  177.7200  141.6920 N   0  0  0  0  0  0  0  0  0  0  0  0
  189.0800  177.3340  143.3470 C   0  0  0  0  0  0  0  0  0  0  0  0
  189.6250  177.0660  140.9700 N   0  0  0  0  0  2  0  0  0  0  0  0
  185.8310  178.3150  144.9500 C   0  0  0  0  0  3  0  0  0  0  0  0
  189.6840  177.4080  148.3430 C   0  0  0  0  0  3  0  0  0  0  0  0
  186.4830  178.0220  142.6370 C   0  0  0  0  0  0  0  0  0  0  0  0
  185.1870  178.3630  142.2370 C   0  0  0  0  0  3  0  0  0  0  0  0
  190.3610  176.9910  143.6470 N   0  0  0  0  0  0  0  0  0  0  0  0
  189.9900  177.2060  145.9490 C   0  0  0  0  0  0  0  0  0  0  0  0
  190.5010  177.1280  147.2480 C   0  0  0  0  0  3  0  0  0  0  0  0
  192.4270  176.0030  136.7310 C   0  0  0  0  0  0  0  0  0  0  0  0
  190.1050  176.2020  137.3620 C   0  0  0  0  0  3  0  0  0  0  0  0
  192.4390  177.5030  140.4500 Cl  0  0  0  0  0  0  0  0  0  0  0  0
  193.3960  175.6510  135.8010 O   0  0  0  0  0  1  0  0  0  0  0  0
  191.0770  175.8480  136.4250 C   0  0  0  0  0  3  0  0  0  0  0  0
  191.8410  176.8730  138.9210 C   0  0  0  0  0  0  0  0  0  0  0  0
  190.4620  176.7180  138.6190 C   0  0  0  0  0  0  0  0  0  0  0  0
  192.8060  176.5130  137.9730 C   0  0  0  0  0  3  0  0  0  0  0  0
  1 17  1  0  0  0  0
  1 11  1  0  0  0  0
  2  3  1  0  0  0  0
  3 22  2  0  0  0  0
  3  9  1  0  0  0  0
  4  5  2  0  0  0  0
  5 16  1  0  0  0  0
  6 18  1  0  0  0  0
  6 13  1  0  0  0  0
  7  2  1  0  0  0  0
  7 17  2  0  0  0  0
  8  1  2  0  0  0  0
  9  6  2  0  0  0  0
 10 15  1  0  0  0  0
 12 22  1  0  0  0  0
 14 10  2  0  0  0  0
 14 19  1  0  0  0  0
 15 21  1  0  0  0  0
 15  2  2  0  0  0  0
 16 10  1  0  0  0  0
 19  7  1  0  0  0  0
 20 19  2  0  0  0  0
 20  8  1  0  0  0  0
 21 12  2  0  0  0  0
 22 23  1  0  0  0  0
 23 18  2  0  0  0  0
 24 31  1  0  0  0  0
 25 30  2  0  0  0  0
 27 24  1  0  0  0  0
 28 24  2  0  0  0  0
 28 25  1  0  0  0  0
 29 26  1  0  0  0  0
 30 29  1  0  0  0  0
 30  5  1  0  0  0  0
 31 29  2  0  0  0  0
M  END
>  <MODEL>
1

>  <REMARK>
 VINA RESULT:     -11.6      0.000      0.000
  Name = 
  1 active torsions:
  status: ('A' for Active; 'I' for Inactive)
    1  A    between atoms: C_5  and  C_30
                            x       y       z     vdW  Elec       q    Type
                         _______ _______ _______ _____ _____    ______ ____

>  <TORSDO>
F 1

$$$$
=
 OpenBabel11122411113D

 31 35  0  0  0  0  0  0  0  0999 V2000
  184.4180  178.7850  144.5030 C   0  0  0  0  0  0  0  0  0  0  0  0
  188.0020  177.6690  144.1950 C   0  0  0  0  0  0  0  0  0  0  0  0
  188.5210  177.5400  145.5170 C   0  0  0  0  0  0  0  0  0  0  0  0
  187.8940  177.5760  138.9360 O   0  0  0  0  0  0  0  0  0  0  0  0
  189.0430  177.2300  139.3180 C   0  0  0  0  0  0  0  0  0  0  0  0
  188.3110  177.6640  147.9470 C   0  0  0  0  0  0  0  0  0  0  0  0
  186.6700  178.0730  143.8780 C   0  0  0  0  0  0  0  0  0  0  0  0
  184.0570  178.8650  143.1600 C   0  0  0  0  0  3  0  0  0  0  0  0
  187.7610  177.8030  146.6700 C   0  0  0  0  0  3  0  0  0  0  0  0
  188.4400  177.4750  141.7940 C   0  0  0  0  0  0  0  0  0  0  0  0
  183.5170  179.0880  145.4670 F   0  0  0  0  0  0  0  0  0  0  0  0
  190.6330  176.8650  144.6050 N   0  0  0  0  0  0  0  0  0  0  0  0
  187.5560  177.9240  149.0410 F   0  0  0  0  0  0  0  0  0  0  0  0
  187.1660  177.8640  141.5330 N   0  0  0  0  0  0  0  0  0  0  0  0
  188.8790  177.3720  143.1200 C   0  0  0  0  0  0  0  0  0  0  0  0
  189.3430  177.1700  140.7200 N   0  0  0  0  0  2  0  0  0  0  0  0
  185.7110  178.3930  144.8570 C   0  0  0  0  0  3  0  0  0  0  0  0
  189.6360  177.2570  148.0950 C   0  0  0  0  0  3  0  0  0  0  0  0
  186.2840  178.1600  142.5160 C   0  0  0  0  0  0  0  0  0  0  0  0
  184.9880  178.5530  142.1690 C   0  0  0  0  0  3  0  0  0  0  0  0
  190.1570  176.9820  143.3680 N   0  0  0  0  0  0  0  0  0  0  0  0
  189.8640  177.1280  145.6870 C   0  0  0  0  0  0  0  0  0  0  0  0
  190.4110  176.9900  146.9660 C   0  0  0  0  0  3  0  0  0  0  0  0
  192.2080  176.2130  136.5900 C   0  0  0  0  0  0  0  0  0  0  0  0
  191.4080  176.7080  138.8130 C   0  0  0  0  0  3  0  0  0  0  0  0
  188.2740  176.8890  136.2010 Cl  0  0  0  0  0  0  0  0  0  0  0  0
  193.2470  175.8850  135.7300 O   0  0  0  0  0  1  0  0  0  0  0  0
  192.4550  176.3780  137.9510 C   0  0  0  0  0  3  0  0  0  0  0  0
  189.8580  176.7080  136.9450 C   0  0  0  0  0  0  0  0  0  0  0  0
  190.0980  176.8780  138.3340 C   0  0  0  0  0  0  0  0  0  0  0  0
  190.9160  176.3780  136.0910 C   0  0  0  0  0  3  0  0  0  0  0  0
  1 17  1  0  0  0  0
  1 11  1  0  0  0  0
  2  3  1  0  0  0  0
  3 22  2  0  0  0  0
  3  9  1  0  0  0  0
  4  5  2  0  0  0  0
  5 16  1  0  0  0  0
  6 18  1  0  0  0  0
  6 13  1  0  0  0  0
  7  2  1  0  0  0  0
  7 17  2  0  0  0  0
  8  1  2  0  0  0  0
  9  6  2  0  0  0  0
 10 15  1  0  0  0  0
 12 22  1  0  0  0  0
 14 10  2  0  0  0  0
 14 19  1  0  0  0  0
 15 21  1  0  0  0  0
 15  2  2  0  0  0  0
 16 10  1  0  0  0  0
 19  7  1  0  0  0  0
 20 19  2  0  0  0  0
 20  8  1  0  0  0  0
 21 12  2  0  0  0  0
 22 23  1  0  0  0  0
 23 18  2  0  0  0  0
 24 28  1  0  0  0  0
 26 29  1  0  0  0  0
 27 24  1  0  0  0  0
 28 25  2  0  0  0  0
 29 30  2  0  0  0  0
 30 25  1  0  0  0  0
 30  5  1  0  0  0  0
 31 24  2  0  0  0  0
 31 29  1  0  0  0  0
M  END
>  <MODEL>
2

>  <REMARK>
 VINA RESULT:     -11.6      1.128      1.411
  Name = 
  1 active torsions:
  status: ('A' for Active; 'I' for Inactive)
    1  A    between atoms: C_5  and  C_30
                            x       y       z     vdW  Elec       q    Type
                         _______ _______ _______ _____ _____    ______ ____

>  <TORSDO>
F 1

$$$$
=
 OpenBabel11122411113D

 31 35  0  0  0  0  0  0  0  0999 V2000
  190.9850  177.3010  141.6510 C   0  0  0  0  0  0  0  0  0  0  0  0
  187.6190  177.9860  143.1950 C   0  0  0  0  0  0  0  0  0  0  0  0
  187.7550  177.8160  144.6040 C   0  0  0  0  0  0  0  0  0  0  0  0
  185.3110  179.0030  138.5770 O   0  0  0  0  0  0  0  0  0  0  0  0
  184.4510  179.1270  139.4890 C   0  0  0  0  0  0  0  0  0  0  0  0
  189.0560  177.3010  146.6060 C   0  0  0  0  0  0  0  0  0  0  0  0
  188.6720  177.8170  142.2470 C   0  0  0  0  0  0  0  0  0  0  0  0
  190.6960  177.5030  140.3030 C   0  0  0  0  0  3  0  0  0  0  0  0
  188.9670  177.4560  145.2210 C   0  0  0  0  0  3  0  0  0  0  0  0
  186.1260  178.5350  141.3330 C   0  0  0  0  0  0  0  0  0  0  0  0
  192.2370  176.9550  142.0320 F   0  0  0  0  0  0  0  0  0  0  0  0
  185.4380  178.3630  144.8800 N   0  0  0  0  0  0  0  0  0  0  0  0
  190.2360  176.9540  147.1730 F   0  0  0  0  0  0  0  0  0  0  0  0
  187.1540  178.3640  140.4630 N   0  0  0  0  0  0  0  0  0  0  0  0
  186.3370  178.3500  142.7050 C   0  0  0  0  0  0  0  0  0  0  0  0
  184.8220  178.9040  140.8580 N   0  0  0  0  0  2  0  0  0  0  0  0
  189.9820  177.4570  142.6110 C   0  0  0  0  0  3  0  0  0  0  0  0
  187.9300  177.5030  147.4040 C   0  0  0  0  0  3  0  0  0  0  0  0
  188.3970  178.0180  140.8700 C   0  0  0  0  0  0  0  0  0  0  0  0
  189.4050  177.8600  139.9130 C   0  0  0  0  0  3  0  0  0  0  0  0
  185.3000  178.5240  143.5670 N   0  0  0  0  0  0  0  0  0  0  0  0
  186.6250  178.0170  145.4300 C   0  0  0  0  0  0  0  0  0  0  0  0
  186.7170  177.8590  146.8160 C   0  0  0  0  0  3  0  0  0  0  0  0
  180.4500  180.3730  138.5240 C   0  0  0  0  0  0  0  0  0  0  0  0
  182.8150  180.8160  138.7190 C   0  0  0  0  0  3  0  0  0  0  0  0
  182.0870  176.9580  139.8440 Cl  0  0  0  0  0  0  0  0  0  0  0  0
  179.1680  180.8000  138.2060 O   0  0  0  0  0  1  0  0  0  0  0  0
  181.5270  181.2470  138.3980 C   0  0  0  0  0  3  0  0  0  0  0  0
  181.9470  178.6230  139.2930 C   0  0  0  0  0  0  0  0  0  0  0  0
  183.0520  179.5060  139.1690 C   0  0  0  0  0  0  0  0  0  0  0  0
  180.6600  179.0680  138.9690 C   0  0  0  0  0  3  0  0  0  0  0  0
  1 11  1  0  0  0  0
  1 17  1  0  0  0  0
  2  3  1  0  0  0  0
  3  9  2  0  0  0  0
  3 22  1  0  0  0  0
  4  5  2  0  0  0  0
  5 16  1  0  0  0  0
  6 13  1  0  0  0  0
  6 18  2  0  0  0  0
  7 17  2  0  0  0  0
  7  2  1  0  0  0  0
  8  1  2  0  0  0  0
  9  6  1  0  0  0  0
 10 15  1  0  0  0  0
 12 22  1  0  0  0  0
 14 19  1  0  0  0  0
 14 10  2  0  0  0  0
 15  2  2  0  0  0  0
 15 21  1  0  0  0  0
 16 10  1  0  0  0  0
 19  7  1  0  0  0  0
 20  8  1  0  0  0  0
 20 19  2  0  0  0  0
 21 12  2  0  0  0  0
 22 23  2  0  0  0  0
 23 18  1  0  0  0  0
 24 31  1  0  0  0  0
 25 30  2  0  0  0  0
 27 24  1  0  0  0  0
 28 24  2  0  0  0  0
 28 25  1  0  0  0  0
 29 26  1  0  0  0  0
 30 29  1  0  0  0  0
 30  5  1  0  0  0  0
 31 29  2  0  0  0  0
M  END
>  <MODEL>
3

>  <REMARK>
 VINA RESULT:     -11.2      4.124      6.913
  Name = 
  1 active torsions:
  status: ('A' for Active; 'I' for Inactive)
    1  A    between atoms: C_5  and  C_30
                            x       y       z     vdW  Elec       q    Type
                         _______ _______ _______ _____ _____    ______ ____

>  <TORSDO>
F 1

$$$$
=
 OpenBabel11122411113D

 31 35  0  0  0  0  0  0  0  0999 V2000
  186.8060  178.0240  147.3280 C   0  0  0  0  0  0  0  0  0  0  0  0
  187.5890  177.8630  143.6470 C   0  0  0  0  0  0  0  0  0  0  0  0
  188.9840  177.6030  143.5210 C   0  0  0  0  0  0  0  0  0  0  0  0
  182.6180  178.7800  142.1880 O   0  0  0  0  0  0  0  0  0  0  0  0
  183.3200  178.6460  141.1510 C   0  0  0  0  0  0  0  0  0  0  0  0
  191.2040  177.1950  144.4560 C   0  0  0  0  0  0  0  0  0  0  0  0
  186.8920  177.9970  144.8860 C   0  0  0  0  0  0  0  0  0  0  0  0
  185.4370  178.2790  147.2890 C   0  0  0  0  0  3  0  0  0  0  0  0
  189.8410  177.4490  144.6260 C   0  0  0  0  0  3  0  0  0  0  0  0
  185.4650  178.2530  142.4920 C   0  0  0  0  0  0  0  0  0  0  0  0
  187.4420  177.9110  148.5180 F   0  0  0  0  0  0  0  0  0  0  0  0
  188.7600  177.6350  141.1340 N   0  0  0  0  0  0  0  0  0  0  0  0
  192.0050  177.0510  145.5380 F   0  0  0  0  0  0  0  0  0  0  0  0
  184.8390  178.3750  143.6900 N   0  0  0  0  0  0  0  0  0  0  0  0
  186.8410  177.9970  142.4480 C   0  0  0  0  0  0  0  0  0  0  0  0
  184.7270  178.3850  141.2680 N   0  0  0  0  0  2  0  0  0  0  0  0
  187.5250  177.8850  146.1380 C   0  0  0  0  0  3  0  0  0  0  0  0
  191.7380  177.0890  143.1720 C   0  0  0  0  0  3  0  0  0  0  0  0
  185.4980  178.2570  144.8670 C   0  0  0  0  0  0  0  0  0  0  0  0
  184.7840  178.3950  146.0610 C   0  0  0  0  0  3  0  0  0  0  0  0
  187.4560  177.8770  141.2420 N   0  0  0  0  0  0  0  0  0  0  0  0
  189.5460  177.4930  142.2270 C   0  0  0  0  0  0  0  0  0  0  0  0
  190.9100  177.2390  142.0600 C   0  0  0  0  0  3  0  0  0  0  0  0
  181.5560  179.1170  137.2570 C   0  0  0  0  0  0  0  0  0  0  0  0
  182.4350  180.0390  139.3070 C   0  0  0  0  0  3  0  0  0  0  0  0
  182.6800  175.9660  139.4680 Cl  0  0  0  0  0  0  0  0  0  0  0  0
  180.9860  179.2960  136.0030 O   0  0  0  0  0  1  0  0  0  0  0  0
  181.8630  180.2220  138.0480 C   0  0  0  0  0  3  0  0  0  0  0  0
  182.3940  177.6330  138.9870 C   0  0  0  0  0  0  0  0  0  0  0  0
  182.7110  178.7520  139.8000 C   0  0  0  0  0  0  0  0  0  0  0  0
  181.8200  177.8300  137.7260 C   0  0  0  0  0  3  0  0  0  0  0  0
  1 11  1  0  0  0  0
  2  7  1  0  0  0  0
  3  2  1  0  0  0  0
  3  9  1  0  0  0  0
  5 16  1  0  0  0  0
  5  4  2  0  0  0  0
  6  9  2  0  0  0  0
  6 13  1  0  0  0  0
  7 17  1  0  0  0  0
  8  1  1  0  0  0  0
 10 14  2  0  0  0  0
 12 21  2  0  0  0  0
 12 22  1  0  0  0  0
 14 19  1  0  0  0  0
 15 10  1  0  0  0  0
 15  2  2  0  0  0  0
 16 10  1  0  0  0  0
 17  1  2  0  0  0  0
 18  6  1  0  0  0  0
 19  7  2  0  0  0  0
 19 20  1  0  0  0  0
 20  8  2  0  0  0  0
 21 15  1  0  0  0  0
 22  3  2  0  0  0  0
 23 22  1  0  0  0  0
 23 18  2  0  0  0  0
 24 31  2  0  0  0  0
 24 28  1  0  0  0  0
 25 30  1  0  0  0  0
 27 24  1  0  0  0  0
 28 25  2  0  0  0  0
 29 26  1  0  0  0  0
 29 30  2  0  0  0  0
 30  5  1  0  0  0  0
 31 29  1  0  0  0  0
M  END
>  <MODEL>
4

>  <REMARK>
 VINA RESULT:     -11.0      4.154      6.363
  Name = 
  1 active torsions:
  status: ('A' for Active; 'I' for Inactive)
    1  A    between atoms: C_5  and  C_30
                            x       y       z     vdW  Elec       q    Type
                         _______ _______ _______ _____ _____    ______ ____

>  <TORSDO>
F 1

$$$$
=
 OpenBabel11122411113D

 31 35  0  0  0  0  0  0  0  0999 V2000
  191.4770  177.2960  141.2490 C   0  0  0  0  0  0  0  0  0  0  0  0
  188.6840  177.5360  143.7640 C   0  0  0  0  0  0  0  0  0  0  0  0
  189.2460  177.2790  145.0490 C   0  0  0  0  0  0  0  0  0  0  0  0
  185.0380  178.6510  140.1390 O   0  0  0  0  0  0  0  0  0  0  0  0
  184.4820  178.6250  141.2690 C   0  0  0  0  0  0  0  0  0  0  0  0
  191.1180  176.7510  146.5260 C   0  0  0  0  0  0  0  0  0  0  0  0
  189.4160  177.5390  142.5390 C   0  0  0  0  0  0  0  0  0  0  0  0
  190.7850  177.5650  140.0690 C   0  0  0  0  0  3  0  0  0  0  0  0
  190.6090  176.9970  145.2490 C   0  0  0  0  0  3  0  0  0  0  0  0
  186.6680  178.0690  142.4790 C   0  0  0  0  0  0  0  0  0  0  0  0
  192.8070  177.0470  141.2140 F   0  0  0  0  0  0  0  0  0  0  0  0
  187.0830  177.5760  146.0390 N   0  0  0  0  0  0  0  0  0  0  0  0
  192.4350  176.4810  146.6890 F   0  0  0  0  0  0  0  0  0  0  0  0
  187.3990  178.0620  141.3360 N   0  0  0  0  0  0  0  0  0  0  0  0
  187.2920  177.8070  143.7060 C   0  0  0  0  0  0  0  0  0  0  0  0
  185.2590  178.3420  142.4420 N   0  0  0  0  0  2  0  0  0  0  0  0
  190.7980  177.2840  142.4700 C   0  0  0  0  0  3  0  0  0  0  0  0
  190.2700  176.7850  147.6320 C   0  0  0  0  0  3  0  0  0  0  0  0
  188.7290  177.8100  141.3280 C   0  0  0  0  0  0  0  0  0  0  0  0
  189.4150  177.8210  140.1090 C   0  0  0  0  0  3  0  0  0  0  0  0
  186.5490  177.8170  144.8440 N   0  0  0  0  0  0  0  0  0  0  0  0
  188.4020  177.3090  146.1830 C   0  0  0  0  0  0  0  0  0  0  0  0
  188.9140  177.0620  147.4600 C   0  0  0  0  0  3  0  0  0  0  0  0
  180.2850  179.3760  141.8340 C   0  0  0  0  0  0  0  0  0  0  0  0
  182.4980  178.9660  142.7070 C   0  0  0  0  0  3  0  0  0  0  0  0
  182.6620  178.9870  138.6270 Cl  0  0  0  0  0  0  0  0  0  0  0  0
  178.9340  179.6170  142.0430 O   0  0  0  0  0  1  0  0  0  0  0  0
  181.1410  179.2080  142.9210 C   0  0  0  0  0  3  0  0  0  0  0  0
  182.1470  179.0600  140.3070 C   0  0  0  0  0  0  0  0  0  0  0  0
  183.0270  178.8870  141.4080 C   0  0  0  0  0  0  0  0  0  0  0  0
  180.7880  179.3020  140.5340 C   0  0  0  0  0  3  0  0  0  0  0  0
  1 17  1  0  0  0  0
  2  3  1  0  0  0  0
  3  9  2  0  0  0  0
  3 22  1  0  0  0  0
  4  5  2  0  0  0  0
  5 30  1  0  0  0  0
  5 16  1  0  0  0  0
  6 13  1  0  0  0  0
  6 18  2  0  0  0  0
  7  2  1  0  0  0  0
  8 20  1  0  0  0  0
  8  1  2  0  0  0  0
  9  6  1  0  0  0  0
 10 15  1  0  0  0  0
 11  1  1  0  0  0  0
 12 22  1  0  0  0  0
 14 10  2  0  0  0  0
 15  2  2  0  0  0  0
 15 21  1  0  0  0  0
 16 10  1  0  0  0  0
 17  7  2  0  0  0  0
 19 14  1  0  0  0  0
 19  7  1  0  0  0  0
 20 19  2  0  0  0  0
 21 12  2  0  0  0  0
 22 23  2  0  0  0  0
 23 18  1  0  0  0  0
 24 27  1  0  0  0  0
 24 28  1  0  0  0  0
 25 28  2  0  0  0  0
 26 29  1  0  0  0  0
 29 31  1  0  0  0  0
 29 30  2  0  0  0  0
 30 25  1  0  0  0  0
 31 24  2  0  0  0  0
M  END
>  <MODEL>
5

>  <REMARK>
 VINA RESULT:     -10.9      3.850      7.147
  Name = 
  1 active torsions:
  status: ('A' for Active; 'I' for Inactive)
    1  A    between atoms: C_5  and  C_30
                            x       y       z     vdW  Elec       q    Type
                         _______ _______ _______ _____ _____    ______ ____

>  <TORSDO>
F 1

$$$$
=
 OpenBabel11122411113D

 31 35  0  0  0  0  0  0  0  0999 V2000
  189.9660  177.3990  147.3110 C   0  0  0  0  0  0  0  0  0  0  0  0
  187.8180  177.7340  144.2360 C   0  0  0  0  0  0  0  0  0  0  0  0
  186.5030  178.0720  144.6710 C   0  0  0  0  0  0  0  0  0  0  0  0
  191.7530  176.6100  140.9290 O   0  0  0  0  0  0  0  0  0  0  0  0
  190.7110  176.8190  140.2530 C   0  0  0  0  0  0  0  0  0  0  0  0
  184.8570  178.5630  146.4080 C   0  0  0  0  0  0  0  0  0  0  0  0
  188.9330  177.5190  145.1000 C   0  0  0  0  0  0  0  0  0  0  0  0
  191.1930  177.0740  146.7340 C   0  0  0  0  0  3  0  0  0  0  0  0
  186.1590  178.2310  146.0260 C   0  0  0  0  0  3  0  0  0  0  0  0
  189.2910  177.2750  142.3340 C   0  0  0  0  0  0  0  0  0  0  0  0
  189.8550  177.5020  148.6560 F   0  0  0  0  0  0  0  0  0  0  0  0
  185.7730  178.1150  142.3880 N   0  0  0  0  0  0  0  0  0  0  0  0
  184.5540  178.7090  147.7200 F   0  0  0  0  0  0  0  0  0  0  0  0
  190.3270  177.0770  143.1890 N   0  0  0  0  0  0  0  0  0  0  0  0
  188.0260  177.6050  142.8380 C   0  0  0  0  0  0  0  0  0  0  0  0
  189.4810  177.1500  140.9170 N   0  0  0  0  0  2  0  0  0  0  0  0
  188.8500  177.6190  146.5000 C   0  0  0  0  0  3  0  0  0  0  0  0
  183.8710  178.7420  145.4390 C   0  0  0  0  0  3  0  0  0  0  0  0
  190.1900  177.1870  144.5310 C   0  0  0  0  0  0  0  0  0  0  0  0
  191.3040  176.9680  145.3470 C   0  0  0  0  0  3  0  0  0  0  0  0
  186.9970  177.8010  141.9720 N   0  0  0  0  0  0  0  0  0  0  0  0
  185.4880  178.2580  143.7030 C   0  0  0  0  0  0  0  0  0  0  0  0
  184.1860  178.5900  144.0900 C   0  0  0  0  0  3  0  0  0  0  0  0
  190.9000  176.4510  135.9720 C   0  0  0  0  0  0  0  0  0  0  0  0
  191.6550  175.8440  138.1840 C   0  0  0  0  0  3  0  0  0  0  0  0
  188.6860  178.6300  138.5090 Cl  0  0  0  0  0  0  0  0  0  0  0  0
  190.9810  176.3140  134.5940 O   0  0  0  0  0  1  0  0  0  0  0  0
  191.7380  175.7050  136.7980 C   0  0  0  0  0  3  0  0  0  0  0  0
  189.8840  177.4850  137.9210 C   0  0  0  0  0  0  0  0  0  0  0  0
  190.7340  176.7290  138.7710 C   0  0  0  0  0  0  0  0  0  0  0  0
  189.9780  177.3360  136.5330 C   0  0  0  0  0  3  0  0  0  0  0  0
  1 11  1  0  0  0  0
  2  3  1  0  0  0  0
  2  7  1  0  0  0  0
  3  9  1  0  0  0  0
  5 16  1  0  0  0  0
  5  4  2  0  0  0  0
  6 13  1  0  0  0  0
  7 17  1  0  0  0  0
  8  1  1  0  0  0  0
  9  6  2  0  0  0  0
 10 15  1  0  0  0  0
 10 14  2  0  0  0  0
 12 22  1  0  0  0  0
 14 19  1  0  0  0  0
 15  2  2  0  0  0  0
 16 10  1  0  0  0  0
 17  1  2  0  0  0  0
 18  6  1  0  0  0  0
 19  7  2  0  0  0  0
 19 20  1  0  0  0  0
 20  8  2  0  0  0  0
 21 12  2  0  0  0  0
 21 15  1  0  0  0  0
 22 23  1  0  0  0  0
 22  3  2  0  0  0  0
 23 18  2  0  0  0  0
 24 31  2  0  0  0  0
 24 28  1  0  0  0  0
 25 30  1  0  0  0  0
 27 24  1  0  0  0  0
 28 25  2  0  0  0  0
 29 26  1  0  0  0  0
 29 30  2  0  0  0  0
 30  5  1  0  0  0  0
 31 29  1  0  0  0  0
M  END
>  <MODEL>
6

>  <REMARK>
 VINA RESULT:     -10.8      1.646      4.126
  Name = 
  1 active torsions:
  status: ('A' for Active; 'I' for Inactive)
    1  A    between atoms: C_5  and  C_30
                            x       y       z     vdW  Elec       q    Type
                         _______ _______ _______ _____ _____    ______ ____

>  <TORSDO>
F 1

$$$$
=
 OpenBabel11122411113D

 31 35  0  0  0  0  0  0  0  0999 V2000
  185.1630  178.9490  143.6850 C   0  0  0  0  0  0  0  0  0  0  0  0
  188.6380  177.5020  143.5640 C   0  0  0  0  0  0  0  0  0  0  0  0
  189.0640  177.3070  144.9100 C   0  0  0  0  0  0  0  0  0  0  0  0
  188.8340  177.4920  138.3060 O   0  0  0  0  0  0  0  0  0  0  0  0
  189.9210  177.0330  138.7470 C   0  0  0  0  0  0  0  0  0  0  0  0
  188.7220  177.4160  147.3260 C   0  0  0  0  0  0  0  0  0  0  0  0
  187.3710  178.0350  143.1780 C   0  0  0  0  0  0  0  0  0  0  0  0
  184.8910  179.0810  142.3250 C   0  0  0  0  0  3  0  0  0  0  0  0
  188.2650  177.6250  146.0230 C   0  0  0  0  0  3  0  0  0  0  0  0
  189.1980  177.3010  141.1880 C   0  0  0  0  0  0  0  0  0  0  0  0
  184.2380  179.3220  144.6010 F   0  0  0  0  0  0  0  0  0  0  0  0
  191.1530  176.4470  144.1090 N   0  0  0  0  0  0  0  0  0  0  0  0
  187.9310  177.7320  148.3790 F   0  0  0  0  0  0  0  0  0  0  0  0
  187.9840  177.8120  140.8620 N   0  0  0  0  0  0  0  0  0  0  0  0
  189.5460  177.1390  142.5350 C   0  0  0  0  0  0  0  0  0  0  0  0
  190.1310  176.9260  140.1630 N   0  0  0  0  0  2  0  0  0  0  0  0
  186.3910  178.4310  144.1050 C   0  0  0  0  0  3  0  0  0  0  0  0
  189.9930  176.8840  147.5420 C   0  0  0  0  0  3  0  0  0  0  0  0
  187.0770  178.1770  141.7980 C   0  0  0  0  0  0  0  0  0  0  0  0
  185.8460  178.6960  141.3830 C   0  0  0  0  0  3  0  0  0  0  0  0
  190.7650  176.6260  142.8490 N   0  0  0  0  0  0  0  0  0  0  0  0
  190.3500  176.7670  145.1500 C   0  0  0  0  0  0  0  0  0  0  0  0
  190.8050  176.5610  146.4550 C   0  0  0  0  0  3  0  0  0  0  0  0
  193.1410  175.7910  136.1800 C   0  0  0  0  0  0  0  0  0  0  0  0
  192.3070  176.5390  138.3190 C   0  0  0  0  0  3  0  0  0  0  0  0
  189.1880  176.2640  135.6980 Cl  0  0  0  0  0  0  0  0  0  0  0  0
  194.1970  175.3930  135.3720 O   0  0  0  0  0  1  0  0  0  0  0  0
  193.3710  176.1400  137.5090 C   0  0  0  0  0  3  0  0  0  0  0  0
  190.7710  176.2400  136.4630 C   0  0  0  0  0  0  0  0  0  0  0  0
  190.9950  176.5970  137.8190 C   0  0  0  0  0  0  0  0  0  0  0  0
  191.8470  175.8420  135.6620 C   0  0  0  0  0  3  0  0  0  0  0  0
  1 17  1  0  0  0  0
  1 11  1  0  0  0  0
  2  3  1  0  0  0  0
  3 22  2  0  0  0  0
  3  9  1  0  0  0  0
  4  5  2  0  0  0  0
  5 16  1  0  0  0  0
  6 18  1  0  0  0  0
  6 13  1  0  0  0  0
  7  2  1  0  0  0  0
  7 17  2  0  0  0  0
  8  1  2  0  0  0  0
  9  6  2  0  0  0  0
 10 15  1  0  0  0  0
 12 22  1  0  0  0  0
 14 10  2  0  0  0  0
 14 19  1  0  0  0  0
 15 21  1  0  0  0  0
 15  2  2  0  0  0  0
 16 10  1  0  0  0  0
 19  7  1  0  0  0  0
 20 19  2  0  0  0  0
 20  8  1  0  0  0  0
 21 12  2  0  0  0  0
 22 23  1  0  0  0  0
 23 18  2  0  0  0  0
 24 28  1  0  0  0  0
 26 29  1  0  0  0  0
 27 24  1  0  0  0  0
 28 25  2  0  0  0  0
 29 30  2  0  0  0  0
 30 25  1  0  0  0  0
 30  5  1  0  0  0  0
 31 24  2  0  0  0  0
 31 29  1  0  0  0  0
M  END
>  <MODEL>
7

>  <REMARK>
 VINA RESULT:     -10.7      1.386      1.682
  Name = 
  1 active torsions:
  status: ('A' for Active; 'I' for Inactive)
    1  A    between atoms: C_5  and  C_30
                            x       y       z     vdW  Elec       q    Type
                         _______ _______ _______ _____ _____    ______ ____

>  <TORSDO>
F 1

$$$$
=
 OpenBabel11122411113D

 31 35  0  0  0  0  0  0  0  0999 V2000
  183.6210  179.2220  139.2640 C   0  0  0  0  0  0  0  0  0  0  0  0
  187.2320  178.2020  139.5970 C   0  0  0  0  0  0  0  0  0  0  0  0
  187.7680  178.1020  138.2800 C   0  0  0  0  0  0  0  0  0  0  0  0
  187.0740  178.0510  144.8540 O   0  0  0  0  0  0  0  0  0  0  0  0
  188.2360  177.7400  144.4800 C   0  0  0  0  0  0  0  0  0  0  0  0
  187.5780  178.2450  135.8490 C   0  0  0  0  0  0  0  0  0  0  0  0
  185.8860  178.5670  139.9050 C   0  0  0  0  0  0  0  0  0  0  0  0
  183.2440  179.2770  140.6050 C   0  0  0  0  0  3  0  0  0  0  0  0
  187.0120  178.3560  137.1210 C   0  0  0  0  0  3  0  0  0  0  0  0
  187.6520  177.9960  142.0010 C   0  0  0  0  0  0  0  0  0  0  0  0
  182.7220  179.5090  138.2940 F   0  0  0  0  0  0  0  0  0  0  0  0
  189.8880  177.4760  139.2060 N   0  0  0  0  0  0  0  0  0  0  0  0
  186.8270  178.4960  134.7500 F   0  0  0  0  0  0  0  0  0  0  0  0
  186.3640  178.3450  142.2530 N   0  0  0  0  0  0  0  0  0  0  0  0
  188.1060  177.9180  140.6780 C   0  0  0  0  0  0  0  0  0  0  0  0
  188.5520  177.7050  143.0800 N   0  0  0  0  0  2  0  0  0  0  0  0
  184.9290  178.8700  138.9200 C   0  0  0  0  0  3  0  0  0  0  0  0
  188.9160  177.8780  135.7110 C   0  0  0  0  0  3  0  0  0  0  0  0
  185.4840  178.6280  141.2640 C   0  0  0  0  0  0  0  0  0  0  0  0
  184.1740  178.9800  141.6020 C   0  0  0  0  0  3  0  0  0  0  0  0
  189.3970  177.5670  140.4390 N   0  0  0  0  0  0  0  0  0  0  0  0
  189.1230  177.7300  138.1190 C   0  0  0  0  0  0  0  0  0  0  0  0
  189.6860  177.6200  136.8450 C   0  0  0  0  0  3  0  0  0  0  0  0
  191.3950  176.7530  147.2270 C   0  0  0  0  0  0  0  0  0  0  0  0
  190.5560  177.0420  144.9810 C   0  0  0  0  0  3  0  0  0  0  0  0
  187.5690  177.8840  147.6360 Cl  0  0  0  0  0  0  0  0  0  0  0  0
  192.4300  176.4300  148.0920 O   0  0  0  0  0  1  0  0  0  0  0  0
  191.5990  176.7160  145.8490 C   0  0  0  0  0  3  0  0  0  0  0  0
  189.0930  177.4440  146.8770 C   0  0  0  0  0  0  0  0  0  0  0  0
  189.2910  177.4100  145.4710 C   0  0  0  0  0  0  0  0  0  0  0  0
  190.1470  177.1150  147.7360 C   0  0  0  0  0  3  0  0  0  0  0  0
  1  8  1  0  0  0  0
  2  7  1  0  0  0  0
  2 15  1  0  0  0  0
  3  2  2  0  0  0  0
  5  4  2  0  0  0  0
  5 30  1  0  0  0  0
  6  9  2  0  0  0  0
  7 19  2  0  0  0  0
  8 20  2  0  0  0  0
  9  3  1  0  0  0  0
 10 14  2  0  0  0  0
 10 16  1  0  0  0  0
 11  1  1  0  0  0  0
 12 21  1  0  0  0  0
 13  6  1  0  0  0  0
 15 10  1  0  0  0  0
 16  5  1  0  0  0  0
 17  1  2  0  0  0  0
 17  7  1  0  0  0  0
 18  6  1  0  0  0  0
 18 23  2  0  0  0  0
 19 20  1  0  0  0  0
 19 14  1  0  0  0  0
 21 15  2  0  0  0  0
 22  3  1  0  0  0  0
 22 12  2  0  0  0  0
 23 22  1  0  0  0  0
 24 31  1  0  0  0  0
 24 27  1  0  0  0  0
 25 30  2  0  0  0  0
 25 28  1  0  0  0  0
 28 24  2  0  0  0  0
 29 26  1  0  0  0  0
 29 31  2  0  0  0  0
 30 29  1  0  0  0  0
M  END
>  <MODEL>
8

>  <REMARK>
 VINA RESULT:     -10.5      4.125      7.734
  Name = 
  1 active torsions:
  status: ('A' for Active; 'I' for Inactive)
    1  A    between atoms: C_5  and  C_30
                            x       y       z     vdW  Elec       q    Type
                         _______ _______ _______ _____ _____    ______ ____

>  <TORSDO>
F 1

$$$$
=
 OpenBabel11122411113D

 31 35  0  0  0  0  0  0  0  0999 V2000
  187.9720  177.7900  147.2460 C   0  0  0  0  0  0  0  0  0  0  0  0
  186.8480  177.9820  143.6570 C   0  0  0  0  0  0  0  0  0  0  0  0
  185.4720  178.3540  143.6620 C   0  0  0  0  0  0  0  0  0  0  0  0
  191.5620  176.6500  141.7380 O   0  0  0  0  0  0  0  0  0  0  0  0
  190.7750  176.8320  140.7720 C   0  0  0  0  0  0  0  0  0  0  0  0
  183.3950  178.9510  144.8010 C   0  0  0  0  0  0  0  0  0  0  0  0
  187.6490  177.8030  144.8250 C   0  0  0  0  0  0  0  0  0  0  0  0
  189.3060  177.4240  147.0790 C   0  0  0  0  0  3  0  0  0  0  0  0
  184.7430  178.5880  144.8420 C   0  0  0  0  0  3  0  0  0  0  0  0
  188.8100  177.4110  142.3080 C   0  0  0  0  0  0  0  0  0  0  0  0
  187.4670  177.9650  148.4900 F   0  0  0  0  0  0  0  0  0  0  0  0
  185.4580  178.2840  141.2660 N   0  0  0  0  0  0  0  0  0  0  0  0
  182.7180  179.1690  145.9540 F   0  0  0  0  0  0  0  0  0  0  0  0
  189.5390  177.2480  143.4420 N   0  0  0  0  0  0  0  0  0  0  0  0
  187.4610  177.7770  142.3930 C   0  0  0  0  0  0  0  0  0  0  0  0
  189.4120  177.2080  141.0200 N   0  0  0  0  0  2  0  0  0  0  0  0
  187.1540  177.9770  146.1290 C   0  0  0  0  0  3  0  0  0  0  0  0
  182.7470  179.0880  143.5740 C   0  0  0  0  0  3  0  0  0  0  0  0
  189.0090  177.4300  144.6740 C   0  0  0  0  0  0  0  0  0  0  0  0
  189.8230  177.2440  145.7960 C   0  0  0  0  0  3  0  0  0  0  0  0
  186.7420  177.9370  141.2510 N   0  0  0  0  0  0  0  0  0  0  0  0
  184.7970  178.4990  142.4270 C   0  0  0  0  0  0  0  0  0  0  0  0
  183.4480  178.8620  142.3890 C   0  0  0  0  0  3  0  0  0  0  0  0
  191.9600  176.3210  136.6690 C   0  0  0  0  0  0  0  0  0  0  0  0
  190.2660  176.4080  138.3880 C   0  0  0  0  0  3  0  0  0  0  0  0
  193.9220  177.0610  140.0880 Cl  0  0  0  0  0  0  0  0  0  0  0  0
  192.3170  176.1530  135.3380 O   0  0  0  0  0  1  0  0  0  0  0  0
  190.6220  176.2380  137.0490 C   0  0  0  0  0  3  0  0  0  0  0  0
  192.5980  176.7480  138.9730 C   0  0  0  0  0  0  0  0  0  0  0  0
  191.2380  176.6640  139.3710 C   0  0  0  0  0  0  0  0  0  0  0  0
  192.9420  176.5750  137.6270 C   0  0  0  0  0  3  0  0  0  0  0  0
  1 11  1  0  0  0  0
  2  3  1  0  0  0  0
  2  7  1  0  0  0  0
  3  9  1  0  0  0  0
  5 16  1  0  0  0  0
  5  4  2  0  0  0  0
  6  9  2  0  0  0  0
  6 13  1  0  0  0  0
  7 17  1  0  0  0  0
  8  1  1  0  0  0  0
 10 15  1  0  0  0  0
 10 14  2  0  0  0  0
 12 22  1  0  0  0  0
 14 19  1  0  0  0  0
 15  2  2  0  0  0  0
 16 10  1  0  0  0  0
 17  1  2  0  0  0  0
 18  6  1  0  0  0  0
 19  7  2  0  0  0  0
 19 20  1  0  0  0  0
 20  8  2  0  0  0  0
 21 12  2  0  0  0  0
 21 15  1  0  0  0  0
 22  3  2  0  0  0  0
 23 22  1  0  0  0  0
 23 18  2  0  0  0  0
 24 28  2  0  0  0  0
 24 31  1  0  0  0  0
 25 30  2  0  0  0  0
 27 24  1  0  0  0  0
 28 25  1  0  0  0  0
 29 30  1  0  0  0  0
 29 26  1  0  0  0  0
 30  5  1  0  0  0  0
 31 29  2  0  0  0  0
M  END
>  <MODEL>
9

>  <REMARK>
 VINA RESULT:     -10.3      1.250      4.168
  Name = 
  1 active torsions:
  status: ('A' for Active; 'I' for Inactive)
    1  A    between atoms: C_5  and  C_30
                            x       y       z     vdW  Elec       q    Type
                         _______ _______ _______ _____ _____    ______ ____

>  <TORSDO>
F 1

$$$$
