=
 OpenBabel11122411083D

 31 35  0  0  1  0  0  0  0  0999 V2000
  190.1260  176.5670  142.6690 C   0  0  0  0  0  0  0  0  0  0  0  0
  186.7950  178.0250  143.8250 C   0  0  0  0  0  0  0  0  0  0  0  0
  186.8280  178.1170  145.2420 C   0  0  0  0  0  0  0  0  0  0  0  0
  187.9700  177.9880  147.3780 C   0  0  0  0  0  0  0  0  0  0  0  0
  187.9680  177.6250  142.9810 C   0  0  0  0  0  0  0  0  0  0  0  0
  190.0770  176.8550  141.3410 N   0  0  0  0  0  0  0  0  0  0  0  0
  187.9920  177.8780  145.9860 C   0  0  0  0  0  3  0  0  0  0  0  0
  185.4780  178.2280  141.6620 C   0  0  1  0  0  3  0  0  0  0  0  0
  191.3010  175.8510  143.2300 C   0  0  0  0  0  1  0  0  0  0  0  0
  184.4870  178.7500  145.2390 C   0  0  0  0  0  3  0  0  0  0  0  0
  189.4270  177.6820  148.2990 Cl  0  0  0  0  0  0  0  0  0  0  0  0
  186.7910  178.6280  140.9890 C   0  0  0  0  0  2  0  0  0  0  0  0
  185.5830  178.3480  143.1650 C   0  0  0  0  0  0  0  0  0  0  0  0
  189.0750  176.9440  143.5060 C   0  0  0  0  0  3  0  0  0  0  0  0
  186.8220  178.3310  148.0170 N   0  0  0  0  0  0  0  0  0  0  0  0
  187.9380  177.8860  141.5970 C   0  0  0  0  0  0  0  0  0  0  0  0
  189.0160  177.5040  140.7950 C   0  0  0  0  0  3  0  0  0  0  0  0
  184.4750  178.6730  143.8860 N   0  0  0  0  0  0  0  0  0  0  0  0
  185.6570  178.4820  145.9400 C   0  0  0  0  0  0  0  0  0  0  0  0
  185.6750  178.5790  147.3330 C   0  0  0  0  0  3  0  0  0  0  0  0
  183.2160  177.2870  140.2170 O   0  0  0  0  0  0  0  0  0  0  0  0
  183.2870  178.5290  140.4170 C   0  0  0  0  0  0  0  0  0  0  0  0
  184.3960  179.0620  141.1520 N   0  0  0  0  0  2  0  0  0  0  0  0
  180.3340  181.2220  138.8280 C   0  0  0  0  0  0  0  0  0  0  0  0
  182.4950  180.1480  138.7190 C   0  0  0  0  0  3  0  0  0  0  0  0
  180.6140  178.9590  141.8240 C   0  0  0  0  0  1  0  0  0  0  0  0
  179.3980  182.0970  138.2950 O   0  0  0  0  0  1  0  0  0  0  0  0
  181.5540  181.0280  138.1810 C   0  0  0  0  0  3  0  0  0  0  0  0
  180.9910  179.6520  140.5590 C   0  0  0  0  0  0  0  0  0  0  0  0
  182.2370  179.4480  139.9090 C   0  0  0  0  0  0  0  0  0  0  0  0
  180.0560  180.5360  140.0110 C   0  0  0  0  0  3  0  0  0  0  0  0
  1  9  1  0  0  0  0
  1 14  1  0  0  0  0
  2  3  1  0  0  0  0
  3 19  2  0  0  0  0
  3  7  1  0  0  0  0
  4 15  1  0  0  0  0
  4 11  1  0  0  0  0
  5 14  2  0  0  0  0
  5  2  1  0  0  0  0
  6  1  2  0  0  0  0
  7  4  2  0  0  0  0
  8 23  1  6  0  0  0
  8 13  1  0  0  0  0
 10 19  1  0  0  0  0
 12 16  1  0  0  0  0
 12  8  1  0  0  0  0
 13  2  2  0  0  0  0
 13 18  1  0  0  0  0
 16  5  1  0  0  0  0
 17  6  1  0  0  0  0
 17 16  2  0  0  0  0
 18 10  2  0  0  0  0
 19 20  1  0  0  0  0
 20 15  2  0  0  0  0
 21 22  2  0  0  0  0
 22 23  1  0  0  0  0
 24 31  1  0  0  0  0
 25 30  2  0  0  0  0
 27 24  1  0  0  0  0
 28 25  1  0  0  0  0
 28 24  2  0  0  0  0
 29 26  1  0  0  0  0
 30 22  1  0  0  0  0
 30 29  1  0  0  0  0
 31 29  2  0  0  0  0
M  END
>  <MODEL>
1

>  <REMARK>
 VINA RESULT:      -9.9      0.000      0.000
  Name = 
  2 active torsions:
  status: ('A' for Active; 'I' for Inactive)
    1  A    between atoms: C_5  and  C_30
    2  A    between atoms: C_10  and  N_16
                            x       y       z     vdW  Elec       q    Type
                         _______ _______ _______ _____ _____    ______ ____

>  <TORSDO>
F 2

$$$$
=
 OpenBabel11122411083D

 31 35  0  0  1  0  0  0  0  0999 V2000
  190.3790  176.5760  136.7970 C   0  0  0  0  0  0  0  0  0  0  0  0
  187.8220  177.8470  139.3280 C   0  0  0  0  0  0  0  0  0  0  0  0
  186.5600  177.9050  138.6800 C   0  0  0  0  0  0  0  0  0  0  0  0
  185.0820  177.4620  136.8080 C   0  0  0  0  0  0  0  0  0  0  0  0
  189.0600  177.2700  138.7080 C   0  0  0  0  0  0  0  0  0  0  0  0
  191.4100  176.2570  137.6240 N   0  0  0  0  0  0  0  0  0  0  0  0
  186.3460  177.3820  137.3970 C   0  0  0  0  0  3  0  0  0  0  0  0
  189.2430  178.3510  141.3730 C   0  0  1  0  0  3  0  0  0  0  0  0
  190.5140  176.3770  135.3310 C   0  0  0  0  0  1  0  0  0  0  0  0
  185.6260  179.0030  140.6320 C   0  0  0  0  0  3  0  0  0  0  0  0
  184.8260  176.8100  135.2040 Cl  0  0  0  0  0  0  0  0  0  0  0  0
  190.0600  177.1090  141.0170 C   0  0  0  0  0  2  0  0  0  0  0  0
  187.9150  178.3500  140.6510 C   0  0  0  0  0  0  0  0  0  0  0  0
  189.1920  177.0880  137.3240 C   0  0  0  0  0  3  0  0  0  0  0  0
  184.0530  178.0420  137.4780 N   0  0  0  0  0  0  0  0  0  0  0  0
  190.1570  176.9540  139.5330 C   0  0  0  0  0  0  0  0  0  0  0  0
  191.3220  176.4310  138.9680 C   0  0  0  0  0  3  0  0  0  0  0  0
  186.8340  178.9260  141.2430 N   0  0  0  0  0  0  0  0  0  0  0  0
  185.4630  178.4920  139.3500 C   0  0  0  0  0  0  0  0  0  0  0  0
  184.2160  178.5540  138.7260 C   0  0  0  0  0  3  0  0  0  0  0  0
  188.2970  176.2100  142.9890 O   0  0  0  0  0  0  0  0  0  0  0  0
  188.5510  177.2970  143.5750 C   0  0  0  0  0  0  0  0  0  0  0  0
  189.0450  178.4070  142.8170 N   0  0  0  0  0  2  0  0  0  0  0  0
  188.1170  177.6680  147.8380 C   0  0  0  0  0  0  0  0  0  0  0  0
  189.4300  177.1280  145.8840 C   0  0  0  0  0  3  0  0  0  0  0  0
  185.9310  178.2360  144.8250 C   0  0  0  0  0  1  0  0  0  0  0  0
  188.0020  177.7790  149.2170 O   0  0  0  0  0  1  0  0  0  0  0  0
  189.3160  177.2400  147.2710 C   0  0  0  0  0  3  0  0  0  0  0  0
  187.1360  177.8770  145.6270 C   0  0  0  0  0  0  0  0  0  0  0  0
  188.3520  177.4400  145.0400 C   0  0  0  0  0  0  0  0  0  0  0  0
  187.0330  177.9850  147.0190 C   0  0  0  0  0  3  0  0  0  0  0  0
  1 14  2  0  0  0  0
  1  6  1  0  0  0  0
  2 13  1  0  0  0  0
  3  2  2  0  0  0  0
  3 19  1  0  0  0  0
  4  7  2  0  0  0  0
  4 15  1  0  0  0  0
  5  2  1  0  0  0  0
  5 16  2  0  0  0  0
  6 17  2  0  0  0  0
  7  3  1  0  0  0  0
  8 23  1  1  0  0  0
  9  1  1  0  0  0  0
 10 18  1  0  0  0  0
 11  4  1  0  0  0  0
 12  8  1  0  0  0  0
 13 18  2  0  0  0  0
 13  8  1  0  0  0  0
 14  5  1  0  0  0  0
 15 20  2  0  0  0  0
 16 12  1  0  0  0  0
 17 16  1  0  0  0  0
 19 10  2  0  0  0  0
 20 19  1  0  0  0  0
 21 22  2  0  0  0  0
 22 30  1  0  0  0  0
 23 22  1  0  0  0  0
 24 27  1  0  0  0  0
 25 28  2  0  0  0  0
 26 29  1  0  0  0  0
 28 24  1  0  0  0  0
 29 31  1  0  0  0  0
 30 29  2  0  0  0  0
 30 25  1  0  0  0  0
 31 24  2  0  0  0  0
M  END
>  <MODEL>
2

>  <REMARK>
 VINA RESULT:      -9.3      4.257      7.965
  Name = 
  2 active torsions:
  status: ('A' for Active; 'I' for Inactive)
    1  A    between atoms: C_5  and  C_30
    2  A    between atoms: C_10  and  N_16
                            x       y       z     vdW  Elec       q    Type
                         _______ _______ _______ _____ _____    ______ ____

>  <TORSDO>
F 2

$$$$
=
 OpenBabel11122411083D

 31 35  0  0  1  0  0  0  0  0999 V2000
  186.6150  178.3130  146.9520 C   0  0  0  0  0  0  0  0  0  0  0  0
  187.3500  178.0530  143.2160 C   0  0  0  0  0  0  0  0  0  0  0  0
  188.6760  177.5660  143.0660 C   0  0  0  0  0  0  0  0  0  0  0  0
  190.7340  176.6290  143.9450 C   0  0  0  0  0  0  0  0  0  0  0  0
  186.6400  178.1670  144.5330 C   0  0  0  0  0  0  0  0  0  0  0  0
  185.2630  178.4500  146.9310 N   0  0  0  0  0  0  0  0  0  0  0  0
  189.4370  177.1020  144.1500 C   0  0  0  0  0  3  0  0  0  0  0  0
  185.2490  179.0040  142.1520 C   0  0  1  0  0  3  0  0  0  0  0  0
  187.3410  178.3120  148.2480 C   0  0  0  0  0  1  0  0  0  0  0  0
  188.5300  177.9520  140.6760 C   0  0  0  0  0  3  0  0  0  0  0  0
  191.6770  176.0570  145.3040 Cl  0  0  0  0  0  0  0  0  0  0  0  0
  184.4640  178.3160  143.2690 C   0  0  0  0  0  2  0  0  0  0  0  0
  186.6470  178.4400  142.0480 C   0  0  0  0  0  0  0  0  0  0  0  0
  187.3230  178.1730  145.7570 C   0  0  0  0  0  3  0  0  0  0  0  0
  191.2640  176.6110  142.6940 N   0  0  0  0  0  0  0  0  0  0  0  0
  185.2420  178.3360  144.5450 C   0  0  0  0  0  0  0  0  0  0  0  0
  184.5690  178.4600  145.7630 C   0  0  0  0  0  3  0  0  0  0  0  0
  187.2600  178.3990  140.8330 N   0  0  0  0  0  0  0  0  0  0  0  0
  189.2570  177.5220  141.7800 C   0  0  0  0  0  0  0  0  0  0  0  0
  190.5580  177.0440  141.6170 C   0  0  0  0  0  3  0  0  0  0  0  0
  182.4200  178.9660  141.8530 O   0  0  0  0  0  0  0  0  0  0  0  0
  183.1060  178.8260  140.8050 C   0  0  0  0  0  0  0  0  0  0  0  0
  184.5350  178.8510  140.8900 N   0  0  0  0  0  2  0  0  0  0  0  0
  181.2060  178.4400  136.9650 C   0  0  0  0  0  0  0  0  0  0  0  0
  182.0660  179.7900  138.7750 C   0  0  0  0  0  3  0  0  0  0  0  0
  182.5770  176.0880  139.5660 C   0  0  0  0  0  1  0  0  0  0  0  0
  180.5920  178.3420  135.7250 O   0  0  0  0  0  1  0  0  0  0  0  0
  181.4470  179.6930  137.5270 C   0  0  0  0  0  3  0  0  0  0  0  0
  182.2050  177.3700  138.9020 C   0  0  0  0  0  0  0  0  0  0  0  0
  182.4530  178.6410  139.4830 C   0  0  0  0  0  0  0  0  0  0  0  0
  181.5840  177.2850  137.6510 C   0  0  0  0  0  3  0  0  0  0  0  0
  1  9  1  0  0  0  0
  2  5  1  0  0  0  0
  3  2  1  0  0  0  0
  3  7  1  0  0  0  0
  4  7  2  0  0  0  0
  4 11  1  0  0  0  0
  5 16  2  0  0  0  0
  5 14  1  0  0  0  0
  6  1  1  0  0  0  0
  8 23  1  6  0  0  0
  8 12  1  0  0  0  0
 10 18  2  0  0  0  0
 10 19  1  0  0  0  0
 12 16  1  0  0  0  0
 13  8  1  0  0  0  0
 13  2  2  0  0  0  0
 14  1  2  0  0  0  0
 15  4  1  0  0  0  0
 16 17  1  0  0  0  0
 17  6  2  0  0  0  0
 18 13  1  0  0  0  0
 19  3  2  0  0  0  0
 20 19  1  0  0  0  0
 20 15  2  0  0  0  0
 22 23  1  0  0  0  0
 22 21  2  0  0  0  0
 24 28  2  0  0  0  0
 24 31  1  0  0  0  0
 25 30  2  0  0  0  0
 27 24  1  0  0  0  0
 28 25  1  0  0  0  0
 29 30  1  0  0  0  0
 29 26  1  0  0  0  0
 30 22  1  0  0  0  0
 31 29  2  0  0  0  0
M  END
>  <MODEL>
3

>  <REMARK>
 VINA RESULT:      -9.3      1.873      4.271
  Name = 
  2 active torsions:
  status: ('A' for Active; 'I' for Inactive)
    1  A    between atoms: C_5  and  C_30
    2  A    between atoms: C_10  and  N_16
                            x       y       z     vdW  Elec       q    Type
                         _______ _______ _______ _____ _____    ______ ____

>  <TORSDO>
F 2

$$$$
=
 OpenBabel11122411083D

 31 35  0  0  1  0  0  0  0  0999 V2000
  184.8590  178.7290  144.3980 C   0  0  0  0  0  0  0  0  0  0  0  0
  188.5210  177.7580  143.9390 C   0  0  0  0  0  0  0  0  0  0  0  0
  189.0820  177.5520  145.2270 C   0  0  0  0  0  0  0  0  0  0  0  0
  188.9080  177.3250  147.6360 C   0  0  0  0  0  0  0  0  0  0  0  0
  187.0660  178.0220  143.6870 C   0  0  0  0  0  0  0  0  0  0  0  0
  184.3950  178.5560  143.1320 N   0  0  0  0  0  0  0  0  0  0  0  0
  188.3050  177.5370  146.3950 C   0  0  0  0  0  3  0  0  0  0  0  0
  188.8510  177.9440  141.4270 C   0  0  1  0  0  3  0  0  0  0  0  0
  183.9400  179.1940  145.4690 C   0  0  0  0  0  1  0  0  0  0  0  0
  191.2750  177.3190  144.2170 C   0  0  0  0  0  3  0  0  0  0  0  0
  187.9300  177.3130  149.0880 Cl  0  0  0  0  0  0  0  0  0  0  0  0
  187.4360  177.3860  141.2760 C   0  0  0  0  0  2  0  0  0  0  0  0
  189.3860  177.6920  142.8180 C   0  0  0  0  0  0  0  0  0  0  0  0
  186.1980  178.4680  144.6950 C   0  0  0  0  0  3  0  0  0  0  0  0
  190.2490  177.1280  147.7180 N   0  0  0  0  0  0  0  0  0  0  0  0
  186.5580  177.8780  142.3810 C   0  0  0  0  0  0  0  0  0  0  0  0
  185.2090  178.1370  142.1290 C   0  0  0  0  0  3  0  0  0  0  0  0
  190.7220  177.5010  142.9930 N   0  0  0  0  0  0  0  0  0  0  0  0
  190.4710  177.3330  145.3510 C   0  0  0  0  0  0  0  0  0  0  0  0
  191.0370  177.1270  146.6110 C   0  0  0  0  0  3  0  0  0  0  0  0
  189.0920  178.8090  138.7280 O   0  0  0  0  0  0  0  0  0  0  0  0
  189.7890  177.8170  139.0720 C   0  0  0  0  0  0  0  0  0  0  0  0
  189.7210  177.3440  140.4220 N   0  0  0  0  0  2  0  0  0  0  0  0
  192.4860  175.8460  136.3630 C   0  0  0  0  0  0  0  0  0  0  0  0
  191.9990  176.8550  138.5020 C   0  0  0  0  0  3  0  0  0  0  0  0
  188.9030  177.0000  136.2700 C   0  0  0  0  0  1  0  0  0  0  0  0
  193.3750  175.2120  135.5070 O   0  0  0  0  0  1  0  0  0  0  0  0
  192.8940  176.2170  137.6430 C   0  0  0  0  0  3  0  0  0  0  0  0
  190.2760  176.7530  136.7960 C   0  0  0  0  0  0  0  0  0  0  0  0
  190.6830  177.1350  138.1010 C   0  0  0  0  0  0  0  0  0  0  0  0
  191.1820  176.1130  135.9430 C   0  0  0  0  0  3  0  0  0  0  0  0
  1 14  1  0  0  0  0
  1  9  1  0  0  0  0
  2  3  1  0  0  0  0
  3 19  2  0  0  0  0
  3  7  1  0  0  0  0
  4 15  1  0  0  0  0
  4 11  1  0  0  0  0
  5  2  1  0  0  0  0
  5 14  2  0  0  0  0
  6  1  2  0  0  0  0
  7  4  2  0  0  0  0
  8 23  1  6  0  0  0
  8 13  1  0  0  0  0
 10 19  1  0  0  0  0
 12  8  1  0  0  0  0
 12 16  1  0  0  0  0
 13 18  1  0  0  0  0
 13  2  2  0  0  0  0
 16  5  1  0  0  0  0
 17 16  2  0  0  0  0
 17  6  1  0  0  0  0
 18 10  2  0  0  0  0
 19 20  1  0  0  0  0
 20 15  2  0  0  0  0
 21 22  2  0  0  0  0
 22 23  1  0  0  0  0
 24 28  1  0  0  0  0
 26 29  1  0  0  0  0
 27 24  1  0  0  0  0
 28 25  2  0  0  0  0
 29 30  2  0  0  0  0
 30 25  1  0  0  0  0
 30 22  1  0  0  0  0
 31 24  2  0  0  0  0
 31 29  1  0  0  0  0
M  END
>  <MODEL>
4

>  <REMARK>
 VINA RESULT:      -9.2      3.585      7.257
  Name = 
  2 active torsions:
  status: ('A' for Active; 'I' for Inactive)
    1  A    between atoms: C_5  and  C_30
    2  A    between atoms: C_10  and  N_16
                            x       y       z     vdW  Elec       q    Type
                         _______ _______ _______ _____ _____    ______ ____

>  <TORSDO>
F 2

$$$$
=
 OpenBabel11122411083D

 31 35  0  0  1  0  0  0  0  0999 V2000
  187.0820  177.8240  136.2000 C   0  0  0  0  0  0  0  0  0  0  0  0
  186.2110  178.3370  139.8800 C   0  0  0  0  0  0  0  0  0  0  0  0
  184.7950  178.3460  139.9950 C   0  0  0  0  0  0  0  0  0  0  0  0
  182.5630  178.0390  139.0950 C   0  0  0  0  0  0  0  0  0  0  0  0
  186.9490  178.0270  138.6120 C   0  0  0  0  0  0  0  0  0  0  0  0
  188.3990  177.5030  136.2990 N   0  0  0  0  0  0  0  0  0  0  0  0
  183.9490  178.0200  138.9250 C   0  0  0  0  0  3  0  0  0  0  0  0
  188.4840  178.6680  140.9650 C   0  0  1  0  0  3  0  0  0  0  0  0
  186.4310  177.8880  134.8660 C   0  0  0  0  0  1  0  0  0  0  0  0
  185.0050  178.9840  142.3260 C   0  0  0  0  0  3  0  0  0  0  0  0
  181.5150  177.6350  137.7520 Cl  0  0  0  0  0  0  0  0  0  0  0  0
  189.0150  177.6110  139.9960 C   0  0  0  0  0  2  0  0  0  0  0  0
  186.9750  178.6230  141.0390 C   0  0  0  0  0  0  0  0  0  0  0  0
  186.3390  178.0930  137.3510 C   0  0  0  0  0  3  0  0  0  0  0  0
  182.0280  178.3710  140.2990 N   0  0  0  0  0  0  0  0  0  0  0  0
  188.3220  177.7150  138.6760 C   0  0  0  0  0  0  0  0  0  0  0  0
  189.0260  177.4400  137.5020 C   0  0  0  0  0  3  0  0  0  0  0  0
  186.3550  178.9560  142.2040 N   0  0  0  0  0  0  0  0  0  0  0  0
  184.2030  178.6750  141.2340 C   0  0  0  0  0  0  0  0  0  0  0  0
  182.8130  178.6860  141.3630 C   0  0  0  0  0  3  0  0  0  0  0  0
  188.5200  176.2010  142.3820 O   0  0  0  0  0  0  0  0  0  0  0  0
  189.0460  177.1940  142.9530 C   0  0  0  0  0  0  0  0  0  0  0  0
  189.0720  178.4600  142.2840 N   0  0  0  0  0  2  0  0  0  0  0  0
  190.9110  176.7990  146.8080 C   0  0  0  0  0  0  0  0  0  0  0  0
  191.0060  176.7330  144.3960 C   0  0  0  0  0  3  0  0  0  0  0  0
  187.4700  177.6340  145.5280 C   0  0  0  0  0  1  0  0  0  0  0  0
  191.5360  176.6650  148.0410 O   0  0  0  0  0  1  0  0  0  0  0  0
  191.6350  176.5980  145.6340 C   0  0  0  0  0  3  0  0  0  0  0  0
  188.9160  177.2720  145.5080 C   0  0  0  0  0  0  0  0  0  0  0  0
  189.6450  177.0690  144.3070 C   0  0  0  0  0  0  0  0  0  0  0  0
  189.5580  177.1340  146.7440 C   0  0  0  0  0  3  0  0  0  0  0  0
  1  6  2  0  0  0  0
  1 14  1  0  0  0  0
  2  3  2  0  0  0  0
  2 13  1  0  0  0  0
  3 19  1  0  0  0  0
  4 15  1  0  0  0  0
  5 16  1  0  0  0  0
  5  2  1  0  0  0  0
  6 17  1  0  0  0  0
  7  4  2  0  0  0  0
  7  3  1  0  0  0  0
  8 13  1  0  0  0  0
  8 23  1  1  0  0  0
  9  1  1  0  0  0  0
 11  4  1  0  0  0  0
 12  8  1  0  0  0  0
 13 18  2  0  0  0  0
 14  5  2  0  0  0  0
 15 20  2  0  0  0  0
 16 12  1  0  0  0  0
 17 16  2  0  0  0  0
 18 10  1  0  0  0  0
 19 20  1  0  0  0  0
 19 10  2  0  0  0  0
 21 22  2  0  0  0  0
 22 30  1  0  0  0  0
 23 22  1  0  0  0  0
 24 27  1  0  0  0  0
 25 28  1  0  0  0  0
 28 24  2  0  0  0  0
 29 26  1  0  0  0  0
 29 31  2  0  0  0  0
 30 25  2  0  0  0  0
 30 29  1  0  0  0  0
 31 24  1  0  0  0  0
M  END
>  <MODEL>
5

>  <REMARK>
 VINA RESULT:      -8.8      4.095      8.195
  Name = 
  2 active torsions:
  status: ('A' for Active; 'I' for Inactive)
    1  A    between atoms: C_5  and  C_30
    2  A    between atoms: C_10  and  N_16
                            x       y       z     vdW  Elec       q    Type
                         _______ _______ _______ _____ _____    ______ ____

>  <TORSDO>
F 2

$$$$
=
 OpenBabel11122411083D

 31 35  0  0  1  0  0  0  0  0999 V2000
  191.9910  177.4930  140.6390 C   0  0  0  0  0  0  0  0  0  0  0  0
  188.5070  177.7110  139.0970 C   0  0  0  0  0  0  0  0  0  0  0  0
  188.6290  177.4480  137.7060 C   0  0  0  0  0  0  0  0  0  0  0  0
  189.8890  176.7530  135.7520 C   0  0  0  0  0  0  0  0  0  0  0  0
  189.6340  177.5880  140.0780 C   0  0  0  0  0  0  0  0  0  0  0  0
  191.6740  177.4240  141.9600 N   0  0  0  0  0  0  0  0  0  0  0  0
  189.8250  177.0020  137.1250 C   0  0  0  0  0  3  0  0  0  0  0  0
  187.0580  178.4310  141.0550 C   0  0  1  0  0  3  0  0  0  0  0  0
  193.4140  177.4760  140.2150 C   0  0  0  0  0  1  0  0  0  0  0  0
  186.2960  178.0370  137.4060 C   0  0  0  0  0  3  0  0  0  0  0  0
  191.3880  176.2010  135.0360 Cl  0  0  0  0  0  0  0  0  0  0  0  0
  187.9260  177.5270  141.9310 C   0  0  0  0  0  2  0  0  0  0  0  0
  187.2360  178.0980  139.5910 C   0  0  0  0  0  0  0  0  0  0  0  0
  190.9800  177.5780  139.6810 C   0  0  0  0  0  3  0  0  0  0  0  0
  188.7910  176.9370  134.9740 N   0  0  0  0  0  0  0  0  0  0  0  0
  189.3430  177.5400  141.4550 C   0  0  0  0  0  0  0  0  0  0  0  0
  190.3830  177.4430  142.3820 C   0  0  0  0  0  3  0  0  0  0  0  0
  186.1910  178.2690  138.7370 N   0  0  0  0  0  0  0  0  0  0  0  0
  187.5060  177.6180  136.8670 C   0  0  0  0  0  0  0  0  0  0  0  0
  187.6110  177.3610  135.4990 C   0  0  0  0  0  3  0  0  0  0  0  0
  185.6780  180.1520  142.8510 O   0  0  0  0  0  0  0  0  0  0  0  0
  185.0240  179.1870  142.3700 C   0  0  0  0  0  0  0  0  0  0  0  0
  185.6600  178.2950  141.4490 N   0  0  0  0  0  2  0  0  0  0  0  0
  180.8740  178.5450  143.2970 C   0  0  0  0  0  0  0  0  0  0  0  0
  182.6650  178.8370  141.7030 C   0  0  0  0  0  3  0  0  0  0  0  0
  184.0560  179.0030  145.2570 C   0  0  0  0  0  1  0  0  0  0  0  0
  179.5290  178.3380  143.5700 O   0  0  0  0  0  1  0  0  0  0  0  0
  181.3120  178.6280  141.9760 C   0  0  0  0  0  3  0  0  0  0  0  0
  183.1460  178.8800  144.0820 C   0  0  0  0  0  0  0  0  0  0  0  0
  183.6030  178.9670  142.7400 C   0  0  0  0  0  0  0  0  0  0  0  0
  181.7880  178.6710  144.3430 C   0  0  0  0  0  3  0  0  0  0  0  0
  1  6  1  0  0  0  0
  2 13  1  0  0  0  0
  2  5  1  0  0  0  0
  3  2  2  0  0  0  0
  4  7  2  0  0  0  0
  5 16  2  0  0  0  0
  6 17  2  0  0  0  0
  7  3  1  0  0  0  0
  8 23  1  1  0  0  0
  8 12  1  0  0  0  0
  9  1  1  0  0  0  0
 10 18  1  0  0  0  0
 11  4  1  0  0  0  0
 13  8  1  0  0  0  0
 14  5  1  0  0  0  0
 14  1  2  0  0  0  0
 15 20  2  0  0  0  0
 15  4  1  0  0  0  0
 16 12  1  0  0  0  0
 16 17  1  0  0  0  0
 18 13  2  0  0  0  0
 19 10  2  0  0  0  0
 19  3  1  0  0  0  0
 20 19  1  0  0  0  0
 22 30  1  0  0  0  0
 22 21  2  0  0  0  0
 23 22  1  0  0  0  0
 24 27  1  0  0  0  0
 24 31  1  0  0  0  0
 25 28  1  0  0  0  0
 25 30  2  0  0  0  0
 28 24  2  0  0  0  0
 29 31  2  0  0  0  0
 29 26  1  0  0  0  0
 30 29  1  0  0  0  0
M  END
>  <MODEL>
6

>  <REMARK>
 VINA RESULT:      -8.2      3.848      6.444
  Name = 
  2 active torsions:
  status: ('A' for Active; 'I' for Inactive)
    1  A    between atoms: C_5  and  C_30
    2  A    between atoms: C_10  and  N_16
                            x       y       z     vdW  Elec       q    Type
                         _______ _______ _______ _____ _____    ______ ____

>  <TORSDO>
F 2

$$$$
=
 OpenBabel11122411083D

 31 35  0  0  1  0  0  0  0  0999 V2000
  185.9520  178.8710  141.2140 C   0  0  0  0  0  0  0  0  0  0  0  0
  189.4720  177.5740  141.9100 C   0  0  0  0  0  0  0  0  0  0  0  0
  189.6150  177.4360  143.3160 C   0  0  0  0  0  0  0  0  0  0  0  0
  188.7340  177.4320  145.5770 C   0  0  0  0  0  0  0  0  0  0  0  0
  188.1860  177.9310  141.2270 C   0  0  0  0  0  0  0  0  0  0  0  0
  185.8560  178.6270  139.8800 N   0  0  0  0  0  0  0  0  0  0  0  0
  188.5380  177.5830  144.2020 C   0  0  0  0  0  3  0  0  0  0  0  0
  190.5280  177.5160  139.6000 C   0  0  1  0  0  3  0  0  0  0  0  0
  184.8160  179.4990  141.9370 C   0  0  0  0  0  1  0  0  0  0  0  0
  191.9700  176.9410  143.0120 C   0  0  0  0  0  3  0  0  0  0  0  0
  187.3840  177.6230  146.6750 Cl  0  0  0  0  0  0  0  0  0  0  0  0
  189.1670  177.0620  139.0730 C   0  0  0  0  0  2  0  0  0  0  0  0
  190.6120  177.3430  141.0990 C   0  0  0  0  0  0  0  0  0  0  0  0
  187.1150  178.5300  141.9060 C   0  0  0  0  0  3  0  0  0  0  0  0
  189.9670  177.1360  146.0620 N   0  0  0  0  0  0  0  0  0  0  0  0
  188.0630  177.7160  139.8400 C   0  0  0  0  0  0  0  0  0  0  0  0
  186.8770  178.0590  139.1870 C   0  0  0  0  0  3  0  0  0  0  0  0
  191.8150  177.0610  141.6710 N   0  0  0  0  0  0  0  0  0  0  0  0
  190.8800  177.1180  143.8570 C   0  0  0  0  0  0  0  0  0  0  0  0
  191.0360  176.9770  145.2370 C   0  0  0  0  0  3  0  0  0  0  0  0
  190.6700  176.9980  136.8070 O   0  0  0  0  0  0  0  0  0  0  0  0
  191.5940  176.5240  137.5220 C   0  0  0  0  0  0  0  0  0  0  0  0
  191.5850  176.7630  138.9340 N   0  0  0  0  0  2  0  0  0  0  0  0
  194.8630  174.3350  135.7850 C   0  0  0  0  0  0  0  0  0  0  0  0
  193.9100  176.3750  136.6580 C   0  0  0  0  0  3  0  0  0  0  0  0
  191.3340  173.5600  136.8430 C   0  0  0  0  0  1  0  0  0  0  0  0
  195.9330  173.6510  135.2250 O   0  0  0  0  0  1  0  0  0  0  0  0
  194.9870  175.6890  136.0950 C   0  0  0  0  0  3  0  0  0  0  0  0
  192.5780  174.3470  136.6040 C   0  0  0  0  0  0  0  0  0  0  0  0
  192.6930  175.7250  136.9220 C   0  0  0  0  0  0  0  0  0  0  0  0
  193.6640  173.6690  136.0390 C   0  0  0  0  0  3  0  0  0  0  0  0
  1 14  1  0  0  0  0
  1  9  1  0  0  0  0
  2  3  1  0  0  0  0
  3 19  2  0  0  0  0
  3  7  1  0  0  0  0
  4 15  1  0  0  0  0
  4 11  1  0  0  0  0
  5 14  2  0  0  0  0
  5  2  1  0  0  0  0
  6  1  2  0  0  0  0
  7  4  2  0  0  0  0
  8 23  1  6  0  0  0
  8 13  1  0  0  0  0
 10 19  1  0  0  0  0
 12  8  1  0  0  0  0
 12 16  1  0  0  0  0
 13 18  1  0  0  0  0
 13  2  2  0  0  0  0
 16  5  1  0  0  0  0
 17 16  2  0  0  0  0
 17  6  1  0  0  0  0
 18 10  2  0  0  0  0
 19 20  1  0  0  0  0
 20 15  2  0  0  0  0
 21 22  2  0  0  0  0
 22 23  1  0  0  0  0
 24 31  2  0  0  0  0
 24 28  1  0  0  0  0
 25 30  1  0  0  0  0
 27 24  1  0  0  0  0
 28 25  2  0  0  0  0
 29 26  1  0  0  0  0
 29 30  2  0  0  0  0
 30 22  1  0  0  0  0
 31 29  1  0  0  0  0
M  END
>  <MODEL>
7

>  <REMARK>
 VINA RESULT:      -7.9      4.735      8.743
  Name = 
  2 active torsions:
  status: ('A' for Active; 'I' for Inactive)
    1  A    between atoms: C_5  and  C_30
    2  A    between atoms: C_10  and  N_16
                            x       y       z     vdW  Elec       q    Type
                         _______ _______ _______ _____ _____    ______ ____

>  <TORSDO>
F 2

$$$$
=
 OpenBabel11122411083D

 31 35  0  0  1  0  0  0  0  0999 V2000
  183.3690  178.8710  138.9470 C   0  0  0  0  0  0  0  0  0  0  0  0
  187.0180  178.0720  139.7270 C   0  0  0  0  0  0  0  0  0  0  0  0
  187.7300  178.0470  138.4980 C   0  0  0  0  0  0  0  0  0  0  0  0
  187.9040  178.4110  136.1060 C   0  0  0  0  0  0  0  0  0  0  0  0
  185.5820  178.4840  139.8570 C   0  0  0  0  0  0  0  0  0  0  0  0
  182.9140  179.1920  140.1870 N   0  0  0  0  0  0  0  0  0  0  0  0
  187.1550  178.4510  137.2840 C   0  0  0  0  0  3  0  0  0  0  0  0
  186.9920  177.6720  142.2350 C   0  0  1  0  0  3  0  0  0  0  0  0
  182.4440  178.9070  137.7840 C   0  0  0  0  0  1  0  0  0  0  0  0
  189.6910  177.2330  139.6710 C   0  0  0  0  0  3  0  0  0  0  0  0
  187.1750  178.9110  134.5940 Cl  0  0  0  0  0  0  0  0  0  0  0  0
  185.9680  178.8020  142.3280 C   0  0  0  0  0  2  0  0  0  0  0  0
  187.7120  177.7030  140.9060 C   0  0  0  0  0  0  0  0  0  0  0  0
  184.7050  178.5110  138.7630 C   0  0  0  0  0  3  0  0  0  0  0  0
  189.1930  177.9850  136.1300 N   0  0  0  0  0  0  0  0  0  0  0  0
  185.0710  178.7960  141.1320 C   0  0  0  0  0  0  0  0  0  0  0  0
  183.7310  179.1640  141.2720 C   0  0  0  0  0  3  0  0  0  0  0  0
  189.0030  177.2780  140.8380 N   0  0  0  0  0  0  0  0  0  0  0  0
  189.0760  177.6210  138.4860 C   0  0  0  0  0  0  0  0  0  0  0  0
  189.7900  177.5930  137.2860 C   0  0  0  0  0  3  0  0  0  0  0  0
  188.2670  175.4850  143.5340 O   0  0  0  0  0  0  0  0  0  0  0  0
  188.5400  176.6390  143.9610 C   0  0  0  0  0  0  0  0  0  0  0  0
  187.9400  177.7810  143.3380 N   0  0  0  0  0  2  0  0  0  0  0  0
  191.1370  177.2220  147.3390 C   0  0  0  0  0  0  0  0  0  0  0  0
  188.9320  177.1250  146.3570 C   0  0  0  0  0  3  0  0  0  0  0  0
  191.5710  176.4280  143.6840 C   0  0  0  0  0  1  0  0  0  0  0  0
  191.9540  177.4150  148.4450 O   0  0  0  0  0  1  0  0  0  0  0  0
  189.7520  177.3190  147.4700 C   0  0  0  0  0  3  0  0  0  0  0  0
  190.8880  176.7350  144.9740 C   0  0  0  0  0  0  0  0  0  0  0  0
  189.4770  176.8320  145.0970 C   0  0  0  0  0  0  0  0  0  0  0  0
  191.7000  176.9320  146.0960 C   0  0  0  0  0  3  0  0  0  0  0  0
  1  6  1  0  0  0  0
  2  5  1  0  0  0  0
  2 13  1  0  0  0  0
  3  2  2  0  0  0  0
  4 15  1  0  0  0  0
  4  7  2  0  0  0  0
  5 16  2  0  0  0  0
  6 17  2  0  0  0  0
  7  3  1  0  0  0  0
  8 12  1  0  0  0  0
  8 23  1  1  0  0  0
  9  1  1  0  0  0  0
 10 18  1  0  0  0  0
 11  4  1  0  0  0  0
 13  8  1  0  0  0  0
 14  1  2  0  0  0  0
 14  5  1  0  0  0  0
 15 20  2  0  0  0  0
 16 17  1  0  0  0  0
 16 12  1  0  0  0  0
 18 13  2  0  0  0  0
 19  3  1  0  0  0  0
 19 10  2  0  0  0  0
 20 19  1  0  0  0  0
 21 22  2  0  0  0  0
 22 30  1  0  0  0  0
 23 22  1  0  0  0  0
 24 28  1  0  0  0  0
 24 27  1  0  0  0  0
 25 28  2  0  0  0  0
 26 29  1  0  0  0  0
 29 30  2  0  0  0  0
 29 31  1  0  0  0  0
 30 25  1  0  0  0  0
 31 24  2  0  0  0  0
M  END
>  <MODEL>
8

>  <REMARK>
 VINA RESULT:      -7.7      4.181      9.225
  Name = 
  2 active torsions:
  status: ('A' for Active; 'I' for Inactive)
    1  A    between atoms: C_5  and  C_30
    2  A    between atoms: C_10  and  N_16
                            x       y       z     vdW  Elec       q    Type
                         _______ _______ _______ _____ _____    ______ ____

>  <TORSDO>
F 2

$$$$
=
 OpenBabel11122411083D

 31 35  0  0  1  0  0  0  0  0999 V2000
  182.6530  178.5570  138.3940 C   0  0  0  0  0  0  0  0  0  0  0  0
  186.1490  178.2620  139.8960 C   0  0  0  0  0  0  0  0  0  0  0  0
  187.0840  178.2680  138.8270 C   0  0  0  0  0  0  0  0  0  0  0  0
  187.6750  178.5350  136.4890 C   0  0  0  0  0  0  0  0  0  0  0  0
  184.6770  178.4950  139.7270 C   0  0  0  0  0  0  0  0  0  0  0  0
  181.9320  178.8760  139.5020 N   0  0  0  0  0  0  0  0  0  0  0  0
  186.7130  178.5370  137.5020 C   0  0  0  0  0  3  0  0  0  0  0  0
  185.6830  177.9820  142.3780 C   0  0  1  0  0  3  0  0  0  0  0  0
  181.9740  178.4200  137.0800 C   0  0  0  0  0  1  0  0  0  0  0  0
  188.8600  177.7650  140.4000 C   0  0  0  0  0  3  0  0  0  0  0  0
  187.2010  178.8670  134.8370 Cl  0  0  0  0  0  0  0  0  0  0  0  0
  184.5380  178.9780  142.1980 C   0  0  0  0  0  2  0  0  0  0  0  0
  186.6390  178.0400  141.2080 C   0  0  0  0  0  0  0  0  0  0  0  0
  184.0320  178.3590  138.4890 C   0  0  0  0  0  3  0  0  0  0  0  0
  188.9750  178.2770  136.7850 N   0  0  0  0  0  0  0  0  0  0  0  0
  183.8960  178.8010  140.8590 C   0  0  0  0  0  0  0  0  0  0  0  0
  182.5220  179.0040  140.7190 C   0  0  0  0  0  3  0  0  0  0  0  0
  187.9590  177.7780  141.4120 N   0  0  0  0  0  0  0  0  0  0  0  0
  188.4470  178.0140  139.0970 C   0  0  0  0  0  0  0  0  0  0  0  0
  189.3780  178.0190  138.0570 C   0  0  0  0  0  3  0  0  0  0  0  0
  186.8310  176.0280  144.0980 O   0  0  0  0  0  0  0  0  0  0  0  0
  186.9260  177.2320  144.4590 C   0  0  0  0  0  0  0  0  0  0  0  0
  186.3810  178.2620  143.6280 N   0  0  0  0  0  2  0  0  0  0  0  0
  189.0090  178.2450  148.0830 C   0  0  0  0  0  0  0  0  0  0  0  0
  188.9850  177.3830  145.8270 C   0  0  0  0  0  3  0  0  0  0  0  0
  185.4550  178.4220  146.8520 C   0  0  0  0  0  1  0  0  0  0  0  0
  189.7040  178.5630  149.2420 O   0  0  0  0  0  1  0  0  0  0  0  0
  189.6850  177.7020  146.9910 C   0  0  0  0  0  3  0  0  0  0  0  0
  186.9210  178.1520  146.8480 C   0  0  0  0  0  0  0  0  0  0  0  0
  187.6010  177.5980  145.7310 C   0  0  0  0  0  0  0  0  0  0  0  0
  187.6340  178.4680  148.0100 C   0  0  0  0  0  3  0  0  0  0  0  0
  1 14  2  0  0  0  0
  1  6  1  0  0  0  0
  2 13  1  0  0  0  0
  3 19  1  0  0  0  0
  3  2  2  0  0  0  0
  4 15  1  0  0  0  0
  4  7  2  0  0  0  0
  5  2  1  0  0  0  0
  5 16  2  0  0  0  0
  6 17  2  0  0  0  0
  7  3  1  0  0  0  0
  8 23  1  1  0  0  0
  9  1  1  0  0  0  0
 10 18  1  0  0  0  0
 11  4  1  0  0  0  0
 12  8  1  0  0  0  0
 13 18  2  0  0  0  0
 13  8  1  0  0  0  0
 14  5  1  0  0  0  0
 15 20  2  0  0  0  0
 16 12  1  0  0  0  0
 17 16  1  0  0  0  0
 19 10  2  0  0  0  0
 20 19  1  0  0  0  0
 21 22  2  0  0  0  0
 22 30  1  0  0  0  0
 23 22  1  0  0  0  0
 24 27  1  0  0  0  0
 25 28  1  0  0  0  0
 28 24  2  0  0  0  0
 29 26  1  0  0  0  0
 29 31  2  0  0  0  0
 30 25  2  0  0  0  0
 30 29  1  0  0  0  0
 31 24  1  0  0  0  0
M  END
>  <MODEL>
9

>  <REMARK>
 VINA RESULT:      -7.7      3.875      8.560
  Name = 
  2 active torsions:
  status: ('A' for Active; 'I' for Inactive)
    1  A    between atoms: C_5  and  C_30
    2  A    between atoms: C_10  and  N_16
                            x       y       z     vdW  Elec       q    Type
                         _______ _______ _______ _____ _____    ______ ____

>  <TORSDO>
F 2

$$$$
