=
 OpenBabel11122410223D

 30 35  0  0  1  0  0  0  0  0999 V2000
  186.8420  177.9740  140.4220 C   0  0  1  0  0  3  0  0  0  0  0  0
  187.8690  177.5450  138.1390 C   0  0  0  0  0  0  0  0  0  0  0  0
  190.7220  177.8350  142.3430 C   0  0  0  0  0  2  0  0  0  0  0  0
  187.0850  178.3950  141.8980 C   0  0  1  0  0  3  0  0  0  0  0  0
  185.6740  178.6780  139.9050 N   0  0  0  0  0  2  0  0  0  0  0  0
  183.5200  178.5200  142.8530 O   0  0  0  0  0  0  0  0  0  0  0  0
  186.7260  177.2570  145.0090 C   0  0  1  0  0  3  0  0  0  0  0  0
  184.5610  178.4780  142.1410 C   0  0  0  0  0  0  0  0  0  0  0  0
  188.2220  177.0730  144.6990 C   0  0  2  0  0  3  0  0  0  0  0  0
  190.2410  178.0140  143.7780 C   0  0  1  0  0  3  0  0  0  0  0  0
  184.5030  178.8480  140.7120 C   0  0  0  0  0  0  0  0  0  0  0  0
  185.8600  177.9640  142.7240 C   0  0  2  0  0  3  0  0  0  0  0  0
  188.8420  176.6310  137.6170 N   0  0  0  0  0  0  0  0  0  0  0  0
  188.8480  177.1440  146.0720 C   0  0  0  0  0  2  0  0  0  0  0  0
  186.5430  177.4900  146.3840 O   0  0  0  0  0  0  0  0  0  0  0  0
  186.8700  177.8460  137.4340 O   0  0  0  0  0  0  0  0  0  0  0  0
  189.5150  178.2460  141.5580 C   0  0  2  0  0  3  0  0  0  0  0  0
  189.9120  176.3060  138.2750 C   0  0  0  0  0  3  0  0  0  0  0  0
  188.0600  178.1900  139.4930 C   0  0  2  0  0  3  0  0  0  0  0  0
  188.3880  177.7520  142.4100 C   0  0  1  0  0  3  0  0  0  0  0  0
  190.8240  179.2900  144.3540 C   0  0  0  0  0  1  0  0  0  0  0  0
  188.7650  178.1000  143.7850 N   0  0  1  0  0  0  0  0  0  0  0  0
  187.6820  176.9650  147.0080 C   0  0  0  0  0  2  0  0  0  0  0  0
  185.9870  179.5720  144.5870 C   0  0  0  0  0  2  0  0  0  0  0  0
  190.1780  176.8570  139.6110 C   0  0  0  0  0  3  0  0  0  0  0  0
  189.3320  177.7270  140.1720 C   0  0  0  0  0  0  0  0  0  0  0  0
  186.0300  178.2980  144.1780 C   0  0  0  0  0  0  0  0  0  0  0  0
  183.3890  179.3620  140.1890 C   0  0  0  0  0  3  0  0  0  0  0  0
  182.0560  180.6190  138.5570 C   0  0  0  0  0  1  0  0  0  0  0  0
  183.2900  179.7640  138.7560 C   0  0  0  0  0  2  0  0  0  0  0  0
  1  5  1  6  0  0  0
  1  4  1  0  0  0  0
  2 19  1  0  0  0  0
  3 10  1  0  0  0  0
  4 20  1  0  0  0  0
  4 12  1  0  0  0  0
  5 11  1  0  0  0  0
  7 15  1  0  0  0  0
  8 12  1  0  0  0  0
  8  6  2  0  0  0  0
  9  7  1  0  0  0  0
  9 14  1  0  0  0  0
 10 22  1  0  0  0  0
 10 21  1  0  0  0  0
 11  8  1  0  0  0  0
 12 27  1  0  0  0  0
 13  2  1  0  0  0  0
 13 18  2  0  0  0  0
 14 23  1  0  0  0  0
 15 23  1  0  0  0  0
 16  2  2  0  0  0  0
 17  3  1  0  0  0  0
 17 20  1  0  0  0  0
 18 25  1  0  0  0  0
 19 26  1  0  0  0  0
 19  1  1  0  0  0  0
 20 22  1  0  0  0  0
 22  9  1  0  0  0  0
 25 26  2  0  0  0  0
 26 17  1  0  0  0  0
 27 24  2  0  0  0  0
 27  7  1  0  0  0  0
 28 11  2  0  0  0  0
 29 30  1  0  0  0  0
 30 28  1  0  0  0  0
M  END
>  <MODEL>
1

>  <REMARK>
 VINA RESULT:      -8.5      0.000      0.000
  Name = 
  1 active torsions:
  status: ('A' for Active; 'I' for Inactive)
    1  A    between atoms: C_28  and  C_30
                            x       y       z     vdW  Elec       q    Type
                         _______ _______ _______ _____ _____    ______ ____

>  <TORSDO>
F 1

$$$$
=
 OpenBabel11122410223D

 30 35  0  0  1  0  0  0  0  0999 V2000
  186.8200  178.1210  142.8910 C   0  0  1  0  0  3  0  0  0  0  0  0
  186.3850  178.3500  140.3990 C   0  0  0  0  0  0  0  0  0  0  0  0
  191.1070  178.2950  142.2980 C   0  0  0  0  0  2  0  0  0  0  0  0
  187.8420  178.2750  144.0510 C   0  0  1  0  0  3  0  0  0  0  0  0
  185.5410  178.6950  143.2950 N   0  0  0  0  0  2  0  0  0  0  0  0
  185.4430  177.5670  146.7700 O   0  0  0  0  0  0  0  0  0  0  0  0
  189.3490  176.4900  146.4280 C   0  0  1  0  0  3  0  0  0  0  0  0
  185.8980  177.8560  145.6280 C   0  0  0  0  0  0  0  0  0  0  0  0
  190.4100  176.6420  145.3250 C   0  0  2  0  0  3  0  0  0  0  0  0
  191.5170  178.0940  143.7510 C   0  0  1  0  0  3  0  0  0  0  0  0
  185.0280  178.4890  144.6160 C   0  0  0  0  0  0  0  0  0  0  0  0
  187.3160  177.4750  145.2570 C   0  0  2  0  0  3  0  0  0  0  0  0
  186.9220  177.7490  139.2140 N   0  0  0  0  0  0  0  0  0  0  0  0
  191.7010  176.5460  146.1030 C   0  0  0  0  0  2  0  0  0  0  0  0
  189.9690  176.4060  147.6880 O   0  0  0  0  0  0  0  0  0  0  0  0
  185.1530  178.6030  140.4550 O   0  0  0  0  0  0  0  0  0  0  0  0
  189.6540  178.6330  142.4300 C   0  0  2  0  0  3  0  0  0  0  0  0
  188.1860  177.4940  139.0760 C   0  0  0  0  0  3  0  0  0  0  0  0
  187.2880  178.7340  141.5490 C   0  0  2  0  0  3  0  0  0  0  0  0
  189.2260  177.7850  143.5870 C   0  0  1  0  0  3  0  0  0  0  0  0
  192.2810  179.3120  144.2370 C   0  0  0  0  0  1  0  0  0  0  0  0
  190.3040  177.9110  144.5750 N   0  0  1  0  0  0  0  0  0  0  0  0
  191.2780  175.9780  147.4320 C   0  0  0  0  0  2  0  0  0  0  0  0
  188.4210  178.6720  147.1050 C   0  0  0  0  0  2  0  0  0  0  0  0
  189.1440  177.8040  140.1470 C   0  0  0  0  0  3  0  0  0  0  0  0
  188.7360  178.3790  141.2830 C   0  0  0  0  0  0  0  0  0  0  0  0
  188.2690  177.5350  146.4160 C   0  0  0  0  0  0  0  0  0  0  0  0
  183.7970  178.8890  144.9350 C   0  0  0  0  0  3  0  0  0  0  0  0
  181.6070  178.7500  143.8380 C   0  0  0  0  0  1  0  0  0  0  0  0
  182.8890  179.5470  143.9520 C   0  0  0  0  0  2  0  0  0  0  0  0
  1  5  1  1  0  0  0
  1  4  1  0  0  0  0
  2 16  2  0  0  0  0
  2 19  1  0  0  0  0
  3 17  1  0  0  0  0
  3 10  1  0  0  0  0
  4 12  1  0  0  0  0
  5 11  1  0  0  0  0
  7 15  1  0  0  0  0
  8  6  2  0  0  0  0
  9 14  1  0  0  0  0
  9  7  1  0  0  0  0
 10 21  1  0  0  0  0
 10 22  1  0  0  0  0
 11 28  2  0  0  0  0
 11  8  1  0  0  0  0
 12  8  1  0  0  0  0
 12 27  1  0  0  0  0
 13  2  1  0  0  0  0
 14 23  1  0  0  0  0
 17 20  1  0  0  0  0
 18 13  2  0  0  0  0
 18 25  1  0  0  0  0
 19  1  1  0  0  0  0
 20  4  1  0  0  0  0
 20 22  1  0  0  0  0
 22  9  1  0  0  0  0
 23 15  1  0  0  0  0
 25 26  2  0  0  0  0
 26 19  1  0  0  0  0
 26 17  1  0  0  0  0
 27  7  1  0  0  0  0
 27 24  2  0  0  0  0
 29 30  1  0  0  0  0
 30 28  1  0  0  0  0
M  END
>  <MODEL>
2

>  <REMARK>
 VINA RESULT:      -8.3      2.004      3.118
  Name = 
  1 active torsions:
  status: ('A' for Active; 'I' for Inactive)
    1  A    between atoms: C_28  and  C_30
                            x       y       z     vdW  Elec       q    Type
                         _______ _______ _______ _____ _____    ______ ____

>  <TORSDO>
F 1

$$$$
=
 OpenBabel11122410223D

 30 35  0  0  1  0  0  0  0  0999 V2000
  188.1730  178.1550  141.3990 C   0  0  1  0  0  3  0  0  0  0  0  0
  189.7660  178.0200  143.3730 C   0  0  0  0  0  0  0  0  0  0  0  0
  190.9350  176.0050  138.8480 C   0  0  0  0  0  2  0  0  0  0  0  0
  187.7980  177.6120  139.9920 C   0  0  1  0  0  3  0  0  0  0  0  0
  186.9690  178.2530  142.2160 N   0  0  0  0  0  2  0  0  0  0  0  0
  184.6270  179.4820  139.6920 O   0  0  0  0  0  0  0  0  0  0  0  0
  187.4000  178.6300  136.8440 C   0  0  1  0  0  3  0  0  0  0  0  0
  185.6570  178.9570  140.2000 C   0  0  0  0  0  0  0  0  0  0  0  0
  188.7800  177.9510  136.8610 C   0  0  2  0  0  3  0  0  0  0  0  0
  190.1160  176.0720  137.5650 C   0  0  1  0  0  3  0  0  0  0  0  0
  185.7420  178.7410  141.6590 C   0  0  0  0  0  0  0  0  0  0  0  0
  186.8490  178.6260  139.3280 C   0  0  2  0  0  3  0  0  0  0  0  0
  191.1680  178.2450  143.5650 N   0  0  0  0  0  0  0  0  0  0  0  0
  188.9280  177.4850  135.4310 C   0  0  0  0  0  2  0  0  0  0  0  0
  186.8050  178.4870  135.5770 O   0  0  0  0  0  0  0  0  0  0  0  0
  188.9600  178.3630  144.2770 O   0  0  0  0  0  0  0  0  0  0  0  0
  189.9210  176.3780  139.8840 C   0  0  2  0  0  3  0  0  0  0  0  0
  192.0560  177.8850  142.6900 C   0  0  0  0  0  3  0  0  0  0  0  0
  189.2570  177.3270  142.1290 C   0  0  2  0  0  3  0  0  0  0  0  0
  189.0790  177.3870  139.1680 C   0  0  1  0  0  3  0  0  0  0  0  0
  189.7630  174.6670  137.1140 C   0  0  0  0  0  1  0  0  0  0  0  0
  188.8760  176.8340  137.8240 N   0  0  1  0  0  0  0  0  0  0  0  0
  187.8650  178.2530  134.6920 C   0  0  0  0  0  2  0  0  0  0  0  0
  185.6480  177.1540  137.7590 C   0  0  0  0  0  2  0  0  0  0  0  0
  191.6620  177.2270  141.4360 C   0  0  0  0  0  3  0  0  0  0  0  0
  190.3770  176.9640  141.1770 C   0  0  0  0  0  0  0  0  0  0  0  0
  186.4680  178.1970  137.9410 C   0  0  0  0  0  0  0  0  0  0  0  0
  184.6860  178.9670  142.4410 C   0  0  0  0  0  3  0  0  0  0  0  0
  183.3460  179.0030  144.4960 C   0  0  0  0  0  1  0  0  0  0  0  0
  184.7210  178.7480  143.9160 C   0  0  0  0  0  2  0  0  0  0  0  0
  1 19  1  0  0  0  0
  1  5  1  1  0  0  0
  2 13  1  0  0  0  0
  2 16  2  0  0  0  0
  3 17  1  0  0  0  0
  4  1  1  0  0  0  0
  6  8  2  0  0  0  0
  7  9  1  0  0  0  0
  7 27  1  0  0  0  0
  8 11  1  0  0  0  0
  9 22  1  0  0  0  0
 10 22  1  0  0  0  0
 10  3  1  0  0  0  0
 11  5  1  0  0  0  0
 11 28  2  0  0  0  0
 12  4  1  0  0  0  0
 12  8  1  0  0  0  0
 14  9  1  0  0  0  0
 15  7  1  0  0  0  0
 17 26  1  0  0  0  0
 18 13  2  0  0  0  0
 19  2  1  0  0  0  0
 20 17  1  0  0  0  0
 20  4  1  0  0  0  0
 21 10  1  0  0  0  0
 22 20  1  0  0  0  0
 23 14  1  0  0  0  0
 23 15  1  0  0  0  0
 24 27  2  0  0  0  0
 25 18  1  0  0  0  0
 26 25  2  0  0  0  0
 26 19  1  0  0  0  0
 27 12  1  0  0  0  0
 28 30  1  0  0  0  0
 30 29  1  0  0  0  0
M  END
>  <MODEL>
3

>  <REMARK>
 VINA RESULT:      -7.9      2.135      6.025
  Name = 
  1 active torsions:
  status: ('A' for Active; 'I' for Inactive)
    1  A    between atoms: C_28  and  C_30
                            x       y       z     vdW  Elec       q    Type
                         _______ _______ _______ _____ _____    ______ ____

>  <TORSDO>
F 1

$$$$
=
 OpenBabel11122410223D

 30 35  0  0  1  0  0  0  0  0999 V2000
  187.2560  178.2490  144.6840 C   0  0  1  0  0  3  0  0  0  0  0  0
  186.6280  178.5070  147.1320 C   0  0  0  0  0  0  0  0  0  0  0  0
  190.9780  176.2830  145.7050 C   0  0  0  0  0  2  0  0  0  0  0  0
  188.1650  177.5380  143.6440 C   0  0  1  0  0  3  0  0  0  0  0  0
  185.8790  178.2520  144.2010 N   0  0  0  0  0  2  0  0  0  0  0  0
  186.4850  178.9220  140.6600 O   0  0  0  0  0  0  0  0  0  0  0  0
  190.4370  178.2130  141.3010 C   0  0  1  0  0  3  0  0  0  0  0  0
  186.7010  178.5900  141.8580 C   0  0  0  0  0  0  0  0  0  0  0  0
  191.2570  177.7330  142.5110 C   0  0  2  0  0  3  0  0  0  0  0  0
  191.5140  176.1240  144.2880 C   0  0  1  0  0  3  0  0  0  0  0  0
  185.5850  178.5170  142.8240 C   0  0  0  0  0  0  0  0  0  0  0  0
  188.1170  178.3510  142.3370 C   0  0  2  0  0  3  0  0  0  0  0  0
  187.3110  178.9390  148.3170 N   0  0  0  0  0  0  0  0  0  0  0  0
  192.4970  177.1690  141.8580 C   0  0  0  0  0  2  0  0  0  0  0  0
  191.0980  177.8780  140.1050 O   0  0  0  0  0  0  0  0  0  0  0  0
  185.4180  178.8140  146.9750 O   0  0  0  0  0  0  0  0  0  0  0  0
  189.5360  176.6020  145.4570 C   0  0  2  0  0  3  0  0  0  0  0  0
  188.5470  178.6280  148.5580 C   0  0  0  0  0  3  0  0  0  0  0  0
  187.3280  177.6440  146.1070 C   0  0  2  0  0  3  0  0  0  0  0  0
  189.5940  177.4200  144.2040 C   0  0  1  0  0  3  0  0  0  0  0  0
  191.6820  174.6510  143.9700 C   0  0  0  0  0  1  0  0  0  0  0  0
  190.5560  176.7290  143.3380 N   0  0  1  0  0  0  0  0  0  0  0  0
  192.4440  177.7160  140.4560 C   0  0  0  0  0  2  0  0  0  0  0  0
  188.6740  176.5960  140.6990 C   0  0  0  0  0  2  0  0  0  0  0  0
  189.3240  177.8150  147.6120 C   0  0  0  0  0  3  0  0  0  0  0  0
  188.7660  177.3570  146.4870 C   0  0  0  0  0  0  0  0  0  0  0  0
  189.0050  177.7530  141.2850 C   0  0  0  0  0  0  0  0  0  0  0  0
  184.3250  178.6620  142.4170 C   0  0  0  0  0  3  0  0  0  0  0  0
  181.9040  179.0020  142.6310 C   0  0  0  0  0  1  0  0  0  0  0  0
  183.1660  178.5800  143.3530 C   0  0  0  0  0  2  0  0  0  0  0  0
  1  5  1  6  0  0  0
  1 19  1  0  0  0  0
  2 13  1  0  0  0  0
  4 20  1  0  0  0  0
  4  1  1  0  0  0  0
  6  8  2  0  0  0  0
  7  9  1  0  0  0  0
  8 12  1  0  0  0  0
  8 11  1  0  0  0  0
  9 22  1  0  0  0  0
 10  3  1  0  0  0  0
 11  5  1  0  0  0  0
 12  4  1  0  0  0  0
 13 18  2  0  0  0  0
 14  9  1  0  0  0  0
 15 23  1  0  0  0  0
 15  7  1  0  0  0  0
 16  2  2  0  0  0  0
 17  3  1  0  0  0  0
 17 26  1  0  0  0  0
 19 26  1  0  0  0  0
 19  2  1  0  0  0  0
 20 17  1  0  0  0  0
 21 10  1  0  0  0  0
 22 20  1  0  0  0  0
 22 10  1  0  0  0  0
 23 14  1  0  0  0  0
 24 27  2  0  0  0  0
 25 18  1  0  0  0  0
 26 25  2  0  0  0  0
 27  7  1  0  0  0  0
 27 12  1  0  0  0  0
 28 11  2  0  0  0  0
 28 30  1  0  0  0  0
 29 30  1  0  0  0  0
M  END
>  <MODEL>
4

>  <REMARK>
 VINA RESULT:      -7.8      2.432      5.778
  Name = 
  1 active torsions:
  status: ('A' for Active; 'I' for Inactive)
    1  A    between atoms: C_28  and  C_30
                            x       y       z     vdW  Elec       q    Type
                         _______ _______ _______ _____ _____    ______ ____

>  <TORSDO>
F 1

$$$$
=
 OpenBabel11122410223D

 30 35  0  0  1  0  0  0  0  0999 V2000
  186.1640  178.4080  143.4310 C   0  0  1  0  0  3  0  0  0  0  0  0
  185.1270  178.7370  145.7260 C   0  0  0  0  0  0  0  0  0  0  0  0
  189.6870  176.5560  145.1400 C   0  0  0  0  0  2  0  0  0  0  0  0
  187.2480  177.6810  142.5870 C   0  0  1  0  0  3  0  0  0  0  0  0
  184.8910  178.3660  142.7220 N   0  0  0  0  0  2  0  0  0  0  0  0
  186.0800  178.9260  139.3110 O   0  0  0  0  0  0  0  0  0  0  0  0
  189.8750  178.3210  140.6390 C   0  0  1  0  0  3  0  0  0  0  0  0
  186.0930  178.6400  140.5410 C   0  0  0  0  0  0  0  0  0  0  0  0
  190.4850  177.9010  141.9870 C   0  0  2  0  0  3  0  0  0  0  0  0
  190.4590  176.3600  143.8410 C   0  0  1  0  0  3  0  0  0  0  0  0
  184.8310  178.5770  141.3060 C   0  0  0  0  0  0  0  0  0  0  0  0
  187.4110  178.4470  141.2610 C   0  0  2  0  0  3  0  0  0  0  0  0
  185.5910  179.2230  146.9920 N   0  0  0  0  0  0  0  0  0  0  0  0
  191.8250  177.3400  141.5750 C   0  0  0  0  0  2  0  0  0  0  0  0
  190.7340  177.9600  139.5860 O   0  0  0  0  0  0  0  0  0  0  0  0
  183.9560  179.0130  145.3550 O   0  0  0  0  0  0  0  0  0  0  0  0
  188.3050  176.8370  144.6390 C   0  0  2  0  0  3  0  0  0  0  0  0
  186.7720  178.9460  147.4500 C   0  0  0  0  0  3  0  0  0  0  0  0
  186.0030  177.8540  144.8670 C   0  0  2  0  0  3  0  0  0  0  0  0
  188.5630  177.6120  143.3850 C   0  0  1  0  0  3  0  0  0  0  0  0
  190.7000  174.8800  143.6110 C   0  0  0  0  0  1  0  0  0  0  0  0
  189.6680  176.9110  142.7210 N   0  0  1  0  0  0  0  0  0  0  0  0
  192.0040  177.8370  140.1650 C   0  0  0  0  0  2  0  0  0  0  0  0
  188.2640  176.6490  139.8080 C   0  0  0  0  0  2  0  0  0  0  0  0
  187.7110  178.1180  146.6800 C   0  0  0  0  0  3  0  0  0  0  0  0
  187.3590  177.6100  145.4950 C   0  0  0  0  0  0  0  0  0  0  0  0
  188.4740  177.8320  140.3970 C   0  0  0  0  0  0  0  0  0  0  0  0
  183.6560  178.6820  140.6860 C   0  0  0  0  0  3  0  0  0  0  0  0
  181.3440  177.8690  140.5660 C   0  0  0  0  0  1  0  0  0  0  0  0
  182.3570  178.6080  141.4140 C   0  0  0  0  0  2  0  0  0  0  0  0
  1  5  1  6  0  0  0
  1 19  1  0  0  0  0
  2 13  1  0  0  0  0
  4 20  1  0  0  0  0
  4  1  1  0  0  0  0
  6  8  2  0  0  0  0
  7  9  1  0  0  0  0
  8 12  1  0  0  0  0
  8 11  1  0  0  0  0
  9 22  1  0  0  0  0
 10  3  1  0  0  0  0
 11  5  1  0  0  0  0
 12  4  1  0  0  0  0
 13 18  2  0  0  0  0
 14  9  1  0  0  0  0
 15 23  1  0  0  0  0
 15  7  1  0  0  0  0
 16  2  2  0  0  0  0
 17  3  1  0  0  0  0
 17 26  1  0  0  0  0
 19 26  1  0  0  0  0
 19  2  1  0  0  0  0
 20 17  1  0  0  0  0
 21 10  1  0  0  0  0
 22 20  1  0  0  0  0
 22 10  1  0  0  0  0
 23 14  1  0  0  0  0
 24 27  2  0  0  0  0
 25 18  1  0  0  0  0
 26 25  2  0  0  0  0
 27  7  1  0  0  0  0
 27 12  1  0  0  0  0
 28 11  2  0  0  0  0
 28 30  1  0  0  0  0
 29 30  1  0  0  0  0
M  END
>  <MODEL>
5

>  <REMARK>
 VINA RESULT:      -7.8      1.972      5.322
  Name = 
  1 active torsions:
  status: ('A' for Active; 'I' for Inactive)
    1  A    between atoms: C_28  and  C_30
                            x       y       z     vdW  Elec       q    Type
                         _______ _______ _______ _____ _____    ______ ____

>  <TORSDO>
F 1

$$$$
=
 OpenBabel11122410223D

 30 35  0  0  1  0  0  0  0  0999 V2000
  185.5640  178.1800  140.3380 C   0  0  1  0  0  3  0  0  0  0  0  0
  187.2980  178.3980  142.1810 C   0  0  0  0  0  0  0  0  0  0  0  0
  182.3260  178.9700  143.1030 C   0  0  0  0  0  2  0  0  0  0  0  0
  184.1010  178.4510  139.8920 C   0  0  1  0  0  3  0  0  0  0  0  0
  186.4750  178.5580  139.2630 N   0  0  0  0  0  2  0  0  0  0  0  0
  184.5580  177.3540  136.3940 O   0  0  0  0  0  0  0  0  0  0  0  0
  181.3670  176.8470  138.8630 C   0  0  1  0  0  3  0  0  0  0  0  0
  184.8260  177.7280  137.5700 C   0  0  0  0  0  0  0  0  0  0  0  0
  181.0940  177.1710  140.3410 C   0  0  2  0  0  3  0  0  0  0  0  0
  181.1760  178.7990  142.1180 C   0  0  1  0  0  3  0  0  0  0  0  0
  186.1670  178.2530  137.8980 C   0  0  0  0  0  0  0  0  0  0  0  0
  183.8030  177.5590  138.6730 C   0  0  2  0  0  3  0  0  0  0  0  0
  187.4260  177.9030  143.5210 N   0  0  0  0  0  0  0  0  0  0  0  0
  179.5850  177.2430  140.3830 C   0  0  0  0  0  2  0  0  0  0  0  0
  180.1600  176.8250  138.1410 O   0  0  0  0  0  0  0  0  0  0  0  0
  188.3230  178.4720  141.4550 O   0  0  0  0  0  0  0  0  0  0  0  0
  183.5030  179.0970  142.1870 C   0  0  2  0  0  3  0  0  0  0  0  0
  186.4170  177.8330  144.3340 C   0  0  0  0  0  3  0  0  0  0  0  0
  185.9640  178.8800  141.6580 C   0  0  2  0  0  3  0  0  0  0  0  0
  183.1440  178.1720  141.0650 C   0  0  1  0  0  3  0  0  0  0  0  0
  180.4080  180.1010  142.0010 C   0  0  0  0  0  1  0  0  0  0  0  0
  181.7240  178.4280  140.7960 N   0  0  1  0  0  0  0  0  0  0  0  0
  179.1600  176.5920  139.0940 C   0  0  0  0  0  2  0  0  0  0  0  0
  182.0100  178.8620  137.5930 C   0  0  0  0  0  2  0  0  0  0  0  0
  185.0730  178.2530  143.9140 C   0  0  0  0  0  3  0  0  0  0  0  0
  184.8620  178.7390  142.6870 C   0  0  0  0  0  0  0  0  0  0  0  0
  182.3880  177.7290  138.1990 C   0  0  0  0  0  0  0  0  0  0  0  0
  187.0650  178.4680  136.9370 C   0  0  0  0  0  3  0  0  0  0  0  0
  189.4300  177.8800  137.2180 C   0  0  0  0  0  1  0  0  0  0  0  0
  188.4250  179.0120  137.2190 C   0  0  0  0  0  2  0  0  0  0  0  0
  1  5  1  6  0  0  0
  1 19  1  0  0  0  0
  2 13  1  0  0  0  0
  4  1  1  0  0  0  0
  4 20  1  0  0  0  0
  6  8  2  0  0  0  0
  7  9  1  0  0  0  0
  8 11  1  0  0  0  0
  8 12  1  0  0  0  0
  9 14  1  0  0  0  0
  9 22  1  0  0  0  0
 10  3  1  0  0  0  0
 11  5  1  0  0  0  0
 12  4  1  0  0  0  0
 13 18  2  0  0  0  0
 15  7  1  0  0  0  0
 15 23  1  0  0  0  0
 16  2  2  0  0  0  0
 17 26  1  0  0  0  0
 17  3  1  0  0  0  0
 19  2  1  0  0  0  0
 19 26  1  0  0  0  0
 20 17  1  0  0  0  0
 21 10  1  0  0  0  0
 22 20  1  0  0  0  0
 22 10  1  0  0  0  0
 23 14  1  0  0  0  0
 24 27  2  0  0  0  0
 25 18  1  0  0  0  0
 26 25  2  0  0  0  0
 27 12  1  0  0  0  0
 27  7  1  0  0  0  0
 28 30  1  0  0  0  0
 28 11  2  0  0  0  0
 29 30  1  0  0  0  0
M  END
>  <MODEL>
6

>  <REMARK>
 VINA RESULT:      -7.6      2.710      6.957
  Name = 
  1 active torsions:
  status: ('A' for Active; 'I' for Inactive)
    1  A    between atoms: C_28  and  C_30
                            x       y       z     vdW  Elec       q    Type
                         _______ _______ _______ _____ _____    ______ ____

>  <TORSDO>
F 1

$$$$
=
 OpenBabel11122410223D

 30 35  0  0  1  0  0  0  0  0999 V2000
  187.7450  177.6240  142.1810 C   0  0  1  0  0  3  0  0  0  0  0  0
  185.4070  178.3150  142.8950 C   0  0  0  0  0  0  0  0  0  0  0  0
  186.9250  178.6270  138.0480 C   0  0  0  0  0  2  0  0  0  0  0  0
  188.8390  177.6880  141.0800 C   0  0  1  0  0  3  0  0  0  0  0  0
  188.3540  177.8780  143.4820 N   0  0  0  0  0  2  0  0  0  0  0  0
  191.4740  176.0210  143.0600 O   0  0  0  0  0  0  0  0  0  0  0  0
  190.6350  175.7030  139.0950 C   0  0  1  0  0  3  0  0  0  0  0  0
  190.4020  176.6220  142.7700 C   0  0  0  0  0  0  0  0  0  0  0  0
  189.5280  176.2640  138.1840 C   0  0  2  0  0  3  0  0  0  0  0  0
  188.2620  178.1860  137.4670 C   0  0  1  0  0  3  0  0  0  0  0  0
  189.6230  177.3070  143.8220 C   0  0  0  0  0  0  0  0  0  0  0  0
  189.8590  176.5700  141.3580 C   0  0  2  0  0  3  0  0  0  0  0  0
  184.0820  178.0820  142.4000 N   0  0  0  0  0  0  0  0  0  0  0  0
  190.1760  176.2160  136.8210 C   0  0  0  0  0  2  0  0  0  0  0  0
  191.7970  175.4510  138.3440 O   0  0  0  0  0  0  0  0  0  0  0  0
  185.6010  178.3420  144.1390 O   0  0  0  0  0  0  0  0  0  0  0  0
  187.2270  178.6850  139.5130 C   0  0  2  0  0  3  0  0  0  0  0  0
  183.8060  178.0750  141.1330 C   0  0  0  0  0  3  0  0  0  0  0  0
  186.5520  178.5820  141.9460 C   0  0  2  0  0  3  0  0  0  0  0  0
  188.1830  177.5470  139.6930 C   0  0  1  0  0  3  0  0  0  0  0  0
  188.9640  179.3780  136.8440 C   0  0  0  0  0  1  0  0  0  0  0  0
  189.1000  177.6310  138.5500 N   0  0  1  0  0  0  0  0  0  0  0  0
  191.3630  175.3110  137.0190 C   0  0  0  0  0  2  0  0  0  0  0  0
  191.8570  177.5030  140.2560 C   0  0  0  0  0  2  0  0  0  0  0  0
  184.8540  178.2990  140.1260 C   0  0  0  0  0  3  0  0  0  0  0  0
  186.1160  178.5370  140.4960 C   0  0  0  0  0  0  0  0  0  0  0  0
  190.9350  176.5340  140.3110 C   0  0  0  0  0  0  0  0  0  0  0  0
  190.1070  177.4200  145.0590 C   0  0  0  0  0  3  0  0  0  0  0  0
  189.0400  177.1300  147.2500 C   0  0  0  0  0  1  0  0  0  0  0  0
  189.3640  178.1170  146.1480 C   0  0  0  0  0  2  0  0  0  0  0  0
  1  5  1  1  0  0  0
  2 16  2  0  0  0  0
  3 17  1  0  0  0  0
  4 12  1  0  0  0  0
  4  1  1  0  0  0  0
  5 11  1  0  0  0  0
  7 27  1  0  0  0  0
  8  6  2  0  0  0  0
  8 11  1  0  0  0  0
  9 22  1  0  0  0  0
  9  7  1  0  0  0  0
 10  3  1  0  0  0  0
 10 22  1  0  0  0  0
 11 28  2  0  0  0  0
 12  8  1  0  0  0  0
 13  2  1  0  0  0  0
 14 23  1  0  0  0  0
 14  9  1  0  0  0  0
 15  7  1  0  0  0  0
 17 20  1  0  0  0  0
 17 26  1  0  0  0  0
 18 13  2  0  0  0  0
 19  1  1  0  0  0  0
 19  2  1  0  0  0  0
 20  4  1  0  0  0  0
 21 10  1  0  0  0  0
 22 20  1  0  0  0  0
 23 15  1  0  0  0  0
 24 27  2  0  0  0  0
 25 26  2  0  0  0  0
 25 18  1  0  0  0  0
 26 19  1  0  0  0  0
 27 12  1  0  0  0  0
 28 30  1  0  0  0  0
 30 29  1  0  0  0  0
M  END
>  <MODEL>
7

>  <REMARK>
 VINA RESULT:      -7.4      2.043      6.831
  Name = 
  1 active torsions:
  status: ('A' for Active; 'I' for Inactive)
    1  A    between atoms: C_28  and  C_30
                            x       y       z     vdW  Elec       q    Type
                         _______ _______ _______ _____ _____    ______ ____

>  <TORSDO>
F 1

$$$$
=
 OpenBabel11122410223D

 30 35  0  0  1  0  0  0  0  0999 V2000
  185.7600  178.4890  140.2470 C   0  0  1  0  0  3  0  0  0  0  0  0
  188.2480  178.5060  139.7360 C   0  0  0  0  0  0  0  0  0  0  0  0
  184.7950  177.3630  136.1770 C   0  0  0  0  0  2  0  0  0  0  0  0
  184.3440  178.0400  139.7930 C   0  0  1  0  0  3  0  0  0  0  0  0
  185.9250  178.2050  141.6680 N   0  0  0  0  0  2  0  0  0  0  0  0
  182.5960  179.1300  142.8590 O   0  0  0  0  0  0  0  0  0  0  0  0
  181.3630  179.2940  138.9880 C   0  0  1  0  0  3  0  0  0  0  0  0
  183.5270  178.8080  142.0690 C   0  0  0  0  0  0  0  0  0  0  0  0
  182.0220  178.9620  137.6380 C   0  0  2  0  0  3  0  0  0  0  0  0
  183.2780  177.3830  136.3190 C   0  0  1  0  0  3  0  0  0  0  0  0
  184.8600  178.4510  142.5940 C   0  0  0  0  0  0  0  0  0  0  0  0
  183.3090  178.8720  140.5720 C   0  0  2  0  0  3  0  0  0  0  0  0
  189.0670  179.0320  138.6840 N   0  0  0  0  0  0  0  0  0  0  0  0
  180.8270  178.7130  136.7470 C   0  0  0  0  0  2  0  0  0  0  0  0
  179.9660  179.1620  138.8900 O   0  0  0  0  0  0  0  0  0  0  0  0
  188.6740  178.5420  140.9200 O   0  0  0  0  0  0  0  0  0  0  0  0
  185.2400  177.3630  137.6060 C   0  0  2  0  0  3  0  0  0  0  0  0
  188.7060  178.9950  137.4390 C   0  0  0  0  0  3  0  0  0  0  0  0
  186.9160  177.8610  139.4310 C   0  0  2  0  0  3  0  0  0  0  0  0
  184.2090  178.2210  138.2700 C   0  0  1  0  0  3  0  0  0  0  0  0
  182.7240  175.9970  136.0490 C   0  0  0  0  0  1  0  0  0  0  0  0
  182.9270  177.7950  137.6950 N   0  0  1  0  0  0  0  0  0  0  0  0
  179.6740  179.2890  137.5250 C   0  0  0  0  0  2  0  0  0  0  0  0
  181.3710  177.3500  140.5070 C   0  0  0  0  0  2  0  0  0  0  0  0
  187.4160  178.4130  137.0390 C   0  0  0  0  0  3  0  0  0  0  0  0
  186.5940  177.8860  137.9520 C   0  0  0  0  0  0  0  0  0  0  0  0
  181.9060  178.5280  140.1630 C   0  0  0  0  0  0  0  0  0  0  0  0
  185.0620  178.3280  143.9060 C   0  0  0  0  0  3  0  0  0  0  0  0
  186.2780  177.8710  145.9880 C   0  0  0  0  0  1  0  0  0  0  0  0
  186.3870  177.9540  144.4800 C   0  0  0  0  0  2  0  0  0  0  0  0
  1  5  1  1  0  0  0
  2 16  2  0  0  0  0
  3 10  1  0  0  0  0
  3 17  1  0  0  0  0
  4  1  1  0  0  0  0
  4 12  1  0  0  0  0
  5 11  1  0  0  0  0
  7 27  1  0  0  0  0
  8 11  1  0  0  0  0
  8  6  2  0  0  0  0
  9 22  1  0  0  0  0
  9  7  1  0  0  0  0
 10 22  1  0  0  0  0
 11 28  2  0  0  0  0
 12  8  1  0  0  0  0
 13  2  1  0  0  0  0
 14 23  1  0  0  0  0
 14  9  1  0  0  0  0
 15  7  1  0  0  0  0
 17 26  1  0  0  0  0
 17 20  1  0  0  0  0
 18 13  2  0  0  0  0
 19  2  1  0  0  0  0
 19  1  1  0  0  0  0
 20  4  1  0  0  0  0
 21 10  1  0  0  0  0
 22 20  1  0  0  0  0
 23 15  1  0  0  0  0
 25 18  1  0  0  0  0
 25 26  2  0  0  0  0
 26 19  1  0  0  0  0
 27 24  2  0  0  0  0
 27 12  1  0  0  0  0
 28 30  1  0  0  0  0
 30 29  1  0  0  0  0
M  END
>  <MODEL>
8

>  <REMARK>
 VINA RESULT:      -7.2      2.499      6.738
  Name = 
  1 active torsions:
  status: ('A' for Active; 'I' for Inactive)
    1  A    between atoms: C_28  and  C_30
                            x       y       z     vdW  Elec       q    Type
                         _______ _______ _______ _____ _____    ______ ____

>  <TORSDO>
F 1

$$$$
=
 OpenBabel11122410223D

 30 35  0  0  1  0  0  0  0  0999 V2000
  189.6590  177.0410  143.9140 C   0  0  1  0  0  3  0  0  0  0  0  0
  191.6740  176.0770  145.1240 C   0  0  0  0  0  0  0  0  0  0  0  0
  187.8340  178.2670  147.6460 C   0  0  0  0  0  2  0  0  0  0  0  0
  188.4130  177.9650  143.9980 C   0  0  1  0  0  3  0  0  0  0  0  0
  190.3740  177.3050  142.6700 N   0  0  0  0  0  2  0  0  0  0  0  0
  187.5280  177.7390  140.4190 O   0  0  0  0  0  0  0  0  0  0  0  0
  185.0970  177.8780  143.6750 C   0  0  1  0  0  3  0  0  0  0  0  0
  188.1930  177.6560  141.4890 C   0  0  0  0  0  0  0  0  0  0  0  0
  185.3400  177.8810  145.1940 C   0  0  2  0  0  3  0  0  0  0  0  0
  186.5400  178.8190  147.0630 C   0  0  1  0  0  3  0  0  0  0  0  0
  189.6620  177.5140  141.4450 C   0  0  0  0  0  0  0  0  0  0  0  0
  187.4810  177.6130  142.8240 C   0  0  2  0  0  3  0  0  0  0  0  0
  191.8660  175.2380  146.2700 N   0  0  0  0  0  0  0  0  0  0  0  0
  184.0750  178.5170  145.7220 C   0  0  0  0  0  2  0  0  0  0  0  0
  183.8790  178.5160  143.3780 O   0  0  0  0  0  0  0  0  0  0  0  0
  192.4300  175.9370  144.1280 O   0  0  0  0  0  0  0  0  0  0  0  0
  188.7030  178.1630  146.4310 C   0  0  2  0  0  3  0  0  0  0  0  0
  191.1450  175.3530  147.3430 C   0  0  0  0  0  3  0  0  0  0  0  0
  190.6170  177.1570  145.1240 C   0  0  2  0  0  3  0  0  0  0  0  0
  187.7250  177.7810  145.3630 C   0  0  1  0  0  3  0  0  0  0  0  0
  186.4300  180.2990  147.3790 C   0  0  0  0  0  1  0  0  0  0  0  0
  186.5500  178.6280  145.5970 N   0  0  1  0  0  0  0  0  0  0  0  0
  183.1250  178.4470  144.5570 C   0  0  0  0  0  2  0  0  0  0  0  0
  186.2680  179.7420  142.5630 C   0  0  0  0  0  2  0  0  0  0  0  0
  190.0740  176.3550  147.4340 C   0  0  0  0  0  3  0  0  0  0  0  0
  189.8320  177.1890  146.4190 C   0  0  0  0  0  0  0  0  0  0  0  0
  186.2250  178.4360  142.8530 C   0  0  0  0  0  0  0  0  0  0  0  0
  190.3190  177.6100  140.2880 C   0  0  0  0  0  3  0  0  0  0  0  0
  192.1720  176.7530  138.9270 C   0  0  0  0  0  1  0  0  0  0  0  0
  191.8020  177.4890  140.1980 C   0  0  0  0  0  2  0  0  0  0  0  0
  1  5  1  6  0  0  0
  1  4  1  0  0  0  0
  1 19  1  0  0  0  0
  2 13  1  0  0  0  0
  4 20  1  0  0  0  0
  6  8  2  0  0  0  0
  7  9  1  0  0  0  0
  8 12  1  0  0  0  0
  9 22  1  0  0  0  0
  9 14  1  0  0  0  0
 10 21  1  0  0  0  0
 10  3  1  0  0  0  0
 11  8  1  0  0  0  0
 11  5  1  0  0  0  0
 12 27  1  0  0  0  0
 12  4  1  0  0  0  0
 13 18  2  0  0  0  0
 15  7  1  0  0  0  0
 15 23  1  0  0  0  0
 16  2  2  0  0  0  0
 17  3  1  0  0  0  0
 18 25  1  0  0  0  0
 19  2  1  0  0  0  0
 19 26  1  0  0  0  0
 20 22  1  0  0  0  0
 20 17  1  0  0  0  0
 22 10  1  0  0  0  0
 23 14  1  0  0  0  0
 24 27  2  0  0  0  0
 26 17  1  0  0  0  0
 26 25  2  0  0  0  0
 27  7  1  0  0  0  0
 28 11  2  0  0  0  0
 29 30  1  0  0  0  0
 30 28  1  0  0  0  0
M  END
>  <MODEL>
9

>  <REMARK>
 VINA RESULT:      -6.8      2.721      5.933
  Name = 
  1 active torsions:
  status: ('A' for Active; 'I' for Inactive)
    1  A    between atoms: C_28  and  C_30
                            x       y       z     vdW  Elec       q    Type
                         _______ _______ _______ _____ _____    ______ ____

>  <TORSDO>
F 1

$$$$
