=
 OpenBabel11122411593D

 28 32  0  0  1  0  0  0  0  0999 V2000
  188.1330  176.8680  142.2400 N   0  0  2  0  0  0  0  0  0  0  0  0
  186.5350  178.3540  138.1540 O   0  0  0  0  0  0  0  0  0  0  0  0
  194.1140  177.2520  140.1310 O   0  0  0  0  0  0  0  0  0  0  0  0
  186.3930  179.2140  142.2170 C   0  0  0  0  0  2  0  0  0  0  0  0
  192.3040  176.2550  138.9890 N   0  0  0  0  0  0  0  0  0  0  0  0
  189.2910  176.1940  142.8630 C   0  0  0  0  0  2  0  0  0  0  0  0
  188.6800  179.5330  137.8900 O   0  0  0  0  0  0  0  0  0  0  0  0
  187.9970  178.1940  137.8480 S   0  0  0  0  0  0  0  0  0  0  0  0
  189.1940  176.5210  135.9950 C   0  0  0  0  0  0  0  0  0  0  0  0
  188.7330  177.0670  139.0140 C   0  0  1  0  0  3  0  0  0  0  0  0
  191.1180  179.1550  143.5500 O   0  0  0  0  0  0  0  0  0  0  0  0
  190.5870  176.9370  140.5050 C   0  0  1  0  0  3  0  0  0  0  0  0
  190.0140  176.0460  136.9370 C   0  0  0  0  0  2  0  0  0  0  0  0
  188.1820  177.4950  136.2790 N   0  0  0  0  0  0  0  0  0  0  0  0
  191.1130  177.9290  143.2660 C   0  0  0  0  0  0  0  0  0  0  0  0
  188.5240  178.0810  141.4690 C   0  0  2  0  0  3  0  0  0  0  0  0
  192.8760  177.0440  140.0290 C   0  0  0  0  0  0  0  0  0  0  0  0
  189.3750  176.0620  134.5940 C   0  0  0  0  0  1  0  0  0  0  0  0
  192.0630  177.4150  142.3260 N   0  0  0  0  0  2  0  0  0  0  0  0
  187.3120  178.9220  141.0470 C   0  0  0  0  0  2  0  0  0  0  0  0
  187.2130  177.1910  143.3390 C   0  0  0  0  0  2  0  0  0  0  0  0
  185.9680  177.9020  142.8390 C   0  0  0  0  0  2  0  0  0  0  0  0
  190.0790  177.0360  143.8900 C   0  0  0  0  0  2  0  0  0  0  0  0
  190.9060  176.3000  139.2360 C   0  0  1  0  0  3  0  0  0  0  0  0
  191.8420  177.6830  140.9130 C   0  0  2  0  0  3  0  0  0  0  0  0
  189.9110  176.3920  138.3670 C   0  0  1  0  0  3  0  0  0  0  0  0
  192.9680  175.8980  137.7450 C   0  0  0  0  0  1  0  0  0  0  0  0
  189.3850  177.7970  140.2070 C   0  0  2  0  0  3  0  0  0  0  0  0
  1  6  1  1  0  0  0
  1 21  1  0  0  0  0
  4 22  1  0  0  0  0
  5 24  1  0  0  0  0
  5 17  1  0  0  0  0
  6 23  1  0  0  0  0
  8  7  2  0  0  0  0
  8  2  2  0  0  0  0
  9 14  2  0  0  0  0
  9 13  1  0  0  0  0
 10  8  1  6  0  0  0
 10 28  1  0  0  0  0
 12 25  1  0  0  0  0
 13 26  1  0  0  0  0
 14  8  1  0  0  0  0
 15 11  2  0  0  0  0
 15 23  1  0  0  0  0
 16  1  1  0  0  0  0
 17  3  2  0  0  0  0
 17 25  1  0  0  0  0
 18  9  1  0  0  0  0
 19 15  1  0  0  0  0
 20 16  1  0  0  0  0
 20  4  1  0  0  0  0
 22 21  1  0  0  0  0
 24 12  1  0  0  0  0
 25 19  1  0  0  0  0
 26 10  1  0  0  0  0
 26 24  1  0  0  0  0
 27  5  1  0  0  0  0
 28 12  1  0  0  0  0
 28 16  1  0  0  0  0
M  END
>  <MODEL>
1

>  <REMARK>
 VINA RESULT:      -8.7      0.000      0.000
  Name = 
  0 active torsions:
  status: ('A' for Active; 'I' for Inactive)
                            x       y       z     vdW  Elec       q    Type
                         _______ _______ _______ _____ _____    ______ ____

>  <TORSDO>
F 0

$$$$
=
 OpenBabel11122411593D

 28 32  0  0  1  0  0  0  0  0999 V2000
  190.3680  176.0770  139.3420 N   0  0  2  0  0  0  0  0  0  0  0  0
  192.4590  177.0620  143.3560 O   0  0  0  0  0  0  0  0  0  0  0  0
  185.3560  179.6170  140.9920 O   0  0  0  0  0  0  0  0  0  0  0  0
  193.0450  177.2410  139.2450 C   0  0  0  0  0  2  0  0  0  0  0  0
  186.4190  178.0030  142.3490 N   0  0  0  0  0  0  0  0  0  0  0  0
  189.0330  175.9930  138.7130 C   0  0  0  0  0  2  0  0  0  0  0  0
  191.1850  179.1680  143.3540 O   0  0  0  0  0  0  0  0  0  0  0  0
  191.1090  177.6840  143.5770 S   0  0  0  0  0  0  0  0  0  0  0  0
  189.2220  177.0590  145.5040 C   0  0  0  0  0  0  0  0  0  0  0  0
  189.9200  176.9360  142.4830 C   0  0  1  0  0  3  0  0  0  0  0  0
  188.9300  179.3620  137.6090 O   0  0  0  0  0  0  0  0  0  0  0  0
  188.2600  177.5590  140.8910 C   0  0  1  0  0  3  0  0  0  0  0  0
  188.2830  176.9410  144.5610 C   0  0  0  0  0  3  0  0  0  0  0  0
  190.5870  177.3630  145.1920 N   0  0  0  0  0  2  0  0  0  0  0  0
  188.3210  178.3380  138.0150 C   0  0  0  0  0  0  0  0  0  0  0  0
  190.6260  177.4080  139.9580 C   0  0  2  0  0  3  0  0  0  0  0  0
  186.3250  178.8380  141.1980 C   0  0  0  0  0  0  0  0  0  0  0  0
  188.8240  176.9230  146.9280 C   0  0  0  0  0  1  0  0  0  0  0  0
  187.2340  178.4780  138.9360 N   0  0  0  0  0  2  0  0  0  0  0  0
  192.0920  177.5850  140.3750 C   0  0  0  0  0  2  0  0  0  0  0  0
  191.3360  175.7680  138.2800 C   0  0  0  0  0  2  0  0  0  0  0  0
  192.7650  175.8260  138.7890 C   0  0  0  0  0  2  0  0  0  0  0  0
  188.7780  176.9830  137.5560 C   0  0  0  0  0  2  0  0  0  0  0  0
  187.6550  177.3220  142.1940 C   0  0  1  0  0  3  0  0  0  0  0  0
  187.5470  178.7720  140.3260 C   0  0  2  0  0  3  0  0  0  0  0  0
  188.5560  177.0140  143.1140 C   0  0  1  0  0  3  0  0  0  0  0  0
  185.6550  178.1740  143.5750 C   0  0  0  0  0  1  0  0  0  0  0  0
  189.7280  177.7420  141.1810 C   0  0  2  0  0  3  0  0  0  0  0  0
  1 21  1  6  0  0  0
  1 16  1  0  0  0  0
  2  8  2  0  0  0  0
  3 17  2  0  0  0  0
  4 20  1  0  0  0  0
  5 27  1  0  0  0  0
  6  1  1  0  0  0  0
  7  8  2  0  0  0  0
  8 14  1  0  0  0  0
  9 18  1  0  0  0  0
 10 26  1  0  0  0  0
 10  8  1  1  0  0  0
 11 15  2  0  0  0  0
 12 28  1  0  0  0  0
 12 24  1  0  0  0  0
 13  9  2  0  0  0  0
 14  9  1  0  0  0  0
 15 19  1  0  0  0  0
 16 20  1  0  0  0  0
 16 28  1  0  0  0  0
 17  5  1  0  0  0  0
 19 25  1  0  0  0  0
 21 22  1  0  0  0  0
 22  4  1  0  0  0  0
 23 15  1  0  0  0  0
 23  6  1  0  0  0  0
 24  5  1  0  0  0  0
 24 26  1  0  0  0  0
 25 12  1  0  0  0  0
 25 17  1  0  0  0  0
 26 13  1  0  0  0  0
 28 10  1  0  0  0  0
M  END
>  <MODEL>
2

>  <REMARK>
 VINA RESULT:      -8.4      2.110      6.754
  Name = 
  0 active torsions:
  status: ('A' for Active; 'I' for Inactive)
                            x       y       z     vdW  Elec       q    Type
                         _______ _______ _______ _____ _____    ______ ____

>  <TORSDO>
F 0

$$$$
=
 OpenBabel11122411593D

 28 32  0  0  1  0  0  0  0  0999 V2000
  188.1210  176.8270  145.5260 N   0  0  2  0  0  0  0  0  0  0  0  0
  184.0400  178.9660  146.0010 O   0  0  0  0  0  0  0  0  0  0  0  0
  188.7880  179.2240  139.6800 O   0  0  0  0  0  0  0  0  0  0  0  0
  187.7550  178.5910  147.8260 C   0  0  0  0  0  2  0  0  0  0  0  0
  186.8510  178.1800  140.5360 N   0  0  0  0  0  0  0  0  0  0  0  0
  189.0520  176.3070  144.5030 C   0  0  0  0  0  2  0  0  0  0  0  0
  184.8870  180.6540  144.4230 O   0  0  0  0  0  0  0  0  0  0  0  0
  184.3500  179.2570  144.5600 S   0  0  0  0  0  0  0  0  0  0  0  0
  182.9200  178.5130  142.3090 C   0  0  0  0  0  0  0  0  0  0  0  0
  185.5170  178.0620  143.9450 C   0  0  1  0  0  3  0  0  0  0  0  0
  190.9060  179.3070  144.1280 O   0  0  0  0  0  0  0  0  0  0  0  0
  187.6020  177.9720  142.7950 C   0  0  1  0  0  3  0  0  0  0  0  0
  184.0280  178.0060  141.7600 C   0  0  0  0  0  3  0  0  0  0  0  0
  182.9100  179.0930  143.6190 N   0  0  0  0  0  2  0  0  0  0  0  0
  190.4520  178.2470  143.6250 C   0  0  0  0  0  0  0  0  0  0  0  0
  187.7910  178.2640  145.3200 C   0  0  2  0  0  3  0  0  0  0  0  0
  188.1470  178.7590  140.6600 C   0  0  0  0  0  0  0  0  0  0  0  0
  181.6680  178.5230  141.5100 C   0  0  0  0  0  1  0  0  0  0  0  0
  189.9230  178.2630  142.2950 N   0  0  0  0  0  2  0  0  0  0  0  0
  187.0430  178.8710  146.5150 C   0  0  0  0  0  2  0  0  0  0  0  0
  188.7740  176.5960  146.8220 C   0  0  0  0  0  2  0  0  0  0  0  0
  187.9230  177.0950  147.9770 C   0  0  0  0  0  2  0  0  0  0  0  0
  190.4350  176.9920  144.4510 C   0  0  0  0  0  2  0  0  0  0  0  0
  186.4970  177.8140  141.8620 C   0  0  1  0  0  3  0  0  0  0  0  0
  188.6110  178.8550  142.0860 C   0  0  2  0  0  3  0  0  0  0  0  0
  185.3200  177.9010  142.4620 C   0  0  1  0  0  3  0  0  0  0  0  0
  185.9570  178.3580  139.4030 C   0  0  0  0  0  1  0  0  0  0  0  0
  186.9740  178.5630  144.0320 C   0  0  2  0  0  3  0  0  0  0  0  0
  1  6  1  6  0  0  0
  1 21  1  0  0  0  0
  3 17  2  0  0  0  0
  4 22  1  0  0  0  0
  5 17  1  0  0  0  0
  5 24  1  0  0  0  0
  7  8  2  0  0  0  0
  8  2  2  0  0  0  0
  9 14  1  0  0  0  0
 10 28  1  0  0  0  0
 10  8  1  6  0  0  0
 12 28  1  0  0  0  0
 13  9  2  0  0  0  0
 13 26  1  0  0  0  0
 14  8  1  0  0  0  0
 15 11  2  0  0  0  0
 15 23  1  0  0  0  0
 16  1  1  0  0  0  0
 16 20  1  0  0  0  0
 17 25  1  0  0  0  0
 18  9  1  0  0  0  0
 19 15  1  0  0  0  0
 20  4  1  0  0  0  0
 21 22  1  0  0  0  0
 23  6  1  0  0  0  0
 24 26  1  0  0  0  0
 24 12  1  0  0  0  0
 25 19  1  0  0  0  0
 25 12  1  0  0  0  0
 26 10  1  0  0  0  0
 27  5  1  0  0  0  0
 28 16  1  0  0  0  0
M  END
>  <MODEL>
3

>  <REMARK>
 VINA RESULT:      -6.4      3.637      5.918
  Name = 
  0 active torsions:
  status: ('A' for Active; 'I' for Inactive)
                            x       y       z     vdW  Elec       q    Type
                         _______ _______ _______ _____ _____    ______ ____

>  <TORSDO>
F 0

$$$$
=
 OpenBabel11122411593D

 28 32  0  0  1  0  0  0  0  0999 V2000
  185.9070  179.5410  144.9950 N   0  0  2  0  0  0  0  0  0  0  0  0
  189.4700  176.6270  144.4740 O   0  0  0  0  0  0  0  0  0  0  0  0
  183.6900  177.9840  139.2470 O   0  0  0  0  0  0  0  0  0  0  0  0
  186.3160  177.4930  147.0370 C   0  0  0  0  0  2  0  0  0  0  0  0
  185.9260  178.5390  139.7650 N   0  0  0  0  0  0  0  0  0  0  0  0
  184.9320  180.3390  144.2220 C   0  0  0  0  0  2  0  0  0  0  0  0
  188.0140  175.3170  142.9820 O   0  0  0  0  0  0  0  0  0  0  0  0
  188.8460  176.5630  143.1080 S   0  0  0  0  0  0  0  0  0  0  0  0
  189.9590  177.2700  140.6740 C   0  0  0  0  0  0  0  0  0  0  0  0
  187.8600  178.0190  142.8320 C   0  0  1  0  0  3  0  0  0  0  0  0
  182.4580  177.8060  144.0150 O   0  0  0  0  0  0  0  0  0  0  0  0
  185.6640  178.6310  142.1390 C   0  0  1  0  0  3  0  0  0  0  0  0
  188.8990  178.0360  140.4000 C   0  0  0  0  0  3  0  0  0  0  0  0
  190.0900  176.5550  141.9090 N   0  0  0  0  0  2  0  0  0  0  0  0
  183.0220  178.8110  143.5090 C   0  0  0  0  0  0  0  0  0  0  0  0
  185.8880  178.0990  144.6210 C   0  0  2  0  0  3  0  0  0  0  0  0
  184.5830  178.2060  140.1080 C   0  0  0  0  0  0  0  0  0  0  0  0
  191.0130  177.1120  139.6390 C   0  0  0  0  0  1  0  0  0  0  0  0
  183.2810  178.8440  142.1010 N   0  0  0  0  0  2  0  0  0  0  0  0
  186.6990  177.2320  145.5930 C   0  0  0  0  0  2  0  0  0  0  0  0
  185.5670  179.7440  146.4090 C   0  0  0  0  0  2  0  0  0  0  0  0
  186.4930  178.9660  147.3270 C   0  0  0  0  0  2  0  0  0  0  0  0
  183.4510  179.9390  144.4020 C   0  0  0  0  0  2  0  0  0  0  0  0
  186.5860  178.6800  141.0150 C   0  0  1  0  0  3  0  0  0  0  0  0
  184.3810  178.0410  141.5870 C   0  0  2  0  0  3  0  0  0  0  0  0
  187.8100  178.3040  141.3550 C   0  0  1  0  0  3  0  0  0  0  0  0
  186.5390  178.3220  138.4640 C   0  0  0  0  0  1  0  0  0  0  0  0
  186.3720  177.7970  143.1760 C   0  0  2  0  0  3  0  0  0  0  0  0
  1  6  1  6  0  0  0
  1 21  1  0  0  0  0
  3 17  2  0  0  0  0
  4 22  1  0  0  0  0
  5 17  1  0  0  0  0
  5 24  1  0  0  0  0
  6 23  1  0  0  0  0
  7  8  2  0  0  0  0
  8  2  2  0  0  0  0
  9 14  1  0  0  0  0
 10  8  1  6  0  0  0
 10 28  1  0  0  0  0
 12 28  1  0  0  0  0
 13  9  2  0  0  0  0
 13 26  1  0  0  0  0
 14  8  1  0  0  0  0
 15 11  2  0  0  0  0
 15 23  1  0  0  0  0
 16  1  1  0  0  0  0
 16 20  1  0  0  0  0
 17 25  1  0  0  0  0
 18  9  1  0  0  0  0
 19 15  1  0  0  0  0
 20  4  1  0  0  0  0
 21 22  1  0  0  0  0
 24 26  1  0  0  0  0
 24 12  1  0  0  0  0
 25 19  1  0  0  0  0
 25 12  1  0  0  0  0
 26 10  1  0  0  0  0
 27  5  1  0  0  0  0
 28 16  1  0  0  0  0
M  END
>  <MODEL>
4

>  <REMARK>
 VINA RESULT:      -6.1      3.304      6.300
  Name = 
  0 active torsions:
  status: ('A' for Active; 'I' for Inactive)
                            x       y       z     vdW  Elec       q    Type
                         _______ _______ _______ _____ _____    ______ ____

>  <TORSDO>
F 0

$$$$
=
 OpenBabel11122411593D

 28 32  0  0  1  0  0  0  0  0999 V2000
  188.6170  175.8890  135.3460 N   0  0  2  0  0  0  0  0  0  0  0  0
  186.0510  172.0970  136.0520 O   0  0  0  0  0  0  0  0  0  0  0  0
  184.8470  179.2550  139.1970 O   0  0  0  0  0  0  0  0  0  0  0  0
  189.9610  173.4810  136.3100 C   0  0  0  0  0  2  0  0  0  0  0  0
  184.1300  177.8140  137.4690 N   0  0  0  0  0  0  0  0  0  0  0  0
  188.5480  177.3650  135.3800 C   0  0  0  0  0  2  0  0  0  0  0  0
  185.4740  173.0530  138.2460 O   0  0  0  0  0  0  0  0  0  0  0  0
  185.2310  173.1350  136.7650 S   0  0  0  0  0  0  0  0  0  0  0  0
  182.6400  173.9490  136.2250 C   0  0  0  0  0  0  0  0  0  0  0  0
  185.6360  174.7520  136.1410 C   0  0  1  0  0  3  0  0  0  0  0  0
  189.5050  177.7010  138.7790 O   0  0  0  0  0  0  0  0  0  0  0  0
  186.2750  176.9060  136.9330 C   0  0  1  0  0  3  0  0  0  0  0  0
  183.0350  175.2260  136.2050 C   0  0  0  0  0  3  0  0  0  0  0  0
  183.5550  172.8680  136.4360 N   0  0  0  0  0  2  0  0  0  0  0  0
  188.8540  178.1300  137.7920 C   0  0  0  0  0  0  0  0  0  0  0  0
  188.2030  175.2680  136.6340 C   0  0  2  0  0  3  0  0  0  0  0  0
  185.1100  178.3660  138.3430 C   0  0  0  0  0  0  0  0  0  0  0  0
  181.1940  173.6470  136.0760 C   0  0  0  0  0  1  0  0  0  0  0  0
  187.5330  178.6480  137.9840 N   0  0  0  0  0  2  0  0  0  0  0  0
  188.5200  173.7670  136.6900 C   0  0  0  0  0  2  0  0  0  0  0  0
  190.0040  175.5550  134.9980 C   0  0  0  0  0  2  0  0  0  0  0  0
  190.2220  174.0530  134.9340 C   0  0  0  0  0  2  0  0  0  0  0  0
  189.4620  178.0500  136.4200 C   0  0  0  0  0  2  0  0  0  0  0  0
  184.8390  176.8520  136.7020 C   0  0  1  0  0  3  0  0  0  0  0  0
  186.4510  177.7010  138.2120 C   0  0  2  0  0  3  0  0  0  0  0  0
  184.4420  175.6530  136.3010 C   0  0  1  0  0  3  0  0  0  0  0  0
  182.6900  177.9030  137.6590 C   0  0  0  0  0  1  0  0  0  0  0  0
  186.7050  175.4630  136.9970 C   0  0  2  0  0  3  0  0  0  0  0  0
  1 21  1  1  0  0  0
  1  6  1  0  0  0  0
  1 16  1  0  0  0  0
  2  8  2  0  0  0  0
  4 20  1  0  0  0  0
  5 27  1  0  0  0  0
  5 17  1  0  0  0  0
  6 23  1  0  0  0  0
  8  7  2  0  0  0  0
  9 14  1  0  0  0  0
 10 26  1  0  0  0  0
 10  8  1  1  0  0  0
 10 28  1  0  0  0  0
 12 28  1  0  0  0  0
 12 25  1  0  0  0  0
 13  9  2  0  0  0  0
 13 26  1  0  0  0  0
 14  8  1  0  0  0  0
 15 19  1  0  0  0  0
 15 11  2  0  0  0  0
 16 20  1  0  0  0  0
 16 28  1  0  0  0  0
 17  3  2  0  0  0  0
 18  9  1  0  0  0  0
 19 25  1  0  0  0  0
 22 21  1  0  0  0  0
 22  4  1  0  0  0  0
 23 15  1  0  0  0  0
 24 12  1  0  0  0  0
 24  5  1  0  0  0  0
 25 17  1  0  0  0  0
 26 24  1  0  0  0  0
M  END
>  <MODEL>
5

>  <REMARK>
 VINA RESULT:      -5.9      4.254      7.267
  Name = 
  0 active torsions:
  status: ('A' for Active; 'I' for Inactive)
                            x       y       z     vdW  Elec       q    Type
                         _______ _______ _______ _____ _____    ______ ____

>  <TORSDO>
F 0

$$$$
=
 OpenBabel11122411593D

 28 32  0  0  1  0  0  0  0  0999 V2000
  188.0420  177.3890  136.1640 N   0  0  2  0  0  0  0  0  0  0  0  0
  184.6850  174.3010  135.3550 O   0  0  0  0  0  0  0  0  0  0  0  0
  185.0510  179.3900  141.4000 O   0  0  0  0  0  0  0  0  0  0  0  0
  188.8000  174.5830  135.8630 C   0  0  0  0  0  2  0  0  0  0  0  0
  184.0610  179.0510  139.2830 N   0  0  0  0  0  0  0  0  0  0  0  0
  188.3040  178.6740  136.8450 C   0  0  0  0  0  2  0  0  0  0  0  0
  184.2980  174.2780  137.7860 O   0  0  0  0  0  0  0  0  0  0  0  0
  184.1040  175.0580  136.5160 S   0  0  0  0  0  0  0  0  0  0  0  0
  181.7700  176.5440  136.6050 C   0  0  0  0  0  0  0  0  0  0  0  0
  184.8710  176.6610  136.6290 C   0  0  1  0  0  3  0  0  0  0  0  0
  189.2520  177.2570  139.9560 O   0  0  0  0  0  0  0  0  0  0  0  0
  185.9590  178.0540  138.2260 C   0  0  1  0  0  3  0  0  0  0  0  0
  182.4390  177.5840  137.1120 C   0  0  0  0  0  2  0  0  0  0  0  0
  182.4170  175.3180  136.2450 N   0  0  0  0  0  0  0  0  0  0  0  0
  188.7300  178.2050  139.3140 C   0  0  0  0  0  0  0  0  0  0  0  0
  187.4790  176.3600  137.0810 C   0  0  2  0  0  3  0  0  0  0  0  0
  185.1240  178.9410  140.2250 C   0  0  0  0  0  0  0  0  0  0  0  0
  180.2950  176.6470  136.4610 C   0  0  0  0  0  1  0  0  0  0  0  0
  187.5540  178.8450  139.8240 N   0  0  0  0  0  2  0  0  0  0  0  0
  187.4530  174.9620  136.4490 C   0  0  0  0  0  2  0  0  0  0  0  0
  189.3270  176.9650  135.5900 C   0  0  0  0  0  2  0  0  0  0  0  0
  189.2060  175.6400  134.8590 C   0  0  0  0  0  2  0  0  0  0  0  0
  189.3280  178.6190  138.0000 C   0  0  0  0  0  2  0  0  0  0  0  0
  184.5510  178.4060  138.1170 C   0  0  1  0  0  3  0  0  0  0  0  0
  186.2860  178.1420  139.7040 C   0  0  2  0  0  3  0  0  0  0  0  0
  183.9040  177.6220  137.2670 C   0  0  1  0  0  3  0  0  0  0  0  0
  182.6740  179.3420  139.6130 C   0  0  0  0  0  1  0  0  0  0  0  0
  186.0550  176.6790  137.6180 C   0  0  2  0  0  3  0  0  0  0  0  0
  1 21  1  1  0  0  0
  1  6  1  0  0  0  0
  1 16  1  0  0  0  0
  2  8  2  0  0  0  0
  4 20  1  0  0  0  0
  5 27  1  0  0  0  0
  5 17  1  0  0  0  0
  6 23  1  0  0  0  0
  8  7  2  0  0  0  0
  9 13  1  0  0  0  0
 10  8  1  1  0  0  0
 10 26  1  0  0  0  0
 10 28  1  0  0  0  0
 12 25  1  0  0  0  0
 13 26  1  0  0  0  0
 14  8  1  0  0  0  0
 14  9  2  0  0  0  0
 15 19  1  0  0  0  0
 15 11  2  0  0  0  0
 16 28  1  0  0  0  0
 17  3  2  0  0  0  0
 18  9  1  0  0  0  0
 20 16  1  0  0  0  0
 22 21  1  0  0  0  0
 22  4  1  0  0  0  0
 23 15  1  0  0  0  0
 24 12  1  0  0  0  0
 24  5  1  0  0  0  0
 25 19  1  0  0  0  0
 25 17  1  0  0  0  0
 26 24  1  0  0  0  0
 28 12  1  0  0  0  0
M  END
>  <MODEL>
6

>  <REMARK>
 VINA RESULT:      -5.8      4.151      6.905
  Name = 
  0 active torsions:
  status: ('A' for Active; 'I' for Inactive)
                            x       y       z     vdW  Elec       q    Type
                         _______ _______ _______ _____ _____    ______ ____

>  <TORSDO>
F 0

$$$$
=
 OpenBabel11122411593D

 28 32  0  0  1  0  0  0  0  0999 V2000
  184.4500  175.3580  137.4200 N   0  0  2  0  0  0  0  0  0  0  0  0
  186.7880  178.6280  139.7210 O   0  0  0  0  0  0  0  0  0  0  0  0
  178.9310  178.0920  138.9800 O   0  0  0  0  0  0  0  0  0  0  0  0
  186.4970  176.8570  135.9730 C   0  0  0  0  0  2  0  0  0  0  0  0
  180.7170  177.6360  140.4560 N   0  0  0  0  0  0  0  0  0  0  0  0
  183.1320  174.6910  137.3600 C   0  0  0  0  0  2  0  0  0  0  0  0
  184.8920  180.1280  139.2570 O   0  0  0  0  0  0  0  0  0  0  0  0
  185.3730  178.9730  140.0910 S   0  0  0  0  0  0  0  0  0  0  0  0
  184.2120  179.0070  142.6040 C   0  0  0  0  0  0  0  0  0  0  0  0
  184.3310  177.5480  139.8680 C   0  0  1  0  0  3  0  0  0  0  0  0
  181.6760  176.9540  135.0500 O   0  0  0  0  0  0  0  0  0  0  0  0
  182.2910  176.9280  138.8040 C   0  0  1  0  0  3  0  0  0  0  0  0
  183.2110  178.2380  142.1630 C   0  0  0  0  0  2  0  0  0  0  0  0
  185.3050  179.3970  141.7650 N   0  0  0  0  0  0  0  0  0  0  0  0
  181.5420  176.1650  136.0210 C   0  0  0  0  0  0  0  0  0  0  0  0
  184.3470  176.8390  137.3000 C   0  0  2  0  0  3  0  0  0  0  0  0
  180.1290  177.7460  139.1630 C   0  0  0  0  0  0  0  0  0  0  0  0
  184.1580  179.5160  143.9980 C   0  0  0  0  0  1  0  0  0  0  0  0
  180.6650  176.5100  137.0990 N   0  0  0  0  0  2  0  0  0  0  0  0
  185.7130  177.5060  137.0980 C   0  0  0  0  0  2  0  0  0  0  0  0
  185.2480  174.7750  136.3320 C   0  0  0  0  0  2  0  0  0  0  0  0
  186.6390  175.3810  136.2700 C   0  0  0  0  0  2  0  0  0  0  0  0
  182.3410  174.8940  136.0490 C   0  0  0  0  0  2  0  0  0  0  0  0
  182.0590  177.2480  140.2040 C   0  0  1  0  0  3  0  0  0  0  0  0
  181.1130  177.5150  138.0510 C   0  0  2  0  0  3  0  0  0  0  0  0
  183.1660  177.6380  140.8170 C   0  0  1  0  0  3  0  0  0  0  0  0
  180.1840  178.2280  141.6740 C   0  0  0  0  0  1  0  0  0  0  0  0
  183.6340  177.5370  138.4910 C   0  0  2  0  0  3  0  0  0  0  0  0
  1 21  1  6  0  0  0
  2  8  2  0  0  0  0
  3 17  2  0  0  0  0
  4 22  1  0  0  0  0
  4 20  1  0  0  0  0
  5 27  1  0  0  0  0
  6  1  1  0  0  0  0
  7  8  2  0  0  0  0
  8 14  1  0  0  0  0
  9 18  1  0  0  0  0
 10  8  1  6  0  0  0
 10 26  1  0  0  0  0
 11 15  2  0  0  0  0
 12 24  1  0  0  0  0
 13  9  1  0  0  0  0
 14  9  2  0  0  0  0
 15 23  1  0  0  0  0
 15 19  1  0  0  0  0
 16  1  1  0  0  0  0
 16 28  1  0  0  0  0
 17  5  1  0  0  0  0
 19 25  1  0  0  0  0
 20 16  1  0  0  0  0
 22 21  1  0  0  0  0
 23  6  1  0  0  0  0
 24  5  1  0  0  0  0
 24 26  1  0  0  0  0
 25 12  1  0  0  0  0
 25 17  1  0  0  0  0
 26 13  1  0  0  0  0
 28 12  1  0  0  0  0
 28 10  1  0  0  0  0
M  END
>  <MODEL>
7

>  <REMARK>
 VINA RESULT:      -5.7      5.127      9.209
  Name = 
  0 active torsions:
  status: ('A' for Active; 'I' for Inactive)
                            x       y       z     vdW  Elec       q    Type
                         _______ _______ _______ _____ _____    ______ ____

>  <TORSDO>
F 0

$$$$
