=
 OpenBabel11122412103D

 34 41  0  0  1  0  0  0  0  0999 V2000
  187.3600  178.2540  139.9060 C   0  0  0  0  0  0  0  0  0  0  0  0
  185.2610  178.8270  138.6720 C   0  0  0  0  0  2  0  0  0  0  0  0
  191.0370  179.1910  144.9870 C   0  0  0  0  0  2  0  0  0  0  0  0
  188.9600  176.9340  141.1210 C   0  0  0  0  0  0  0  0  0  0  0  0
  188.4450  175.9210  143.4670 C   0  0  1  0  0  3  0  0  0  0  0  0
  188.7930  178.2600  144.5040 C   0  0  0  0  0  2  0  0  0  0  0  0
  189.9580  178.2370  145.4750 C   0  0  0  0  0  2  0  0  0  0  0  0
  191.2660  178.0860  142.7290 C   0  0  0  0  0  2  0  0  0  0  0  0
  185.2870  179.2690  141.0780 C   0  0  2  0  0  3  0  0  0  0  0  0
  182.5100  178.1760  142.4490 C   0  0  0  0  0  2  0  0  0  0  0  0
  187.1030  176.6640  143.3660 C   0  0  1  0  0  3  0  0  0  0  0  0
  190.9060  176.6100  142.8250 C   0  0  0  0  0  2  0  0  0  0  0  0
  185.5130  178.1720  142.1430 C   0  0  1  0  0  3  0  0  0  0  0  0
  183.9240  179.4280  139.0370 C   0  0  0  0  0  2  0  0  0  0  0  0
  189.4680  176.3280  142.3910 C   0  0  2  0  0  3  0  0  0  0  0  0
  191.9860  178.5170  143.9980 C   0  0  0  0  0  2  0  0  0  0  0  0
  182.9030  178.1740  140.9620 C   0  0  1  0  0  3  0  0  0  0  0  0
  187.7570  177.6490  141.1120 C   0  0  0  0  0  0  0  0  0  0  0  0
  188.0420  176.9310  144.5500 C   0  0  1  0  0  3  0  0  0  0  0  0
  186.9940  177.8680  142.3940 C   0  0  2  0  0  3  0  0  0  0  0  0
  189.2560  177.3420  138.8150 C   0  0  0  0  0  3  0  0  0  0  0  0
  183.3940  179.0520  143.3370 C   0  0  0  0  0  2  0  0  0  0  0  0
  189.6720  176.7780  139.9750 N   0  0  0  0  0  0  0  0  0  0  0  0
  184.8220  178.5230  143.4720 C   0  0  0  0  0  2  0  0  0  0  0  0
  183.8340  179.3400  140.5490 C   0  0  1  0  0  3  0  0  0  0  0  0
  188.1200  178.0820  138.7900 N   0  0  0  0  0  0  0  0  0  0  0  0
  186.1720  179.1700  139.8310 C   0  0  1  0  0  3  0  0  0  0  0  0
  183.4450  176.9330  140.6090 O   0  0  0  0  0  0  0  0  0  0  0  0
  182.4050  176.2410  139.9840 C   0  0  0  0  0  2  0  0  0  0  0  0
  182.8420  176.1180  136.2920 C   0  0  0  0  0  3  0  0  0  0  0  0
  183.5350  175.0120  138.2090 N   0  0  0  0  0  0  0  0  0  0  0  0
  182.7680  175.9790  138.5650 C   0  0  0  0  0  0  0  0  0  0  0  0
  183.6440  175.0230  136.8180 N   0  0  0  0  0  2  0  0  0  0  0  0
  182.2660  176.7410  137.4770 N   0  0  0  0  0  0  0  0  0  0  0  0
  1 18  1  0  0  0  0
  2 14  1  0  0  0  0
  2 27  1  0  0  0  0
  3  7  1  0  0  0  0
  4 15  1  0  0  0  0
  5 19  1  0  0  0  0
  6 19  1  0  0  0  0
  6  7  1  0  0  0  0
  8 12  1  0  0  0  0
  8 16  1  0  0  0  0
  9 13  1  0  0  0  0
 10 22  1  0  0  0  0
 11  5  1  0  0  0  0
 11 19  1  0  0  0  0
 13 20  1  0  0  0  0
 13 24  1  0  0  0  0
 14 25  1  0  0  0  0
 15 12  1  0  0  0  0
 15  5  1  0  0  0  0
 16  3  1  0  0  0  0
 17 10  1  0  0  0  0
 18  4  2  0  0  0  0
 18 20  1  0  0  0  0
 20 11  1  0  0  0  0
 21 23  2  0  0  0  0
 22 24  1  0  0  0  0
 23  4  1  0  0  0  0
 25 17  1  0  0  0  0
 25  9  1  0  0  0  0
 26 21  1  0  0  0  0
 26  1  2  0  0  0  0
 27  1  1  0  0  0  0
 27  9  1  0  0  0  0
 28 17  1  0  0  0  0
 29 28  1  0  0  0  0
 30 33  1  0  0  0  0
 30 34  2  0  0  0  0
 31 32  2  0  0  0  0
 32 29  1  0  0  0  0
 33 31  1  0  0  0  0
 34 32  1  0  0  0  0
M  END
>  <MODEL>
1

>  <REMARK>
 VINA RESULT:      -6.7      0.000      0.000
  Name = 
  3 active torsions:
  status: ('A' for Active; 'I' for Inactive)
    1  A    between atoms: C_17  and  O_28
    2  A    between atoms: O_28  and  C_29
    3  A    between atoms: C_29  and  C_32
                            x       y       z     vdW  Elec       q    Type
                         _______ _______ _______ _____ _____    ______ ____

>  <TORSDO>
F 3

$$$$
=
 OpenBabel11122412103D

 34 41  0  0  1  0  0  0  0  0999 V2000
  185.8380  177.9930  137.5990 C   0  0  0  0  0  0  0  0  0  0  0  0
  188.1440  178.9610  137.5310 C   0  0  0  0  0  2  0  0  0  0  0  0
  181.2550  174.8020  134.5940 C   0  0  0  0  0  2  0  0  0  0  0  0
  184.0180  176.5770  138.2780 C   0  0  0  0  0  0  0  0  0  0  0  0
  184.0560  173.9920  137.9450 C   0  0  1  0  0  3  0  0  0  0  0  0
  183.5400  174.3520  135.4400 C   0  0  0  0  0  2  0  0  0  0  0  0
  182.2070  173.7210  135.0810 C   0  0  0  0  0  2  0  0  0  0  0  0
  181.4570  176.1970  136.6890 C   0  0  0  0  0  2  0  0  0  0  0  0
  187.6550  177.1510  135.9570 C   0  0  2  0  0  3  0  0  0  0  0  0
  190.1010  174.9590  135.9780 C   0  0  0  0  0  2  0  0  0  0  0  0
  185.4000  174.2180  137.2340 C   0  0  1  0  0  3  0  0  0  0  0  0
  181.7740  175.3100  137.8840 C   0  0  0  0  0  2  0  0  0  0  0  0
  187.2140  175.7370  136.3970 C   0  0  1  0  0  3  0  0  0  0  0  0
  189.3910  178.7230  136.7120 C   0  0  0  0  0  2  0  0  0  0  0  0
  183.2660  175.2850  138.2170 C   0  0  2  0  0  3  0  0  0  0  0  0
  180.5090  175.4640  135.7500 C   0  0  0  0  0  2  0  0  0  0  0  0
  190.0040  176.2850  136.7510 C   0  0  1  0  0  3  0  0  0  0  0  0
  185.2080  176.7370  137.5580 C   0  0  0  0  0  0  0  0  0  0  0  0
  184.2520  173.5140  136.4990 C   0  0  1  0  0  3  0  0  0  0  0  0
  185.7090  175.6290  136.6660 C   0  0  2  0  0  3  0  0  0  0  0  0
  184.1800  178.7870  139.0950 C   0  0  0  0  0  3  0  0  0  0  0  0
  189.0710  174.8020  134.8580 C   0  0  0  0  0  2  0  0  0  0  0  0
  183.5410  177.5930  139.0430 N   0  0  0  0  0  0  0  0  0  0  0  0
  187.6380  174.6690  135.3740 C   0  0  0  0  0  2  0  0  0  0  0  0
  189.1840  177.3830  136.0310 C   0  0  1  0  0  3  0  0  0  0  0  0
  185.3080  178.9820  138.3670 N   0  0  0  0  0  0  0  0  0  0  0  0
  187.0280  178.3110  136.7400 C   0  0  1  0  0  3  0  0  0  0  0  0
  189.5270  176.0530  138.0460 O   0  0  0  0  0  0  0  0  0  0  0  0
  190.6280  176.2400  138.8840 C   0  0  0  0  0  2  0  0  0  0  0  0
  188.8640  177.7980  141.7650 C   0  0  0  0  0  3  0  0  0  0  0  0
  190.9640  177.0160  141.1690 N   0  0  0  0  0  0  0  0  0  0  0  0
  190.1740  176.8260  140.1740 C   0  0  0  0  0  0  0  0  0  0  0  0
  190.2390  177.6090  142.2030 N   0  0  0  0  0  0  0  0  0  0  0  0
  188.8450  177.2680  140.4070 N   0  0  0  0  0  2  0  0  0  0  0  0
  1 26  1  0  0  0  0
  3  7  1  0  0  0  0
  3 16  1  0  0  0  0
  4 23  2  0  0  0  0
  5 15  1  0  0  0  0
  6 19  1  0  0  0  0
  7  6  1  0  0  0  0
  8 12  1  0  0  0  0
  9 25  1  0  0  0  0
  9 13  1  0  0  0  0
  9 27  1  0  0  0  0
 10 17  1  0  0  0  0
 11  5  1  0  0  0  0
 12 15  1  0  0  0  0
 13 20  1  0  0  0  0
 14  2  1  0  0  0  0
 15  4  1  0  0  0  0
 16  8  1  0  0  0  0
 17 28  1  0  0  0  0
 18  1  2  0  0  0  0
 18  4  1  0  0  0  0
 19 11  1  0  0  0  0
 19  5  1  0  0  0  0
 20 11  1  0  0  0  0
 20 18  1  0  0  0  0
 22 24  1  0  0  0  0
 22 10  1  0  0  0  0
 23 21  1  0  0  0  0
 24 13  1  0  0  0  0
 25 14  1  0  0  0  0
 25 17  1  0  0  0  0
 26 21  2  0  0  0  0
 27  2  1  0  0  0  0
 27  1  1  0  0  0  0
 28 29  1  0  0  0  0
 29 32  1  0  0  0  0
 30 33  2  0  0  0  0
 31 33  1  0  0  0  0
 32 34  1  0  0  0  0
 32 31  2  0  0  0  0
 34 30  1  0  0  0  0
M  END
>  <MODEL>
2

>  <REMARK>
 VINA RESULT:      -5.8      2.843      8.461
  Name = 
  3 active torsions:
  status: ('A' for Active; 'I' for Inactive)
    1  A    between atoms: C_17  and  O_28
    2  A    between atoms: O_28  and  C_29
    3  A    between atoms: C_29  and  C_32
                            x       y       z     vdW  Elec       q    Type
                         _______ _______ _______ _____ _____    ______ ____

>  <TORSDO>
F 3

$$$$
=
 OpenBabel11122412103D

 34 41  0  0  1  0  0  0  0  0999 V2000
  185.7340  178.4660  139.3490 C   0  0  0  0  0  0  0  0  0  0  0  0
  188.0000  178.1960  138.3220 C   0  0  0  0  0  2  0  0  0  0  0  0
  179.5730  179.7250  138.5270 C   0  0  0  0  0  2  0  0  0  0  0  0
  183.7050  177.8770  140.4950 C   0  0  0  0  0  0  0  0  0  0  0  0
  182.0070  176.1490  139.5340 C   0  0  1  0  0  3  0  0  0  0  0  0
  181.1760  177.9510  137.8810 C   0  0  0  0  0  2  0  0  0  0  0  0
  179.7130  178.2630  138.1340 C   0  0  0  0  0  2  0  0  0  0  0  0
  181.1730  179.5570  140.4730 C   0  0  0  0  0  2  0  0  0  0  0  0
  186.0710  177.9150  136.8420 C   0  0  2  0  0  3  0  0  0  0  0  0
  186.4640  175.2300  134.9910 C   0  0  0  0  0  2  0  0  0  0  0  0
  182.9300  176.0960  138.3060 C   0  0  1  0  0  3  0  0  0  0  0  0
  181.1690  178.1440  141.0380 C   0  0  0  0  0  2  0  0  0  0  0  0
  184.9770  176.8460  137.0630 C   0  0  1  0  0  3  0  0  0  0  0  0
  188.5300  177.9040  136.9380 C   0  0  0  0  0  2  0  0  0  0  0  0
  182.3260  177.2970  140.5080 C   0  0  2  0  0  3  0  0  0  0  0  0
  179.7670  179.9310  140.0280 C   0  0  0  0  0  2  0  0  0  0  0  0
  187.4430  175.8350  136.0110 C   0  0  1  0  0  3  0  0  0  0  0  0
  184.4720  177.8480  139.3240 C   0  0  0  0  0  0  0  0  0  0  0  0
  181.4510  176.4710  138.1390 C   0  0  1  0  0  3  0  0  0  0  0  0
  183.8910  177.2870  138.0510 C   0  0  2  0  0  3  0  0  0  0  0  0
  185.4430  178.9900  141.6420 C   0  0  0  0  0  3  0  0  0  0  0  0
  185.3120  176.1540  134.5940 C   0  0  0  0  0  2  0  0  0  0  0  0
  184.2100  178.4270  141.6300 N   0  0  0  0  0  0  0  0  0  0  0  0
  184.3300  176.4170  135.7350 C   0  0  0  0  0  2  0  0  0  0  0  0
  187.3460  177.3730  136.1500 C   0  0  1  0  0  3  0  0  0  0  0  0
  186.1850  179.0190  140.5080 N   0  0  0  0  0  0  0  0  0  0  0  0
  186.5640  178.6260  138.1080 C   0  0  1  0  0  3  0  0  0  0  0  0
  187.3040  175.1960  137.2490 O   0  0  0  0  0  0  0  0  0  0  0  0
  187.8810  173.9360  137.0810 C   0  0  0  0  0  2  0  0  0  0  0  0
  191.5750  173.7330  136.6920 C   0  0  0  0  0  3  0  0  0  0  0  0
  189.9720  174.7980  137.9870 N   0  0  0  0  0  0  0  0  0  0  0  0
  189.3620  174.0590  137.1300 C   0  0  0  0  0  0  0  0  0  0  0  0
  191.3470  174.6640  137.7880 N   0  0  0  0  0  0  0  0  0  0  0  0
  190.2360  173.3430  136.2690 N   0  0  0  0  0  2  0  0  0  0  0  0
  1 26  1  0  0  0  0
  3 16  1  0  0  0  0
  4 15  1  0  0  0  0
  4 23  2  0  0  0  0
  5 15  1  0  0  0  0
  6  7  1  0  0  0  0
  6 19  1  0  0  0  0
  7  3  1  0  0  0  0
  8 12  1  0  0  0  0
  9 13  1  0  0  0  0
  9 27  1  0  0  0  0
 10 17  1  0  0  0  0
 11  5  1  0  0  0  0
 13 20  1  0  0  0  0
 14  2  1  0  0  0  0
 15 12  1  0  0  0  0
 16  8  1  0  0  0  0
 17 25  1  0  0  0  0
 17 28  1  0  0  0  0
 18  1  2  0  0  0  0
 18  4  1  0  0  0  0
 19 11  1  0  0  0  0
 19  5  1  0  0  0  0
 20 11  1  0  0  0  0
 20 18  1  0  0  0  0
 22 10  1  0  0  0  0
 22 24  1  0  0  0  0
 23 21  1  0  0  0  0
 24 13  1  0  0  0  0
 25  9  1  0  0  0  0
 25 14  1  0  0  0  0
 26 21  2  0  0  0  0
 27  2  1  0  0  0  0
 27  1  1  0  0  0  0
 29 32  1  0  0  0  0
 29 28  1  0  0  0  0
 30 33  2  0  0  0  0
 32 31  2  0  0  0  0
 33 31  1  0  0  0  0
 34 30  1  0  0  0  0
 34 32  1  0  0  0  0
M  END
>  <MODEL>
3

>  <REMARK>
 VINA RESULT:      -5.8      3.695      7.638
  Name = 
  3 active torsions:
  status: ('A' for Active; 'I' for Inactive)
    1  A    between atoms: C_17  and  O_28
    2  A    between atoms: O_28  and  C_29
    3  A    between atoms: C_29  and  C_32
                            x       y       z     vdW  Elec       q    Type
                         _______ _______ _______ _____ _____    ______ ____

>  <TORSDO>
F 3

$$$$
=
 OpenBabel11122412103D

 34 41  0  0  1  0  0  0  0  0999 V2000
  185.6840  178.4190  139.6670 C   0  0  0  0  0  0  0  0  0  0  0  0
  188.0650  177.9670  139.0470 C   0  0  0  0  0  2  0  0  0  0  0  0
  180.0110  180.6680  137.9390 C   0  0  0  0  0  2  0  0  0  0  0  0
  183.4080  177.9790  140.3020 C   0  0  0  0  0  0  0  0  0  0  0  0
  181.7550  176.6690  138.7710 C   0  0  1  0  0  3  0  0  0  0  0  0
  181.4970  178.7870  137.3150 C   0  0  0  0  0  2  0  0  0  0  0  0
  180.0590  179.2710  137.3410 C   0  0  0  0  0  2  0  0  0  0  0  0
  181.1470  179.9980  140.0910 C   0  0  0  0  0  2  0  0  0  0  0  0
  186.4630  178.1810  137.2090 C   0  0  2  0  0  3  0  0  0  0  0  0
  186.9140  175.7530  135.0430 C   0  0  0  0  0  2  0  0  0  0  0  0
  182.8990  176.6540  137.7440 C   0  0  1  0  0  3  0  0  0  0  0  0
  180.8630  178.5350  140.4040 C   0  0  0  0  0  2  0  0  0  0  0  0
  185.2310  177.2630  137.0430 C   0  0  1  0  0  3  0  0  0  0  0  0
  188.8310  177.7970  137.7560 C   0  0  0  0  0  2  0  0  0  0  0  0
  181.9980  177.6100  139.9640 C   0  0  2  0  0  3  0  0  0  0  0  0
  179.9150  180.6310  139.4620 C   0  0  0  0  0  2  0  0  0  0  0  0
  187.7260  176.0600  136.3120 C   0  0  1  0  0  3  0  0  0  0  0  0
  184.3900  178.0020  139.3060 C   0  0  0  0  0  0  0  0  0  0  0  0
  181.5400  177.2610  137.3710 C   0  0  1  0  0  3  0  0  0  0  0  0
  184.0230  177.7150  137.8720 C   0  0  2  0  0  3  0  0  0  0  0  0
  184.9890  178.6540  141.9210 C   0  0  0  0  0  3  0  0  0  0  0  0
  185.9840  176.8820  134.5980 C   0  0  0  0  0  2  0  0  0  0  0  0
  183.7290  178.2850  141.5870 N   0  0  0  0  0  0  0  0  0  0  0  0
  184.8240  177.1230  135.5660 C   0  0  0  0  0  2  0  0  0  0  0  0
  187.7810  177.5610  136.6850 C   0  0  1  0  0  3  0  0  0  0  0  0
  185.9470  178.7330  140.9640 N   0  0  0  0  0  0  0  0  0  0  0  0
  186.7640  178.6280  138.6440 C   0  0  1  0  0  3  0  0  0  0  0  0
  187.2630  175.2810  137.3800 O   0  0  0  0  0  0  0  0  0  0  0  0
  187.5020  173.9580  137.0030 C   0  0  0  0  0  2  0  0  0  0  0  0
  184.5260  171.8200  136.3640 C   0  0  0  0  0  3  0  0  0  0  0  0
  185.3180  173.3620  137.9040 N   0  0  0  0  0  0  0  0  0  0  0  0
  186.2200  173.2040  137.0020 C   0  0  0  0  0  0  0  0  0  0  0  0
  184.2340  172.5400  137.5940 N   0  0  0  0  0  0  0  0  0  0  0  0
  185.8570  172.2800  135.9870 N   0  0  0  0  0  2  0  0  0  0  0  0
  1 26  1  0  0  0  0
  3 16  1  0  0  0  0
  4 23  2  0  0  0  0
  5 15  1  0  0  0  0
  6  7  1  0  0  0  0
  6 19  1  0  0  0  0
  7  3  1  0  0  0  0
  8 12  1  0  0  0  0
  9 27  1  0  0  0  0
 10 17  1  0  0  0  0
 11 20  1  0  0  0  0
 11  5  1  0  0  0  0
 13  9  1  0  0  0  0
 13 20  1  0  0  0  0
 14  2  1  0  0  0  0
 15  4  1  0  0  0  0
 15 12  1  0  0  0  0
 16  8  1  0  0  0  0
 17 25  1  0  0  0  0
 17 28  1  0  0  0  0
 18  1  2  0  0  0  0
 18  4  1  0  0  0  0
 19 11  1  0  0  0  0
 19  5  1  0  0  0  0
 20 18  1  0  0  0  0
 22 10  1  0  0  0  0
 22 24  1  0  0  0  0
 23 21  1  0  0  0  0
 24 13  1  0  0  0  0
 25  9  1  0  0  0  0
 25 14  1  0  0  0  0
 26 21  2  0  0  0  0
 27  2  1  0  0  0  0
 27  1  1  0  0  0  0
 29 28  1  0  0  0  0
 30 33  2  0  0  0  0
 32 29  1  0  0  0  0
 32 31  2  0  0  0  0
 33 31  1  0  0  0  0
 34 30  1  0  0  0  0
 34 32  1  0  0  0  0
M  END
>  <MODEL>
4

>  <REMARK>
 VINA RESULT:      -5.6      3.410      7.335
  Name = 
  3 active torsions:
  status: ('A' for Active; 'I' for Inactive)
    1  A    between atoms: C_17  and  O_28
    2  A    between atoms: O_28  and  C_29
    3  A    between atoms: C_29  and  C_32
                            x       y       z     vdW  Elec       q    Type
                         _______ _______ _______ _____ _____    ______ ____

>  <TORSDO>
F 3

$$$$
=
 OpenBabel11122412103D

 34 41  0  0  1  0  0  0  0  0999 V2000
  185.5570  178.0700  137.9130 C   0  0  0  0  0  0  0  0  0  0  0  0
  183.9500  179.5820  139.0940 C   0  0  0  0  0  2  0  0  0  0  0  0
  187.9230  172.2280  137.2180 C   0  0  0  0  0  2  0  0  0  0  0  0
  186.5780  176.8460  136.1140 C   0  0  0  0  0  0  0  0  0  0  0  0
  185.3380  174.9430  134.8360 C   0  0  1  0  0  3  0  0  0  0  0  0
  185.7600  173.3780  136.8470 C   0  0  0  0  0  2  0  0  0  0  0  0
  186.6240  172.2030  136.4280 C   0  0  0  0  0  2  0  0  0  0  0  0
  188.5480  174.5640  136.4940 C   0  0  0  0  0  2  0  0  0  0  0  0
  183.4320  177.1900  139.1020 C   0  0  2  0  0  3  0  0  0  0  0  0
  180.2650  176.7280  138.3610 C   0  0  0  0  0  2  0  0  0  0  0  0
  184.1930  175.1730  135.8360 C   0  0  1  0  0  3  0  0  0  0  0  0
  187.9570  174.8670  135.1250 C   0  0  0  0  0  2  0  0  0  0  0  0
  183.2120  176.3620  137.8160 C   0  0  1  0  0  3  0  0  0  0  0  0
  182.6710  179.3980  139.8760 C   0  0  0  0  0  2  0  0  0  0  0  0
  186.6500  175.6560  135.2110 C   0  0  2  0  0  3  0  0  0  0  0  0
  188.9780  173.1060  136.5500 C   0  0  0  0  0  2  0  0  0  0  0  0
  181.0180  178.0570  138.5370 C   0  0  1  0  0  3  0  0  0  0  0  0
  185.5390  176.9650  137.0450 C   0  0  0  0  0  0  0  0  0  0  0  0
  184.8310  173.7830  135.7040 C   0  0  1  0  0  3  0  0  0  0  0  0
  184.5180  175.8640  137.1870 C   0  0  2  0  0  3  0  0  0  0  0  0
  187.5080  178.8900  136.8460 C   0  0  0  0  0  3  0  0  0  0  0  0
  181.0170  175.5010  138.8800 C   0  0  0  0  0  2  0  0  0  0  0  0
  187.5250  177.8150  136.0200 N   0  0  0  0  0  0  0  0  0  0  0  0
  182.2680  175.1730  138.0640 C   0  0  0  0  0  2  0  0  0  0  0  0
  182.1880  177.9970  139.5490 C   0  0  1  0  0  3  0  0  0  0  0  0
  186.5400  179.0030  137.7890 N   0  0  0  0  0  0  0  0  0  0  0  0
  184.5790  178.2060  139.0450 C   0  0  1  0  0  3  0  0  0  0  0  0
  181.4380  178.5410  137.2920 O   0  0  0  0  0  0  0  0  0  0  0  0
  180.3060  179.1270  136.7230 C   0  0  0  0  0  2  0  0  0  0  0  0
  180.8060  182.8010  137.0370 C   0  0  0  0  0  3  0  0  0  0  0  0
  180.6300  181.1560  135.4120 N   0  0  0  0  0  0  0  0  0  0  0  0
  180.5350  180.5880  136.5610 C   0  0  0  0  0  0  0  0  0  0  0  0
  180.8050  182.5260  135.6080 N   0  0  0  0  0  2  0  0  0  0  0  0
  180.6230  181.4920  137.6530 N   0  0  0  0  0  0  0  0  0  0  0  0
  1 27  1  0  0  0  0
  2 14  1  0  0  0  0
  4 18  1  0  0  0  0
  5 15  1  0  0  0  0
  5 19  1  0  0  0  0
  5 11  1  0  0  0  0
  7  6  1  0  0  0  0
  7  3  1  0  0  0  0
  8 16  1  0  0  0  0
  9 25  1  0  0  0  0
 10 17  1  0  0  0  0
 10 22  1  0  0  0  0
 11 20  1  0  0  0  0
 12 15  1  0  0  0  0
 12  8  1  0  0  0  0
 13 24  1  0  0  0  0
 13  9  1  0  0  0  0
 15  4  1  0  0  0  0
 16  3  1  0  0  0  0
 17 25  1  0  0  0  0
 18 20  1  0  0  0  0
 18  1  2  0  0  0  0
 19 11  1  0  0  0  0
 19  6  1  0  0  0  0
 20 13  1  0  0  0  0
 21 26  2  0  0  0  0
 23  4  2  0  0  0  0
 23 21  1  0  0  0  0
 24 22  1  0  0  0  0
 25 14  1  0  0  0  0
 26  1  1  0  0  0  0
 27  2  1  0  0  0  0
 27  9  1  0  0  0  0
 28 17  1  0  0  0  0
 29 28  1  0  0  0  0
 30 34  2  0  0  0  0
 31 33  1  0  0  0  0
 31 32  2  0  0  0  0
 32 29  1  0  0  0  0
 32 34  1  0  0  0  0
 33 30  1  0  0  0  0
M  END
>  <MODEL>
5

>  <REMARK>
 VINA RESULT:      -5.5      4.765      6.516
  Name = 
  3 active torsions:
  status: ('A' for Active; 'I' for Inactive)
    1  A    between atoms: C_17  and  O_28
    2  A    between atoms: O_28  and  C_29
    3  A    between atoms: C_29  and  C_32
                            x       y       z     vdW  Elec       q    Type
                         _______ _______ _______ _____ _____    ______ ____

>  <TORSDO>
F 3

$$$$
=
 OpenBabel11122412103D

 34 41  0  0  1  0  0  0  0  0999 V2000
  185.2630  178.2500  140.2420 C   0  0  0  0  0  0  0  0  0  0  0  0
  182.9780  178.7890  141.1070 C   0  0  0  0  0  2  0  0  0  0  0  0
  188.9180  174.4590  136.7090 C   0  0  0  0  0  2  0  0  0  0  0  0
  187.3240  178.5100  139.0330 C   0  0  0  0  0  0  0  0  0  0  0  0
  187.4140  178.6290  136.4310 C   0  0  1  0  0  3  0  0  0  0  0  0
  187.0720  176.0700  136.3470 C   0  0  0  0  0  2  0  0  0  0  0  0
  188.2720  175.4000  135.7040 C   0  0  0  0  0  2  0  0  0  0  0  0
  189.2700  176.2500  138.4530 C   0  0  0  0  0  2  0  0  0  0  0  0
  183.1010  177.4560  139.0590 C   0  0  2  0  0  3  0  0  0  0  0  0
  180.9960  178.6330  136.8290 C   0  0  0  0  0  2  0  0  0  0  0  0
  185.8990  178.3740  136.4810 C   0  0  1  0  0  3  0  0  0  0  0  0
  189.4300  177.6090  137.7880 C   0  0  0  0  0  2  0  0  0  0  0  0
  183.7840  177.9470  137.7630 C   0  0  1  0  0  3  0  0  0  0  0  0
  181.5620  178.4760  140.6840 C   0  0  0  0  0  2  0  0  0  0  0  0
  188.1300  178.4140  137.7760 C   0  0  2  0  0  3  0  0  0  0  0  0
  189.9310  175.1830  137.5940 C   0  0  0  0  0  2  0  0  0  0  0  0
  181.2150  179.1070  138.2750 C   0  0  1  0  0  3  0  0  0  0  0  0
  185.9580  178.2060  139.0210 C   0  0  0  0  0  0  0  0  0  0  0  0
  186.8120  177.4260  135.6920 C   0  0  1  0  0  3  0  0  0  0  0  0
  185.3000  177.7200  137.7540 C   0  0  2  0  0  3  0  0  0  0  0  0
  187.2320  178.9680  141.3480 C   0  0  0  0  0  3  0  0  0  0  0  0
  181.6260  177.2770  136.5040 C   0  0  0  0  0  2  0  0  0  0  0  0
  187.9270  178.9010  140.1860 N   0  0  0  0  0  0  0  0  0  0  0  0
  183.1550  177.3070  136.5140 C   0  0  0  0  0  2  0  0  0  0  0  0
  181.6610  177.9900  139.2500 C   0  0  1  0  0  3  0  0  0  0  0  0
  185.9190  178.6300  141.3710 N   0  0  0  0  0  0  0  0  0  0  0  0
  183.8380  177.7910  140.3610 C   0  0  1  0  0  3  0  0  0  0  0  0
  182.0980  180.1920  138.2980 O   0  0  0  0  0  0  0  0  0  0  0  0
  181.3560  181.2620  138.8010 C   0  0  0  0  0  2  0  0  0  0  0  0
  180.8050  183.4200  135.8210 C   0  0  0  0  0  3  0  0  0  0  0  0
  181.7950  183.4900  137.9180 N   0  0  0  0  0  0  0  0  0  0  0  0
  181.2630  182.3300  137.7700 C   0  0  0  0  0  0  0  0  0  0  0  0
  181.5570  184.2360  136.7630 N   0  0  0  0  0  0  0  0  0  0  0  0
  180.6210  182.1510  136.5150 N   0  0  0  0  0  2  0  0  0  0  0  0
  1 27  1  0  0  0  0
  1 26  1  0  0  0  0
  3 16  1  0  0  0  0
  4 23  2  0  0  0  0
  5 11  1  0  0  0  0
  5 15  1  0  0  0  0
  7  6  1  0  0  0  0
  7  3  1  0  0  0  0
  9 25  1  0  0  0  0
  9 27  1  0  0  0  0
 10 17  1  0  0  0  0
 11 20  1  0  0  0  0
 12  8  1  0  0  0  0
 13  9  1  0  0  0  0
 14  2  1  0  0  0  0
 15 12  1  0  0  0  0
 15  4  1  0  0  0  0
 16  8  1  0  0  0  0
 17 28  1  0  0  0  0
 17 25  1  0  0  0  0
 18  4  1  0  0  0  0
 18  1  2  0  0  0  0
 19  6  1  0  0  0  0
 19  5  1  0  0  0  0
 19 11  1  0  0  0  0
 20 13  1  0  0  0  0
 20 18  1  0  0  0  0
 21 26  2  0  0  0  0
 22 24  1  0  0  0  0
 22 10  1  0  0  0  0
 23 21  1  0  0  0  0
 24 13  1  0  0  0  0
 25 14  1  0  0  0  0
 27  2  1  0  0  0  0
 28 29  1  0  0  0  0
 30 34  1  0  0  0  0
 30 33  2  0  0  0  0
 32 31  2  0  0  0  0
 32 29  1  0  0  0  0
 33 31  1  0  0  0  0
 34 32  1  0  0  0  0
M  END
>  <MODEL>
6

>  <REMARK>
 VINA RESULT:      -5.5      3.286      6.058
  Name = 
  3 active torsions:
  status: ('A' for Active; 'I' for Inactive)
    1  A    between atoms: C_17  and  O_28
    2  A    between atoms: O_28  and  C_29
    3  A    between atoms: C_29  and  C_32
                            x       y       z     vdW  Elec       q    Type
                         _______ _______ _______ _____ _____    ______ ____

>  <TORSDO>
F 3

$$$$
=
 OpenBabel11122412103D

 34 41  0  0  1  0  0  0  0  0999 V2000
  183.9710  178.1970  139.0100 C   0  0  0  0  0  0  0  0  0  0  0  0
  182.0810  179.4560  140.0610 C   0  0  0  0  0  2  0  0  0  0  0  0
  185.9410  172.9650  136.0170 C   0  0  0  0  0  2  0  0  0  0  0  0
  185.7360  177.6790  137.4630 C   0  0  0  0  0  0  0  0  0  0  0  0
  185.2940  177.2240  134.9350 C   0  0  1  0  0  3  0  0  0  0  0  0
  184.4270  174.8710  135.5560 C   0  0  0  0  0  2  0  0  0  0  0  0
  185.3000  173.8050  134.9230 C   0  0  0  0  0  2  0  0  0  0  0  0
  187.0120  174.9370  137.1740 C   0  0  0  0  0  2  0  0  0  0  0  0
  181.4910  177.7350  138.4240 C   0  0  2  0  0  3  0  0  0  0  0  0
  179.2450  178.9040  136.3310 C   0  0  0  0  0  2  0  0  0  0  0  0
  183.8040  177.3690  135.2870 C   0  0  1  0  0  3  0  0  0  0  0  0
  187.3010  176.0430  136.1700 C   0  0  0  0  0  2  0  0  0  0  0  0
  181.9690  177.7590  136.9540 C   0  0  1  0  0  3  0  0  0  0  0  0
  180.5740  179.4220  139.9610 C   0  0  0  0  0  2  0  0  0  0  0  0
  186.2200  177.1240  136.1600 C   0  0  2  0  0  3  0  0  0  0  0  0
  187.2440  173.5830  136.5180 C   0  0  0  0  0  2  0  0  0  0  0  0
  179.8580  179.6010  137.5570 C   0  0  1  0  0  3  0  0  0  0  0  0
  184.3660  177.7280  137.7450 C   0  0  0  0  0  0  0  0  0  0  0  0
  184.3160  176.0800  134.6300 C   0  0  1  0  0  3  0  0  0  0  0  0
  183.3690  177.1660  136.7630 C   0  0  2  0  0  3  0  0  0  0  0  0
  186.2340  178.6190  139.5710 C   0  0  0  0  0  3  0  0  0  0  0  0
  179.5020  177.3980  136.2650 C   0  0  0  0  0  2  0  0  0  0  0  0
  186.6370  178.1410  138.3690 N   0  0  0  0  0  0  0  0  0  0  0  0
  180.9710  177.0480  136.0240 C   0  0  0  0  0  2  0  0  0  0  0  0
  180.2640  178.6380  138.6990 C   0  0  1  0  0  3  0  0  0  0  0  0
  184.9150  178.6310  139.8870 N   0  0  0  0  0  0  0  0  0  0  0  0
  182.5400  178.1420  139.4650 C   0  0  1  0  0  3  0  0  0  0  0  0
  180.9280  180.4130  137.1640 O   0  0  0  0  0  0  0  0  0  0  0  0
  180.4490  181.1590  136.0860 C   0  0  0  0  0  2  0  0  0  0  0  0
  181.3780  184.5670  137.2530 C   0  0  0  0  0  3  0  0  0  0  0  0
  180.8390  183.4330  135.3030 N   0  0  0  0  0  0  0  0  0  0  0  0
  180.8150  182.5890  136.2710 C   0  0  0  0  0  0  0  0  0  0  0  0
  181.1840  184.6840  135.8150 N   0  0  0  0  0  2  0  0  0  0  0  0
  181.1260  183.1590  137.5340 N   0  0  0  0  0  0  0  0  0  0  0  0
  1 27  1  0  0  0  0
  1 26  1  0  0  0  0
  3 16  1  0  0  0  0
  4 18  1  0  0  0  0
  4 23  2  0  0  0  0
  5 11  1  0  0  0  0
  5 15  1  0  0  0  0
  7  6  1  0  0  0  0
  7  3  1  0  0  0  0
  9 25  1  0  0  0  0
  9 27  1  0  0  0  0
 10 17  1  0  0  0  0
 11 20  1  0  0  0  0
 12  8  1  0  0  0  0
 13  9  1  0  0  0  0
 14  2  1  0  0  0  0
 15 12  1  0  0  0  0
 15  4  1  0  0  0  0
 16  8  1  0  0  0  0
 17 25  1  0  0  0  0
 18  1  2  0  0  0  0
 19  5  1  0  0  0  0
 19 11  1  0  0  0  0
 19  6  1  0  0  0  0
 20 13  1  0  0  0  0
 20 18  1  0  0  0  0
 21 26  2  0  0  0  0
 22 10  1  0  0  0  0
 23 21  1  0  0  0  0
 24 22  1  0  0  0  0
 24 13  1  0  0  0  0
 25 14  1  0  0  0  0
 27  2  1  0  0  0  0
 28 17  1  0  0  0  0
 29 32  1  0  0  0  0
 29 28  1  0  0  0  0
 30 34  2  0  0  0  0
 31 33  1  0  0  0  0
 31 32  2  0  0  0  0
 32 34  1  0  0  0  0
 33 30  1  0  0  0  0
M  END
>  <MODEL>
7

>  <REMARK>
 VINA RESULT:      -5.3      4.087      7.386
  Name = 
  3 active torsions:
  status: ('A' for Active; 'I' for Inactive)
    1  A    between atoms: C_17  and  O_28
    2  A    between atoms: O_28  and  C_29
    3  A    between atoms: C_29  and  C_32
                            x       y       z     vdW  Elec       q    Type
                         _______ _______ _______ _____ _____    ______ ____

>  <TORSDO>
F 3

$$$$
=
 OpenBabel11122412103D

 34 41  0  0  1  0  0  0  0  0999 V2000
  185.1050  177.8170  138.1240 C   0  0  0  0  0  0  0  0  0  0  0  0
  183.7560  179.2130  139.7030 C   0  0  0  0  0  2  0  0  0  0  0  0
  186.9470  172.0310  136.2940 C   0  0  0  0  0  2  0  0  0  0  0  0
  185.8230  176.8300  136.0540 C   0  0  0  0  0  0  0  0  0  0  0  0
  184.3120  175.2170  134.6730 C   0  0  1  0  0  3  0  0  0  0  0  0
  184.8460  173.3400  136.3650 C   0  0  0  0  0  2  0  0  0  0  0  0
  185.5690  172.1990  135.6750 C   0  0  0  0  0  2  0  0  0  0  0  0
  187.6530  174.4140  135.8490 C   0  0  0  0  0  2  0  0  0  0  0  0
  183.0700  176.8800  139.4250 C   0  0  2  0  0  3  0  0  0  0  0  0
  179.8150  176.7100  139.0200 C   0  0  0  0  0  2  0  0  0  0  0  0
  183.3080  175.3520  135.8290 C   0  0  1  0  0  3  0  0  0  0  0  0
  186.9340  174.9560  134.6220 C   0  0  0  0  0  2  0  0  0  0  0  0
  182.6470  176.2740  138.0680 C   0  0  1  0  0  3  0  0  0  0  0  0
  182.5640  178.9810  140.6010 C   0  0  0  0  0  2  0  0  0  0  0  0
  185.7060  175.7910  134.9840 C   0  0  2  0  0  3  0  0  0  0  0  0
  187.9810  172.9430  135.6370 C   0  0  0  0  0  2  0  0  0  0  0  0
  180.6770  177.9540  139.2950 C   0  0  1  0  0  3  0  0  0  0  0  0
  184.9080  176.8610  137.1120 C   0  0  0  0  0  0  0  0  0  0  0  0
  183.8240  173.9670  135.4180 C   0  0  1  0  0  3  0  0  0  0  0  0
  183.8330  175.8090  137.2160 C   0  0  2  0  0  3  0  0  0  0  0  0
  186.9760  178.6830  136.9560 C   0  0  0  0  0  3  0  0  0  0  0  0
  180.5310  175.3800  139.2570 C   0  0  0  0  0  2  0  0  0  0  0  0
  186.8220  177.7490  135.9860 N   0  0  0  0  0  0  0  0  0  0  0  0
  181.6530  175.1130  138.2530 C   0  0  0  0  0  2  0  0  0  0  0  0
  181.9470  177.6750  140.1350 C   0  0  1  0  0  3  0  0  0  0  0  0
  186.1320  178.7020  138.0180 N   0  0  0  0  0  0  0  0  0  0  0  0
  184.2740  177.8290  139.3760 C   0  0  1  0  0  3  0  0  0  0  0  0
  180.9870  178.6000  138.0920 O   0  0  0  0  0  0  0  0  0  0  0  0
  179.8720  179.3880  137.7990 C   0  0  0  0  0  2  0  0  0  0  0  0
  180.6640  182.7850  136.5050 C   0  0  0  0  0  3  0  0  0  0  0  0
  181.0250  181.4570  138.3720 N   0  0  0  0  0  0  0  0  0  0  0  0
  180.3090  180.7870  137.5420 C   0  0  0  0  0  0  0  0  0  0  0  0
  181.2890  182.7100  137.8180 N   0  0  0  0  0  0  0  0  0  0  0  0
  180.0160  181.4900  136.3420 N   0  0  0  0  0  2  0  0  0  0  0  0
  1 27  1  0  0  0  0
  2 14  1  0  0  0  0
  4 18  1  0  0  0  0
  5 15  1  0  0  0  0
  5 19  1  0  0  0  0
  5 11  1  0  0  0  0
  7  3  1  0  0  0  0
  7  6  1  0  0  0  0
  9 25  1  0  0  0  0
 10 22  1  0  0  0  0
 10 17  1  0  0  0  0
 11 20  1  0  0  0  0
 12 15  1  0  0  0  0
 12  8  1  0  0  0  0
 13 24  1  0  0  0  0
 13  9  1  0  0  0  0
 15  4  1  0  0  0  0
 16  8  1  0  0  0  0
 16  3  1  0  0  0  0
 17 25  1  0  0  0  0
 18 20  1  0  0  0  0
 18  1  2  0  0  0  0
 19 11  1  0  0  0  0
 19  6  1  0  0  0  0
 20 13  1  0  0  0  0
 21 26  2  0  0  0  0
 23  4  2  0  0  0  0
 23 21  1  0  0  0  0
 24 22  1  0  0  0  0
 25 14  1  0  0  0  0
 26  1  1  0  0  0  0
 27  9  1  0  0  0  0
 27  2  1  0  0  0  0
 28 17  1  0  0  0  0
 29 28  1  0  0  0  0
 30 33  2  0  0  0  0
 32 29  1  0  0  0  0
 32 31  2  0  0  0  0
 33 31  1  0  0  0  0
 34 30  1  0  0  0  0
 34 32  1  0  0  0  0
M  END
>  <MODEL>
8

>  <REMARK>
 VINA RESULT:      -5.3      4.677      6.884
  Name = 
  3 active torsions:
  status: ('A' for Active; 'I' for Inactive)
    1  A    between atoms: C_17  and  O_28
    2  A    between atoms: O_28  and  C_29
    3  A    between atoms: C_29  and  C_32
                            x       y       z     vdW  Elec       q    Type
                         _______ _______ _______ _____ _____    ______ ____

>  <TORSDO>
F 3

$$$$
=
 OpenBabel11122412103D

 34 41  0  0  1  0  0  0  0  0999 V2000
  184.0270  177.8580  139.5890 C   0  0  0  0  0  0  0  0  0  0  0  0
  182.1220  178.7640  140.9350 C   0  0  0  0  0  2  0  0  0  0  0  0
  186.3730  173.0960  136.1200 C   0  0  0  0  0  2  0  0  0  0  0  0
  185.6260  177.6740  137.8040 C   0  0  0  0  0  0  0  0  0  0  0  0
  184.9230  177.2200  135.3360 C   0  0  1  0  0  3  0  0  0  0  0  0
  184.5300  174.7420  135.9510 C   0  0  0  0  0  2  0  0  0  0  0  0
  185.4660  173.8490  135.1590 C   0  0  0  0  0  2  0  0  0  0  0  0
  187.2670  175.1840  137.2210 C   0  0  0  0  0  2  0  0  0  0  0  0
  181.5950  177.0140  139.3070 C   0  0  2  0  0  3  0  0  0  0  0  0
  178.9310  177.8570  137.5810 C   0  0  0  0  0  2  0  0  0  0  0  0
  183.4900  177.1120  135.8850 C   0  0  1  0  0  3  0  0  0  0  0  0
  187.2390  176.3490  136.2430 C   0  0  0  0  0  2  0  0  0  0  0  0
  181.8590  177.1540  137.7920 C   0  0  1  0  0  3  0  0  0  0  0  0
  180.6400  178.4890  141.0290 C   0  0  0  0  0  2  0  0  0  0  0  0
  186.0100  177.2400  136.4250 C   0  0  2  0  0  3  0  0  0  0  0  0
  187.6180  173.9050  136.4770 C   0  0  0  0  0  2  0  0  0  0  0  0
  179.5860  178.6120  138.7500 C   0  0  1  0  0  3  0  0  0  0  0  0
  184.3160  177.4930  138.2630 C   0  0  0  0  0  0  0  0  0  0  0  0
  184.1050  175.9420  135.1050 C   0  0  1  0  0  3  0  0  0  0  0  0
  183.2960  176.8020  137.3920 C   0  0  2  0  0  3  0  0  0  0  0  0
  186.2500  178.6270  139.8730 C   0  0  0  0  0  3  0  0  0  0  0  0
  179.4100  176.4150  137.4100 C   0  0  0  0  0  2  0  0  0  0  0  0
  186.5570  178.2520  138.6070 N   0  0  0  0  0  0  0  0  0  0  0  0
  180.8700  176.3150  136.9650 C   0  0  0  0  0  2  0  0  0  0  0  0
  180.2900  177.6980  139.7820 C   0  0  1  0  0  3  0  0  0  0  0  0
  185.0010  178.4160  140.3570 N   0  0  0  0  0  0  0  0  0  0  0  0
  182.6980  177.5590  140.2230 C   0  0  1  0  0  3  0  0  0  0  0  0
  180.4520  179.5980  138.2610 O   0  0  0  0  0  0  0  0  0  0  0  0
  179.7960  180.1510  137.1600 C   0  0  0  0  0  2  0  0  0  0  0  0
  181.1800  183.6030  137.2550 C   0  0  0  0  0  3  0  0  0  0  0  0
  180.3160  182.0680  135.7480 N   0  0  0  0  0  0  0  0  0  0  0  0
  180.3190  181.5220  136.9110 C   0  0  0  0  0  0  0  0  0  0  0  0
  180.8370  183.3570  135.8620 N   0  0  0  0  0  2  0  0  0  0  0  0
  180.8250  182.3650  137.9360 N   0  0  0  0  0  0  0  0  0  0  0  0
  1 27  1  0  0  0  0
  1 26  1  0  0  0  0
  2 14  1  0  0  0  0
  3 16  1  0  0  0  0
  4 18  1  0  0  0  0
  4 23  2  0  0  0  0
  5 11  1  0  0  0  0
  5 15  1  0  0  0  0
  7  6  1  0  0  0  0
  7  3  1  0  0  0  0
  9 25  1  0  0  0  0
  9 27  1  0  0  0  0
 10 17  1  0  0  0  0
 11 20  1  0  0  0  0
 12 15  1  0  0  0  0
 12  8  1  0  0  0  0
 13  9  1  0  0  0  0
 15  4  1  0  0  0  0
 16  8  1  0  0  0  0
 17 25  1  0  0  0  0
 18  1  2  0  0  0  0
 19  5  1  0  0  0  0
 19 11  1  0  0  0  0
 19  6  1  0  0  0  0
 20 13  1  0  0  0  0
 20 18  1  0  0  0  0
 21 26  2  0  0  0  0
 22 10  1  0  0  0  0
 23 21  1  0  0  0  0
 24 22  1  0  0  0  0
 24 13  1  0  0  0  0
 25 14  1  0  0  0  0
 27  2  1  0  0  0  0
 28 17  1  0  0  0  0
 29 28  1  0  0  0  0
 30 34  2  0  0  0  0
 31 33  1  0  0  0  0
 31 32  2  0  0  0  0
 32 29  1  0  0  0  0
 32 34  1  0  0  0  0
 33 30  1  0  0  0  0
M  END
>  <MODEL>
9

>  <REMARK>
 VINA RESULT:      -5.2      3.887      6.966
  Name = 
  3 active torsions:
  status: ('A' for Active; 'I' for Inactive)
    1  A    between atoms: C_17  and  O_28
    2  A    between atoms: O_28  and  C_29
    3  A    between atoms: C_29  and  C_32
                            x       y       z     vdW  Elec       q    Type
                         _______ _______ _______ _____ _____    ______ ____

>  <TORSDO>
F 3

$$$$
