=
 OpenBabel11122412273D

 34 42  0  0  1  0  0  0  0  0999 V2000
  188.2790  177.1230  138.0930 C   0  0  2  0  0  3  0  0  0  0  0  0
  186.7890  178.1380  139.6830 O   0  0  0  0  0  0  0  0  0  0  0  0
  194.1480  174.9750  135.6640 C   0  0  2  0  0  3  0  0  0  0  0  0
  189.8210  175.8600  136.6510 C   0  0  1  0  0  3  0  0  0  0  0  0
  192.3790  175.9520  137.2410 C   0  0  2  0  0  3  0  0  0  0  0  0
  194.6580  175.6430  137.9020 O   0  0  0  0  0  1  0  0  0  0  0  0
  193.7570  176.0700  134.8640 O   0  0  0  0  0  0  0  0  0  0  0  0
  191.6070  174.9520  134.9560 C   0  0  1  0  0  3  0  0  0  0  0  0
  189.1100  178.2810  140.2110 C   0  0  2  0  0  3  0  0  0  0  0  0
  189.6660  177.0130  143.0980 C   0  0  0  0  0  2  0  0  0  0  0  0
  191.8470  175.9800  138.6690 C   0  0  0  0  0  2  0  0  0  0  0  0
  191.3260  174.0970  136.0420 O   0  0  0  0  0  0  0  0  0  0  0  0
  190.1090  177.1080  140.1580 C   0  0  1  0  0  3  0  0  0  0  0  0
  186.9110  178.6950  140.9660 C   0  0  0  0  0  2  0  0  0  0  0  0
  191.2640  175.4820  136.3030 C   0  0  2  0  0  0  0  0  0  0  0  0
  193.1060  174.8470  134.5940 C   0  0  2  0  0  3  0  0  0  0  0  0
  188.3120  177.1650  142.4020 C   0  0  2  0  0  3  0  0  0  0  0  0
  189.7330  177.0520  137.6190 C   0  0  2  0  0  3  0  0  0  0  0  0
  193.6420  175.1070  137.1100 C   0  0  2  0  0  3  0  0  0  0  0  0
  190.7700  177.0640  138.7780 C   0  0  2  0  0  3  0  0  0  0  0  0
  187.6950  176.0860  135.9050 C   0  0  0  0  0  2  0  0  0  0  0  0
  190.6920  176.3730  142.1690 C   0  0  0  0  0  2  0  0  0  0  0  0
  189.0490  176.1390  135.5060 O   0  0  0  0  0  0  0  0  0  0  0  0
  191.0710  177.2680  141.1620 O   0  0  0  0  0  0  0  0  0  0  0  0
  188.3050  178.4110  141.4940 C   0  0  1  0  0  3  0  0  0  0  0  0
  187.3620  177.2310  136.8760 C   0  0  0  0  0  2  0  0  0  0  0  0
  188.0590  178.2580  139.0950 C   0  0  1  0  0  3  0  0  0  0  0  0
  187.2810  177.2770  143.4040 N   0  0  0  0  0  0  0  0  0  0  0  0
  187.5700  177.2070  144.6550 C   0  0  0  0  0  3  0  0  0  0  0  0
  184.9730  179.0000  146.4950 C   0  0  0  0  0  2  0  0  0  0  0  0
  187.0650  177.8900  146.9990 C   0  0  0  0  0  2  0  0  0  0  0  0
  186.5070  177.3210  145.7030 C   0  0  0  0  0  3  0  0  0  0  0  0
  186.2240  179.1060  147.3390 C   0  0  0  0  0  2  0  0  0  0  0  0
  185.3940  178.2490  145.2540 C   0  0  0  0  0  2  0  0  0  0  0  0
  1 26  1  6  0  0  0
  1 27  1  0  0  0  0
  2 14  1  0  0  0  0
  3  7  1  6  0  0  0
  3 19  1  0  0  0  0
  4 23  1  6  0  0  0
  4 18  1  0  0  0  0
  5 11  1  1  0  0  0
  8 12  1  1  0  0  0
  8 15  1  0  0  0  0
  9 25  1  0  0  0  0
 11 20  1  0  0  0  0
 12 15  1  0  0  0  0
 13  9  1  0  0  0  0
 13 24  1  0  0  0  0
 14 25  1  0  0  0  0
 15  4  1  0  0  0  0
 15  5  1  0  0  0  0
 16  7  1  0  0  0  0
 16  8  1  0  0  0  0
 16  3  1  0  0  0  0
 17 10  1  0  0  0  0
 17 28  1  0  0  0  0
 18  1  1  0  0  0  0
 18 20  1  0  0  0  0
 19  5  1  0  0  0  0
 19  6  1  0  0  0  0
 20 13  1  0  0  0  0
 21 26  1  0  0  0  0
 22 10  1  0  0  0  0
 23 21  1  0  0  0  0
 24 22  1  0  0  0  0
 25 17  1  0  0  0  0
 27  2  1  0  0  0  0
 27  9  1  0  0  0  0
 28 29  2  0  0  0  0
 29 32  1  0  0  0  0
 30 33  1  0  0  0  0
 31 33  1  0  0  0  0
 32 31  1  0  0  0  0
 34 32  1  0  0  0  0
 34 30  1  0  0  0  0
M  END
>  <MODEL>
1

>  <REMARK>
 VINA RESULT:      -9.5      0.000      0.000
  Name = 
  2 active torsions:
  status: ('A' for Active; 'I' for Inactive)
    1  A    between atoms: C_17  and  N_28
    2  A    between atoms: C_29  and  C_32
                            x       y       z     vdW  Elec       q    Type
                         _______ _______ _______ _____ _____    ______ ____

>  <TORSDO>
F 2

$$$$
=
 OpenBabel11122412273D

 34 42  0  0  1  0  0  0  0  0999 V2000
  190.5970  177.2220  143.2580 C   0  0  2  0  0  3  0  0  0  0  0  0
  192.4030  176.9860  141.6880 O   0  0  0  0  0  0  0  0  0  0  0  0
  184.4360  178.8460  145.3460 C   0  0  2  0  0  3  0  0  0  0  0  0
  188.6220  177.2420  144.7230 C   0  0  1  0  0  3  0  0  0  0  0  0
  186.4630  178.4440  143.8290 C   0  0  2  0  0  3  0  0  0  0  0  0
  184.3430  179.1550  142.9770 O   0  0  0  0  0  1  0  0  0  0  0  0
  185.3230  179.7560  145.9600 O   0  0  0  0  0  0  0  0  0  0  0  0
  186.6140  177.7380  146.3390 C   0  0  1  0  0  3  0  0  0  0  0  0
  190.4750  178.1280  140.8730 C   0  0  2  0  0  3  0  0  0  0  0  0
  189.3680  176.6830  138.2390 C   0  0  0  0  0  2  0  0  0  0  0  0
  186.9430  177.8850  142.4950 C   0  0  0  0  0  2  0  0  0  0  0  0
  186.4300  176.6370  145.4780 O   0  0  0  0  0  0  0  0  0  0  0  0
  189.0190  177.6440  141.0330 C   0  0  1  0  0  3  0  0  0  0  0  0
  192.5850  177.2250  140.3170 C   0  0  0  0  0  2  0  0  0  0  0  0
  187.1840  177.7120  144.9650 C   0  0  2  0  0  0  0  0  0  0  0  0
  185.2660  178.4680  146.5360 C   0  0  2  0  0  3  0  0  0  0  0  0
  190.6100  176.3020  139.0470 C   0  0  2  0  0  3  0  0  0  0  0  0
  189.3040  177.9840  143.5610 C   0  0  2  0  0  3  0  0  0  0  0  0
  184.9460  178.3830  143.9710 C   0  0  2  0  0  3  0  0  0  0  0  0
  188.4210  178.2420  142.3080 C   0  0  2  0  0  3  0  0  0  0  0  0
  190.5670  176.5570  145.6570 C   0  0  0  0  0  2  0  0  0  0  0  0
  188.1550  176.8580  139.1460 C   0  0  0  0  0  2  0  0  0  0  0  0
  189.4240  177.3570  145.8760 O   0  0  0  0  0  0  0  0  0  0  0  0
  188.2750  178.0240  139.9110 O   0  0  0  0  0  0  0  0  0  0  0  0
  191.2420  177.5530  139.6930 C   0  0  1  0  0  3  0  0  0  0  0  0
  191.4370  177.1380  144.5310 C   0  0  0  0  0  2  0  0  0  0  0  0
  191.3650  177.8440  142.0890 C   0  0  1  0  0  3  0  0  0  0  0  0
  191.5610  175.6650  138.1710 N   0  0  0  0  0  0  0  0  0  0  0  0
  191.6580  176.0180  136.9380 C   0  0  0  0  0  3  0  0  0  0  0  0
  194.3500  173.6710  136.1700 C   0  0  0  0  0  2  0  0  0  0  0  0
  193.9910  176.0620  136.0590 C   0  0  0  0  0  2  0  0  0  0  0  0
  192.6410  175.3610  136.0200 C   0  0  0  0  0  3  0  0  0  0  0  0
  195.0210  175.0050  136.4070 C   0  0  0  0  0  2  0  0  0  0  0  0
  192.8800  173.9170  136.4170 C   0  0  0  0  0  2  0  0  0  0  0  0
  1 18  1  0  0  0  0
  1 26  1  1  0  0  0
  2 27  1  0  0  0  0
  3  7  1  6  0  0  0
  3 16  1  0  0  0  0
  4 15  1  0  0  0  0
  4 23  1  1  0  0  0
  5 11  1  6  0  0  0
  5 19  1  0  0  0  0
  5 15  1  0  0  0  0
  6 19  1  0  0  0  0
  7 16  1  0  0  0  0
  8 12  1  6  0  0  0
  8 16  1  0  0  0  0
  9 13  1  0  0  0  0
  9 27  1  0  0  0  0
 10 17  1  0  0  0  0
 10 22  1  0  0  0  0
 13 20  1  0  0  0  0
 14  2  1  0  0  0  0
 15 12  1  0  0  0  0
 15  8  1  0  0  0  0
 17 25  1  0  0  0  0
 18  4  1  0  0  0  0
 19  3  1  0  0  0  0
 20 11  1  0  0  0  0
 20 18  1  0  0  0  0
 21 23  1  0  0  0  0
 22 24  1  0  0  0  0
 24 13  1  0  0  0  0
 25 14  1  0  0  0  0
 25  9  1  0  0  0  0
 26 21  1  0  0  0  0
 27  1  1  0  0  0  0
 28 17  1  0  0  0  0
 29 28  2  0  0  0  0
 30 33  1  0  0  0  0
 30 34  1  0  0  0  0
 31 33  1  0  0  0  0
 32 31  1  0  0  0  0
 32 34  1  0  0  0  0
 32 29  1  0  0  0  0
M  END
>  <MODEL>
2

>  <REMARK>
 VINA RESULT:      -8.6      2.636      9.476
  Name = 
  2 active torsions:
  status: ('A' for Active; 'I' for Inactive)
    1  A    between atoms: C_17  and  N_28
    2  A    between atoms: C_29  and  C_32
                            x       y       z     vdW  Elec       q    Type
                         _______ _______ _______ _____ _____    ______ ____

>  <TORSDO>
F 2

$$$$
=
 OpenBabel11122412273D

 34 42  0  0  1  0  0  0  0  0999 V2000
  189.5740  177.2400  141.7700 C   0  0  2  0  0  3  0  0  0  0  0  0
  190.7770  177.0860  139.6940 O   0  0  0  0  0  0  0  0  0  0  0  0
  184.5570  179.0000  145.8560 C   0  0  2  0  0  3  0  0  0  0  0  0
  188.1560  177.2060  143.7800 C   0  0  1  0  0  3  0  0  0  0  0  0
  185.9680  178.6600  143.7420 C   0  0  2  0  0  3  0  0  0  0  0  0
  183.7770  179.6200  143.6820 O   0  0  0  0  0  1  0  0  0  0  0  0
  185.6810  179.7590  146.2470 O   0  0  0  0  0  0  0  0  0  0  0  0
  186.8040  177.6250  145.9900 C   0  0  1  0  0  3  0  0  0  0  0  0
  188.8240  178.4550  139.6520 C   0  0  2  0  0  3  0  0  0  0  0  0
  186.8170  177.4450  137.3720 C   0  0  0  0  0  2  0  0  0  0  0  0
  185.9540  178.2470  142.2760 C   0  0  0  0  0  2  0  0  0  0  0  0
  186.2490  176.6600  145.1240 O   0  0  0  0  0  0  0  0  0  0  0  0
  187.4450  178.0550  140.2140 C   0  0  1  0  0  3  0  0  0  0  0  0
  190.5550  177.4890  138.3680 C   0  0  0  0  0  2  0  0  0  0  0  0
  186.9190  177.7380  144.5110 C   0  0  2  0  0  0  0  0  0  0  0  0
  185.6660  178.4140  146.6770 C   0  0  2  0  0  3  0  0  0  0  0  0
  188.1990  176.8770  137.7010 C   0  0  2  0  0  3  0  0  0  0  0  0
  188.5250  178.0440  142.5430 C   0  0  2  0  0  3  0  0  0  0  0  0
  184.5690  178.6850  144.3500 C   0  0  2  0  0  3  0  0  0  0  0  0
  187.3330  178.5230  141.6670 C   0  0  2  0  0  3  0  0  0  0  0  0
  190.2090  176.2730  143.9740 C   0  0  0  0  0  2  0  0  0  0  0  0
  185.9660  177.5830  138.6290 C   0  0  0  0  0  2  0  0  0  0  0  0
  189.2790  177.1140  144.6250 O   0  0  0  0  0  0  0  0  0  0  0  0
  186.4380  178.6290  139.4300 O   0  0  0  0  0  0  0  0  0  0  0  0
  189.1270  177.9860  138.2380 C   0  0  1  0  0  3  0  0  0  0  0  0
  190.7490  176.9330  142.6960 C   0  0  0  0  0  2  0  0  0  0  0  0
  190.0080  177.9540  140.4880 C   0  0  1  0  0  3  0  0  0  0  0  0
  188.7630  176.2950  136.5090 N   0  0  0  0  0  0  0  0  0  0  0  0
  188.8240  175.0190  136.3660 C   0  0  0  0  0  3  0  0  0  0  0  0
  190.9560  172.6400  134.5940 C   0  0  0  0  0  2  0  0  0  0  0  0
  190.7410  175.0450  134.7730 C   0  0  0  0  0  2  0  0  0  0  0  0
  189.4090  174.4050  135.1320 C   0  0  0  0  0  3  0  0  0  0  0  0
  191.7560  173.9210  134.6880 C   0  0  0  0  0  2  0  0  0  0  0  0
  189.6670  172.9230  135.3280 C   0  0  0  0  0  2  0  0  0  0  0  0
  1 18  1  0  0  0  0
  1 26  1  1  0  0  0
  2 27  1  0  0  0  0
  3  7  1  6  0  0  0
  3 16  1  0  0  0  0
  4 15  1  0  0  0  0
  4 23  1  1  0  0  0
  5 11  1  6  0  0  0
  5 19  1  0  0  0  0
  5 15  1  0  0  0  0
  6 19  1  0  0  0  0
  7 16  1  0  0  0  0
  8 12  1  6  0  0  0
  8 16  1  0  0  0  0
  9 13  1  0  0  0  0
  9 27  1  0  0  0  0
 10 17  1  0  0  0  0
 10 22  1  0  0  0  0
 13 20  1  0  0  0  0
 14  2  1  0  0  0  0
 15 12  1  0  0  0  0
 15  8  1  0  0  0  0
 17 25  1  0  0  0  0
 18  4  1  0  0  0  0
 19  3  1  0  0  0  0
 20 11  1  0  0  0  0
 20 18  1  0  0  0  0
 21 23  1  0  0  0  0
 22 24  1  0  0  0  0
 24 13  1  0  0  0  0
 25 14  1  0  0  0  0
 25  9  1  0  0  0  0
 26 21  1  0  0  0  0
 27  1  1  0  0  0  0
 28 17  1  0  0  0  0
 29 28  2  0  0  0  0
 30 33  1  0  0  0  0
 30 34  1  0  0  0  0
 31 32  1  0  0  0  0
 32 34  1  0  0  0  0
 32 29  1  0  0  0  0
 33 31  1  0  0  0  0
M  END
>  <MODEL>
3

>  <REMARK>
 VINA RESULT:      -8.2      2.566      9.344
  Name = 
  2 active torsions:
  status: ('A' for Active; 'I' for Inactive)
    1  A    between atoms: C_17  and  N_28
    2  A    between atoms: C_29  and  C_32
                            x       y       z     vdW  Elec       q    Type
                         _______ _______ _______ _____ _____    ______ ____

>  <TORSDO>
F 2

$$$$
=
 OpenBabel11122412273D

 34 42  0  0  1  0  0  0  0  0999 V2000
  185.9060  178.4390  145.1840 C   0  0  2  0  0  3  0  0  0  0  0  0
  183.9390  178.8480  143.8650 O   0  0  0  0  0  0  0  0  0  0  0  0
  192.0550  176.1130  146.5000 C   0  0  2  0  0  3  0  0  0  0  0  0
  188.0520  178.2190  146.3660 C   0  0  1  0  0  3  0  0  0  0  0  0
  189.8980  176.7160  145.2540 C   0  0  2  0  0  3  0  0  0  0  0  0
  191.7730  175.7070  144.1610 O   0  0  0  0  0  1  0  0  0  0  0  0
  191.1600  175.3490  147.2790 O   0  0  0  0  0  0  0  0  0  0  0  0
  190.1930  177.5290  147.7180 C   0  0  1  0  0  3  0  0  0  0  0  0
  185.5770  177.4370  142.8590 C   0  0  2  0  0  3  0  0  0  0  0  0
  186.4670  178.6280  140.0230 C   0  0  0  0  0  2  0  0  0  0  0  0
  189.3060  177.2830  143.9690 C   0  0  0  0  0  2  0  0  0  0  0  0
  190.3870  178.5650  146.7810 O   0  0  0  0  0  0  0  0  0  0  0  0
  187.0880  177.7350  142.7920 C   0  0  1  0  0  3  0  0  0  0  0  0
  183.5360  178.5830  142.5460 C   0  0  0  0  0  2  0  0  0  0  0  0
  189.4420  177.5770  146.4350 C   0  0  2  0  0  0  0  0  0  0  0  0
  191.4560  176.6390  147.7700 C   0  0  2  0  0  3  0  0  0  0  0  0
  185.4080  179.1960  140.9710 C   0  0  2  0  0  3  0  0  0  0  0  0
  187.1260  177.5290  145.3500 C   0  0  2  0  0  3  0  0  0  0  0  0
  191.4160  176.5870  145.1840 C   0  0  2  0  0  3  0  0  0  0  0  0
  187.7840  177.1130  144.0050 C   0  0  2  0  0  3  0  0  0  0  0  0
  186.3580  179.1840  147.5160 C   0  0  0  0  0  2  0  0  0  0  0  0
  187.7660  178.3320  140.7650 C   0  0  0  0  0  2  0  0  0  0  0  0
  187.4150  178.2530  147.6220 O   0  0  0  0  0  0  0  0  0  0  0  0
  187.6130  177.2210  141.6020 O   0  0  0  0  0  0  0  0  0  0  0  0
  184.7270  178.0620  141.7640 C   0  0  1  0  0  3  0  0  0  0  0  0
  185.2730  178.6790  146.5530 C   0  0  0  0  0  2  0  0  0  0  0  0
  184.9100  177.8790  144.1670 C   0  0  1  0  0  3  0  0  0  0  0  0
  184.4280  179.9170  140.1980 N   0  0  0  0  0  0  0  0  0  0  0  0
  183.7510  179.3260  139.2790 C   0  0  0  0  0  3  0  0  0  0  0  0
  180.4070  180.6630  138.6660 C   0  0  0  0  0  2  0  0  0  0  0  0
  181.9310  179.1220  137.5870 C   0  0  0  0  0  2  0  0  0  0  0  0
  182.7320  180.0670  138.4700 C   0  0  0  0  0  3  0  0  0  0  0  0
  180.4680  179.3480  137.9200 C   0  0  0  0  0  2  0  0  0  0  0  0
  181.7400  180.7850  139.3660 C   0  0  0  0  0  2  0  0  0  0  0  0
  1 18  1  0  0  0  0
  1 26  1  1  0  0  0
  2 27  1  0  0  0  0
  3  7  1  1  0  0  0
  3 16  1  0  0  0  0
  4 15  1  0  0  0  0
  4 23  1  1  0  0  0
  5 11  1  6  0  0  0
  5 15  1  0  0  0  0
  6 19  1  0  0  0  0
  7 16  1  0  0  0  0
  8 12  1  6  0  0  0
  8 16  1  0  0  0  0
  9 27  1  0  0  0  0
 10 22  1  0  0  0  0
 10 17  1  0  0  0  0
 11 20  1  0  0  0  0
 13  9  1  0  0  0  0
 13 20  1  0  0  0  0
 14  2  1  0  0  0  0
 15 12  1  0  0  0  0
 15  8  1  0  0  0  0
 17 25  1  0  0  0  0
 18  4  1  0  0  0  0
 19  5  1  0  0  0  0
 19  3  1  0  0  0  0
 20 18  1  0  0  0  0
 21 23  1  0  0  0  0
 22 24  1  0  0  0  0
 24 13  1  0  0  0  0
 25 14  1  0  0  0  0
 25  9  1  0  0  0  0
 26 21  1  0  0  0  0
 27  1  1  0  0  0  0
 28 17  1  0  0  0  0
 29 28  2  0  0  0  0
 30 34  1  0  0  0  0
 31 33  1  0  0  0  0
 31 32  1  0  0  0  0
 32 29  1  0  0  0  0
 32 34  1  0  0  0  0
 33 30  1  0  0  0  0
M  END
>  <MODEL>
4

>  <REMARK>
 VINA RESULT:      -8.1      4.790      8.553
  Name = 
  2 active torsions:
  status: ('A' for Active; 'I' for Inactive)
    1  A    between atoms: C_17  and  N_28
    2  A    between atoms: C_29  and  C_32
                            x       y       z     vdW  Elec       q    Type
                         _______ _______ _______ _____ _____    ______ ____

>  <TORSDO>
F 2

$$$$
=
 OpenBabel11122412273D

 34 42  0  0  1  0  0  0  0  0999 V2000
  182.2980  178.5950  143.4440 C   0  0  2  0  0  3  0  0  0  0  0  0
  183.4520  179.0260  145.5080 O   0  0  0  0  0  0  0  0  0  0  0  0
  181.6150  177.8900  136.8110 C   0  0  2  0  0  3  0  0  0  0  0  0
  181.2630  177.9020  141.3230 C   0  0  1  0  0  3  0  0  0  0  0  0
  182.6600  178.2460  139.1250 C   0  0  2  0  0  3  0  0  0  0  0  0
  183.9710  178.1450  137.1250 O   0  0  0  0  0  1  0  0  0  0  0  0
  180.9070  179.0580  137.1680 O   0  0  0  0  0  0  0  0  0  0  0  0
  180.1240  177.6400  138.9730 C   0  0  1  0  0  3  0  0  0  0  0  0
  184.7210  179.3980  143.5240 C   0  0  2  0  0  3  0  0  0  0  0  0
  187.4040  177.6520  143.5890 C   0  0  0  0  0  2  0  0  0  0  0  0
  183.8240  177.8970  140.0440 C   0  0  0  0  0  2  0  0  0  0  0  0
  180.9180  176.5460  139.3770 O   0  0  0  0  0  0  0  0  0  0  0  0
  184.8190  178.4210  142.3340 C   0  0  1  0  0  3  0  0  0  0  0  0
  184.7730  179.3160  145.8840 C   0  0  0  0  0  2  0  0  0  0  0  0
  181.3510  177.8210  139.7950 C   0  0  2  0  0  0  0  0  0  0  0  0
  180.2580  177.8350  137.4450 C   0  0  2  0  0  3  0  0  0  0  0  0
  186.3380  177.7440  144.6810 C   0  0  2  0  0  3  0  0  0  0  0  0
  182.3180  178.8400  141.9320 C   0  0  2  0  0  3  0  0  0  0  0  0
  182.8210  177.6420  137.7330 C   0  0  2  0  0  3  0  0  0  0  0  0
  183.7390  178.7630  141.3050 C   0  0  2  0  0  3  0  0  0  0  0  0
  179.9100  177.9630  143.1370 C   0  0  0  0  0  2  0  0  0  0  0  0
  186.7750  177.3780  142.2270 C   0  0  0  0  0  2  0  0  0  0  0  0
  179.9850  178.2960  141.7660 O   0  0  0  0  0  0  0  0  0  0  0  0
  186.0930  178.5080  141.7630 O   0  0  0  0  0  0  0  0  0  0  0  0
  185.6760  179.1370  144.6780 C   0  0  1  0  0  3  0  0  0  0  0  0
  180.8800  178.8180  143.9660 C   0  0  0  0  0  2  0  0  0  0  0  0
  183.3340  179.4520  144.1750 C   0  0  1  0  0  3  0  0  0  0  0  0
  186.9550  177.4920  145.9600 N   0  0  0  0  0  0  0  0  0  0  0  0
  188.2110  177.2310  146.0430 C   0  0  0  0  0  3  0  0  0  0  0  0
  190.2430  178.1640  148.9320 C   0  0  0  0  0  2  0  0  0  0  0  0
  190.2910  176.4810  147.1930 C   0  0  0  0  0  2  0  0  0  0  0  0
  188.8600  176.9660  147.3660 C   0  0  0  0  0  3  0  0  0  0  0  0
  191.1700  177.4180  147.9990 C   0  0  0  0  0  2  0  0  0  0  0  0
  188.9180  178.2260  148.2080 C   0  0  0  0  0  2  0  0  0  0  0  0
  1 26  1  1  0  0  0
  1 27  1  0  0  0  0
  2 14  1  0  0  0  0
  3  7  1  1  0  0  0
  3 16  1  0  0  0  0
  3 19  1  0  0  0  0
  4 23  1  6  0  0  0
  4 18  1  0  0  0  0
  5 15  1  0  0  0  0
  5 11  1  1  0  0  0
  6 19  1  0  0  0  0
  7 16  1  0  0  0  0
  8 12  1  6  0  0  0
  8 15  1  0  0  0  0
  9 27  1  0  0  0  0
  9 25  1  0  0  0  0
 10 17  1  0  0  0  0
 11 20  1  0  0  0  0
 12 15  1  0  0  0  0
 13  9  1  0  0  0  0
 15  4  1  0  0  0  0
 16  8  1  0  0  0  0
 17 28  1  0  0  0  0
 18  1  1  0  0  0  0
 19  5  1  0  0  0  0
 20 18  1  0  0  0  0
 20 13  1  0  0  0  0
 21 26  1  0  0  0  0
 22 10  1  0  0  0  0
 23 21  1  0  0  0  0
 24 22  1  0  0  0  0
 24 13  1  0  0  0  0
 25 17  1  0  0  0  0
 25 14  1  0  0  0  0
 27  2  1  0  0  0  0
 28 29  2  0  0  0  0
 29 32  1  0  0  0  0
 31 32  1  0  0  0  0
 31 33  1  0  0  0  0
 32 34  1  0  0  0  0
 33 30  1  0  0  0  0
 34 30  1  0  0  0  0
M  END
>  <MODEL>
5

>  <REMARK>
 VINA RESULT:      -7.9      5.741      8.333
  Name = 
  2 active torsions:
  status: ('A' for Active; 'I' for Inactive)
    1  A    between atoms: C_17  and  N_28
    2  A    between atoms: C_29  and  C_32
                            x       y       z     vdW  Elec       q    Type
                         _______ _______ _______ _____ _____    ______ ____

>  <TORSDO>
F 2

$$$$
=
 OpenBabel11122412273D

 34 42  0  0  1  0  0  0  0  0999 V2000
  183.5640  177.9230  140.9870 C   0  0  2  0  0  3  0  0  0  0  0  0
  183.7840  178.5430  143.3000 O   0  0  0  0  0  0  0  0  0  0  0  0
  185.4760  177.2200  134.5990 C   0  0  2  0  0  3  0  0  0  0  0  0
  183.5250  177.0710  138.6800 C   0  0  1  0  0  3  0  0  0  0  0  0
  185.5220  177.7390  137.1090 C   0  0  2  0  0  3  0  0  0  0  0  0
  187.4580  177.9500  135.7190 O   0  0  0  0  0  1  0  0  0  0  0  0
  184.4690  178.2090  134.6130 O   0  0  0  0  0  0  0  0  0  0  0  0
  183.3870  176.6260  136.0970 C   0  0  1  0  0  3  0  0  0  0  0  0
  185.5820  179.2070  141.8810 C   0  0  2  0  0  3  0  0  0  0  0  0
  188.3520  178.0530  142.9980 C   0  0  0  0  0  2  0  0  0  0  0  0
  186.3200  177.6210  138.4020 C   0  0  0  0  0  2  0  0  0  0  0  0
  184.1830  175.7120  136.8190 O   0  0  0  0  0  0  0  0  0  0  0  0
  186.2960  178.2950  140.8630 C   0  0  1  0  0  3  0  0  0  0  0  0
  184.7940  179.0920  144.1050 C   0  0  0  0  0  2  0  0  0  0  0  0
  184.1720  177.0410  137.2910 C   0  0  2  0  0  0  0  0  0  0  0  0
  184.0210  176.8730  134.7090 C   0  0  2  0  0  3  0  0  0  0  0  0
  186.9670  177.9010  143.6310 C   0  0  2  0  0  3  0  0  0  0  0  0
  184.0790  178.1960  139.5710 C   0  0  2  0  0  3  0  0  0  0  0  0
  186.2910  177.2080  135.9040 C   0  0  2  0  0  3  0  0  0  0  0  0
  185.6150  178.4260  139.4980 C   0  0  2  0  0  3  0  0  0  0  0  0
  181.6250  176.8160  139.8850 C   0  0  0  0  0  2  0  0  0  0  0  0
  188.3240  177.6800  141.5200 C   0  0  0  0  0  2  0  0  0  0  0  0
  182.1220  177.1850  138.6150 O   0  0  0  0  0  0  0  0  0  0  0  0
  187.6450  178.6550  140.7790 O   0  0  0  0  0  0  0  0  0  0  0  0
  186.0880  179.1270  143.3130 C   0  0  1  0  0  3  0  0  0  0  0  0
  182.0390  177.8380  140.9560 C   0  0  0  0  0  2  0  0  0  0  0  0
  184.0730  178.9610  141.9900 C   0  0  1  0  0  3  0  0  0  0  0  0
  187.1180  177.7570  145.0580 N   0  0  0  0  0  0  0  0  0  0  0  0
  188.1230  177.1260  145.5520 C   0  0  0  0  0  3  0  0  0  0  0  0
  188.3420  178.4000  148.9690 C   0  0  0  0  0  2  0  0  0  0  0  0
  189.7410  177.1390  147.4480 C   0  0  0  0  0  2  0  0  0  0  0  0
  188.2880  176.9700  147.0320 C   0  0  0  0  0  3  0  0  0  0  0  0
  189.7700  178.2330  148.4990 C   0  0  0  0  0  2  0  0  0  0  0  0
  187.4870  178.0160  147.7850 C   0  0  0  0  0  2  0  0  0  0  0  0
  1 26  1  6  0  0  0
  1 27  1  0  0  0  0
  2 14  1  0  0  0  0
  3  7  1  1  0  0  0
  3 16  1  0  0  0  0
  3 19  1  0  0  0  0
  4 23  1  6  0  0  0
  4 18  1  0  0  0  0
  5 15  1  0  0  0  0
  5 11  1  1  0  0  0
  6 19  1  0  0  0  0
  7 16  1  0  0  0  0
  8 12  1  1  0  0  0
  8 15  1  0  0  0  0
  9 27  1  0  0  0  0
  9 25  1  0  0  0  0
 10 17  1  0  0  0  0
 11 20  1  0  0  0  0
 12 15  1  0  0  0  0
 13  9  1  0  0  0  0
 15  4  1  0  0  0  0
 16  8  1  0  0  0  0
 17 28  1  0  0  0  0
 18  1  1  0  0  0  0
 19  5  1  0  0  0  0
 20 18  1  0  0  0  0
 20 13  1  0  0  0  0
 21 26  1  0  0  0  0
 22 10  1  0  0  0  0
 23 21  1  0  0  0  0
 24 13  1  0  0  0  0
 24 22  1  0  0  0  0
 25 17  1  0  0  0  0
 25 14  1  0  0  0  0
 27  2  1  0  0  0  0
 28 29  2  0  0  0  0
 29 32  1  0  0  0  0
 31 33  1  0  0  0  0
 32 31  1  0  0  0  0
 32 34  1  0  0  0  0
 33 30  1  0  0  0  0
 34 30  1  0  0  0  0
M  END
>  <MODEL>
6

>  <REMARK>
 VINA RESULT:      -7.6      4.022      5.778
  Name = 
  2 active torsions:
  status: ('A' for Active; 'I' for Inactive)
    1  A    between atoms: C_17  and  N_28
    2  A    between atoms: C_29  and  C_32
                            x       y       z     vdW  Elec       q    Type
                         _______ _______ _______ _____ _____    ______ ____

>  <TORSDO>
F 2

$$$$
=
 OpenBabel11122412273D

 34 42  0  0  1  0  0  0  0  0999 V2000
  187.8190  177.6740  141.7200 C   0  0  2  0  0  3  0  0  0  0  0  0
  187.0210  177.9730  139.4720 O   0  0  0  0  0  0  0  0  0  0  0  0
  187.7810  178.3010  148.3960 C   0  0  2  0  0  3  0  0  0  0  0  0
  188.4130  177.1830  144.0560 C   0  0  1  0  0  3  0  0  0  0  0  0
  187.0750  178.4400  145.9350 C   0  0  2  0  0  3  0  0  0  0  0  0
  185.6790  179.2160  147.7170 O   0  0  0  0  0  1  0  0  0  0  0  0
  188.8660  179.0700  147.9240 O   0  0  0  0  0  0  0  0  0  0  0  0
  189.2370  177.1090  146.5470 C   0  0  1  0  0  3  0  0  0  0  0  0
  185.8250  179.1660  141.1560 C   0  0  2  0  0  3  0  0  0  0  0  0
  182.7190  178.4000  141.0560 C   0  0  0  0  0  2  0  0  0  0  0  0
  185.9250  178.2830  144.9470 C   0  0  0  0  0  2  0  0  0  0  0  0
  188.1470  176.2640  146.2530 O   0  0  0  0  0  0  0  0  0  0  0  0
  185.3220  178.5670  142.4840 C   0  0  1  0  0  3  0  0  0  0  0  0
  185.9050  178.5760  138.8700 C   0  0  0  0  0  2  0  0  0  0  0  0
  188.2030  177.4810  145.5440 C   0  0  2  0  0  0  0  0  0  0  0  0
  189.0770  177.6750  147.9770 C   0  0  2  0  0  3  0  0  0  0  0  0
  183.8230  177.8980  140.1230 C   0  0  2  0  0  3  0  0  0  0  0  0
  187.7840  178.2460  143.1400 C   0  0  2  0  0  3  0  0  0  0  0  0
  186.6270  178.2490  147.3800 C   0  0  2  0  0  3  0  0  0  0  0  0
  186.3840  178.7690  143.5680 C   0  0  2  0  0  3  0  0  0  0  0  0
  189.8230  176.3990  142.4680 C   0  0  0  0  0  2  0  0  0  0  0  0
  183.1260  178.2530  142.5180 C   0  0  0  0  0  2  0  0  0  0  0  0
  189.7760  177.0390  143.7260 O   0  0  0  0  0  0  0  0  0  0  0  0
  184.1190  179.1820  142.8480 O   0  0  0  0  0  0  0  0  0  0  0  0
  184.9170  178.9710  139.9520 C   0  0  1  0  0  3  0  0  0  0  0  0
  189.2590  177.3090  141.3650 C   0  0  0  0  0  2  0  0  0  0  0  0
  187.1880  178.6280  140.7040 C   0  0  1  0  0  3  0  0  0  0  0  0
  183.2430  177.5750  138.8430 N   0  0  0  0  0  0  0  0  0  0  0  0
  182.0770  178.0120  138.5200 C   0  0  0  0  0  3  0  0  0  0  0  0
  182.0140  177.9740  134.8680 C   0  0  0  0  0  2  0  0  0  0  0  0
  180.6380  178.8390  136.6610 C   0  0  0  0  0  2  0  0  0  0  0  0
  181.4660  177.6810  137.1950 C   0  0  0  0  0  3  0  0  0  0  0  0
  181.1800  179.1650  135.2830 C   0  0  0  0  0  2  0  0  0  0  0  0
  182.5340  177.3850  136.1580 C   0  0  0  0  0  2  0  0  0  0  0  0
  1 26  1  6  0  0  0
  1 18  1  0  0  0  0
  2 27  1  0  0  0  0
  3  7  1  6  0  0  0
  4 23  1  1  0  0  0
  4 15  1  0  0  0  0
  5 11  1  6  0  0  0
  5 19  1  0  0  0  0
  7 16  1  0  0  0  0
  8 12  1  1  0  0  0
  8 16  1  0  0  0  0
  9 13  1  0  0  0  0
 10 22  1  0  0  0  0
 13 24  1  0  0  0  0
 13 20  1  0  0  0  0
 14  2  1  0  0  0  0
 14 25  1  0  0  0  0
 15  5  1  0  0  0  0
 15 12  1  0  0  0  0
 15  8  1  0  0  0  0
 16  3  1  0  0  0  0
 17 10  1  0  0  0  0
 18 20  1  0  0  0  0
 18  4  1  0  0  0  0
 19  6  1  0  0  0  0
 19  3  1  0  0  0  0
 20 11  1  0  0  0  0
 21 23  1  0  0  0  0
 22 24  1  0  0  0  0
 25 17  1  0  0  0  0
 25  9  1  0  0  0  0
 26 21  1  0  0  0  0
 27  9  1  0  0  0  0
 27  1  1  0  0  0  0
 28 17  1  0  0  0  0
 29 28  2  0  0  0  0
 30 33  1  0  0  0  0
 30 34  1  0  0  0  0
 31 32  1  0  0  0  0
 32 29  1  0  0  0  0
 33 31  1  0  0  0  0
 34 32  1  0  0  0  0
M  END
>  <MODEL>
7

>  <REMARK>
 VINA RESULT:      -7.4      4.361      9.144
  Name = 
  2 active torsions:
  status: ('A' for Active; 'I' for Inactive)
    1  A    between atoms: C_17  and  N_28
    2  A    between atoms: C_29  and  C_32
                            x       y       z     vdW  Elec       q    Type
                         _______ _______ _______ _____ _____    ______ ____

>  <TORSDO>
F 2

$$$$
=
 OpenBabel11122412273D

 34 42  0  0  1  0  0  0  0  0999 V2000
  187.6270  177.7340  140.2280 C   0  0  2  0  0  3  0  0  0  0  0  0
  185.8300  178.4600  138.8050 O   0  0  0  0  0  0  0  0  0  0  0  0
  191.0230  177.0150  145.9640 C   0  0  2  0  0  3  0  0  0  0  0  0
  189.2760  176.7990  141.7950 C   0  0  1  0  0  3  0  0  0  0  0  0
  189.1850  177.6290  144.2860 C   0  0  2  0  0  3  0  0  0  0  0  0
  188.9530  178.0050  146.6380 O   0  0  0  0  0  1  0  0  0  0  0  0
  191.7820  177.8850  145.1520 O   0  0  0  0  0  0  0  0  0  0  0  0
  191.2360  176.2460  143.4500 C   0  0  1  0  0  3  0  0  0  0  0  0
  185.7580  179.2700  141.0470 C   0  0  2  0  0  3  0  0  0  0  0  0
  182.9740  178.4770  142.4160 C   0  0  0  0  0  2  0  0  0  0  0  0
  187.6850  177.6500  144.0180 C   0  0  0  0  0  2  0  0  0  0  0  0
  190.0790  175.4550  143.6090 O   0  0  0  0  0  0  0  0  0  0  0  0
  185.9460  178.4070  142.3110 C   0  0  1  0  0  3  0  0  0  0  0  0
  184.6200  179.1490  138.9810 C   0  0  0  0  0  2  0  0  0  0  0  0
  189.8730  176.7900  143.2060 C   0  0  2  0  0  0  0  0  0  0  0  0
  191.8700  176.5110  144.8350 C   0  0  2  0  0  3  0  0  0  0  0  0
  183.4070  178.1940  140.9760 C   0  0  2  0  0  3  0  0  0  0  0  0
  188.3630  178.0110  141.5420 C   0  0  2  0  0  3  0  0  0  0  0  0
  189.5140  177.1440  145.6940 C   0  0  2  0  0  3  0  0  0  0  0  0
  187.4230  178.4100  142.7140 C   0  0  2  0  0  3  0  0  0  0  0  0
  189.6160  176.3770  139.5970 C   0  0  0  0  0  2  0  0  0  0  0  0
  184.0500  178.0490  143.4080 C   0  0  0  0  0  2  0  0  0  0  0  0
  190.2660  176.7510  140.7940 O   0  0  0  0  0  0  0  0  0  0  0  0
  185.1500  178.9130  143.3440 O   0  0  0  0  0  0  0  0  0  0  0  0
  184.3520  179.3010  140.4660 C   0  0  1  0  0  3  0  0  0  0  0  0
  188.6520  177.4770  139.1260 C   0  0  0  0  0  2  0  0  0  0  0  0
  186.6530  178.8600  139.8710 C   0  0  1  0  0  3  0  0  0  0  0  0
  182.2340  178.1210  140.1400 N   0  0  0  0  0  0  0  0  0  0  0  0
  181.1640  178.7600  140.4540 C   0  0  0  0  0  3  0  0  0  0  0  0
  179.3170  177.7270  137.4760 C   0  0  0  0  0  2  0  0  0  0  0  0
  179.9260  179.8050  138.5590 C   0  0  0  0  0  2  0  0  0  0  0  0
  179.9410  178.6900  139.5940 C   0  0  0  0  0  3  0  0  0  0  0  0
  179.7830  179.1400  137.2030 C   0  0  0  0  0  2  0  0  0  0  0  0
  179.8810  177.3780  138.8330 C   0  0  0  0  0  2  0  0  0  0  0  0
  1 26  1  6  0  0  0
  1 18  1  0  0  0  0
  2 14  1  0  0  0  0
  2 27  1  0  0  0  0
  3  7  1  6  0  0  0
  4 23  1  6  0  0  0
  4 15  1  0  0  0  0
  5 11  1  6  0  0  0
  5 19  1  0  0  0  0
  8 12  1  1  0  0  0
  8 16  1  0  0  0  0
  9 13  1  0  0  0  0
 10 22  1  0  0  0  0
 13 20  1  0  0  0  0
 13 24  1  0  0  0  0
 14 25  1  0  0  0  0
 15  8  1  0  0  0  0
 15 12  1  0  0  0  0
 15  5  1  0  0  0  0
 16  7  1  0  0  0  0
 16  3  1  0  0  0  0
 17 10  1  0  0  0  0
 18  4  1  0  0  0  0
 18 20  1  0  0  0  0
 19  3  1  0  0  0  0
 19  6  1  0  0  0  0
 20 11  1  0  0  0  0
 21 23  1  0  0  0  0
 24 22  1  0  0  0  0
 25 17  1  0  0  0  0
 25  9  1  0  0  0  0
 26 21  1  0  0  0  0
 27  1  1  0  0  0  0
 27  9  1  0  0  0  0
 28 29  2  0  0  0  0
 28 17  1  0  0  0  0
 30 34  1  0  0  0  0
 31 32  1  0  0  0  0
 32 29  1  0  0  0  0
 33 30  1  0  0  0  0
 33 31  1  0  0  0  0
 34 32  1  0  0  0  0
M  END
>  <MODEL>
8

>  <REMARK>
 VINA RESULT:      -7.4      3.947      7.384
  Name = 
  2 active torsions:
  status: ('A' for Active; 'I' for Inactive)
    1  A    between atoms: C_17  and  N_28
    2  A    between atoms: C_29  and  C_32
                            x       y       z     vdW  Elec       q    Type
                         _______ _______ _______ _____ _____    ______ ____

>  <TORSDO>
F 2

$$$$
=
 OpenBabel11122412273D

 34 42  0  0  1  0  0  0  0  0999 V2000
  186.5320  178.2190  141.3760 C   0  0  2  0  0  3  0  0  0  0  0  0
  188.9080  177.8570  141.3550 O   0  0  0  0  0  0  0  0  0  0  0  0
  180.4760  179.4570  138.7780 C   0  0  2  0  0  3  0  0  0  0  0  0
  184.0760  178.3260  141.2750 C   0  0  1  0  0  3  0  0  0  0  0  0
  182.9860  178.9770  138.9750 C   0  0  2  0  0  3  0  0  0  0  0  0
  181.8790  179.1710  136.8630 O   0  0  0  0  0  1  0  0  0  0  0  0
  180.8350  180.5980  139.5270 O   0  0  0  0  0  0  0  0  0  0  0  0
  181.5240  178.9230  141.1390 C   0  0  1  0  0  3  0  0  0  0  0  0
  187.9480  178.5000  139.2690 C   0  0  2  0  0  3  0  0  0  0  0  0
  188.6390  176.3290  137.0200 C   0  0  0  0  0  2  0  0  0  0  0  0
  184.1610  178.1830  138.4180 C   0  0  0  0  0  2  0  0  0  0  0  0
  181.8610  177.6320  140.6820 O   0  0  0  0  0  0  0  0  0  0  0  0
  186.6840  177.8780  138.6420 C   0  0  1  0  0  3  0  0  0  0  0  0
  189.9090  177.7820  140.3730 C   0  0  0  0  0  2  0  0  0  0  0  0
  182.8180  178.6430  140.4600 C   0  0  2  0  0  0  0  0  0  0  0  0
  180.3760  179.4900  140.2730 C   0  0  2  0  0  3  0  0  0  0  0  0
  189.0990  176.3240  138.4790 C   0  0  2  0  0  3  0  0  0  0  0  0
  185.3630  178.8520  140.6160 C   0  0  2  0  0  3  0  0  0  0  0  0
  181.7040  178.7490  138.1820 C   0  0  2  0  0  3  0  0  0  0  0  0
  185.4540  178.6800  139.0730 C   0  0  2  0  0  3  0  0  0  0  0  0
  184.9980  178.1530  143.3360 C   0  0  0  0  0  2  0  0  0  0  0  0
  187.1340  176.5530  136.9190 C   0  0  0  0  0  2  0  0  0  0  0  0
  184.0000  178.8210  142.5930 O   0  0  0  0  0  0  0  0  0  0  0  0
  186.8090  177.8740  137.2480 O   0  0  0  0  0  0  0  0  0  0  0  0
  189.2530  177.7660  139.0050 C   0  0  1  0  0  3  0  0  0  0  0  0
  186.4020  178.5570  142.8600 C   0  0  0  0  0  2  0  0  0  0  0  0
  187.8840  178.6390  140.7950 C   0  0  1  0  0  3  0  0  0  0  0  0
  190.3590  175.6280  138.5700 N   0  0  0  0  0  0  0  0  0  0  0  0
  190.9750  175.2440  137.5090 C   0  0  0  0  0  3  0  0  0  0  0  0
  194.5590  174.8850  136.9000 C   0  0  0  0  0  2  0  0  0  0  0  0
  192.5320  173.6810  136.3490 C   0  0  0  0  0  2  0  0  0  0  0  0
  192.2820  174.5190  137.5930 C   0  0  0  0  0  3  0  0  0  0  0  0
  193.8730  174.1190  135.7900 C   0  0  0  0  0  2  0  0  0  0  0  0
  193.4400  175.4910  137.7130 C   0  0  0  0  0  2  0  0  0  0  0  0
  1 26  1  1  0  0  0
  3  7  1  1  0  0  0
  3 16  1  0  0  0  0
  4 23  1  1  0  0  0
  5 11  1  6  0  0  0
  5 15  1  0  0  0  0
  6 19  1  0  0  0  0
  7 16  1  0  0  0  0
  8 12  1  6  0  0  0
  9 27  1  0  0  0  0
 10 17  1  0  0  0  0
 11 20  1  0  0  0  0
 13 20  1  0  0  0  0
 13  9  1  0  0  0  0
 14  2  1  0  0  0  0
 15 12  1  0  0  0  0
 15  8  1  0  0  0  0
 15  4  1  0  0  0  0
 16  8  1  0  0  0  0
 17 28  1  0  0  0  0
 17 25  1  0  0  0  0
 18  4  1  0  0  0  0
 18  1  1  0  0  0  0
 19  3  1  0  0  0  0
 19  5  1  0  0  0  0
 20 18  1  0  0  0  0
 22 10  1  0  0  0  0
 22 24  1  0  0  0  0
 23 21  1  0  0  0  0
 24 13  1  0  0  0  0
 25  9  1  0  0  0  0
 25 14  1  0  0  0  0
 26 21  1  0  0  0  0
 27  2  1  0  0  0  0
 27  1  1  0  0  0  0
 29 32  1  0  0  0  0
 29 28  2  0  0  0  0
 30 34  1  0  0  0  0
 31 32  1  0  0  0  0
 32 34  1  0  0  0  0
 33 31  1  0  0  0  0
 33 30  1  0  0  0  0
M  END
>  <MODEL>
9

>  <REMARK>
 VINA RESULT:      -7.3      3.480      9.291
  Name = 
  2 active torsions:
  status: ('A' for Active; 'I' for Inactive)
    1  A    between atoms: C_17  and  N_28
    2  A    between atoms: C_29  and  C_32
                            x       y       z     vdW  Elec       q    Type
                         _______ _______ _______ _____ _____    ______ ____

>  <TORSDO>
F 2

$$$$
