=
 OpenBabel11122410223D

 30 35  0  0  1  0  0  0  0  0999 V2000
  189.0580  177.4520  143.0350 C   0  0  1  0  0  3  0  0  0  0  0  0
  191.2730  177.2530  144.3140 C   0  0  0  0  0  0  0  0  0  0  0  0
  187.0800  177.4700  146.7280 N   0  0  0  0  0  2  0  0  0  0  0  0
  187.7450  178.1900  143.3240 C   0  0  1  0  0  3  0  0  0  0  0  0
  189.7760  178.1510  142.0430 O   0  0  0  0  0  0  0  0  0  0  0  0
  187.1150  178.5970  139.7280 O   0  0  0  0  0  0  0  0  0  0  0  0
  184.5730  178.1660  142.6050 C   0  0  1  0  0  3  0  0  0  0  0  0
  187.7060  178.3480  140.8140 C   0  0  0  0  0  0  0  0  0  0  0  0
  184.4990  177.9970  144.1300 C   0  0  2  0  0  3  0  0  0  0  0  0
  185.7500  177.9080  146.3380 C   0  0  1  0  0  3  0  0  0  0  0  0
  189.1500  177.9350  140.7920 C   0  0  2  0  0  3  0  0  0  0  0  0
  187.0080  178.4450  142.0690 N   0  0  0  0  0  0  0  0  0  0  0  0
  191.9660  177.0320  145.5060 C   0  0  0  0  0  3  0  0  0  0  0  0
  183.3880  178.9190  144.5830 C   0  0  0  0  0  2  0  0  0  0  0  0
  183.2140  178.6970  142.1740 C   0  0  0  0  0  2  0  0  0  0  0  0
  192.0090  177.4390  143.1500 O   0  0  0  0  0  1  0  0  0  0  0  0
  187.6570  176.8540  145.5370 C   0  0  1  0  0  3  0  0  0  0  0  0
  191.2750  176.7910  146.6920 C   0  0  0  0  0  3  0  0  0  0  0  0
  189.8580  177.2700  144.3060 C   0  0  0  0  0  0  0  0  0  0  0  0
  186.9020  177.3780  144.3080 C   0  0  1  0  0  3  0  0  0  0  0  0
  185.3640  179.1270  147.1530 C   0  0  0  0  0  1  0  0  0  0  0  0
  185.8130  178.2580  144.8660 C   0  0  1  0  0  3  0  0  0  0  0  0
  182.4020  178.9240  143.4370 C   0  0  0  0  0  2  0  0  0  0  0  0
  185.7290  180.4790  142.6910 C   0  0  0  0  0  1  0  0  0  0  0  0
  189.8810  176.7620  146.6880 C   0  0  0  0  0  3  0  0  0  0  0  0
  189.1630  177.0040  145.5100 C   0  0  0  0  0  0  0  0  0  0  0  0
  185.6870  179.0870  142.0660 C   0  0  2  0  0  3  0  0  0  0  0  0
  189.3160  176.4960  140.2960 C   0  0  0  0  0  2  0  0  0  0  0  0
  190.1250  177.1320  138.0230 C   0  0  0  0  0  1  0  0  0  0  0  0
  190.4610  176.3890  139.3020 C   0  0  0  0  0  2  0  0  0  0  0  0
  1  5  1  6  0  0  0
  1  4  1  0  0  0  0
  1 19  1  0  0  0  0
  2 13  1  0  0  0  0
  4 12  1  6  0  0  0
  4 20  1  0  0  0  0
  6  8  2  0  0  0  0
  7 15  1  1  0  0  0
  7  9  1  0  0  0  0
  8 12  1  0  0  0  0
  9 14  1  1  0  0  0
  9 22  1  0  0  0  0
 10  3  1  0  0  0  0
 10 21  1  1  0  0  0
 11 28  1  1  0  0  0
 11  8  1  0  0  0  0
 11  5  1  0  0  0  0
 13 18  2  0  0  0  0
 15 23  1  0  0  0  0
 16  2  1  0  0  0  0
 17 26  1  6  0  0  0
 17  3  1  0  0  0  0
 19  2  2  0  0  0  0
 19 26  1  0  0  0  0
 20 22  1  0  0  0  0
 20 17  1  0  0  0  0
 22 10  1  0  0  0  0
 23 14  1  0  0  0  0
 25 18  1  0  0  0  0
 26 25  2  0  0  0  0
 27 12  1  0  0  0  0
 27  7  1  0  0  0  0
 27 24  1  0  0  0  0
 29 30  1  0  0  0  0
 30 28  1  0  0  0  0
M  END
>  <MODEL>
1

>  <REMARK>
 VINA RESULT:      -8.4      0.000      0.000
  Name = 
  2 active torsions:
  status: ('A' for Active; 'I' for Inactive)
    1  A    between atoms: C_11  and  C_28
    2  A    between atoms: C_28  and  C_30
                            x       y       z     vdW  Elec       q    Type
                         _______ _______ _______ _____ _____    ______ ____

>  <TORSDO>
F 2

$$$$
=
 OpenBabel11122410223D

 30 35  0  0  1  0  0  0  0  0999 V2000
  187.3800  178.1850  140.1260 C   0  0  1  0  0  3  0  0  0  0  0  0
  185.0330  178.2200  139.0910 C   0  0  0  0  0  0  0  0  0  0  0  0
  185.5780  178.5070  143.8950 N   0  0  0  0  0  2  0  0  0  0  0  0
  187.9440  177.5900  141.4220 C   0  0  1  0  0  3  0  0  0  0  0  0
  187.7720  177.3800  139.0360 O   0  0  0  0  0  0  0  0  0  0  0  0
  191.2230  177.1030  139.8400 O   0  0  0  0  0  0  0  0  0  0  0  0
  190.4020  177.8930  143.5320 C   0  0  1  0  0  3  0  0  0  0  0  0
  189.9920  177.3360  139.9850 C   0  0  0  0  0  0  0  0  0  0  0  0
  189.2130  178.1290  144.4750 C   0  0  2  0  0  3  0  0  0  0  0  0
  186.6920  178.1840  144.7720 C   0  0  1  0  0  3  0  0  0  0  0  0
  189.1440  177.6070  138.7750 C   0  0  2  0  0  3  0  0  0  0  0  0
  189.3980  177.3580  141.2950 N   0  0  0  0  0  0  0  0  0  0  0  0
  183.6570  178.4200  139.2190 C   0  0  0  0  0  3  0  0  0  0  0  0
  189.5300  177.3370  145.7260 C   0  0  0  0  0  2  0  0  0  0  0  0
  191.5670  177.4790  144.4170 C   0  0  0  0  0  2  0  0  0  0  0  0
  185.5390  177.9160  137.8320 O   0  0  0  0  0  1  0  0  0  0  0  0
  186.1800  179.0150  142.6660 C   0  0  1  0  0  3  0  0  0  0  0  0
  183.1060  178.7730  140.4490 C   0  0  0  0  0  3  0  0  0  0  0  0
  185.8780  178.3390  140.2200 C   0  0  0  0  0  0  0  0  0  0  0  0
  187.6310  178.5190  142.5960 C   0  0  1  0  0  3  0  0  0  0  0  0
  186.2950  177.0420  145.6870 C   0  0  0  0  0  1  0  0  0  0  0  0
  187.8480  177.7710  143.8870 C   0  0  1  0  0  3  0  0  0  0  0  0
  191.0370  177.3830  145.8370 C   0  0  0  0  0  2  0  0  0  0  0  0
  189.7060  175.4840  142.8920 C   0  0  0  0  0  1  0  0  0  0  0  0
  183.9330  178.9370  141.5580 C   0  0  0  0  0  3  0  0  0  0  0  0
  185.3130  178.7190  141.4610 C   0  0  0  0  0  0  0  0  0  0  0  0
  190.1990  176.8480  142.4150 C   0  0  2  0  0  3  0  0  0  0  0  0
  189.4090  179.0010  138.2020 C   0  0  0  0  0  2  0  0  0  0  0  0
  189.1240  177.9130  135.9750 C   0  0  0  0  0  1  0  0  0  0  0  0
  188.8160  179.1420  136.8090 C   0  0  0  0  0  2  0  0  0  0  0  0
  1  5  1  6  0  0  0
  1 19  1  0  0  0  0
  1  4  1  0  0  0  0
  2 13  2  0  0  0  0
  2 19  1  0  0  0  0
  3 10  1  0  0  0  0
  4 12  1  6  0  0  0
  4 20  1  0  0  0  0
  6  8  2  0  0  0  0
  7 15  1  1  0  0  0
  7  9  1  0  0  0  0
  8 12  1  0  0  0  0
  9 14  1  1  0  0  0
 10 21  1  1  0  0  0
 11 28  1  1  0  0  0
 11  5  1  0  0  0  0
 11  8  1  0  0  0  0
 12 27  1  0  0  0  0
 13 18  1  0  0  0  0
 14 23  1  0  0  0  0
 15 23  1  0  0  0  0
 16  2  1  0  0  0  0
 17 26  1  6  0  0  0
 17  3  1  0  0  0  0
 18 25  2  0  0  0  0
 19 26  2  0  0  0  0
 20 17  1  0  0  0  0
 20 22  1  0  0  0  0
 22  9  1  0  0  0  0
 22 10  1  0  0  0  0
 26 25  1  0  0  0  0
 27 24  1  0  0  0  0
 27  7  1  0  0  0  0
 29 30  1  0  0  0  0
 30 28  1  0  0  0  0
M  END
>  <MODEL>
2

>  <REMARK>
 VINA RESULT:      -8.0      1.763      5.667
  Name = 
  2 active torsions:
  status: ('A' for Active; 'I' for Inactive)
    1  A    between atoms: C_11  and  C_28
    2  A    between atoms: C_28  and  C_30
                            x       y       z     vdW  Elec       q    Type
                         _______ _______ _______ _____ _____    ______ ____

>  <TORSDO>
F 2

$$$$
=
 OpenBabel11122410223D

 30 35  0  0  1  0  0  0  0  0999 V2000
  186.6100  178.1210  140.3060 C   0  0  1  0  0  3  0  0  0  0  0  0
  188.4660  178.1820  138.5360 C   0  0  0  0  0  0  0  0  0  0  0  0
  189.5470  177.2610  143.1660 N   0  0  0  0  0  2  0  0  0  0  0  0
  186.5520  178.5470  141.7780 C   0  0  1  0  0  3  0  0  0  0  0  0
  185.9270  179.0730  139.5200 O   0  0  0  0  0  0  0  0  0  0  0  0
  182.9700  179.3040  141.4800 O   0  0  0  0  0  0  0  0  0  0  0  0
  184.9310  178.0100  144.5460 C   0  0  1  0  0  3  0  0  0  0  0  0
  184.1610  179.0310  141.1670 C   0  0  0  0  0  0  0  0  0  0  0  0
  186.3500  177.6270  144.9930 C   0  0  2  0  0  3  0  0  0  0  0  0
  188.8160  177.4840  144.4030 C   0  0  1  0  0  3  0  0  0  0  0  0
  184.5350  178.9100  139.7170 C   0  0  2  0  0  3  0  0  0  0  0  0
  185.1580  178.8220  142.1830 N   0  0  0  0  0  0  0  0  0  0  0  0
  189.7900  177.9410  138.1620 C   0  0  0  0  0  3  0  0  0  0  0  0
  186.5220  178.2480  146.3620 C   0  0  0  0  0  2  0  0  0  0  0  0
  184.1590  178.3220  145.8190 C   0  0  0  0  0  2  0  0  0  0  0  0
  187.5870  178.6620  137.5720 O   0  0  0  0  0  1  0  0  0  0  0  0
  188.5370  176.9350  142.1640 C   0  0  1  0  0  3  0  0  0  0  0  0
  190.6980  177.4140  139.0790 C   0  0  0  0  0  3  0  0  0  0  0  0
  188.0430  177.9280  139.8620 C   0  0  0  0  0  0  0  0  0  0  0  0
  187.1820  177.4630  142.6540 C   0  0  1  0  0  3  0  0  0  0  0  0
  189.5680  178.4850  145.2580 C   0  0  0  0  0  1  0  0  0  0  0  0
  187.4580  178.0350  144.0210 C   0  0  1  0  0  3  0  0  0  0  0  0
  185.1400  178.2170  146.9740 C   0  0  0  0  0  2  0  0  0  0  0  0
  185.5230  180.4690  144.0030 C   0  0  0  0  0  1  0  0  0  0  0  0
  190.2820  177.1190  140.3750 C   0  0  0  0  0  3  0  0  0  0  0  0
  188.9660  177.3730  140.7810 C   0  0  0  0  0  0  0  0  0  0  0  0
  184.8130  179.1920  143.5620 C   0  0  2  0  0  3  0  0  0  0  0  0
  184.0050  177.6100  139.1050 C   0  0  0  0  0  2  0  0  0  0  0  0
  184.9760  176.4010  137.1510 C   0  0  0  0  0  1  0  0  0  0  0  0
  184.1710  177.6080  137.5950 C   0  0  0  0  0  2  0  0  0  0  0  0
  1  5  1  6  0  0  0
  1  4  1  0  0  0  0
  2 19  1  0  0  0  0
  3 10  1  0  0  0  0
  4 12  1  1  0  0  0
  4 20  1  0  0  0  0
  5 11  1  0  0  0  0
  7  9  1  0  0  0  0
  7 15  1  1  0  0  0
  8  6  2  0  0  0  0
  8 12  1  0  0  0  0
  9 14  1  1  0  0  0
 10 21  1  1  0  0  0
 11 28  1  1  0  0  0
 11  8  1  0  0  0  0
 12 27  1  0  0  0  0
 13  2  2  0  0  0  0
 13 18  1  0  0  0  0
 14 23  1  0  0  0  0
 15 23  1  0  0  0  0
 16  2  1  0  0  0  0
 17 26  1  6  0  0  0
 17 20  1  0  0  0  0
 17  3  1  0  0  0  0
 18 25  2  0  0  0  0
 19  1  1  0  0  0  0
 19 26  2  0  0  0  0
 20 22  1  0  0  0  0
 22 10  1  0  0  0  0
 22  9  1  0  0  0  0
 25 26  1  0  0  0  0
 27 24  1  0  0  0  0
 27  7  1  0  0  0  0
 29 30  1  0  0  0  0
 30 28  1  0  0  0  0
M  END
>  <MODEL>
3

>  <REMARK>
 VINA RESULT:      -7.9      2.274      4.603
  Name = 
  2 active torsions:
  status: ('A' for Active; 'I' for Inactive)
    1  A    between atoms: C_11  and  C_28
    2  A    between atoms: C_28  and  C_30
                            x       y       z     vdW  Elec       q    Type
                         _______ _______ _______ _____ _____    ______ ____

>  <TORSDO>
F 2

$$$$
=
 OpenBabel11122410223D

 30 35  0  0  1  0  0  0  0  0999 V2000
  186.1060  178.2130  142.7310 C   0  0  1  0  0  3  0  0  0  0  0  0
  188.3670  177.1420  143.2970 C   0  0  0  0  0  0  0  0  0  0  0  0
  187.1980  178.0660  138.6890 N   0  0  0  0  0  2  0  0  0  0  0  0
  185.1280  178.0380  141.5630 C   0  0  1  0  0  3  0  0  0  0  0  0
  185.5920  177.5610  143.8710 O   0  0  0  0  0  0  0  0  0  0  0  0
  182.2890  178.8690  143.7420 O   0  0  0  0  0  0  0  0  0  0  0  0
  182.7350  179.5570  139.9670 C   0  0  1  0  0  3  0  0  0  0  0  0
  183.4530  178.5620  143.3650 C   0  0  0  0  0  0  0  0  0  0  0  0
  183.7270  179.3420  138.8140 C   0  0  2  0  0  3  0  0  0  0  0  0
  185.9250  178.3340  138.0390 C   0  0  1  0  0  3  0  0  0  0  0  0
  184.5250  178.3310  144.3910 C   0  0  2  0  0  3  0  0  0  0  0  0
  183.7650  178.4430  141.9660 N   0  0  0  0  0  0  0  0  0  0  0  0
  189.6480  176.7400  142.9080 C   0  0  0  0  0  3  0  0  0  0  0  0
  182.8880  178.8810  137.6420 C   0  0  0  0  0  2  0  0  0  0  0  0
  181.3750  179.7670  139.3190 C   0  0  0  0  0  2  0  0  0  0  0  0
  188.0010  176.9730  144.6270 O   0  0  0  0  0  1  0  0  0  0  0  0
  187.0990  178.6710  140.0140 C   0  0  1  0  0  3  0  0  0  0  0  0
  190.0800  176.9320  141.5970 C   0  0  0  0  0  3  0  0  0  0  0  0
  187.4830  177.7140  142.3520 C   0  0  0  0  0  0  0  0  0  0  0  0
  185.6130  178.8430  140.3570 C   0  0  1  0  0  3  0  0  0  0  0  0
  185.6180  177.2210  137.0580 C   0  0  0  0  0  1  0  0  0  0  0  0
  184.8740  178.3810  139.1280 C   0  0  1  0  0  3  0  0  0  0  0  0
  181.5590  179.5800  137.8230 C   0  0  0  0  0  2  0  0  0  0  0  0
  182.3980  177.0370  140.4450 C   0  0  0  0  0  1  0  0  0  0  0  0
  189.2340  177.5350  140.6690 C   0  0  0  0  0  3  0  0  0  0  0  0
  187.9380  177.9240  141.0280 C   0  0  0  0  0  0  0  0  0  0  0  0
  182.6440  178.4300  141.0170 C   0  0  2  0  0  3  0  0  0  0  0  0
  185.0020  179.6460  145.0140 C   0  0  0  0  0  2  0  0  0  0  0  0
  185.1700  178.2500  147.0750 C   0  0  0  0  0  1  0  0  0  0  0  0
  185.7850  179.3950  146.2920 C   0  0  0  0  0  2  0  0  0  0  0  0
  1 19  1  6  0  0  0
  1  5  1  0  0  0  0
  2 16  1  0  0  0  0
  4 12  1  1  0  0  0
  4  1  1  0  0  0  0
  5 11  1  0  0  0  0
  7 15  1  6  0  0  0
  7 27  1  0  0  0  0
  8  6  2  0  0  0  0
  8 11  1  0  0  0  0
  9 14  1  6  0  0  0
  9 22  1  0  0  0  0
  9  7  1  0  0  0  0
 10 21  1  6  0  0  0
 10  3  1  0  0  0  0
 10 22  1  0  0  0  0
 11 28  1  6  0  0  0
 12  8  1  0  0  0  0
 13  2  1  0  0  0  0
 14 23  1  0  0  0  0
 17  3  1  6  0  0  0
 17 20  1  0  0  0  0
 17 26  1  0  0  0  0
 18 13  2  0  0  0  0
 19  2  2  0  0  0  0
 20  4  1  0  0  0  0
 22 20  1  0  0  0  0
 23 15  1  0  0  0  0
 24 27  1  0  0  0  0
 25 26  2  0  0  0  0
 25 18  1  0  0  0  0
 26 19  1  0  0  0  0
 27 12  1  0  0  0  0
 28 30  1  0  0  0  0
 30 29  1  0  0  0  0
M  END
>  <MODEL>
4

>  <REMARK>
 VINA RESULT:      -7.6      2.792      5.852
  Name = 
  2 active torsions:
  status: ('A' for Active; 'I' for Inactive)
    1  A    between atoms: C_11  and  C_28
    2  A    between atoms: C_28  and  C_30
                            x       y       z     vdW  Elec       q    Type
                         _______ _______ _______ _____ _____    ______ ____

>  <TORSDO>
F 2

$$$$
=
 OpenBabel11122410223D

 30 35  0  0  1  0  0  0  0  0999 V2000
  189.5030  177.2660  141.4280 C   0  0  1  0  0  3  0  0  0  0  0  0
  190.0570  176.6920  138.9890 C   0  0  0  0  0  0  0  0  0  0  0  0
  185.8000  178.7120  140.1070 N   0  0  0  0  0  2  0  0  0  0  0  0
  188.2050  177.2280  142.2430 C   0  0  1  0  0  3  0  0  0  0  0  0
  190.3150  176.1730  141.7950 O   0  0  0  0  0  0  0  0  0  0  0  0
  190.0910  176.5530  145.3220 O   0  0  0  0  0  0  0  0  0  0  0  0
  186.7880  178.5070  144.8770 C   0  0  1  0  0  3  0  0  0  0  0  0
  189.8150  176.6940  144.1000 C   0  0  0  0  0  0  0  0  0  0  0  0
  185.7810  178.9380  143.8000 C   0  0  2  0  0  3  0  0  0  0  0  0
  185.0770  178.8360  141.3630 C   0  0  1  0  0  3  0  0  0  0  0  0
  190.8750  176.4310  143.0680 C   0  0  2  0  0  3  0  0  0  0  0  0
  188.5040  177.1160  143.6860 N   0  0  0  0  0  0  0  0  0  0  0  0
  189.7610  176.7820  137.6270 C   0  0  0  0  0  3  0  0  0  0  0  0
  184.4160  178.6770  144.3990 C   0  0  0  0  0  2  0  0  0  0  0  0
  186.0370  178.5550  146.1990 C   0  0  0  0  0  2  0  0  0  0  0  0
  191.2120  176.0170  139.3680 O   0  0  0  0  0  1  0  0  0  0  0  0
  187.2140  178.8120  140.4550 C   0  0  1  0  0  3  0  0  0  0  0  0
  188.6410  177.4890  137.1940 C   0  0  0  0  0  3  0  0  0  0  0  0
  189.2010  177.2890  139.9450 C   0  0  0  0  0  0  0  0  0  0  0  0
  187.3710  178.4740  141.9440 C   0  0  1  0  0  3  0  0  0  0  0  0
  183.7800  178.0570  141.2750 C   0  0  0  0  0  1  0  0  0  0  0  0
  185.9660  178.2580  142.4440 C   0  0  1  0  0  3  0  0  0  0  0  0
  184.5960  178.9120  145.8820 C   0  0  0  0  0  2  0  0  0  0  0  0
  186.4560  175.9700  144.4920 C   0  0  0  0  0  1  0  0  0  0  0  0
  187.8150  178.1180  138.1230 C   0  0  0  0  0  3  0  0  0  0  0  0
  188.0780  178.0230  139.4960 C   0  0  0  0  0  0  0  0  0  0  0  0
  187.4390  177.1200  144.6970 C   0  0  2  0  0  3  0  0  0  0  0  0
  191.9170  177.5530  143.0330 C   0  0  0  0  0  2  0  0  0  0  0  0
  191.0490  179.7390  143.8630 C   0  0  0  0  0  1  0  0  0  0  0  0
  191.7820  178.4650  144.2400 C   0  0  0  0  0  2  0  0  0  0  0  0
  1 19  1  6  0  0  0
  1  5  1  0  0  0  0
  1  4  1  0  0  0  0
  2 16  1  0  0  0  0
  2 19  1  0  0  0  0
  3 17  1  0  0  0  0
  3 10  1  0  0  0  0
  4 12  1  1  0  0  0
  5 11  1  0  0  0  0
  7 15  1  1  0  0  0
  8  6  2  0  0  0  0
  9 14  1  1  0  0  0
  9  7  1  0  0  0  0
 10 21  1  6  0  0  0
 10 22  1  0  0  0  0
 11 28  1  6  0  0  0
 11  8  1  0  0  0  0
 12  8  1  0  0  0  0
 12 27  1  0  0  0  0
 13  2  2  0  0  0  0
 14 23  1  0  0  0  0
 17 26  1  6  0  0  0
 17 20  1  0  0  0  0
 18 13  1  0  0  0  0
 18 25  2  0  0  0  0
 20  4  1  0  0  0  0
 20 22  1  0  0  0  0
 22  9  1  0  0  0  0
 23 15  1  0  0  0  0
 24 27  1  0  0  0  0
 25 26  1  0  0  0  0
 26 19  2  0  0  0  0
 27  7  1  0  0  0  0
 28 30  1  0  0  0  0
 29 30  1  0  0  0  0
M  END
>  <MODEL>
5

>  <REMARK>
 VINA RESULT:      -7.6      1.803      5.054
  Name = 
  2 active torsions:
  status: ('A' for Active; 'I' for Inactive)
    1  A    between atoms: C_11  and  C_28
    2  A    between atoms: C_28  and  C_30
                            x       y       z     vdW  Elec       q    Type
                         _______ _______ _______ _____ _____    ______ ____

>  <TORSDO>
F 2

$$$$
=
 OpenBabel11122410223D

 30 35  0  0  1  0  0  0  0  0999 V2000
  188.5190  177.5500  141.3770 C   0  0  1  0  0  3  0  0  0  0  0  0
  191.0510  177.2250  141.6300 C   0  0  0  0  0  0  0  0  0  0  0  0
  188.1710  177.0340  145.5190 N   0  0  0  0  0  2  0  0  0  0  0  0
  187.4560  178.2170  142.2580 C   0  0  1  0  0  3  0  0  0  0  0  0
  188.8080  178.3910  140.2810 O   0  0  0  0  0  0  0  0  0  0  0  0
  185.4640  179.0900  139.2970 O   0  0  0  0  0  0  0  0  0  0  0  0
  184.2600  178.2270  142.8650 C   0  0  1  0  0  3  0  0  0  0  0  0
  186.4280  178.7100  140.0160 C   0  0  0  0  0  0  0  0  0  0  0  0
  184.7920  177.8540  144.2570 C   0  0  2  0  0  3  0  0  0  0  0  0
  186.8120  177.4940  145.7520 C   0  0  1  0  0  3  0  0  0  0  0  0
  187.7290  178.3310  139.3670 C   0  0  2  0  0  3  0  0  0  0  0  0
  186.2900  178.6240  141.4450 N   0  0  0  0  0  0  0  0  0  0  0  0
  192.1520  176.8600  142.4080 C   0  0  0  0  0  3  0  0  0  0  0  0
  183.9850  178.6850  145.2310 C   0  0  0  0  0  2  0  0  0  0  0  0
  182.8610  178.7840  143.0840 C   0  0  0  0  0  2  0  0  0  0  0  0
  191.2700  177.5810  140.3040 O   0  0  0  0  0  1  0  0  0  0  0  0
  188.2060  176.5950  144.1270 C   0  0  1  0  0  3  0  0  0  0  0  0
  191.9800  176.4490  143.7280 C   0  0  0  0  0  3  0  0  0  0  0  0
  189.7510  177.2160  142.1890 C   0  0  0  0  0  0  0  0  0  0  0  0
  187.0440  177.2640  143.3810 C   0  0  1  0  0  3  0  0  0  0  0  0
  186.8250  178.5850  146.8050 C   0  0  0  0  0  1  0  0  0  0  0  0
  186.2980  178.0400  144.4370 C   0  0  1  0  0  3  0  0  0  0  0  0
  182.6260  178.8240  144.5830 C   0  0  0  0  0  2  0  0  0  0  0  0
  185.4370  180.5300  142.7850 C   0  0  0  0  0  1  0  0  0  0  0  0
  190.7000  176.3940  144.2750 C   0  0  0  0  0  3  0  0  0  0  0  0
  189.5820  176.7770  143.5230 C   0  0  0  0  0  0  0  0  0  0  0  0
  185.1010  179.2340  142.0530 C   0  0  2  0  0  3  0  0  0  0  0  0
  187.6340  176.9760  138.6620 C   0  0  0  0  0  2  0  0  0  0  0  0
  188.2600  178.2090  136.5850 C   0  0  0  0  0  1  0  0  0  0  0  0
  188.4870  176.9520  137.4040 C   0  0  0  0  0  2  0  0  0  0  0  0
  1  5  1  6  0  0  0
  1 19  1  0  0  0  0
  1  4  1  0  0  0  0
  2 19  2  0  0  0  0
  2 13  1  0  0  0  0
  3 10  1  0  0  0  0
  4 12  1  6  0  0  0
  4 20  1  0  0  0  0
  6  8  2  0  0  0  0
  7 15  1  1  0  0  0
  7  9  1  0  0  0  0
  8 12  1  0  0  0  0
  9 22  1  0  0  0  0
  9 14  1  1  0  0  0
 10 21  1  1  0  0  0
 11 28  1  1  0  0  0
 11  8  1  0  0  0  0
 11  5  1  0  0  0  0
 12 27  1  0  0  0  0
 13 18  2  0  0  0  0
 15 23  1  0  0  0  0
 16  2  1  0  0  0  0
 17 26  1  6  0  0  0
 17  3  1  0  0  0  0
 18 25  1  0  0  0  0
 19 26  1  0  0  0  0
 20 17  1  0  0  0  0
 20 22  1  0  0  0  0
 22 10  1  0  0  0  0
 23 14  1  0  0  0  0
 26 25  2  0  0  0  0
 27 24  1  0  0  0  0
 27  7  1  0  0  0  0
 29 30  1  0  0  0  0
 30 28  1  0  0  0  0
M  END
>  <MODEL>
6

>  <REMARK>
 VINA RESULT:      -7.2      1.501      1.864
  Name = 
  2 active torsions:
  status: ('A' for Active; 'I' for Inactive)
    1  A    between atoms: C_11  and  C_28
    2  A    between atoms: C_28  and  C_30
                            x       y       z     vdW  Elec       q    Type
                         _______ _______ _______ _____ _____    ______ ____

>  <TORSDO>
F 2

$$$$
=
 OpenBabel11122410223D

 30 35  0  0  1  0  0  0  0  0999 V2000
  184.9470  178.3090  139.4380 C   0  0  1  0  0  3  0  0  0  0  0  0
  182.6540  179.0460  138.5560 C   0  0  0  0  0  0  0  0  0  0  0  0
  185.6810  176.5710  135.6990 N   0  0  0  0  0  2  0  0  0  0  0  0
  186.3290  178.1830  138.7860 C   0  0  1  0  0  3  0  0  0  0  0  0
  184.9220  179.4590  140.2560 O   0  0  0  0  0  0  0  0  0  0  0  0
  187.9730  178.8970  141.9920 O   0  0  0  0  0  0  0  0  0  0  0  0
  189.1830  176.6520  139.0900 C   0  0  1  0  0  3  0  0  0  0  0  0
  187.0790  178.7850  141.1090 C   0  0  0  0  0  0  0  0  0  0  0  0
  188.7750  176.1750  137.6880 C   0  0  2  0  0  3  0  0  0  0  0  0
  187.1110  176.3190  135.7760 C   0  0  1  0  0  3  0  0  0  0  0  0
  185.6700  179.1970  141.4280 C   0  0  2  0  0  3  0  0  0  0  0  0
  187.3930  178.2570  139.8090 N   0  0  0  0  0  0  0  0  0  0  0  0
  181.6590  178.9900  137.5770 C   0  0  0  0  0  3  0  0  0  0  0  0
  190.0310  176.2740  136.8490 C   0  0  0  0  0  2  0  0  0  0  0  0
  190.6910  176.4710  139.1750 C   0  0  0  0  0  2  0  0  0  0  0  0
  182.4170  179.8120  139.6910 O   0  0  0  0  0  1  0  0  0  0  0  0
  185.2100  176.5930  137.0800 C   0  0  1  0  0  3  0  0  0  0  0  0
  181.8270  178.1970  136.4430 C   0  0  0  0  0  3  0  0  0  0  0  0
  183.8600  178.3250  138.3860 C   0  0  0  0  0  0  0  0  0  0  0  0
  186.4090  176.8760  137.9950 C   0  0  1  0  0  3  0  0  0  0  0  0
  187.8000  176.9710  134.5940 C   0  0  0  0  0  1  0  0  0  0  0  0
  187.5990  176.9320  137.0720 C   0  0  1  0  0  3  0  0  0  0  0  0
  191.1600  175.9890  137.8130 C   0  0  0  0  0  2  0  0  0  0  0  0
  189.2680  179.1590  138.4570 C   0  0  0  0  0  1  0  0  0  0  0  0
  182.9920  177.4490  136.2870 C   0  0  0  0  0  3  0  0  0  0  0  0
  184.0140  177.5070  137.2420 C   0  0  0  0  0  0  0  0  0  0  0  0
  188.8110  178.1030  139.4590 C   0  0  2  0  0  3  0  0  0  0  0  0
  184.9820  178.1860  142.3480 C   0  0  0  0  0  2  0  0  0  0  0  0
  185.6530  178.2880  144.7490 C   0  0  0  0  0  1  0  0  0  0  0  0
  184.6770  178.7990  143.7050 C   0  0  0  0  0  2  0  0  0  0  0  0
  1 19  1  6  0  0  0
  1  5  1  0  0  0  0
  2 16  1  0  0  0  0
  3 10  1  0  0  0  0
  4  1  1  0  0  0  0
  4 12  1  1  0  0  0
  5 11  1  0  0  0  0
  7 15  1  6  0  0  0
  7 27  1  0  0  0  0
  8 11  1  0  0  0  0
  8  6  2  0  0  0  0
  9 14  1  6  0  0  0
  9  7  1  0  0  0  0
 10 21  1  6  0  0  0
 10 22  1  0  0  0  0
 11 28  1  6  0  0  0
 12  8  1  0  0  0  0
 13  2  2  0  0  0  0
 14 23  1  0  0  0  0
 17  3  1  6  0  0  0
 17 26  1  0  0  0  0
 17 20  1  0  0  0  0
 18 13  1  0  0  0  0
 19  2  1  0  0  0  0
 20  4  1  0  0  0  0
 22  9  1  0  0  0  0
 22 20  1  0  0  0  0
 23 15  1  0  0  0  0
 24 27  1  0  0  0  0
 25 18  2  0  0  0  0
 25 26  1  0  0  0  0
 26 19  2  0  0  0  0
 27 12  1  0  0  0  0
 28 30  1  0  0  0  0
 30 29  1  0  0  0  0
M  END
>  <MODEL>
7

>  <REMARK>
 VINA RESULT:      -7.0      3.370      8.584
  Name = 
  2 active torsions:
  status: ('A' for Active; 'I' for Inactive)
    1  A    between atoms: C_11  and  C_28
    2  A    between atoms: C_28  and  C_30
                            x       y       z     vdW  Elec       q    Type
                         _______ _______ _______ _____ _____    ______ ____

>  <TORSDO>
F 2

$$$$
=
 OpenBabel11122410223D

 30 35  0  0  1  0  0  0  0  0999 V2000
  183.4480  178.5750  139.8420 C   0  0  1  0  0  3  0  0  0  0  0  0
  182.4750  178.5890  142.2160 C   0  0  0  0  0  0  0  0  0  0  0  0
  187.2720  178.6320  141.5510 N   0  0  0  0  0  2  0  0  0  0  0  0
  184.6950  177.9290  139.2250 C   0  0  1  0  0  3  0  0  0  0  0  0
  182.3060  177.8440  139.4540 O   0  0  0  0  0  0  0  0  0  0  0  0
  183.0070  177.6370  135.9760 O   0  0  0  0  0  0  0  0  0  0  0  0
  186.7560  178.1970  136.7230 C   0  0  1  0  0  3  0  0  0  0  0  0
  183.1950  177.8210  137.2090 C   0  0  0  0  0  0  0  0  0  0  0  0
  187.7400  178.3420  137.8930 C   0  0  2  0  0  3  0  0  0  0  0  0
  188.1020  178.2980  140.4060 C   0  0  1  0  0  3  0  0  0  0  0  0
  182.0240  178.1290  138.0970 C   0  0  2  0  0  3  0  0  0  0  0  0
  184.5180  177.7520  137.7690 N   0  0  0  0  0  0  0  0  0  0  0  0
  182.6490  178.7360  143.5940 C   0  0  0  0  0  3  0  0  0  0  0  0
  188.9370  177.4940  137.5180 C   0  0  0  0  0  2  0  0  0  0  0  0
  187.5880  177.7740  135.5210 C   0  0  0  0  0  2  0  0  0  0  0  0
  181.1900  178.3710  141.7340 O   0  0  0  0  0  1  0  0  0  0  0  0
  186.0590  179.2260  140.9990 C   0  0  1  0  0  3  0  0  0  0  0  0
  183.9100  179.0040  144.1220 C   0  0  0  0  0  3  0  0  0  0  0  0
  183.5870  178.6740  141.3450 C   0  0  0  0  0  0  0  0  0  0  0  0
  185.9250  178.7810  139.5360 C   0  0  1  0  0  3  0  0  0  0  0  0
  188.9620  177.0960  140.7410 C   0  0  0  0  0  1  0  0  0  0  0  0
  187.1670  177.9720  139.2610 C   0  0  1  0  0  3  0  0  0  0  0  0
  189.0130  177.5830  136.0100 C   0  0  0  0  0  2  0  0  0  0  0  0
  186.0020  175.8050  137.3590 C   0  0  0  0  0  1  0  0  0  0  0  0
  185.0050  179.1340  143.2710 C   0  0  0  0  0  3  0  0  0  0  0  0
  184.8610  178.9680  141.8880 C   0  0  0  0  0  0  0  0  0  0  0  0
  185.5880  177.2080  136.9230 C   0  0  2  0  0  3  0  0  0  0  0  0
  181.5220  179.5610  137.8920 C   0  0  0  0  0  2  0  0  0  0  0  0
  180.3260  181.0050  139.5380 C   0  0  0  0  0  1  0  0  0  0  0  0
  180.2140  179.7940  138.6300 C   0  0  0  0  0  2  0  0  0  0  0  0
  1  5  1  1  0  0  0
  1 19  1  0  0  0  0
  2 13  1  0  0  0  0
  4 12  1  6  0  0  0
  4 20  1  0  0  0  0
  4  1  1  0  0  0  0
  6  8  2  0  0  0  0
  7 15  1  6  0  0  0
  7 27  1  0  0  0  0
  7  9  1  0  0  0  0
  8 12  1  0  0  0  0
  8 11  1  0  0  0  0
  9 14  1  6  0  0  0
  9 22  1  0  0  0  0
 10 21  1  1  0  0  0
 10  3  1  0  0  0  0
 11 28  1  1  0  0  0
 11  5  1  0  0  0  0
 13 18  2  0  0  0  0
 15 23  1  0  0  0  0
 16  2  1  0  0  0  0
 17  3  1  1  0  0  0
 17 26  1  0  0  0  0
 19 26  1  0  0  0  0
 19  2  2  0  0  0  0
 20 17  1  0  0  0  0
 22 20  1  0  0  0  0
 22 10  1  0  0  0  0
 23 14  1  0  0  0  0
 25 18  1  0  0  0  0
 26 25  2  0  0  0  0
 27 24  1  0  0  0  0
 27 12  1  0  0  0  0
 28 30  1  0  0  0  0
 30 29  1  0  0  0  0
M  END
>  <MODEL>
8

>  <REMARK>
 VINA RESULT:      -6.7      3.939      7.545
  Name = 
  2 active torsions:
  status: ('A' for Active; 'I' for Inactive)
    1  A    between atoms: C_11  and  C_28
    2  A    between atoms: C_28  and  C_30
                            x       y       z     vdW  Elec       q    Type
                         _______ _______ _______ _____ _____    ______ ____

>  <TORSDO>
F 2

$$$$
=
 OpenBabel11122410223D

 30 35  0  0  1  0  0  0  0  0999 V2000
  187.9430  177.9840  141.9300 C   0  0  1  0  0  3  0  0  0  0  0  0
  188.9220  177.1620  144.1540 C   0  0  0  0  0  0  0  0  0  0  0  0
  191.6050  177.0480  140.1240 N   0  0  0  0  0  2  0  0  0  0  0  0
  188.1130  177.5230  140.4770 C   0  0  1  0  0  3  0  0  0  0  0  0
  186.6860  177.5610  142.4080 O   0  0  0  0  0  0  0  0  0  0  0  0
  184.7160  178.6570  139.6600 O   0  0  0  0  0  0  0  0  0  0  0  0
  187.8510  178.5610  137.4050 C   0  0  1  0  0  3  0  0  0  0  0  0
  185.7360  178.3330  140.3260 C   0  0  0  0  0  0  0  0  0  0  0  0
  189.3340  178.1570  137.4230 C   0  0  2  0  0  3  0  0  0  0  0  0
  191.2540  177.1140  138.7150 C   0  0  1  0  0  3  0  0  0  0  0  0
  185.6830  178.3720  141.8270 C   0  0  2  0  0  3  0  0  0  0  0  0
  186.9510  177.9390  139.6640 N   0  0  0  0  0  0  0  0  0  0  0  0
  190.0180  176.7490  144.9150 C   0  0  0  0  0  3  0  0  0  0  0  0
  189.5640  177.4220  136.1200 C   0  0  0  0  0  2  0  0  0  0  0  0
  187.4330  178.5670  135.9430 C   0  0  0  0  0  2  0  0  0  0  0  0
  187.6850  177.2580  144.7810 O   0  0  0  0  0  1  0  0  0  0  0  0
  190.6480  177.9110  140.8090 C   0  0  1  0  0  3  0  0  0  0  0  0
  191.2880  176.6830  144.3450 C   0  0  0  0  0  3  0  0  0  0  0  0
  189.0860  177.4820  142.7850 C   0  0  0  0  0  0  0  0  0  0  0  0
  189.4180  178.0800  139.9080 C   0  0  1  0  0  3  0  0  0  0  0  0
  191.6240  175.8070  138.0430 C   0  0  0  0  0  1  0  0  0  0  0  0
  189.7590  177.3380  138.6410 C   0  0  1  0  0  3  0  0  0  0  0  0
  188.6240  178.0800  135.1360 C   0  0  0  0  0  2  0  0  0  0  0  0
  186.9650  176.1840  137.9100 C   0  0  0  0  0  1  0  0  0  0  0  0
  191.4690  177.0380  143.0100 C   0  0  0  0  0  3  0  0  0  0  0  0
  190.3820  177.4320  142.2200 C   0  0  0  0  0  0  0  0  0  0  0  0
  186.8860  177.6760  138.2210 C   0  0  2  0  0  3  0  0  0  0  0  0
  185.7130  179.8090  142.3540 C   0  0  0  0  0  2  0  0  0  0  0  0
  183.7270  179.0490  143.6600 C   0  0  0  0  0  1  0  0  0  0  0  0
  184.9670  179.9240  143.6730 C   0  0  0  0  0  2  0  0  0  0  0  0
  1  5  1  1  0  0  0
  1 19  1  0  0  0  0
  2 16  1  0  0  0  0
  2 13  1  0  0  0  0
  4 12  1  6  0  0  0
  4  1  1  0  0  0  0
  6  8  2  0  0  0  0
  7 15  1  6  0  0  0
  7  9  1  0  0  0  0
  7 27  1  0  0  0  0
  8 11  1  0  0  0  0
  9 14  1  6  0  0  0
  9 22  1  0  0  0  0
 10 21  1  6  0  0  0
 10  3  1  0  0  0  0
 11 28  1  1  0  0  0
 11  5  1  0  0  0  0
 12  8  1  0  0  0  0
 17  3  1  6  0  0  0
 17 26  1  0  0  0  0
 18 13  2  0  0  0  0
 19  2  2  0  0  0  0
 20  4  1  0  0  0  0
 20 17  1  0  0  0  0
 22 10  1  0  0  0  0
 22 20  1  0  0  0  0
 23 15  1  0  0  0  0
 23 14  1  0  0  0  0
 24 27  1  0  0  0  0
 25 18  1  0  0  0  0
 26 19  1  0  0  0  0
 26 25  2  0  0  0  0
 27 12  1  0  0  0  0
 28 30  1  0  0  0  0
 29 30  1  0  0  0  0
M  END
>  <MODEL>
9

>  <REMARK>
 VINA RESULT:      -6.5      2.321      6.137
  Name = 
  2 active torsions:
  status: ('A' for Active; 'I' for Inactive)
    1  A    between atoms: C_11  and  C_28
    2  A    between atoms: C_28  and  C_30
                            x       y       z     vdW  Elec       q    Type
                         _______ _______ _______ _____ _____    ______ ____

>  <TORSDO>
F 2

$$$$
