=
 OpenBabel11122412153D

 34 40  0  0  1  0  0  0  0  0999 V2000
  188.5260  177.6500  139.0880 C   0  0  1  0  0  3  0  0  0  0  0  0
  189.6510  176.8130  141.1850 C   0  0  0  0  0  2  0  0  0  0  0  0
  182.6800  175.6360  138.8800 C   0  0  0  0  0  2  0  0  0  0  0  0
  186.6620  178.1800  137.3750 C   0  0  1  0  0  3  0  0  0  0  0  0
  184.3220  178.3760  138.2140 C   0  0  0  0  0  0  0  0  0  0  0  0
  181.9600  178.0440  139.0190 C   0  0  0  0  0  2  0  0  0  0  0  0
  181.5120  176.6080  138.7720 C   0  0  0  0  0  2  0  0  0  0  0  0
  183.6040  175.9490  136.5390 C   0  0  0  0  0  2  0  0  0  0  0  0
  187.9810  178.5830  141.4980 C   0  0  1  0  0  3  0  0  0  0  0  0
  186.3030  177.4940  144.0610 C   0  0  0  0  0  2  0  0  0  0  0  0
  184.8060  178.6300  139.4030 N   0  0  0  0  0  0  0  0  0  0  0  0
  185.0160  176.3230  136.9710 C   0  0  0  0  0  2  0  0  0  0  0  0
  186.5110  178.2720  141.1690 C   0  0  2  0  0  3  0  0  0  0  0  0
  189.2390  176.9380  142.6080 C   0  0  0  0  0  2  0  0  0  0  0  0
  185.1960  177.8430  137.0920 C   0  0  2  0  0  3  0  0  0  0  0  0
  182.9750  174.9790  137.5330 C   0  0  0  0  0  2  0  0  0  0  0  0
  187.6470  178.2160  144.0730 C   0  0  2  0  0  3  0  0  0  0  0  0
  187.0100  177.7400  138.7990 C   0  0  2  0  0  3  0  0  0  0  0  0
  182.9120  178.4460  137.9960 N   0  0  0  0  0  2  0  0  0  0  0  0
  186.2420  178.6640  139.7240 C   0  0  1  0  0  3  0  0  0  0  0  0
  189.0220  178.1830  136.7200 C   0  0  0  0  0  3  0  0  0  0  0  0
  185.1960  178.2910  143.3580 C   0  0  0  0  0  2  0  0  0  0  0  0
  187.6630  177.6550  136.3500 C   0  0  0  0  0  2  0  0  0  0  0  0
  185.6240  179.0810  142.1150 C   0  0  0  0  0  2  0  0  0  0  0  0
  188.3640  177.9250  142.7800 C   0  0  2  0  0  3  0  0  0  0  0  0
  189.4190  178.1950  138.0020 C   0  0  0  0  0  3  0  0  0  0  0  0
  189.0080  178.0120  140.4990 C   0  0  2  0  0  3  0  0  0  0  0  0
  188.4500  177.8200  145.2740 C   0  0  0  0  0  3  0  0  0  0  0  0
  187.8950  177.2040  146.2530 N   0  0  0  0  0  0  0  0  0  0  0  0
  190.8300  177.4380  148.1310 O   0  0  0  0  0  0  0  0  0  0  0  0
  188.5330  177.8720  148.4710 C   0  0  0  0  0  2  0  0  0  0  0  0
  188.6610  176.8210  147.4100 C   0  0  2  0  0  3  0  0  0  0  0  0
  189.9400  178.3950  148.6370 C   0  0  0  0  0  2  0  0  0  0  0  0
  190.1400  176.8150  147.0810 C   0  0  0  0  0  2  0  0  0  0  0  0
  1 26  1  6  0  0  0
  1 27  1  0  0  0  0
  2 14  1  0  0  0  0
  4 23  1  6  0  0  0
  4 18  1  0  0  0  0
  5 11  2  0  0  0  0
  7  3  1  0  0  0  0
  7  6  1  0  0  0  0
  8 12  1  0  0  0  0
  8 16  1  0  0  0  0
  9 25  1  0  0  0  0
 10 17  1  0  0  0  0
 11 20  1  0  0  0  0
 12 15  1  0  0  0  0
 13  9  1  0  0  0  0
 13 24  1  0  0  0  0
 14 25  1  0  0  0  0
 15  4  1  0  0  0  0
 15  5  1  0  0  0  0
 16  3  1  0  0  0  0
 17 28  1  0  0  0  0
 18  1  1  0  0  0  0
 18 20  1  0  0  0  0
 19  5  1  0  0  0  0
 19  6  1  0  0  0  0
 20 13  1  0  0  0  0
 21 26  2  0  0  0  0
 22 10  1  0  0  0  0
 23 21  1  0  0  0  0
 24 22  1  0  0  0  0
 25 17  1  0  0  0  0
 27  2  1  0  0  0  0
 27  9  1  0  0  0  0
 28 29  2  0  0  0  0
 29 32  1  0  0  0  0
 30 33  1  0  0  0  0
 31 33  1  0  0  0  0
 32 31  1  0  0  0  0
 34 32  1  0  0  0  0
 34 30  1  0  0  0  0
M  END
>  <MODEL>
1

>  <REMARK>
 VINA RESULT:      -8.9      0.000      0.000
  Name = 
  2 active torsions:
  status: ('A' for Active; 'I' for Inactive)
    1  A    between atoms: C_17  and  C_28
    2  A    between atoms: N_29  and  C_32
                            x       y       z     vdW  Elec       q    Type
                         _______ _______ _______ _____ _____    ______ ____

>  <TORSDO>
F 2

$$$$
=
 OpenBabel11122412153D

 34 40  0  0  1  0  0  0  0  0999 V2000
  188.2050  177.8730  138.9690 C   0  0  1  0  0  3  0  0  0  0  0  0
  189.6200  176.9030  140.8180 C   0  0  0  0  0  2  0  0  0  0  0  0
  182.4420  175.6520  139.3330 C   0  0  0  0  0  2  0  0  0  0  0  0
  186.1180  178.4760  137.5670 C   0  0  1  0  0  3  0  0  0  0  0  0
  183.9040  178.5030  138.7150 C   0  0  0  0  0  0  0  0  0  0  0  0
  181.6790  178.0080  139.7850 C   0  0  0  0  0  2  0  0  0  0  0  0
  181.2440  176.5820  139.4670 C   0  0  0  0  0  2  0  0  0  0  0  0
  183.0400  176.2060  136.9310 C   0  0  0  0  0  2  0  0  0  0  0  0
  187.9570  178.5700  141.5050 C   0  0  1  0  0  3  0  0  0  0  0  0
  186.6640  177.1950  144.1520 C   0  0  0  0  0  2  0  0  0  0  0  0
  184.5330  178.6730  139.8500 N   0  0  0  0  0  0  0  0  0  0  0  0
  184.4860  176.5970  137.2100 C   0  0  0  0  0  2  0  0  0  0  0  0
  186.4660  178.2300  141.3410 C   0  0  2  0  0  3  0  0  0  0  0  0
  189.3970  176.8860  142.2880 C   0  0  0  0  0  2  0  0  0  0  0  0
  184.6370  178.1060  137.4450 C   0  0  2  0  0  3  0  0  0  0  0  0
  182.5760  175.1270  137.9040 C   0  0  0  0  0  2  0  0  0  0  0  0
  187.9760  177.9660  144.0570 C   0  0  2  0  0  3  0  0  0  0  0  0
  186.6630  177.9280  138.8880 C   0  0  2  0  0  3  0  0  0  0  0  0
  182.4760  178.5360  138.6880 N   0  0  0  0  0  2  0  0  0  0  0  0
  185.9970  178.7350  139.9850 C   0  0  1  0  0  3  0  0  0  0  0  0
  188.3690  178.6310  136.6160 C   0  0  0  0  0  3  0  0  0  0  0  0
  185.4510  178.0050  143.6740 C   0  0  0  0  0  2  0  0  0  0  0  0
  186.9890  178.0830  136.3770 C   0  0  0  0  0  2  0  0  0  0  0  0
  185.6900  178.9170  142.4640 C   0  0  0  0  0  2  0  0  0  0  0  0
  188.5250  177.8190  142.6600 C   0  0  2  0  0  3  0  0  0  0  0  0
  188.9320  178.5470  137.8320 C   0  0  0  0  0  3  0  0  0  0  0  0
  188.8590  178.1300  140.3340 C   0  0  2  0  0  3  0  0  0  0  0  0
  188.9420  177.4990  145.1030 C   0  0  0  0  0  3  0  0  0  0  0  0
  190.0280  178.1470  145.3210 N   0  0  0  0  0  0  0  0  0  0  0  0
  191.0310  175.7340  147.6390 O   0  0  0  0  0  0  0  0  0  0  0  0
  191.9450  176.7530  145.7130 C   0  0  0  0  0  2  0  0  0  0  0  0
  190.9600  177.7020  146.3240 C   0  0  2  0  0  3  0  0  0  0  0  0
  191.6940  175.4510  146.4360 C   0  0  0  0  0  2  0  0  0  0  0  0
  190.2480  176.8650  147.3670 C   0  0  0  0  0  2  0  0  0  0  0  0
  1 26  1  6  0  0  0
  1 27  1  0  0  0  0
  2 14  1  0  0  0  0
  3  7  1  0  0  0  0
  4 23  1  6  0  0  0
  4 18  1  0  0  0  0
  5 11  2  0  0  0  0
  7  6  1  0  0  0  0
  8 12  1  0  0  0  0
  8 16  1  0  0  0  0
  9 25  1  0  0  0  0
 11 20  1  0  0  0  0
 12 15  1  0  0  0  0
 13  9  1  0  0  0  0
 13 24  1  0  0  0  0
 14 25  1  0  0  0  0
 15  4  1  0  0  0  0
 15  5  1  0  0  0  0
 16  3  1  0  0  0  0
 17 10  1  0  0  0  0
 17 28  1  0  0  0  0
 18  1  1  0  0  0  0
 18 20  1  0  0  0  0
 19  5  1  0  0  0  0
 19  6  1  0  0  0  0
 20 13  1  0  0  0  0
 21 26  2  0  0  0  0
 22 10  1  0  0  0  0
 23 21  1  0  0  0  0
 24 22  1  0  0  0  0
 25 17  1  0  0  0  0
 27  2  1  0  0  0  0
 27  9  1  0  0  0  0
 28 29  2  0  0  0  0
 29 32  1  0  0  0  0
 31 32  1  0  0  0  0
 31 33  1  0  0  0  0
 32 34  1  0  0  0  0
 33 30  1  0  0  0  0
 34 30  1  0  0  0  0
M  END
>  <MODEL>
2

>  <REMARK>
 VINA RESULT:      -8.4      0.943      1.358
  Name = 
  2 active torsions:
  status: ('A' for Active; 'I' for Inactive)
    1  A    between atoms: C_17  and  C_28
    2  A    between atoms: N_29  and  C_32
                            x       y       z     vdW  Elec       q    Type
                         _______ _______ _______ _____ _____    ______ ____

>  <TORSDO>
F 2

$$$$
=
 OpenBabel11122412153D

 34 40  0  0  1  0  0  0  0  0999 V2000
  190.8700  176.6330  140.0300 C   0  0  1  0  0  3  0  0  0  0  0  0
  190.7420  176.0020  142.4680 C   0  0  0  0  0  2  0  0  0  0  0  0
  185.5430  175.2460  137.2060 C   0  0  0  0  0  2  0  0  0  0  0  0
  190.1260  177.0990  137.5970 C   0  0  1  0  0  3  0  0  0  0  0  0
  187.7320  177.6650  137.1920 C   0  0  0  0  0  0  0  0  0  0  0  0
  185.2470  177.7110  136.7900 C   0  0  0  0  0  2  0  0  0  0  0  0
  184.7350  176.3100  136.4750 C   0  0  0  0  0  2  0  0  0  0  0  0
  187.4830  175.1080  135.5780 C   0  0  0  0  0  2  0  0  0  0  0  0
  189.4340  177.9670  141.8000 C   0  0  1  0  0  3  0  0  0  0  0  0
  186.6060  177.4560  143.3230 C   0  0  0  0  0  2  0  0  0  0  0  0
  187.6460  178.0410  138.4430 N   0  0  0  0  0  0  0  0  0  0  0  0
  188.5750  175.3890  136.6030 C   0  0  0  0  0  2  0  0  0  0  0  0
  188.2550  177.7690  140.8320 C   0  0  2  0  0  3  0  0  0  0  0  0
  189.7450  176.3800  143.5050 C   0  0  0  0  0  2  0  0  0  0  0  0
  188.9250  176.8820  136.6730 C   0  0  2  0  0  3  0  0  0  0  0  0
  186.3150  174.3680  136.2230 C   0  0  0  0  0  2  0  0  0  0  0  0
  187.8900  178.0240  143.9190 C   0  0  2  0  0  3  0  0  0  0  0  0
  189.6990  176.8410  139.0430 C   0  0  2  0  0  3  0  0  0  0  0  0
  186.6160  177.8530  136.3200 N   0  0  0  0  0  2  0  0  0  0  0  0
  188.7530  177.9680  139.4090 C   0  0  1  0  0  3  0  0  0  0  0  0
  192.4860  176.7530  138.1560 C   0  0  0  0  0  3  0  0  0  0  0  0
  186.0980  178.2530  142.1130 C   0  0  0  0  0  2  0  0  0  0  0  0
  191.3870  176.3240  137.2230 C   0  0  0  0  0  2  0  0  0  0  0  0
  187.1770  178.7990  141.1700 C   0  0  0  0  0  2  0  0  0  0  0  0
  189.0660  177.4690  143.1570 C   0  0  2  0  0  3  0  0  0  0  0  0
  192.2410  176.9130  139.4660 C   0  0  0  0  0  3  0  0  0  0  0  0
  190.6960  177.1480  141.4650 C   0  0  2  0  0  3  0  0  0  0  0  0
  187.9680  177.7270  145.3860 C   0  0  0  0  0  3  0  0  0  0  0  0
  188.9980  177.1390  145.8760 N   0  0  0  0  0  0  0  0  0  0  0  0
  189.4440  178.2540  149.1560 O   0  0  0  0  0  0  0  0  0  0  0  0
  187.7590  177.1350  147.9340 C   0  0  0  0  0  2  0  0  0  0  0  0
  189.0780  176.8500  147.2840 C   0  0  2  0  0  3  0  0  0  0  0  0
  188.0640  178.2510  148.9060 C   0  0  0  0  0  2  0  0  0  0  0  0
  190.0330  177.8120  147.9630 C   0  0  0  0  0  2  0  0  0  0  0  0
  1 26  1  6  0  0  0
  1 27  1  0  0  0  0
  2 14  1  0  0  0  0
  4 23  1  6  0  0  0
  4 18  1  0  0  0  0
  5 11  2  0  0  0  0
  7  6  1  0  0  0  0
  7  3  1  0  0  0  0
  8 16  1  0  0  0  0
  8 12  1  0  0  0  0
  9 25  1  0  0  0  0
 10 17  1  0  0  0  0
 11 20  1  0  0  0  0
 12 15  1  0  0  0  0
 13 24  1  0  0  0  0
 13  9  1  0  0  0  0
 15  5  1  0  0  0  0
 15  4  1  0  0  0  0
 16  3  1  0  0  0  0
 17 28  1  0  0  0  0
 18 20  1  0  0  0  0
 18  1  1  0  0  0  0
 19  6  1  0  0  0  0
 19  5  1  0  0  0  0
 20 13  1  0  0  0  0
 21 26  2  0  0  0  0
 22 10  1  0  0  0  0
 23 21  1  0  0  0  0
 24 22  1  0  0  0  0
 25 14  1  0  0  0  0
 25 17  1  0  0  0  0
 27  9  1  0  0  0  0
 27  2  1  0  0  0  0
 28 29  2  0  0  0  0
 29 32  1  0  0  0  0
 31 33  1  0  0  0  0
 32 31  1  0  0  0  0
 32 34  1  0  0  0  0
 33 30  1  0  0  0  0
 34 30  1  0  0  0  0
M  END
>  <MODEL>
3

>  <REMARK>
 VINA RESULT:      -8.3      1.787      2.742
  Name = 
  2 active torsions:
  status: ('A' for Active; 'I' for Inactive)
    1  A    between atoms: C_17  and  C_28
    2  A    between atoms: N_29  and  C_32
                            x       y       z     vdW  Elec       q    Type
                         _______ _______ _______ _____ _____    ______ ____

>  <TORSDO>
F 2

$$$$
=
 OpenBabel11122412153D

 34 40  0  0  1  0  0  0  0  0999 V2000
  189.3440  176.7750  137.3800 C   0  0  1  0  0  3  0  0  0  0  0  0
  190.7400  176.4190  139.4500 C   0  0  0  0  0  2  0  0  0  0  0  0
  183.5990  174.6800  138.3210 C   0  0  0  0  0  2  0  0  0  0  0  0
  187.2720  176.9030  135.8380 C   0  0  1  0  0  3  0  0  0  0  0  0
  185.0400  177.2390  136.9000 C   0  0  0  0  0  0  0  0  0  0  0  0
  182.8050  177.0520  138.0430 C   0  0  0  0  0  2  0  0  0  0  0  0
  182.3890  175.5900  138.1580 C   0  0  0  0  0  2  0  0  0  0  0  0
  184.2290  174.5020  135.8700 C   0  0  0  0  0  2  0  0  0  0  0  0
  189.0500  178.1900  139.5900 C   0  0  1  0  0  3  0  0  0  0  0  0
  187.7300  177.6460  142.5120 C   0  0  0  0  0  2  0  0  0  0  0  0
  185.6510  177.7470  137.9400 N   0  0  0  0  0  0  0  0  0  0  0  0
  185.6650  174.9800  136.0370 C   0  0  0  0  0  2  0  0  0  0  0  0
  187.5650  177.7960  139.5170 C   0  0  2  0  0  3  0  0  0  0  0  0
  190.4940  176.8370  140.8560 C   0  0  0  0  0  2  0  0  0  0  0  0
  185.7970  176.4930  135.8140 C   0  0  2  0  0  3  0  0  0  0  0  0
  183.7600  173.7560  137.1150 C   0  0  0  0  0  2  0  0  0  0  0  0
  189.0360  178.3740  142.2060 C   0  0  2  0  0  3  0  0  0  0  0  0
  187.8030  176.7800  137.2680 C   0  0  2  0  0  3  0  0  0  0  0  0
  183.6130  177.2420  136.8480 N   0  0  0  0  0  2  0  0  0  0  0  0
  187.1120  177.8680  138.0680 C   0  0  1  0  0  3  0  0  0  0  0  0
  189.5360  176.8010  134.9100 C   0  0  0  0  0  3  0  0  0  0  0  0
  186.5170  178.2600  141.8000 C   0  0  0  0  0  2  0  0  0  0  0  0
  188.1660  176.1870  134.8290 C   0  0  0  0  0  2  0  0  0  0  0  0
  186.7640  178.7740  140.3770 C   0  0  0  0  0  2  0  0  0  0  0  0
  189.6070  177.8250  140.9240 C   0  0  2  0  0  3  0  0  0  0  0  0
  190.0810  177.0910  136.1020 C   0  0  0  0  0  3  0  0  0  0  0  0
  189.9740  177.4360  138.6140 C   0  0  2  0  0  3  0  0  0  0  0  0
  189.9900  178.2530  143.3550 C   0  0  0  0  0  3  0  0  0  0  0  0
  189.5520  178.0790  144.5490 N   0  0  0  0  0  0  0  0  0  0  0  0
  190.8480  176.2050  147.1960 O   0  0  0  0  0  0  0  0  0  0  0  0
  191.6860  177.2090  145.2280 C   0  0  0  0  0  2  0  0  0  0  0  0
  190.4640  177.9630  145.6570 C   0  0  2  0  0  3  0  0  0  0  0  0
  191.6640  175.9630  146.0810 C   0  0  0  0  0  2  0  0  0  0  0  0
  189.8630  177.0930  146.7420 C   0  0  0  0  0  2  0  0  0  0  0  0
  1 26  1  6  0  0  0
  1 27  1  0  0  0  0
  2 14  1  0  0  0  0
  4 23  1  6  0  0  0
  4 18  1  0  0  0  0
  5 11  2  0  0  0  0
  6  7  1  0  0  0  0
  7  3  1  0  0  0  0
  8 12  1  0  0  0  0
  8 16  1  0  0  0  0
  9 25  1  0  0  0  0
 11 20  1  0  0  0  0
 13  9  1  0  0  0  0
 13 24  1  0  0  0  0
 14 25  1  0  0  0  0
 15  4  1  0  0  0  0
 15 12  1  0  0  0  0
 15  5  1  0  0  0  0
 16  3  1  0  0  0  0
 17 10  1  0  0  0  0
 17 28  1  0  0  0  0
 18  1  1  0  0  0  0
 18 20  1  0  0  0  0
 19  5  1  0  0  0  0
 19  6  1  0  0  0  0
 20 13  1  0  0  0  0
 21 26  2  0  0  0  0
 22 10  1  0  0  0  0
 23 21  1  0  0  0  0
 24 22  1  0  0  0  0
 25 17  1  0  0  0  0
 27  2  1  0  0  0  0
 27  9  1  0  0  0  0
 28 29  2  0  0  0  0
 29 32  1  0  0  0  0
 31 32  1  0  0  0  0
 31 33  1  0  0  0  0
 32 34  1  0  0  0  0
 33 30  1  0  0  0  0
 34 30  1  0  0  0  0
M  END
>  <MODEL>
4

>  <REMARK>
 VINA RESULT:      -7.7      1.504      2.218
  Name = 
  2 active torsions:
  status: ('A' for Active; 'I' for Inactive)
    1  A    between atoms: C_17  and  C_28
    2  A    between atoms: N_29  and  C_32
                            x       y       z     vdW  Elec       q    Type
                         _______ _______ _______ _____ _____    ______ ____

>  <TORSDO>
F 2

$$$$
=
 OpenBabel11122412153D

 34 40  0  0  1  0  0  0  0  0999 V2000
  190.2090  176.5170  139.2110 C   0  0  1  0  0  3  0  0  0  0  0  0
  189.4340  177.1950  141.5130 C   0  0  0  0  0  2  0  0  0  0  0  0
  185.8990  173.0190  136.4780 C   0  0  0  0  0  2  0  0  0  0  0  0
  190.1490  175.5550  136.8110 C   0  0  1  0  0  3  0  0  0  0  0  0
  187.9420  175.4270  135.6560 C   0  0  0  0  0  0  0  0  0  0  0  0
  185.6630  174.8440  134.7610 C   0  0  0  0  0  2  0  0  0  0  0  0
  185.2950  173.4140  135.1360 C   0  0  0  0  0  2  0  0  0  0  0  0
  188.2150  172.4050  135.6440 C   0  0  0  0  0  2  0  0  0  0  0  0
  188.3070  178.2990  139.6350 C   0  0  1  0  0  3  0  0  0  0  0  0
  185.1850  178.1630  140.5350 C   0  0  0  0  0  2  0  0  0  0  0  0
  187.5060  176.3630  136.4600 N   0  0  0  0  0  0  0  0  0  0  0  0
  188.9750  173.3450  136.5700 C   0  0  0  0  0  2  0  0  0  0  0  0
  187.4440  177.4450  138.6910 C   0  0  2  0  0  3  0  0  0  0  0  0
  188.1810  177.8720  141.9420 C   0  0  0  0  0  2  0  0  0  0  0  0
  189.2530  174.7020  135.9090 C   0  0  2  0  0  3  0  0  0  0  0  0
  186.9350  171.9090  136.3100 C   0  0  0  0  0  2  0  0  0  0  0  0
  186.2410  179.1610  141.0010 C   0  0  2  0  0  3  0  0  0  0  0  0
  189.3480  175.9960  138.0380 C   0  0  2  0  0  3  0  0  0  0  0  0
  187.1040  174.9570  134.5990 N   0  0  0  0  0  2  0  0  0  0  0  0
  188.3080  176.9760  137.5310 C   0  0  1  0  0  3  0  0  0  0  0  0
  192.2730  175.9410  137.9670 C   0  0  0  0  0  3  0  0  0  0  0  0
  185.0070  178.1400  139.0110 C   0  0  0  0  0  2  0  0  0  0  0  0
  191.4840  174.9210  137.1930 C   0  0  0  0  0  2  0  0  0  0  0  0
  186.2880  178.3060  138.1840 C   0  0  0  0  0  2  0  0  0  0  0  0
  187.5950  178.5030  140.9290 C   0  0  2  0  0  3  0  0  0  0  0  0
  191.6740  176.6980  138.9000 C   0  0  0  0  0  3  0  0  0  0  0  0
  189.6340  177.6490  140.0730 C   0  0  2  0  0  3  0  0  0  0  0  0
  185.9220  179.6650  142.3750 C   0  0  0  0  0  3  0  0  0  0  0  0
  184.8880  179.2350  143.0020 N   0  0  0  0  0  0  0  0  0  0  0  0
  183.6560  178.6280  146.2130 O   0  0  0  0  0  0  0  0  0  0  0  0
  185.6900  179.3660  145.2630 C   0  0  0  0  0  2  0  0  0  0  0  0
  184.5770  179.7160  144.3230 C   0  0  2  0  0  3  0  0  0  0  0  0
  185.0440  178.4340  146.2610 C   0  0  0  0  0  2  0  0  0  0  0  0
  183.3810  178.9730  144.8830 C   0  0  0  0  0  2  0  0  0  0  0  0
  1 26  1  6  0  0  0
  1 27  1  0  0  0  0
  2 14  1  0  0  0  0
  4 23  1  1  0  0  0
  4 18  1  0  0  0  0
  5 15  1  0  0  0  0
  5 11  2  0  0  0  0
  6  7  1  0  0  0  0
  7  3  1  0  0  0  0
  8 16  1  0  0  0  0
  8 12  1  0  0  0  0
  9 27  1  0  0  0  0
  9 25  1  0  0  0  0
 10 17  1  0  0  0  0
 11 20  1  0  0  0  0
 13  9  1  0  0  0  0
 15 12  1  0  0  0  0
 15  4  1  0  0  0  0
 16  3  1  0  0  0  0
 17 28  1  0  0  0  0
 18  1  1  0  0  0  0
 19  6  1  0  0  0  0
 19  5  1  0  0  0  0
 20 18  1  0  0  0  0
 20 13  1  0  0  0  0
 21 26  2  0  0  0  0
 22 10  1  0  0  0  0
 23 21  1  0  0  0  0
 24 13  1  0  0  0  0
 24 22  1  0  0  0  0
 25 17  1  0  0  0  0
 25 14  1  0  0  0  0
 27  2  1  0  0  0  0
 28 29  2  0  0  0  0
 29 32  1  0  0  0  0
 30 33  1  0  0  0  0
 31 33  1  0  0  0  0
 32 34  1  0  0  0  0
 32 31  1  0  0  0  0
 34 30  1  0  0  0  0
M  END
>  <MODEL>
5

>  <REMARK>
 VINA RESULT:      -7.5      3.152      4.599
  Name = 
  2 active torsions:
  status: ('A' for Active; 'I' for Inactive)
    1  A    between atoms: C_17  and  C_28
    2  A    between atoms: N_29  and  C_32
                            x       y       z     vdW  Elec       q    Type
                         _______ _______ _______ _____ _____    ______ ____

>  <TORSDO>
F 2

$$$$
=
 OpenBabel11122412153D

 34 40  0  0  1  0  0  0  0  0999 V2000
  188.6600  177.7430  142.0010 C   0  0  1  0  0  3  0  0  0  0  0  0
  186.5380  177.3630  143.3110 C   0  0  0  0  0  2  0  0  0  0  0  0
  188.3650  174.7530  136.5920 C   0  0  0  0  0  2  0  0  0  0  0  0
  190.3310  177.7420  140.0270 C   0  0  1  0  0  3  0  0  0  0  0  0
  189.4100  177.6340  137.7120 C   0  0  0  0  0  0  0  0  0  0  0  0
  188.4620  177.0030  135.4670 C   0  0  0  0  0  2  0  0  0  0  0  0
  188.5250  175.4930  135.2700 C   0  0  0  0  0  2  0  0  0  0  0  0
  190.7680  174.9400  137.3840 C   0  0  0  0  0  2  0  0  0  0  0  0
  186.3460  178.8480  141.3670 C   0  0  1  0  0  3  0  0  0  0  0  0
  183.6010  177.8000  139.9750 C   0  0  0  0  0  2  0  0  0  0  0  0
  188.2810  178.1060  138.1770 N   0  0  0  0  0  0  0  0  0  0  0  0
  190.4470  175.5980  138.7200 C   0  0  0  0  0  2  0  0  0  0  0  0
  186.5690  178.2550  139.9660 C   0  0  2  0  0  3  0  0  0  0  0  0
  185.1200  177.5840  142.9220 C   0  0  0  0  0  2  0  0  0  0  0  0
  190.5060  177.1290  138.6350 C   0  0  2  0  0  3  0  0  0  0  0  0
  189.6430  174.0010  136.9610 C   0  0  0  0  0  2  0  0  0  0  0  0
  183.7330  178.7370  141.1720 C   0  0  2  0  0  3  0  0  0  0  0  0
  188.8850  177.5390  140.4860 C   0  0  2  0  0  3  0  0  0  0  0  0
  189.5680  177.4380  136.3060 N   0  0  0  0  0  2  0  0  0  0  0  0
  188.0340  178.4210  139.5930 C   0  0  1  0  0  3  0  0  0  0  0  0
  191.0930  178.0690  142.3320 C   0  0  0  0  0  3  0  0  0  0  0  0
  184.3360  178.3080  138.7270 C   0  0  0  0  0  2  0  0  0  0  0  0
  191.3370  177.2770  141.0770 C   0  0  0  0  0  2  0  0  0  0  0  0
  185.6780  179.0070  138.9780 C   0  0  0  0  0  2  0  0  0  0  0  0
  185.0180  178.4210  141.8940 C   0  0  2  0  0  3  0  0  0  0  0  0
  189.8410  178.3000  142.7560 C   0  0  0  0  0  3  0  0  0  0  0  0
  187.3220  178.3460  142.4500 C   0  0  2  0  0  3  0  0  0  0  0  0
  182.5350  178.6280  142.0640 C   0  0  0  0  0  3  0  0  0  0  0  0
  181.3880  178.3220  141.5780 N   0  0  0  0  0  0  0  0  0  0  0  0
  179.5660  179.4580  144.3330 O   0  0  0  0  0  0  0  0  0  0  0  0
  179.2020  179.2200  142.0110 C   0  0  0  0  0  2  0  0  0  0  0  0
  180.2320  178.2160  142.4300 C   0  0  2  0  0  3  0  0  0  0  0  0
  179.0750  180.1330  143.2080 C   0  0  0  0  0  2  0  0  0  0  0  0
  180.5850  178.6270  143.8450 C   0  0  0  0  0  2  0  0  0  0  0  0
  1 27  1  0  0  0  0
  1 26  1  6  0  0  0
  3 16  1  0  0  0  0
  4 18  1  0  0  0  0
  4 23  1  1  0  0  0
  5 11  2  0  0  0  0
  5 15  1  0  0  0  0
  6 19  1  0  0  0  0
  7  6  1  0  0  0  0
  7  3  1  0  0  0  0
  8 12  1  0  0  0  0
  9 25  1  0  0  0  0
  9 27  1  0  0  0  0
 10 17  1  0  0  0  0
 11 20  1  0  0  0  0
 13  9  1  0  0  0  0
 14  2  1  0  0  0  0
 15 12  1  0  0  0  0
 15  4  1  0  0  0  0
 16  8  1  0  0  0  0
 17 25  1  0  0  0  0
 17 28  1  0  0  0  0
 18  1  1  0  0  0  0
 19  5  1  0  0  0  0
 20 13  1  0  0  0  0
 20 18  1  0  0  0  0
 21 26  2  0  0  0  0
 22 24  1  0  0  0  0
 22 10  1  0  0  0  0
 23 21  1  0  0  0  0
 24 13  1  0  0  0  0
 25 14  1  0  0  0  0
 27  2  1  0  0  0  0
 29 28  2  0  0  0  0
 29 32  1  0  0  0  0
 31 32  1  0  0  0  0
 31 33  1  0  0  0  0
 32 34  1  0  0  0  0
 33 30  1  0  0  0  0
 34 30  1  0  0  0  0
M  END
>  <MODEL>
6

>  <REMARK>
 VINA RESULT:      -7.5      3.562      6.458
  Name = 
  2 active torsions:
  status: ('A' for Active; 'I' for Inactive)
    1  A    between atoms: C_17  and  C_28
    2  A    between atoms: N_29  and  C_32
                            x       y       z     vdW  Elec       q    Type
                         _______ _______ _______ _____ _____    ______ ____

>  <TORSDO>
F 2

$$$$
=
 OpenBabel11122412153D

 34 40  0  0  1  0  0  0  0  0999 V2000
  182.2840  177.8730  141.3360 C   0  0  1  0  0  3  0  0  0  0  0  0
  181.2520  176.1270  139.8370 C   0  0  0  0  0  2  0  0  0  0  0  0
  188.2210  176.4990  142.4020 C   0  0  0  0  0  2  0  0  0  0  0  0
  184.0780  179.2170  142.6250 C   0  0  1  0  0  3  0  0  0  0  0  0
  186.4240  179.1500  141.7800 C   0  0  0  0  0  0  0  0  0  0  0  0
  188.8170  178.6280  141.2000 C   0  0  0  0  0  2  0  0  0  0  0  0
  189.3340  177.4810  142.0610 C   0  0  0  0  0  2  0  0  0  0  0  0
  187.2290  177.7710  144.3610 C   0  0  0  0  0  2  0  0  0  0  0  0
  182.8330  177.6630  138.7610 C   0  0  1  0  0  3  0  0  0  0  0  0
  184.6230  175.6420  136.9490 C   0  0  0  0  0  2  0  0  0  0  0  0
  185.9530  178.8200  140.6050 N   0  0  0  0  0  0  0  0  0  0  0  0
  185.8100  177.8320  143.8110 C   0  0  0  0  0  2  0  0  0  0  0  0
  184.3090  177.6160  139.1900 C   0  0  2  0  0  3  0  0  0  0  0  0
  181.6880  175.6270  138.5070 C   0  0  0  0  0  2  0  0  0  0  0  0
  185.5540  179.1250  143.0250 C   0  0  2  0  0  3  0  0  0  0  0  0
  187.9310  176.4960  143.9020 C   0  0  0  0  0  2  0  0  0  0  0  0
  183.2440  176.2060  136.6200 C   0  0  2  0  0  3  0  0  0  0  0  0
  183.7860  178.1690  141.5500 C   0  0  2  0  0  3  0  0  0  0  0  0
  187.8230  179.3900  141.9390 N   0  0  0  0  0  2  0  0  0  0  0  0
  184.5260  178.6250  140.3070 C   0  0  1  0  0  3  0  0  0  0  0  0
  181.7070  179.3780  143.2190 C   0  0  0  0  0  3  0  0  0  0  0  0
  185.6710  176.7300  137.2190 C   0  0  0  0  0  2  0  0  0  0  0  0
  183.0830  179.1480  143.7810 C   0  0  0  0  0  2  0  0  0  0  0  0
  185.1740  177.9650  137.9790 C   0  0  0  0  0  2  0  0  0  0  0  0
  182.5130  176.4820  137.9100 C   0  0  2  0  0  3  0  0  0  0  0  0
  181.3390  178.7950  142.0670 C   0  0  0  0  0  3  0  0  0  0  0  0
  181.8150  177.5400  139.9130 C   0  0  2  0  0  3  0  0  0  0  0  0
  182.4900  175.2700  135.7250 C   0  0  0  0  0  3  0  0  0  0  0  0
  182.9220  174.0810  135.5160 N   0  0  0  0  0  0  0  0  0  0  0  0
  181.7350  170.8640  134.8480 O   0  0  0  0  0  0  0  0  0  0  0  0
  180.8000  173.0120  135.1590 C   0  0  0  0  0  2  0  0  0  0  0  0
  182.2020  173.1780  134.6560 C   0  0  2  0  0  3  0  0  0  0  0  0
  180.7140  171.5480  135.5230 C   0  0  0  0  0  2  0  0  0  0  0  0
  182.7880  171.7840  134.7500 C   0  0  0  0  0  2  0  0  0  0  0  0
  1 18  1  0  0  0  0
  1 26  1  6  0  0  0
  2 27  1  0  0  0  0
  3 16  1  0  0  0  0
  4 15  1  0  0  0  0
  4 23  1  1  0  0  0
  5 19  1  0  0  0  0
  5 15  1  0  0  0  0
  6 19  1  0  0  0  0
  6  7  1  0  0  0  0
  7  3  1  0  0  0  0
  9 13  1  0  0  0  0
  9 27  1  0  0  0  0
 10 22  1  0  0  0  0
 11  5  2  0  0  0  0
 12  8  1  0  0  0  0
 13 20  1  0  0  0  0
 14  2  1  0  0  0  0
 15 12  1  0  0  0  0
 16  8  1  0  0  0  0
 17 10  1  0  0  0  0
 17 25  1  0  0  0  0
 18  4  1  0  0  0  0
 20 11  1  0  0  0  0
 20 18  1  0  0  0  0
 21 23  1  0  0  0  0
 22 24  1  0  0  0  0
 24 13  1  0  0  0  0
 25 14  1  0  0  0  0
 25  9  1  0  0  0  0
 26 21  2  0  0  0  0
 27  1  1  0  0  0  0
 28 17  1  0  0  0  0
 29 28  2  0  0  0  0
 30 33  1  0  0  0  0
 31 33  1  0  0  0  0
 32 34  1  0  0  0  0
 32 31  1  0  0  0  0
 32 29  1  0  0  0  0
 34 30  1  0  0  0  0
M  END
>  <MODEL>
7

>  <REMARK>
 VINA RESULT:      -6.9      3.763      9.265
  Name = 
  2 active torsions:
  status: ('A' for Active; 'I' for Inactive)
    1  A    between atoms: C_17  and  C_28
    2  A    between atoms: N_29  and  C_32
                            x       y       z     vdW  Elec       q    Type
                         _______ _______ _______ _____ _____    ______ ____

>  <TORSDO>
F 2

$$$$
=
 OpenBabel11122412153D

 34 40  0  0  1  0  0  0  0  0999 V2000
  188.4940  177.4710  138.8720 C   0  0  1  0  0  3  0  0  0  0  0  0
  188.7810  177.1530  141.3570 C   0  0  0  0  0  2  0  0  0  0  0  0
  183.2850  174.7190  136.9800 C   0  0  0  0  0  2  0  0  0  0  0  0
  187.3940  177.4600  136.5310 C   0  0  1  0  0  3  0  0  0  0  0  0
  184.9040  177.4930  136.4060 C   0  0  0  0  0  0  0  0  0  0  0  0
  182.4350  177.0030  136.3520 C   0  0  0  0  0  2  0  0  0  0  0  0
  182.1950  175.5000  136.2600 C   0  0  0  0  0  2  0  0  0  0  0  0
  185.0120  174.7460  135.1210 C   0  0  0  0  0  2  0  0  0  0  0  0
  187.0230  178.7220  140.6740 C   0  0  1  0  0  3  0  0  0  0  0  0
  184.5590  177.8780  142.6210 C   0  0  0  0  0  2  0  0  0  0  0  0
  184.8850  178.0060  137.6100 N   0  0  0  0  0  0  0  0  0  0  0  0
  186.1310  175.3660  135.9490 C   0  0  0  0  0  2  0  0  0  0  0  0
  185.8080  178.1740  139.9060 C   0  0  2  0  0  3  0  0  0  0  0  0
  187.8530  177.4640  142.4770 C   0  0  0  0  0  2  0  0  0  0  0  0
  186.1670  176.8940  135.8110 C   0  0  2  0  0  3  0  0  0  0  0  0
  184.1060  173.8860  135.9970 C   0  0  0  0  0  2  0  0  0  0  0  0
  185.7560  178.7580  142.9700 C   0  0  2  0  0  3  0  0  0  0  0  0
  187.1990  177.3160  138.0420 C   0  0  2  0  0  3  0  0  0  0  0  0
  183.6810  177.3440  135.6830 N   0  0  0  0  0  2  0  0  0  0  0  0
  186.0870  178.2770  138.4150 C   0  0  1  0  0  3  0  0  0  0  0  0
  189.8230  177.6540  136.7890 C   0  0  0  0  0  3  0  0  0  0  0  0
  183.7600  178.3950  141.4170 C   0  0  0  0  0  2  0  0  0  0  0  0
  188.7370  176.9010  136.0690 C   0  0  0  0  0  2  0  0  0  0  0  0
  184.5850  179.0110  140.2800 C   0  0  0  0  0  2  0  0  0  0  0  0
  186.9260  178.3460  142.1140 C   0  0  2  0  0  3  0  0  0  0  0  0
  189.7010  177.9340  138.0960 C   0  0  0  0  0  3  0  0  0  0  0  0
  188.3820  178.1260  140.2550 C   0  0  2  0  0  3  0  0  0  0  0  0
  186.0630  178.6770  144.4340 C   0  0  0  0  0  3  0  0  0  0  0  0
  185.8990  177.5770  145.0730 N   0  0  0  0  0  0  0  0  0  0  0  0
  187.9450  178.4150  147.7760 O   0  0  0  0  0  0  0  0  0  0  0  0
  185.6800  178.7180  147.1760 C   0  0  0  0  0  2  0  0  0  0  0  0
  186.1920  177.4930  146.4800 C   0  0  2  0  0  3  0  0  0  0  0  0
  186.9280  179.3780  147.7160 C   0  0  0  0  0  2  0  0  0  0  0  0
  187.6880  177.5440  146.7090 C   0  0  0  0  0  2  0  0  0  0  0  0
  1 26  1  6  0  0  0
  1 27  1  0  0  0  0
  2 14  1  0  0  0  0
  4 23  1  6  0  0  0
  4 18  1  0  0  0  0
  5 11  2  0  0  0  0
  7  6  1  0  0  0  0
  7  3  1  0  0  0  0
  8 12  1  0  0  0  0
  8 16  1  0  0  0  0
  9 25  1  0  0  0  0
 10 17  1  0  0  0  0
 11 20  1  0  0  0  0
 13 24  1  0  0  0  0
 13  9  1  0  0  0  0
 15 12  1  0  0  0  0
 15  5  1  0  0  0  0
 15  4  1  0  0  0  0
 16  3  1  0  0  0  0
 17 28  1  0  0  0  0
 18 20  1  0  0  0  0
 18  1  1  0  0  0  0
 19  6  1  0  0  0  0
 19  5  1  0  0  0  0
 20 13  1  0  0  0  0
 21 26  2  0  0  0  0
 22 10  1  0  0  0  0
 23 21  1  0  0  0  0
 24 22  1  0  0  0  0
 25 14  1  0  0  0  0
 25 17  1  0  0  0  0
 27  9  1  0  0  0  0
 27  2  1  0  0  0  0
 28 29  2  0  0  0  0
 29 32  1  0  0  0  0
 31 33  1  0  0  0  0
 32 34  1  0  0  0  0
 32 31  1  0  0  0  0
 33 30  1  0  0  0  0
 34 30  1  0  0  0  0
M  END
>  <MODEL>
8

>  <REMARK>
 VINA RESULT:      -6.9      1.647      2.093
  Name = 
  2 active torsions:
  status: ('A' for Active; 'I' for Inactive)
    1  A    between atoms: C_17  and  C_28
    2  A    between atoms: N_29  and  C_32
                            x       y       z     vdW  Elec       q    Type
                         _______ _______ _______ _____ _____    ______ ____

>  <TORSDO>
F 2

$$$$
=
 OpenBabel11122412153D

 34 40  0  0  1  0  0  0  0  0999 V2000
  185.5500  177.3120  136.8670 C   0  0  1  0  0  3  0  0  0  0  0  0
  187.7100  176.7510  138.0410 C   0  0  0  0  0  2  0  0  0  0  0  0
  180.7400  175.6160  140.3700 C   0  0  0  0  0  2  0  0  0  0  0  0
  183.0190  177.6720  136.4750 C   0  0  1  0  0  3  0  0  0  0  0  0
  181.5780  178.1240  138.4590 C   0  0  0  0  0  0  0  0  0  0  0  0
  180.1240  178.0530  140.5130 C   0  0  0  0  0  2  0  0  0  0  0  0
  179.6810  176.6230  140.7990 C   0  0  0  0  0  2  0  0  0  0  0  0
  180.1380  175.5110  137.9080 C   0  0  0  0  0  2  0  0  0  0  0  0
  186.4460  178.6370  138.9690 C   0  0  1  0  0  3  0  0  0  0  0  0
  186.5940  178.0540  142.1650 C   0  0  0  0  0  2  0  0  0  0  0  0
  182.6450  178.5340  139.0970 N   0  0  0  0  0  0  0  0  0  0  0  0
  181.5240  175.8690  137.3870 C   0  0  0  0  0  2  0  0  0  0  0  0
  185.0690  178.3610  139.5960 C   0  0  2  0  0  3  0  0  0  0  0  0
  188.1850  177.1180  139.4020 C   0  0  0  0  0  2  0  0  0  0  0  0
  181.6730  177.3770  137.1400 C   0  0  2  0  0  3  0  0  0  0  0  0
  180.2380  174.7430  139.2220 C   0  0  0  0  0  2  0  0  0  0  0  0
  187.6670  178.6940  141.2890 C   0  0  2  0  0  3  0  0  0  0  0  0
  184.1410  177.4400  137.4890 C   0  0  2  0  0  3  0  0  0  0  0  0
  180.2970  178.2380  139.0810 N   0  0  0  0  0  2  0  0  0  0  0  0
  184.0020  178.5370  138.5270 C   0  0  1  0  0  3  0  0  0  0  0  0
  184.5730  177.4430  134.5950 C   0  0  0  0  0  3  0  0  0  0  0  0
  185.2490  178.7920  142.1070 C   0  0  0  0  0  2  0  0  0  0  0  0
  183.2730  176.9400  135.1600 C   0  0  0  0  0  2  0  0  0  0  0  0
  184.8510  179.3540  140.7370 C   0  0  0  0  0  2  0  0  0  0  0  0
  187.5240  178.1670  139.8840 C   0  0  2  0  0  3  0  0  0  0  0  0
  185.6330  177.6330  135.3960 C   0  0  0  0  0  3  0  0  0  0  0  0
  186.7380  177.8630  137.6690 C   0  0  2  0  0  3  0  0  0  0  0  0
  189.0300  178.4460  141.8580 C   0  0  0  0  0  3  0  0  0  0  0  0
  189.1940  178.3150  143.1240 N   0  0  0  0  0  0  0  0  0  0  0  0
  191.3680  176.2690  144.9350 O   0  0  0  0  0  0  0  0  0  0  0  0
  191.2820  177.1840  142.7590 C   0  0  0  0  0  2  0  0  0  0  0  0
  190.5020  178.0770  143.6760 C   0  0  2  0  0  3  0  0  0  0  0  0
  191.5260  175.9410  143.5810 C   0  0  0  0  0  2  0  0  0  0  0  0
  190.3920  177.2750  144.9570 C   0  0  0  0  0  2  0  0  0  0  0  0
  1 26  1  6  0  0  0
  1 18  1  0  0  0  0
  1 27  1  0  0  0  0
  2 14  1  0  0  0  0
  3  7  1  0  0  0  0
  4 23  1  6  0  0  0
  4 15  1  0  0  0  0
  4 18  1  0  0  0  0
  5 19  1  0  0  0  0
  5 11  2  0  0  0  0
  6  7  1  0  0  0  0
  8 16  1  0  0  0  0
  9 13  1  0  0  0  0
  9 25  1  0  0  0  0
 12  8  1  0  0  0  0
 13 24  1  0  0  0  0
 14 25  1  0  0  0  0
 15 12  1  0  0  0  0
 15  5  1  0  0  0  0
 16  3  1  0  0  0  0
 17 28  1  0  0  0  0
 17 10  1  0  0  0  0
 18 20  1  0  0  0  0
 19  6  1  0  0  0  0
 20 11  1  0  0  0  0
 20 13  1  0  0  0  0
 21 23  1  0  0  0  0
 21 26  2  0  0  0  0
 22 10  1  0  0  0  0
 24 22  1  0  0  0  0
 25 17  1  0  0  0  0
 27  2  1  0  0  0  0
 27  9  1  0  0  0  0
 28 29  2  0  0  0  0
 29 32  1  0  0  0  0
 30 34  1  0  0  0  0
 31 33  1  0  0  0  0
 31 32  1  0  0  0  0
 32 34  1  0  0  0  0
 33 30  1  0  0  0  0
M  END
>  <MODEL>
9

>  <REMARK>
 VINA RESULT:      -6.6      1.967      3.489
  Name = 
  2 active torsions:
  status: ('A' for Active; 'I' for Inactive)
    1  A    between atoms: C_17  and  C_28
    2  A    between atoms: N_29  and  C_32
                            x       y       z     vdW  Elec       q    Type
                         _______ _______ _______ _____ _____    ______ ____

>  <TORSDO>
F 2

$$$$
