=
 OpenBabel11122412083D

 34 41  0  0  1  0  0  0  0  0999 V2000
  187.3950  178.1060  140.1520 C   0  0  0  0  0  0  0  0  0  0  0  0
  185.4650  178.9360  138.7390 C   0  0  0  0  0  2  0  0  0  0  0  0
  190.6120  177.6940  145.3860 C   0  0  2  0  0  3  0  0  0  0  0  0
  188.9900  176.9380  141.5290 C   0  0  0  0  0  0  0  0  0  0  0  0
  188.6380  176.6960  144.0280 C   0  0  1  0  0  3  0  0  0  0  0  0
  189.6160  178.9410  143.9890 O   0  0  0  0  0  0  0  0  0  0  0  0
  190.9400  178.8570  144.4650 C   0  0  0  0  0  2  0  0  0  0  0  0
  191.6500  176.3330  143.7540 C   0  0  0  0  0  2  0  0  0  0  0  0
  185.3470  179.2100  141.1430 C   0  0  2  0  0  3  0  0  0  0  0  0
  182.5180  178.1580  142.3920 C   0  0  0  0  0  2  0  0  0  0  0  0
  187.1550  176.9070  143.7140 C   0  0  0  0  0  2  0  0  0  0  0  0
  190.6140  175.6120  142.9110 C   0  0  0  0  0  2  0  0  0  0  0  0
  185.4900  178.2110  142.3140 C   0  0  1  0  0  3  0  0  0  0  0  0
  184.0940  179.5040  139.0720 C   0  0  0  0  0  2  0  0  0  0  0  0
  189.4070  176.4210  142.8060 N   0  0  0  0  0  0  0  0  0  0  0  0
  191.2000  176.4280  145.0870 O   0  0  0  0  0  0  0  0  0  0  0  0
  182.9590  178.2100  140.9170 C   0  0  1  0  0  3  0  0  0  0  0  0
  187.7890  177.6570  141.4180 C   0  0  0  0  0  0  0  0  0  0  0  0
  189.2130  177.8830  144.8280 C   0  0  2  0  0  3  0  0  0  0  0  0
  186.9750  177.9910  142.6470 C   0  0  2  0  0  3  0  0  0  0  0  0
  189.3240  177.1320  139.1920 C   0  0  0  0  0  3  0  0  0  0  0  0
  183.2840  179.1080  143.3150 C   0  0  0  0  0  2  0  0  0  0  0  0
  189.7270  176.6910  140.4110 N   0  0  0  0  0  0  0  0  0  0  0  0
  184.7290  178.6690  143.5670 C   0  0  0  0  0  2  0  0  0  0  0  0
  183.9240  179.3700  140.5820 C   0  0  1  0  0  3  0  0  0  0  0  0
  188.1650  177.8290  139.0660 N   0  0  0  0  0  0  0  0  0  0  0  0
  186.1550  178.8080  140.0060 N   0  0  0  0  0  0  0  0  0  0  0  0
  183.4950  176.9740  140.5380 O   0  0  0  0  0  0  0  0  0  0  0  0
  182.4910  176.3520  139.7920 C   0  0  0  0  0  2  0  0  0  0  0  0
  182.9290  174.3330  136.8980 C   0  0  0  0  0  2  0  0  0  0  0  0
  181.8010  176.3650  137.4130 C   0  0  0  0  0  2  0  0  0  0  0  0
  182.9570  176.1660  138.3600 C   0  0  2  0  0  3  0  0  0  0  0  0
  182.1110  175.4410  136.2730 C   0  0  0  0  0  2  0  0  0  0  0  0
  183.4730  174.8160  138.1630 N   0  0  0  0  0  2  0  0  0  0  0  0
  1 18  1  0  0  0  0
  2 14  1  0  0  0  0
  2 27  1  0  0  0  0
  3  7  1  6  0  0  0
  4 15  1  0  0  0  0
  5 11  1  6  0  0  0
  5 19  1  0  0  0  0
  6  7  1  0  0  0  0
  8 16  1  0  0  0  0
  9 27  1  6  0  0  0
  9 13  1  0  0  0  0
 10 22  1  0  0  0  0
 12  8  1  0  0  0  0
 13 20  1  0  0  0  0
 13 24  1  1  0  0  0
 15 12  1  0  0  0  0
 15  5  1  0  0  0  0
 16  3  1  0  0  0  0
 17 28  1  1  0  0  0
 17 10  1  0  0  0  0
 18  4  2  0  0  0  0
 18 20  1  0  0  0  0
 19  6  1  6  0  0  0
 19  3  1  0  0  0  0
 20 11  1  1  0  0  0
 21 23  2  0  0  0  0
 22 24  1  0  0  0  0
 23  4  1  0  0  0  0
 25 14  1  6  0  0  0
 25 17  1  0  0  0  0
 25  9  1  0  0  0  0
 26 21  1  0  0  0  0
 26  1  2  0  0  0  0
 27  1  1  0  0  0  0
 29 28  1  0  0  0  0
 30 34  1  0  0  0  0
 31 32  1  0  0  0  0
 32 29  1  1  0  0  0
 33 30  1  0  0  0  0
 33 31  1  0  0  0  0
 34 32  1  0  0  0  0
M  END
>  <MODEL>
1

>  <REMARK>
 VINA RESULT:      -7.9      0.000      0.000
  Name = 
  3 active torsions:
  status: ('A' for Active; 'I' for Inactive)
    1  A    between atoms: C_17  and  O_28
    2  A    between atoms: O_28  and  C_29
    3  A    between atoms: C_29  and  C_32
                            x       y       z     vdW  Elec       q    Type
                         _______ _______ _______ _____ _____    ______ ____

>  <TORSDO>
F 3

$$$$
=
 OpenBabel11122412083D

 34 41  0  0  1  0  0  0  0  0999 V2000
  185.7500  178.4720  139.4490 C   0  0  0  0  0  0  0  0  0  0  0  0
  188.0170  177.8590  138.5020 C   0  0  0  0  0  2  0  0  0  0  0  0
  179.8580  180.1900  138.9580 C   0  0  2  0  0  3  0  0  0  0  0  0
  183.5370  178.6120  140.3900 C   0  0  0  0  0  0  0  0  0  0  0  0
  181.4790  178.1630  138.9780 C   0  0  1  0  0  3  0  0  0  0  0  0
  181.8690  180.5010  138.3650 O   0  0  0  0  0  0  0  0  0  0  0  0
  180.8970  181.2960  139.0030 C   0  0  0  0  0  2  0  0  0  0  0  0
  180.3590  179.8610  141.2460 C   0  0  0  0  0  2  0  0  0  0  0  0
  186.1180  177.9550  137.0010 C   0  0  2  0  0  3  0  0  0  0  0  0
  185.8600  175.2930  135.1270 C   0  0  0  0  0  2  0  0  0  0  0  0
  182.4230  177.3580  138.0810 C   0  0  0  0  0  2  0  0  0  0  0  0
  181.2540  178.6500  141.4360 C   0  0  0  0  0  2  0  0  0  0  0  0
  184.7300  177.2750  137.0320 C   0  0  1  0  0  3  0  0  0  0  0  0
  188.4860  177.3880  137.1340 C   0  0  0  0  0  2  0  0  0  0  0  0
  182.1090  178.4750  140.2690 N   0  0  0  0  0  0  0  0  0  0  0  0
  179.4440  179.6200  140.2000 O   0  0  0  0  0  0  0  0  0  0  0  0
  186.9480  175.6410  136.1590 C   0  0  1  0  0  3  0  0  0  0  0  0
  184.3640  178.3720  139.2810 C   0  0  0  0  0  0  0  0  0  0  0  0
  180.9660  179.4260  138.2560 C   0  0  2  0  0  3  0  0  0  0  0  0
  183.7670  178.0750  137.9240 C   0  0  2  0  0  3  0  0  0  0  0  0
  185.4480  179.0090  141.7320 C   0  0  0  0  0  3  0  0  0  0  0  0
  185.0840  176.4990  134.5940 C   0  0  0  0  0  2  0  0  0  0  0  0
  184.1000  178.9220  141.5900 N   0  0  0  0  0  0  0  0  0  0  0  0
  184.1320  177.1080  135.6270 C   0  0  0  0  0  2  0  0  0  0  0  0
  187.2290  177.1540  136.3020 C   0  0  1  0  0  3  0  0  0  0  0  0
  186.2630  178.7810  140.6690 N   0  0  0  0  0  0  0  0  0  0  0  0
  186.6170  178.1950  138.3430 N   0  0  0  0  0  0  0  0  0  0  0  0
  186.6340  175.0610  137.3940 O   0  0  0  0  0  0  0  0  0  0  0  0
  186.7400  173.6830  137.1900 C   0  0  0  0  0  2  0  0  0  0  0  0
  183.1930  173.4540  137.2670 C   0  0  0  0  0  2  0  0  0  0  0  0
  184.9840  172.0480  136.5720 C   0  0  0  0  0  2  0  0  0  0  0  0
  185.4620  172.9980  137.6400 C   0  0  2  0  0  3  0  0  0  0  0  0
  183.4910  172.0790  136.7100 C   0  0  0  0  0  2  0  0  0  0  0  0
  184.4110  173.9830  137.8700 N   0  0  0  0  0  2  0  0  0  0  0  0
  1 26  1  0  0  0  0
  3  7  1  1  0  0  0
  3 16  1  0  0  0  0
  4 23  2  0  0  0  0
  5 11  1  6  0  0  0
  5 15  1  0  0  0  0
  6  7  1  0  0  0  0
  8 12  1  0  0  0  0
  9 13  1  0  0  0  0
  9 27  1  1  0  0  0
 10 17  1  0  0  0  0
 13 24  1  6  0  0  0
 13 20  1  0  0  0  0
 14  2  1  0  0  0  0
 15  4  1  0  0  0  0
 15 12  1  0  0  0  0
 16  8  1  0  0  0  0
 17 25  1  0  0  0  0
 17 28  1  1  0  0  0
 18  1  2  0  0  0  0
 18  4  1  0  0  0  0
 19  6  1  1  0  0  0
 19  3  1  0  0  0  0
 19  5  1  0  0  0  0
 20 11  1  1  0  0  0
 20 18  1  0  0  0  0
 22 10  1  0  0  0  0
 22 24  1  0  0  0  0
 23 21  1  0  0  0  0
 25  9  1  0  0  0  0
 25 14  1  1  0  0  0
 26 21  2  0  0  0  0
 27  2  1  0  0  0  0
 27  1  1  0  0  0  0
 29 28  1  0  0  0  0
 30 34  1  0  0  0  0
 31 33  1  0  0  0  0
 31 32  1  0  0  0  0
 32 29  1  6  0  0  0
 32 34  1  0  0  0  0
 33 30  1  0  0  0  0
M  END
>  <MODEL>
2

>  <REMARK>
 VINA RESULT:      -6.6      3.771      7.250
  Name = 
  3 active torsions:
  status: ('A' for Active; 'I' for Inactive)
    1  A    between atoms: C_17  and  O_28
    2  A    between atoms: O_28  and  C_29
    3  A    between atoms: C_29  and  C_32
                            x       y       z     vdW  Elec       q    Type
                         _______ _______ _______ _____ _____    ______ ____

>  <TORSDO>
F 3

$$$$
=
 OpenBabel11122412083D

 34 41  0  0  1  0  0  0  0  0999 V2000
  185.8790  177.9160  137.5940 C   0  0  0  0  0  0  0  0  0  0  0  0
  188.1830  178.8970  137.2180 C   0  0  0  0  0  2  0  0  0  0  0  0
  181.2630  174.0480  136.3100 C   0  0  2  0  0  3  0  0  0  0  0  0
  183.8850  176.7530  138.2830 C   0  0  0  0  0  0  0  0  0  0  0  0
  183.4810  174.3370  137.6260 C   0  0  1  0  0  3  0  0  0  0  0  0
  182.6960  175.4310  135.5820 O   0  0  0  0  0  0  0  0  0  0  0  0
  181.2880  175.3660  135.5560 C   0  0  0  0  0  2  0  0  0  0  0  0
  180.6620  175.3380  138.1980 C   0  0  0  0  0  2  0  0  0  0  0  0
  187.6150  176.8120  136.1220 C   0  0  2  0  0  3  0  0  0  0  0  0
  189.8900  174.5070  136.5460 C   0  0  0  0  0  2  0  0  0  0  0  0
  185.0020  174.2550  137.4700 C   0  0  0  0  0  2  0  0  0  0  0  0
  181.8520  175.5380  139.1190 C   0  0  0  0  0  2  0  0  0  0  0  0
  187.0780  175.4650  136.6600 C   0  0  1  0  0  3  0  0  0  0  0  0
  189.4300  178.3940  136.5090 C   0  0  0  0  0  2  0  0  0  0  0  0
  183.0850  175.5570  138.3430 N   0  0  0  0  0  0  0  0  0  0  0  0
  180.7110  174.0500  137.6270 O   0  0  0  0  0  0  0  0  0  0  0  0
  189.9000  175.9690  137.0290 C   0  0  1  0  0  3  0  0  0  0  0  0
  185.1080  176.7470  137.5940 C   0  0  0  0  0  0  0  0  0  0  0  0
  182.7730  174.2000  136.2630 C   0  0  2  0  0  3  0  0  0  0  0  0
  185.5500  175.5270  136.8170 C   0  0  2  0  0  3  0  0  0  0  0  0
  184.2560  179.0010  138.9270 C   0  0  0  0  0  3  0  0  0  0  0  0
  188.9490  174.2350  135.3710 C   0  0  0  0  0  2  0  0  0  0  0  0
  183.4900  177.8800  138.9350 N   0  0  0  0  0  0  0  0  0  0  0  0
  187.4690  174.2820  135.7610 C   0  0  0  0  0  2  0  0  0  0  0  0
  189.1460  176.9510  136.1030 C   0  0  1  0  0  3  0  0  0  0  0  0
  185.4420  179.0140  138.2650 N   0  0  0  0  0  0  0  0  0  0  0  0
  187.1480  177.9240  136.9310 N   0  0  0  0  0  0  0  0  0  0  0  0
  189.4220  176.0390  138.3440 O   0  0  0  0  0  0  0  0  0  0  0  0
  190.5380  176.3550  139.1230 C   0  0  0  0  0  2  0  0  0  0  0  0
  188.4950  177.6300  141.7390 C   0  0  0  0  0  2  0  0  0  0  0  0
  190.8100  177.1540  141.4530 C   0  0  0  0  0  2  0  0  0  0  0  0
  190.1770  177.4450  140.1160 C   0  0  2  0  0  3  0  0  0  0  0  0
  189.8320  177.7180  142.4400 C   0  0  0  0  0  2  0  0  0  0  0  0
  188.7320  177.5030  140.3050 N   0  0  0  0  0  2  0  0  0  0  0  0
  1 26  1  0  0  0  0
  3  7  1  6  0  0  0
  3 16  1  0  0  0  0
  4 15  1  0  0  0  0
  4 23  2  0  0  0  0
  5 11  1  6  0  0  0
  5 15  1  0  0  0  0
  7  6  1  0  0  0  0
  8 12  1  0  0  0  0
  9 13  1  0  0  0  0
  9 27  1  1  0  0  0
 10 17  1  0  0  0  0
 13 24  1  6  0  0  0
 13 20  1  0  0  0  0
 14  2  1  0  0  0  0
 15 12  1  0  0  0  0
 16  8  1  0  0  0  0
 17 28  1  1  0  0  0
 18  1  2  0  0  0  0
 18  4  1  0  0  0  0
 19  6  1  6  0  0  0
 19  3  1  0  0  0  0
 19  5  1  0  0  0  0
 20 11  1  1  0  0  0
 20 18  1  0  0  0  0
 21 23  1  0  0  0  0
 22 24  1  0  0  0  0
 22 10  1  0  0  0  0
 25  9  1  0  0  0  0
 25 14  1  1  0  0  0
 25 17  1  0  0  0  0
 26 21  2  0  0  0  0
 27  2  1  0  0  0  0
 27  1  1  0  0  0  0
 28 29  1  0  0  0  0
 30 33  1  0  0  0  0
 31 33  1  0  0  0  0
 32 29  1  6  0  0  0
 32 34  1  0  0  0  0
 32 31  1  0  0  0  0
 34 30  1  0  0  0  0
M  END
>  <MODEL>
3

>  <REMARK>
 VINA RESULT:      -6.3      2.841      8.492
  Name = 
  3 active torsions:
  status: ('A' for Active; 'I' for Inactive)
    1  A    between atoms: C_17  and  O_28
    2  A    between atoms: O_28  and  C_29
    3  A    between atoms: C_29  and  C_32
                            x       y       z     vdW  Elec       q    Type
                         _______ _______ _______ _____ _____    ______ ____

>  <TORSDO>
F 3

$$$$
=
 OpenBabel11122412083D

 34 41  0  0  1  0  0  0  0  0999 V2000
  185.7970  177.1520  137.0770 C   0  0  0  0  0  0  0  0  0  0  0  0
  187.7330  178.7840  137.0890 C   0  0  0  0  0  2  0  0  0  0  0  0
  183.1000  171.8140  135.6120 C   0  0  2  0  0  3  0  0  0  0  0  0
  184.0900  175.5010  137.4830 C   0  0  0  0  0  0  0  0  0  0  0  0
  184.6030  173.0220  137.3490 C   0  0  1  0  0  3  0  0  0  0  0  0
  184.2510  173.4740  134.9690 O   0  0  0  0  0  0  0  0  0  0  0  0
  183.0040  172.9370  134.5940 C   0  0  0  0  0  2  0  0  0  0  0  0
  181.5900  173.0900  136.9080 C   0  0  0  0  0  2  0  0  0  0  0  0
  188.1480  176.4910  136.4200 C   0  0  2  0  0  3  0  0  0  0  0  0
  190.7060  175.1750  137.9670 C   0  0  0  0  0  2  0  0  0  0  0  0
  186.0530  173.4340  137.6190 C   0  0  0  0  0  2  0  0  0  0  0  0
  182.3140  173.8110  138.0300 C   0  0  0  0  0  2  0  0  0  0  0  0
  187.8600  175.1380  137.1090 C   0  0  1  0  0  3  0  0  0  0  0  0
  189.2310  178.6300  136.8710 C   0  0  0  0  0  2  0  0  0  0  0  0
  183.6760  174.1290  137.6210 N   0  0  0  0  0  0  0  0  0  0  0  0
  182.1740  171.8240  136.6980 O   0  0  0  0  0  0  0  0  0  0  0  0
  190.1560  176.6090  138.0670 C   0  0  1  0  0  3  0  0  0  0  0  0
  185.4210  175.8050  137.1590 C   0  0  0  0  0  0  0  0  0  0  0  0
  184.4410  172.4560  135.9230 C   0  0  2  0  0  3  0  0  0  0  0  0
  186.4090  174.7050  136.8430 C   0  0  2  0  0  3  0  0  0  0  0  0
  183.5970  177.8130  137.6380 C   0  0  0  0  0  3  0  0  0  0  0  0
  190.3090  174.4320  136.6890 C   0  0  0  0  0  2  0  0  0  0  0  0
  183.2110  176.5130  137.7180 N   0  0  0  0  0  0  0  0  0  0  0  0
  188.8310  174.0360  136.6560 C   0  0  0  0  0  2  0  0  0  0  0  0
  189.5030  177.1330  136.7670 C   0  0  1  0  0  3  0  0  0  0  0  0
  184.8810  178.1250  137.3250 N   0  0  0  0  0  0  0  0  0  0  0  0
  187.1580  177.4890  136.7850 N   0  0  0  0  0  0  0  0  0  0  0  0
  189.2790  176.7070  139.1540 O   0  0  0  0  0  0  0  0  0  0  0  0
  190.1010  176.8040  140.2800 C   0  0  0  0  0  2  0  0  0  0  0  0
  187.2420  178.4980  141.5450 C   0  0  0  0  0  2  0  0  0  0  0  0
  188.6760  176.7570  142.3060 C   0  0  0  0  0  2  0  0  0  0  0  0
  189.4170  177.6470  141.3410 C   0  0  2  0  0  3  0  0  0  0  0  0
  187.5000  177.5880  142.7250 C   0  0  0  0  0  2  0  0  0  0  0  0
  188.4510  178.5510  140.7280 N   0  0  0  0  0  2  0  0  0  0  0  0
  1 18  2  0  0  0  0
  1 26  1  0  0  0  0
  3  7  1  6  0  0  0
  3 19  1  0  0  0  0
  3 16  1  0  0  0  0
  4 15  1  0  0  0  0
  4 23  2  0  0  0  0
  5 11  1  6  0  0  0
  5 15  1  0  0  0  0
  7  6  1  0  0  0  0
  8 12  1  0  0  0  0
  9 25  1  0  0  0  0
  9 27  1  1  0  0  0
  9 13  1  0  0  0  0
 10 17  1  0  0  0  0
 13 24  1  6  0  0  0
 14  2  1  0  0  0  0
 15 12  1  0  0  0  0
 16  8  1  0  0  0  0
 17 28  1  1  0  0  0
 18  4  1  0  0  0  0
 19  6  1  6  0  0  0
 19  5  1  0  0  0  0
 20 13  1  0  0  0  0
 20 18  1  0  0  0  0
 20 11  1  1  0  0  0
 21 23  1  0  0  0  0
 22 10  1  0  0  0  0
 24 22  1  0  0  0  0
 25 14  1  1  0  0  0
 25 17  1  0  0  0  0
 26 21  2  0  0  0  0
 27  1  1  0  0  0  0
 27  2  1  0  0  0  0
 28 29  1  0  0  0  0
 30 33  1  0  0  0  0
 31 33  1  0  0  0  0
 32 29  1  6  0  0  0
 32 31  1  0  0  0  0
 34 32  1  0  0  0  0
 34 30  1  0  0  0  0
M  END
>  <MODEL>
4

>  <REMARK>
 VINA RESULT:      -6.2      3.005      8.465
  Name = 
  3 active torsions:
  status: ('A' for Active; 'I' for Inactive)
    1  A    between atoms: C_17  and  O_28
    2  A    between atoms: O_28  and  C_29
    3  A    between atoms: C_29  and  C_32
                            x       y       z     vdW  Elec       q    Type
                         _______ _______ _______ _____ _____    ______ ____

>  <TORSDO>
F 3

$$$$
=
 OpenBabel11122412083D

 34 41  0  0  1  0  0  0  0  0999 V2000
  183.7590  178.3870  139.4650 C   0  0  0  0  0  0  0  0  0  0  0  0
  181.4710  179.0360  140.3340 C   0  0  0  0  0  2  0  0  0  0  0  0
  187.5730  175.1420  135.8820 C   0  0  2  0  0  3  0  0  0  0  0  0
  185.9010  178.1420  138.3890 C   0  0  0  0  0  0  0  0  0  0  0  0
  186.0850  177.2650  136.0170 C   0  0  1  0  0  3  0  0  0  0  0  0
  185.9190  175.1320  137.2080 O   0  0  0  0  0  0  0  0  0  0  0  0
  187.1920  174.5280  137.2170 C   0  0  0  0  0  2  0  0  0  0  0  0
  188.8520  176.6770  137.1480 C   0  0  0  0  0  2  0  0  0  0  0  0
  181.6130  177.7070  138.3130 C   0  0  2  0  0  3  0  0  0  0  0  0
  179.7990  178.9170  135.8820 C   0  0  0  0  0  2  0  0  0  0  0  0
  184.6390  177.7420  135.8610 C   0  0  0  0  0  2  0  0  0  0  0  0
  188.1400  178.0130  137.2590 C   0  0  0  0  0  2  0  0  0  0  0  0
  182.3710  177.9120  136.9820 C   0  0  1  0  0  3  0  0  0  0  0  0
  180.0610  178.8780  139.7870 C   0  0  0  0  0  2  0  0  0  0  0  0
  186.6970  177.8120  137.2350 N   0  0  0  0  0  0  0  0  0  0  0  0
  188.6190  176.1150  135.8760 O   0  0  0  0  0  0  0  0  0  0  0  0
  179.9360  179.4300  137.3270 C   0  0  1  0  0  3  0  0  0  0  0  0
  184.5040  178.0150  138.3390 C   0  0  0  0  0  0  0  0  0  0  0  0
  186.1740  175.7260  135.9560 C   0  0  2  0  0  3  0  0  0  0  0  0
  183.8250  177.4320  137.1200 C   0  0  2  0  0  3  0  0  0  0  0  0
  185.7470  178.9870  140.5960 C   0  0  0  0  0  3  0  0  0  0  0  0
  180.1820  177.4480  135.6930 C   0  0  0  0  0  2  0  0  0  0  0  0
  186.4880  178.6270  139.5160 N   0  0  0  0  0  0  0  0  0  0  0  0
  181.6880  177.1980  135.8060 C   0  0  0  0  0  2  0  0  0  0  0  0
  180.2050  178.3230  138.3720 C   0  0  1  0  0  3  0  0  0  0  0  0
  184.3940  178.8710  140.5650 N   0  0  0  0  0  0  0  0  0  0  0  0
  182.3300  178.3040  139.4260 N   0  0  0  0  0  0  0  0  0  0  0  0
  180.9100  180.4340  137.3850 O   0  0  0  0  0  0  0  0  0  0  0  0
  180.7460  181.1710  136.2090 C   0  0  0  0  0  2  0  0  0  0  0  0
  181.5530  184.4840  137.2170 C   0  0  0  0  0  2  0  0  0  0  0  0
  180.4960  183.4770  135.3370 C   0  0  0  0  0  2  0  0  0  0  0  0
  180.3380  182.5940  136.5490 C   0  0  2  0  0  3  0  0  0  0  0  0
  180.8570  184.8130  135.9150 C   0  0  0  0  0  2  0  0  0  0  0  0
  181.1870  183.1270  137.6080 N   0  0  0  0  0  2  0  0  0  0  0  0
  1 26  1  0  0  0  0
  3 19  1  0  0  0  0
  3  7  1  1  0  0  0
  4 23  2  0  0  0  0
  5 11  1  1  0  0  0
  5 15  1  0  0  0  0
  6  7  1  0  0  0  0
  8 12  1  0  0  0  0
  9 25  1  0  0  0  0
  9 27  1  1  0  0  0
 10 17  1  0  0  0  0
 13 24  1  6  0  0  0
 13 20  1  0  0  0  0
 13  9  1  0  0  0  0
 14  2  1  0  0  0  0
 15 12  1  0  0  0  0
 15  4  1  0  0  0  0
 16  3  1  0  0  0  0
 16  8  1  0  0  0  0
 17 28  1  6  0  0  0
 17 25  1  0  0  0  0
 18  4  1  0  0  0  0
 18  1  2  0  0  0  0
 19  5  1  0  0  0  0
 19  6  1  1  0  0  0
 20 11  1  6  0  0  0
 20 18  1  0  0  0  0
 22 24  1  0  0  0  0
 22 10  1  0  0  0  0
 23 21  1  0  0  0  0
 25 14  1  1  0  0  0
 26 21  2  0  0  0  0
 27  1  1  0  0  0  0
 27  2  1  0  0  0  0
 29 28  1  0  0  0  0
 30 34  1  0  0  0  0
 31 33  1  0  0  0  0
 31 32  1  0  0  0  0
 32 29  1  6  0  0  0
 32 34  1  0  0  0  0
 33 30  1  0  0  0  0
M  END
>  <MODEL>
5

>  <REMARK>
 VINA RESULT:      -6.2      4.196      7.000
  Name = 
  3 active torsions:
  status: ('A' for Active; 'I' for Inactive)
    1  A    between atoms: C_17  and  O_28
    2  A    between atoms: O_28  and  C_29
    3  A    between atoms: C_29  and  C_32
                            x       y       z     vdW  Elec       q    Type
                         _______ _______ _______ _____ _____    ______ ____

>  <TORSDO>
F 3

$$$$
=
 OpenBabel11122412083D

 34 41  0  0  1  0  0  0  0  0999 V2000
  189.9490  177.5700  138.9860 C   0  0  0  0  0  0  0  0  0  0  0  0
  189.0510  178.0460  136.6670 C   0  0  0  0  0  2  0  0  0  0  0  0
  190.0390  178.2530  145.1050 C   0  0  2  0  0  3  0  0  0  0  0  0
  190.5570  176.7410  141.1650 C   0  0  0  0  0  0  0  0  0  0  0  0
  188.9730  176.9410  143.1350 C   0  0  1  0  0  3  0  0  0  0  0  0
  189.9600  179.1810  143.2000 O   0  0  0  0  0  0  0  0  0  0  0  0
  190.8530  179.2420  144.2890 C   0  0  0  0  0  2  0  0  0  0  0  0
  191.6820  176.6640  144.5000 C   0  0  0  0  0  2  0  0  0  0  0  0
  187.7460  178.7470  138.5840 C   0  0  2  0  0  3  0  0  0  0  0  0
  184.6210  177.8180  138.3860 C   0  0  0  0  0  2  0  0  0  0  0  0
  187.8690  177.0280  142.0780 C   0  0  0  0  0  2  0  0  0  0  0  0
  191.1780  175.7580  143.3910 C   0  0  0  0  0  2  0  0  0  0  0  0
  187.2190  177.9830  139.8210 C   0  0  1  0  0  3  0  0  0  0  0  0
  187.7350  178.6060  136.1500 C   0  0  0  0  0  2  0  0  0  0  0  0
  190.2380  176.4820  142.5450 N   0  0  0  0  0  0  0  0  0  0  0  0
  190.6250  176.9790  145.3780 O   0  0  0  0  0  0  0  0  0  0  0  0
  185.7510  177.6210  137.3580 C   0  0  1  0  0  3  0  0  0  0  0  0
  189.6200  177.3750  140.3330 C   0  0  0  0  0  0  0  0  0  0  0  0
  189.1280  178.2770  143.8900 C   0  0  2  0  0  3  0  0  0  0  0  0
  188.3150  177.8920  140.8950 C   0  0  2  0  0  3  0  0  0  0  0  0
  192.0390  176.5210  139.3310 C   0  0  0  0  0  3  0  0  0  0  0  0
  184.8650  178.9520  139.3840 C   0  0  0  0  0  2  0  0  0  0  0  0
  191.7430  176.3270  140.6420 N   0  0  0  0  0  0  0  0  0  0  0  0
  185.9560  178.6280  140.4090 C   0  0  0  0  0  2  0  0  0  0  0  0
  186.8160  178.7410  137.3600 C   0  0  1  0  0  3  0  0  0  0  0  0
  191.1450  177.1330  138.5120 N   0  0  0  0  0  0  0  0  0  0  0  0
  188.9950  178.1800  138.1080 N   0  0  0  0  0  0  0  0  0  0  0  0
  186.3350  176.3600  137.5310 O   0  0  0  0  0  0  0  0  0  0  0  0
  185.5100  175.4750  136.8330 C   0  0  0  0  0  2  0  0  0  0  0  0
  188.5010  173.5550  136.7750 C   0  0  0  0  0  2  0  0  0  0  0  0
  186.2030  173.1290  137.2260 C   0  0  0  0  0  2  0  0  0  0  0  0
  186.3340  174.3150  136.3040 C   0  0  2  0  0  3  0  0  0  0  0  0
  187.5330  172.4440  137.1160 C   0  0  0  0  0  2  0  0  0  0  0  0
  187.7440  174.6810  136.2390 N   0  0  0  0  0  2  0  0  0  0  0  0
  1 18  1  0  0  0  0
  2 27  1  0  0  0  0
  3  7  1  6  0  0  0
  3 16  1  0  0  0  0
  4 15  1  0  0  0  0
  5 11  1  6  0  0  0
  5 19  1  0  0  0  0
  6  7  1  0  0  0  0
  8 16  1  0  0  0  0
  9 27  1  6  0  0  0
  9 13  1  0  0  0  0
 10 22  1  0  0  0  0
 12  8  1  0  0  0  0
 13 24  1  1  0  0  0
 13 20  1  0  0  0  0
 14  2  1  0  0  0  0
 15  5  1  0  0  0  0
 15 12  1  0  0  0  0
 17 25  1  0  0  0  0
 17 28  1  1  0  0  0
 17 10  1  0  0  0  0
 18 20  1  0  0  0  0
 18  4  2  0  0  0  0
 19  6  1  6  0  0  0
 19  3  1  0  0  0  0
 20 11  1  1  0  0  0
 21 23  2  0  0  0  0
 22 24  1  0  0  0  0
 23  4  1  0  0  0  0
 25 14  1  6  0  0  0
 25  9  1  0  0  0  0
 26  1  2  0  0  0  0
 26 21  1  0  0  0  0
 27  1  1  0  0  0  0
 29 28  1  0  0  0  0
 30 33  1  0  0  0  0
 32 29  1  1  0  0  0
 32 31  1  0  0  0  0
 33 31  1  0  0  0  0
 34 32  1  0  0  0  0
 34 30  1  0  0  0  0
M  END
>  <MODEL>
6

>  <REMARK>
 VINA RESULT:      -6.0      2.288      3.403
  Name = 
  3 active torsions:
  status: ('A' for Active; 'I' for Inactive)
    1  A    between atoms: C_17  and  O_28
    2  A    between atoms: O_28  and  C_29
    3  A    between atoms: C_29  and  C_32
                            x       y       z     vdW  Elec       q    Type
                         _______ _______ _______ _____ _____    ______ ____

>  <TORSDO>
F 3

$$$$
=
 OpenBabel11122412083D

 34 41  0  0  1  0  0  0  0  0999 V2000
  180.9370  177.0240  138.7330 C   0  0  0  0  0  0  0  0  0  0  0  0
  181.4930  179.3650  139.5220 C   0  0  0  0  0  2  0  0  0  0  0  0
  181.6660  172.1240  135.0760 C   0  0  2  0  0  3  0  0  0  0  0  0
  180.6580  174.6650  138.3340 C   0  0  0  0  0  0  0  0  0  0  0  0
  182.4900  173.2930  137.2430 C   0  0  1  0  0  3  0  0  0  0  0  0
  181.4560  174.2280  135.2300 O   0  0  0  0  0  0  0  0  0  0  0  0
  180.7200  173.2090  134.5950 C   0  0  0  0  0  2  0  0  0  0  0  0
  180.0030  171.6250  136.6820 C   0  0  0  0  0  2  0  0  0  0  0  0
  183.0280  178.2510  138.0130 C   0  0  2  0  0  3  0  0  0  0  0  0
  186.1220  178.3730  139.0510 C   0  0  0  0  0  2  0  0  0  0  0  0
  183.4370  174.3860  137.7450 C   0  0  0  0  0  2  0  0  0  0  0  0
  180.3780  172.1860  138.0420 C   0  0  0  0  0  2  0  0  0  0  0  0
  183.7410  176.8820  138.0770 C   0  0  1  0  0  3  0  0  0  0  0  0
  182.7090  180.2630  139.3540 C   0  0  0  0  0  2  0  0  0  0  0  0
  181.1710  173.3980  137.8800 N   0  0  0  0  0  0  0  0  0  0  0  0
  181.1610  171.1740  136.0160 O   0  0  0  0  0  0  0  0  0  0  0  0
  184.8680  179.0010  139.6870 C   0  0  1  0  0  3  0  0  0  0  0  0
  181.4530  175.8180  138.2420 C   0  0  0  0  0  0  0  0  0  0  0  0
  182.4010  173.2960  135.7030 C   0  0  2  0  0  3  0  0  0  0  0  0
  182.8060  175.7710  137.5710 C   0  0  2  0  0  3  0  0  0  0  0  0
  178.9450  175.9240  139.3770 C   0  0  0  0  0  3  0  0  0  0  0  0
  185.9840  178.0550  137.5600 C   0  0  0  0  0  2  0  0  0  0  0  0
  179.4240  174.7460  138.9020 N   0  0  0  0  0  0  0  0  0  0  0  0
  185.0540  176.8710  137.2800 C   0  0  0  0  0  2  0  0  0  0  0  0
  183.7810  179.4190  138.6710 C   0  0  1  0  0  3  0  0  0  0  0  0
  179.7000  177.0510  139.2960 N   0  0  0  0  0  0  0  0  0  0  0  0
  181.7420  178.2070  138.6870 N   0  0  0  0  0  0  0  0  0  0  0  0
  184.3510  178.1430  140.6650 O   0  0  0  0  0  0  0  0  0  0  0  0
  185.1620  178.3340  141.7870 C   0  0  0  0  0  2  0  0  0  0  0  0
  182.5730  178.6780  144.2000 C   0  0  0  0  0  2  0  0  0  0  0  0
  184.9480  178.8420  144.2020 C   0  0  0  0  0  2  0  0  0  0  0  0
  184.4140  179.1490  142.8270 C   0  0  2  0  0  3  0  0  0  0  0  0
  183.7510  179.0000  145.0920 C   0  0  0  0  0  2  0  0  0  0  0  0
  182.9950  178.8160  142.8090 N   0  0  0  0  0  2  0  0  0  0  0  0
  1 26  1  0  0  0  0
  3  7  1  1  0  0  0
  3 19  1  0  0  0  0
  3 16  1  0  0  0  0
  4 23  2  0  0  0  0
  5 11  1  6  0  0  0
  5 15  1  0  0  0  0
  7  6  1  0  0  0  0
  8 12  1  0  0  0  0
  9 13  1  0  0  0  0
  9 25  1  0  0  0  0
  9 27  1  1  0  0  0
 10 17  1  0  0  0  0
 13 24  1  6  0  0  0
 14  2  1  0  0  0  0
 15 12  1  0  0  0  0
 15  4  1  0  0  0  0
 16  8  1  0  0  0  0
 17 28  1  1  0  0  0
 18  4  1  0  0  0  0
 18  1  2  0  0  0  0
 19  6  1  1  0  0  0
 19  5  1  0  0  0  0
 20 11  1  1  0  0  0
 20 13  1  0  0  0  0
 20 18  1  0  0  0  0
 22 10  1  0  0  0  0
 23 21  1  0  0  0  0
 24 22  1  0  0  0  0
 25 14  1  1  0  0  0
 25 17  1  0  0  0  0
 26 21  2  0  0  0  0
 27  1  1  0  0  0  0
 27  2  1  0  0  0  0
 28 29  1  0  0  0  0
 30 33  1  0  0  0  0
 31 33  1  0  0  0  0
 32 29  1  6  0  0  0
 32 31  1  0  0  0  0
 34 32  1  0  0  0  0
 34 30  1  0  0  0  0
M  END
>  <MODEL>
7

>  <REMARK>
 VINA RESULT:      -6.0      4.033      8.770
  Name = 
  3 active torsions:
  status: ('A' for Active; 'I' for Inactive)
    1  A    between atoms: C_17  and  O_28
    2  A    between atoms: O_28  and  C_29
    3  A    between atoms: C_29  and  C_32
                            x       y       z     vdW  Elec       q    Type
                         _______ _______ _______ _____ _____    ______ ____

>  <TORSDO>
F 3

$$$$
=
 OpenBabel11122412083D

 34 41  0  0  1  0  0  0  0  0999 V2000
  185.2410  178.2680  139.9880 C   0  0  0  0  0  0  0  0  0  0  0  0
  183.0060  178.7160  141.0930 C   0  0  0  0  0  2  0  0  0  0  0  0
  188.8700  175.6220  135.7760 C   0  0  2  0  0  3  0  0  0  0  0  0
  187.2990  178.2390  138.7370 C   0  0  0  0  0  0  0  0  0  0  0  0
  187.3280  177.6500  136.2700 C   0  0  1  0  0  3  0  0  0  0  0  0
  187.3250  175.3890  137.2090 O   0  0  0  0  0  0  0  0  0  0  0  0
  188.6140  174.8420  137.0530 C   0  0  0  0  0  2  0  0  0  0  0  0
  190.1920  177.0520  137.1180 C   0  0  0  0  0  2  0  0  0  0  0  0
  183.0350  177.6360  138.9230 C   0  0  2  0  0  3  0  0  0  0  0  0
  180.9990  179.0420  136.7920 C   0  0  0  0  0  2  0  0  0  0  0  0
  185.8590  178.0820  136.2780 C   0  0  0  0  0  2  0  0  0  0  0  0
  189.4470  178.3350  137.4390 C   0  0  0  0  0  2  0  0  0  0  0  0
  183.6810  178.0250  137.5740 C   0  0  1  0  0  3  0  0  0  0  0  0
  181.5640  178.5620  140.6340 C   0  0  0  0  0  2  0  0  0  0  0  0
  188.0140  178.0780  137.4970 N   0  0  0  0  0  0  0  0  0  0  0  0
  189.8790  176.6320  135.8090 O   0  0  0  0  0  0  0  0  0  0  0  0
  181.2310  179.3900  138.2740 C   0  0  1  0  0  3  0  0  0  0  0  0
  185.9070  178.0600  138.7740 C   0  0  0  0  0  0  0  0  0  0  0  0
  187.4620  176.1340  136.0210 C   0  0  2  0  0  3  0  0  0  0  0  0
  185.1560  177.5930  137.5470 C   0  0  2  0  0  3  0  0  0  0  0  0
  187.2890  178.8160  141.0340 C   0  0  0  0  0  3  0  0  0  0  0  0
  181.4140  177.6220  136.4020 C   0  0  0  0  0  2  0  0  0  0  0  0
  187.9550  178.6150  139.8670 N   0  0  0  0  0  0  0  0  0  0  0  0
  182.9320  177.4240  136.3750 C   0  0  0  0  0  2  0  0  0  0  0  0
  181.6160  178.1820  139.1580 C   0  0  1  0  0  3  0  0  0  0  0  0
  185.9420  178.6470  141.0880 N   0  0  0  0  0  0  0  0  0  0  0  0
  183.8160  178.1300  140.0430 N   0  0  0  0  0  0  0  0  0  0  0  0
  182.1720  180.4210  138.3780 O   0  0  0  0  0  0  0  0  0  0  0  0
  181.4340  181.5590  138.7120 C   0  0  0  0  0  2  0  0  0  0  0  0
  179.6290  184.0740  136.9630 C   0  0  0  0  0  2  0  0  0  0  0  0
  181.9010  183.7080  137.5710 C   0  0  0  0  0  2  0  0  0  0  0  0
  181.1790  182.3890  137.4670 C   0  0  2  0  0  3  0  0  0  0  0  0
  181.0170  184.6580  136.8200 C   0  0  0  0  0  2  0  0  0  0  0  0
  179.7550  182.6650  137.3220 N   0  0  0  0  0  2  0  0  0  0  0  0
  1 27  1  0  0  0  0
  1 26  1  0  0  0  0
  3 16  1  0  0  0  0
  3 19  1  0  0  0  0
  3  7  1  1  0  0  0
  4 18  1  0  0  0  0
  4 23  2  0  0  0  0
  5 11  1  1  0  0  0
  5 15  1  0  0  0  0
  7  6  1  0  0  0  0
  8 12  1  0  0  0  0
  9 25  1  0  0  0  0
  9 27  1  1  0  0  0
 10 17  1  0  0  0  0
 12 15  1  0  0  0  0
 13 24  1  6  0  0  0
 13  9  1  0  0  0  0
 14  2  1  0  0  0  0
 15  4  1  0  0  0  0
 16  8  1  0  0  0  0
 17 28  1  6  0  0  0
 17 25  1  0  0  0  0
 18  1  2  0  0  0  0
 19  5  1  0  0  0  0
 19  6  1  1  0  0  0
 20 11  1  6  0  0  0
 20 13  1  0  0  0  0
 20 18  1  0  0  0  0
 21 26  2  0  0  0  0
 22 10  1  0  0  0  0
 23 21  1  0  0  0  0
 24 22  1  0  0  0  0
 25 14  1  1  0  0  0
 27  2  1  0  0  0  0
 28 29  1  0  0  0  0
 30 34  1  0  0  0  0
 32 31  1  0  0  0  0
 32 29  1  1  0  0  0
 33 30  1  0  0  0  0
 33 31  1  0  0  0  0
 34 32  1  0  0  0  0
M  END
>  <MODEL>
8

>  <REMARK>
 VINA RESULT:      -6.0      3.595      6.367
  Name = 
  3 active torsions:
  status: ('A' for Active; 'I' for Inactive)
    1  A    between atoms: C_17  and  O_28
    2  A    between atoms: O_28  and  C_29
    3  A    between atoms: C_29  and  C_32
                            x       y       z     vdW  Elec       q    Type
                         _______ _______ _______ _____ _____    ______ ____

>  <TORSDO>
F 3

$$$$
=
 OpenBabel11122412083D

 34 41  0  0  1  0  0  0  0  0999 V2000
  186.3720  178.6280  139.5550 C   0  0  0  0  0  0  0  0  0  0  0  0
  188.7230  178.3750  138.6500 C   0  0  0  0  0  2  0  0  0  0  0  0
  180.3130  179.5530  138.9670 C   0  0  2  0  0  3  0  0  0  0  0  0
  184.1390  178.4180  140.4340 C   0  0  0  0  0  0  0  0  0  0  0  0
  182.1960  177.7670  138.9410 C   0  0  1  0  0  3  0  0  0  0  0  0
  182.2760  180.1640  138.4490 O   0  0  0  0  0  0  0  0  0  0  0  0
  181.1900  180.7870  139.0940 C   0  0  0  0  0  2  0  0  0  0  0  0
  180.8000  179.1810  141.2500 C   0  0  0  0  0  2  0  0  0  0  0  0
  186.8640  178.2880  137.0970 C   0  0  2  0  0  3  0  0  0  0  0  0
  187.0170  175.7130  135.0950 C   0  0  0  0  0  2  0  0  0  0  0  0
  183.2620  177.1430  138.0370 C   0  0  0  0  0  2  0  0  0  0  0  0
  181.8480  178.0940  141.4110 C   0  0  0  0  0  2  0  0  0  0  0  0
  185.5820  177.4260  137.0550 C   0  0  1  0  0  3  0  0  0  0  0  0
  189.2840  178.0410  137.2760 C   0  0  0  0  0  2  0  0  0  0  0  0
  182.7460  178.0950  140.2640 N   0  0  0  0  0  0  0  0  0  0  0  0
  179.9520  178.8710  140.1680 O   0  0  0  0  0  0  0  0  0  0  0  0
  188.0230  176.1530  136.1750 C   0  0  1  0  0  3  0  0  0  0  0  0
  185.0160  178.3490  139.3410 C   0  0  0  0  0  0  0  0  0  0  0  0
  181.5310  178.9830  138.2630 C   0  0  2  0  0  3  0  0  0  0  0  0
  184.4980  178.0430  137.9540 C   0  0  2  0  0  3  0  0  0  0  0  0
  185.9460  179.0030  141.8500 C   0  0  0  0  0  3  0  0  0  0  0  0
  186.0960  176.8280  134.5950 C   0  0  0  0  0  2  0  0  0  0  0  0
  184.6260  178.7420  141.6630 N   0  0  0  0  0  0  0  0  0  0  0  0
  185.0460  177.2490  135.6270 C   0  0  0  0  0  2  0  0  0  0  0  0
  188.0910  177.6810  136.3960 C   0  0  1  0  0  3  0  0  0  0  0  0
  186.8090  178.9410  140.8030 N   0  0  0  0  0  0  0  0  0  0  0  0
  187.2940  178.5260  138.4640 N   0  0  0  0  0  0  0  0  0  0  0  0
  187.7620  175.4740  137.3710 O   0  0  0  0  0  0  0  0  0  0  0  0
  188.4960  174.2890  137.2890 C   0  0  0  0  0  2  0  0  0  0  0  0
  192.0350  174.1320  137.5930 C   0  0  0  0  0  2  0  0  0  0  0  0
  190.4190  173.3920  136.0090 C   0  0  0  0  0  2  0  0  0  0  0  0
  189.8900  174.5850  136.7640 C   0  0  2  0  0  3  0  0  0  0  0  0
  191.8990  173.4450  136.2520 C   0  0  0  0  0  2  0  0  0  0  0  0
  190.8020  174.8600  137.8690 N   0  0  0  0  0  2  0  0  0  0  0  0
  1 26  1  0  0  0  0
  3  7  1  1  0  0  0
  3 16  1  0  0  0  0
  4 23  2  0  0  0  0
  5 11  1  6  0  0  0
  5 15  1  0  0  0  0
  6  7  1  0  0  0  0
  8 12  1  0  0  0  0
  9 27  1  1  0  0  0
 10 17  1  0  0  0  0
 13 24  1  6  0  0  0
 13  9  1  0  0  0  0
 13 20  1  0  0  0  0
 14  2  1  0  0  0  0
 15  4  1  0  0  0  0
 15 12  1  0  0  0  0
 16  8  1  0  0  0  0
 17 25  1  0  0  0  0
 17 28  1  1  0  0  0
 18  1  2  0  0  0  0
 18  4  1  0  0  0  0
 19  6  1  1  0  0  0
 19  5  1  0  0  0  0
 19  3  1  0  0  0  0
 20 11  1  1  0  0  0
 20 18  1  0  0  0  0
 22 10  1  0  0  0  0
 22 24  1  0  0  0  0
 23 21  1  0  0  0  0
 25  9  1  0  0  0  0
 25 14  1  1  0  0  0
 26 21  2  0  0  0  0
 27  2  1  0  0  0  0
 27  1  1  0  0  0  0
 29 28  1  0  0  0  0
 30 34  1  0  0  0  0
 31 33  1  0  0  0  0
 31 32  1  0  0  0  0
 32 29  1  1  0  0  0
 32 34  1  0  0  0  0
 33 30  1  0  0  0  0
M  END
>  <MODEL>
9

>  <REMARK>
 VINA RESULT:      -5.9      3.613      7.692
  Name = 
  3 active torsions:
  status: ('A' for Active; 'I' for Inactive)
    1  A    between atoms: C_17  and  O_28
    2  A    between atoms: O_28  and  C_29
    3  A    between atoms: C_29  and  C_32
                            x       y       z     vdW  Elec       q    Type
                         _______ _______ _______ _____ _____    ______ ____

>  <TORSDO>
F 3

$$$$
