=
 OpenBabel11122411183D

 31 35  0  0  1  0  0  0  0  0999 V2000
  191.4080  177.1200  139.4810 C   0  0  0  0  0  0  0  0  0  0  0  0
  188.5110  176.9310  136.9100 C   0  0  2  0  0  3  0  0  0  0  0  0
  187.7930  175.6610  136.5030 C   0  0  0  0  0  0  0  0  0  0  0  0
  187.6610  173.2330  136.4530 C   0  0  0  0  0  0  0  0  0  0  0  0
  189.2140  176.8040  138.2720 C   0  0  1  0  0  3  0  0  0  0  0  0
  190.7290  177.3860  140.6130 C   0  0  0  0  0  3  0  0  0  0  0  0
  188.3010  174.4040  136.8670 C   0  0  0  0  0  3  0  0  0  0  0  0
  186.7200  178.3360  138.1700 C   0  0  1  0  0  3  0  0  0  0  0  0
  192.7640  177.0990  139.5220 F   0  0  0  0  0  0  0  0  0  0  0  0
  186.1250  176.9900  135.2600 N   0  0  0  0  0  2  0  0  0  0  0  0
  188.1640  171.9960  136.8300 O   0  0  0  0  0  1  0  0  0  0  0  0
  187.2480  177.6740  139.3100 O   0  0  0  0  0  0  0  0  0  0  0  0
  187.5740  178.1570  136.8710 C   0  0  2  0  0  3  0  0  0  0  0  0
  190.7210  177.0110  138.1380 C   0  0  0  0  0  2  0  0  0  0  0  0
  186.5140  173.3070  135.6580 C   0  0  0  0  0  3  0  0  0  0  0  0
  188.6470  177.7860  139.2980 C   0  0  1  0  0  3  0  0  0  0  0  0
  189.2230  177.4380  140.6650 C   0  0  0  0  0  2  0  0  0  0  0  0
  186.8160  178.2460  135.5430 C   0  0  0  0  0  2  0  0  0  0  0  0
  186.6560  175.7260  135.6690 C   0  0  0  0  0  0  0  0  0  0  0  0
  186.0140  174.5510  135.2680 C   0  0  0  0  0  3  0  0  0  0  0  0
  185.2750  177.8860  137.9820 C   0  0  0  0  0  2  0  0  0  0  0  0
  184.9310  179.8170  139.3660 O   0  0  0  0  0  1  0  0  0  0  0  0
  184.3150  178.6640  138.8730 C   0  0  2  0  0  3  0  0  0  0  0  0
  181.9170  178.8700  142.1280 C   0  0  0  0  0  0  0  0  0  0  0  0
  182.2800  177.4810  139.9320 C   0  0  0  0  0  2  0  0  0  0  0  0
  185.3830  178.4480  141.6770 O   0  0  0  0  0  0  0  0  0  0  0  0
  180.9830  179.0940  143.2630 C   0  0  0  0  0  1  0  0  0  0  0  0
  181.2630  178.8930  140.4550 S   0  0  0  0  0  0  0  0  0  0  0  0
  184.1620  178.3570  141.3840 C   0  0  0  0  0  0  0  0  0  0  0  0
  183.7730  177.8170  140.0320 C   0  0  2  0  0  3  0  0  0  0  0  0
  183.1810  178.7010  142.3720 N   0  0  0  0  0  0  0  0  0  0  0  0
  1  9  1  0  0  0  0
  1  6  2  0  0  0  0
  2  3  1  1  0  0  0
  2  5  1  0  0  0  0
  3  7  1  0  0  0  0
  4 11  1  0  0  0  0
  4  7  2  0  0  0  0
  5 14  1  6  0  0  0
  5 16  1  0  0  0  0
  6 17  1  0  0  0  0
  8 21  1  6  0  0  0
  8 12  1  0  0  0  0
 10 18  1  0  0  0  0
 10 19  1  0  0  0  0
 13 18  1  6  0  0  0
 13  2  1  0  0  0  0
 13  8  1  0  0  0  0
 14  1  1  0  0  0  0
 15  4  1  0  0  0  0
 16 12  1  0  0  0  0
 16 17  1  1  0  0  0
 19  3  2  0  0  0  0
 20 15  2  0  0  0  0
 20 19  1  0  0  0  0
 21 23  1  0  0  0  0
 23 22  1  1  0  0  0
 24 31  2  0  0  0  0
 24 27  1  0  0  0  0
 25 30  1  0  0  0  0
 25 28  1  0  0  0  0
 28 24  1  0  0  0  0
 29 26  2  0  0  0  0
 29 31  1  0  0  0  0
 30 23  1  6  0  0  0
 30 29  1  0  0  0  0
M  END
>  <MODEL>
1

>  <REMARK>
 VINA RESULT:      -6.7      0.000      0.000
  Name = 
  3 active torsions:
  status: ('A' for Active; 'I' for Inactive)
    1  A    between atoms: C_5  and  C_16
    2  A    between atoms: C_5  and  C_30
    3  A    between atoms: C_10  and  C_16
                            x       y       z     vdW  Elec       q    Type
                         _______ _______ _______ _____ _____    ______ ____

>  <TORSDO>
F 3

$$$$
=
 OpenBabel11122411183D

 31 35  0  0  1  0  0  0  0  0999 V2000
  180.1500  181.5660  136.4760 C   0  0  0  0  0  0  0  0  0  0  0  0
  181.1900  178.2270  138.1530 C   0  0  2  0  0  3  0  0  0  0  0  0
  182.3480  177.3570  137.7110 C   0  0  0  0  0  0  0  0  0  0  0  0
  184.0350  176.7640  136.0620 C   0  0  0  0  0  0  0  0  0  0  0  0
  181.3270  179.6830  137.6800 C   0  0  1  0  0  3  0  0  0  0  0  0
  180.8310  182.4520  137.2260 C   0  0  0  0  0  3  0  0  0  0  0  0
  182.9940  177.5940  136.4870 C   0  0  0  0  0  3  0  0  0  0  0  0
  181.8780  179.1150  140.4990 C   0  0  1  0  0  3  0  0  0  0  0  0
  179.3030  182.0300  135.5230 F   0  0  0  0  0  0  0  0  0  0  0  0
  182.0760  175.9540  139.7230 N   0  0  0  0  0  2  0  0  0  0  0  0
  184.6750  177.0150  134.8560 O   0  0  0  0  0  1  0  0  0  0  0  0
  182.4020  180.1990  139.7470 O   0  0  0  0  0  0  0  0  0  0  0  0
  180.9630  178.1480  139.6770 C   0  0  2  0  0  3  0  0  0  0  0  0
  180.1660  180.0820  136.7710 C   0  0  0  0  0  2  0  0  0  0  0  0
  184.4300  175.6800  136.8490 C   0  0  0  0  0  3  0  0  0  0  0  0
  181.4200  180.6570  138.8560 C   0  0  1  0  0  3  0  0  0  0  0  0
  181.7890  182.0310  138.3130 C   0  0  0  0  0  2  0  0  0  0  0  0
  180.8990  176.6970  140.1640 C   0  0  0  0  0  2  0  0  0  0  0  0
  182.7290  176.2380  138.4820 C   0  0  0  0  0  0  0  0  0  0  0  0
  183.7780  175.4180  138.0550 C   0  0  0  0  0  3  0  0  0  0  0  0
  183.0400  178.3880  141.1660 C   0  0  0  0  0  2  0  0  0  0  0  0
  181.7400  179.0030  143.0870 O   0  0  0  0  0  1  0  0  0  0  0  0
  182.9650  178.4650  142.6860 C   0  0  2  0  0  3  0  0  0  0  0  0
  186.6430  178.0360  144.3210 C   0  0  0  0  0  0  0  0  0  0  0  0
  185.3820  179.3310  142.4190 C   0  0  0  0  0  2  0  0  0  0  0  0
  183.5150  179.0400  145.5880 O   0  0  0  0  0  0  0  0  0  0  0  0
  187.9900  177.7200  144.8650 C   0  0  0  0  0  1  0  0  0  0  0  0
  186.3420  177.7950  142.5660 S   0  0  0  0  0  0  0  0  0  0  0  0
  184.4150  178.8940  144.7190 C   0  0  0  0  0  0  0  0  0  0  0  0
  184.1220  179.2720  143.2900 C   0  0  2  0  0  3  0  0  0  0  0  0
  185.7120  178.4430  145.1310 N   0  0  0  0  0  0  0  0  0  0  0  0
  1 14  1  0  0  0  0
  1  6  2  0  0  0  0
  2  3  1  1  0  0  0
  2 13  1  0  0  0  0
  3 19  1  0  0  0  0
  4  7  1  0  0  0  0
  4 15  2  0  0  0  0
  5 14  1  1  0  0  0
  5  2  1  0  0  0  0
  5 16  1  0  0  0  0
  6 17  1  0  0  0  0
  7  3  2  0  0  0  0
  8 21  1  6  0  0  0
  9  1  1  0  0  0  0
 10 18  1  0  0  0  0
 11  4  1  0  0  0  0
 12  8  1  0  0  0  0
 13 18  1  1  0  0  0
 13  8  1  0  0  0  0
 15 20  1  0  0  0  0
 16 17  1  6  0  0  0
 16 12  1  0  0  0  0
 19 10  1  0  0  0  0
 20 19  2  0  0  0  0
 21 23  1  0  0  0  0
 23 22  1  6  0  0  0
 24 27  1  0  0  0  0
 24 31  2  0  0  0  0
 25 28  1  0  0  0  0
 25 30  1  0  0  0  0
 28 24  1  0  0  0  0
 29 31  1  0  0  0  0
 29 26  2  0  0  0  0
 30 23  1  6  0  0  0
 30 29  1  0  0  0  0
M  END
>  <MODEL>
2

>  <REMARK>
 VINA RESULT:      -6.6      4.834      7.063
  Name = 
  3 active torsions:
  status: ('A' for Active; 'I' for Inactive)
    1  A    between atoms: C_5  and  C_16
    2  A    between atoms: C_5  and  C_30
    3  A    between atoms: C_10  and  C_16
                            x       y       z     vdW  Elec       q    Type
                         _______ _______ _______ _____ _____    ______ ____

>  <TORSDO>
F 3

$$$$
=
 OpenBabel11122411183D

 31 35  0  0  1  0  0  0  0  0999 V2000
  180.7510  178.6290  143.7820 C   0  0  0  0  0  0  0  0  0  0  0  0
  181.2590  178.4100  139.9430 C   0  0  2  0  0  3  0  0  0  0  0  0
  181.0430  179.5530  138.9730 C   0  0  0  0  0  0  0  0  0  0  0  0
  180.1690  181.7670  138.4780 C   0  0  0  0  0  0  0  0  0  0  0  0
  181.4970  178.8930  141.3840 C   0  0  1  0  0  3  0  0  0  0  0  0
  181.9980  178.9350  144.1880 C   0  0  0  0  0  3  0  0  0  0  0  0
  180.4040  180.7320  139.3860 C   0  0  0  0  0  3  0  0  0  0  0  0
  183.8170  177.9430  139.8690 C   0  0  1  0  0  3  0  0  0  0  0  0
  179.7960  178.4020  144.7180 F   0  0  0  0  0  0  0  0  0  0  0  0
  182.0300  178.2070  137.1540 N   0  0  0  0  0  2  0  0  0  0  0  0
  179.5480  182.9340  138.9020 O   0  0  0  0  0  1  0  0  0  0  0  0
  183.8440  178.8630  140.9500 O   0  0  0  0  0  0  0  0  0  0  0  0
  182.3810  177.4620  139.4730 C   0  0  2  0  0  3  0  0  0  0  0  0
  180.4210  178.3640  142.3300 C   0  0  0  0  0  2  0  0  0  0  0  0
  180.5560  181.6280  137.1430 C   0  0  0  0  0  3  0  0  0  0  0  0
  182.8800  178.4880  141.8970 C   0  0  1  0  0  3  0  0  0  0  0  0
  183.1270  179.1970  143.2220 C   0  0  0  0  0  2  0  0  0  0  0  0
  182.1870  177.0370  138.0140 C   0  0  0  0  0  2  0  0  0  0  0  0
  181.3990  179.4050  137.6150 C   0  0  0  0  0  0  0  0  0  0  0  0
  181.1690  180.4500  136.7130 C   0  0  0  0  0  3  0  0  0  0  0  0
  184.5670  178.5600  138.6940 C   0  0  0  0  0  2  0  0  0  0  0  0
  186.9170  178.6280  139.1790 O   0  0  0  0  0  1  0  0  0  0  0  0
  185.9330  177.9170  138.4880 C   0  0  2  0  0  3  0  0  0  0  0  0
  188.8650  176.5880  136.0330 C   0  0  0  0  0  0  0  0  0  0  0  0
  186.2840  176.3680  136.4530 C   0  0  0  0  0  2  0  0  0  0  0  0
  187.6260  179.7830  136.8430 O   0  0  0  0  0  0  0  0  0  0  0  0
  190.0060  176.0230  135.2670 C   0  0  0  0  0  1  0  0  0  0  0  0
  187.7870  175.4660  136.9320 S   0  0  0  0  0  0  0  0  0  0  0  0
  187.5750  178.5380  136.6610 C   0  0  0  0  0  0  0  0  0  0  0  0
  186.3080  177.7990  137.0040 C   0  0  2  0  0  3  0  0  0  0  0  0
  188.6980  177.8760  136.0630 N   0  0  0  0  0  0  0  0  0  0  0  0
  1  6  2  0  0  0  0
  1  9  1  0  0  0  0
  2  3  1  6  0  0  0
  2  5  1  0  0  0  0
  3  7  1  0  0  0  0
  4 11  1  0  0  0  0
  4  7  2  0  0  0  0
  5 16  1  0  0  0  0
  5 14  1  1  0  0  0
  8 21  1  6  0  0  0
  8 12  1  0  0  0  0
 10 19  1  0  0  0  0
 10 18  1  0  0  0  0
 12 16  1  0  0  0  0
 13 18  1  6  0  0  0
 13  8  1  0  0  0  0
 13  2  1  0  0  0  0
 14  1  1  0  0  0  0
 15  4  1  0  0  0  0
 16 17  1  1  0  0  0
 17  6  1  0  0  0  0
 19  3  2  0  0  0  0
 20 15  2  0  0  0  0
 20 19  1  0  0  0  0
 23 21  1  0  0  0  0
 23 22  1  1  0  0  0
 24 31  2  0  0  0  0
 24 28  1  0  0  0  0
 25 28  1  0  0  0  0
 25 30  1  0  0  0  0
 27 24  1  0  0  0  0
 29 26  2  0  0  0  0
 29 30  1  0  0  0  0
 30 23  1  1  0  0  0
 31 29  1  0  0  0  0
M  END
>  <MODEL>
3

>  <REMARK>
 VINA RESULT:      -6.6      3.955      8.244
  Name = 
  3 active torsions:
  status: ('A' for Active; 'I' for Inactive)
    1  A    between atoms: C_5  and  C_16
    2  A    between atoms: C_5  and  C_30
    3  A    between atoms: C_10  and  C_16
                            x       y       z     vdW  Elec       q    Type
                         _______ _______ _______ _____ _____    ______ ____

>  <TORSDO>
F 3

$$$$
=
 OpenBabel11122411183D

 31 35  0  0  1  0  0  0  0  0999 V2000
  191.2740  177.2040  142.4820 C   0  0  0  0  0  0  0  0  0  0  0  0
  189.9240  177.7930  138.8940 C   0  0  2  0  0  3  0  0  0  0  0  0
  189.8360  176.7340  137.8150 C   0  0  0  0  0  0  0  0  0  0  0  0
  190.4250  174.5340  136.9610 C   0  0  0  0  0  0  0  0  0  0  0  0
  189.9870  177.1940  140.3090 C   0  0  1  0  0  3  0  0  0  0  0  0
  190.1350  176.9220  143.1410 C   0  0  0  0  0  3  0  0  0  0  0  0
  190.4720  175.4930  137.9760 C   0  0  0  0  0  3  0  0  0  0  0  0
  187.4530  178.3860  139.4520 C   0  0  1  0  0  3  0  0  0  0  0  0
  192.4300  177.2990  143.1860 F   0  0  0  0  0  0  0  0  0  0  0  0
  188.5540  178.2850  136.3840 N   0  0  0  0  0  2  0  0  0  0  0  0
  191.0460  173.3060  137.1380 O   0  0  0  0  0  1  0  0  0  0  0  0
  187.6110  177.3740  140.4350 O   0  0  0  0  0  0  0  0  0  0  0  0
  188.7900  178.8320  138.7710 C   0  0  2  0  0  3  0  0  0  0  0  0
  191.2830  177.5830  141.0180 C   0  0  0  0  0  2  0  0  0  0  0  0
  189.7540  174.8120  135.7680 C   0  0  0  0  0  3  0  0  0  0  0  0
  188.7870  177.6160  141.1590 C   0  0  1  0  0  3  0  0  0  0  0  0
  188.8010  176.8010  142.4460 C   0  0  0  0  0  2  0  0  0  0  0  0
  188.6760  179.3780  137.3450 C   0  0  0  0  0  2  0  0  0  0  0  0
  189.1920  177.0210  136.5920 C   0  0  0  0  0  0  0  0  0  0  0  0
  189.1400  176.0530  135.5840 C   0  0  0  0  0  3  0  0  0  0  0  0
  186.4160  177.9140  138.4390 C   0  0  0  0  0  2  0  0  0  0  0  0
  185.2250  179.7320  139.4580 O   0  0  0  0  0  1  0  0  0  0  0  0
  185.0810  178.6270  138.6150 C   0  0  2  0  0  3  0  0  0  0  0  0
  181.3310  178.6580  140.1410 C   0  0  0  0  0  0  0  0  0  0  0  0
  182.7600  177.5640  138.2310 C   0  0  0  0  0  2  0  0  0  0  0  0
  184.4970  177.8780  141.4700 O   0  0  0  0  0  0  0  0  0  0  0  0
  179.9460  178.8290  140.6520 C   0  0  0  0  0  1  0  0  0  0  0  0
  181.6620  179.0020  138.4090 S   0  0  0  0  0  0  0  0  0  0  0  0
  183.6140  177.9830  140.5790 C   0  0  0  0  0  0  0  0  0  0  0  0
  183.9830  177.6950  139.1460 C   0  0  2  0  0  3  0  0  0  0  0  0
  182.2700  178.2990  140.9640 N   0  0  0  0  0  0  0  0  0  0  0  0
  1  6  2  0  0  0  0
  1  9  1  0  0  0  0
  2  3  1  6  0  0  0
  2  5  1  0  0  0  0
  3  7  1  0  0  0  0
  4 11  1  0  0  0  0
  4  7  2  0  0  0  0
  5 14  1  1  0  0  0
  5 16  1  0  0  0  0
  8 21  1  6  0  0  0
  8 12  1  0  0  0  0
 10 19  1  0  0  0  0
 10 18  1  0  0  0  0
 12 16  1  0  0  0  0
 13 18  1  6  0  0  0
 13  2  1  0  0  0  0
 13  8  1  0  0  0  0
 14  1  1  0  0  0  0
 15  4  1  0  0  0  0
 16 17  1  1  0  0  0
 17  6  1  0  0  0  0
 19  3  2  0  0  0  0
 20 15  2  0  0  0  0
 20 19  1  0  0  0  0
 21 23  1  0  0  0  0
 23 22  1  1  0  0  0
 24 27  1  0  0  0  0
 24 31  2  0  0  0  0
 25 28  1  0  0  0  0
 25 30  1  0  0  0  0
 28 24  1  0  0  0  0
 29 31  1  0  0  0  0
 29 26  2  0  0  0  0
 30 23  1  6  0  0  0
 30 29  1  0  0  0  0
M  END
>  <MODEL>
4

>  <REMARK>
 VINA RESULT:      -6.5      1.996      2.405
  Name = 
  3 active torsions:
  status: ('A' for Active; 'I' for Inactive)
    1  A    between atoms: C_5  and  C_16
    2  A    between atoms: C_5  and  C_30
    3  A    between atoms: C_10  and  C_16
                            x       y       z     vdW  Elec       q    Type
                         _______ _______ _______ _____ _____    ______ ____

>  <TORSDO>
F 3

$$$$
=
 OpenBabel11122411183D

 31 35  0  0  1  0  0  0  0  0999 V2000
  191.2970  177.1070  142.4670 C   0  0  0  0  0  0  0  0  0  0  0  0
  190.1530  177.7540  138.8180 C   0  0  2  0  0  3  0  0  0  0  0  0
  190.1170  176.7090  137.7220 C   0  0  0  0  0  0  0  0  0  0  0  0
  190.7350  174.5150  136.8730 C   0  0  0  0  0  0  0  0  0  0  0  0
  190.1330  177.1360  140.2260 C   0  0  1  0  0  3  0  0  0  0  0  0
  190.1200  176.8260  143.0580 C   0  0  0  0  0  3  0  0  0  0  0  0
  190.7330  175.4600  137.9020 C   0  0  0  0  0  3  0  0  0  0  0  0
  187.6600  178.3610  139.2460 C   0  0  1  0  0  3  0  0  0  0  0  0
  192.4120  177.1840  143.2360 F   0  0  0  0  0  0  0  0  0  0  0  0
  188.9300  178.2890  136.2430 N   0  0  0  0  0  2  0  0  0  0  0  0
  191.3360  173.2790  137.0680 O   0  0  0  0  0  1  0  0  0  0  0  0
  187.7540  177.3350  140.2220 O   0  0  0  0  0  0  0  0  0  0  0  0
  189.0370  178.8040  138.6460 C   0  0  2  0  0  3  0  0  0  0  0  0
  191.3910  177.5040  141.0110 C   0  0  0  0  0  2  0  0  0  0  0  0
  190.1340  174.8140  135.6480 C   0  0  0  0  0  3  0  0  0  0  0  0
  188.8910  177.5580  141.0140 C   0  0  1  0  0  3  0  0  0  0  0  0
  188.8270  176.7270  142.2890 C   0  0  0  0  0  2  0  0  0  0  0  0
  189.0060  179.3690  137.2230 C   0  0  0  0  0  2  0  0  0  0  0  0
  189.5450  177.0170  136.4690 C   0  0  0  0  0  0  0  0  0  0  0  0
  189.5420  176.0620  135.4470 C   0  0  0  0  0  3  0  0  0  0  0  0
  186.6770  177.9110  138.1700 C   0  0  0  0  0  2  0  0  0  0  0  0
  185.2470  179.2690  139.5380 O   0  0  0  0  0  1  0  0  0  0  0  0
  185.3170  178.5790  138.3260 C   0  0  2  0  0  3  0  0  0  0  0  0
  182.5360  177.1830  135.7360 C   0  0  0  0  0  0  0  0  0  0  0  0
  184.4450  176.3600  137.3360 C   0  0  0  0  0  2  0  0  0  0  0  0
  182.3750  179.0990  138.6860 O   0  0  0  0  0  0  0  0  0  0  0  0
  181.6010  176.7500  134.6640 C   0  0  0  0  0  1  0  0  0  0  0  0
  184.2800  176.7810  135.5760 S   0  0  0  0  0  0  0  0  0  0  0  0
  182.8430  178.2410  137.8910 C   0  0  0  0  0  0  0  0  0  0  0  0
  184.1560  177.5790  138.2190 C   0  0  2  0  0  3  0  0  0  0  0  0
  182.0750  177.8690  136.7380 N   0  0  0  0  0  0  0  0  0  0  0  0
  1  6  2  0  0  0  0
  1  9  1  0  0  0  0
  2  3  1  6  0  0  0
  2  5  1  0  0  0  0
  3  7  1  0  0  0  0
  4 11  1  0  0  0  0
  4  7  2  0  0  0  0
  5 14  1  1  0  0  0
  5 16  1  0  0  0  0
  8 21  1  6  0  0  0
  8 12  1  0  0  0  0
 10 19  1  0  0  0  0
 10 18  1  0  0  0  0
 12 16  1  0  0  0  0
 13 18  1  6  0  0  0
 13  2  1  0  0  0  0
 13  8  1  0  0  0  0
 14  1  1  0  0  0  0
 15  4  1  0  0  0  0
 16 17  1  1  0  0  0
 17  6  1  0  0  0  0
 19  3  2  0  0  0  0
 20 15  2  0  0  0  0
 20 19  1  0  0  0  0
 21 23  1  0  0  0  0
 23 22  1  1  0  0  0
 24 31  2  0  0  0  0
 25 30  1  0  0  0  0
 27 24  1  0  0  0  0
 28 24  1  0  0  0  0
 28 25  1  0  0  0  0
 29 30  1  0  0  0  0
 29 26  2  0  0  0  0
 30 23  1  6  0  0  0
 31 29  1  0  0  0  0
M  END
>  <MODEL>
5

>  <REMARK>
 VINA RESULT:      -6.5      2.877      3.646
  Name = 
  3 active torsions:
  status: ('A' for Active; 'I' for Inactive)
    1  A    between atoms: C_5  and  C_16
    2  A    between atoms: C_5  and  C_30
    3  A    between atoms: C_10  and  C_16
                            x       y       z     vdW  Elec       q    Type
                         _______ _______ _______ _____ _____    ______ ____

>  <TORSDO>
F 3

$$$$
=
 OpenBabel11122411183D

 31 35  0  0  1  0  0  0  0  0999 V2000
  181.1250  178.8930  143.4890 C   0  0  0  0  0  0  0  0  0  0  0  0
  181.0290  178.4220  139.6410 C   0  0  2  0  0  3  0  0  0  0  0  0
  180.8640  179.5410  138.6330 C   0  0  0  0  0  0  0  0  0  0  0  0
  180.2980  181.8480  138.1130 C   0  0  0  0  0  0  0  0  0  0  0  0
  181.5490  178.9200  141.0000 C   0  0  1  0  0  3  0  0  0  0  0  0
  182.4500  179.0000  143.7010 C   0  0  0  0  0  3  0  0  0  0  0  0
  180.4910  180.8290  139.0490 C   0  0  0  0  0  3  0  0  0  0  0  0
  183.4400  177.5240  139.2540 C   0  0  1  0  0  3  0  0  0  0  0  0
  180.2910  178.8730  144.5590 F   0  0  0  0  0  0  0  0  0  0  0  0
  181.3460  177.9680  136.7930 N   0  0  0  0  0  2  0  0  0  0  0  0
  179.9420  183.1210  138.5360 O   0  0  0  0  0  1  0  0  0  0  0  0
  183.7720  178.4730  140.2550 O   0  0  0  0  0  0  0  0  0  0  0  0
  181.9030  177.2770  139.0880 C   0  0  2  0  0  3  0  0  0  0  0  0
  180.5490  178.6250  142.1170 C   0  0  0  0  0  2  0  0  0  0  0  0
  180.4600  181.5860  136.7500 C   0  0  0  0  0  3  0  0  0  0  0  0
  182.9070  178.3090  141.3480 C   0  0  1  0  0  3  0  0  0  0  0  0
  183.4540  179.0240  142.5760 C   0  0  0  0  0  2  0  0  0  0  0  0
  181.4340  176.8270  137.7010 C   0  0  0  0  0  2  0  0  0  0  0  0
  180.9900  179.2750  137.2530 C   0  0  0  0  0  0  0  0  0  0  0  0
  180.8050  180.3030  136.3220 C   0  0  0  0  0  3  0  0  0  0  0  0
  184.1020  177.9520  137.9490 C   0  0  0  0  0  2  0  0  0  0  0  0
  186.2600  179.0030  137.9680 O   0  0  0  0  0  1  0  0  0  0  0  0
  185.6140  177.7650  137.9880 C   0  0  2  0  0  3  0  0  0  0  0  0
  186.4140  173.9110  137.0410 C   0  0  0  0  0  0  0  0  0  0  0  0
  185.0580  175.9920  136.1960 C   0  0  0  0  0  2  0  0  0  0  0  0
  188.4140  176.7700  137.5150 O   0  0  0  0  0  0  0  0  0  0  0  0
  186.6250  172.4540  136.8340 C   0  0  0  0  0  1  0  0  0  0  0  0
  184.7340  174.5240  137.2180 S   0  0  0  0  0  0  0  0  0  0  0  0
  187.3790  176.1250  137.2010 C   0  0  0  0  0  0  0  0  0  0  0  0
  186.1260  176.8820  136.8420 C   0  0  2  0  0  3  0  0  0  0  0  0
  187.4470  174.6950  137.1250 N   0  0  0  0  0  0  0  0  0  0  0  0
  1  6  2  0  0  0  0
  1  9  1  0  0  0  0
  2  3  1  6  0  0  0
  2  5  1  0  0  0  0
  3  7  1  0  0  0  0
  4 11  1  0  0  0  0
  4  7  2  0  0  0  0
  5 16  1  0  0  0  0
  5 14  1  1  0  0  0
  8 21  1  6  0  0  0
  8 12  1  0  0  0  0
 10 19  1  0  0  0  0
 10 18  1  0  0  0  0
 12 16  1  0  0  0  0
 13 18  1  6  0  0  0
 13  8  1  0  0  0  0
 13  2  1  0  0  0  0
 14  1  1  0  0  0  0
 15  4  1  0  0  0  0
 16 17  1  1  0  0  0
 17  6  1  0  0  0  0
 19  3  2  0  0  0  0
 20 15  2  0  0  0  0
 20 19  1  0  0  0  0
 21 23  1  0  0  0  0
 23 22  1  6  0  0  0
 24 31  2  0  0  0  0
 24 28  1  0  0  0  0
 25 30  1  0  0  0  0
 25 28  1  0  0  0  0
 27 24  1  0  0  0  0
 29 26  2  0  0  0  0
 30 29  1  0  0  0  0
 30 23  1  1  0  0  0
 31 29  1  0  0  0  0
M  END
>  <MODEL>
6

>  <REMARK>
 VINA RESULT:      -6.4      3.834      7.969
  Name = 
  3 active torsions:
  status: ('A' for Active; 'I' for Inactive)
    1  A    between atoms: C_5  and  C_16
    2  A    between atoms: C_5  and  C_30
    3  A    between atoms: C_10  and  C_16
                            x       y       z     vdW  Elec       q    Type
                         _______ _______ _______ _____ _____    ______ ____

>  <TORSDO>
F 3

$$$$
=
 OpenBabel11122411183D

 31 35  0  0  1  0  0  0  0  0999 V2000
  191.0730  177.0610  139.3640 C   0  0  0  0  0  0  0  0  0  0  0  0
  188.4190  176.7860  136.5490 C   0  0  2  0  0  3  0  0  0  0  0  0
  187.6490  175.5290  136.2030 C   0  0  0  0  0  0  0  0  0  0  0  0
  187.3380  173.1240  136.3860 C   0  0  0  0  0  0  0  0  0  0  0  0
  188.9820  176.7610  137.9800 C   0  0  1  0  0  3  0  0  0  0  0  0
  190.3150  177.4920  140.3890 C   0  0  0  0  0  3  0  0  0  0  0  0
  188.0240  174.2870  136.7410 C   0  0  0  0  0  3  0  0  0  0  0  0
  186.6320  178.4330  137.4760 C   0  0  1  0  0  3  0  0  0  0  0  0
  192.4140  176.9550  139.5420 F   0  0  0  0  0  0  0  0  0  0  0  0
  186.2080  176.8230  134.6720 N   0  0  0  0  0  2  0  0  0  0  0  0
  187.7090  171.9040  136.9350 O   0  0  0  0  0  1  0  0  0  0  0  0
  187.0010  177.8650  138.7230 O   0  0  0  0  0  0  0  0  0  0  0  0
  187.5860  178.0590  136.2930 C   0  0  2  0  0  3  0  0  0  0  0  0
  190.5070  176.8530  137.9770 C   0  0  0  0  0  2  0  0  0  0  0  0
  186.2780  173.1860  135.4780 C   0  0  0  0  0  3  0  0  0  0  0  0
  188.3990  177.8830  138.8400 C   0  0  1  0  0  3  0  0  0  0  0  0
  188.8180  177.6470  140.2850 C   0  0  0  0  0  2  0  0  0  0  0  0
  186.9620  178.0530  134.8940 C   0  0  0  0  0  2  0  0  0  0  0  0
  186.6010  175.5780  135.2580 C   0  0  0  0  0  0  0  0  0  0  0  0
  185.9120  174.4110  134.9150 C   0  0  0  0  0  3  0  0  0  0  0  0
  185.1800  178.0610  137.1900 C   0  0  0  0  0  2  0  0  0  0  0  0
  184.1880  175.9490  137.7480 O   0  0  0  0  0  1  0  0  0  0  0  0
  184.5940  177.1740  138.2810 C   0  0  2  0  0  3  0  0  0  0  0  0
  181.7400  180.0090  137.8280 C   0  0  0  0  0  0  0  0  0  0  0  0
  182.0390  177.4840  138.4750 C   0  0  0  0  0  2  0  0  0  0  0  0
  184.6120  179.7440  139.8470 O   0  0  0  0  0  0  0  0  0  0  0  0
  180.7310  181.0490  137.4980 C   0  0  0  0  0  1  0  0  0  0  0  0
  181.6670  178.4320  136.9700 S   0  0  0  0  0  0  0  0  0  0  0  0
  183.6190  179.3290  139.1930 C   0  0  0  0  0  0  0  0  0  0  0  0
  183.4260  177.8440  139.0180 C   0  0  2  0  0  3  0  0  0  0  0  0
  182.6660  180.2780  138.6980 N   0  0  0  0  0  0  0  0  0  0  0  0
  1  9  1  0  0  0  0
  1  6  2  0  0  0  0
  2  3  1  1  0  0  0
  2  5  1  0  0  0  0
  3  7  1  0  0  0  0
  4  7  2  0  0  0  0
  4 11  1  0  0  0  0
  5 14  1  6  0  0  0
  5 16  1  0  0  0  0
  8 21  1  6  0  0  0
  8 12  1  0  0  0  0
 10 18  1  0  0  0  0
 10 19  1  0  0  0  0
 12 16  1  0  0  0  0
 13 18  1  6  0  0  0
 13  2  1  0  0  0  0
 13  8  1  0  0  0  0
 14  1  1  0  0  0  0
 15  4  1  0  0  0  0
 16 17  1  1  0  0  0
 17  6  1  0  0  0  0
 19  3  2  0  0  0  0
 20 19  1  0  0  0  0
 20 15  2  0  0  0  0
 21 23  1  0  0  0  0
 23 22  1  6  0  0  0
 24 31  2  0  0  0  0
 25 30  1  0  0  0  0
 27 24  1  0  0  0  0
 28 24  1  0  0  0  0
 28 25  1  0  0  0  0
 29 26  2  0  0  0  0
 30 23  1  6  0  0  0
 30 29  1  0  0  0  0
 31 29  1  0  0  0  0
M  END
>  <MODEL>
7

>  <REMARK>
 VINA RESULT:      -6.4      1.664      2.023
  Name = 
  3 active torsions:
  status: ('A' for Active; 'I' for Inactive)
    1  A    between atoms: C_5  and  C_16
    2  A    between atoms: C_5  and  C_30
    3  A    between atoms: C_10  and  C_16
                            x       y       z     vdW  Elec       q    Type
                         _______ _______ _______ _____ _____    ______ ____

>  <TORSDO>
F 3

$$$$
=
 OpenBabel11122411183D

 31 35  0  0  1  0  0  0  0  0999 V2000
  188.1840  177.7680  136.1170 C   0  0  0  0  0  0  0  0  0  0  0  0
  184.6570  178.1350  137.6880 C   0  0  2  0  0  3  0  0  0  0  0  0
  183.6980  176.9920  137.9440 C   0  0  0  0  0  0  0  0  0  0  0  0
  183.0290  174.6790  137.6030 C   0  0  0  0  0  0  0  0  0  0  0  0
  186.1170  177.6680  137.5650 C   0  0  1  0  0  3  0  0  0  0  0  0
  188.9450  177.6500  137.2220 C   0  0  0  0  0  3  0  0  0  0  0  0
  183.9380  175.7200  137.4000 C   0  0  0  0  0  3  0  0  0  0  0  0
  185.3230  178.9930  140.0530 C   0  0  1  0  0  3  0  0  0  0  0  0
  188.7940  177.8270  134.9070 F   0  0  0  0  0  0  0  0  0  0  0  0
  182.2120  178.5080  139.2040 N   0  0  0  0  0  2  0  0  0  0  0  0
  183.2840  173.4220  137.0710 O   0  0  0  0  0  1  0  0  0  0  0  0
  186.3880  178.0670  139.9020 O   0  0  0  0  0  0  0  0  0  0  0  0
  184.5110  179.2540  138.7410 C   0  0  2  0  0  3  0  0  0  0  0  0
  186.6930  178.0060  136.1910 C   0  0  0  0  0  2  0  0  0  0  0  0
  181.8630  174.9020  138.3390 C   0  0  0  0  0  3  0  0  0  0  0  0
  187.0020  178.2710  138.6570 C   0  0  1  0  0  3  0  0  0  0  0  0
  188.3600  177.5820  138.6100 C   0  0  0  0  0  2  0  0  0  0  0  0
  183.0480  179.6720  138.9200 C   0  0  0  0  0  2  0  0  0  0  0  0
  182.5000  177.2180  138.6560 C   0  0  0  0  0  0  0  0  0  0  0  0
  181.6000  176.1680  138.8630 C   0  0  0  0  0  3  0  0  0  0  0  0
  184.4360  178.5210  141.2000 C   0  0  0  0  0  2  0  0  0  0  0  0
  186.0480  179.8500  142.3810 O   0  0  0  0  0  1  0  0  0  0  0  0
  184.9170  179.0470  142.5470 C   0  0  2  0  0  3  0  0  0  0  0  0
  186.9030  178.2690  145.9880 C   0  0  0  0  0  0  0  0  0  0  0  0
  184.5200  178.0770  144.9060 C   0  0  0  0  0  2  0  0  0  0  0  0
  187.3120  177.2270  142.6490 O   0  0  0  0  0  0  0  0  0  0  0  0
  187.6500  178.1500  147.2670 C   0  0  0  0  0  1  0  0  0  0  0  0
  185.4110  179.2700  145.9490 S   0  0  0  0  0  0  0  0  0  0  0  0
  186.6810  177.6130  143.6690 C   0  0  0  0  0  0  0  0  0  0  0  0
  185.2100  177.9190  143.5460 C   0  0  2  0  0  3  0  0  0  0  0  0
  187.3640  177.6780  144.9270 N   0  0  0  0  0  0  0  0  0  0  0  0
  1 14  1  0  0  0  0
  1  6  2  0  0  0  0
  2  3  1  1  0  0  0
  2 13  1  0  0  0  0
  3 19  1  0  0  0  0
  4 15  2  0  0  0  0
  5 14  1  6  0  0  0
  5  2  1  0  0  0  0
  5 16  1  0  0  0  0
  6 17  1  0  0  0  0
  7  4  1  0  0  0  0
  7  3  2  0  0  0  0
  8 21  1  1  0  0  0
  9  1  1  0  0  0  0
 11  4  1  0  0  0  0
 12  8  1  0  0  0  0
 13 18  1  1  0  0  0
 13  8  1  0  0  0  0
 15 20  1  0  0  0  0
 16 17  1  1  0  0  0
 16 12  1  0  0  0  0
 18 10  1  0  0  0  0
 19 20  2  0  0  0  0
 19 10  1  0  0  0  0
 21 23  1  0  0  0  0
 23 22  1  6  0  0  0
 24 27  1  0  0  0  0
 25 28  1  0  0  0  0
 26 29  2  0  0  0  0
 28 24  1  0  0  0  0
 29 31  1  0  0  0  0
 30 23  1  6  0  0  0
 30 29  1  0  0  0  0
 30 25  1  0  0  0  0
 31 24  2  0  0  0  0
M  END
>  <MODEL>
8

>  <REMARK>
 VINA RESULT:      -6.3      3.186      4.661
  Name = 
  3 active torsions:
  status: ('A' for Active; 'I' for Inactive)
    1  A    between atoms: C_5  and  C_16
    2  A    between atoms: C_5  and  C_30
    3  A    between atoms: C_10  and  C_16
                            x       y       z     vdW  Elec       q    Type
                         _______ _______ _______ _____ _____    ______ ____

>  <TORSDO>
F 3

$$$$
=
 OpenBabel11122411183D

 31 35  0  0  1  0  0  0  0  0999 V2000
  183.2650  178.9630  143.4500 C   0  0  0  0  0  0  0  0  0  0  0  0
  182.4230  178.1920  139.7430 C   0  0  2  0  0  3  0  0  0  0  0  0
  181.8620  179.1930  138.7550 C   0  0  0  0  0  0  0  0  0  0  0  0
  180.8240  181.3400  138.2820 C   0  0  0  0  0  0  0  0  0  0  0  0
  183.1330  178.8650  140.9300 C   0  0  1  0  0  3  0  0  0  0  0  0
  184.5680  179.2870  143.3540 C   0  0  0  0  0  3  0  0  0  0  0  0
  181.3790  180.4370  139.1910 C   0  0  0  0  0  3  0  0  0  0  0  0
  184.8080  177.6440  138.8610 C   0  0  1  0  0  3  0  0  0  0  0  0
  182.6960  178.8980  144.6800 F   0  0  0  0  0  0  0  0  0  0  0  0
  182.1900  177.5760  136.9180 N   0  0  0  0  0  2  0  0  0  0  0  0
  180.3620  182.5730  138.7220 O   0  0  0  0  0  1  0  0  0  0  0  0
  185.1860  178.7070  139.7240 O   0  0  0  0  0  0  0  0  0  0  0  0
  183.3340  177.1550  139.0550 C   0  0  2  0  0  3  0  0  0  0  0  0
  182.4600  178.5070  142.2540 C   0  0  0  0  0  2  0  0  0  0  0  0
  180.7300  181.0040  136.9290 C   0  0  0  0  0  3  0  0  0  0  0  0
  184.6160  178.4960  140.9880 C   0  0  1  0  0  3  0  0  0  0  0  0
  185.2890  179.3780  142.0320 C   0  0  0  0  0  2  0  0  0  0  0  0
  182.6580  176.5350  137.8280 C   0  0  0  0  0  2  0  0  0  0  0  0
  181.7310  178.8460  137.3930 C   0  0  0  0  0  0  0  0  0  0  0  0
  181.1820  179.7590  136.4870 C   0  0  0  0  0  3  0  0  0  0  0  0
  185.0940  178.0690  137.4240 C   0  0  0  0  0  2  0  0  0  0  0  0
  186.4420  176.0900  137.5940 O   0  0  0  0  0  1  0  0  0  0  0  0
  186.1060  177.1500  136.7500 C   0  0  2  0  0  3  0  0  0  0  0  0
  190.1050  176.6820  136.3280 C   0  0  0  0  0  0  0  0  0  0  0  0
  187.9710  177.4050  134.9830 C   0  0  0  0  0  2  0  0  0  0  0  0
  188.0900  178.6270  138.4620 O   0  0  0  0  0  0  0  0  0  0  0  0
  191.5460  176.3450  136.1960 C   0  0  0  0  0  1  0  0  0  0  0  0
  188.9270  175.8800  135.2340 S   0  0  0  0  0  0  0  0  0  0  0  0
  188.3960  178.0160  137.4050 C   0  0  0  0  0  0  0  0  0  0  0  0
  187.3710  177.8970  136.3060 C   0  0  2  0  0  3  0  0  0  0  0  0
  189.7310  177.5160  137.2510 N   0  0  0  0  0  0  0  0  0  0  0  0
  1  9  1  0  0  0  0
  2  3  1  6  0  0  0
  2  5  1  0  0  0  0
  3  7  1  0  0  0  0
  4 11  1  0  0  0  0
  4  7  2  0  0  0  0
  5 16  1  0  0  0  0
  5 14  1  1  0  0  0
  6  1  2  0  0  0  0
  8 21  1  6  0  0  0
  8 13  1  0  0  0  0
  8 12  1  0  0  0  0
 10 19  1  0  0  0  0
 10 18  1  0  0  0  0
 12 16  1  0  0  0  0
 13 18  1  6  0  0  0
 13  2  1  0  0  0  0
 14  1  1  0  0  0  0
 15  4  1  0  0  0  0
 16 17  1  1  0  0  0
 17  6  1  0  0  0  0
 19  3  2  0  0  0  0
 20 15  2  0  0  0  0
 20 19  1  0  0  0  0
 23 21  1  0  0  0  0
 23 22  1  1  0  0  0
 24 31  2  0  0  0  0
 25 28  1  0  0  0  0
 25 30  1  0  0  0  0
 27 24  1  0  0  0  0
 28 24  1  0  0  0  0
 29 26  2  0  0  0  0
 30 23  1  1  0  0  0
 30 29  1  0  0  0  0
 31 29  1  0  0  0  0
M  END
>  <MODEL>
9

>  <REMARK>
 VINA RESULT:      -6.2      3.714      7.598
  Name = 
  3 active torsions:
  status: ('A' for Active; 'I' for Inactive)
    1  A    between atoms: C_5  and  C_16
    2  A    between atoms: C_5  and  C_30
    3  A    between atoms: C_10  and  C_16
                            x       y       z     vdW  Elec       q    Type
                         _______ _______ _______ _____ _____    ______ ____

>  <TORSDO>
F 3

$$$$
