=
 OpenBabel11122410363D

 32 37  0  0  1  0  0  0  0  0999 V2000
  185.3050  178.8110  142.6530 C   0  0  2  0  0  3  0  0  0  0  0  0
  185.8990  179.3000  147.0100 C   0  0  0  0  0  3  0  0  0  0  0  0
  186.9070  178.1960  147.2470 C   0  0  0  0  0  2  0  0  0  0  0  0
  187.2760  178.2560  141.0360 C   0  0  0  0  0  0  0  0  0  0  0  0
  188.6680  177.8260  141.0120 C   0  0  0  0  0  0  0  0  0  0  0  0
  183.2170  178.3770  141.4990 O   0  0  0  0  0  0  0  0  0  0  0  0
  183.1890  178.7460  143.9020 C   0  0  0  0  0  2  0  0  0  0  0  0
  190.5630  177.1230  141.7850 C   0  0  0  0  0  0  0  0  0  0  0  0
  185.1070  179.2440  145.9250 C   0  0  0  0  0  3  0  0  0  0  0  0
  184.5200  178.1490  143.7160 N   0  0  2  0  0  0  0  0  0  0  0  0
  185.2560  178.0540  144.9940 C   0  0  1  0  0  3  0  0  0  0  0  0
  187.3280  177.5600  143.4950 C   0  0  0  0  0  0  0  0  0  0  0  0
  190.7390  177.5150  140.5020 N   0  0  0  0  0  0  0  0  0  0  0  0
  182.4620  178.9140  142.5580 C   0  0  2  0  0  3  0  0  0  0  0  0
  189.5760  177.9510  140.0260 N   0  0  0  0  0  0  0  0  0  0  0  0
  187.5080  177.7800  145.9280 C   0  0  0  0  0  3  0  0  0  0  0  0
  186.7250  177.6960  144.8380 C   0  0  0  0  0  0  0  0  0  0  0  0
  188.5980  177.2600  143.3850 N   0  0  0  0  0  0  0  0  0  0  0  0
  184.3970  179.1350  141.4490 C   0  0  0  0  0  2  0  0  0  0  0  0
  186.7700  178.8320  140.0380 O   0  0  0  0  0  0  0  0  0  0  0  0
  191.6520  176.6520  142.6820 C   0  0  0  0  0  1  0  0  0  0  0  0
  186.4560  177.8620  142.2630 C   0  0  1  0  0  3  0  0  0  0  0  0
  189.2450  177.3020  142.1140 C   0  0  1  0  0  3  0  0  0  0  0  0
  179.9040  179.1470  142.3640 C   0  0  2  0  0  3  0  0  0  0  0  0
  181.1020  178.2250  142.6210 C   0  0  1  0  0  3  0  0  0  0  0  0
  180.4440  178.2620  141.2570 C   0  0  1  0  0  3  0  0  0  0  0  0
  180.2930  180.5270  142.1130 N   0  0  0  0  0  2  0  0  0  0  0  0
  179.4920  181.0180  140.6200 S   0  0  0  0  0  1  0  0  0  0  0  0
  179.5430  177.0480  141.1010 C   0  0  0  0  0  2  0  0  0  0  0  0
  180.1530  175.9600  140.2610 C   0  0  0  0  0  0  0  0  0  0  0  0
  181.3970  176.1700  139.4570 C   0  0  0  0  0  1  0  0  0  0  0  0
  179.6120  174.8660  140.2330 O   0  0  0  0  0  0  0  0  0  0  0  0
  1 19  1  6  0  0  0
  1 10  1  0  0  0  0
  2  3  1  0  0  0  0
  5  4  1  0  0  0  0
  6 14  1  0  0  0  0
  8 23  1  0  0  0  0
  8 21  1  0  0  0  0
  9  2  2  0  0  0  0
 10  7  1  1  0  0  0
 10 11  1  0  0  0  0
 11  9  1  6  0  0  0
 12 17  1  0  0  0  0
 13  8  2  0  0  0  0
 14  7  1  1  0  0  0
 15 13  1  0  0  0  0
 15  5  2  0  0  0  0
 16  3  1  0  0  0  0
 17 11  1  0  0  0  0
 17 16  2  0  0  0  0
 18 12  2  0  0  0  0
 19  6  1  0  0  0  0
 20  4  2  0  0  0  0
 22  4  1  6  0  0  0
 22  1  1  0  0  0  0
 22 12  1  0  0  0  0
 23  5  1  1  0  0  0
 23 18  1  0  0  0  0
 24 27  1  6  0  0  0
 24 25  1  0  0  0  0
 25 14  1  6  0  0  0
 26 29  1  1  0  0  0
 26 24  1  0  0  0  0
 26 25  1  0  0  0  0
 28 27  1  0  0  0  0
 30 29  1  0  0  0  0
 31 30  1  0  0  0  0
 32 30  2  0  0  0  0
M  END
>  <MODEL>
1

>  <REMARK>
 VINA RESULT:      -8.8      0.000      0.000
  Name = 
  4 active torsions:
  status: ('A' for Active; 'I' for Inactive)
    1  A    between atoms: C_1  and  N_16
    2  A    between atoms: C_10  and  C_17
    3  A    between atoms: C_20  and  C_29
    4  A    between atoms: C_29  and  C_30
                            x       y       z     vdW  Elec       q    Type
                         _______ _______ _______ _____ _____    ______ ____

>  <TORSDO>
F 4

$$$$
=
 OpenBabel11122410363D

 32 37  0  0  1  0  0  0  0  0999 V2000
  185.6730  178.7330  141.9870 C   0  0  2  0  0  3  0  0  0  0  0  0
  185.4610  179.3460  146.3640 C   0  0  0  0  0  3  0  0  0  0  0  0
  186.3990  178.2450  146.8120 C   0  0  0  0  0  2  0  0  0  0  0  0
  187.9030  178.1240  140.7760 C   0  0  0  0  0  0  0  0  0  0  0  0
  189.2710  177.6880  141.0200 C   0  0  0  0  0  0  0  0  0  0  0  0
  183.8290  178.2730  140.4820 O   0  0  0  0  0  0  0  0  0  0  0  0
  183.3630  178.7120  142.8270 C   0  0  0  0  0  2  0  0  0  0  0  0
  190.9850  177.0010  142.1470 C   0  0  0  0  0  0  0  0  0  0  0  0
  184.8820  179.2610  145.1540 C   0  0  0  0  0  3  0  0  0  0  0  0
  184.7000  178.1050  142.9050 N   0  0  2  0  0  0  0  0  0  0  0  0
  185.1880  178.0440  144.2990 C   0  0  1  0  0  3  0  0  0  0  0  0
  187.4950  177.4990  143.2210 C   0  0  0  0  0  0  0  0  0  0  0  0
  191.3980  177.3540  140.9080 N   0  0  0  0  0  0  0  0  0  0  0  0
  182.8970  178.8430  141.3680 C   0  0  2  0  0  3  0  0  0  0  0  0
  190.3460  177.7820  140.2150 N   0  0  0  0  0  0  0  0  0  0  0  0
  187.2270  177.7890  145.6390 C   0  0  0  0  0  3  0  0  0  0  0  0
  186.6580  177.6770  144.4260 C   0  0  0  0  0  0  0  0  0  0  0  0
  188.7620  177.1910  143.3550 N   0  0  0  0  0  0  0  0  0  0  0  0
  185.0050  179.0250  140.6280 C   0  0  0  0  0  2  0  0  0  0  0  0
  187.5940  178.6730  139.6860 O   0  0  0  0  0  0  0  0  0  0  0  0
  191.8870  176.5520  143.2430 C   0  0  0  0  0  1  0  0  0  0  0  0
  186.8670  177.7690  141.8420 C   0  0  1  0  0  3  0  0  0  0  0  0
  189.6310  177.1940  142.2240 C   0  0  1  0  0  3  0  0  0  0  0  0
  180.5500  178.9200  140.3090 C   0  0  2  0  0  3  0  0  0  0  0  0
  181.5420  178.1610  141.1990 C   0  0  1  0  0  3  0  0  0  0  0  0
  181.3490  177.7570  139.7520 C   0  0  1  0  0  3  0  0  0  0  0  0
  181.0900  180.1690  139.7920 N   0  0  0  0  0  2  0  0  0  0  0  0
  179.7620  181.3300  139.7780 S   0  0  0  0  0  1  0  0  0  0  0  0
  180.4620  176.5230  139.6910 C   0  0  0  0  0  2  0  0  0  0  0  0
  181.0610  175.4010  138.8900 C   0  0  0  0  0  0  0  0  0  0  0  0
  182.5090  175.3650  138.5190 C   0  0  0  0  0  1  0  0  0  0  0  0
  180.3380  174.4860  138.5290 O   0  0  0  0  0  0  0  0  0  0  0  0
  1 19  1  6  0  0  0
  1 10  1  0  0  0  0
  2  3  1  0  0  0  0
  4  5  1  0  0  0  0
  6 19  1  0  0  0  0
  6 14  1  0  0  0  0
  8 23  1  0  0  0  0
  8 21  1  0  0  0  0
  9  2  2  0  0  0  0
 10  7  1  1  0  0  0
 10 11  1  0  0  0  0
 11 17  1  0  0  0  0
 11  9  1  6  0  0  0
 12 18  2  0  0  0  0
 12 17  1  0  0  0  0
 13  8  2  0  0  0  0
 14  7  1  1  0  0  0
 15 13  1  0  0  0  0
 15  5  2  0  0  0  0
 16  3  1  0  0  0  0
 17 16  2  0  0  0  0
 20  4  2  0  0  0  0
 22  4  1  6  0  0  0
 22  1  1  0  0  0  0
 22 12  1  0  0  0  0
 23  5  1  1  0  0  0
 23 18  1  0  0  0  0
 24 27  1  6  0  0  0
 24 25  1  0  0  0  0
 25 14  1  6  0  0  0
 26 29  1  1  0  0  0
 26 24  1  0  0  0  0
 26 25  1  0  0  0  0
 28 27  1  0  0  0  0
 30 29  1  0  0  0  0
 31 30  1  0  0  0  0
 32 30  2  0  0  0  0
M  END
>  <MODEL>
2

>  <REMARK>
 VINA RESULT:      -8.6      1.056      1.161
  Name = 
  4 active torsions:
  status: ('A' for Active; 'I' for Inactive)
    1  A    between atoms: C_1  and  N_16
    2  A    between atoms: C_10  and  C_17
    3  A    between atoms: C_20  and  C_29
    4  A    between atoms: C_29  and  C_30
                            x       y       z     vdW  Elec       q    Type
                         _______ _______ _______ _____ _____    ______ ____

>  <TORSDO>
F 4

$$$$
=
 OpenBabel11122410363D

 32 37  0  0  1  0  0  0  0  0999 V2000
  187.6850  178.4960  141.7850 C   0  0  2  0  0  3  0  0  0  0  0  0
  184.1750  179.8600  144.1070 C   0  0  0  0  0  3  0  0  0  0  0  0
  184.2350  178.8680  145.2490 C   0  0  0  0  0  2  0  0  0  0  0  0
  189.8940  177.7170  142.9340 C   0  0  0  0  0  0  0  0  0  0  0  0
  190.4600  177.3500  144.2250 C   0  0  0  0  0  0  0  0  0  0  0  0
  187.7150  177.7550  139.4760 O   0  0  0  0  0  0  0  0  0  0  0  0
  185.6390  178.5880  140.4260 C   0  0  0  0  0  2  0  0  0  0  0  0
  190.5010  176.8950  146.3400 C   0  0  0  0  0  0  0  0  0  0  0  0
  184.7760  179.5570  142.9430 C   0  0  0  0  0  3  0  0  0  0  0  0
  186.2950  178.0240  141.6150 N   0  0  2  0  0  0  0  0  0  0  0  0
  185.4750  178.2140  142.8290 C   0  0  1  0  0  3  0  0  0  0  0  0
  187.6340  177.5220  144.1110 C   0  0  0  0  0  0  0  0  0  0  0  0
  191.7740  177.0330  145.9040 N   0  0  0  0  0  0  0  0  0  0  0  0
  186.5330  178.4570  139.1820 C   0  0  2  0  0  3  0  0  0  0  0  0
  191.7510  177.3170  144.6050 N   0  0  0  0  0  0  0  0  0  0  0  0
  185.5980  178.2250  145.2790 C   0  0  0  0  0  3  0  0  0  0  0  0
  186.2030  177.8950  144.1250 C   0  0  0  0  0  0  0  0  0  0  0  0
  188.2430  177.2610  145.2410 N   0  0  0  0  0  0  0  0  0  0  0  0
  188.4000  178.5370  140.4190 C   0  0  0  0  0  2  0  0  0  0  0  0
  190.6450  178.0630  141.9840 O   0  0  0  0  0  0  0  0  0  0  0  0
  190.1130  176.6570  147.7560 C   0  0  0  0  0  1  0  0  0  0  0  0
  188.3860  177.5380  142.7690 C   0  0  1  0  0  3  0  0  0  0  0  0
  189.6580  177.0790  145.2760 C   0  0  1  0  0  3  0  0  0  0  0  0
  186.2910  178.0030  136.6580 C   0  0  2  0  0  3  0  0  0  0  0  0
  185.7680  177.7370  138.0750 C   0  0  1  0  0  3  0  0  0  0  0  0
  186.6760  176.7340  137.3930 C   0  0  1  0  0  3  0  0  0  0  0  0
  187.4270  178.9120  136.6330 N   0  0  0  0  0  2  0  0  0  0  0  0
  188.8090  177.9820  136.0530 S   0  0  0  0  0  1  0  0  0  0  0  0
  185.8410  175.5770  136.8690 C   0  0  0  0  0  2  0  0  0  0  0  0
  186.4610  174.2320  137.1260 C   0  0  0  0  0  0  0  0  0  0  0  0
  185.6650  173.0630  137.6150 C   0  0  0  0  0  1  0  0  0  0  0  0
  187.6570  174.0880  136.9300 O   0  0  0  0  0  0  0  0  0  0  0  0
  1 19  1  6  0  0  0
  1 22  1  0  0  0  0
  2  3  1  0  0  0  0
  3 16  1  0  0  0  0
  4  5  1  0  0  0  0
  5 15  2  0  0  0  0
  6 19  1  0  0  0  0
  8 21  1  0  0  0  0
  9  2  2  0  0  0  0
 10  7  1  6  0  0  0
 10  1  1  0  0  0  0
 10 11  1  0  0  0  0
 11  9  1  1  0  0  0
 11 17  1  0  0  0  0
 12 17  1  0  0  0  0
 12 18  2  0  0  0  0
 13  8  2  0  0  0  0
 14  6  1  0  0  0  0
 14  7  1  1  0  0  0
 15 13  1  0  0  0  0
 17 16  2  0  0  0  0
 18 23  1  0  0  0  0
 20  4  2  0  0  0  0
 22  4  1  1  0  0  0
 22 12  1  0  0  0  0
 23  5  1  1  0  0  0
 23  8  1  0  0  0  0
 24 27  1  1  0  0  0
 24 26  1  0  0  0  0
 24 25  1  0  0  0  0
 25 14  1  1  0  0  0
 26 29  1  6  0  0  0
 26 25  1  0  0  0  0
 28 27  1  0  0  0  0
 29 30  1  0  0  0  0
 30 31  1  0  0  0  0
 32 30  2  0  0  0  0
M  END
>  <MODEL>
3

>  <REMARK>
 VINA RESULT:      -8.5      3.947      5.322
  Name = 
  4 active torsions:
  status: ('A' for Active; 'I' for Inactive)
    1  A    between atoms: C_1  and  N_16
    2  A    between atoms: C_10  and  C_17
    3  A    between atoms: C_20  and  C_29
    4  A    between atoms: C_29  and  C_30
                            x       y       z     vdW  Elec       q    Type
                         _______ _______ _______ _____ _____    ______ ____

>  <TORSDO>
F 4

$$$$
=
 OpenBabel11122410363D

 32 37  0  0  1  0  0  0  0  0999 V2000
  188.0310  178.2470  141.7840 C   0  0  2  0  0  3  0  0  0  0  0  0
  190.8900  177.5640  145.0900 C   0  0  0  0  0  3  0  0  0  0  0  0
  191.5670  176.3120  144.5750 C   0  0  0  0  0  2  0  0  0  0  0  0
  188.6740  177.8510  139.2870 C   0  0  0  0  0  0  0  0  0  0  0  0
  189.6970  177.2590  138.4340 C   0  0  0  0  0  0  0  0  0  0  0  0
  185.6150  178.3920  141.9430 O   0  0  0  0  0  0  0  0  0  0  0  0
  186.9250  178.1570  143.9780 C   0  0  0  0  0  2  0  0  0  0  0  0
  191.4770  176.1420  137.9190 C   0  0  0  0  0  0  0  0  0  0  0  0
  189.6670  177.8820  144.6340 C   0  0  0  0  0  3  0  0  0  0  0  0
  187.7730  177.4530  143.0040 N   0  0  2  0  0  0  0  0  0  0  0  0
  189.0140  176.9500  143.6290 C   0  0  1  0  0  3  0  0  0  0  0  0
  189.8160  176.5690  141.1810 C   0  0  0  0  0  0  0  0  0  0  0  0
  191.0540  176.8110  136.8210 N   0  0  0  0  0  0  0  0  0  0  0  0
  185.6760  178.7460  143.3030 C   0  0  2  0  0  3  0  0  0  0  0  0
  189.9620  177.5020  137.1370 N   0  0  0  0  0  0  0  0  0  0  0  0
  191.2760  176.1570  143.1050 C   0  0  0  0  0  3  0  0  0  0  0  0
  190.0500  176.4500  142.6360 C   0  0  0  0  0  0  0  0  0  0  0  0
  190.7270  176.1400  140.3430 N   0  0  0  0  0  0  0  0  0  0  0  0
  186.7430  178.9750  141.3460 C   0  0  0  0  0  2  0  0  0  0  0  0
  187.8850  178.7170  138.8270 O   0  0  0  0  0  0  0  0  0  0  0  0
  192.7180  175.3240  137.9850 C   0  0  0  0  0  1  0  0  0  0  0  0
  188.5390  177.2790  140.6970 C   0  0  1  0  0  3  0  0  0  0  0  0
  190.6110  176.4070  138.9470 C   0  0  1  0  0  3  0  0  0  0  0  0
  184.2330  178.8080  145.4360 C   0  0  2  0  0  3  0  0  0  0  0  0
  184.4230  178.2500  144.0200 C   0  0  1  0  0  3  0  0  0  0  0  0
  183.4790  179.4080  144.2650 C   0  0  1  0  0  3  0  0  0  0  0  0
  185.3000  179.7110  145.8390 N   0  0  0  0  0  2  0  0  0  0  0  0
  186.0530  179.0040  147.2680 S   0  0  0  0  0  1  0  0  0  0  0  0
  182.0480  178.8960  144.2730 C   0  0  0  0  0  2  0  0  0  0  0  0
  181.2670  179.2940  143.0520 C   0  0  0  0  0  0  0  0  0  0  0  0
  181.4590  178.6280  141.7260 C   0  0  0  0  0  1  0  0  0  0  0  0
  180.4480  180.1920  143.1450 O   0  0  0  0  0  0  0  0  0  0  0  0
  1 19  1  6  0  0  0
  1 10  1  0  0  0  0
  3  2  1  0  0  0  0
  5 23  1  0  0  0  0
  5  4  1  0  0  0  0
  6 14  1  0  0  0  0
  8 21  1  0  0  0  0
  9  2  2  0  0  0  0
 10 11  1  0  0  0  0
 10  7  1  1  0  0  0
 11  9  1  6  0  0  0
 12 17  1  0  0  0  0
 13 15  1  0  0  0  0
 13  8  2  0  0  0  0
 14  7  1  1  0  0  0
 15  5  2  0  0  0  0
 16  3  1  0  0  0  0
 17 16  2  0  0  0  0
 17 11  1  0  0  0  0
 18 12  2  0  0  0  0
 19  6  1  0  0  0  0
 20  4  2  0  0  0  0
 22  4  1  6  0  0  0
 22 12  1  0  0  0  0
 22  1  1  0  0  0  0
 23  8  1  1  0  0  0
 23 18  1  0  0  0  0
 24 27  1  6  0  0  0
 25 14  1  6  0  0  0
 25 26  1  0  0  0  0
 25 24  1  0  0  0  0
 26 29  1  1  0  0  0
 26 24  1  0  0  0  0
 27 28  1  0  0  0  0
 30 32  2  0  0  0  0
 30 29  1  0  0  0  0
 31 30  1  0  0  0  0
M  END
>  <MODEL>
4

>  <REMARK>
 VINA RESULT:      -8.2      2.883      4.376
  Name = 
  4 active torsions:
  status: ('A' for Active; 'I' for Inactive)
    1  A    between atoms: C_1  and  N_16
    2  A    between atoms: C_10  and  C_17
    3  A    between atoms: C_20  and  C_29
    4  A    between atoms: C_29  and  C_30
                            x       y       z     vdW  Elec       q    Type
                         _______ _______ _______ _____ _____    ______ ____

>  <TORSDO>
F 4

$$$$
=
 OpenBabel11122410363D

 32 37  0  0  1  0  0  0  0  0999 V2000
  189.5330  177.7600  142.1710 C   0  0  2  0  0  3  0  0  0  0  0  0
  185.4470  179.4340  141.8910 C   0  0  0  0  0  3  0  0  0  0  0  0
  184.8040  178.7120  143.0560 C   0  0  0  0  0  2  0  0  0  0  0  0
  190.7080  177.3420  144.4620 C   0  0  0  0  0  0  0  0  0  0  0  0
  190.4620  177.2840  145.8970 C   0  0  0  0  0  0  0  0  0  0  0  0
  190.7390  176.5460  140.4540 O   0  0  0  0  0  0  0  0  0  0  0  0
  188.5510  177.4720  139.9360 C   0  0  0  0  0  2  0  0  0  0  0  0
  189.3230  177.2920  147.7370 C   0  0  0  0  0  0  0  0  0  0  0  0
  186.5520  178.9160  141.3280 C   0  0  0  0  0  3  0  0  0  0  0  0
  188.4190  177.2020  141.3760 N   0  0  2  0  0  0  0  0  0  0  0  0
  187.0930  177.6120  141.8850 C   0  0  1  0  0  3  0  0  0  0  0  0
  188.1620  177.3040  144.2400 C   0  0  0  0  0  0  0  0  0  0  0  0
  190.6380  177.3890  148.0430 N   0  0  0  0  0  0  0  0  0  0  0  0
  189.9590  177.1170  139.4310 C   0  0  2  0  0  3  0  0  0  0  0  0
  191.3390  177.3890  146.9120 N   0  0  0  0  0  2  0  0  0  0  0  0
  185.8820  178.1510  143.9490 C   0  0  0  0  0  3  0  0  0  0  0  0
  186.9840  177.6090  143.4010 C   0  0  0  0  0  0  0  0  0  0  0  0
  188.0460  177.3170  145.5450 N   0  0  0  0  0  0  0  0  0  0  0  0
  190.8700  177.5400  141.4350 C   0  0  0  0  0  2  0  0  0  0  0  0
  191.8760  177.5090  144.0230 O   0  0  0  0  0  0  0  0  0  0  0  0
  188.2180  177.3450  148.7310 C   0  0  0  0  0  1  0  0  0  0  0  0
  189.5160  177.0660  143.5470 C   0  0  1  0  0  3  0  0  0  0  0  0
  189.2010  177.2080  146.3750 C   0  0  0  0  0  0  0  0  0  0  0  0
  189.5920  176.8050  136.9010 C   0  0  2  0  0  3  0  0  0  0  0  0
  189.8540  176.1440  138.2600 C   0  0  1  0  0  3  0  0  0  0  0  0
  190.9950  176.3820  137.2920 C   0  0  1  0  0  3  0  0  0  0  0  0
  189.4820  178.2530  136.9850 N   0  0  0  0  0  2  0  0  0  0  0  0
  187.8380  178.6680  136.5000 S   0  0  0  0  0  1  0  0  0  0  0  0
  191.3390  175.0770  136.5930 C   0  0  0  0  0  2  0  0  0  0  0  0
  192.6650  174.5080  137.0150 C   0  0  0  0  0  0  0  0  0  0  0  0
  193.6600  175.2970  137.8060 C   0  0  0  0  0  1  0  0  0  0  0  0
  192.9390  173.3620  136.7010 O   0  0  0  0  0  0  0  0  0  0  0  0
  1 19  1  6  0  0  0
  1 22  1  0  0  0  0
  2  3  1  0  0  0  0
  3 16  1  0  0  0  0
  4  5  1  0  0  0  0
  5 23  2  0  0  0  0
  5 15  1  0  0  0  0
  6 19  1  0  0  0  0
  8 13  2  0  0  0  0
  8 21  1  0  0  0  0
  9  2  2  0  0  0  0
 10  7  1  6  0  0  0
 10 11  1  0  0  0  0
 10  1  1  0  0  0  0
 11  9  1  1  0  0  0
 11 17  1  0  0  0  0
 12 18  2  0  0  0  0
 14  7  1  1  0  0  0
 14  6  1  0  0  0  0
 15 13  1  0  0  0  0
 17 16  2  0  0  0  0
 17 12  1  0  0  0  0
 18 23  1  0  0  0  0
 20  4  2  0  0  0  0
 22 12  1  1  0  0  0
 22  4  1  0  0  0  0
 23  8  1  0  0  0  0
 24 27  1  1  0  0  0
 24 26  1  0  0  0  0
 24 25  1  0  0  0  0
 25 14  1  1  0  0  0
 26 29  1  6  0  0  0
 26 25  1  0  0  0  0
 28 27  1  0  0  0  0
 29 30  1  0  0  0  0
 30 31  1  0  0  0  0
 32 30  2  0  0  0  0
M  END
>  <MODEL>
5

>  <REMARK>
 VINA RESULT:      -8.2      4.395      7.761
  Name = 
  4 active torsions:
  status: ('A' for Active; 'I' for Inactive)
    1  A    between atoms: C_1  and  N_16
    2  A    between atoms: C_10  and  C_17
    3  A    between atoms: C_20  and  C_29
    4  A    between atoms: C_29  and  C_30
                            x       y       z     vdW  Elec       q    Type
                         _______ _______ _______ _____ _____    ______ ____

>  <TORSDO>
F 4

$$$$
=
 OpenBabel11122410363D

 32 37  0  0  1  0  0  0  0  0999 V2000
  191.2980  177.3440  139.5430 C   0  0  2  0  0  3  0  0  0  0  0  0
  188.1220  178.8140  136.8370 C   0  0  0  0  0  3  0  0  0  0  0  0
  186.9110  178.2490  137.5480 C   0  0  0  0  0  2  0  0  0  0  0  0
  191.0080  177.3080  142.1360 C   0  0  0  0  0  0  0  0  0  0  0  0
  190.0150  177.4520  143.1910 C   0  0  0  0  0  0  0  0  0  0  0  0
  193.1830  175.9340  138.9590 O   0  0  0  0  0  0  0  0  0  0  0  0
  191.6850  176.6970  137.2040 C   0  0  0  0  0  2  0  0  0  0  0  0
  188.0580  177.6900  144.0840 C   0  0  0  0  0  0  0  0  0  0  0  0
  189.3270  178.2590  137.0510 C   0  0  0  0  0  3  0  0  0  0  0  0
  190.7740  176.6370  138.3560 N   0  0  2  0  0  0  0  0  0  0  0  0
  189.4080  177.0700  137.9920 C   0  0  1  0  0  3  0  0  0  0  0  0
  188.9990  177.1480  140.5630 C   0  0  0  0  0  0  0  0  0  0  0  0
  188.9950  177.8770  145.0420 N   0  0  0  0  0  0  0  0  0  0  0  0
  193.1190  176.3210  137.6090 C   0  0  2  0  0  3  0  0  0  0  0  0
  190.1990  177.7350  144.4940 N   0  0  0  0  0  2  0  0  0  0  0  0
  187.2950  177.8630  138.9540 C   0  0  0  0  0  3  0  0  0  0  0  0
  188.4880  177.2850  139.1820 C   0  0  0  0  0  0  0  0  0  0  0  0
  188.1900  177.3480  141.5730 N   0  0  0  0  0  0  0  0  0  0  0  0
  192.8070  177.0650  139.7000 C   0  0  0  0  0  2  0  0  0  0  0  0
  192.2330  177.4500  142.3900 O   0  0  0  0  0  0  0  0  0  0  0  0
  186.5940  177.8490  144.2910 C   0  0  0  0  0  1  0  0  0  0  0  0
  190.4970  176.8590  140.7670 C   0  0  1  0  0  3  0  0  0  0  0  0
  188.6960  177.4030  142.9060 C   0  0  0  0  0  0  0  0  0  0  0  0
  194.6690  175.5990  135.6820 C   0  0  2  0  0  3  0  0  0  0  0  0
  193.6220  175.1840  136.7230 C   0  0  1  0  0  3  0  0  0  0  0  0
  195.0950  174.9440  136.9830 C   0  0  1  0  0  3  0  0  0  0  0  0
  194.9860  177.0180  135.7290 N   0  0  0  0  0  2  0  0  0  0  0  0
  196.3280  177.2760  134.6130 S   0  0  0  0  0  1  0  0  0  0  0  0
  195.4170  173.4810  136.7270 C   0  0  0  0  0  2  0  0  0  0  0  0
  195.3950  172.6410  137.9730 C   0  0  0  0  0  0  0  0  0  0  0  0
  195.3260  171.1470  137.9300 C   0  0  0  0  0  1  0  0  0  0  0  0
  195.4350  173.1970  139.0580 O   0  0  0  0  0  0  0  0  0  0  0  0
  1 19  1  1  0  0  0
  1 22  1  0  0  0  0
  2  9  2  0  0  0  0
  2  3  1  0  0  0  0
  3 16  1  0  0  0  0
  4 20  2  0  0  0  0
  4  5  1  0  0  0  0
  5 15  1  0  0  0  0
  6 19  1  0  0  0  0
  8 21  1  0  0  0  0
  8 13  2  0  0  0  0
 10  7  1  6  0  0  0
 10  1  1  0  0  0  0
 11  9  1  1  0  0  0
 11 10  1  0  0  0  0
 11 17  1  0  0  0  0
 12 18  2  0  0  0  0
 14  7  1  6  0  0  0
 14  6  1  0  0  0  0
 15 13  1  0  0  0  0
 16 17  2  0  0  0  0
 17 12  1  0  0  0  0
 18 23  1  0  0  0  0
 22 12  1  6  0  0  0
 22  4  1  0  0  0  0
 23  5  2  0  0  0  0
 23  8  1  0  0  0  0
 24 27  1  1  0  0  0
 24 25  1  0  0  0  0
 24 26  1  0  0  0  0
 25 26  1  0  0  0  0
 25 14  1  1  0  0  0
 26 29  1  6  0  0  0
 28 27  1  0  0  0  0
 29 30  1  0  0  0  0
 30 32  2  0  0  0  0
 31 30  1  0  0  0  0
M  END
>  <MODEL>
6

>  <REMARK>
 VINA RESULT:      -7.5      5.896     10.514
  Name = 
  4 active torsions:
  status: ('A' for Active; 'I' for Inactive)
    1  A    between atoms: C_1  and  N_16
    2  A    between atoms: C_10  and  C_17
    3  A    between atoms: C_20  and  C_29
    4  A    between atoms: C_29  and  C_30
                            x       y       z     vdW  Elec       q    Type
                         _______ _______ _______ _____ _____    ______ ____

>  <TORSDO>
F 4

$$$$
=
 OpenBabel11122410363D

 32 37  0  0  1  0  0  0  0  0999 V2000
  189.6620  177.6800  141.7100 C   0  0  2  0  0  3  0  0  0  0  0  0
  185.5780  179.3810  141.6720 C   0  0  0  0  0  3  0  0  0  0  0  0
  184.9850  178.6230  142.8400 C   0  0  0  0  0  2  0  0  0  0  0  0
  190.9380  177.1800  143.9300 C   0  0  0  0  0  0  0  0  0  0  0  0
  190.7560  177.0740  145.3710 C   0  0  0  0  0  0  0  0  0  0  0  0
  190.7820  176.5190  139.9000 O   0  0  0  0  0  0  0  0  0  0  0  0
  188.5790  177.4710  139.5130 C   0  0  0  0  0  2  0  0  0  0  0  0
  189.7020  177.0250  147.2610 C   0  0  0  0  0  0  0  0  0  0  0  0
  186.6540  178.8770  141.0420 C   0  0  0  0  0  3  0  0  0  0  0  0
  188.5110  177.1540  140.9480 N   0  0  2  0  0  0  0  0  0  0  0  0
  187.2120  177.5520  141.5300 C   0  0  1  0  0  3  0  0  0  0  0  0
  188.3840  177.1610  143.8220 C   0  0  0  0  0  0  0  0  0  0  0  0
  191.0300  177.1060  147.5100 N   0  0  0  0  0  0  0  0  0  0  0  0
  189.9610  177.1280  138.9330 C   0  0  2  0  0  3  0  0  0  0  0  0
  191.6790  177.1410  146.3490 N   0  0  0  0  0  2  0  0  0  0  0  0
  186.0980  178.0270  143.6630 C   0  0  0  0  0  3  0  0  0  0  0  0
  187.1710  177.4990  143.0490 C   0  0  0  0  0  0  0  0  0  0  0  0
  188.3280  177.1300  145.1310 N   0  0  0  0  0  0  0  0  0  0  0  0
  190.9640  177.4790  140.9070 C   0  0  0  0  0  2  0  0  0  0  0  0
  192.0860  177.3560  143.4440 O   0  0  0  0  0  0  0  0  0  0  0  0
  188.6440  177.0500  148.3050 C   0  0  0  0  0  1  0  0  0  0  0  0
  189.7040  176.9400  143.0610 C   0  0  1  0  0  3  0  0  0  0  0  0
  189.5180  176.9880  145.9040 C   0  0  0  0  0  0  0  0  0  0  0  0
  191.0670  175.9980  136.9000 C   0  0  2  0  0  3  0  0  0  0  0  0
  189.7970  176.1960  137.7360 C   0  0  1  0  0  3  0  0  0  0  0  0
  190.6530  174.9610  137.9260 C   0  0  1  0  0  3  0  0  0  0  0  0
  192.2040  176.7520  137.4070 N   0  0  0  0  0  2  0  0  0  0  0  0
  193.5330  175.6070  137.5930 S   0  0  0  0  0  1  0  0  0  0  0  0
  190.0020  173.7850  137.2170 C   0  0  0  0  0  2  0  0  0  0  0  0
  188.7110  174.1430  136.5350 C   0  0  0  0  0  0  0  0  0  0  0  0
  188.5670  174.1500  135.0460 C   0  0  0  0  0  1  0  0  0  0  0  0
  187.7470  174.4390  137.2200 O   0  0  0  0  0  0  0  0  0  0  0  0
  1 19  1  6  0  0  0
  1 22  1  0  0  0  0
  2  3  1  0  0  0  0
  3 16  1  0  0  0  0
  4  5  1  0  0  0  0
  5 23  2  0  0  0  0
  5 15  1  0  0  0  0
  6 19  1  0  0  0  0
  8 13  2  0  0  0  0
  8 21  1  0  0  0  0
  9  2  2  0  0  0  0
 10  7  1  6  0  0  0
 10 11  1  0  0  0  0
 10  1  1  0  0  0  0
 11  9  1  1  0  0  0
 11 17  1  0  0  0  0
 12 18  2  0  0  0  0
 14  7  1  1  0  0  0
 14  6  1  0  0  0  0
 15 13  1  0  0  0  0
 17 16  2  0  0  0  0
 17 12  1  0  0  0  0
 18 23  1  0  0  0  0
 20  4  2  0  0  0  0
 22 12  1  1  0  0  0
 22  4  1  0  0  0  0
 23  8  1  0  0  0  0
 24 27  1  1  0  0  0
 24 25  1  0  0  0  0
 24 26  1  0  0  0  0
 25 26  1  0  0  0  0
 25 14  1  1  0  0  0
 26 29  1  6  0  0  0
 27 28  1  0  0  0  0
 30 29  1  0  0  0  0
 30 32  2  0  0  0  0
 31 30  1  0  0  0  0
M  END
>  <MODEL>
7

>  <REMARK>
 VINA RESULT:      -7.3      4.737      7.609
  Name = 
  4 active torsions:
  status: ('A' for Active; 'I' for Inactive)
    1  A    between atoms: C_1  and  N_16
    2  A    between atoms: C_10  and  C_17
    3  A    between atoms: C_20  and  C_29
    4  A    between atoms: C_29  and  C_30
                            x       y       z     vdW  Elec       q    Type
                         _______ _______ _______ _____ _____    ______ ____

>  <TORSDO>
F 4

$$$$
=
 OpenBabel11122410363D

 32 37  0  0  1  0  0  0  0  0999 V2000
  188.4780  177.0360  141.9160 C   0  0  2  0  0  3  0  0  0  0  0  0
  184.1800  178.0450  142.2030 C   0  0  0  0  0  3  0  0  0  0  0  0
  184.0980  179.0860  141.1080 C   0  0  0  0  0  2  0  0  0  0  0  0
  189.7110  176.8510  139.6240 C   0  0  0  0  0  0  0  0  0  0  0  0
  189.5660  177.1430  138.2050 C   0  0  0  0  0  0  0  0  0  0  0  0
  190.1400  177.1940  143.6740 O   0  0  0  0  0  0  0  0  0  0  0  0
  187.8160  177.6840  144.1930 C   0  0  0  0  0  2  0  0  0  0  0  0
  188.6650  177.9310  136.4020 C   0  0  0  0  0  0  0  0  0  0  0  0
  185.3700  177.7790  142.7680 C   0  0  0  0  0  3  0  0  0  0  0  0
  187.8870  178.0810  142.7790 N   0  0  2  0  0  0  0  0  0  0  0  0
  186.5800  178.5590  142.2820 C   0  0  1  0  0  3  0  0  0  0  0  0
  187.6630  178.3510  139.9230 C   0  0  0  0  0  0  0  0  0  0  0  0
  189.6800  177.1070  136.0520 N   0  0  0  0  0  0  0  0  0  0  0  0
  189.1590  177.1140  144.6790 C   0  0  2  0  0  3  0  0  0  0  0  0
  190.2320  176.6180  137.1590 N   0  0  0  0  0  0  0  0  0  0  0  0
  185.3130  178.9750  140.2230 C   0  0  0  0  0  3  0  0  0  0  0  0
  186.5150  178.7320  140.7730 C   0  0  0  0  0  0  0  0  0  0  0  0
  187.5810  178.5000  138.6240 N   0  0  0  0  0  0  0  0  0  0  0  0
  189.6810  176.3820  142.6260 C   0  0  0  0  0  2  0  0  0  0  0  0
  190.5550  176.0030  140.0170 O   0  0  0  0  0  0  0  0  0  0  0  0
  187.7520  178.6020  135.4390 C   0  0  0  0  0  1  0  0  0  0  0  0
  188.8910  177.7040  140.5900 C   0  0  1  0  0  3  0  0  0  0  0  0
  188.5940  177.9740  137.7690 C   0  0  1  0  0  3  0  0  0  0  0  0
  188.5940  177.9490  147.0490 C   0  0  2  0  0  3  0  0  0  0  0  0
  189.6230  177.8790  145.9150 C   0  0  1  0  0  3  0  0  0  0  0  0
  189.7220  176.9350  147.0960 C   0  0  1  0  0  3  0  0  0  0  0  0
  187.3470  177.2710  146.7280 N   0  0  0  0  0  2  0  0  0  0  0  0
  186.0500  178.4340  147.0030 S   0  0  0  0  0  1  0  0  0  0  0  0
  190.8020  177.4300  148.0440 C   0  0  0  0  0  2  0  0  0  0  0  0
  192.0560  176.6010  148.0000 C   0  0  0  0  0  0  0  0  0  0  0  0
  192.3040  175.5790  146.9360 C   0  0  0  0  0  1  0  0  0  0  0  0
  192.9010  176.7690  148.8630 O   0  0  0  0  0  0  0  0  0  0  0  0
  1 19  1  1  0  0  0
  1 10  1  0  0  0  0
  2  9  2  0  0  0  0
  3  2  1  0  0  0  0
  4 20  2  0  0  0  0
  5  4  1  0  0  0  0
  6 14  1  0  0  0  0
 10  7  1  1  0  0  0
 11  9  1  6  0  0  0
 11 10  1  0  0  0  0
 12 22  1  0  0  0  0
 12 17  1  0  0  0  0
 13  8  2  0  0  0  0
 13 15  1  0  0  0  0
 14  7  1  6  0  0  0
 15  5  2  0  0  0  0
 16 17  2  0  0  0  0
 16  3  1  0  0  0  0
 17 11  1  0  0  0  0
 18 12  2  0  0  0  0
 19  6  1  0  0  0  0
 21  8  1  0  0  0  0
 22  4  1  6  0  0  0
 22  1  1  0  0  0  0
 23  8  1  6  0  0  0
 23  5  1  0  0  0  0
 23 18  1  0  0  0  0
 24 27  1  6  0  0  0
 24 26  1  0  0  0  0
 25 14  1  6  0  0  0
 25 24  1  0  0  0  0
 25 26  1  0  0  0  0
 26 29  1  1  0  0  0
 27 28  1  0  0  0  0
 30 29  1  0  0  0  0
 30 32  2  0  0  0  0
 31 30  1  0  0  0  0
M  END
>  <MODEL>
8

>  <REMARK>
 VINA RESULT:      -7.3      4.129      7.650
  Name = 
  4 active torsions:
  status: ('A' for Active; 'I' for Inactive)
    1  A    between atoms: C_1  and  N_16
    2  A    between atoms: C_10  and  C_17
    3  A    between atoms: C_20  and  C_29
    4  A    between atoms: C_29  and  C_30
                            x       y       z     vdW  Elec       q    Type
                         _______ _______ _______ _____ _____    ______ ____

>  <TORSDO>
F 4

$$$$
=
 OpenBabel11122410363D

 32 37  0  0  1  0  0  0  0  0999 V2000
  189.2450  176.3900  138.4470 C   0  0  2  0  0  3  0  0  0  0  0  0
  189.6580  176.8280  142.8290 C   0  0  0  0  0  3  0  0  0  0  0  0
  188.8400  178.0850  143.0300 C   0  0  0  0  0  2  0  0  0  0  0  0
  187.0060  176.8920  137.2060 C   0  0  0  0  0  0  0  0  0  0  0  0
  185.6930  177.4980  137.3850 C   0  0  0  0  0  0  0  0  0  0  0  0
  191.0310  176.3040  136.8090 O   0  0  0  0  0  0  0  0  0  0  0  0
  191.5940  176.4000  139.1710 C   0  0  0  0  0  2  0  0  0  0  0  0
  184.1070  178.5900  138.3720 C   0  0  0  0  0  0  0  0  0  0  0  0
  190.1720  176.5670  141.6150 C   0  0  0  0  0  3  0  0  0  0  0  0
  190.3160  177.1280  139.1480 N   0  0  2  0  0  0  0  0  0  0  0  0
  189.9160  177.5660  140.5020 C   0  0  1  0  0  3  0  0  0  0  0  0
  187.6020  178.0460  139.4070 C   0  0  0  0  0  0  0  0  0  0  0  0
  183.5970  177.9890  137.2730 N   0  0  0  0  0  0  0  0  0  0  0  0
  191.9630  175.8800  137.7730 C   0  0  2  0  0  3  0  0  0  0  0  0
  184.5700  177.3130  136.6670 N   0  0  0  0  0  0  0  0  0  0  0  0
  187.9840  178.3210  141.8110 C   0  0  0  0  0  3  0  0  0  0  0  0
  188.4900  178.0860  140.5880 C   0  0  0  0  0  0  0  0  0  0  0  0
  186.3740  178.4910  139.5080 N   0  0  0  0  0  0  0  0  0  0  0  0
  189.8090  175.7210  137.1770 C   0  0  0  0  0  2  0  0  0  0  0  0
  187.2060  176.0720  136.2720 O   0  0  0  0  0  0  0  0  0  0  0  0
  183.3090  179.3690  139.3570 C   0  0  0  0  0  1  0  0  0  0  0  0
  188.1260  177.3970  138.1140 C   0  0  1  0  0  3  0  0  0  0  0  0
  185.4430  178.2970  138.4440 C   0  0  1  0  0  3  0  0  0  0  0  0
  194.4480  175.2980  137.4230 C   0  0  2  0  0  3  0  0  0  0  0  0
  193.3560  176.3750  137.3930 C   0  0  1  0  0  3  0  0  0  0  0  0
  193.8060  175.7060  136.1110 C   0  0  1  0  0  3  0  0  0  0  0  0
  193.9460  173.9910  137.8210 N   0  0  0  0  0  2  0  0  0  0  0  0
  195.3530  173.0100  138.2320 S   0  0  0  0  0  1  0  0  0  0  0  0
  194.7450  176.6380  135.3620 C   0  0  0  0  0  2  0  0  0  0  0  0
  196.1540  176.1210  135.2780 C   0  0  0  0  0  0  0  0  0  0  0  0
  196.4950  174.8340  134.5960 C   0  0  0  0  0  1  0  0  0  0  0  0
  197.0510  176.7750  135.7840 O   0  0  0  0  0  0  0  0  0  0  0  0
  1 19  1  6  0  0  0
  1 10  1  0  0  0  0
  2  3  1  0  0  0  0
  4  5  1  0  0  0  0
  6 19  1  0  0  0  0
  6 14  1  0  0  0  0
  8 23  1  0  0  0  0
  8 21  1  0  0  0  0
  9  2  2  0  0  0  0
 10  7  1  1  0  0  0
 10 11  1  0  0  0  0
 11 17  1  0  0  0  0
 11  9  1  1  0  0  0
 12 18  2  0  0  0  0
 12 17  1  0  0  0  0
 13  8  2  0  0  0  0
 14  7  1  1  0  0  0
 15 13  1  0  0  0  0
 15  5  2  0  0  0  0
 16  3  1  0  0  0  0
 17 16  2  0  0  0  0
 20  4  2  0  0  0  0
 22  4  1  1  0  0  0
 22  1  1  0  0  0  0
 22 12  1  0  0  0  0
 23  5  1  1  0  0  0
 23 18  1  0  0  0  0
 24 27  1  1  0  0  0
 25 24  1  0  0  0  0
 25 14  1  1  0  0  0
 26 29  1  6  0  0  0
 26 25  1  0  0  0  0
 26 24  1  0  0  0  0
 27 28  1  0  0  0  0
 30 29  1  0  0  0  0
 30 32  2  0  0  0  0
 31 30  1  0  0  0  0
M  END
>  <MODEL>
9

>  <REMARK>
 VINA RESULT:      -7.0      5.852     10.281
  Name = 
  4 active torsions:
  status: ('A' for Active; 'I' for Inactive)
    1  A    between atoms: C_1  and  N_16
    2  A    between atoms: C_10  and  C_17
    3  A    between atoms: C_20  and  C_29
    4  A    between atoms: C_29  and  C_30
                            x       y       z     vdW  Elec       q    Type
                         _______ _______ _______ _____ _____    ______ ____

>  <TORSDO>
F 4

$$$$
