=
 OpenBabel11122411053D

 31 35  0  0  1  0  0  0  0  0999 V2000
  193.4190  175.0650  135.7010 C   0  0  0  0  0  0  0  0  0  0  0  0
  190.1260  176.7290  136.6420 C   0  0  2  0  0  3  0  0  0  0  0  0
  189.0490  175.6580  136.6830 C   0  0  0  0  0  0  0  0  0  0  0  0
  191.1640  176.7070  141.8680 O   0  0  0  0  0  0  0  0  0  0  0  0
  190.2070  177.4930  141.6380 C   0  0  0  0  0  0  0  0  0  0  0  0
  188.2140  173.4700  136.0260 C   0  0  0  0  0  0  0  0  0  0  0  0
  191.5120  176.1450  136.7340 C   0  0  0  0  0  0  0  0  0  0  0  0
  194.0180  174.9200  136.9560 C   0  0  0  0  0  3  0  0  0  0  0  0
  189.2170  174.4420  136.0020 C   0  0  0  0  0  3  0  0  0  0  0  0
  190.4360  177.3140  139.0950 C   0  0  0  0  0  0  0  0  0  0  0  0
  194.0490  174.6070  134.5940 F   0  0  0  0  0  0  0  0  0  0  0  0
  187.6110  177.1240  137.9990 O   0  0  0  0  0  0  0  0  0  0  0  0
  188.4120  172.1820  135.3120 C   0  0  0  0  0  1  0  0  0  0  0  0
  191.4760  176.5320  139.1610 N   0  0  0  0  0  0  0  0  0  0  0  0
  189.9310  177.7940  137.7470 C   0  0  2  0  0  3  0  0  0  0  0  0
  189.8350  177.8250  140.2930 N   0  0  0  0  0  2  0  0  0  0  0  0
  192.1640  175.6710  135.5900 C   0  0  0  0  0  3  0  0  0  0  0  0
  187.0270  173.7070  136.7230 C   0  0  0  0  0  3  0  0  0  0  0  0
  192.1230  176.0120  137.9930 C   0  0  0  0  0  0  0  0  0  0  0  0
  193.3710  175.3930  138.1030 C   0  0  0  0  0  3  0  0  0  0  0  0
  188.4700  178.2420  137.7970 C   0  0  0  0  0  2  0  0  0  0  0  0
  187.8310  175.9050  137.3520 C   0  0  0  0  0  0  0  0  0  0  0  0
  186.8350  174.9230  137.3830 C   0  0  0  0  0  3  0  0  0  0  0  0
  190.5430  177.4170  145.4140 N   0  0  0  0  0  0  0  0  0  0  0  0
  190.2890  179.0480  143.5980 C   0  0  0  0  0  2  0  0  0  0  0  0
  188.1840  175.9970  142.9790 O   0  0  0  0  0  1  0  0  0  0  0  0
  191.5400  176.7550  146.2350 C   0  0  0  0  0  1  0  0  0  0  0  0
  191.2700  178.3050  144.5070 C   0  0  0  0  0  2  0  0  0  0  0  0
  188.8280  176.9910  143.7180 C   0  0  2  0  0  3  0  0  0  0  0  0
  189.4370  178.0610  142.7950 C   0  0  2  0  0  3  0  0  0  0  0  0
  189.8940  176.3730  144.6230 C   0  0  0  0  0  2  0  0  0  0  0  0
  1  8  1  0  0  0  0
  2  3  1  1  0  0  0
  2  7  1  0  0  0  0
  2 15  1  0  0  0  0
  3 22  1  0  0  0  0
  5  4  2  0  0  0  0
  6 18  2  0  0  0  0
  7 19  2  0  0  0  0
  8 20  2  0  0  0  0
  9  6  1  0  0  0  0
  9  3  2  0  0  0  0
 10 14  2  0  0  0  0
 10 16  1  0  0  0  0
 11  1  1  0  0  0  0
 13  6  1  0  0  0  0
 15 21  1  1  0  0  0
 15 10  1  0  0  0  0
 16  5  1  0  0  0  0
 17  1  2  0  0  0  0
 17  7  1  0  0  0  0
 18 23  1  0  0  0  0
 19 20  1  0  0  0  0
 19 14  1  0  0  0  0
 21 12  1  0  0  0  0
 22 23  2  0  0  0  0
 22 12  1  0  0  0  0
 24 27  1  0  0  0  0
 25 28  1  0  0  0  0
 28 24  1  0  0  0  0
 29 26  1  6  0  0  0
 29 31  1  0  0  0  0
 30  5  1  6  0  0  0
 30 25  1  0  0  0  0
 30 29  1  0  0  0  0
 31 24  1  0  0  0  0
M  END
>  <MODEL>
1

>  <REMARK>
 VINA RESULT:      -7.6      0.000      0.000
  Name = 
  1 active torsions:
  status: ('A' for Active; 'I' for Inactive)
    1  A    between atoms: C_5  and  C_30
                            x       y       z     vdW  Elec       q    Type
                         _______ _______ _______ _____ _____    ______ ____

>  <TORSDO>
F 1

$$$$
=
 OpenBabel11122411053D

 31 35  0  0  1  0  0  0  0  0999 V2000
  179.8030  178.5930  141.8650 C   0  0  0  0  0  0  0  0  0  0  0  0
  183.2620  179.1780  140.3870 C   0  0  2  0  0  3  0  0  0  0  0  0
  184.2950  178.8350  141.4480 C   0  0  0  0  0  0  0  0  0  0  0  0
  183.4130  174.4750  137.8870 O   0  0  0  0  0  0  0  0  0  0  0  0
  184.3140  175.2220  137.4210 C   0  0  0  0  0  0  0  0  0  0  0  0
  184.9090  178.5190  143.7800 C   0  0  0  0  0  0  0  0  0  0  0  0
  181.9180  178.5660  140.6840 C   0  0  0  0  0  0  0  0  0  0  0  0
  179.4950  177.3320  141.3440 C   0  0  0  0  0  3  0  0  0  0  0  0
  183.9500  178.8150  142.8080 C   0  0  0  0  0  3  0  0  0  0  0  0
  183.5210  177.2850  138.7120 C   0  0  0  0  0  0  0  0  0  0  0  0
  178.9310  179.2130  142.6950 F   0  0  0  0  0  0  0  0  0  0  0  0
  186.0250  178.6610  139.7380 O   0  0  0  0  0  0  0  0  0  0  0  0
  184.5250  178.4870  145.2160 C   0  0  0  0  0  1  0  0  0  0  0  0
  182.5030  176.6660  139.2390 N   0  0  0  0  0  0  0  0  0  0  0  0
  183.7250  178.7660  138.9690 C   0  0  2  0  0  3  0  0  0  0  0  0
  184.3850  176.6060  137.7910 N   0  0  0  0  0  2  0  0  0  0  0  0
  181.0160  179.2070  141.5410 C   0  0  0  0  0  3  0  0  0  0  0  0
  186.2260  178.2500  143.4040 C   0  0  0  0  0  3  0  0  0  0  0  0
  181.6000  177.3060  140.1490 C   0  0  0  0  0  0  0  0  0  0  0  0
  180.3920  176.6880  140.4850 C   0  0  0  0  0  3  0  0  0  0  0  0
  185.1710  179.2060  138.7370 C   0  0  0  0  0  2  0  0  0  0  0  0
  185.6370  178.6000  141.0790 C   0  0  0  0  0  0  0  0  0  0  0  0
  186.5900  178.2930  142.0550 C   0  0  0  0  0  3  0  0  0  0  0  0
  187.4970  176.4570  135.7720 N   0  0  0  0  0  0  0  0  0  0  0  0
  186.7170  174.5800  137.1480 C   0  0  0  0  0  2  0  0  0  0  0  0
  184.1360  175.5480  134.5940 O   0  0  0  0  0  1  0  0  0  0  0  0
  188.1300  177.7600  135.8570 C   0  0  0  0  0  1  0  0  0  0  0  0
  187.3800  175.9600  137.1430 C   0  0  0  0  0  2  0  0  0  0  0  0
  185.4110  175.3470  135.1270 C   0  0  2  0  0  3  0  0  0  0  0  0
  185.3360  174.6370  136.4900 C   0  0  2  0  0  3  0  0  0  0  0  0
  186.1540  176.6780  135.2400 C   0  0  0  0  0  2  0  0  0  0  0  0
  1 11  1  0  0  0  0
  2  7  1  1  0  0  0
  2  3  1  0  0  0  0
  3  9  1  0  0  0  0
  5 16  1  0  0  0  0
  5  4  2  0  0  0  0
  6 13  1  0  0  0  0
  7 17  2  0  0  0  0
  8  1  2  0  0  0  0
  9  6  2  0  0  0  0
 10 15  1  0  0  0  0
 10 14  2  0  0  0  0
 12 22  1  0  0  0  0
 14 19  1  0  0  0  0
 15 21  1  1  0  0  0
 15  2  1  0  0  0  0
 16 10  1  0  0  0  0
 17  1  1  0  0  0  0
 18  6  1  0  0  0  0
 19 20  2  0  0  0  0
 19  7  1  0  0  0  0
 20  8  1  0  0  0  0
 21 12  1  0  0  0  0
 22  3  2  0  0  0  0
 22 23  1  0  0  0  0
 23 18  2  0  0  0  0
 24 27  1  0  0  0  0
 24 28  1  0  0  0  0
 28 25  1  0  0  0  0
 29 26  1  1  0  0  0
 29 31  1  0  0  0  0
 29 30  1  0  0  0  0
 30 25  1  0  0  0  0
 30  5  1  1  0  0  0
 31 24  1  0  0  0  0
M  END
>  <MODEL>
2

>  <REMARK>
 VINA RESULT:      -7.5      6.005      9.903
  Name = 
  1 active torsions:
  status: ('A' for Active; 'I' for Inactive)
    1  A    between atoms: C_5  and  C_30
                            x       y       z     vdW  Elec       q    Type
                         _______ _______ _______ _____ _____    ______ ____

>  <TORSDO>
F 1

$$$$
=
 OpenBabel11122411053D

 31 35  0  0  1  0  0  0  0  0999 V2000
  181.6940  178.7650  143.2970 C   0  0  0  0  0  0  0  0  0  0  0  0
  181.5580  177.9330  139.5850 C   0  0  2  0  0  3  0  0  0  0  0  0
  181.1170  179.1800  138.8350 C   0  0  0  0  0  0  0  0  0  0  0  0
  186.7880  178.6290  138.8420 O   0  0  0  0  0  0  0  0  0  0  0  0
  186.3070  178.0100  137.8560 C   0  0  0  0  0  0  0  0  0  0  0  0
  180.0100  181.3450  138.7970 C   0  0  0  0  0  0  0  0  0  0  0  0
  182.0800  178.2530  140.9610 C   0  0  0  0  0  0  0  0  0  0  0  0
  183.0610  179.0030  143.4720 C   0  0  0  0  0  3  0  0  0  0  0  0
  180.4310  180.2110  139.4960 C   0  0  0  0  0  3  0  0  0  0  0  0
  184.0050  177.7170  138.9340 C   0  0  0  0  0  0  0  0  0  0  0  0
  180.8440  178.9060  144.3420 F   0  0  0  0  0  0  0  0  0  0  0  0
  181.9670  178.2520  136.7460 O   0  0  0  0  0  0  0  0  0  0  0  0
  179.2980  182.4360  139.5120 C   0  0  0  0  0  1  0  0  0  0  0  0
  184.3620  178.2890  140.0480 N   0  0  0  0  0  0  0  0  0  0  0  0
  182.6150  177.1230  138.7970 C   0  0  2  0  0  3  0  0  0  0  0  0
  184.9540  177.5350  137.8740 N   0  0  0  0  0  2  0  0  0  0  0  0
  181.2030  178.3970  142.0420 C   0  0  0  0  0  3  0  0  0  0  0  0
  180.2600  181.4560  137.4270 C   0  0  0  0  0  3  0  0  0  0  0  0
  183.4560  178.4760  141.1420 C   0  0  0  0  0  0  0  0  0  0  0  0
  183.9430  178.8570  142.3960 C   0  0  0  0  0  3  0  0  0  0  0  0
  182.1850  176.9740  137.3370 C   0  0  0  0  0  2  0  0  0  0  0  0
  181.3320  179.2820  137.4440 C   0  0  0  0  0  0  0  0  0  0  0  0
  180.9180  180.4250  136.7520 C   0  0  0  0  0  3  0  0  0  0  0  0
  189.5860  176.2510  137.1260 N   0  0  0  0  0  0  0  0  0  0  0  0
  187.2780  176.3120  136.2940 C   0  0  0  0  0  2  0  0  0  0  0  0
  188.4730  179.7530  137.2190 O   0  0  0  0  0  1  0  0  0  0  0  0
  190.4640  175.5320  138.0300 C   0  0  0  0  0  1  0  0  0  0  0  0
  188.2740  175.6120  137.2220 C   0  0  0  0  0  2  0  0  0  0  0  0
  188.5580  178.4420  136.7470 C   0  0  2  0  0  3  0  0  0  0  0  0
  187.1640  177.7990  136.6410 C   0  0  2  0  0  3  0  0  0  0  0  0
  189.4790  177.6150  137.6430 C   0  0  0  0  0  2  0  0  0  0  0  0
  1  8  1  0  0  0  0
  1 11  1  0  0  0  0
  2  3  1  6  0  0  0
  2  7  1  0  0  0  0
  3  9  1  0  0  0  0
  5 16  1  0  0  0  0
  5  4  2  0  0  0  0
  6  9  2  0  0  0  0
  6 13  1  0  0  0  0
  7 19  2  0  0  0  0
  7 17  1  0  0  0  0
 10 14  2  0  0  0  0
 12 21  1  0  0  0  0
 12 22  1  0  0  0  0
 14 19  1  0  0  0  0
 15 21  1  6  0  0  0
 15 10  1  0  0  0  0
 15  2  1  0  0  0  0
 16 10  1  0  0  0  0
 17  1  2  0  0  0  0
 18  6  1  0  0  0  0
 19 20  1  0  0  0  0
 20  8  2  0  0  0  0
 22  3  2  0  0  0  0
 23 18  2  0  0  0  0
 23 22  1  0  0  0  0
 24 28  1  0  0  0  0
 24 31  1  0  0  0  0
 24 27  1  0  0  0  0
 25 30  1  0  0  0  0
 25 28  1  0  0  0  0
 29 26  1  1  0  0  0
 29 31  1  0  0  0  0
 30 29  1  0  0  0  0
 30  5  1  1  0  0  0
M  END
>  <MODEL>
3

>  <REMARK>
 VINA RESULT:      -7.3      6.463      9.524
  Name = 
  1 active torsions:
  status: ('A' for Active; 'I' for Inactive)
    1  A    between atoms: C_5  and  C_30
                            x       y       z     vdW  Elec       q    Type
                         _______ _______ _______ _____ _____    ______ ____

>  <TORSDO>
F 1

$$$$
=
 OpenBabel11122411053D

 31 35  0  0  1  0  0  0  0  0999 V2000
  186.0990  177.9540  138.0420 C   0  0  0  0  0  0  0  0  0  0  0  0
  189.6320  177.9340  139.4600 C   0  0  2  0  0  3  0  0  0  0  0  0
  189.5790  177.3340  140.8560 C   0  0  0  0  0  0  0  0  0  0  0  0
  191.0260  173.4420  136.9550 O   0  0  0  0  0  0  0  0  0  0  0  0
  192.0620  174.0240  137.3730 C   0  0  0  0  0  0  0  0  0  0  0  0
  188.3390  176.7720  142.8720 C   0  0  0  0  0  0  0  0  0  0  0  0
  188.4150  177.5810  138.6450 C   0  0  0  0  0  0  0  0  0  0  0  0
  186.1220  176.8090  137.2380 C   0  0  0  0  0  3  0  0  0  0  0  0
  188.3770  177.3050  141.5810 C   0  0  0  0  0  3  0  0  0  0  0  0
  190.8030  176.1250  138.1130 C   0  0  0  0  0  0  0  0  0  0  0  0
  184.9640  178.6840  138.1460 F   0  0  0  0  0  0  0  0  0  0  0  0
  191.9820  176.9230  140.7950 O   0  0  0  0  0  0  0  0  0  0  0  0
  187.0570  176.7340  143.6220 C   0  0  0  0  0  1  0  0  0  0  0  0
  189.6540  175.6880  137.6810 N   0  0  0  0  0  0  0  0  0  0  0  0
  190.9130  177.5210  138.6980 C   0  0  2  0  0  3  0  0  0  0  0  0
  191.9910  175.3440  137.9290 N   0  0  0  0  0  2  0  0  0  0  0  0
  187.2420  178.3360  138.7490 C   0  0  0  0  0  3  0  0  0  0  0  0
  189.5050  176.2730  143.4570 C   0  0  0  0  0  3  0  0  0  0  0  0
  188.4420  176.4400  137.8230 C   0  0  0  0  0  0  0  0  0  0  0  0
  187.2930  176.0530  137.1280 C   0  0  0  0  0  3  0  0  0  0  0  0
  192.1380  177.6810  139.5990 C   0  0  0  0  0  2  0  0  0  0  0  0
  190.7600  176.8630  141.4690 C   0  0  0  0  0  0  0  0  0  0  0  0
  190.7130  176.3200  142.7570 C   0  0  0  0  0  3  0  0  0  0  0  0
  195.3400  174.5340  135.5360 N   0  0  0  0  0  0  0  0  0  0  0  0
  194.5190  174.1840  137.8220 C   0  0  0  0  0  2  0  0  0  0  0  0
  192.6130  172.0760  135.3640 O   0  0  0  0  0  1  0  0  0  0  0  0
  195.7140  175.5730  134.5940 C   0  0  0  0  0  1  0  0  0  0  0  0
  194.9330  175.2120  136.7660 C   0  0  0  0  0  2  0  0  0  0  0  0
  193.7090  172.7450  135.9110 C   0  0  2  0  0  3  0  0  0  0  0  0
  193.3780  173.3030  137.3070 C   0  0  2  0  0  3  0  0  0  0  0  0
  194.1740  173.8560  134.9700 C   0  0  0  0  0  2  0  0  0  0  0  0
  1 11  1  0  0  0  0
  1 17  1  0  0  0  0
  2  7  1  6  0  0  0
  2  3  1  0  0  0  0
  3 22  2  0  0  0  0
  3  9  1  0  0  0  0
  4  5  2  0  0  0  0
  5 16  1  0  0  0  0
  6 18  1  0  0  0  0
  6 13  1  0  0  0  0
  7 17  2  0  0  0  0
  8  1  2  0  0  0  0
  9  6  2  0  0  0  0
 10 15  1  0  0  0  0
 12 22  1  0  0  0  0
 14 19  1  0  0  0  0
 14 10  2  0  0  0  0
 15  2  1  0  0  0  0
 15 21  1  1  0  0  0
 16 10  1  0  0  0  0
 19  7  1  0  0  0  0
 20  8  1  0  0  0  0
 20 19  2  0  0  0  0
 21 12  1  0  0  0  0
 22 23  1  0  0  0  0
 23 18  2  0  0  0  0
 24 28  1  0  0  0  0
 27 24  1  0  0  0  0
 28 25  1  0  0  0  0
 29 26  1  6  0  0  0
 29 30  1  0  0  0  0
 30  5  1  6  0  0  0
 30 25  1  0  0  0  0
 31 24  1  0  0  0  0
 31 29  1  0  0  0  0
M  END
>  <MODEL>
4

>  <REMARK>
 VINA RESULT:      -6.8      3.310      7.332
  Name = 
  1 active torsions:
  status: ('A' for Active; 'I' for Inactive)
    1  A    between atoms: C_5  and  C_30
                            x       y       z     vdW  Elec       q    Type
                         _______ _______ _______ _____ _____    ______ ____

>  <TORSDO>
F 1

$$$$
=
 OpenBabel11122411053D

 31 35  0  0  1  0  0  0  0  0999 V2000
  192.0500  176.6270  138.3850 C   0  0  0  0  0  0  0  0  0  0  0  0
  188.6960  177.1970  136.6750 C   0  0  2  0  0  3  0  0  0  0  0  0
  188.0510  175.8420  136.4330 C   0  0  0  0  0  0  0  0  0  0  0  0
  186.1230  178.2540  141.2200 O   0  0  0  0  0  0  0  0  0  0  0  0
  185.4190  178.6320  140.2470 C   0  0  0  0  0  0  0  0  0  0  0  0
  188.2310  173.4320  136.1590 C   0  0  0  0  0  0  0  0  0  0  0  0
  189.7740  177.1330  137.7260 C   0  0  0  0  0  0  0  0  0  0  0  0
  191.7170  176.8680  139.7220 C   0  0  0  0  0  3  0  0  0  0  0  0
  188.8260  174.6720  136.4040 C   0  0  0  0  0  3  0  0  0  0  0  0
  187.2520  178.1880  138.5170 C   0  0  0  0  0  0  0  0  0  0  0  0
  193.3100  176.2580  138.0570 F   0  0  0  0  0  0  0  0  0  0  0  0
  185.8770  176.9060  136.1320 O   0  0  0  0  0  0  0  0  0  0  0  0
  189.0610  172.2000  136.1470 C   0  0  0  0  0  1  0  0  0  0  0  0
  188.1230  177.8190  139.4130 N   0  0  0  0  0  0  0  0  0  0  0  0
  187.6550  178.2770  137.0570 C   0  0  2  0  0  3  0  0  0  0  0  0
  185.9450  178.6280  138.9130 N   0  0  0  0  0  2  0  0  0  0  0  0
  191.0770  176.7530  137.3890 C   0  0  0  0  0  3  0  0  0  0  0  0
  186.8560  173.3490  135.9290 C   0  0  0  0  0  3  0  0  0  0  0  0
  189.4460  177.3900  139.0690 C   0  0  0  0  0  0  0  0  0  0  0  0
  190.4160  177.2500  140.0640 C   0  0  0  0  0  3  0  0  0  0  0  0
  186.4540  178.2080  136.1140 C   0  0  0  0  0  2  0  0  0  0  0  0
  186.6690  175.7550  136.1610 C   0  0  0  0  0  0  0  0  0  0  0  0
  186.0770  174.5100  135.9280 C   0  0  0  0  0  3  0  0  0  0  0  0
  182.0220  177.7240  138.8280 N   0  0  0  0  0  0  0  0  0  0  0  0
  183.1490  177.8950  141.0010 C   0  0  0  0  0  2  0  0  0  0  0  0
  184.1810  180.6970  138.7190 O   0  0  0  0  0  1  0  0  0  0  0  0
  181.6870  176.7810  137.7770 C   0  0  0  0  0  1  0  0  0  0  0  0
  182.7530  176.9720  139.8460 C   0  0  0  0  0  2  0  0  0  0  0  0
  183.3380  179.7390  139.2850 C   0  0  2  0  0  3  0  0  0  0  0  0
  184.0020  179.0620  140.4970 C   0  0  2  0  0  3  0  0  0  0  0  0
  182.9270  178.7070  138.2350 C   0  0  0  0  0  2  0  0  0  0  0  0
  1  8  1  0  0  0  0
  2  3  1  1  0  0  0
  2 15  1  0  0  0  0
  2  7  1  0  0  0  0
  5  4  2  0  0  0  0
  6  9  2  0  0  0  0
  7 19  2  0  0  0  0
  8 20  2  0  0  0  0
  9  3  1  0  0  0  0
 10 16  1  0  0  0  0
 10 14  2  0  0  0  0
 11  1  1  0  0  0  0
 12 22  1  0  0  0  0
 13  6  1  0  0  0  0
 15 21  1  6  0  0  0
 15 10  1  0  0  0  0
 16  5  1  0  0  0  0
 17  7  1  0  0  0  0
 17  1  2  0  0  0  0
 18  6  1  0  0  0  0
 19 14  1  0  0  0  0
 19 20  1  0  0  0  0
 21 12  1  0  0  0  0
 22  3  2  0  0  0  0
 23 18  2  0  0  0  0
 23 22  1  0  0  0  0
 24 28  1  0  0  0  0
 27 24  1  0  0  0  0
 28 25  1  0  0  0  0
 29 26  1  6  0  0  0
 29 30  1  0  0  0  0
 30  5  1  6  0  0  0
 30 25  1  0  0  0  0
 31 24  1  0  0  0  0
 31 29  1  0  0  0  0
M  END
>  <MODEL>
5

>  <REMARK>
 VINA RESULT:      -6.6      3.441      5.362
  Name = 
  1 active torsions:
  status: ('A' for Active; 'I' for Inactive)
    1  A    between atoms: C_5  and  C_30
                            x       y       z     vdW  Elec       q    Type
                         _______ _______ _______ _____ _____    ______ ____

>  <TORSDO>
F 1

$$$$
=
 OpenBabel11122411053D

 31 35  0  0  1  0  0  0  0  0999 V2000
  190.1780  177.1280  137.3150 C   0  0  0  0  0  0  0  0  0  0  0  0
  186.5300  176.6630  136.3270 C   0  0  2  0  0  3  0  0  0  0  0  0
  186.1040  175.2620  136.7340 C   0  0  0  0  0  0  0  0  0  0  0  0
  184.6420  179.1230  140.6600 O   0  0  0  0  0  0  0  0  0  0  0  0
  183.7230  179.0270  139.8030 C   0  0  0  0  0  0  0  0  0  0  0  0
  186.6570  172.9620  137.2990 C   0  0  0  0  0  0  0  0  0  0  0  0
  187.7690  177.1140  137.0570 C   0  0  0  0  0  0  0  0  0  0  0  0
  190.0460  177.8290  138.5180 C   0  0  0  0  0  3  0  0  0  0  0  0
  187.0560  174.2540  136.9460 C   0  0  0  0  0  3  0  0  0  0  0  0
  185.2760  178.1370  137.9740 C   0  0  0  0  0  0  0  0  0  0  0  0
  191.4070  176.7880  136.8610 F   0  0  0  0  0  0  0  0  0  0  0  0
  183.7570  175.9080  136.5790 O   0  0  0  0  0  0  0  0  0  0  0  0
  187.6770  171.9080  137.5350 C   0  0  0  0  0  1  0  0  0  0  0  0
  186.3410  178.2280  138.7190 N   0  0  0  0  0  0  0  0  0  0  0  0
  185.3970  177.6980  136.5270 C   0  0  2  0  0  3  0  0  0  0  0  0
  184.0020  178.5640  138.4750 N   0  0  0  0  0  2  0  0  0  0  0  0
  189.0400  176.7650  136.5880 C   0  0  0  0  0  3  0  0  0  0  0  0
  185.3000  172.6620  137.4320 C   0  0  0  0  0  3  0  0  0  0  0  0
  187.6390  177.8330  138.2580 C   0  0  0  0  0  0  0  0  0  0  0  0
  188.7770  178.1830  138.9890 C   0  0  0  0  0  3  0  0  0  0  0  0
  184.0810  177.1540  135.9700 C   0  0  0  0  0  2  0  0  0  0  0  0
  184.7330  174.9410  136.8330 C   0  0  0  0  0  0  0  0  0  0  0  0
  184.3390  173.6500  137.1980 C   0  0  0  0  0  3  0  0  0  0  0  0
  180.2540  178.1190  138.5710 N   0  0  0  0  0  0  0  0  0  0  0  0
  181.5450  178.1380  140.6580 C   0  0  0  0  0  2  0  0  0  0  0  0
  182.3020  181.1710  138.5730 O   0  0  0  0  0  1  0  0  0  0  0  0
  179.8660  177.2630  137.4660 C   0  0  0  0  0  1  0  0  0  0  0  0
  181.0880  177.3080  139.4560 C   0  0  0  0  0  2  0  0  0  0  0  0
  181.5380  180.1340  139.1110 C   0  0  2  0  0  3  0  0  0  0  0  0
  182.3180  179.3780  140.2000 C   0  0  2  0  0  3  0  0  0  0  0  0
  181.0780  179.1860  138.0040 C   0  0  0  0  0  2  0  0  0  0  0  0
  1  8  1  0  0  0  0
  2 15  1  0  0  0  0
  2  3  1  1  0  0  0
  2  7  1  0  0  0  0
  3 22  2  0  0  0  0
  3  9  1  0  0  0  0
  5  4  2  0  0  0  0
  6 18  1  0  0  0  0
  6 13  1  0  0  0  0
  7 19  2  0  0  0  0
  8 20  2  0  0  0  0
  9  6  2  0  0  0  0
 10 16  1  0  0  0  0
 10 14  2  0  0  0  0
 11  1  1  0  0  0  0
 12 22  1  0  0  0  0
 15 21  1  1  0  0  0
 15 10  1  0  0  0  0
 16  5  1  0  0  0  0
 17  7  1  0  0  0  0
 17  1  2  0  0  0  0
 19 14  1  0  0  0  0
 19 20  1  0  0  0  0
 21 12  1  0  0  0  0
 22 23  1  0  0  0  0
 23 18  2  0  0  0  0
 24 28  1  0  0  0  0
 27 24  1  0  0  0  0
 28 25  1  0  0  0  0
 29 26  1  6  0  0  0
 29 30  1  0  0  0  0
 30  5  1  6  0  0  0
 30 25  1  0  0  0  0
 31 24  1  0  0  0  0
 31 29  1  0  0  0  0
M  END
>  <MODEL>
6

>  <REMARK>
 VINA RESULT:      -6.4      4.540      6.710
  Name = 
  1 active torsions:
  status: ('A' for Active; 'I' for Inactive)
    1  A    between atoms: C_5  and  C_30
                            x       y       z     vdW  Elec       q    Type
                         _______ _______ _______ _____ _____    ______ ____

>  <TORSDO>
F 1

$$$$
=
 OpenBabel11122411053D

 31 35  0  0  1  0  0  0  0  0999 V2000
  191.2420  177.3620  140.8560 C   0  0  0  0  0  0  0  0  0  0  0  0
  189.2720  178.0380  137.6690 C   0  0  2  0  0  3  0  0  0  0  0  0
  189.0570  176.7130  136.9550 C   0  0  0  0  0  0  0  0  0  0  0  0
  184.5540  178.1310  140.1460 O   0  0  0  0  0  0  0  0  0  0  0  0
  184.4310  178.6350  138.9980 C   0  0  0  0  0  0  0  0  0  0  0  0
  189.6970  174.4030  136.5440 C   0  0  0  0  0  0  0  0  0  0  0  0
  189.6210  177.8490  139.1220 C   0  0  0  0  0  0  0  0  0  0  0  0
  190.2180  177.3450  141.8090 C   0  0  0  0  0  3  0  0  0  0  0  0
  189.8860  175.6120  137.2190 C   0  0  0  0  0  3  0  0  0  0  0  0
  186.9450  178.6060  138.5180 C   0  0  0  0  0  0  0  0  0  0  0  0
  192.5210  177.1280  141.2330 F   0  0  0  0  0  0  0  0  0  0  0  0
  187.2510  177.6900  135.6390 O   0  0  0  0  0  0  0  0  0  0  0  0
  190.5720  173.2410  136.8430 C   0  0  0  0  0  1  0  0  0  0  0  0
  187.2470  178.1340  139.6940 N   0  0  0  0  0  0  0  0  0  0  0  0
  188.0460  178.9730  137.5410 C   0  0  2  0  0  3  0  0  0  0  0  0
  185.5810  178.8960  138.1820 N   0  0  0  0  0  2  0  0  0  0  0  0
  190.9430  177.6080  139.5130 C   0  0  0  0  0  3  0  0  0  0  0  0
  188.6840  174.2860  135.5890 C   0  0  0  0  0  3  0  0  0  0  0  0
  188.5960  177.8470  140.0840 C   0  0  0  0  0  0  0  0  0  0  0  0
  188.8960  177.5880  141.4250 C   0  0  0  0  0  3  0  0  0  0  0  0
  187.5560  179.0060  136.0940 C   0  0  0  0  0  2  0  0  0  0  0  0
  188.0610  176.5990  135.9620 C   0  0  0  0  0  0  0  0  0  0  0  0
  187.8690  175.3830  135.2980 C   0  0  0  0  0  3  0  0  0  0  0  0
  181.0190  177.0040  139.2700 N   0  0  0  0  0  0  0  0  0  0  0  0
  182.0730  179.1920  139.6250 C   0  0  0  0  0  2  0  0  0  0  0  0
  183.4590  177.5030  136.5680 O   0  0  0  0  0  1  0  0  0  0  0  0
  180.6340  175.7870  139.9610 C   0  0  0  0  0  1  0  0  0  0  0  0
  181.6340  177.8760  140.2710 C   0  0  0  0  0  2  0  0  0  0  0  0
  182.5060  177.8610  137.5230 C   0  0  2  0  0  3  0  0  0  0  0  0
  183.0540  178.9350  138.4790 C   0  0  2  0  0  3  0  0  0  0  0  0
  182.0380  176.6260  138.2920 C   0  0  0  0  0  2  0  0  0  0  0  0
  1 11  1  0  0  0  0
  1  8  1  0  0  0  0
  2  3  1  1  0  0  0
  2  7  1  0  0  0  0
  3  9  1  0  0  0  0
  5  4  2  0  0  0  0
  6 13  1  0  0  0  0
  6  9  2  0  0  0  0
  7 17  1  0  0  0  0
  7 19  2  0  0  0  0
 10 14  2  0  0  0  0
 12 22  1  0  0  0  0
 12 21  1  0  0  0  0
 14 19  1  0  0  0  0
 15 21  1  6  0  0  0
 15  2  1  0  0  0  0
 15 10  1  0  0  0  0
 16 10  1  0  0  0  0
 16  5  1  0  0  0  0
 17  1  2  0  0  0  0
 18  6  1  0  0  0  0
 19 20  1  0  0  0  0
 20  8  2  0  0  0  0
 22  3  2  0  0  0  0
 23 18  2  0  0  0  0
 23 22  1  0  0  0  0
 24 27  1  0  0  0  0
 24 28  1  0  0  0  0
 25 28  1  0  0  0  0
 29 26  1  6  0  0  0
 29 31  1  0  0  0  0
 29 30  1  0  0  0  0
 30  5  1  1  0  0  0
 30 25  1  0  0  0  0
 31 24  1  0  0  0  0
M  END
>  <MODEL>
7

>  <REMARK>
 VINA RESULT:      -6.2      3.902      6.240
  Name = 
  1 active torsions:
  status: ('A' for Active; 'I' for Inactive)
    1  A    between atoms: C_5  and  C_30
                            x       y       z     vdW  Elec       q    Type
                         _______ _______ _______ _____ _____    ______ ____

>  <TORSDO>
F 1

$$$$
=
 OpenBabel11122411053D

 31 35  0  0  1  0  0  0  0  0999 V2000
  181.4550  178.4830  141.2270 C   0  0  0  0  0  0  0  0  0  0  0  0
  184.8570  178.9830  139.5920 C   0  0  2  0  0  3  0  0  0  0  0  0
  185.9250  178.5280  140.5730 C   0  0  0  0  0  0  0  0  0  0  0  0
  184.6300  174.4290  136.8340 O   0  0  0  0  0  0  0  0  0  0  0  0
  185.5420  175.1570  136.3600 C   0  0  0  0  0  0  0  0  0  0  0  0
  186.6440  178.0490  142.8470 C   0  0  0  0  0  0  0  0  0  0  0  0
  183.5000  178.4210  139.9300 C   0  0  0  0  0  0  0  0  0  0  0  0
  181.0550  177.2710  140.6550 C   0  0  0  0  0  3  0  0  0  0  0  0
  185.6520  178.4470  141.9470 C   0  0  0  0  0  3  0  0  0  0  0  0
  184.9270  177.1790  137.8040 C   0  0  0  0  0  0  0  0  0  0  0  0
  180.6620  179.0960  142.1370 F   0  0  0  0  0  0  0  0  0  0  0  0
  187.5510  178.3690  138.7620 O   0  0  0  0  0  0  0  0  0  0  0  0
  186.3360  177.9540  144.2970 C   0  0  0  0  0  1  0  0  0  0  0  0
  183.9080  176.5810  138.3520 N   0  0  0  0  0  0  0  0  0  0  0  0
  185.2210  178.6310  138.1300 C   0  0  2  0  0  3  0  0  0  0  0  0
  185.7050  176.5130  136.8000 N   0  0  0  0  0  2  0  0  0  0  0  0
  182.6790  179.0540  140.8690 C   0  0  0  0  0  3  0  0  0  0  0  0
  187.9240  177.7390  142.3830 C   0  0  0  0  0  3  0  0  0  0  0  0
  183.0890  177.2110  139.3450 C   0  0  0  0  0  0  0  0  0  0  0  0
  181.8700  176.6350  139.7140 C   0  0  0  0  0  3  0  0  0  0  0  0
  186.6740  179.0120  137.8420 C   0  0  0  0  0  2  0  0  0  0  0  0
  187.2320  178.2500  140.1170 C   0  0  0  0  0  0  0  0  0  0  0  0
  188.2180  177.8410  141.0210 C   0  0  0  0  0  3  0  0  0  0  0  0
  189.2470  174.3570  136.2400 N   0  0  0  0  0  0  0  0  0  0  0  0
  187.0890  173.2610  135.8350 C   0  0  0  0  0  2  0  0  0  0  0  0
  187.0570  176.8080  134.5950 O   0  0  0  0  0  1  0  0  0  0  0  0
  190.2630  174.5560  137.2560 C   0  0  0  0  0  1  0  0  0  0  0  0
  188.2090  173.5220  136.8440 C   0  0  0  0  0  2  0  0  0  0  0  0
  187.5860  175.5510  134.8930 C   0  0  2  0  0  3  0  0  0  0  0  0
  186.4820  174.5770  135.3420 C   0  0  2  0  0  3  0  0  0  0  0  0
  188.6780  175.6740  135.9550 C   0  0  0  0  0  2  0  0  0  0  0  0
  1 11  1  0  0  0  0
  2  7  1  1  0  0  0
  2  3  1  0  0  0  0
  3  9  1  0  0  0  0
  5 16  1  0  0  0  0
  5  4  2  0  0  0  0
  6 13  1  0  0  0  0
  7 17  2  0  0  0  0
  8  1  2  0  0  0  0
  9  6  2  0  0  0  0
 10 15  1  0  0  0  0
 10 14  2  0  0  0  0
 12 22  1  0  0  0  0
 14 19  1  0  0  0  0
 15 21  1  1  0  0  0
 15  2  1  0  0  0  0
 16 10  1  0  0  0  0
 17  1  1  0  0  0  0
 18  6  1  0  0  0  0
 19 20  2  0  0  0  0
 19  7  1  0  0  0  0
 20  8  1  0  0  0  0
 21 12  1  0  0  0  0
 22  3  2  0  0  0  0
 22 23  1  0  0  0  0
 23 18  2  0  0  0  0
 24 28  1  0  0  0  0
 24 27  1  0  0  0  0
 25 28  1  0  0  0  0
 29 26  1  1  0  0  0
 29 30  1  0  0  0  0
 29 31  1  0  0  0  0
 30 25  1  0  0  0  0
 30  5  1  1  0  0  0
 31 24  1  0  0  0  0
M  END
>  <MODEL>
8

>  <REMARK>
 VINA RESULT:      -6.0      4.841      8.863
  Name = 
  1 active torsions:
  status: ('A' for Active; 'I' for Inactive)
    1  A    between atoms: C_5  and  C_30
                            x       y       z     vdW  Elec       q    Type
                         _______ _______ _______ _____ _____    ______ ____

>  <TORSDO>
F 1

$$$$
=
 OpenBabel11122411053D

 31 35  0  0  1  0  0  0  0  0999 V2000
  181.0220  178.7430  141.3000 C   0  0  0  0  0  0  0  0  0  0  0  0
  184.4420  178.9620  139.6410 C   0  0  2  0  0  3  0  0  0  0  0  0
  185.4960  178.6120  140.6790 C   0  0  0  0  0  0  0  0  0  0  0  0
  184.1290  174.1050  137.4720 O   0  0  0  0  0  0  0  0  0  0  0  0
  185.0590  174.7480  136.9180 C   0  0  0  0  0  0  0  0  0  0  0  0
  186.1930  178.4060  143.0000 C   0  0  0  0  0  0  0  0  0  0  0  0
  183.0720  178.4760  140.0360 C   0  0  0  0  0  0  0  0  0  0  0  0
  180.5980  177.4780  140.8810 C   0  0  0  0  0  3  0  0  0  0  0  0
  185.2140  178.7090  142.0500 C   0  0  0  0  0  3  0  0  0  0  0  0
  184.4820  176.9470  138.0930 C   0  0  0  0  0  0  0  0  0  0  0  0
  180.2390  179.4820  142.1200 F   0  0  0  0  0  0  0  0  0  0  0  0
  187.1260  178.1920  138.9150 O   0  0  0  0  0  0  0  0  0  0  0  0
  185.8760  178.4990  144.4490 C   0  0  0  0  0  1  0  0  0  0  0  0
  183.4470  176.4440  138.7040 N   0  0  0  0  0  0  0  0  0  0  0  0
  184.8060  178.4220  138.2370 C   0  0  2  0  0  3  0  0  0  0  0  0
  185.2500  176.1440  137.1860 N   0  0  0  0  0  2  0  0  0  0  0  0
  182.2600  179.2390  140.8830 C   0  0  0  0  0  3  0  0  0  0  0  0
  187.4680  178.0130  142.5880 C   0  0  0  0  0  3  0  0  0  0  0  0
  182.6370  177.2110  139.6040 C   0  0  0  0  0  0  0  0  0  0  0  0
  181.4040  176.7110  140.0330 C   0  0  0  0  0  3  0  0  0  0  0  0
  186.2680  178.7330  137.9150 C   0  0  0  0  0  2  0  0  0  0  0  0
  186.7980  178.2510  140.2710 C   0  0  0  0  0  0  0  0  0  0  0  0
  187.7700  177.9380  141.2260 C   0  0  0  0  0  3  0  0  0  0  0  0
  185.0000  171.4500  135.0480 N   0  0  0  0  0  0  0  0  0  0  0  0
  185.3600  173.8380  134.6060 C   0  0  0  0  0  2  0  0  0  0  0  0
  186.9290  172.8140  137.8630 O   0  0  0  0  0  1  0  0  0  0  0  0
  183.9790  170.4190  135.0350 C   0  0  0  0  0  1  0  0  0  0  0  0
  184.3490  172.6890  134.6210 C   0  0  0  0  0  2  0  0  0  0  0  0
  186.5000  172.6830  136.5410 C   0  0  2  0  0  3  0  0  0  0  0  0
  185.9910  174.0250  135.9880 C   0  0  2  0  0  3  0  0  0  0  0  0
  185.4240  171.6020  136.4390 C   0  0  0  0  0  2  0  0  0  0  0  0
  1 11  1  0  0  0  0
  2  7  1  1  0  0  0
  2  3  1  0  0  0  0
  3  9  1  0  0  0  0
  5 16  1  0  0  0  0
  5  4  2  0  0  0  0
  6 13  1  0  0  0  0
  7 17  2  0  0  0  0
  8  1  2  0  0  0  0
  9  6  2  0  0  0  0
 10 15  1  0  0  0  0
 10 14  2  0  0  0  0
 12 22  1  0  0  0  0
 14 19  1  0  0  0  0
 15 21  1  1  0  0  0
 15  2  1  0  0  0  0
 16 10  1  0  0  0  0
 17  1  1  0  0  0  0
 18  6  1  0  0  0  0
 19 20  2  0  0  0  0
 19  7  1  0  0  0  0
 20  8  1  0  0  0  0
 21 12  1  0  0  0  0
 22  3  2  0  0  0  0
 22 23  1  0  0  0  0
 23 18  2  0  0  0  0
 24 31  1  0  0  0  0
 25 28  1  0  0  0  0
 25 30  1  0  0  0  0
 27 24  1  0  0  0  0
 28 24  1  0  0  0  0
 29 26  1  1  0  0  0
 30 29  1  0  0  0  0
 30  5  1  1  0  0  0
 31 29  1  0  0  0  0
M  END
>  <MODEL>
9

>  <REMARK>
 VINA RESULT:      -5.8      5.546      9.671
  Name = 
  1 active torsions:
  status: ('A' for Active; 'I' for Inactive)
    1  A    between atoms: C_5  and  C_30
                            x       y       z     vdW  Elec       q    Type
                         _______ _______ _______ _____ _____    ______ ____

>  <TORSDO>
F 1

$$$$
