=
 OpenBabel11122410533D

 32 36  0  0  1  0  0  0  0  0999 V2000
  190.5460  176.8320  139.1500 C   0  0  1  0  0  3  0  0  0  0  0  0
  186.6790  178.0620  136.3860 C   0  0  0  0  0  3  0  0  0  0  0  0
  185.9000  178.1580  137.5400 C   0  0  0  0  0  3  0  0  0  0  0  0
  190.5360  177.1860  141.6900 C   0  0  2  0  0  3  0  0  0  0  0  0
  189.9480  178.0470  142.8180 C   0  0  2  0  0  3  0  0  0  0  0  0
  192.2140  175.6560  138.1920 C   0  0  2  0  0  3  0  0  0  0  0  0
  190.7540  176.9910  136.6790 O   0  0  0  0  0  0  0  0  0  0  0  0
  187.8210  177.5560  143.6700 C   0  0  0  0  0  0  0  0  0  0  0  0
  188.0530  177.8390  136.4860 C   0  0  0  0  0  3  0  0  0  0  0  0
  190.1480  177.5300  137.8510 C   0  0  1  0  0  3  0  0  0  0  0  0
  188.6580  177.7000  137.7430 C   0  0  0  0  0  0  0  0  0  0  0  0
  188.4900  177.6240  140.2910 C   0  0  2  0  0  3  0  0  0  0  0  0
  188.7160  176.9740  144.6870 C   0  0  0  0  0  3  0  0  0  0  0  0
  191.3470  175.7170  136.9000 C   0  0  2  0  0  3  0  0  0  0  0  0
  190.1140  177.3290  144.1680 C   0  0  0  0  0  3  0  0  0  0  0  0
  186.4960  178.0430  138.7980 C   0  0  0  0  0  3  0  0  0  0  0  0
  187.8800  177.8460  138.9170 C   0  0  0  0  0  0  0  0  0  0  0  0
  187.9340  178.5710  141.3480 C   0  0  0  0  0  2  0  0  0  0  0  0
  191.9350  176.6830  139.1240 O   0  0  0  0  0  0  0  0  0  0  0  0
  191.9300  177.2580  141.7530 O   0  0  0  0  0  1  0  0  0  0  0  0
  186.5660  177.4640  143.7070 O   0  0  0  0  0  0  0  0  0  0  0  0
  190.0340  177.6730  140.3170 C   0  0  2  0  0  3  0  0  0  0  0  0
  188.5170  178.2110  142.6330 N   0  0  0  0  0  0  0  0  0  0  0  0
  189.5570  174.6310  135.5360 C   0  0  0  0  0  1  0  0  0  0  0  0
  190.2880  174.6090  136.8660 C   0  0  1  0  0  3  0  0  0  0  0  0
  190.8820  173.3560  137.0460 O   0  0  0  0  0  0  0  0  0  0  0  0
  191.2150  172.9260  135.7580 C   0  0  0  0  0  2  0  0  0  0  0  0
  192.6650  172.5910  135.6940 C   0  0  0  0  0  0  0  0  0  0  0  0
  193.0780  171.4890  136.1420 O   0  0  0  0  0  1  0  0  0  0  0  0
  193.5570  173.4800  135.1110 O   0  0  0  0  0  0  0  0  0  0  0  0
  193.9300  176.7890  136.9880 O   0  0  0  0  0  1  0  0  0  0  0  0
  193.6830  175.6950  137.8150 C   0  0  0  0  0  2  0  0  0  0  0  0
  1 19  1  1  0  0  0
  1 22  1  0  0  0  0
  2  9  2  0  0  0  0
  2  3  1  0  0  0  0
  3 16  2  0  0  0  0
  4 20  1  6  0  0  0
  4  5  1  0  0  0  0
  5 15  1  1  0  0  0
  6 32  1  6  0  0  0
  6 19  1  0  0  0  0
  7 14  1  0  0  0  0
  8 21  2  0  0  0  0
  8 13  1  0  0  0  0
  9 11  1  0  0  0  0
 10  7  1  6  0  0  0
 10  1  1  0  0  0  0
 11 10  1  0  0  0  0
 11 17  2  0  0  0  0
 12 22  1  0  0  0  0
 12 18  1  1  0  0  0
 14 25  1  1  0  0  0
 14  6  1  0  0  0  0
 15 13  2  0  0  0  0
 16 17  1  0  0  0  0
 17 12  1  0  0  0  0
 18 23  1  0  0  0  0
 22  4  1  0  0  0  0
 23  5  1  0  0  0  0
 23  8  1  0  0  0  0
 24 25  1  0  0  0  0
 25 26  1  0  0  0  0
 27 26  1  0  0  0  0
 28 27  1  0  0  0  0
 28 29  1  0  0  0  0
 30 28  2  0  0  0  0
 31 32  1  0  0  0  0
M  END
>  <MODEL>
1

>  <REMARK>
 VINA RESULT:      -7.0      0.000      0.000
  Name = 
  5 active torsions:
  status: ('A' for Active; 'I' for Inactive)
    1  A    between atoms: C_7  and  C_19
    2  A    between atoms: C_10  and  C_17
    3  A    between atoms: C_10  and  O_20
    4  A    between atoms: O_20  and  C_29
    5  A    between atoms: C_29  and  C_30
                            x       y       z     vdW  Elec       q    Type
                         _______ _______ _______ _____ _____    ______ ____

>  <TORSDO>
F 5

$$$$
=
 OpenBabel11122410533D

 32 36  0  0  1  0  0  0  0  0999 V2000
  185.6680  178.2720  139.9630 C   0  0  1  0  0  3  0  0  0  0  0  0
  180.9660  179.0330  141.1560 C   0  0  0  0  0  3  0  0  0  0  0  0
  181.2660  178.7230  142.4830 C   0  0  0  0  0  3  0  0  0  0  0  0
  187.4940  178.1340  141.7600 C   0  0  2  0  0  3  0  0  0  0  0  0
  187.8810  178.6030  143.1690 C   0  0  2  0  0  3  0  0  0  0  0  0
  186.1560  177.7290  137.8300 C   0  0  2  0  0  3  0  0  0  0  0  0
  184.0130  178.9330  138.2330 O   0  0  0  0  0  0  0  0  0  0  0  0
  187.0530  177.4670  145.0450 C   0  0  0  0  0  0  0  0  0  0  0  0
  181.9910  179.1310  140.2130 C   0  0  0  0  0  3  0  0  0  0  0  0
  184.4300  179.0840  139.5870 C   0  0  1  0  0  3  0  0  0  0  0  0
  183.3230  178.9090  140.5890 C   0  0  0  0  0  0  0  0  0  0  0  0
  185.0580  178.3220  142.3680 C   0  0  2  0  0  3  0  0  0  0  0  0
  188.4240  176.9370  144.9280 C   0  0  0  0  0  3  0  0  0  0  0  0
  184.6200  177.8210  137.5870 C   0  0  2  0  0  3  0  0  0  0  0  0
  188.9980  177.7060  143.7330 C   0  0  0  0  0  3  0  0  0  0  0  0
  182.5910  178.5210  142.8730 C   0  0  0  0  0  3  0  0  0  0  0  0
  183.6360  178.6430  141.9430 C   0  0  0  0  0  0  0  0  0  0  0  0
  185.4140  178.8930  143.7360 C   0  0  0  0  0  2  0  0  0  0  0  0
  186.6090  178.4670  138.9490 O   0  0  0  0  0  0  0  0  0  0  0  0
  188.4950  178.5240  140.8670 O   0  0  0  0  0  1  0  0  0  0  0  0
  186.2200  177.0720  145.9020 O   0  0  0  0  0  0  0  0  0  0  0  0
  186.1370  178.7340  141.3410 C   0  0  2  0  0  3  0  0  0  0  0  0
  186.7580  178.4510  144.0780 N   0  0  0  0  0  0  0  0  0  0  0  0
  182.5180  176.4940  137.3330 C   0  0  0  0  0  1  0  0  0  0  0  0
  183.9020  176.5180  137.9570 C   0  0  1  0  0  3  0  0  0  0  0  0
  184.6300  175.4110  137.5080 O   0  0  0  0  0  0  0  0  0  0  0  0
  183.7390  174.3370  137.5900 C   0  0  0  0  0  2  0  0  0  0  0  0
  184.4940  173.0540  137.6180 C   0  0  0  0  0  0  0  0  0  0  0  0
  183.9270  171.9800  137.2840 O   0  0  0  0  0  0  0  0  0  0  0  0
  185.8340  173.0450  137.9810 O   0  0  0  0  0  1  0  0  0  0  0  0
  187.6480  179.3230  136.8740 O   0  0  0  0  0  1  0  0  0  0  0  0
  186.8910  178.1880  136.5850 C   0  0  0  0  0  2  0  0  0  0  0  0
  1 19  1  6  0  0  0
  1 22  1  0  0  0  0
  2  3  1  0  0  0  0
  3 16  2  0  0  0  0
  4 20  1  6  0  0  0
  4  5  1  0  0  0  0
  5 15  1  1  0  0  0
  5 23  1  0  0  0  0
  6 32  1  6  0  0  0
  6 19  1  0  0  0  0
  8 21  2  0  0  0  0
  9 11  1  0  0  0  0
  9  2  2  0  0  0  0
 10  7  1  6  0  0  0
 10  1  1  0  0  0  0
 10 11  1  0  0  0  0
 11 17  2  0  0  0  0
 12 18  1  1  0  0  0
 13  8  1  0  0  0  0
 14  6  1  0  0  0  0
 14 25  1  1  0  0  0
 14  7  1  0  0  0  0
 15 13  2  0  0  0  0
 17 12  1  0  0  0  0
 17 16  1  0  0  0  0
 18 23  1  0  0  0  0
 22  4  1  0  0  0  0
 22 12  1  0  0  0  0
 23  8  1  0  0  0  0
 24 25  1  0  0  0  0
 26 27  1  0  0  0  0
 26 25  1  0  0  0  0
 27 28  1  0  0  0  0
 28 30  1  0  0  0  0
 29 28  2  0  0  0  0
 32 31  1  0  0  0  0
M  END
>  <MODEL>
2

>  <REMARK>
 VINA RESULT:      -6.7      4.325      5.895
  Name = 
  5 active torsions:
  status: ('A' for Active; 'I' for Inactive)
    1  A    between atoms: C_7  and  C_19
    2  A    between atoms: C_10  and  C_17
    3  A    between atoms: C_10  and  O_20
    4  A    between atoms: O_20  and  C_29
    5  A    between atoms: C_29  and  C_30
                            x       y       z     vdW  Elec       q    Type
                         _______ _______ _______ _____ _____    ______ ____

>  <TORSDO>
F 5

$$$$
=
 OpenBabel11122410533D

 32 36  0  0  1  0  0  0  0  0999 V2000
  184.5650  178.3200  139.6490 C   0  0  1  0  0  3  0  0  0  0  0  0
  183.3850  178.7940  144.3920 C   0  0  0  0  0  3  0  0  0  0  0  0
  184.6780  178.4010  144.7400 C   0  0  0  0  0  3  0  0  0  0  0  0
  187.0100  178.1300  138.8960 C   0  0  2  0  0  3  0  0  0  0  0  0
  188.4510  178.5110  139.2630 C   0  0  2  0  0  3  0  0  0  0  0  0
  182.9070  177.9550  138.1660 C   0  0  2  0  0  3  0  0  0  0  0  0
  182.2830  179.0350  140.3220 O   0  0  0  0  0  0  0  0  0  0  0  0
  189.6470  177.2080  140.8010 C   0  0  0  0  0  0  0  0  0  0  0  0
  183.0550  179.0030  143.0520 C   0  0  0  0  0  3  0  0  0  0  0  0
  183.6760  179.1040  140.6130 C   0  0  1  0  0  3  0  0  0  0  0  0
  184.0140  178.8110  142.0480 C   0  0  0  0  0  0  0  0  0  0  0  0
  186.3810  178.1700  141.3340 C   0  0  2  0  0  3  0  0  0  0  0  0
  190.1800  176.7470  139.5060 C   0  0  0  0  0  3  0  0  0  0  0  0
  181.9610  177.9980  139.4020 C   0  0  2  0  0  3  0  0  0  0  0  0
  189.4430  177.6240  138.4880 C   0  0  0  0  0  3  0  0  0  0  0  0
  185.6470  178.2280  143.7500 C   0  0  0  0  0  3  0  0  0  0  0  0
  185.3400  178.4610  142.4000 C   0  0  0  0  0  0  0  0  0  0  0  0
  187.7750  178.6550  141.7150 C   0  0  0  0  0  2  0  0  0  0  0  0
  184.1370  178.6280  138.3550 O   0  0  0  0  0  0  0  0  0  0  0  0
  186.7260  178.6250  137.6210 O   0  0  0  0  0  1  0  0  0  0  0  0
  189.9810  176.7180  141.9110 O   0  0  0  0  0  0  0  0  0  0  0  0
  186.0170  178.7000  139.9280 C   0  0  2  0  0  3  0  0  0  0  0  0
  188.7020  178.2460  140.6680 N   0  0  0  0  0  0  0  0  0  0  0  0
  180.4520  176.3580  140.5320 C   0  0  0  0  0  1  0  0  0  0  0  0
  181.8830  176.6430  140.1140 C   0  0  1  0  0  3  0  0  0  0  0  0
  182.3300  175.6190  139.2720 O   0  0  0  0  0  0  0  0  0  0  0  0
  181.1670  174.9990  138.8090 C   0  0  0  0  0  2  0  0  0  0  0  0
  181.3380  174.5980  137.3850 C   0  0  0  0  0  0  0  0  0  0  0  0
  180.8120  175.2830  136.4690 O   0  0  0  0  0  0  0  0  0  0  0  0
  182.1070  173.4870  137.0650 O   0  0  0  0  0  1  0  0  0  0  0  0
  180.8180  178.5870  137.2100 O   0  0  0  0  0  1  0  0  0  0  0  0
  182.1890  178.5330  136.9620 C   0  0  0  0  0  2  0  0  0  0  0  0
  1 19  1  6  0  0  0
  1 22  1  0  0  0  0
  1 10  1  0  0  0  0
  2  3  1  0  0  0  0
  4 20  1  6  0  0  0
  4  5  1  0  0  0  0
  4 22  1  0  0  0  0
  5 15  1  6  0  0  0
  5 23  1  0  0  0  0
  6 32  1  6  0  0  0
  6 19  1  0  0  0  0
  6 14  1  0  0  0  0
  8 21  2  0  0  0  0
  9  2  2  0  0  0  0
 10  7  1  1  0  0  0
 10 11  1  0  0  0  0
 11 17  2  0  0  0  0
 11  9  1  0  0  0  0
 12 18  1  1  0  0  0
 12 17  1  0  0  0  0
 13  8  1  0  0  0  0
 14 25  1  1  0  0  0
 14  7  1  0  0  0  0
 15 13  2  0  0  0  0
 16  3  2  0  0  0  0
 17 16  1  0  0  0  0
 22 12  1  0  0  0  0
 23  8  1  0  0  0  0
 23 18  1  0  0  0  0
 25 24  1  0  0  0  0
 26 25  1  0  0  0  0
 27 26  1  0  0  0  0
 28 27  1  0  0  0  0
 29 28  2  0  0  0  0
 30 28  1  0  0  0  0
 32 31  1  0  0  0  0
M  END
>  <MODEL>
3

>  <REMARK>
 VINA RESULT:      -6.6      4.575      8.030
  Name = 
  5 active torsions:
  status: ('A' for Active; 'I' for Inactive)
    1  A    between atoms: C_7  and  C_19
    2  A    between atoms: C_10  and  C_17
    3  A    between atoms: C_10  and  O_20
    4  A    between atoms: O_20  and  C_29
    5  A    between atoms: C_29  and  C_30
                            x       y       z     vdW  Elec       q    Type
                         _______ _______ _______ _____ _____    ______ ____

>  <TORSDO>
F 5

$$$$
=
 OpenBabel11122410533D

 32 36  0  0  1  0  0  0  0  0999 V2000
  183.5870  178.1340  140.9600 C   0  0  1  0  0  3  0  0  0  0  0  0
  186.7820  178.0420  137.2330 C   0  0  0  0  0  3  0  0  0  0  0  0
  186.0150  177.0530  136.6160 C   0  0  0  0  0  3  0  0  0  0  0  0
  181.2720  177.0490  140.7590 C   0  0  2  0  0  3  0  0  0  0  0  0
  180.1680  176.6630  139.7640 C   0  0  2  0  0  3  0  0  0  0  0  0
  184.3050  178.8720  142.9660 C   0  0  2  0  0  3  0  0  0  0  0  0
  185.5770  179.6210  140.9610 O   0  0  0  0  0  0  0  0  0  0  0  0
  180.3390  174.6670  138.5480 C   0  0  0  0  0  0  0  0  0  0  0  0
  186.3210  178.6610  138.3970 C   0  0  0  0  0  3  0  0  0  0  0  0
  184.5650  179.0020  140.1710 C   0  0  1  0  0  3  0  0  0  0  0  0
  185.0920  178.2860  138.9580 C   0  0  0  0  0  0  0  0  0  0  0  0
  182.9910  176.8350  138.9330 C   0  0  2  0  0  3  0  0  0  0  0  0
  179.3920  174.3100  139.6190 C   0  0  0  0  0  3  0  0  0  0  0  0
  185.6820  179.0610  142.2640 C   0  0  2  0  0  3  0  0  0  0  0  0
  179.2300  175.6200  140.3980 C   0  0  0  0  0  3  0  0  0  0  0  0
  184.7800  176.6870  137.1560 C   0  0  0  0  0  3  0  0  0  0  0  0
  184.2890  177.3180  138.3090 C   0  0  0  0  0  0  0  0  0  0  0  0
  181.9020  176.5570  137.9010 C   0  0  0  0  0  2  0  0  0  0  0  0
  183.2000  178.8720  142.0830 O   0  0  0  0  0  0  0  0  0  0  0  0
  180.7220  177.8820  141.7370 O   0  0  0  0  0  1  0  0  0  0  0  0
  180.7650  173.8520  137.6880 O   0  0  0  0  0  0  0  0  0  0  0  0
  182.4310  177.7620  140.0350 C   0  0  2  0  0  3  0  0  0  0  0  0
  180.7430  176.0180  138.5970 N   0  0  0  0  0  0  0  0  0  0  0  0
  187.9070  178.0450  141.7550 C   0  0  0  0  0  1  0  0  0  0  0  0
  186.4950  177.7620  142.2350 C   0  0  1  0  0  3  0  0  0  0  0  0
  186.5480  177.1870  143.5090 O   0  0  0  0  0  0  0  0  0  0  0  0
  187.8250  177.4890  143.9890 C   0  0  0  0  0  2  0  0  0  0  0  0
  187.7840  177.6570  145.4680 C   0  0  0  0  0  0  0  0  0  0  0  0
  186.8160  178.2520  146.0090 O   0  0  0  0  0  0  0  0  0  0  0  0
  188.7990  177.1280  146.2540 O   0  0  0  0  0  1  0  0  0  0  0  0
  183.7550  179.3780  145.2300 O   0  0  0  0  0  1  0  0  0  0  0  0
  184.1210  179.9540  144.0130 C   0  0  0  0  0  2  0  0  0  0  0  0
  1 19  1  1  0  0  0
  2  9  1  0  0  0  0
  3 16  1  0  0  0  0
  3  2  2  0  0  0  0
  4 20  1  1  0  0  0
  5 15  1  1  0  0  0
  5  4  1  0  0  0  0
  6 32  1  1  0  0  0
  7 14  1  0  0  0  0
  8 23  1  0  0  0  0
  8 13  1  0  0  0  0
  9 11  2  0  0  0  0
 10 11  1  6  0  0  0
 10  1  1  0  0  0  0
 10  7  1  0  0  0  0
 12 18  1  6  0  0  0
 12 22  1  0  0  0  0
 13 15  2  0  0  0  0
 14 25  1  6  0  0  0
 14  6  1  0  0  0  0
 16 17  2  0  0  0  0
 17 12  1  0  0  0  0
 17 11  1  0  0  0  0
 18 23  1  0  0  0  0
 19  6  1  0  0  0  0
 21  8  2  0  0  0  0
 22  4  1  0  0  0  0
 22  1  1  0  0  0  0
 23  5  1  0  0  0  0
 24 25  1  0  0  0  0
 25 26  1  0  0  0  0
 26 27  1  0  0  0  0
 27 28  1  0  0  0  0
 28 29  2  0  0  0  0
 28 30  1  0  0  0  0
 32 31  1  0  0  0  0
M  END
>  <MODEL>
4

>  <REMARK>
 VINA RESULT:      -6.5      5.540      8.866
  Name = 
  5 active torsions:
  status: ('A' for Active; 'I' for Inactive)
    1  A    between atoms: C_7  and  C_19
    2  A    between atoms: C_10  and  C_17
    3  A    between atoms: C_10  and  O_20
    4  A    between atoms: O_20  and  C_29
    5  A    between atoms: C_29  and  C_30
                            x       y       z     vdW  Elec       q    Type
                         _______ _______ _______ _____ _____    ______ ____

>  <TORSDO>
F 5

$$$$
=
 OpenBabel11122410533D

 32 36  0  0  1  0  0  0  0  0999 V2000
  183.4790  178.1720  140.9650 C   0  0  1  0  0  3  0  0  0  0  0  0
  178.9310  179.3020  142.4310 C   0  0  0  0  0  3  0  0  0  0  0  0
  179.3460  179.1980  143.7590 C   0  0  0  0  0  3  0  0  0  0  0  0
  185.4620  178.2530  142.5900 C   0  0  2  0  0  3  0  0  0  0  0  0
  185.9920  178.9260  143.8640 C   0  0  2  0  0  3  0  0  0  0  0  0
  183.7500  177.2740  138.9150 C   0  0  2  0  0  3  0  0  0  0  0  0
  181.6850  178.6120  139.3040 O   0  0  0  0  0  0  0  0  0  0  0  0
  185.3160  178.1410  145.9660 C   0  0  0  0  0  0  0  0  0  0  0  0
  179.8640  179.2060  141.3970 C   0  0  0  0  0  3  0  0  0  0  0  0
  182.2320  178.9620  140.5730 C   0  0  1  0  0  3  0  0  0  0  0  0
  181.2200  178.9950  141.6840 C   0  0  0  0  0  0  0  0  0  0  0  0
  183.1000  178.6330  143.3740 C   0  0  2  0  0  3  0  0  0  0  0  0
  186.6570  177.5460  145.8160 C   0  0  0  0  0  3  0  0  0  0  0  0
  182.2010  177.3860  138.7980 C   0  0  2  0  0  3  0  0  0  0  0  0
  187.1350  178.0890  144.4650 C   0  0  0  0  0  3  0  0  0  0  0  0
  180.6970  179.0090  144.0570 C   0  0  0  0  0  3  0  0  0  0  0  0
  181.6520  178.9380  143.0300 C   0  0  0  0  0  0  0  0  0  0  0  0
  183.5980  179.4020  144.5920 C   0  0  0  0  0  2  0  0  0  0  0  0
  184.3250  178.1640  139.8530 O   0  0  0  0  0  0  0  0  0  0  0  0
  186.3840  178.4540  141.5600 O   0  0  0  0  0  1  0  0  0  0  0  0
  184.5580  177.9230  146.9470 O   0  0  0  0  0  0  0  0  0  0  0  0
  184.0870  178.8310  142.2010 C   0  0  2  0  0  3  0  0  0  0  0  0
  184.9570  178.9680  144.8810 N   0  0  0  0  0  0  0  0  0  0  0  0
  180.0020  176.2490  139.1370 C   0  0  0  0  0  1  0  0  0  0  0  0
  181.4890  176.1900  139.4390 C   0  0  1  0  0  3  0  0  0  0  0  0
  182.0110  174.9880  138.9510 O   0  0  0  0  0  0  0  0  0  0  0  0
  181.2610  174.7070  137.8050 C   0  0  0  0  0  2  0  0  0  0  0  0
  182.0560  173.8600  136.8730 C   0  0  0  0  0  0  0  0  0  0  0  0
  183.3080  173.9840  136.8200 O   0  0  0  0  0  1  0  0  0  0  0  0
  181.4200  172.9100  136.0860 O   0  0  0  0  0  0  0  0  0  0  0  0
  183.4110  177.3320  136.5570 O   0  0  0  0  0  1  0  0  0  0  0  0
  184.3750  177.4970  137.5510 C   0  0  0  0  0  2  0  0  0  0  0  0
  1 19  1  6  0  0  0
  1 22  1  0  0  0  0
  2  3  1  0  0  0  0
  3 16  2  0  0  0  0
  4 20  1  6  0  0  0
  4  5  1  0  0  0  0
  5 15  1  1  0  0  0
  5 23  1  0  0  0  0
  6 32  1  6  0  0  0
  6 19  1  0  0  0  0
  8 21  2  0  0  0  0
  9 11  1  0  0  0  0
  9  2  2  0  0  0  0
 10  7  1  6  0  0  0
 10  1  1  0  0  0  0
 10 11  1  0  0  0  0
 11 17  2  0  0  0  0
 12 18  1  1  0  0  0
 13  8  1  0  0  0  0
 14  6  1  0  0  0  0
 14  7  1  0  0  0  0
 14 25  1  1  0  0  0
 15 13  2  0  0  0  0
 17 12  1  0  0  0  0
 17 16  1  0  0  0  0
 18 23  1  0  0  0  0
 22  4  1  0  0  0  0
 22 12  1  0  0  0  0
 23  8  1  0  0  0  0
 24 25  1  0  0  0  0
 26 25  1  0  0  0  0
 27 26  1  0  0  0  0
 28 27  1  0  0  0  0
 29 28  1  0  0  0  0
 30 28  2  0  0  0  0
 31 32  1  0  0  0  0
M  END
>  <MODEL>
5

>  <REMARK>
 VINA RESULT:      -6.5      6.067      8.120
  Name = 
  5 active torsions:
  status: ('A' for Active; 'I' for Inactive)
    1  A    between atoms: C_7  and  C_19
    2  A    between atoms: C_10  and  C_17
    3  A    between atoms: C_10  and  O_20
    4  A    between atoms: O_20  and  C_29
    5  A    between atoms: C_29  and  C_30
                            x       y       z     vdW  Elec       q    Type
                         _______ _______ _______ _____ _____    ______ ____

>  <TORSDO>
F 5

$$$$
=
 OpenBabel11122410533D

 32 36  0  0  1  0  0  0  0  0999 V2000
  187.4860  177.7980  139.5300 C   0  0  1  0  0  3  0  0  0  0  0  0
  192.2680  176.7420  139.1680 C   0  0  0  0  0  3  0  0  0  0  0  0
  191.9960  175.9540  138.0490 C   0  0  0  0  0  3  0  0  0  0  0  0
  185.8670  177.3270  137.5980 C   0  0  2  0  0  3  0  0  0  0  0  0
  185.7670  177.1920  136.0710 C   0  0  2  0  0  3  0  0  0  0  0  0
  186.6760  178.4130  141.5420 C   0  0  2  0  0  3  0  0  0  0  0  0
  189.1160  178.7300  141.1570 O   0  0  0  0  0  0  0  0  0  0  0  0
  186.3430  175.1680  135.0390 C   0  0  0  0  0  0  0  0  0  0  0  0
  191.2530  177.5050  139.7490 C   0  0  0  0  0  3  0  0  0  0  0  0
  188.8820  178.3550  139.8020 C   0  0  1  0  0  3  0  0  0  0  0  0
  189.9550  177.4780  139.2190 C   0  0  0  0  0  0  0  0  0  0  0  0
  188.2770  176.6070  137.5020 C   0  0  2  0  0  3  0  0  0  0  0  0
  184.8700  175.1090  135.0640 C   0  0  0  0  0  3  0  0  0  0  0  0
  188.1350  178.2170  142.0500 C   0  0  2  0  0  3  0  0  0  0  0  0
  184.4740  176.4490  135.6930 C   0  0  0  0  0  3  0  0  0  0  0  0
  190.7120  175.9360  137.5000 C   0  0  0  0  0  3  0  0  0  0  0  0
  189.6880  176.7190  138.0540 C   0  0  0  0  0  0  0  0  0  0  0  0
  188.2360  176.5720  135.9780 C   0  0  0  0  0  2  0  0  0  0  0  0
  186.5750  178.6560  140.1520 O   0  0  0  0  0  0  0  0  0  0  0  0
  184.9710  178.3130  138.0190 O   0  0  0  0  0  1  0  0  0  0  0  0
  187.0750  174.2360  134.6150 O   0  0  0  0  0  0  0  0  0  0  0  0
  187.3040  177.6920  138.0180 C   0  0  2  0  0  3  0  0  0  0  0  0
  186.8540  176.3730  135.5650 N   0  0  0  0  0  0  0  0  0  0  0  0
  189.9100  176.5790  142.6900 C   0  0  0  0  0  1  0  0  0  0  0  0
  188.4290  176.7550  142.4010 C   0  0  1  0  0  3  0  0  0  0  0  0
  187.6910  176.3600  143.5210 O   0  0  0  0  0  0  0  0  0  0  0  0
  188.3020  177.0030  144.6020 C   0  0  0  0  0  2  0  0  0  0  0  0
  187.2650  177.5000  145.5480 C   0  0  0  0  0  0  0  0  0  0  0  0
  186.0550  177.5290  145.2010 O   0  0  0  0  0  0  0  0  0  0  0  0
  187.6290  177.9020  146.8260 O   0  0  0  0  0  1  0  0  0  0  0  0
  184.7030  179.2220  142.6060 O   0  0  0  0  0  1  0  0  0  0  0  0
  186.0250  179.5500  142.3070 C   0  0  0  0  0  2  0  0  0  0  0  0
  1 10  1  0  0  0  0
  1 19  1  6  0  0  0
  2  9  1  0  0  0  0
  3  2  2  0  0  0  0
  4 22  1  0  0  0  0
  4 20  1  6  0  0  0
  5 15  1  1  0  0  0
  5  4  1  0  0  0  0
  6 14  1  0  0  0  0
  6 32  1  1  0  0  0
  7 14  1  0  0  0  0
  8 13  1  0  0  0  0
  8 23  1  0  0  0  0
 10 11  1  1  0  0  0
 10  7  1  0  0  0  0
 11  9  2  0  0  0  0
 12 18  1  6  0  0  0
 12 22  1  0  0  0  0
 12 17  1  0  0  0  0
 13 15  2  0  0  0  0
 14 25  1  6  0  0  0
 16  3  1  0  0  0  0
 16 17  2  0  0  0  0
 17 11  1  0  0  0  0
 19  6  1  0  0  0  0
 21  8  2  0  0  0  0
 22  1  1  0  0  0  0
 23 18  1  0  0  0  0
 23  5  1  0  0  0  0
 25 24  1  0  0  0  0
 25 26  1  0  0  0  0
 26 27  1  0  0  0  0
 27 28  1  0  0  0  0
 28 30  1  0  0  0  0
 29 28  2  0  0  0  0
 32 31  1  0  0  0  0
M  END
>  <MODEL>
6

>  <REMARK>
 VINA RESULT:      -6.4      3.197      7.822
  Name = 
  5 active torsions:
  status: ('A' for Active; 'I' for Inactive)
    1  A    between atoms: C_7  and  C_19
    2  A    between atoms: C_10  and  C_17
    3  A    between atoms: C_10  and  O_20
    4  A    between atoms: O_20  and  C_29
    5  A    between atoms: C_29  and  C_30
                            x       y       z     vdW  Elec       q    Type
                         _______ _______ _______ _____ _____    ______ ____

>  <TORSDO>
F 5

$$$$
=
 OpenBabel11122410533D

 32 36  0  0  1  0  0  0  0  0999 V2000
  186.4110  178.2530  140.4780 C   0  0  1  0  0  3  0  0  0  0  0  0
  182.7860  179.0970  143.6810 C   0  0  0  0  0  3  0  0  0  0  0  0
  183.6030  178.6280  144.7100 C   0  0  0  0  0  3  0  0  0  0  0  0
  188.8150  177.8310  141.2660 C   0  0  2  0  0  3  0  0  0  0  0  0
  189.8180  178.1220  142.3920 C   0  0  2  0  0  3  0  0  0  0  0  0
  185.8710  177.9280  138.3130 C   0  0  2  0  0  3  0  0  0  0  0  0
  184.2360  179.1790  139.7140 O   0  0  0  0  0  0  0  0  0  0  0  0
  189.7880  176.8250  144.3440 C   0  0  0  0  0  0  0  0  0  0  0  0
  183.3020  179.2500  142.3930 C   0  0  0  0  0  3  0  0  0  0  0  0
  185.2120  179.1590  140.7520 C   0  0  1  0  0  3  0  0  0  0  0  0
  184.6400  178.9260  142.1230 C   0  0  0  0  0  0  0  0  0  0  0  0
  186.9150  178.0640  142.9000 C   0  0  2  0  0  3  0  0  0  0  0  0
  190.9180  176.2490  143.5920 C   0  0  0  0  0  3  0  0  0  0  0  0
  184.3980  178.1170  138.7820 C   0  0  2  0  0  3  0  0  0  0  0  0
  190.9820  177.1180  142.3320 C   0  0  0  0  0  3  0  0  0  0  0  0
  184.9420  178.3220  144.4570 C   0  0  0  0  0  3  0  0  0  0  0  0
  185.4850  178.4970  143.1740 C   0  0  0  0  0  0  0  0  0  0  0  0
  187.8800  178.4640  144.0110 C   0  0  0  0  0  2  0  0  0  0  0  0
  186.8310  178.5150  139.1710 O   0  0  0  0  0  0  0  0  0  0  0  0
  189.3600  178.2700  140.0570 O   0  0  0  0  0  1  0  0  0  0  0  0
  189.3790  176.3780  145.4470 O   0  0  0  0  0  0  0  0  0  0  0  0
  187.4720  178.5370  141.5380 C   0  0  2  0  0  3  0  0  0  0  0  0
  189.1930  177.9230  143.6880 N   0  0  0  0  0  0  0  0  0  0  0  0
  182.3690  177.0570  139.7830 C   0  0  0  0  0  1  0  0  0  0  0  0
  183.7970  176.8170  139.3260 C   0  0  1  0  0  3  0  0  0  0  0  0
  183.8060  175.8220  138.3440 O   0  0  0  0  0  0  0  0  0  0  0  0
  182.5310  175.2530  138.3940 C   0  0  0  0  0  2  0  0  0  0  0  0
  182.2860  174.4450  137.1670 C   0  0  0  0  0  0  0  0  0  0  0  0
  183.0190  173.4560  136.9060 O   0  0  0  0  0  1  0  0  0  0  0  0
  181.2280  174.7640  136.3270 O   0  0  0  0  0  0  0  0  0  0  0  0
  187.1920  179.2540  136.8380 O   0  0  0  0  0  1  0  0  0  0  0  0
  186.0300  178.4870  136.9120 C   0  0  0  0  0  2  0  0  0  0  0  0
  1 19  1  6  0  0  0
  1 10  1  0  0  0  0
  1 22  1  0  0  0  0
  2  3  1  0  0  0  0
  4 20  1  6  0  0  0
  4 22  1  0  0  0  0
  4  5  1  0  0  0  0
  5 15  1  6  0  0  0
  5 23  1  0  0  0  0
  6 32  1  6  0  0  0
  6 14  1  0  0  0  0
  6 19  1  0  0  0  0
  8 21  2  0  0  0  0
  9  2  2  0  0  0  0
 10  7  1  6  0  0  0
 10 11  1  0  0  0  0
 11  9  1  0  0  0  0
 11 17  2  0  0  0  0
 12 17  1  0  0  0  0
 12 18  1  1  0  0  0
 13  8  1  0  0  0  0
 14 25  1  1  0  0  0
 14  7  1  0  0  0  0
 15 13  2  0  0  0  0
 16  3  2  0  0  0  0
 17 16  1  0  0  0  0
 22 12  1  0  0  0  0
 23 18  1  0  0  0  0
 23  8  1  0  0  0  0
 25 24  1  0  0  0  0
 26 27  1  0  0  0  0
 26 25  1  0  0  0  0
 28 27  1  0  0  0  0
 29 28  1  0  0  0  0
 30 28  2  0  0  0  0
 31 32  1  0  0  0  0
M  END
>  <MODEL>
7

>  <REMARK>
 VINA RESULT:      -6.4      4.235      6.526
  Name = 
  5 active torsions:
  status: ('A' for Active; 'I' for Inactive)
    1  A    between atoms: C_7  and  C_19
    2  A    between atoms: C_10  and  C_17
    3  A    between atoms: C_10  and  O_20
    4  A    between atoms: O_20  and  C_29
    5  A    between atoms: C_29  and  C_30
                            x       y       z     vdW  Elec       q    Type
                         _______ _______ _______ _____ _____    ______ ____

>  <TORSDO>
F 5

$$$$
=
 OpenBabel11122410533D

 32 36  0  0  1  0  0  0  0  0999 V2000
  188.0510  177.4770  139.1700 C   0  0  1  0  0  3  0  0  0  0  0  0
  192.9060  176.7480  139.0660 C   0  0  0  0  0  3  0  0  0  0  0  0
  192.7350  175.8430  138.0170 C   0  0  0  0  0  3  0  0  0  0  0  0
  186.5460  176.7130  137.2390 C   0  0  2  0  0  3  0  0  0  0  0  0
  186.5160  176.4320  135.7300 C   0  0  2  0  0  3  0  0  0  0  0  0
  187.1210  178.2130  141.0880 C   0  0  2  0  0  3  0  0  0  0  0  0
  189.5460  178.6720  140.7540 O   0  0  0  0  0  0  0  0  0  0  0  0
  187.2740  174.3690  134.9130 C   0  0  0  0  0  0  0  0  0  0  0  0
  191.8180  177.4840  139.5380 C   0  0  0  0  0  3  0  0  0  0  0  0
  189.3930  178.1580  139.4330 C   0  0  1  0  0  3  0  0  0  0  0  0
  190.5470  177.3130  138.9710 C   0  0  0  0  0  0  0  0  0  0  0  0
  189.0040  176.1670  137.2900 C   0  0  2  0  0  3  0  0  0  0  0  0
  185.8090  174.2040  134.8940 C   0  0  0  0  0  3  0  0  0  0  0  0
  188.5700  178.1720  141.6590 C   0  0  2  0  0  3  0  0  0  0  0  0
  185.2950  175.5630  135.3810 C   0  0  0  0  0  3  0  0  0  0  0  0
  191.4780  175.6800  137.4310 C   0  0  0  0  0  3  0  0  0  0  0  0
  190.3800  176.4330  137.8750 C   0  0  0  0  0  0  0  0  0  0  0  0
  189.0250  175.9890  135.7760 C   0  0  0  0  0  2  0  0  0  0  0  0
  187.0590  178.3190  139.6790 O   0  0  0  0  0  0  0  0  0  0  0  0
  185.5670  177.6640  137.5360 O   0  0  0  0  0  1  0  0  0  0  0  0
  188.0860  173.4590  134.6020 O   0  0  0  0  0  0  0  0  0  0  0  0
  187.9370  177.2190  137.6700 C   0  0  2  0  0  3  0  0  0  0  0  0
  187.6780  175.6520  135.3380 N   0  0  0  0  0  0  0  0  0  0  0  0
  190.3470  176.8000  142.7560 C   0  0  0  0  0  1  0  0  0  0  0  0
  188.9520  176.7740  142.1560 C   0  0  1  0  0  3  0  0  0  0  0  0
  188.0430  176.3290  143.1210 O   0  0  0  0  0  0  0  0  0  0  0  0
  188.5760  176.7520  144.3420 C   0  0  0  0  0  2  0  0  0  0  0  0
  187.5330  177.4630  145.1320 C   0  0  0  0  0  0  0  0  0  0  0  0
  187.8410  178.0410  146.2080 O   0  0  0  0  0  1  0  0  0  0  0  0
  186.2270  177.5160  144.6660 O   0  0  0  0  0  0  0  0  0  0  0  0
  185.3130  179.7520  140.8880 O   0  0  0  0  0  1  0  0  0  0  0  0
  186.3620  179.3630  141.7200 C   0  0  0  0  0  2  0  0  0  0  0  0
  1 10  1  0  0  0  0
  1 19  1  6  0  0  0
  2  9  1  0  0  0  0
  3  2  2  0  0  0  0
  4 20  1  6  0  0  0
  4 22  1  0  0  0  0
  5 15  1  1  0  0  0
  5  4  1  0  0  0  0
  6 14  1  0  0  0  0
  6 32  1  1  0  0  0
  7 14  1  0  0  0  0
  8 23  1  0  0  0  0
 10 11  1  1  0  0  0
 10  7  1  0  0  0  0
 11  9  2  0  0  0  0
 12 18  1  6  0  0  0
 12 22  1  0  0  0  0
 12 17  1  0  0  0  0
 13  8  1  0  0  0  0
 13 15  2  0  0  0  0
 14 25  1  6  0  0  0
 16 17  2  0  0  0  0
 16  3  1  0  0  0  0
 17 11  1  0  0  0  0
 19  6  1  0  0  0  0
 21  8  2  0  0  0  0
 22  1  1  0  0  0  0
 23  5  1  0  0  0  0
 23 18  1  0  0  0  0
 25 24  1  0  0  0  0
 25 26  1  0  0  0  0
 26 27  1  0  0  0  0
 27 28  1  0  0  0  0
 28 29  1  0  0  0  0
 30 28  2  0  0  0  0
 31 32  1  0  0  0  0
M  END
>  <MODEL>
8

>  <REMARK>
 VINA RESULT:      -6.3      2.903      7.674
  Name = 
  5 active torsions:
  status: ('A' for Active; 'I' for Inactive)
    1  A    between atoms: C_7  and  C_19
    2  A    between atoms: C_10  and  C_17
    3  A    between atoms: C_10  and  O_20
    4  A    between atoms: O_20  and  C_29
    5  A    between atoms: C_29  and  C_30
                            x       y       z     vdW  Elec       q    Type
                         _______ _______ _______ _____ _____    ______ ____

>  <TORSDO>
F 5

$$$$
=
 OpenBabel11122410533D

 32 36  0  0  1  0  0  0  0  0999 V2000
  190.5530  176.5040  138.5430 C   0  0  1  0  0  3  0  0  0  0  0  0
  187.1080  178.0730  135.4160 C   0  0  0  0  0  3  0  0  0  0  0  0
  186.2330  178.2510  136.4890 C   0  0  0  0  0  3  0  0  0  0  0  0
  190.3290  176.8770  141.0710 C   0  0  2  0  0  3  0  0  0  0  0  0
  189.7180  177.7980  142.1370 C   0  0  2  0  0  3  0  0  0  0  0  0
  192.1880  175.1680  137.7520 C   0  0  2  0  0  3  0  0  0  0  0  0
  191.0150  176.6230  136.1050 O   0  0  0  0  0  0  0  0  0  0  0  0
  187.4810  177.5170  142.7770 C   0  0  0  0  0  0  0  0  0  0  0  0
  188.4390  177.7210  135.6500 C   0  0  0  0  0  3  0  0  0  0  0  0
  190.3520  177.2270  137.2130 C   0  0  1  0  0  3  0  0  0  0  0  0
  188.9020  177.5360  136.9600 C   0  0  0  0  0  0  0  0  0  0  0  0
  188.4800  177.4960  139.4790 C   0  0  2  0  0  3  0  0  0  0  0  0
  188.2140  176.8610  143.8750 C   0  0  0  0  0  3  0  0  0  0  0  0
  191.4600  175.3010  136.3810 C   0  0  2  0  0  3  0  0  0  0  0  0
  189.6840  177.0780  143.4960 C   0  0  0  0  0  3  0  0  0  0  0  0
  186.6900  178.0890  137.7990 C   0  0  0  0  0  3  0  0  0  0  0  0
  188.0310  177.7630  138.0530 C   0  0  0  0  0  0  0  0  0  0  0  0
  187.9160  178.4990  140.4790 C   0  0  0  0  0  2  0  0  0  0  0  0
  191.9180  176.2240  138.6540 O   0  0  0  0  0  0  0  0  0  0  0  0
  191.7110  176.8170  141.2700 O   0  0  0  0  0  1  0  0  0  0  0  0
  186.2260  177.5450  142.6910 O   0  0  0  0  0  0  0  0  0  0  0  0
  190.0120  177.3990  139.6560 C   0  0  2  0  0  3  0  0  0  0  0  0
  188.3340  178.0950  141.8140 N   0  0  0  0  0  0  0  0  0  0  0  0
  190.8040  173.0330  135.5630 C   0  0  0  0  0  1  0  0  0  0  0  0
  190.3100  174.2980  136.2420 C   0  0  1  0  0  3  0  0  0  0  0  0
  189.7860  173.9730  137.4980 O   0  0  0  0  0  0  0  0  0  0  0  0
  188.7690  173.0500  137.2370 C   0  0  0  0  0  2  0  0  0  0  0  0
  187.5700  173.7540  136.7040 C   0  0  0  0  0  0  0  0  0  0  0  0
  186.9800  174.6160  137.4070 O   0  0  0  0  0  1  0  0  0  0  0  0
  187.1210  173.4830  135.4190 O   0  0  0  0  0  0  0  0  0  0  0  0
  194.1970  176.3170  137.1840 O   0  0  0  0  0  1  0  0  0  0  0  0
  193.6830  175.0650  137.5200 C   0  0  0  0  0  2  0  0  0  0  0  0
  1 19  1  1  0  0  0
  1 22  1  0  0  0  0
  2  9  2  0  0  0  0
  2  3  1  0  0  0  0
  3 16  2  0  0  0  0
  4 20  1  1  0  0  0
  4  5  1  0  0  0  0
  5 15  1  1  0  0  0
  6 32  1  6  0  0  0
  6 19  1  0  0  0  0
  7 14  1  0  0  0  0
  8 13  1  0  0  0  0
  9 11  1  0  0  0  0
 10  7  1  6  0  0  0
 10  1  1  0  0  0  0
 11 10  1  0  0  0  0
 11 17  2  0  0  0  0
 12 22  1  0  0  0  0
 12 18  1  1  0  0  0
 14 25  1  1  0  0  0
 14  6  1  0  0  0  0
 15 13  2  0  0  0  0
 16 17  1  0  0  0  0
 17 12  1  0  0  0  0
 18 23  1  0  0  0  0
 21  8  2  0  0  0  0
 22  4  1  0  0  0  0
 23  5  1  0  0  0  0
 23  8  1  0  0  0  0
 24 25  1  0  0  0  0
 25 26  1  0  0  0  0
 27 26  1  0  0  0  0
 28 27  1  0  0  0  0
 28 29  1  0  0  0  0
 30 28  2  0  0  0  0
 31 32  1  0  0  0  0
M  END
>  <MODEL>
9

>  <REMARK>
 VINA RESULT:      -6.3      1.400      2.167
  Name = 
  5 active torsions:
  status: ('A' for Active; 'I' for Inactive)
    1  A    between atoms: C_7  and  C_19
    2  A    between atoms: C_10  and  C_17
    3  A    between atoms: C_10  and  O_20
    4  A    between atoms: O_20  and  C_29
    5  A    between atoms: C_29  and  C_30
                            x       y       z     vdW  Elec       q    Type
                         _______ _______ _______ _____ _____    ______ ____

>  <TORSDO>
F 5

$$$$
