=
 OpenBabel11122411163D

 31 35  0  0  1  0  0  0  0  0999 V2000
  191.4700  176.4630  145.0460 C   0  0  1  0  0  3  0  0  0  0  0  0
  187.7430  176.9400  143.9690 C   0  0  2  0  0  3  0  0  0  0  0  0
  187.1050  177.8110  145.0520 C   0  0  0  0  0  0  0  0  0  0  0  0
  187.0840  178.6450  147.3420 C   0  0  0  0  0  0  0  0  0  0  0  0
  189.2820  176.9520  143.9050 C   0  0  2  0  0  3  0  0  0  0  0  0
  191.9350  177.8770  144.7260 C   0  0  0  0  0  2  0  0  0  0  0  0
  187.7010  177.9250  146.3190 C   0  0  0  0  0  3  0  0  0  0  0  0
  187.7370  178.6170  142.0530 C   0  0  2  0  0  3  0  0  0  0  0  0
  192.0500  176.0410  146.2410 O   0  0  0  0  0  1  0  0  0  0  0  0
  185.1280  178.3480  143.5230 C   0  0  0  0  0  2  0  0  0  0  0  0
  187.6840  178.7540  148.5520 F   0  0  0  0  0  0  0  0  0  0  0  0
  189.2670  178.6410  142.0750 C   0  0  0  0  0  2  0  0  0  0  0  0
  187.1950  177.2690  142.5700 C   0  0  2  0  0  3  0  0  0  0  0  0
  189.9530  176.4300  145.1800 C   0  0  0  0  0  2  0  0  0  0  0  0
  185.8450  179.2460  147.1230 C   0  0  0  0  0  3  0  0  0  0  0  0
  189.8090  178.3280  143.4650 C   0  0  2  0  0  3  0  0  0  0  0  0
  191.3350  178.3280  143.3990 C   0  0  0  0  0  2  0  0  0  0  0  0
  185.6670  177.2500  142.6100 C   0  0  0  0  0  2  0  0  0  0  0  0
  185.8290  178.3960  144.8510 C   0  0  0  0  0  0  0  0  0  0  0  0
  185.2230  179.1230  145.8800 C   0  0  0  0  0  3  0  0  0  0  0  0
  188.6090  177.2060  139.7350 O   0  0  0  0  0  0  0  0  0  0  0  0
  187.7390  178.1060  139.5770 C   0  0  0  0  0  0  0  0  0  0  0  0
  187.2660  178.8570  140.6960 N   0  0  0  0  0  2  0  0  0  0  0  0
  188.2620  176.4920  136.3240 C   0  0  0  0  0  0  0  0  0  0  0  0
  186.3180  177.2780  137.6660 C   0  0  0  0  0  2  0  0  0  0  0  0
  189.0780  179.8390  137.6940 O   0  0  0  0  0  1  0  0  0  0  0  0
  188.7310  175.6270  135.4300 C   0  0  0  0  0  2  0  0  0  0  0  0
  187.1460  176.0670  137.2300 C   0  0  0  0  0  2  0  0  0  0  0  0
  188.2720  178.8160  137.1900 C   0  0  2  0  0  3  0  0  0  0  0  0
  187.1940  178.4120  138.2120 C   0  0  2  0  0  3  0  0  0  0  0  0
  189.1340  177.6310  136.7560 C   0  0  0  0  0  2  0  0  0  0  0  0
  1 14  1  0  0  0  0
  1  9  1  1  0  0  0
  2  3  1  1  0  0  0
  3  7  1  0  0  0  0
  4 11  1  0  0  0  0
  5  2  1  0  0  0  0
  5 14  1  1  0  0  0
  6  1  1  0  0  0  0
  7  4  2  0  0  0  0
  8 23  1  6  0  0  0
  8 12  1  0  0  0  0
  8 13  1  0  0  0  0
 10 19  1  0  0  0  0
 13 18  1  1  0  0  0
 13  2  1  0  0  0  0
 15  4  1  0  0  0  0
 16 12  1  6  0  0  0
 16  5  1  0  0  0  0
 17 16  1  0  0  0  0
 17  6  1  0  0  0  0
 18 10  1  0  0  0  0
 19  3  2  0  0  0  0
 19 20  1  0  0  0  0
 20 15  2  0  0  0  0
 22 21  2  0  0  0  0
 22 23  1  0  0  0  0
 24 31  1  0  0  0  0
 24 28  1  0  0  0  0
 25 30  1  0  0  0  0
 27 24  2  0  0  0  0
 28 25  1  0  0  0  0
 29 26  1  1  0  0  0
 29 30  1  0  0  0  0
 30 22  1  1  0  0  0
 31 29  1  0  0  0  0
M  END
>  <MODEL>
1

>  <REMARK>
 VINA RESULT:      -9.5      0.000      0.000
  Name = 
  2 active torsions:
  status: ('A' for Active; 'I' for Inactive)
    1  A    between atoms: C_5  and  C_30
    2  A    between atoms: C_10  and  N_16
                            x       y       z     vdW  Elec       q    Type
                         _______ _______ _______ _____ _____    ______ ____

>  <TORSDO>
F 2

$$$$
=
 OpenBabel11122411163D

 31 35  0  0  1  0  0  0  0  0999 V2000
  189.9990  175.8520  142.6830 C   0  0  1  0  0  3  0  0  0  0  0  0
  186.5960  177.0580  144.1800 C   0  0  2  0  0  3  0  0  0  0  0  0
  186.9490  177.7960  145.4720 C   0  0  0  0  0  0  0  0  0  0  0  0
  188.4850  178.1850  147.3240 C   0  0  0  0  0  0  0  0  0  0  0  0
  187.7480  176.8580  143.1750 C   0  0  2  0  0  3  0  0  0  0  0  0
  190.4920  177.2180  142.2240 C   0  0  0  0  0  2  0  0  0  0  0  0
  188.1870  177.5850  146.1000 C   0  0  0  0  0  3  0  0  0  0  0  0
  185.8370  179.0450  142.7790 C   0  0  2  0  0  3  0  0  0  0  0  0
  191.0610  175.1360  143.2330 O   0  0  0  0  0  1  0  0  0  0  0  0
  184.6390  178.8910  145.5330 C   0  0  0  0  0  2  0  0  0  0  0  0
  189.6920  177.9780  147.9030 F   0  0  0  0  0  0  0  0  0  0  0  0
  187.0340  178.8410  141.8490 C   0  0  0  0  0  2  0  0  0  0  0  0
  185.4170  177.7180  143.4440 C   0  0  2  0  0  3  0  0  0  0  0  0
  188.9020  176.0160  143.7270 C   0  0  0  0  0  2  0  0  0  0  0  0
  187.5380  178.9910  147.9540 C   0  0  0  0  0  3  0  0  0  0  0  0
  188.2070  178.1990  142.5820 C   0  0  2  0  0  3  0  0  0  0  0  0
  189.3440  177.9900  141.5830 C   0  0  0  0  0  2  0  0  0  0  0  0
  184.2590  177.9150  144.4220 C   0  0  0  0  0  2  0  0  0  0  0  0
  185.9800  178.5880  146.1390 C   0  0  0  0  0  0  0  0  0  0  0  0
  186.2910  179.1920  147.3610 C   0  0  0  0  0  3  0  0  0  0  0  0
  184.1560  177.5730  141.0090 O   0  0  0  0  0  0  0  0  0  0  0  0
  183.9120  178.8020  141.1580 C   0  0  0  0  0  0  0  0  0  0  0  0
  184.7220  179.5980  142.0240 N   0  0  0  0  0  2  0  0  0  0  0  0
  181.9210  177.6950  138.2820 C   0  0  0  0  0  0  0  0  0  0  0  0
  181.4730  178.6490  140.5370 C   0  0  0  0  0  2  0  0  0  0  0  0
  184.2880  180.4920  138.8470 O   0  0  0  0  0  1  0  0  0  0  0  0
  181.5010  176.9140  137.2920 C   0  0  0  0  0  2  0  0  0  0  0  0
  181.4990  177.3780  139.6850 C   0  0  0  0  0  2  0  0  0  0  0  0
  183.0950  179.7750  138.9520 C   0  0  2  0  0  3  0  0  0  0  0  0
  182.7760  179.4510  140.4220 C   0  0  2  0  0  3  0  0  0  0  0  0
  183.1540  178.5210  138.0800 C   0  0  0  0  0  2  0  0  0  0  0  0
  1  9  1  1  0  0  0
  1 14  1  0  0  0  0
  2  3  1  1  0  0  0
  3  7  2  0  0  0  0
  3 19  1  0  0  0  0
  4 11  1  0  0  0  0
  4 15  2  0  0  0  0
  5 14  1  1  0  0  0
  5  2  1  0  0  0  0
  6  1  1  0  0  0  0
  7  4  1  0  0  0  0
  8 23  1  6  0  0  0
  8 13  1  0  0  0  0
 10 19  1  0  0  0  0
 12 16  1  0  0  0  0
 12  8  1  0  0  0  0
 13  2  1  0  0  0  0
 13 18  1  1  0  0  0
 16 17  1  6  0  0  0
 16  5  1  0  0  0  0
 17  6  1  0  0  0  0
 18 10  1  0  0  0  0
 19 20  2  0  0  0  0
 20 15  1  0  0  0  0
 21 22  2  0  0  0  0
 22 23  1  0  0  0  0
 24 28  1  0  0  0  0
 27 24  2  0  0  0  0
 28 25  1  0  0  0  0
 29 26  1  1  0  0  0
 29 30  1  0  0  0  0
 30 25  1  0  0  0  0
 30 22  1  6  0  0  0
 31 24  1  0  0  0  0
 31 29  1  0  0  0  0
M  END
>  <MODEL>
2

>  <REMARK>
 VINA RESULT:      -8.8      3.008      3.724
  Name = 
  2 active torsions:
  status: ('A' for Active; 'I' for Inactive)
    1  A    between atoms: C_5  and  C_30
    2  A    between atoms: C_10  and  N_16
                            x       y       z     vdW  Elec       q    Type
                         _______ _______ _______ _____ _____    ______ ____

>  <TORSDO>
F 2

$$$$
=
 OpenBabel11122411163D

 31 35  0  0  1  0  0  0  0  0999 V2000
  191.0820  176.0430  143.3640 C   0  0  1  0  0  3  0  0  0  0  0  0
  187.2970  176.9520  143.7200 C   0  0  2  0  0  3  0  0  0  0  0  0
  187.1770  177.7270  145.0320 C   0  0  0  0  0  0  0  0  0  0  0  0
  188.0390  178.2630  147.2480 C   0  0  0  0  0  0  0  0  0  0  0  0
  188.7120  176.8480  143.1180 C   0  0  2  0  0  3  0  0  0  0  0  0
  191.5760  177.4440  143.0300 C   0  0  0  0  0  2  0  0  0  0  0  0
  188.1780  177.6310  146.0120 C   0  0  0  0  0  3  0  0  0  0  0  0
  186.8380  178.8540  142.0890 C   0  0  2  0  0  3  0  0  0  0  0  0
  191.9800  175.4280  144.2340 O   0  0  0  0  0  1  0  0  0  0  0  0
  184.8760  178.6120  144.3540 C   0  0  0  0  0  2  0  0  0  0  0  0
  189.0250  178.1690  148.1720 F   0  0  0  0  0  0  0  0  0  0  0  0
  188.2750  178.7510  141.5720 C   0  0  0  0  0  2  0  0  0  0  0  0
  186.3480  177.4990  142.6390 C   0  0  2  0  0  3  0  0  0  0  0  0
  189.7090  176.1160  144.0210 C   0  0  0  0  0  2  0  0  0  0  0  0
  186.8810  178.9860  147.5350 C   0  0  0  0  0  3  0  0  0  0  0  0
  189.2180  178.2210  142.6460 C   0  0  2  0  0  3  0  0  0  0  0  0
  190.6180  178.1070  142.0470 C   0  0  0  0  0  2  0  0  0  0  0  0
  184.9350  177.5990  143.2130 C   0  0  0  0  0  2  0  0  0  0  0  0
  185.9890  178.4340  145.3470 C   0  0  0  0  0  0  0  0  0  0  0  0
  185.8620  179.0710  146.5860 C   0  0  0  0  0  3  0  0  0  0  0  0
  186.6640  177.6600  139.5070 O   0  0  0  0  0  0  0  0  0  0  0  0
  185.9200  178.6510  139.7420 C   0  0  0  0  0  0  0  0  0  0  0  0
  185.9650  179.3010  141.0130 N   0  0  0  0  0  2  0  0  0  0  0  0
  182.4900  177.7040  138.8440 C   0  0  0  0  0  0  0  0  0  0  0  0
  183.7290  179.8160  139.2930 C   0  0  0  0  0  2  0  0  0  0  0  0
  185.7500  177.5310  137.0860 O   0  0  0  0  0  1  0  0  0  0  0  0
  181.3320  177.0520  138.8870 C   0  0  0  0  0  2  0  0  0  0  0  0
  182.7590  178.7750  139.8570 C   0  0  0  0  0  2  0  0  0  0  0  0
  184.6080  178.1270  137.6230 C   0  0  2  0  0  3  0  0  0  0  0  0
  184.9830  179.1710  138.6900 C   0  0  2  0  0  3  0  0  0  0  0  0
  183.6600  177.0580  138.1650 C   0  0  0  0  0  2  0  0  0  0  0  0
  1 14  1  0  0  0  0
  1  9  1  1  0  0  0
  2  3  1  1  0  0  0
  3 19  2  0  0  0  0
  3  7  1  0  0  0  0
  4 15  1  0  0  0  0
  4 11  1  0  0  0  0
  5  2  1  0  0  0  0
  5 14  1  1  0  0  0
  6  1  1  0  0  0  0
  7  4  2  0  0  0  0
  8 23  1  6  0  0  0
  8 13  1  0  0  0  0
 10 19  1  0  0  0  0
 12  8  1  0  0  0  0
 13 18  1  1  0  0  0
 13  2  1  0  0  0  0
 16 12  1  6  0  0  0
 16  5  1  0  0  0  0
 17 16  1  0  0  0  0
 17  6  1  0  0  0  0
 18 10  1  0  0  0  0
 19 20  1  0  0  0  0
 20 15  2  0  0  0  0
 21 22  2  0  0  0  0
 22 23  1  0  0  0  0
 24 27  2  0  0  0  0
 24 28  1  0  0  0  0
 25 28  1  0  0  0  0
 29 26  1  1  0  0  0
 29 31  1  0  0  0  0
 29 30  1  0  0  0  0
 30 25  1  0  0  0  0
 30 22  1  1  0  0  0
 31 24  1  0  0  0  0
M  END
>  <MODEL>
3

>  <REMARK>
 VINA RESULT:      -8.5      2.148      2.927
  Name = 
  2 active torsions:
  status: ('A' for Active; 'I' for Inactive)
    1  A    between atoms: C_5  and  C_30
    2  A    between atoms: C_10  and  N_16
                            x       y       z     vdW  Elec       q    Type
                         _______ _______ _______ _____ _____    ______ ____

>  <TORSDO>
F 2

$$$$
=
 OpenBabel11122411163D

 31 35  0  0  1  0  0  0  0  0999 V2000
  194.0300  175.5070  135.6890 C   0  0  1  0  0  3  0  0  0  0  0  0
  190.3680  176.5270  136.6010 C   0  0  2  0  0  3  0  0  0  0  0  0
  189.5360  175.2510  136.4700 C   0  0  0  0  0  0  0  0  0  0  0  0
  189.2230  173.0290  135.5180 C   0  0  0  0  0  0  0  0  0  0  0  0
  191.8930  176.3360  136.7230 C   0  0  2  0  0  3  0  0  0  0  0  0
  194.3240  174.7240  136.9620 C   0  0  0  0  0  2  0  0  0  0  0  0
  190.0100  174.1640  135.7170 C   0  0  0  0  0  3  0  0  0  0  0  0
  190.2860  176.8000  139.1310 C   0  0  2  0  0  3  0  0  0  0  0  0
  194.5660  174.8320  134.5940 O   0  0  0  0  0  1  0  0  0  0  0  0
  187.6310  176.2990  137.8140 C   0  0  0  0  0  2  0  0  0  0  0  0
  189.7070  171.9860  134.8010 F   0  0  0  0  0  0  0  0  0  0  0  0
  191.7930  176.5400  139.2040 C   0  0  0  0  0  2  0  0  0  0  0  0
  189.8920  177.4070  137.7690 C   0  0  2  0  0  3  0  0  0  0  0  0
  192.5250  175.6570  135.5050 C   0  0  0  0  0  2  0  0  0  0  0  0
  187.9360  172.9710  136.0510 C   0  0  0  0  0  3  0  0  0  0  0  0
  192.2620  175.6570  138.0530 C   0  0  2  0  0  3  0  0  0  0  0  0
  193.7740  175.4770  138.1680 C   0  0  0  0  0  2  0  0  0  0  0  0
  188.3830  177.6190  137.6590 C   0  0  0  0  0  2  0  0  0  0  0  0
  188.2130  175.1970  136.9770 C   0  0  0  0  0  0  0  0  0  0  0  0
  187.4350  174.0510  136.7790 C   0  0  0  0  0  3  0  0  0  0  0  0
  190.2190  176.1180  141.8980 O   0  0  0  0  0  0  0  0  0  0  0  0
  189.8920  177.2940  141.5790 C   0  0  0  0  0  0  0  0  0  0  0  0
  189.8950  177.6980  140.2090 N   0  0  0  0  0  2  0  0  0  0  0  0
  190.2600  177.2710  145.2300 C   0  0  0  0  0  0  0  0  0  0  0  0
  190.6870  178.8750  143.3750 C   0  0  0  0  0  2  0  0  0  0  0  0
  187.3460  177.1960  142.9380 O   0  0  0  0  0  1  0  0  0  0  0  0
  190.6030  176.8380  146.4390 C   0  0  0  0  0  2  0  0  0  0  0  0
  191.3120  177.8740  144.3480 C   0  0  0  0  0  2  0  0  0  0  0  0
  188.4350  177.7450  143.6180 C   0  0  2  0  0  3  0  0  0  0  0  0
  189.4830  178.2860  142.6300 C   0  0  2  0  0  3  0  0  0  0  0  0
  189.0230  176.7200  144.5870 C   0  0  0  0  0  2  0  0  0  0  0  0
  1  9  1  6  0  0  0
  1  6  1  0  0  0  0
  2  3  1  1  0  0  0
  2  5  1  0  0  0  0
  2 13  1  0  0  0  0
  3 19  1  0  0  0  0
  4  7  1  0  0  0  0
  4 15  2  0  0  0  0
  5 14  1  6  0  0  0
  5 16  1  0  0  0  0
  6 17  1  0  0  0  0
  7  3  2  0  0  0  0
  8 12  1  0  0  0  0
  8 23  1  1  0  0  0
 11  4  1  0  0  0  0
 13 18  1  1  0  0  0
 13  8  1  0  0  0  0
 14  1  1  0  0  0  0
 15 20  1  0  0  0  0
 16 17  1  6  0  0  0
 16 12  1  0  0  0  0
 18 10  1  0  0  0  0
 19 10  1  0  0  0  0
 20 19  2  0  0  0  0
 22 21  2  0  0  0  0
 23 22  1  0  0  0  0
 24 27  2  0  0  0  0
 25 28  1  0  0  0  0
 28 24  1  0  0  0  0
 29 26  1  6  0  0  0
 29 31  1  0  0  0  0
 30 22  1  6  0  0  0
 30 25  1  0  0  0  0
 30 29  1  0  0  0  0
 31 24  1  0  0  0  0
M  END
>  <MODEL>
4

>  <REMARK>
 VINA RESULT:      -8.1      4.122      8.579
  Name = 
  2 active torsions:
  status: ('A' for Active; 'I' for Inactive)
    1  A    between atoms: C_5  and  C_30
    2  A    between atoms: C_10  and  N_16
                            x       y       z     vdW  Elec       q    Type
                         _______ _______ _______ _____ _____    ______ ____

>  <TORSDO>
F 2

$$$$
=
 OpenBabel11122411163D

 31 35  0  0  1  0  0  0  0  0999 V2000
  183.7380  178.6280  143.3730 C   0  0  1  0  0  3  0  0  0  0  0  0
  182.9800  177.7090  139.6500 C   0  0  2  0  0  3  0  0  0  0  0  0
  182.1570  178.8720  139.0940 C   0  0  0  0  0  0  0  0  0  0  0  0
  180.6660  180.7630  139.4650 C   0  0  0  0  0  0  0  0  0  0  0  0
  183.7750  177.9930  140.9400 C   0  0  2  0  0  3  0  0  0  0  0  0
  184.7600  179.7200  143.0870 C   0  0  0  0  0  2  0  0  0  0  0  0
  181.4890  179.7530  139.9610 C   0  0  0  0  0  3  0  0  0  0  0  0
  185.1340  178.0830  138.3440 C   0  0  2  0  0  3  0  0  0  0  0  0
  182.9130  179.0250  144.4230 O   0  0  0  0  0  1  0  0  0  0  0  0
  182.6190  178.1150  136.6960 C   0  0  0  0  0  2  0  0  0  0  0  0
  180.0440  181.6110  140.3200 F   0  0  0  0  0  0  0  0  0  0  0  0
  185.8610  178.4210  139.6480 C   0  0  0  0  0  2  0  0  0  0  0  0
  183.9460  177.1340  138.6000 C   0  0  2  0  0  3  0  0  0  0  0  0
  182.8920  178.3680  142.1330 C   0  0  0  0  0  2  0  0  0  0  0  0
  180.4760  180.8970  138.0900 C   0  0  0  0  0  3  0  0  0  0  0  0
  184.9060  179.0030  140.6840 C   0  0  2  0  0  3  0  0  0  0  0  0
  185.6910  179.2740  141.9660 C   0  0  0  0  0  2  0  0  0  0  0  0
  183.1730  176.8340  137.3160 C   0  0  0  0  0  2  0  0  0  0  0  0
  181.9290  178.9940  137.7000 C   0  0  0  0  0  0  0  0  0  0  0  0
  181.1080  180.0150  137.2130 C   0  0  0  0  0  3  0  0  0  0  0  0
  187.1130  179.4820  136.8440 O   0  0  0  0  0  0  0  0  0  0  0  0
  187.0450  178.2310  136.6950 C   0  0  0  0  0  0  0  0  0  0  0  0
  186.0690  177.4720  137.4100 N   0  0  0  0  0  2  0  0  0  0  0  0
  188.0740  174.7160  136.4780 C   0  0  0  0  0  0  0  0  0  0  0  0
  187.2570  176.4660  134.9070 C   0  0  0  0  0  2  0  0  0  0  0  0
  189.8590  177.8760  137.2330 O   0  0  0  0  0  1  0  0  0  0  0  0
  188.1420  173.4230  136.7790 C   0  0  0  0  0  2  0  0  0  0  0  0
  186.8850  175.2240  135.7200 C   0  0  0  0  0  2  0  0  0  0  0  0
  189.2130  176.9190  136.4490 C   0  0  2  0  0  3  0  0  0  0  0  0
  187.9770  177.5200  135.7570 C   0  0  2  0  0  3  0  0  0  0  0  0
  188.8690  175.6920  137.2910 C   0  0  0  0  0  2  0  0  0  0  0  0
  1  9  1  1  0  0  0
  2  3  1  6  0  0  0
  2  5  1  0  0  0  0
  3  7  1  0  0  0  0
  4  7  2  0  0  0  0
  4 11  1  0  0  0  0
  5 14  1  1  0  0  0
  6  1  1  0  0  0  0
  8 23  1  6  0  0  0
  8 13  1  0  0  0  0
  8 12  1  0  0  0  0
 10 18  1  0  0  0  0
 10 19  1  0  0  0  0
 13 18  1  6  0  0  0
 13  2  1  0  0  0  0
 14  1  1  0  0  0  0
 15  4  1  0  0  0  0
 16 12  1  6  0  0  0
 16  5  1  0  0  0  0
 16 17  1  0  0  0  0
 17  6  1  0  0  0  0
 19  3  2  0  0  0  0
 20 19  1  0  0  0  0
 20 15  2  0  0  0  0
 22 21  2  0  0  0  0
 22 23  1  0  0  0  0
 24 27  2  0  0  0  0
 24 31  1  0  0  0  0
 25 28  1  0  0  0  0
 25 30  1  0  0  0  0
 28 24  1  0  0  0  0
 29 26  1  1  0  0  0
 29 31  1  0  0  0  0
 30 29  1  0  0  0  0
 30 22  1  1  0  0  0
M  END
>  <MODEL>
5

>  <REMARK>
 VINA RESULT:      -7.1      4.465      6.538
  Name = 
  2 active torsions:
  status: ('A' for Active; 'I' for Inactive)
    1  A    between atoms: C_5  and  C_30
    2  A    between atoms: C_10  and  N_16
                            x       y       z     vdW  Elec       q    Type
                         _______ _______ _______ _____ _____    ______ ____

>  <TORSDO>
F 2

$$$$
=
 OpenBabel11122411163D

 31 35  0  0  1  0  0  0  0  0999 V2000
  186.6440  178.5580  146.9230 C   0  0  1  0  0  3  0  0  0  0  0  0
  189.8740  178.3520  144.7310 C   0  0  2  0  0  3  0  0  0  0  0  0
  190.6040  177.0880  145.1840 C   0  0  0  0  0  0  0  0  0  0  0  0
  191.0420  175.4060  146.8930 C   0  0  0  0  0  0  0  0  0  0  0  0
  188.3830  178.4500  145.1090 C   0  0  2  0  0  3  0  0  0  0  0  0
  185.8930  177.4170  146.2490 C   0  0  0  0  0  2  0  0  0  0  0  0
  190.3210  176.5080  146.4320 C   0  0  0  0  0  3  0  0  0  0  0  0
  189.1460  177.5860  142.4140 C   0  0  2  0  0  3  0  0  0  0  0  0
  186.4440  178.4960  148.3010 O   0  0  0  0  0  1  0  0  0  0  0  0
  192.0410  177.1030  143.0700 C   0  0  0  0  0  2  0  0  0  0  0  0
  190.7410  174.8540  148.0940 F   0  0  0  0  0  0  0  0  0  0  0  0
  187.6840  177.6370  142.8610 C   0  0  0  0  0  2  0  0  0  0  0  0
  190.0080  178.5830  143.2160 C   0  0  2  0  0  3  0  0  0  0  0  0
  188.1330  178.4520  146.6200 C   0  0  0  0  0  2  0  0  0  0  0  0
  192.0760  174.8770  146.1230 C   0  0  0  0  0  3  0  0  0  0  0  0
  187.5500  177.3960  144.3610 C   0  0  2  0  0  3  0  0  0  0  0  0
  186.0740  177.5040  144.7370 C   0  0  0  0  0  2  0  0  0  0  0  0
  191.4820  178.5020  142.8220 C   0  0  0  0  0  2  0  0  0  0  0  0
  191.6820  176.5650  144.4250 C   0  0  0  0  0  0  0  0  0  0  0  0
  192.3930  175.4550  144.8930 C   0  0  0  0  0  3  0  0  0  0  0  0
  190.5130  176.0030  140.4770 O   0  0  0  0  0  0  0  0  0  0  0  0
  189.9260  177.0430  140.0710 C   0  0  0  0  0  0  0  0  0  0  0  0
  189.2310  177.8850  140.9920 N   0  0  0  0  0  2  0  0  0  0  0  0
  187.3150  177.0400  137.4940 C   0  0  0  0  0  0  0  0  0  0  0  0
  189.0550  178.6220  138.3090 C   0  0  0  0  0  2  0  0  0  0  0  0
  190.4710  175.1510  137.9590 O   0  0  0  0  0  1  0  0  0  0  0  0
  186.1150  176.8790  136.9440 C   0  0  0  0  0  2  0  0  0  0  0  0
  187.5710  178.2530  138.3370 C   0  0  0  0  0  2  0  0  0  0  0  0
  189.6590  176.2490  137.6670 C   0  0  2  0  0  3  0  0  0  0  0  0
  189.9570  177.4210  138.6180 C   0  0  2  0  0  3  0  0  0  0  0  0
  188.1880  175.8380  137.6930 C   0  0  0  0  0  2  0  0  0  0  0  0
  1  9  1  1  0  0  0
  2  5  1  0  0  0  0
  2  3  1  6  0  0  0
  3  7  1  0  0  0  0
  4 11  1  0  0  0  0
  5 14  1  1  0  0  0
  6  1  1  0  0  0  0
  7  4  2  0  0  0  0
  8 23  1  6  0  0  0
  8 12  1  0  0  0  0
  8 13  1  0  0  0  0
 10 19  1  0  0  0  0
 13 18  1  6  0  0  0
 13  2  1  0  0  0  0
 14  1  1  0  0  0  0
 15  4  1  0  0  0  0
 16 12  1  6  0  0  0
 16 17  1  0  0  0  0
 16  5  1  0  0  0  0
 17  6  1  0  0  0  0
 18 10  1  0  0  0  0
 19 20  1  0  0  0  0
 19  3  2  0  0  0  0
 20 15  2  0  0  0  0
 22 21  2  0  0  0  0
 22 23  1  0  0  0  0
 24 31  1  0  0  0  0
 24 28  1  0  0  0  0
 25 28  1  0  0  0  0
 25 30  1  0  0  0  0
 27 24  2  0  0  0  0
 29 31  1  0  0  0  0
 29 26  1  1  0  0  0
 29 30  1  0  0  0  0
 30 22  1  1  0  0  0
M  END
>  <MODEL>
6

>  <REMARK>
 VINA RESULT:      -7.1      2.093      4.399
  Name = 
  2 active torsions:
  status: ('A' for Active; 'I' for Inactive)
    1  A    between atoms: C_5  and  C_30
    2  A    between atoms: C_10  and  N_16
                            x       y       z     vdW  Elec       q    Type
                         _______ _______ _______ _____ _____    ______ ____

>  <TORSDO>
F 2

$$$$
=
 OpenBabel11122411163D

 31 35  0  0  1  0  0  0  0  0999 V2000
  191.7800  177.6370  140.4920 C   0  0  1  0  0  3  0  0  0  0  0  0
  189.2110  177.7030  137.5470 C   0  0  2  0  0  3  0  0  0  0  0  0
  189.1120  176.2610  137.0490 C   0  0  0  0  0  0  0  0  0  0  0  0
  190.0890  174.0390  136.8220 C   0  0  0  0  0  0  0  0  0  0  0  0
  189.8060  177.8970  138.9550 C   0  0  2  0  0  3  0  0  0  0  0  0
  190.8790  176.9420  141.5040 C   0  0  0  0  0  2  0  0  0  0  0  0
  190.1240  175.3330  137.3430 C   0  0  0  0  0  3  0  0  0  0  0  0
  186.8980  177.9260  138.5890 C   0  0  2  0  0  3  0  0  0  0  0  0
  193.0730  177.1280  140.5920 O   0  0  0  0  0  1  0  0  0  0  0  0
  186.9410  176.7880  135.8060 C   0  0  0  0  0  2  0  0  0  0  0  0
  191.0680  173.1570  137.1320 F   0  0  0  0  0  0  0  0  0  0  0  0
  187.5380  178.0490  139.9730 C   0  0  0  0  0  2  0  0  0  0  0  0
  187.8540  178.4260  137.4880 C   0  0  2  0  0  3  0  0  0  0  0  0
  191.2520  177.4090  139.0810 C   0  0  0  0  0  2  0  0  0  0  0  0
  189.0490  173.6570  135.9750 C   0  0  0  0  0  3  0  0  0  0  0  0
  188.8770  177.3210  140.0350 C   0  0  2  0  0  3  0  0  0  0  0  0
  189.4720  177.5230  141.4270 C   0  0  0  0  0  2  0  0  0  0  0  0
  187.2520  178.2560  136.0930 C   0  0  0  0  0  2  0  0  0  0  0  0
  188.0790  175.8730  136.1580 C   0  0  0  0  0  0  0  0  0  0  0  0
  188.0480  174.5720  135.6470 C   0  0  0  0  0  3  0  0  0  0  0  0
  184.2960  176.8210  138.2250 O   0  0  0  0  0  0  0  0  0  0  0  0
  184.3830  178.0700  138.3800 C   0  0  0  0  0  0  0  0  0  0  0  0
  185.6580  178.6880  138.5570 N   0  0  0  0  0  2  0  0  0  0  0  0
  181.0390  177.5610  139.8030 C   0  0  0  0  0  0  0  0  0  0  0  0
  182.7410  179.3780  139.7760 C   0  0  0  0  0  2  0  0  0  0  0  0
  182.3420  177.8770  136.3460 O   0  0  0  0  0  1  0  0  0  0  0  0
  180.0470  176.9630  140.4560 C   0  0  0  0  0  2  0  0  0  0  0  0
  182.1210  178.2380  140.5880 C   0  0  0  0  0  2  0  0  0  0  0  0
  181.9620  178.2990  137.6220 C   0  0  2  0  0  3  0  0  0  0  0  0
  183.1510  178.9290  138.3680 C   0  0  2  0  0  3  0  0  0  0  0  0
  181.3390  177.1380  138.3970 C   0  0  0  0  0  2  0  0  0  0  0  0
  1  9  1  6  0  0  0
  1  6  1  0  0  0  0
  2  3  1  1  0  0  0
  2  5  1  0  0  0  0
  3  7  1  0  0  0  0
  4 11  1  0  0  0  0
  4  7  2  0  0  0  0
  5 14  1  6  0  0  0
  5 16  1  0  0  0  0
  8 23  1  1  0  0  0
  8 12  1  0  0  0  0
 10 18  1  0  0  0  0
 10 19  1  0  0  0  0
 13 18  1  6  0  0  0
 13  2  1  0  0  0  0
 13  8  1  0  0  0  0
 14  1  1  0  0  0  0
 15  4  1  0  0  0  0
 16 12  1  1  0  0  0
 16 17  1  0  0  0  0
 17  6  1  0  0  0  0
 19  3  2  0  0  0  0
 20 15  2  0  0  0  0
 20 19  1  0  0  0  0
 21 22  2  0  0  0  0
 22 23  1  0  0  0  0
 24 27  2  0  0  0  0
 24 28  1  0  0  0  0
 25 28  1  0  0  0  0
 29 26  1  6  0  0  0
 29 30  1  0  0  0  0
 29 31  1  0  0  0  0
 30 22  1  1  0  0  0
 30 25  1  0  0  0  0
 31 24  1  0  0  0  0
M  END
>  <MODEL>
7

>  <REMARK>
 VINA RESULT:      -7.0      4.337      7.333
  Name = 
  2 active torsions:
  status: ('A' for Active; 'I' for Inactive)
    1  A    between atoms: C_5  and  C_30
    2  A    between atoms: C_10  and  N_16
                            x       y       z     vdW  Elec       q    Type
                         _______ _______ _______ _____ _____    ______ ____

>  <TORSDO>
F 2

$$$$
=
 OpenBabel11122411163D

 31 35  0  0  1  0  0  0  0  0999 V2000
  186.4020  178.2300  137.9450 C   0  0  1  0  0  3  0  0  0  0  0  0
  189.9020  178.0070  139.6710 C   0  0  2  0  0  3  0  0  0  0  0  0
  189.6600  177.3180  141.0140 C   0  0  0  0  0  0  0  0  0  0  0  0
  188.1550  176.7310  142.8390 C   0  0  0  0  0  0  0  0  0  0  0  0
  188.7950  177.8400  138.6120 C   0  0  2  0  0  3  0  0  0  0  0  0
  186.2730  176.7520  137.6020 C   0  0  0  0  0  2  0  0  0  0  0  0
  188.3730  177.2790  141.5750 C   0  0  0  0  0  3  0  0  0  0  0  0
  191.1880  176.1500  138.4950 C   0  0  2  0  0  3  0  0  0  0  0  0
  185.1720  178.7140  138.3870 O   0  0  0  0  0  1  0  0  0  0  0  0
  192.1550  176.8200  141.2620 C   0  0  0  0  0  2  0  0  0  0  0  0
  186.9020  176.6900  143.3530 F   0  0  0  0  0  0  0  0  0  0  0  0
  190.0320  175.9800  137.5080 C   0  0  0  0  0  2  0  0  0  0  0  0
  191.2440  177.5900  139.0440 C   0  0  2  0  0  3  0  0  0  0  0  0
  187.4450  178.4230  139.0380 C   0  0  0  0  0  2  0  0  0  0  0  0
  189.2280  176.2320  143.5770 C   0  0  0  0  0  3  0  0  0  0  0  0
  188.7000  176.3820  138.1330 C   0  0  2  0  0  3  0  0  0  0  0  0
  187.6050  176.2270  137.0800 C   0  0  0  0  0  2  0  0  0  0  0  0
  192.3570  177.7610  140.0770 C   0  0  0  0  0  2  0  0  0  0  0  0
  190.7490  176.8420  141.7880 C   0  0  0  0  0  0  0  0  0  0  0  0
  190.5190  176.2870  143.0510 C   0  0  0  0  0  3  0  0  0  0  0  0
  191.9180  173.5610  137.5510 O   0  0  0  0  0  0  0  0  0  0  0  0
  192.7440  174.5000  137.3780 C   0  0  0  0  0  0  0  0  0  0  0  0
  192.4430  175.8190  137.8360 N   0  0  0  0  0  2  0  0  0  0  0  0
  195.0290  171.6310  137.4850 C   0  0  0  0  0  0  0  0  0  0  0  0
  193.9940  173.0600  135.7290 C   0  0  0  0  0  2  0  0  0  0  0  0
  195.2890  175.1670  138.5680 O   0  0  0  0  0  1  0  0  0  0  0  0
  195.5040  170.4360  137.8220 C   0  0  0  0  0  2  0  0  0  0  0  0
  193.9390  171.7170  136.4590 C   0  0  0  0  0  2  0  0  0  0  0  0
  195.2400  174.0950  137.6750 C   0  0  2  0  0  3  0  0  0  0  0  0
  194.0590  174.2450  136.7000 C   0  0  2  0  0  3  0  0  0  0  0  0
  195.1980  172.7740  138.4400 C   0  0  0  0  0  2  0  0  0  0  0  0
  1  9  1  1  0  0  0
  1 14  1  0  0  0  0
  2  3  1  1  0  0  0
  3  7  2  0  0  0  0
  3 19  1  0  0  0  0
  4 11  1  0  0  0  0
  4 15  2  0  0  0  0
  5 14  1  1  0  0  0
  5  2  1  0  0  0  0
  6  1  1  0  0  0  0
  7  4  1  0  0  0  0
  8 23  1  6  0  0  0
  8 13  1  0  0  0  0
 10 19  1  0  0  0  0
 12 16  1  0  0  0  0
 12  8  1  0  0  0  0
 13  2  1  0  0  0  0
 13 18  1  1  0  0  0
 16 17  1  6  0  0  0
 16  5  1  0  0  0  0
 17  6  1  0  0  0  0
 18 10  1  0  0  0  0
 19 20  2  0  0  0  0
 20 15  1  0  0  0  0
 22 21  2  0  0  0  0
 22 23  1  0  0  0  0
 24 27  2  0  0  0  0
 24 31  1  0  0  0  0
 25 28  1  0  0  0  0
 25 30  1  0  0  0  0
 28 24  1  0  0  0  0
 29 31  1  0  0  0  0
 29 26  1  1  0  0  0
 30 22  1  1  0  0  0
 30 29  1  0  0  0  0
M  END
>  <MODEL>
8

>  <REMARK>
 VINA RESULT:      -6.9      4.470      7.092
  Name = 
  2 active torsions:
  status: ('A' for Active; 'I' for Inactive)
    1  A    between atoms: C_5  and  C_30
    2  A    between atoms: C_10  and  N_16
                            x       y       z     vdW  Elec       q    Type
                         _______ _______ _______ _____ _____    ______ ____

>  <TORSDO>
F 2

$$$$
=
 OpenBabel11122411163D

 31 35  0  0  1  0  0  0  0  0999 V2000
  179.5940  178.7890  141.3550 C   0  0  1  0  0  3  0  0  0  0  0  0
  183.2960  179.0590  140.1270 C   0  0  2  0  0  3  0  0  0  0  0  0
  184.1620  178.7110  141.3370 C   0  0  0  0  0  0  0  0  0  0  0  0
  184.4390  178.5540  143.7540 C   0  0  0  0  0  0  0  0  0  0  0  0
  181.8200  178.6190  140.1970 C   0  0  2  0  0  3  0  0  0  0  0  0
  179.5420  177.2700  141.4430 C   0  0  0  0  0  2  0  0  0  0  0  0
  183.6350  178.7830  142.6370 C   0  0  0  0  0  3  0  0  0  0  0  0
  183.7530  176.9980  138.7030 C   0  0  2  0  0  3  0  0  0  0  0  0
  178.9310  179.3420  142.4490 O   0  0  0  0  0  1  0  0  0  0  0  0
  186.1960  178.3370  139.8340 C   0  0  0  0  0  2  0  0  0  0  0  0
  183.9040  178.6140  144.9980 F   0  0  0  0  0  0  0  0  0  0  0  0
  182.2910  176.5720  138.8580 C   0  0  0  0  0  2  0  0  0  0  0  0
  183.9000  178.5290  138.8150 C   0  0  2  0  0  3  0  0  0  0  0  0
  181.0430  179.2610  141.3490 C   0  0  0  0  0  2  0  0  0  0  0  0
  185.7940  178.2700  143.5910 C   0  0  0  0  0  3  0  0  0  0  0  0
  181.6960  177.0870  140.1640 C   0  0  2  0  0  3  0  0  0  0  0  0
  180.2310  176.6600  140.2280 C   0  0  0  0  0  2  0  0  0  0  0  0
  185.3610  178.9660  138.7210 C   0  0  0  0  0  2  0  0  0  0  0  0
  185.5490  178.4580  141.1840 C   0  0  0  0  0  0  0  0  0  0  0  0
  186.3440  178.2210  142.3100 C   0  0  0  0  0  3  0  0  0  0  0  0
  184.1810  174.2760  137.9740 O   0  0  0  0  0  0  0  0  0  0  0  0
  184.4420  175.1580  137.1110 C   0  0  0  0  0  0  0  0  0  0  0  0
  184.2590  176.5410  137.4160 N   0  0  0  0  0  2  0  0  0  0  0  0
  184.8590  171.8890  135.4980 C   0  0  0  0  0  0  0  0  0  0  0  0
  183.8870  174.0990  134.8920 C   0  0  0  0  0  2  0  0  0  0  0  0
  187.2140  174.5320  136.6000 O   0  0  0  0  0  1  0  0  0  0  0  0
  184.8250  170.5690  135.3450 C   0  0  0  0  0  2  0  0  0  0  0  0
  183.5880  172.6700  135.3500 C   0  0  0  0  0  2  0  0  0  0  0  0
  186.2440  173.9250  135.8010 C   0  0  2  0  0  3  0  0  0  0  0  0
  184.9600  174.7730  135.7560 C   0  0  2  0  0  3  0  0  0  0  0  0
  185.9810  172.4990  136.2830 C   0  0  0  0  0  2  0  0  0  0  0  0
  1  6  1  0  0  0  0
  1  9  1  1  0  0  0
  2  5  1  0  0  0  0
  2  3  1  1  0  0  0
  3  7  1  0  0  0  0
  4 11  1  0  0  0  0
  5 14  1  1  0  0  0
  7  4  2  0  0  0  0
  8 23  1  6  0  0  0
  8 13  1  0  0  0  0
  8 12  1  0  0  0  0
 10 19  1  0  0  0  0
 13 18  1  1  0  0  0
 13  2  1  0  0  0  0
 14  1  1  0  0  0  0
 15  4  1  0  0  0  0
 16 12  1  6  0  0  0
 16  5  1  0  0  0  0
 16 17  1  0  0  0  0
 17  6  1  0  0  0  0
 18 10  1  0  0  0  0
 19  3  2  0  0  0  0
 19 20  1  0  0  0  0
 20 15  2  0  0  0  0
 22 23  1  0  0  0  0
 22 21  2  0  0  0  0
 24 31  1  0  0  0  0
 25 28  1  0  0  0  0
 25 30  1  0  0  0  0
 27 24  2  0  0  0  0
 28 24  1  0  0  0  0
 29 31  1  0  0  0  0
 29 26  1  1  0  0  0
 30 29  1  0  0  0  0
 30 22  1  1  0  0  0
M  END
>  <MODEL>
9

>  <REMARK>
 VINA RESULT:      -6.8      4.417      7.131
  Name = 
  2 active torsions:
  status: ('A' for Active; 'I' for Inactive)
    1  A    between atoms: C_5  and  C_30
    2  A    between atoms: C_10  and  N_16
                            x       y       z     vdW  Elec       q    Type
                         _______ _______ _______ _____ _____    ______ ____

>  <TORSDO>
F 2

$$$$
