=
 OpenBabel11122412243D

 34 40  0  0  1  0  0  0  0  0999 V2000
  188.3760  177.7200  141.0840 C   0  0  0  0  0  0  0  0  0  0  0  0
  187.9340  177.7470  138.5820 C   0  0  0  0  0  2  0  0  0  0  0  0
  186.3450  178.9270  147.1730 C   0  0  0  0  0  0  0  0  0  0  0  0
  188.3980  177.3340  143.5590 N   0  0  0  0  0  0  0  0  0  0  0  0
  186.3700  177.9690  144.8920 C   0  0  0  0  0  0  0  0  0  0  0  0
  184.1510  178.5600  145.9990 C   0  0  0  0  0  1  0  0  0  0  0  0
  185.9740  180.0970  147.4610 O   0  0  0  0  0  0  0  0  0  0  0  0
  188.0000  177.0750  147.3690 C   0  0  0  0  0  2  0  0  0  0  0  0
  186.2730  178.5390  140.0570 C   0  0  0  0  0  0  0  0  0  0  0  0
  183.2850  177.6390  139.3880 C   0  0  0  0  0  2  0  0  0  0  0  0
  185.8040  178.3370  143.7750 N   0  0  0  0  0  0  0  0  0  0  0  0
  188.4680  177.0590  145.9450 C   0  0  0  0  0  3  0  0  0  0  0  0
  185.6690  178.6000  141.2630 C   0  0  0  0  0  0  0  0  0  0  0  0
  186.7490  178.2340  137.7550 C   0  0  0  0  0  2  0  0  0  0  0  0
  187.7690  177.4270  144.8530 C   0  0  0  0  0  0  0  0  0  0  0  0
  187.5380  178.4030  147.7470 N   0  0  0  0  0  2  0  0  0  0  0  0
  184.5880  177.2840  138.6750 C   0  0  2  0  0  3  0  0  0  0  0  0
  187.6970  177.7970  142.3940 C   0  0  0  0  0  0  0  0  0  0  0  0
  185.5920  178.0920  146.1810 C   0  0  2  0  0  3  0  0  0  0  0  0
  186.4410  178.2660  142.4900 C   0  0  0  0  0  0  0  0  0  0  0  0
  190.2630  176.7020  142.1640 C   0  0  0  0  0  3  0  0  0  0  0  0
  183.4270  177.6090  140.9000 C   0  0  0  0  0  2  0  0  0  0  0  0
  189.7040  176.7530  143.3790 C   0  0  0  0  0  3  0  0  0  0  0  0
  184.1940  178.8280  141.3760 C   0  0  0  0  0  2  0  0  0  0  0  0
  185.5840  178.4630  138.7270 C   0  0  1  0  0  3  0  0  0  0  0  0
  189.5800  177.2330  141.0130 N   0  0  0  0  0  0  0  0  0  0  0  0
  187.7530  178.4280  139.9170 C   0  0  1  0  0  3  0  0  0  0  0  0
  184.2390  176.9130  137.2370 C   0  0  0  0  0  2  0  0  0  0  0  0
  184.8440  175.6360  136.8900 N   0  0  0  0  0  2  0  0  0  0  0  0
  184.1560  172.2920  137.4150 N   0  0  0  0  0  2  0  0  0  0  0  0
  182.9910  174.2860  136.8310 C   0  0  0  0  0  2  0  0  0  0  0  0
  184.1590  174.6500  137.6120 N   0  0  0  0  0  0  0  0  0  0  0  0
  182.9960  172.7820  136.6960 C   0  0  0  0  0  2  0  0  0  0  0  0
  184.9990  173.4620  137.6070 C   0  0  0  0  0  2  0  0  0  0  0  0
  1 18  1  0  0  0  0
  3  7  2  0  0  0  0
  3 16  1  0  0  0  0
  4 15  1  0  0  0  0
  5 19  1  0  0  0  0
  8 16  1  0  0  0  0
  9 13  2  0  0  0  0
 10 22  1  0  0  0  0
 11  5  2  0  0  0  0
 12  8  1  0  0  0  0
 13 24  1  0  0  0  0
 13 20  1  0  0  0  0
 14  2  1  0  0  0  0
 15  5  1  0  0  0  0
 15 12  2  0  0  0  0
 17 28  1  6  0  0  0
 17 25  1  0  0  0  0
 17 10  1  0  0  0  0
 18 20  2  0  0  0  0
 18  4  1  0  0  0  0
 19  6  1  6  0  0  0
 19  3  1  0  0  0  0
 20 11  1  0  0  0  0
 21 23  2  0  0  0  0
 22 24  1  0  0  0  0
 23  4  1  0  0  0  0
 25 14  1  6  0  0  0
 25  9  1  0  0  0  0
 26  1  2  0  0  0  0
 26 21  1  0  0  0  0
 27  2  1  6  0  0  0
 27  9  1  0  0  0  0
 27  1  1  0  0  0  0
 29 28  1  0  0  0  0
 29 32  1  0  0  0  0
 30 34  1  0  0  0  0
 31 32  1  0  0  0  0
 33 31  1  0  0  0  0
 33 30  1  0  0  0  0
 34 32  1  0  0  0  0
M  END
>  <MODEL>
1

>  <REMARK>
 VINA RESULT:      -9.3      0.000      0.000
  Name = 
  3 active torsions:
  status: ('A' for Active; 'I' for Inactive)
    1  A    between atoms: C_17  and  C_28
    2  A    between atoms: C_28  and  N_29
    3  A    between atoms: N_29  and  N_32
                            x       y       z     vdW  Elec       q    Type
                         _______ _______ _______ _____ _____    ______ ____

>  <TORSDO>
F 3

$$$$
=
 OpenBabel11122412243D

 34 40  0  0  1  0  0  0  0  0999 V2000
  187.8820  177.6110  138.4360 C   0  0  0  0  0  0  0  0  0  0  0  0
  186.4630  178.3470  140.4110 C   0  0  0  0  0  2  0  0  0  0  0  0
  193.7240  176.0300  135.9800 C   0  0  0  0  0  0  0  0  0  0  0  0
  189.3660  176.4390  136.7940 N   0  0  0  0  0  0  0  0  0  0  0  0
  191.7370  175.9510  137.4540 C   0  0  0  0  0  0  0  0  0  0  0  0
  194.0470  175.4420  138.4050 C   0  0  0  0  0  1  0  0  0  0  0  0
  194.6620  176.8660  136.0760 O   0  0  0  0  0  0  0  0  0  0  0  0
  192.0550  174.8040  134.5940 C   0  0  0  0  0  2  0  0  0  0  0  0
  188.7860  178.0610  140.7010 C   0  0  0  0  0  0  0  0  0  0  0  0
  189.6750  176.5910  143.3910 C   0  0  0  0  0  2  0  0  0  0  0  0
  191.4800  176.4870  138.6150 N   0  0  0  0  0  0  0  0  0  0  0  0
  190.8120  175.4100  135.1750 C   0  0  0  0  0  3  0  0  0  0  0  0
  189.9800  177.5280  140.3660 C   0  0  0  0  0  0  0  0  0  0  0  0
  186.8160  178.7070  141.8500 C   0  0  0  0  0  2  0  0  0  0  0  0
  190.6490  175.8980  136.4200 C   0  0  0  0  0  0  0  0  0  0  0  0
  193.1780  175.7240  134.7010 N   0  0  0  0  0  2  0  0  0  0  0  0
  188.2720  176.9030  142.8730 C   0  0  2  0  0  3  0  0  0  0  0  0
  189.1980  177.0360  138.0890 C   0  0  0  0  0  0  0  0  0  0  0  0
  193.1170  175.3940  137.1950 C   0  0  2  0  0  3  0  0  0  0  0  0
  190.2080  177.0470  138.9770 C   0  0  0  0  0  0  0  0  0  0  0  0
  187.0510  176.9020  136.2990 C   0  0  0  0  0  3  0  0  0  0  0  0
  190.5990  176.0970  142.2910 C   0  0  0  0  0  2  0  0  0  0  0  0
  188.2200  176.3710  135.9240 C   0  0  0  0  0  3  0  0  0  0  0  0
  191.0210  177.2540  141.4060 C   0  0  0  0  0  2  0  0  0  0  0  0
  188.2560  178.2360  142.0930 C   0  0  1  0  0  3  0  0  0  0  0  0
  186.9110  177.5600  137.5720 N   0  0  0  0  0  0  0  0  0  0  0  0
  187.7770  178.4510  139.6750 C   0  0  1  0  0  3  0  0  0  0  0  0
  187.3380  176.9530  144.0780 C   0  0  0  0  0  2  0  0  0  0  0  0
  187.8310  177.9120  145.0540 N   0  0  0  0  0  2  0  0  0  0  0  0
  187.6620  178.1810  148.4930 N   0  0  0  0  0  2  0  0  0  0  0  0
  189.1280  177.2890  146.8410 C   0  0  0  0  0  2  0  0  0  0  0  0
  187.7770  177.2860  146.3060 N   0  0  0  0  0  0  0  0  0  0  0  0
  189.0540  177.8710  148.2320 C   0  0  0  0  0  2  0  0  0  0  0  0
  187.0240  178.1650  147.1860 C   0  0  0  0  0  2  0  0  0  0  0  0
  1 27  1  0  0  0  0
  2 14  1  0  0  0  0
  3  7  2  0  0  0  0
  3 19  1  0  0  0  0
  4 18  1  0  0  0  0
  5 11  2  0  0  0  0
  8 16  1  0  0  0  0
  8 12  1  0  0  0  0
  9 25  1  0  0  0  0
 11 20  1  0  0  0  0
 12 15  2  0  0  0  0
 13  9  2  0  0  0  0
 13 24  1  0  0  0  0
 15  4  1  0  0  0  0
 15  5  1  0  0  0  0
 16  3  1  0  0  0  0
 17 10  1  0  0  0  0
 17 28  1  1  0  0  0
 18  1  1  0  0  0  0
 18 20  2  0  0  0  0
 19  5  1  0  0  0  0
 19  6  1  1  0  0  0
 20 13  1  0  0  0  0
 21 26  1  0  0  0  0
 22 10  1  0  0  0  0
 23 21  2  0  0  0  0
 23  4  1  0  0  0  0
 24 22  1  0  0  0  0
 25 14  1  6  0  0  0
 25 17  1  0  0  0  0
 26  1  2  0  0  0  0
 27  2  1  1  0  0  0
 27  9  1  0  0  0  0
 28 29  1  0  0  0  0
 29 32  1  0  0  0  0
 31 33  1  0  0  0  0
 32 31  1  0  0  0  0
 32 34  1  0  0  0  0
 33 30  1  0  0  0  0
 34 30  1  0  0  0  0
M  END
>  <MODEL>
2

>  <REMARK>
 VINA RESULT:      -8.9      4.054      9.101
  Name = 
  3 active torsions:
  status: ('A' for Active; 'I' for Inactive)
    1  A    between atoms: C_17  and  C_28
    2  A    between atoms: C_28  and  N_29
    3  A    between atoms: N_29  and  N_32
                            x       y       z     vdW  Elec       q    Type
                         _______ _______ _______ _____ _____    ______ ____

>  <TORSDO>
F 3

$$$$
=
 OpenBabel11122412243D

 34 40  0  0  1  0  0  0  0  0999 V2000
  190.9780  177.3960  142.4120 C   0  0  0  0  0  0  0  0  0  0  0  0
  192.6420  176.9730  140.5400 C   0  0  0  0  0  2  0  0  0  0  0  0
  184.9920  179.1720  144.3300 C   0  0  0  0  0  0  0  0  0  0  0  0
  189.0650  177.3970  144.0280 N   0  0  0  0  0  0  0  0  0  0  0  0
  186.7630  177.8960  143.1630 C   0  0  0  0  0  0  0  0  0  0  0  0
  184.5150  178.2860  142.0240 C   0  0  0  0  0  1  0  0  0  0  0  0
  184.5550  180.2970  143.9680 O   0  0  0  0  0  0  0  0  0  0  0  0
  185.8500  177.6580  146.1130 C   0  0  0  0  0  2  0  0  0  0  0  0
  190.4650  177.7050  140.0060 C   0  0  0  0  0  0  0  0  0  0  0  0
  189.0860  176.2500  137.5230 C   0  0  0  0  0  2  0  0  0  0  0  0
  187.2790  177.9950  141.9690 N   0  0  0  0  0  0  0  0  0  0  0  0
  187.2510  177.5010  145.6010 C   0  0  0  0  0  3  0  0  0  0  0  0
  189.1500  177.8510  140.2720 C   0  0  0  0  0  0  0  0  0  0  0  0
  192.5470  177.1350  139.0270 C   0  0  0  0  0  2  0  0  0  0  0  0
  187.6650  177.5840  144.3220 C   0  0  0  0  0  0  0  0  0  0  0  0
  185.2900  178.9360  145.7030 N   0  0  0  0  0  2  0  0  0  0  0  0
  190.4540  176.0030  138.1550 C   0  0  2  0  0  3  0  0  0  0  0  0
  189.5350  177.5620  142.6810 C   0  0  0  0  0  0  0  0  0  0  0  0
  185.2740  178.0870  143.3340 C   0  0  2  0  0  3  0  0  0  0  0  0
  188.6770  177.8340  141.6820 C   0  0  0  0  0  0  0  0  0  0  0  0
  191.3110  176.8660  144.7300 C   0  0  0  0  0  3  0  0  0  0  0  0
  188.0010  176.4720  138.5620 C   0  0  0  0  0  2  0  0  0  0  0  0
  190.0160  177.0110  145.0380 C   0  0  0  0  0  3  0  0  0  0  0  0
  188.1360  177.8560  139.1700 C   0  0  0  0  0  2  0  0  0  0  0  0
  191.0620  177.3200  138.6860 C   0  0  1  0  0  3  0  0  0  0  0  0
  191.7830  177.1020  143.3910 N   0  0  0  0  0  0  0  0  0  0  0  0
  191.5040  177.8110  141.0700 C   0  0  1  0  0  3  0  0  0  0  0  0
  191.3450  175.3680  137.0910 C   0  0  0  0  0  2  0  0  0  0  0  0
  191.9160  174.1290  137.5940 N   0  0  0  0  0  2  0  0  0  0  0  0
  195.2760  174.8680  137.2850 N   0  0  0  0  0  2  0  0  0  0  0  0
  193.2820  175.0420  135.9930 C   0  0  0  0  0  2  0  0  0  0  0  0
  193.1310  173.9370  136.9230 N   0  0  0  0  0  0  0  0  0  0  0  0
  194.6460  175.6420  136.2330 C   0  0  0  0  0  2  0  0  0  0  0  0
  194.1890  174.1250  137.9030 C   0  0  0  0  0  2  0  0  0  0  0  0
  1 18  1  0  0  0  0
  1 26  2  0  0  0  0
  3 16  1  0  0  0  0
  4 15  1  0  0  0  0
  4 23  1  0  0  0  0
  5 19  1  0  0  0  0
  5 15  1  0  0  0  0
  7  3  2  0  0  0  0
  9 13  2  0  0  0  0
  9 27  1  0  0  0  0
 10 17  1  0  0  0  0
 10 22  1  0  0  0  0
 11  5  2  0  0  0  0
 12  8  1  0  0  0  0
 13 20  1  0  0  0  0
 14  2  1  0  0  0  0
 15 12  2  0  0  0  0
 16  8  1  0  0  0  0
 17 28  1  6  0  0  0
 17 25  1  0  0  0  0
 18  4  1  0  0  0  0
 19  6  1  6  0  0  0
 19  3  1  0  0  0  0
 20 11  1  0  0  0  0
 20 18  2  0  0  0  0
 21 23  2  0  0  0  0
 22 24  1  0  0  0  0
 24 13  1  0  0  0  0
 25 14  1  1  0  0  0
 25  9  1  0  0  0  0
 26 21  1  0  0  0  0
 27  2  1  6  0  0  0
 27  1  1  0  0  0  0
 28 29  1  0  0  0  0
 30 34  1  0  0  0  0
 31 33  1  0  0  0  0
 31 32  1  0  0  0  0
 32 29  1  0  0  0  0
 32 34  1  0  0  0  0
 33 30  1  0  0  0  0
M  END
>  <MODEL>
3

>  <REMARK>
 VINA RESULT:      -8.7      3.385      5.518
  Name = 
  3 active torsions:
  status: ('A' for Active; 'I' for Inactive)
    1  A    between atoms: C_17  and  C_28
    2  A    between atoms: C_28  and  N_29
    3  A    between atoms: N_29  and  N_32
                            x       y       z     vdW  Elec       q    Type
                         _______ _______ _______ _____ _____    ______ ____

>  <TORSDO>
F 3

$$$$
=
 OpenBabel11122412243D

 34 40  0  0  1  0  0  0  0  0999 V2000
  188.3750  177.7980  141.0900 C   0  0  0  0  0  0  0  0  0  0  0  0
  187.9010  177.8370  138.5940 C   0  0  0  0  0  2  0  0  0  0  0  0
  186.4230  178.9740  147.2110 C   0  0  0  0  0  0  0  0  0  0  0  0
  188.4300  177.3990  143.5620 N   0  0  0  0  0  0  0  0  0  0  0  0
  186.4190  178.0280  144.9240 C   0  0  0  0  0  0  0  0  0  0  0  0
  184.2140  178.6130  146.0630 C   0  0  0  0  0  1  0  0  0  0  0  0
  186.0550  180.1420  147.5100 O   0  0  0  0  0  0  0  0  0  0  0  0
  188.0800  177.1210  147.3760 C   0  0  0  0  0  2  0  0  0  0  0  0
  186.2600  178.6220  140.0940 C   0  0  0  0  0  0  0  0  0  0  0  0
  183.2630  177.7250  139.4590 C   0  0  0  0  0  2  0  0  0  0  0  0
  185.8380  178.4010  143.8170 N   0  0  0  0  0  0  0  0  0  0  0  0
  188.5300  177.1120  145.9460 C   0  0  0  0  0  3  0  0  0  0  0  0
  185.6710  178.6770  141.3080 C   0  0  0  0  0  0  0  0  0  0  0  0
  186.7070  178.3280  137.7850 C   0  0  0  0  0  2  0  0  0  0  0  0
  187.8170  177.4860  144.8650 C   0  0  0  0  0  0  0  0  0  0  0  0
  187.6230  178.4470  147.7660 N   0  0  0  0  0  2  0  0  0  0  0  0
  184.5580  177.3740  138.7280 C   0  0  2  0  0  3  0  0  0  0  0  0
  187.7140  177.8680  142.4090 C   0  0  0  0  0  0  0  0  0  0  0  0
  185.6580  178.1440  146.2240 C   0  0  2  0  0  3  0  0  0  0  0  0
  186.4590  178.3370  142.5230 C   0  0  0  0  0  0  0  0  0  0  0  0
  190.2760  176.7750  142.1410 C   0  0  0  0  0  3  0  0  0  0  0  0
  183.4250  177.6880  140.9690 C   0  0  0  0  0  2  0  0  0  0  0  0
  189.7330  176.8190  143.3630 C   0  0  0  0  0  3  0  0  0  0  0  0
  184.1980  178.9040  141.4410 C   0  0  0  0  0  2  0  0  0  0  0  0
  185.5540  178.5530  138.7730 C   0  0  1  0  0  3  0  0  0  0  0  0
  189.5790  177.3110  141.0010 N   0  0  0  0  0  0  0  0  0  0  0  0
  187.7380  178.5110  139.9350 C   0  0  1  0  0  3  0  0  0  0  0  0
  184.1900  177.0100  137.2930 C   0  0  0  0  0  2  0  0  0  0  0  0
  183.5590  175.7000  137.2560 N   0  0  0  0  0  2  0  0  0  0  0  0
  181.5220  177.5570  135.1750 N   0  0  0  0  0  2  0  0  0  0  0  0
  181.3060  175.9100  136.8810 C   0  0  0  0  0  2  0  0  0  0  0  0
  182.5970  175.7380  136.2380 N   0  0  0  0  0  0  0  0  0  0  0  0
  180.6260  177.0780  136.2090 C   0  0  0  0  0  2  0  0  0  0  0  0
  182.8130  176.9700  135.4970 C   0  0  0  0  0  2  0  0  0  0  0  0
  1 18  1  0  0  0  0
  3  7  2  0  0  0  0
  3 16  1  0  0  0  0
  4 15  1  0  0  0  0
  5 19  1  0  0  0  0
  8 16  1  0  0  0  0
  9 13  2  0  0  0  0
 10 22  1  0  0  0  0
 11  5  2  0  0  0  0
 12  8  1  0  0  0  0
 13 24  1  0  0  0  0
 13 20  1  0  0  0  0
 14  2  1  0  0  0  0
 15  5  1  0  0  0  0
 15 12  2  0  0  0  0
 17 28  1  6  0  0  0
 17 25  1  0  0  0  0
 17 10  1  0  0  0  0
 18 20  2  0  0  0  0
 18  4  1  0  0  0  0
 19  6  1  6  0  0  0
 19  3  1  0  0  0  0
 20 11  1  0  0  0  0
 21 23  2  0  0  0  0
 22 24  1  0  0  0  0
 23  4  1  0  0  0  0
 25 14  1  6  0  0  0
 25  9  1  0  0  0  0
 26  1  2  0  0  0  0
 26 21  1  0  0  0  0
 27  2  1  6  0  0  0
 27  9  1  0  0  0  0
 27  1  1  0  0  0  0
 29 28  1  0  0  0  0
 30 34  1  0  0  0  0
 30 33  1  0  0  0  0
 32 31  1  0  0  0  0
 32 29  1  0  0  0  0
 33 31  1  0  0  0  0
 34 32  1  0  0  0  0
M  END
>  <MODEL>
4

>  <REMARK>
 VINA RESULT:      -8.6      1.204      1.702
  Name = 
  3 active torsions:
  status: ('A' for Active; 'I' for Inactive)
    1  A    between atoms: C_17  and  C_28
    2  A    between atoms: C_28  and  N_29
    3  A    between atoms: N_29  and  N_32
                            x       y       z     vdW  Elec       q    Type
                         _______ _______ _______ _____ _____    ______ ____

>  <TORSDO>
F 3

$$$$
=
 OpenBabel11122412243D

 34 40  0  0  1  0  0  0  0  0999 V2000
  182.2170  178.8290  143.7190 C   0  0  0  0  0  0  0  0  0  0  0  0
  183.8120  178.9950  145.6900 C   0  0  0  0  0  2  0  0  0  0  0  0
  181.2020  178.9800  137.2690 C   0  0  0  0  0  0  0  0  0  0  0  0
  180.9430  178.2250  141.6490 N   0  0  0  0  0  0  0  0  0  0  0  0
  182.1420  178.2710  139.4460 C   0  0  0  0  0  0  0  0  0  0  0  0
  183.6090  178.2530  137.3600 C   0  0  0  0  0  1  0  0  0  0  0  0
  181.5550  180.0060  136.6290 O   0  0  0  0  0  0  0  0  0  0  0  0
  179.4060  177.5250  138.2000 C   0  0  0  0  0  2  0  0  0  0  0  0
  184.6480  179.2610  143.5010 C   0  0  0  0  0  0  0  0  0  0  0  0
  187.4170  177.7950  142.8900 C   0  0  0  0  0  2  0  0  0  0  0  0
  183.2250  178.6090  140.0900 N   0  0  0  0  0  0  0  0  0  0  0  0
  179.6880  177.7480  139.6560 C   0  0  0  0  0  3  0  0  0  0  0  0
  184.5950  179.0730  142.1650 C   0  0  0  0  0  0  0  0  0  0  0  0
  185.3060  179.2870  145.7780 C   0  0  0  0  0  2  0  0  0  0  0  0
  180.8740  178.0550  140.2190 C   0  0  0  0  0  0  0  0  0  0  0  0
  179.8180  178.6770  137.4120 N   0  0  0  0  0  2  0  0  0  0  0  0
  186.5850  177.8030  144.1710 C   0  0  2  0  0  3  0  0  0  0  0  0
  182.1800  178.6310  142.2550 C   0  0  0  0  0  0  0  0  0  0  0  0
  182.2070  178.0970  137.9460 C   0  0  2  0  0  3  0  0  0  0  0  0
  183.2870  178.8020  141.5120 C   0  0  0  0  0  0  0  0  0  0  0  0
  179.9160  178.1530  143.8310 C   0  0  0  0  0  3  0  0  0  0  0  0
  186.5590  177.6540  141.6450 C   0  0  0  0  0  2  0  0  0  0  0  0
  179.8180  177.9640  142.5090 C   0  0  0  0  0  3  0  0  0  0  0  0
  185.8470  178.9610  141.3520 C   0  0  0  0  0  2  0  0  0  0  0  0
  185.8750  179.1620  144.3580 C   0  0  1  0  0  3  0  0  0  0  0  0
  181.1400  178.6280  144.4210 N   0  0  0  0  0  0  0  0  0  0  0  0
  183.4230  179.4910  144.3180 C   0  0  1  0  0  3  0  0  0  0  0  0
  187.5260  177.5030  145.3330 C   0  0  0  0  0  2  0  0  0  0  0  0
  188.7730  176.9450  144.8340 N   0  0  0  0  0  2  0  0  0  0  0  0
  191.9330  176.7530  146.2160 N   0  0  0  0  0  2  0  0  0  0  0  0
  189.6910  177.1260  146.9290 C   0  0  0  0  0  2  0  0  0  0  0  0
  189.8110  177.5580  145.5480 N   0  0  0  0  0  0  0  0  0  0  0  0
  191.0420  176.6010  147.3500 C   0  0  0  0  0  2  0  0  0  0  0  0
  191.0540  176.9690  145.0770 C   0  0  0  0  0  2  0  0  0  0  0  0
  1 27  1  0  0  0  0
  1 26  2  0  0  0  0
  2 14  1  0  0  0  0
  3 16  1  0  0  0  0
  3 19  1  0  0  0  0
  4 18  1  0  0  0  0
  4 23  1  0  0  0  0
  5 11  2  0  0  0  0
  5 15  1  0  0  0  0
  7  3  2  0  0  0  0
  8 12  1  0  0  0  0
  9 27  1  0  0  0  0
  9 25  1  0  0  0  0
 10 17  1  0  0  0  0
 11 20  1  0  0  0  0
 12 15  2  0  0  0  0
 13  9  2  0  0  0  0
 15  4  1  0  0  0  0
 16  8  1  0  0  0  0
 17 25  1  0  0  0  0
 17 28  1  1  0  0  0
 18  1  1  0  0  0  0
 19  6  1  6  0  0  0
 19  5  1  0  0  0  0
 20 13  1  0  0  0  0
 20 18  2  0  0  0  0
 21 26  1  0  0  0  0
 22 10  1  0  0  0  0
 23 21  2  0  0  0  0
 24 22  1  0  0  0  0
 24 13  1  0  0  0  0
 25 14  1  1  0  0  0
 27  2  1  1  0  0  0
 29 28  1  0  0  0  0
 29 32  1  0  0  0  0
 30 33  1  0  0  0  0
 31 33  1  0  0  0  0
 32 31  1  0  0  0  0
 34 32  1  0  0  0  0
 34 30  1  0  0  0  0
M  END
>  <MODEL>
5

>  <REMARK>
 VINA RESULT:      -8.4      3.493      8.766
  Name = 
  3 active torsions:
  status: ('A' for Active; 'I' for Inactive)
    1  A    between atoms: C_17  and  C_28
    2  A    between atoms: C_28  and  N_29
    3  A    between atoms: N_29  and  N_32
                            x       y       z     vdW  Elec       q    Type
                         _______ _______ _______ _____ _____    ______ ____

>  <TORSDO>
F 3

$$$$
=
 OpenBabel11122412243D

 34 40  0  0  1  0  0  0  0  0999 V2000
  189.2270  177.7660  139.8260 C   0  0  0  0  0  0  0  0  0  0  0  0
  189.8090  177.5740  137.3600 C   0  0  0  0  0  2  0  0  0  0  0  0
  184.9040  179.2520  144.4910 C   0  0  0  0  0  0  0  0  0  0  0  0
  188.2870  177.5650  142.1390 N   0  0  0  0  0  0  0  0  0  0  0  0
  185.8710  178.1350  142.5060 C   0  0  0  0  0  0  0  0  0  0  0  0
  183.3710  178.6280  142.5970 C   0  0  0  0  0  1  0  0  0  0  0  0
  184.3990  180.4070  144.4960 O   0  0  0  0  0  0  0  0  0  0  0  0
  186.4260  177.5550  145.4980 C   0  0  0  0  0  2  0  0  0  0  0  0
  187.6680  178.3390  137.9860 C   0  0  0  0  0  0  0  0  0  0  0  0
  185.2300  177.1600  136.2970 C   0  0  0  0  0  2  0  0  0  0  0  0
  185.7760  178.3730  141.2270 N   0  0  0  0  0  0  0  0  0  0  0  0
  187.4200  177.4720  144.3780 C   0  0  0  0  0  3  0  0  0  0  0  0
  186.6350  178.4400  138.8480 C   0  0  0  0  0  0  0  0  0  0  0  0
  189.0280  177.9050  136.0940 C   0  0  0  0  0  2  0  0  0  0  0  0
  187.1940  177.7030  143.0700 C   0  0  0  0  0  0  0  0  0  0  0  0
  185.7960  178.8660  145.5330 N   0  0  0  0  0  2  0  0  0  0  0  0
  186.7230  176.8570  136.1870 C   0  0  2  0  0  3  0  0  0  0  0  0
  188.0830  177.8850  140.7540 C   0  0  0  0  0  0  0  0  0  0  0  0
  184.6430  178.2890  143.3720 C   0  0  2  0  0  3  0  0  0  0  0  0
  186.8720  178.2590  140.3050 C   0  0  0  0  0  0  0  0  0  0  0  0
  190.5760  176.9820  141.6500 C   0  0  0  0  0  3  0  0  0  0  0  0
  184.7640  177.2520  137.7400 C   0  0  0  0  0  2  0  0  0  0  0  0
  189.5810  177.0770  142.5410 C   0  0  0  0  0  3  0  0  0  0  0  0
  185.2270  178.5590  138.3550 C   0  0  0  0  0  2  0  0  0  0  0  0
  187.5650  178.1120  136.5070 C   0  0  1  0  0  3  0  0  0  0  0  0
  190.3810  177.3710  140.2780 N   0  0  0  0  0  0  0  0  0  0  0  0
  189.0860  178.3350  138.4460 C   0  0  1  0  0  3  0  0  0  0  0  0
  186.9870  176.3560  134.7710 C   0  0  0  0  0  2  0  0  0  0  0  0
  187.0770  174.9040  134.7640 N   0  0  0  0  0  2  0  0  0  0  0  0
  189.2250  172.9120  136.5940 N   0  0  0  0  0  2  0  0  0  0  0  0
  186.8850  173.3150  136.4070 C   0  0  0  0  0  2  0  0  0  0  0  0
  187.5910  174.5200  136.0100 N   0  0  0  0  0  0  0  0  0  0  0  0
  187.9290  172.2860  136.7680 C   0  0  0  0  0  2  0  0  0  0  0  0
  188.9640  174.0940  135.7880 C   0  0  0  0  0  2  0  0  0  0  0  0
  1 26  2  0  0  0  0
  1 18  1  0  0  0  0
  3  7  2  0  0  0  0
  3 16  1  0  0  0  0
  4 23  1  0  0  0  0
  4 15  1  0  0  0  0
  5 15  1  0  0  0  0
  5 19  1  0  0  0  0
  8 16  1  0  0  0  0
  9 27  1  0  0  0  0
  9 13  2  0  0  0  0
 10 22  1  0  0  0  0
 11  5  2  0  0  0  0
 12  8  1  0  0  0  0
 13 20  1  0  0  0  0
 14  2  1  0  0  0  0
 15 12  2  0  0  0  0
 17 28  1  6  0  0  0
 17 10  1  0  0  0  0
 17 25  1  0  0  0  0
 18  4  1  0  0  0  0
 19  6  1  6  0  0  0
 19  3  1  0  0  0  0
 20 18  2  0  0  0  0
 20 11  1  0  0  0  0
 21 23  2  0  0  0  0
 22 24  1  0  0  0  0
 24 13  1  0  0  0  0
 25 14  1  1  0  0  0
 25  9  1  0  0  0  0
 26 21  1  0  0  0  0
 27  2  1  6  0  0  0
 27  1  1  0  0  0  0
 29 28  1  0  0  0  0
 29 32  1  0  0  0  0
 30 33  1  0  0  0  0
 31 33  1  0  0  0  0
 32 31  1  0  0  0  0
 34 32  1  0  0  0  0
 34 30  1  0  0  0  0
M  END
>  <MODEL>
6

>  <REMARK>
 VINA RESULT:      -8.3      2.167      2.979
  Name = 
  3 active torsions:
  status: ('A' for Active; 'I' for Inactive)
    1  A    between atoms: C_17  and  C_28
    2  A    between atoms: C_28  and  N_29
    3  A    between atoms: N_29  and  N_32
                            x       y       z     vdW  Elec       q    Type
                         _______ _______ _______ _____ _____    ______ ____

>  <TORSDO>
F 3

$$$$
=
 OpenBabel11122412243D

 34 40  0  0  1  0  0  0  0  0999 V2000
  188.0620  177.9200  142.0310 C   0  0  0  0  0  0  0  0  0  0  0  0
  186.2210  178.5960  140.4160 C   0  0  0  0  0  2  0  0  0  0  0  0
  190.4080  177.7050  148.1230 C   0  0  0  0  0  0  0  0  0  0  0  0
  189.4880  176.9300  143.8360 N   0  0  0  0  0  0  0  0  0  0  0  0
  188.8560  177.3450  146.2290 C   0  0  0  0  0  0  0  0  0  0  0  0
  187.9320  177.7840  148.5640 C   0  0  0  0  0  1  0  0  0  0  0  0
  190.5360  178.7880  148.7550 O   0  0  0  0  0  0  0  0  0  0  0  0
  191.4200  175.7590  146.9420 C   0  0  0  0  0  2  0  0  0  0  0  0
  185.9910  179.1030  142.7070 C   0  0  0  0  0  0  0  0  0  0  0  0
  183.0970  178.5940  143.9530 C   0  0  0  0  0  2  0  0  0  0  0  0
  187.8240  178.0140  145.7960 N   0  0  0  0  0  0  0  0  0  0  0  0
  190.9210  176.0670  145.5610 C   0  0  0  0  0  3  0  0  0  0  0  0
  186.2630  178.9020  144.0140 C   0  0  0  0  0  0  0  0  0  0  0  0
  184.9100  179.3490  140.6120 C   0  0  0  0  0  2  0  0  0  0  0  0
  189.8010  176.7390  145.2310 C   0  0  0  0  0  0  0  0  0  0  0  0
  191.5650  176.9780  147.7230 N   0  0  0  0  0  2  0  0  0  0  0  0
  183.6000  178.3430  142.5330 C   0  0  2  0  0  3  0  0  0  0  0  0
  188.3420  177.7130  143.4670 C   0  0  0  0  0  0  0  0  0  0  0  0
  189.0580  177.1930  147.7180 C   0  0  2  0  0  3  0  0  0  0  0  0
  187.5270  178.2240  144.4060 C   0  0  0  0  0  0  0  0  0  0  0  0
  189.9570  176.5450  141.5010 C   0  0  0  0  0  3  0  0  0  0  0  0
  184.1100  178.1800  145.0070 C   0  0  0  0  0  2  0  0  0  0  0  0
  190.2680  176.3280  142.7850 C   0  0  0  0  0  3  0  0  0  0  0  0
  185.2400  179.1900  145.0680 C   0  0  0  0  0  2  0  0  0  0  0  0
  184.6430  179.4060  142.1220 C   0  0  1  0  0  3  0  0  0  0  0  0
  188.8470  177.3890  141.1410 N   0  0  0  0  0  0  0  0  0  0  0  0
  187.0250  178.9340  141.6480 C   0  0  1  0  0  3  0  0  0  0  0  0
  182.3890  178.3650  141.6060 C   0  0  0  0  0  2  0  0  0  0  0  0
  181.2020  178.7660  142.3440 N   0  0  0  0  0  2  0  0  0  0  0  0
  180.0810  180.8620  139.8380 N   0  0  0  0  0  2  0  0  0  0  0  0
  179.3810  180.1150  141.9890 C   0  0  0  0  0  2  0  0  0  0  0  0
  180.2200  179.0880  141.3970 N   0  0  0  0  0  0  0  0  0  0  0  0
  179.3020  181.2510  140.9970 C   0  0  0  0  0  2  0  0  0  0  0  0
  180.8980  179.7480  140.2930 C   0  0  0  0  0  2  0  0  0  0  0  0
  1 18  1  0  0  0  0
  2 14  1  0  0  0  0
  3  7  2  0  0  0  0
  4 15  1  0  0  0  0
  5 19  1  0  0  0  0
  8 16  1  0  0  0  0
  9 13  2  0  0  0  0
 10 22  1  0  0  0  0
 11  5  2  0  0  0  0
 12  8  1  0  0  0  0
 13 20  1  0  0  0  0
 13 24  1  0  0  0  0
 15 12  2  0  0  0  0
 15  5  1  0  0  0  0
 16  3  1  0  0  0  0
 17 28  1  6  0  0  0
 17 10  1  0  0  0  0
 18  4  1  0  0  0  0
 18 20  2  0  0  0  0
 19  3  1  0  0  0  0
 19  6  1  1  0  0  0
 20 11  1  0  0  0  0
 21 23  2  0  0  0  0
 22 24  1  0  0  0  0
 23  4  1  0  0  0  0
 25 14  1  6  0  0  0
 25 17  1  0  0  0  0
 25  9  1  0  0  0  0
 26 21  1  0  0  0  0
 26  1  2  0  0  0  0
 27  2  1  6  0  0  0
 27  1  1  0  0  0  0
 27  9  1  0  0  0  0
 28 29  1  0  0  0  0
 30 34  1  0  0  0  0
 30 33  1  0  0  0  0
 32 31  1  0  0  0  0
 32 29  1  0  0  0  0
 33 31  1  0  0  0  0
 34 32  1  0  0  0  0
M  END
>  <MODEL>
7

>  <REMARK>
 VINA RESULT:      -8.0      3.357      4.661
  Name = 
  3 active torsions:
  status: ('A' for Active; 'I' for Inactive)
    1  A    between atoms: C_17  and  C_28
    2  A    between atoms: C_28  and  N_29
    3  A    between atoms: N_29  and  N_32
                            x       y       z     vdW  Elec       q    Type
                         _______ _______ _______ _____ _____    ______ ____

>  <TORSDO>
F 3

$$$$
=
 OpenBabel11122412243D

 34 40  0  0  1  0  0  0  0  0999 V2000
  190.7960  177.1600  142.0000 C   0  0  0  0  0  0  0  0  0  0  0  0
  192.2960  176.6540  140.0130 C   0  0  0  0  0  2  0  0  0  0  0  0
  185.0950  179.3190  144.3460 C   0  0  0  0  0  0  0  0  0  0  0  0
  189.0010  177.2680  143.7430 N   0  0  0  0  0  0  0  0  0  0  0  0
  186.6870  177.9420  143.0440 C   0  0  0  0  0  0  0  0  0  0  0  0
  184.4020  178.5090  142.0680 C   0  0  0  0  0  1  0  0  0  0  0  0
  184.7160  180.4780  144.0290 O   0  0  0  0  0  0  0  0  0  0  0  0
  185.9620  177.7180  146.0480 C   0  0  0  0  0  2  0  0  0  0  0  0
  190.1450  177.5460  139.6390 C   0  0  0  0  0  0  0  0  0  0  0  0
  188.5010  176.2350  137.2380 C   0  0  0  0  0  2  0  0  0  0  0  0
  187.1280  178.0260  141.8190 N   0  0  0  0  0  0  0  0  0  0  0  0
  187.3100  177.4720  145.4390 C   0  0  0  0  0  3  0  0  0  0  0  0
  188.8640  177.7790  139.9960 C   0  0  0  0  0  0  0  0  0  0  0  0
  192.1100  176.8480  138.5120 C   0  0  0  0  0  2  0  0  0  0  0  0
  187.6410  177.5470  144.1340 C   0  0  0  0  0  0  0  0  0  0  0  0
  185.4680  179.0400  145.6920 N   0  0  0  0  0  2  0  0  0  0  0  0
  189.8880  175.8820  137.7720 C   0  0  2  0  0  3  0  0  0  0  0  0
  189.3900  177.4220  142.3700 C   0  0  0  0  0  0  0  0  0  0  0  0
  185.2310  178.2340  143.3200 C   0  0  2  0  0  3  0  0  0  0  0  0
  188.4880  177.7710  141.4350 C   0  0  0  0  0  0  0  0  0  0  0  0
  191.2460  176.5690  144.2830 C   0  0  0  0  0  3  0  0  0  0  0  0
  187.5070  176.5150  138.3530 C   0  0  0  0  0  2  0  0  0  0  0  0
  189.9890  176.7990  144.6810 C   0  0  0  0  0  3  0  0  0  0  0  0
  187.7820  177.8750  138.9670 C   0  0  0  0  0  2  0  0  0  0  0  0
  190.6230  177.1430  138.2760 C   0  0  1  0  0  3  0  0  0  0  0  0
  191.6430  176.7940  142.9170 N   0  0  0  0  0  0  0  0  0  0  0  0
  191.2580  177.5600  140.6300 C   0  0  1  0  0  3  0  0  0  0  0  0
  190.6570  175.2040  136.6420 C   0  0  0  0  0  2  0  0  0  0  0  0
  190.4030  173.7720  136.6540 N   0  0  0  0  0  2  0  0  0  0  0  0
  188.0610  171.9050  134.9340 N   0  0  0  0  0  2  0  0  0  0  0  0
  190.4150  172.2640  134.9250 C   0  0  0  0  0  2  0  0  0  0  0  0
  189.7710  173.4580  135.4440 N   0  0  0  0  0  0  0  0  0  0  0  0
  189.3230  171.2700  134.6120 C   0  0  0  0  0  2  0  0  0  0  0  0
  188.4160  173.0410  135.7690 C   0  0  0  0  0  2  0  0  0  0  0  0
  1 18  1  0  0  0  0
  1 26  2  0  0  0  0
  3 16  1  0  0  0  0
  4 15  1  0  0  0  0
  4 23  1  0  0  0  0
  5 19  1  0  0  0  0
  5 15  1  0  0  0  0
  7  3  2  0  0  0  0
  9 13  2  0  0  0  0
  9 27  1  0  0  0  0
 10 17  1  0  0  0  0
 10 22  1  0  0  0  0
 11  5  2  0  0  0  0
 12  8  1  0  0  0  0
 13 20  1  0  0  0  0
 14  2  1  0  0  0  0
 15 12  2  0  0  0  0
 16  8  1  0  0  0  0
 17 28  1  6  0  0  0
 17 25  1  0  0  0  0
 18  4  1  0  0  0  0
 19  6  1  6  0  0  0
 19  3  1  0  0  0  0
 20 11  1  0  0  0  0
 20 18  2  0  0  0  0
 21 23  2  0  0  0  0
 22 24  1  0  0  0  0
 24 13  1  0  0  0  0
 25 14  1  1  0  0  0
 25  9  1  0  0  0  0
 26 21  1  0  0  0  0
 27  2  1  6  0  0  0
 27  1  1  0  0  0  0
 28 29  1  0  0  0  0
 30 34  1  0  0  0  0
 31 32  1  0  0  0  0
 32 34  1  0  0  0  0
 32 29  1  0  0  0  0
 33 31  1  0  0  0  0
 33 30  1  0  0  0  0
M  END
>  <MODEL>
8

>  <REMARK>
 VINA RESULT:      -7.9      2.934      4.199
  Name = 
  3 active torsions:
  status: ('A' for Active; 'I' for Inactive)
    1  A    between atoms: C_17  and  C_28
    2  A    between atoms: C_28  and  N_29
    3  A    between atoms: N_29  and  N_32
                            x       y       z     vdW  Elec       q    Type
                         _______ _______ _______ _____ _____    ______ ____

>  <TORSDO>
F 3

$$$$
=
 OpenBabel11122412243D

 34 40  0  0  1  0  0  0  0  0999 V2000
  186.0450  178.2060  145.8480 C   0  0  0  0  0  0  0  0  0  0  0  0
  184.0490  178.7030  144.3570 C   0  0  0  0  0  2  0  0  0  0  0  0
  192.0360  175.7120  146.5890 C   0  0  0  0  0  0  0  0  0  0  0  0
  188.2740  178.0610  146.9810 N   0  0  0  0  0  0  0  0  0  0  0  0
  190.2170  177.1310  145.6940 C   0  0  0  0  0  0  0  0  0  0  0  0
  192.0560  176.2900  144.1410 C   0  0  0  0  0  1  0  0  0  0  0  0
  192.2250  174.5030  146.2860 O   0  0  0  0  0  0  0  0  0  0  0  0
  191.8330  177.5030  148.3100 C   0  0  0  0  0  2  0  0  0  0  0  0
  185.9210  177.5940  143.4480 C   0  0  0  0  0  0  0  0  0  0  0  0
  186.8400  178.5760  140.5530 C   0  0  0  0  0  2  0  0  0  0  0  0
  189.4210  177.0000  144.6690 N   0  0  0  0  0  0  0  0  0  0  0  0
  190.3830  177.8260  148.1080 C   0  0  0  0  0  3  0  0  0  0  0  0
  187.2320  177.2720  143.4290 C   0  0  0  0  0  0  0  0  0  0  0  0
  183.7570  178.3860  142.8950 C   0  0  0  0  0  2  0  0  0  0  0  0
  189.6670  177.6880  146.9750 C   0  0  0  0  0  0  0  0  0  0  0  0
  192.1090  176.1200  147.9510 N   0  0  0  0  0  2  0  0  0  0  0  0
  185.7060  179.0910  141.4390 C   0  0  2  0  0  3  0  0  0  0  0  0
  187.4770  177.8450  145.8060 C   0  0  0  0  0  0  0  0  0  0  0  0
  191.6660  176.7280  145.5500 C   0  0  2  0  0  3  0  0  0  0  0  0
  188.0270  177.3490  144.6840 C   0  0  0  0  0  0  0  0  0  0  0  0
  186.3490  178.9980  148.0930 C   0  0  0  0  0  3  0  0  0  0  0  0
  188.1050  178.2870  141.3430 C   0  0  0  0  0  2  0  0  0  0  0  0
  187.6500  178.6840  148.1200 C   0  0  0  0  0  3  0  0  0  0  0  0
  187.9420  177.0050  142.1380 C   0  0  0  0  0  2  0  0  0  0  0  0
  185.0790  177.9400  142.2560 C   0  0  1  0  0  3  0  0  0  0  0  0
  185.5430  178.7130  146.9360 N   0  0  0  0  0  0  0  0  0  0  0  0
  185.1630  177.7530  144.7220 C   0  0  1  0  0  3  0  0  0  0  0  0
  184.6760  179.7530  140.5290 C   0  0  0  0  0  2  0  0  0  0  0  0
  184.9280  179.3890  139.1430 N   0  0  0  0  0  2  0  0  0  0  0  0
  181.6890  178.3090  139.6700 N   0  0  0  0  0  2  0  0  0  0  0  0
  183.7220  177.4780  138.7470 C   0  0  0  0  0  2  0  0  0  0  0  0
  183.7160  178.9250  138.6160 N   0  0  0  0  0  0  0  0  0  0  0  0
  182.4330  177.0880  139.4310 C   0  0  0  0  0  2  0  0  0  0  0  0
  182.6630  179.3780  139.5110 C   0  0  0  0  0  2  0  0  0  0  0  0
  1 26  2  0  0  0  0
  3 16  1  0  0  0  0
  4 23  1  0  0  0  0
  5 15  1  0  0  0  0
  7  3  2  0  0  0  0
  9 27  1  0  0  0  0
 10 22  1  0  0  0  0
 10 17  1  0  0  0  0
 11 20  1  0  0  0  0
 11  5  2  0  0  0  0
 12  8  1  0  0  0  0
 13  9  2  0  0  0  0
 13 20  1  0  0  0  0
 14  2  1  0  0  0  0
 15  4  1  0  0  0  0
 15 12  2  0  0  0  0
 16  8  1  0  0  0  0
 17 28  1  6  0  0  0
 17 25  1  0  0  0  0
 18  1  1  0  0  0  0
 18  4  1  0  0  0  0
 19  6  1  6  0  0  0
 19  5  1  0  0  0  0
 19  3  1  0  0  0  0
 20 18  2  0  0  0  0
 21 23  2  0  0  0  0
 22 24  1  0  0  0  0
 24 13  1  0  0  0  0
 25 14  1  1  0  0  0
 25  9  1  0  0  0  0
 26 21  1  0  0  0  0
 27  2  1  6  0  0  0
 27  1  1  0  0  0  0
 29 28  1  0  0  0  0
 31 33  1  0  0  0  0
 32 31  1  0  0  0  0
 32 29  1  0  0  0  0
 32 34  1  0  0  0  0
 33 30  1  0  0  0  0
 34 30  1  0  0  0  0
M  END
>  <MODEL>
9

>  <REMARK>
 VINA RESULT:      -7.8      2.929      5.210
  Name = 
  3 active torsions:
  status: ('A' for Active; 'I' for Inactive)
    1  A    between atoms: C_17  and  C_28
    2  A    between atoms: C_28  and  N_29
    3  A    between atoms: N_29  and  N_32
                            x       y       z     vdW  Elec       q    Type
                         _______ _______ _______ _____ _____    ______ ____

>  <TORSDO>
F 3

$$$$
