=
 OpenBabel11122410473D

 32 37  0  0  1  0  0  0  0  0999 V2000
  182.8410  179.4380  139.6800 C   0  0  1  0  0  3  0  0  0  0  0  0
  179.6800  176.7550  141.1130 C   0  0  0  0  0  2  0  0  0  0  0  0
  178.9310  176.7290  139.8680 N   0  0  0  0  0  0  0  0  0  0  0  0
  181.6560  181.3190  138.4310 C   0  0  0  0  0  0  0  0  0  0  0  0
  180.6850  181.7250  137.5190 C   0  0  0  0  0  0  0  0  0  0  0  0
  185.3670  179.2570  139.7390 N   0  0  0  0  0  0  0  0  0  0  0  0
  183.8220  177.5530  140.7800 C   0  0  0  0  0  2  0  0  0  0  0  0
  178.9310  181.6180  136.0340 C   0  0  1  0  0  3  0  0  0  0  0  0
  180.8980  177.6670  141.0320 C   0  0  0  0  0  2  0  0  0  0  0  0
  182.9790  177.9750  139.6590 N   0  0  1  0  0  0  0  0  0  0  0  0
  181.6850  177.2930  139.7710 C   0  0  2  0  0  3  0  0  0  0  0  0
  180.8200  179.0280  138.1620 C   0  0  0  0  0  0  0  0  0  0  0  0
  179.3370  183.0340  136.1720 N   0  0  0  0  0  0  0  0  0  0  0  0
  185.1170  178.3770  140.8950 C   0  0  2  0  0  3  0  0  0  0  0  0
  180.4070  183.0350  137.0920 N   0  0  0  0  0  0  0  0  0  0  0  0
  179.4270  177.0280  138.7130 C   0  0  0  0  0  3  0  0  0  0  0  0
  180.8350  177.5580  138.5240 C   0  0  2  0  0  3  0  0  0  0  0  0
  179.8690  179.4970  137.2300 C   0  0  0  0  0  3  0  0  0  0  0  0
  184.2060  180.0700  139.3440 C   0  0  0  0  0  2  0  0  0  0  0  0
  182.4560  182.2430  139.0210 F   0  0  0  0  0  0  0  0  0  0  0  0
  179.1090  181.1780  134.5940 C   0  0  0  0  0  1  0  0  0  0  0  0
  181.7720  179.9350  138.7190 C   0  0  0  0  0  0  0  0  0  0  0  0
  179.8460  180.8530  136.9230 C   0  0  0  0  0  0  0  0  0  0  0  0
  184.0140  178.6810  143.1020 C   0  0  0  0  0  2  0  0  0  0  0  0
  185.1140  179.1810  142.1860 C   0  0  1  0  0  3  0  0  0  0  0  0
  185.4480  178.2650  143.3480 C   0  0  1  0  0  3  0  0  0  0  0  0
  186.0340  179.0950  144.4730 C   0  0  0  0  0  2  0  0  0  0  0  0
  185.8190  178.4080  145.7760 C   0  0  0  0  0  0  0  0  0  0  0  0
  186.4650  177.1690  146.0440 N   0  0  0  0  0  1  0  0  0  0  0  0
  185.0390  178.9060  146.6290 O   0  0  0  0  0  0  0  0  0  0  0  0
  187.1930  177.9440  138.8080 C   0  0  0  0  0  1  0  0  0  0  0  0
  185.7800  178.4530  138.5960 C   0  0  0  0  0  2  0  0  0  0  0  0
  1 19  1  6  0  0  0
  3  2  1  0  0  0  0
  4 22  1  0  0  0  0
  4 20  1  0  0  0  0
  5  4  2  0  0  0  0
  6 14  1  0  0  0  0
  8 21  1  6  0  0  0
  8 13  1  0  0  0  0
  8 23  1  0  0  0  0
  9  2  1  0  0  0  0
 10  1  1  0  0  0  0
 10 11  1  0  0  0  0
 10  7  1  1  0  0  0
 11  9  1  1  0  0  0
 12 17  1  0  0  0  0
 12 22  2  0  0  0  0
 13 15  2  0  0  0  0
 14  7  1  6  0  0  0
 14 25  1  0  0  0  0
 15  5  1  0  0  0  0
 16  3  2  0  0  0  0
 17 16  1  1  0  0  0
 17 11  1  0  0  0  0
 18 12  1  0  0  0  0
 19  6  1  0  0  0  0
 22  1  1  0  0  0  0
 23 18  2  0  0  0  0
 23  5  1  0  0  0  0
 24 26  1  0  0  0  0
 25 24  1  1  0  0  0
 25 26  1  0  0  0  0
 26 27  1  1  0  0  0
 27 28  1  0  0  0  0
 28 29  1  0  0  0  0
 28 30  2  0  0  0  0
 32 31  1  0  0  0  0
 32  6  1  0  0  0  0
M  END
>  <MODEL>
1

>  <REMARK>
 VINA RESULT:      -5.8      0.000      0.000
  Name = 
  4 active torsions:
  status: ('A' for Active; 'I' for Inactive)
    1  A    between atoms: N_7  and  C_19
    2  A    between atoms: C_10  and  C_17
    3  A    between atoms: C_20  and  C_29
    4  A    between atoms: C_29  and  C_30
                            x       y       z     vdW  Elec       q    Type
                         _______ _______ _______ _____ _____    ______ ____

>  <TORSDO>
F 4

$$$$
=
 OpenBabel11122410473D

 32 37  0  0  1  0  0  0  0  0999 V2000
  192.6220  175.3550  136.6980 C   0  0  1  0  0  3  0  0  0  0  0  0
  190.2580  172.0240  135.0980 C   0  0  0  0  0  2  0  0  0  0  0  0
  189.0870  172.8170  134.7650 N   0  0  0  0  0  0  0  0  0  0  0  0
  191.0450  176.6780  138.2040 C   0  0  0  0  0  0  0  0  0  0  0  0
  189.7980  177.2590  138.4150 C   0  0  0  0  0  0  0  0  0  0  0  0
  194.9760  176.1480  136.2030 N   0  0  0  0  0  0  0  0  0  0  0  0
  193.9520  174.0860  135.1660 C   0  0  0  0  0  2  0  0  0  0  0  0
  187.6070  177.8690  138.0640 C   0  0  1  0  0  3  0  0  0  0  0  0
  191.3500  172.8570  135.7570 C   0  0  0  0  0  2  0  0  0  0  0  0
  192.7420  174.8990  135.3050 N   0  0  1  0  0  0  0  0  0  0  0  0
  191.5910  174.0940  134.8830 C   0  0  2  0  0  3  0  0  0  0  0  0
  190.1720  175.7900  136.0900 C   0  0  0  0  0  0  0  0  0  0  0  0
  188.0330  178.4030  139.3770 N   0  0  0  0  0  0  0  0  0  0  0  0
  195.1910  174.7470  135.7970 C   0  0  2  0  0  3  0  0  0  0  0  0
  189.3750  177.9950  139.5360 N   0  0  0  0  0  0  0  0  0  0  0  0
  189.1000  174.0980  134.5940 C   0  0  0  0  0  3  0  0  0  0  0  0
  190.3270  174.9570  134.8350 C   0  0  2  0  0  3  0  0  0  0  0  0
  188.9350  176.4180  136.3500 C   0  0  0  0  0  3  0  0  0  0  0  0
  193.7510  176.3620  136.9910 C   0  0  0  0  0  2  0  0  0  0  0  0
  192.0090  176.7870  139.1520 F   0  0  0  0  0  0  0  0  0  0  0  0
  187.2170  179.0180  137.1530 C   0  0  0  0  0  1  0  0  0  0  0  0
  191.2640  175.9760  136.9910 C   0  0  0  0  0  0  0  0  0  0  0  0
  188.7950  177.1590  137.5190 C   0  0  0  0  0  0  0  0  0  0  0  0
  196.7620  172.9590  136.5150 C   0  0  0  0  0  2  0  0  0  0  0  0
  195.6840  173.9210  136.9750 C   0  0  1  0  0  3  0  0  0  0  0  0
  197.1450  174.2370  137.2310 C   0  0  1  0  0  3  0  0  0  0  0  0
  197.4650  173.9320  138.6810 C   0  0  0  0  0  2  0  0  0  0  0  0
  197.7640  175.1940  139.4120 C   0  0  0  0  0  0  0  0  0  0  0  0
  196.8920  175.6450  140.4420 N   0  0  0  0  0  1  0  0  0  0  0  0
  198.7710  175.8800  139.0960 O   0  0  0  0  0  0  0  0  0  0  0  0
  196.1250  177.9110  134.9810 C   0  0  0  0  0  1  0  0  0  0  0  0
  194.9170  176.9950  135.0180 C   0  0  0  0  0  2  0  0  0  0  0  0
  1 19  1  6  0  0  0
  1 22  1  0  0  0  0
  2  9  1  0  0  0  0
  3  2  1  0  0  0  0
  4  5  1  0  0  0  0
  4 20  1  0  0  0  0
  5 15  1  0  0  0  0
  6 19  1  0  0  0  0
  8 21  1  6  0  0  0
  8 13  1  0  0  0  0
 10  7  1  1  0  0  0
 10  1  1  0  0  0  0
 11 10  1  0  0  0  0
 11  9  1  1  0  0  0
 12 18  2  0  0  0  0
 12 22  1  0  0  0  0
 13 15  2  0  0  0  0
 14  7  1  1  0  0  0
 14  6  1  0  0  0  0
 14 25  1  0  0  0  0
 16  3  2  0  0  0  0
 17 16  1  1  0  0  0
 17 11  1  0  0  0  0
 17 12  1  0  0  0  0
 18 23  1  0  0  0  0
 22  4  2  0  0  0  0
 23  8  1  0  0  0  0
 23  5  2  0  0  0  0
 24 26  1  0  0  0  0
 25 24  1  6  0  0  0
 25 26  1  0  0  0  0
 26 27  1  1  0  0  0
 27 28  1  0  0  0  0
 28 29  1  0  0  0  0
 30 28  2  0  0  0  0
 31 32  1  0  0  0  0
 32  6  1  0  0  0  0
M  END
>  <MODEL>
2

>  <REMARK>
 VINA RESULT:      -5.7      8.173     11.572
  Name = 
  4 active torsions:
  status: ('A' for Active; 'I' for Inactive)
    1  A    between atoms: N_7  and  C_19
    2  A    between atoms: C_10  and  C_17
    3  A    between atoms: C_20  and  C_29
    4  A    between atoms: C_29  and  C_30
                            x       y       z     vdW  Elec       q    Type
                         _______ _______ _______ _____ _____    ______ ____

>  <TORSDO>
F 4

$$$$
=
 OpenBabel11122410473D

 32 37  0  0  1  0  0  0  0  0999 V2000
  184.5350  177.8230  137.8390 C   0  0  1  0  0  3  0  0  0  0  0  0
  182.0560  174.8570  135.7650 C   0  0  0  0  0  2  0  0  0  0  0  0
  183.0110  173.7660  135.8680 N   0  0  0  0  0  0  0  0  0  0  0  0
  186.8790  177.5880  136.8630 C   0  0  0  0  0  0  0  0  0  0  0  0
  187.9280  176.7700  136.4540 C   0  0  0  0  0  0  0  0  0  0  0  0
  184.0440  179.3760  139.7800 N   0  0  0  0  0  0  0  0  0  0  0  0
  182.3180  177.8530  138.7410 C   0  0  0  0  0  2  0  0  0  0  0  0
  189.1240  174.8670  135.9600 C   0  0  1  0  0  3  0  0  0  0  0  0
  182.5940  176.1510  136.3630 C   0  0  0  0  0  2  0  0  0  0  0  0
  183.5100  177.0280  138.5320 N   0  0  1  0  0  0  0  0  0  0  0  0
  183.1220  175.8370  137.7680 C   0  0  2  0  0  3  0  0  0  0  0  0
  185.5760  175.5510  137.2820 C   0  0  0  0  0  0  0  0  0  0  0  0
  189.9640  176.0410  135.6330 N   0  0  0  0  0  0  0  0  0  0  0  0
  182.6470  179.2370  139.3290 C   0  0  2  0  0  3  0  0  0  0  0  0
  189.1800  177.1700  135.9520 N   0  0  0  0  0  0  0  0  0  0  0  0
  183.9700  173.7170  136.7330 C   0  0  0  0  0  3  0  0  0  0  0  0
  184.2930  174.8540  137.6820 C   0  0  2  0  0  3  0  0  0  0  0  0
  186.6820  174.7740  136.8720 C   0  0  0  0  0  3  0  0  0  0  0  0
  185.0390  178.9230  138.7930 C   0  0  0  0  0  2  0  0  0  0  0  0
  187.0060  178.9360  136.7890 F   0  0  0  0  0  0  0  0  0  0  0  0
  189.8100  174.0360  137.0280 C   0  0  0  0  0  1  0  0  0  0  0  0
  185.6950  176.9730  137.3450 C   0  0  0  0  0  0  0  0  0  0  0  0
  187.8470  175.4240  136.4810 C   0  0  0  0  0  0  0  0  0  0  0  0
  181.0350  179.9550  137.5770 C   0  0  0  0  0  2  0  0  0  0  0  0
  182.2990  180.3280  138.3280 C   0  0  1  0  0  3  0  0  0  0  0  0
  180.9730  180.9550  138.7120 C   0  0  1  0  0  3  0  0  0  0  0  0
  180.9150  182.3620  138.1490 C   0  0  0  0  0  2  0  0  0  0  0  0
  179.5460  182.9230  138.3230 C   0  0  0  0  0  0  0  0  0  0  0  0
  178.9470  183.6780  137.2770 N   0  0  0  0  0  1  0  0  0  0  0  0
  178.9320  182.7580  139.4090 O   0  0  0  0  0  0  0  0  0  0  0  0
  185.5410  179.0280  141.6670 C   0  0  0  0  0  1  0  0  0  0  0  0
  184.2360  178.6200  141.0100 C   0  0  0  0  0  2  0  0  0  0  0  0
  1 10  1  0  0  0  0
  1 19  1  1  0  0  0
  2  3  1  0  0  0  0
  2  9  1  0  0  0  0
  3 16  2  0  0  0  0
  4 22  1  0  0  0  0
  5 23  1  0  0  0  0
  5  4  2  0  0  0  0
  6 32  1  0  0  0  0
  8 23  1  0  0  0  0
  8 21  1  1  0  0  0
 10  7  1  6  0  0  0
 11  9  1  6  0  0  0
 11 10  1  0  0  0  0
 12 22  2  0  0  0  0
 12 17  1  0  0  0  0
 13 15  2  0  0  0  0
 13  8  1  0  0  0  0
 14  7  1  6  0  0  0
 14  6  1  0  0  0  0
 15  5  1  0  0  0  0
 17 16  1  6  0  0  0
 17 11  1  0  0  0  0
 18 12  1  0  0  0  0
 19  6  1  0  0  0  0
 20  4  1  0  0  0  0
 22  1  1  0  0  0  0
 23 18  2  0  0  0  0
 24 26  1  0  0  0  0
 25 24  1  6  0  0  0
 25 26  1  0  0  0  0
 25 14  1  0  0  0  0
 26 27  1  6  0  0  0
 27 28  1  0  0  0  0
 28 30  2  0  0  0  0
 29 28  1  0  0  0  0
 32 31  1  0  0  0  0
M  END
>  <MODEL>
3

>  <REMARK>
 VINA RESULT:      -5.6      3.749      7.470
  Name = 
  4 active torsions:
  status: ('A' for Active; 'I' for Inactive)
    1  A    between atoms: N_7  and  C_19
    2  A    between atoms: C_10  and  C_17
    3  A    between atoms: C_20  and  C_29
    4  A    between atoms: C_29  and  C_30
                            x       y       z     vdW  Elec       q    Type
                         _______ _______ _______ _____ _____    ______ ____

>  <TORSDO>
F 4

$$$$
=
 OpenBabel11122410473D

 32 37  0  0  1  0  0  0  0  0999 V2000
  186.5010  176.4380  137.2240 C   0  0  1  0  0  3  0  0  0  0  0  0
  184.5450  172.5140  137.3870 C   0  0  0  0  0  2  0  0  0  0  0  0
  183.2350  172.9820  136.9680 N   0  0  0  0  0  0  0  0  0  0  0  0
  184.8960  178.0710  138.3480 C   0  0  0  0  0  0  0  0  0  0  0  0
  183.6010  178.5520  138.5160 C   0  0  0  0  0  0  0  0  0  0  0  0
  188.6350  177.2170  136.1040 N   0  0  0  0  0  0  0  0  0  0  0  0
  187.8510  174.8170  136.0950 C   0  0  0  0  0  2  0  0  0  0  0  0
  181.3170  178.7370  138.3090 C   0  0  1  0  0  3  0  0  0  0  0  0
  185.5530  173.6510  137.5040 C   0  0  0  0  0  2  0  0  0  0  0  0
  186.5490  175.4850  136.1050 N   0  0  1  0  0  0  0  0  0  0  0  0
  185.5030  174.4610  136.2030 C   0  0  2  0  0  3  0  0  0  0  0  0
  183.9640  176.3330  136.8880 C   0  0  0  0  0  0  0  0  0  0  0  0
  181.7850  179.7870  139.2400 N   0  0  0  0  0  0  0  0  0  0  0  0
  189.0280  175.8010  136.2280 C   0  0  2  0  0  3  0  0  0  0  0  0
  183.1840  179.6210  139.3280 N   0  0  0  0  0  0  0  0  0  0  0  0
  183.0270  174.0850  136.3270 C   0  0  0  0  0  3  0  0  0  0  0  0
  184.1190  175.0950  136.0320 C   0  0  2  0  0  3  0  0  0  0  0  0
  182.6760  176.8780  137.0830 C   0  0  0  0  0  3  0  0  0  0  0  0
  187.4790  177.5920  136.9350 C   0  0  0  0  0  2  0  0  0  0  0  0
  185.9230  178.6480  139.0210 F   0  0  0  0  0  0  0  0  0  0  0  0
  180.6580  179.3840  137.1050 C   0  0  0  0  0  1  0  0  0  0  0  0
  185.0990  176.9750  137.4700 C   0  0  0  0  0  0  0  0  0  0  0  0
  182.5400  178.0000  137.8920 C   0  0  0  0  0  0  0  0  0  0  0  0
  190.8790  174.5590  137.3280 C   0  0  0  0  0  2  0  0  0  0  0  0
  189.7640  175.5650  137.5370 C   0  0  1  0  0  3  0  0  0  0  0  0
  191.1980  176.0370  137.3970 C   0  0  1  0  0  3  0  0  0  0  0  0
  191.7380  176.3770  138.7720 C   0  0  0  0  0  2  0  0  0  0  0  0
  193.1780  176.7480  138.6760 C   0  0  0  0  0  0  0  0  0  0  0  0
  193.8930  177.1350  139.8430 N   0  0  0  0  0  1  0  0  0  0  0  0
  193.7530  176.7500  137.5570 O   0  0  0  0  0  0  0  0  0  0  0  0
  187.1820  178.5140  134.6450 C   0  0  0  0  0  1  0  0  0  0  0  0
  188.3210  177.5150  134.7130 C   0  0  0  0  0  2  0  0  0  0  0  0
  1 19  1  6  0  0  0
  1 22  1  0  0  0  0
  2  9  1  0  0  0  0
  3  2  1  0  0  0  0
  4  5  1  0  0  0  0
  4 20  1  0  0  0  0
  5 15  1  0  0  0  0
  6 14  1  0  0  0  0
  6 19  1  0  0  0  0
  8 21  1  6  0  0  0
  8 13  1  0  0  0  0
 10  7  1  1  0  0  0
 10 11  1  0  0  0  0
 10  1  1  0  0  0  0
 11  9  1  1  0  0  0
 12 18  2  0  0  0  0
 12 22  1  0  0  0  0
 13 15  2  0  0  0  0
 14  7  1  1  0  0  0
 14 25  1  0  0  0  0
 16  3  2  0  0  0  0
 17 11  1  0  0  0  0
 17 16  1  1  0  0  0
 17 12  1  0  0  0  0
 18 23  1  0  0  0  0
 22  4  2  0  0  0  0
 23  8  1  0  0  0  0
 23  5  2  0  0  0  0
 24 26  1  0  0  0  0
 25 24  1  6  0  0  0
 26 25  1  0  0  0  0
 26 27  1  1  0  0  0
 28 27  1  0  0  0  0
 28 29  1  0  0  0  0
 30 28  2  0  0  0  0
 31 32  1  0  0  0  0
 32  6  1  0  0  0  0
M  END
>  <MODEL>
4

>  <REMARK>
 VINA RESULT:      -5.6      4.725      6.506
  Name = 
  4 active torsions:
  status: ('A' for Active; 'I' for Inactive)
    1  A    between atoms: N_7  and  C_19
    2  A    between atoms: C_10  and  C_17
    3  A    between atoms: C_20  and  C_29
    4  A    between atoms: C_29  and  C_30
                            x       y       z     vdW  Elec       q    Type
                         _______ _______ _______ _____ _____    ______ ____

>  <TORSDO>
F 4

$$$$
=
 OpenBabel11122410473D

 32 37  0  0  1  0  0  0  0  0999 V2000
  189.8950  176.8550  138.5120 C   0  0  1  0  0  3  0  0  0  0  0  0
  192.0210  177.9970  142.1760 C   0  0  0  0  0  2  0  0  0  0  0  0
  190.8690  177.8950  143.0550 N   0  0  0  0  0  0  0  0  0  0  0  0
  187.7110  178.1720  138.5260 C   0  0  0  0  0  0  0  0  0  0  0  0
  186.5920  178.6260  139.2170 C   0  0  0  0  0  0  0  0  0  0  0  0
  190.3980  175.1170  136.7390 N   0  0  0  0  0  0  0  0  0  0  0  0
  191.9250  175.6000  138.6900 C   0  0  0  0  0  2  0  0  0  0  0  0
  185.1330  179.0240  140.9520 C   0  0  1  0  0  3  0  0  0  0  0  0
  191.6650  177.7040  140.7240 C   0  0  0  0  0  2  0  0  0  0  0  0
  190.6380  175.8840  139.3290 N   0  0  1  0  0  0  0  0  0  0  0  0
  190.8930  176.3790  140.6860 C   0  0  2  0  0  3  0  0  0  0  0  0
  188.5230  177.2310  140.6420 C   0  0  0  0  0  0  0  0  0  0  0  0
  184.5910  179.6650  139.7330 N   0  0  0  0  0  0  0  0  0  0  0  0
  191.7910  175.2950  137.1870 C   0  0  2  0  0  3  0  0  0  0  0  0
  185.5260  179.3910  138.7120 N   0  0  0  0  0  0  0  0  0  0  0  0
  189.8060  177.2110  142.7870 C   0  0  0  0  0  3  0  0  0  0  0  0
  189.5780  176.5150  141.4590 C   0  0  2  0  0  3  0  0  0  0  0  0
  187.3580  177.7020  141.2850 C   0  0  0  0  0  3  0  0  0  0  0  0
  189.4840  176.1800  137.1900 C   0  0  0  0  0  2  0  0  0  0  0  0
  187.8590  178.4710  137.2110 F   0  0  0  0  0  0  0  0  0  0  0  0
  184.1560  177.9760  141.4510 C   0  0  0  0  0  1  0  0  0  0  0  0
  188.6740  177.4060  139.2320 C   0  0  0  0  0  0  0  0  0  0  0  0
  186.4070  178.3810  140.5300 C   0  0  0  0  0  0  0  0  0  0  0  0
  193.6860  176.9030  137.1230 C   0  0  0  0  0  2  0  0  0  0  0  0
  192.4810  176.3750  136.3690 C   0  0  1  0  0  3  0  0  0  0  0  0
  193.8760  175.9080  135.9990 C   0  0  1  0  0  3  0  0  0  0  0  0
  194.3190  176.6360  134.7440 C   0  0  0  0  0  2  0  0  0  0  0  0
  195.6440  177.2770  134.9700 C   0  0  0  0  0  0  0  0  0  0  0  0
  196.7660  176.4820  135.3350 N   0  0  0  0  0  1  0  0  0  0  0  0
  195.7640  178.5250  134.8710 O   0  0  0  0  0  0  0  0  0  0  0  0
  188.4270  173.6940  136.8490 C   0  0  0  0  0  1  0  0  0  0  0  0
  189.8910  173.8380  137.2170 C   0  0  0  0  0  2  0  0  0  0  0  0
  1 19  1  6  0  0  0
  1 22  1  0  0  0  0
  1 10  1  0  0  0  0
  2  3  1  0  0  0  0
  4  5  2  0  0  0  0
  4 22  1  0  0  0  0
  5 23  1  0  0  0  0
  6 14  1  0  0  0  0
  6 19  1  0  0  0  0
  6 32  1  0  0  0  0
  8 21  1  6  0  0  0
  9  2  1  0  0  0  0
 10  7  1  6  0  0  0
 10 11  1  0  0  0  0
 11  9  1  6  0  0  0
 11 17  1  0  0  0  0
 12 18  1  0  0  0  0
 12 17  1  0  0  0  0
 13  8  1  0  0  0  0
 14  7  1  1  0  0  0
 15  5  1  0  0  0  0
 15 13  2  0  0  0  0
 16  3  2  0  0  0  0
 17 16  1  1  0  0  0
 20  4  1  0  0  0  0
 22 12  2  0  0  0  0
 23  8  1  0  0  0  0
 23 18  2  0  0  0  0
 25 24  1  1  0  0  0
 25 14  1  0  0  0  0
 26 27  1  6  0  0  0
 26 25  1  0  0  0  0
 26 24  1  0  0  0  0
 27 28  1  0  0  0  0
 28 29  1  0  0  0  0
 30 28  2  0  0  0  0
 31 32  1  0  0  0  0
M  END
>  <MODEL>
5

>  <REMARK>
 VINA RESULT:      -5.4      5.951      9.702
  Name = 
  4 active torsions:
  status: ('A' for Active; 'I' for Inactive)
    1  A    between atoms: N_7  and  C_19
    2  A    between atoms: C_10  and  C_17
    3  A    between atoms: C_20  and  C_29
    4  A    between atoms: C_29  and  C_30
                            x       y       z     vdW  Elec       q    Type
                         _______ _______ _______ _____ _____    ______ ____

>  <TORSDO>
F 4

$$$$
=
 OpenBabel11122410473D

 32 37  0  0  1  0  0  0  0  0999 V2000
  182.7110  178.8290  140.4060 C   0  0  1  0  0  3  0  0  0  0  0  0
  179.2930  177.0550  142.5060 C   0  0  0  0  0  2  0  0  0  0  0  0
  179.6700  177.5240  143.8290 N   0  0  0  0  0  0  0  0  0  0  0  0
  184.7630  178.2920  141.8220 C   0  0  0  0  0  0  0  0  0  0  0  0
  185.3700  178.2240  143.0730 C   0  0  0  0  0  0  0  0  0  0  0  0
  182.8520  180.3110  138.3570 N   0  0  0  0  0  0  0  0  0  0  0  0
  180.6880  179.3570  139.2420 C   0  0  0  0  0  2  0  0  0  0  0  0
  185.6390  178.3200  145.3560 C   0  0  1  0  0  3  0  0  0  0  0  0
  180.3110  177.4490  141.4430 C   0  0  0  0  0  2  0  0  0  0  0  0
  181.4100  179.5050  140.5070 N   0  0  1  0  0  0  0  0  0  0  0  0
  180.5790  178.9530  141.5820 C   0  0  2  0  0  3  0  0  0  0  0  0
  182.6840  178.9160  142.9650 C   0  0  0  0  0  0  0  0  0  0  0  0
  186.9210  177.8910  144.7550 N   0  0  0  0  0  0  0  0  0  0  0  0
  181.5580  179.6910  138.0160 C   0  0  2  0  0  3  0  0  0  0  0  0
  186.6930  177.8480  143.3630 N   0  0  0  0  0  0  0  0  0  0  0  0
  180.4670  178.5160  144.0490 C   0  0  0  0  0  3  0  0  0  0  0  0
  181.2070  179.2500  142.9470 C   0  0  2  0  0  3  0  0  0  0  0  0
  183.3580  178.8480  144.2040 C   0  0  0  0  0  3  0  0  0  0  0  0
  183.5970  179.6020  139.4100 C   0  0  0  0  0  2  0  0  0  0  0  0
  185.4690  177.9620  140.7110 F   0  0  0  0  0  0  0  0  0  0  0  0
  185.8390  179.6270  146.0990 C   0  0  0  0  0  1  0  0  0  0  0  0
  183.4080  178.7030  141.7530 C   0  0  0  0  0  0  0  0  0  0  0  0
  184.7090  178.5150  144.2120 C   0  0  0  0  0  0  0  0  0  0  0  0
  180.6670  177.4430  137.4410 C   0  0  0  0  0  2  0  0  0  0  0  0
  181.7710  178.4460  137.1690 C   0  0  1  0  0  3  0  0  0  0  0  0
  180.6170  178.3010  136.1950 C   0  0  1  0  0  3  0  0  0  0  0  0
  181.0840  177.4920  135.0000 C   0  0  0  0  0  2  0  0  0  0  0  0
  180.1590  176.3480  134.7690 C   0  0  0  0  0  0  0  0  0  0  0  0
  180.6690  175.0210  134.7070 N   0  0  0  0  0  1  0  0  0  0  0  0
  178.9310  176.5580  134.5940 O   0  0  0  0  0  0  0  0  0  0  0  0
  181.5360  182.3190  137.9560 C   0  0  0  0  0  1  0  0  0  0  0  0
  182.6340  181.6860  138.7890 C   0  0  0  0  0  2  0  0  0  0  0  0
  1 19  1  6  0  0  0
  1 10  1  0  0  0  0
  1 22  1  0  0  0  0
  2  3  1  0  0  0  0
  3 16  2  0  0  0  0
  4  5  1  0  0  0  0
  5 15  1  0  0  0  0
  5 23  2  0  0  0  0
  6 32  1  0  0  0  0
  6 19  1  0  0  0  0
  8 21  1  6  0  0  0
  9  2  1  0  0  0  0
 10  7  1  6  0  0  0
 10 11  1  0  0  0  0
 11  9  1  6  0  0  0
 11 17  1  0  0  0  0
 12 18  2  0  0  0  0
 13  8  1  0  0  0  0
 14  6  1  0  0  0  0
 14  7  1  1  0  0  0
 15 13  2  0  0  0  0
 17 12  1  0  0  0  0
 17 16  1  1  0  0  0
 18 23  1  0  0  0  0
 20  4  1  0  0  0  0
 22  4  2  0  0  0  0
 22 12  1  0  0  0  0
 23  8  1  0  0  0  0
 25 24  1  1  0  0  0
 25 14  1  0  0  0  0
 26 27  1  6  0  0  0
 26 25  1  0  0  0  0
 26 24  1  0  0  0  0
 28 27  1  0  0  0  0
 29 28  1  0  0  0  0
 30 28  2  0  0  0  0
 31 32  1  0  0  0  0
M  END
>  <MODEL>
6

>  <REMARK>
 VINA RESULT:      -5.1      3.385      7.681
  Name = 
  4 active torsions:
  status: ('A' for Active; 'I' for Inactive)
    1  A    between atoms: N_7  and  C_19
    2  A    between atoms: C_10  and  C_17
    3  A    between atoms: C_20  and  C_29
    4  A    between atoms: C_29  and  C_30
                            x       y       z     vdW  Elec       q    Type
                         _______ _______ _______ _____ _____    ______ ____

>  <TORSDO>
F 4

$$$$
=
 OpenBabel11122410473D

 32 37  0  0  1  0  0  0  0  0999 V2000
  188.2810  176.3340  137.7460 C   0  0  1  0  0  3  0  0  0  0  0  0
  189.6900  177.3510  141.7740 C   0  0  0  0  0  2  0  0  0  0  0  0
  191.1060  177.3410  141.4440 N   0  0  0  0  0  0  0  0  0  0  0  0
  189.7720  174.4290  136.9380 C   0  0  0  0  0  0  0  0  0  0  0  0
  191.0430  173.8810  136.7990 C   0  0  0  0  0  0  0  0  0  0  0  0
  186.5510  177.4090  136.2400 N   0  0  0  0  0  0  0  0  0  0  0  0
  187.0380  178.1980  138.5880 C   0  0  0  0  0  2  0  0  0  0  0  0
  193.3230  173.6250  136.9860 C   0  0  1  0  0  3  0  0  0  0  0  0
  188.8190  176.9790  140.5810 C   0  0  0  0  0  2  0  0  0  0  0  0
  188.3740  177.7220  138.2230 N   0  0  1  0  0  0  0  0  0  0  0  0
  189.2480  177.8490  139.3940 C   0  0  2  0  0  3  0  0  0  0  0  0
  190.8000  176.2640  138.2020 C   0  0  0  0  0  0  0  0  0  0  0  0
  192.7820  172.4560  136.2570 N   0  0  0  0  0  0  0  0  0  0  0  0
  185.9820  177.8970  137.5090 C   0  0  2  0  0  3  0  0  0  0  0  0
  191.3890  172.6680  136.1780 N   0  0  0  0  0  0  0  0  0  0  0  0
  191.5750  177.4720  140.2470 C   0  0  0  0  0  3  0  0  0  0  0  0
  190.6980  177.5380  139.0120 C   0  0  2  0  0  3  0  0  0  0  0  0
  192.0660  175.6690  138.0110 C   0  0  0  0  0  3  0  0  0  0  0  0
  187.5290  176.3200  136.4010 C   0  0  0  0  0  2  0  0  0  0  0  0
  188.6940  173.7650  136.4500 F   0  0  0  0  0  0  0  0  0  0  0  0
  194.3010  174.3690  136.0970 C   0  0  0  0  0  1  0  0  0  0  0  0
  189.6450  175.6760  137.6010 C   0  0  0  0  0  0  0  0  0  0  0  0
  192.1460  174.4840  137.2880 C   0  0  0  0  0  0  0  0  0  0  0  0
  184.0200  177.6180  139.0110 C   0  0  0  0  0  2  0  0  0  0  0  0
  184.9510  176.9140  138.0440 C   0  0  1  0  0  3  0  0  0  0  0  0
  183.5690  177.3440  137.5920 C   0  0  1  0  0  3  0  0  0  0  0  0
  182.6610  176.1300  137.5730 C   0  0  0  0  0  2  0  0  0  0  0  0
  181.3260  176.4850  138.1310 C   0  0  0  0  0  0  0  0  0  0  0  0
  180.8450  175.8300  139.2990 N   0  0  0  0  0  1  0  0  0  0  0  0
  180.6090  177.3400  137.5500 O   0  0  0  0  0  0  0  0  0  0  0  0
  188.2530  177.9720  134.5940 C   0  0  0  0  0  1  0  0  0  0  0  0
  187.1970  178.5110  135.5400 C   0  0  0  0  0  2  0  0  0  0  0  0
  1 19  1  6  0  0  0
  1 10  1  0  0  0  0
  3  2  1  0  0  0  0
  4 22  1  0  0  0  0
  5  4  2  0  0  0  0
  5 23  1  0  0  0  0
  6 19  1  0  0  0  0
  6 14  1  0  0  0  0
  8 21  1  6  0  0  0
  8 23  1  0  0  0  0
  9  2  1  0  0  0  0
 10  7  1  1  0  0  0
 10 11  1  0  0  0  0
 11  9  1  1  0  0  0
 12 17  1  0  0  0  0
 13  8  1  0  0  0  0
 14 25  1  0  0  0  0
 14  7  1  1  0  0  0
 15 13  2  0  0  0  0
 15  5  1  0  0  0  0
 16  3  2  0  0  0  0
 17 11  1  0  0  0  0
 17 16  1  1  0  0  0
 18 12  1  0  0  0  0
 20  4  1  0  0  0  0
 22  1  1  0  0  0  0
 22 12  2  0  0  0  0
 23 18  2  0  0  0  0
 25 24  1  1  0  0  0
 26 27  1  1  0  0  0
 26 25  1  0  0  0  0
 26 24  1  0  0  0  0
 27 28  1  0  0  0  0
 28 29  1  0  0  0  0
 30 28  2  0  0  0  0
 31 32  1  0  0  0  0
 32  6  1  0  0  0  0
M  END
>  <MODEL>
7

>  <REMARK>
 VINA RESULT:      -5.0      5.348     10.055
  Name = 
  4 active torsions:
  status: ('A' for Active; 'I' for Inactive)
    1  A    between atoms: N_7  and  C_19
    2  A    between atoms: C_10  and  C_17
    3  A    between atoms: C_20  and  C_29
    4  A    between atoms: C_29  and  C_30
                            x       y       z     vdW  Elec       q    Type
                         _______ _______ _______ _____ _____    ______ ____

>  <TORSDO>
F 4

$$$$
=
 OpenBabel11122410473D

 32 37  0  0  1  0  0  0  0  0999 V2000
  188.9010  176.1320  137.6310 C   0  0  1  0  0  3  0  0  0  0  0  0
  189.7760  177.2110  141.7920 C   0  0  0  0  0  2  0  0  0  0  0  0
  191.2140  177.3190  141.6200 N   0  0  0  0  0  0  0  0  0  0  0  0
  190.6220  174.3630  136.9860 C   0  0  0  0  0  0  0  0  0  0  0  0
  191.9420  173.9220  136.9850 C   0  0  0  0  0  0  0  0  0  0  0  0
  187.2640  177.0810  135.9470 N   0  0  0  0  0  0  0  0  0  0  0  0
  187.4260  177.8790  138.3370 C   0  0  0  0  0  2  0  0  0  0  0  0
  194.2000  173.8490  137.4200 C   0  0  1  0  0  3  0  0  0  0  0  0
  189.0720  176.7840  140.5100 C   0  0  0  0  0  2  0  0  0  0  0  0
  188.8280  177.5170  138.1190 N   0  0  1  0  0  0  0  0  0  0  0  0
  189.5560  177.7000  139.3790 C   0  0  2  0  0  3  0  0  0  0  0  0
  191.3530  176.2600  138.3600 C   0  0  0  0  0  0  0  0  0  0  0  0
  193.8400  172.6490  136.6330 N   0  0  0  0  0  0  0  0  0  0  0  0
  186.5220  177.5060  137.1480 C   0  0  2  0  0  3  0  0  0  0  0  0
  192.4510  172.7480  136.4020 N   0  0  0  0  0  0  0  0  0  0  0  0
  191.7990  177.5030  140.4820 C   0  0  0  0  0  3  0  0  0  0  0  0
  191.0600  177.5120  139.1580 C   0  0  2  0  0  3  0  0  0  0  0  0
  192.6770  175.7720  138.3080 C   0  0  0  0  0  3  0  0  0  0  0  0
  188.3040  176.0730  136.2120 C   0  0  0  0  0  2  0  0  0  0  0  0
  189.6620  173.6210  136.3800 F   0  0  0  0  0  0  0  0  0  0  0  0
  195.2060  174.6800  136.6450 C   0  0  0  0  0  1  0  0  0  0  0  0
  190.3220  175.5880  137.6350 C   0  0  0  0  0  0  0  0  0  0  0  0
  192.9320  174.6060  137.5930 C   0  0  0  0  0  0  0  0  0  0  0  0
  184.2330  177.0870  138.0230 C   0  0  0  0  0  2  0  0  0  0  0  0
  185.5230  176.4370  137.5640 C   0  0  1  0  0  3  0  0  0  0  0  0
  184.3230  176.4860  136.6370 C   0  0  1  0  0  3  0  0  0  0  0  0
  183.6560  175.1250  136.6280 C   0  0  0  0  0  2  0  0  0  0  0  0
  182.1980  175.2750  136.3620 C   0  0  0  0  0  0  0  0  0  0  0  0
  181.7490  175.7120  135.0840 N   0  0  0  0  0  1  0  0  0  0  0  0
  181.3650  175.0480  137.2760 O   0  0  0  0  0  0  0  0  0  0  0  0
  189.1500  177.8160  134.5960 C   0  0  0  0  0  1  0  0  0  0  0  0
  187.8900  178.2410  135.3260 C   0  0  0  0  0  2  0  0  0  0  0  0
  1 19  1  6  0  0  0
  1 22  1  0  0  0  0
  1 10  1  0  0  0  0
  3  2  1  0  0  0  0
  4 22  1  0  0  0  0
  5  4  2  0  0  0  0
  5 23  1  0  0  0  0
  6 19  1  0  0  0  0
  6 14  1  0  0  0  0
  8 21  1  6  0  0  0
  8 23  1  0  0  0  0
  9  2  1  0  0  0  0
 10  7  1  1  0  0  0
 10 11  1  0  0  0  0
 11  9  1  1  0  0  0
 12 17  1  0  0  0  0
 13  8  1  0  0  0  0
 14 25  1  0  0  0  0
 14  7  1  1  0  0  0
 15 13  2  0  0  0  0
 15  5  1  0  0  0  0
 16  3  2  0  0  0  0
 17 11  1  0  0  0  0
 17 16  1  1  0  0  0
 18 12  1  0  0  0  0
 20  4  1  0  0  0  0
 22 12  2  0  0  0  0
 23 18  2  0  0  0  0
 25 24  1  1  0  0  0
 26 27  1  1  0  0  0
 26 25  1  0  0  0  0
 26 24  1  0  0  0  0
 28 27  1  0  0  0  0
 28 30  2  0  0  0  0
 29 28  1  0  0  0  0
 31 32  1  0  0  0  0
 32  6  1  0  0  0  0
M  END
>  <MODEL>
8

>  <REMARK>
 VINA RESULT:      -4.9      5.856     10.696
  Name = 
  4 active torsions:
  status: ('A' for Active; 'I' for Inactive)
    1  A    between atoms: N_7  and  C_19
    2  A    between atoms: C_10  and  C_17
    3  A    between atoms: C_20  and  C_29
    4  A    between atoms: C_29  and  C_30
                            x       y       z     vdW  Elec       q    Type
                         _______ _______ _______ _____ _____    ______ ____

>  <TORSDO>
F 4

$$$$
=
 OpenBabel11122410473D

 32 37  0  0  1  0  0  0  0  0999 V2000
  185.2880  178.2340  138.9450 C   0  0  1  0  0  3  0  0  0  0  0  0
  187.6110  178.3690  135.2260 C   0  0  0  0  0  2  0  0  0  0  0  0
  188.7110  177.5500  135.7070 N   0  0  0  0  0  0  0  0  0  0  0  0
  186.9530  178.6530  140.8310 C   0  0  0  0  0  0  0  0  0  0  0  0
  188.1910  178.3970  141.4140 C   0  0  0  0  0  0  0  0  0  0  0  0
  182.8670  177.6480  139.4050 N   0  0  0  0  0  0  0  0  0  0  0  0
  183.8630  177.7390  137.0870 C   0  0  0  0  0  2  0  0  0  0  0  0
  190.3100  177.5520  141.7100 C   0  0  1  0  0  3  0  0  0  0  0  0
  186.5570  178.6070  136.3010 C   0  0  0  0  0  2  0  0  0  0  0  0
  185.0480  177.3060  137.8310 N   0  0  1  0  0  0  0  0  0  0  0  0
  186.1820  177.2470  136.9030 C   0  0  2  0  0  3  0  0  0  0  0  0
  187.6460  177.2350  138.9520 C   0  0  0  0  0  0  0  0  0  0  0  0
  189.9960  178.4300  142.8590 N   0  0  0  0  0  0  0  0  0  0  0  0
  182.6680  178.0580  138.0030 C   0  0  2  0  0  3  0  0  0  0  0  0
  188.6930  178.9180  142.6190 N   0  0  0  0  0  0  0  0  0  0  0  0
  188.6300  176.7390  136.7090 C   0  0  0  0  0  3  0  0  0  0  0  0
  187.4010  176.6230  137.5900 C   0  0  2  0  0  3  0  0  0  0  0  0
  188.8770  176.9970  139.6010 C   0  0  0  0  0  3  0  0  0  0  0  0
  184.1550  178.0750  139.9770 C   0  0  0  0  0  2  0  0  0  0  0  0
  186.0840  179.5000  141.4380 F   0  0  0  0  0  0  0  0  0  0  0  0
  190.5620  176.1400  142.2050 C   0  0  0  0  0  1  0  0  0  0  0  0
  186.6420  178.0160  139.6030 C   0  0  0  0  0  0  0  0  0  0  0  0
  189.1030  177.5850  140.8420 C   0  0  0  0  0  0  0  0  0  0  0  0
  181.1750  179.7520  136.9610 C   0  0  0  0  0  2  0  0  0  0  0  0
  182.3270  179.5390  137.9240 C   0  0  1  0  0  3  0  0  0  0  0  0
  180.9230  179.7580  138.4530 C   0  0  1  0  0  3  0  0  0  0  0  0
  180.8020  181.1870  138.9440 C   0  0  0  0  0  2  0  0  0  0  0  0
  179.8550  181.2520  140.0920 C   0  0  0  0  0  0  0  0  0  0  0  0
  179.9720  180.3250  141.1650 N   0  0  0  0  0  1  0  0  0  0  0  0
  178.9310  182.1050  140.0970 O   0  0  0  0  0  0  0  0  0  0  0  0
  181.3180  175.7790  139.5770 C   0  0  0  0  0  1  0  0  0  0  0  0
  182.7740  176.1980  139.5060 C   0  0  0  0  0  2  0  0  0  0  0  0
  1 22  1  0  0  0  0
  1 19  1  1  0  0  0
  2  3  1  0  0  0  0
  2  9  1  0  0  0  0
  3 16  2  0  0  0  0
  4  5  1  0  0  0  0
  4 20  1  0  0  0  0
  5 15  1  0  0  0  0
  6 32  1  0  0  0  0
  6 19  1  0  0  0  0
  8 21  1  1  0  0  0
  8 13  1  0  0  0  0
 10  7  1  6  0  0  0
 10  1  1  0  0  0  0
 11  9  1  1  0  0  0
 11 17  1  0  0  0  0
 11 10  1  0  0  0  0
 12 18  2  0  0  0  0
 12 22  1  0  0  0  0
 14  7  1  6  0  0  0
 14  6  1  0  0  0  0
 15 13  2  0  0  0  0
 17 16  1  6  0  0  0
 17 12  1  0  0  0  0
 18 23  1  0  0  0  0
 22  4  2  0  0  0  0
 23  5  2  0  0  0  0
 23  8  1  0  0  0  0
 24 26  1  0  0  0  0
 25 24  1  6  0  0  0
 25 14  1  0  0  0  0
 25 26  1  0  0  0  0
 26 27  1  1  0  0  0
 27 28  1  0  0  0  0
 28 30  2  0  0  0  0
 28 29  1  0  0  0  0
 32 31  1  0  0  0  0
M  END
>  <MODEL>
9

>  <REMARK>
 VINA RESULT:      -4.7      3.292      8.080
  Name = 
  4 active torsions:
  status: ('A' for Active; 'I' for Inactive)
    1  A    between atoms: N_7  and  C_19
    2  A    between atoms: C_10  and  C_17
    3  A    between atoms: C_20  and  C_29
    4  A    between atoms: C_29  and  C_30
                            x       y       z     vdW  Elec       q    Type
                         _______ _______ _______ _____ _____    ______ ____

>  <TORSDO>
F 4

$$$$
