=
 OpenBabel11122412193D

 34 41  0  0  1  0  0  0  0  0999 V2000
  185.8510  178.4710  141.0470 C   0  0  0  0  0  0  0  0  0  0  0  0
  188.2200  177.9170  141.9630 C   0  0  0  0  0  3  0  0  0  0  0  0
  179.8250  177.6340  140.1860 C   0  0  2  0  0  3  0  0  0  0  0  0
  183.5400  178.8990  140.4240 C   0  0  0  0  0  0  0  0  0  0  0  0
  181.8010  178.8990  142.2130 C   0  0  0  0  0  0  0  0  0  0  0  0
  179.7390  177.4940  142.5300 C   0  0  0  0  0  2  0  0  0  0  0  0
  178.9330  177.4020  141.3070 N   0  0  0  0  0  2  0  0  0  0  0  0
  179.7920  179.1360  139.9710 C   0  0  1  0  0  3  0  0  0  0  0  0
  186.4420  178.1660  143.4340 C   0  0  0  0  0  0  0  0  0  0  0  0
  186.6670  178.2930  146.4750 C   0  0  0  0  0  3  0  0  0  0  0  0
  182.7200  178.6520  143.0990 N   0  0  0  0  0  0  0  0  0  0  0  0
  181.2320  179.5620  139.7570 C   0  0  0  0  0  2  0  0  0  0  0  0
  185.0220  178.2600  143.8940 C   0  0  0  0  0  0  0  0  0  0  0  0
  188.6390  177.6680  143.3430 N   0  0  0  0  0  0  0  0  0  0  0  0
  182.1610  179.0790  140.8070 N   0  0  0  0  0  0  0  0  0  0  0  0
  179.1700  178.2080  138.9480 C   0  0  0  0  0  2  0  0  0  0  0  0
  187.4910  177.6490  145.6330 C   0  0  0  0  0  0  0  0  0  0  0  0
  184.5050  178.6490  141.4090 C   0  0  0  0  0  0  0  0  0  0  0  0
  180.3760  178.8860  142.7060 C   0  0  0  0  0  2  0  0  0  0  0  0
  184.0900  178.5660  142.7900 N   0  0  0  0  0  0  0  0  0  0  0  0
  185.2780  178.7860  138.7200 C   0  0  0  0  0  3  0  0  0  0  0  0
  185.5850  179.2400  146.1290 C   0  0  0  0  0  3  0  0  0  0  0  0
  183.9390  178.9660  139.0770 C   0  0  0  0  0  3  0  0  0  0  0  0
  184.8830  179.2680  144.9930 C   0  0  0  0  0  3  0  0  0  0  0  0
  187.4880  177.8500  144.1680 C   0  0  2  0  0  3  0  0  0  0  0  0
  186.2350  178.5400  139.7050 C   0  0  0  0  0  3  0  0  0  0  0  0
  186.8030  178.2300  142.0760 N   0  0  0  0  0  0  0  0  0  0  0  0
  188.5540  176.7890  146.2310 C   0  0  0  0  0  2  0  0  0  0  0  0
  189.3930  177.5950  147.2110 C   0  0  0  0  0  2  0  0  0  0  0  0
  192.1470  175.6040  147.3480 C   0  0  0  0  0  2  0  0  0  0  0  0
  190.8820  176.6740  145.6540 C   0  0  0  0  0  2  0  0  0  0  0  0
  190.7920  177.5390  146.8240 N   0  0  0  0  0  0  0  0  0  0  0  0
  192.0600  175.7540  145.8570 C   0  0  0  0  0  2  0  0  0  0  0  0
  191.5050  176.8600  147.9020 C   0  0  0  0  0  2  0  0  0  0  0  0
  1 18  1  0  0  0  0
  1 27  1  0  0  0  0
  2 27  1  0  0  0  0
  2 14  2  0  0  0  0
  3 16  1  6  0  0  0
  3  7  1  0  0  0  0
  4 15  1  0  0  0  0
  4 18  2  0  0  0  0
  5 19  1  0  0  0  0
  5 11  2  0  0  0  0
  6 19  1  0  0  0  0
  7  6  1  0  0  0  0
  8 16  1  6  0  0  0
  8  3  1  0  0  0  0
  9 13  2  0  0  0  0
  9 25  1  0  0  0  0
 12  8  1  0  0  0  0
 12 15  1  0  0  0  0
 13 24  1  0  0  0  0
 15  5  1  0  0  0  0
 17 28  1  0  0  0  0
 17 10  2  0  0  0  0
 18 20  1  0  0  0  0
 20 11  1  0  0  0  0
 20 13  1  0  0  0  0
 21 23  2  0  0  0  0
 21 26  1  0  0  0  0
 22 10  1  0  0  0  0
 23  4  1  0  0  0  0
 24 22  2  0  0  0  0
 25 14  1  6  0  0  0
 25 17  1  0  0  0  0
 26  1  2  0  0  0  0
 27  9  1  0  0  0  0
 28 29  1  0  0  0  0
 30 34  1  0  0  0  0
 31 33  1  0  0  0  0
 31 32  1  0  0  0  0
 32 29  1  0  0  0  0
 32 34  1  0  0  0  0
 33 30  1  0  0  0  0
M  END
>  <MODEL>
1

>  <REMARK>
 VINA RESULT:      -9.2      0.000      0.000
  Name = 
  3 active torsions:
  status: ('A' for Active; 'I' for Inactive)
    1  A    between atoms: C_17  and  C_28
    2  A    between atoms: C_28  and  C_29
    3  A    between atoms: C_29  and  N_32
                            x       y       z     vdW  Elec       q    Type
                         _______ _______ _______ _____ _____    ______ ____

>  <TORSDO>
F 3

$$$$
=
 OpenBabel11122412193D

 34 41  0  0  1  0  0  0  0  0999 V2000
  185.0860  178.5000  145.0300 C   0  0  0  0  0  0  0  0  0  0  0  0
  182.5330  178.6680  144.5650 C   0  0  0  0  0  3  0  0  0  0  0  0
  190.6830  175.9760  144.7970 C   0  0  2  0  0  3  0  0  0  0  0  0
  187.4950  178.2390  145.2200 C   0  0  0  0  0  0  0  0  0  0  0  0
  188.8180  177.8220  143.1460 C   0  0  0  0  0  0  0  0  0  0  0  0
  190.3090  175.9100  142.4770 C   0  0  0  0  0  2  0  0  0  0  0  0
  191.2600  175.5480  143.5350 N   0  0  0  0  0  2  0  0  0  0  0  0
  191.1760  177.3980  144.9830 C   0  0  1  0  0  3  0  0  0  0  0  0
  184.0200  178.4670  142.7940 C   0  0  0  0  0  0  0  0  0  0  0  0
  183.3050  178.7720  139.8420 C   0  0  0  0  0  3  0  0  0  0  0  0
  187.7250  177.8780  142.4430 N   0  0  0  0  0  0  0  0  0  0  0  0
  189.9770  178.2020  145.4490 C   0  0  0  0  0  2  0  0  0  0  0  0
  185.3040  178.1780  142.0820 C   0  0  0  0  0  0  0  0  0  0  0  0
  181.8240  178.6010  143.2870 N   0  0  0  0  0  0  0  0  0  0  0  0
  188.7790  178.0410  144.5910 N   0  0  0  0  0  0  0  0  0  0  0  0
  191.6820  176.2940  145.8880 C   0  0  0  0  0  2  0  0  0  0  0  0
  182.4950  178.3510  140.8270 C   0  0  0  0  0  0  0  0  0  0  0  0
  186.3410  178.3070  144.4280 C   0  0  0  0  0  0  0  0  0  0  0  0
  190.0710  177.4300  142.4030 C   0  0  0  0  0  2  0  0  0  0  0  0
  186.4640  178.1670  142.9960 N   0  0  0  0  0  0  0  0  0  0  0  0
  186.1270  178.5490  147.2110 C   0  0  0  0  0  3  0  0  0  0  0  0
  184.6540  179.3640  139.9750 C   0  0  0  0  0  3  0  0  0  0  0  0
  187.3770  178.3610  146.6160 C   0  0  0  0  0  3  0  0  0  0  0  0
  185.5250  179.1490  140.9650 C   0  0  0  0  0  3  0  0  0  0  0  0
  182.8150  178.4860  142.2640 C   0  0  2  0  0  3  0  0  0  0  0  0
  184.9800  178.6200  146.4190 C   0  0  0  0  0  3  0  0  0  0  0  0
  183.9370  178.5750  144.1940 N   0  0  0  0  0  0  0  0  0  0  0  0
  181.1450  177.8480  140.4420 C   0  0  0  0  0  2  0  0  0  0  0  0
  180.7120  178.4610  139.1190 C   0  0  0  0  0  2  0  0  0  0  0  0
  179.3810  180.7310  141.2740 C   0  0  0  0  0  2  0  0  0  0  0  0
  179.9350  180.6670  138.9710 C   0  0  0  0  0  2  0  0  0  0  0  0
  179.5490  179.3070  139.3250 N   0  0  0  0  0  0  0  0  0  0  0  0
  179.3990  181.5860  140.0400 C   0  0  0  0  0  2  0  0  0  0  0  0
  179.2730  179.3090  140.7590 C   0  0  0  0  0  2  0  0  0  0  0  0
  1 26  1  0  0  0  0
  3  8  1  0  0  0  0
  3 16  1  1  0  0  0
  4 23  2  0  0  0  0
  5 15  1  0  0  0  0
  6  7  1  0  0  0  0
  7  3  1  0  0  0  0
  8 12  1  1  0  0  0
  8 16  1  0  0  0  0
  9 27  1  0  0  0  0
 10 22  1  0  0  0  0
 10 17  2  0  0  0  0
 11 20  1  0  0  0  0
 11  5  2  0  0  0  0
 13  9  2  0  0  0  0
 13 20  1  0  0  0  0
 14  2  2  0  0  0  0
 15  4  1  0  0  0  0
 15 12  1  0  0  0  0
 18  1  2  0  0  0  0
 18  4  1  0  0  0  0
 19  6  1  0  0  0  0
 19  5  1  0  0  0  0
 20 18  1  0  0  0  0
 22 24  2  0  0  0  0
 23 21  1  0  0  0  0
 24 13  1  0  0  0  0
 25 17  1  1  0  0  0
 25  9  1  0  0  0  0
 25 14  1  0  0  0  0
 26 21  2  0  0  0  0
 27  2  1  0  0  0  0
 27  1  1  0  0  0  0
 28 17  1  0  0  0  0
 29 32  1  0  0  0  0
 29 28  1  0  0  0  0
 31 32  1  0  0  0  0
 31 33  1  0  0  0  0
 32 34  1  0  0  0  0
 33 30  1  0  0  0  0
 34 30  1  0  0  0  0
M  END
>  <MODEL>
2

>  <REMARK>
 VINA RESULT:      -9.1      1.572      9.302
  Name = 
  3 active torsions:
  status: ('A' for Active; 'I' for Inactive)
    1  A    between atoms: C_17  and  C_28
    2  A    between atoms: C_28  and  C_29
    3  A    between atoms: C_29  and  N_32
                            x       y       z     vdW  Elec       q    Type
                         _______ _______ _______ _____ _____    ______ ____

>  <TORSDO>
F 3

$$$$
=
 OpenBabel11122412193D

 34 41  0  0  1  0  0  0  0  0999 V2000
  184.9000  178.5100  144.8370 C   0  0  0  0  0  0  0  0  0  0  0  0
  182.3510  178.6430  144.3440 C   0  0  0  0  0  3  0  0  0  0  0  0
  190.5340  176.0640  144.6590 C   0  0  2  0  0  3  0  0  0  0  0  0
  187.3110  178.2820  145.0520 C   0  0  0  0  0  0  0  0  0  0  0  0
  188.6620  177.8870  142.9910 C   0  0  0  0  0  0  0  0  0  0  0  0
  190.1860  175.9980  142.3360 C   0  0  0  0  0  2  0  0  0  0  0  0
  191.1310  175.6470  143.4030 N   0  0  0  0  0  2  0  0  0  0  0  0
  191.0050  177.4930  144.8540 C   0  0  1  0  0  3  0  0  0  0  0  0
  183.8590  178.4670  142.5890 C   0  0  0  0  0  0  0  0  0  0  0  0
  183.1720  178.7670  139.6300 C   0  0  0  0  0  3  0  0  0  0  0  0
  187.5760  177.9290  142.2770 N   0  0  0  0  0  0  0  0  0  0  0  0
  189.7900  178.2780  145.3080 C   0  0  0  0  0  2  0  0  0  0  0  0
  185.1540  178.1960  141.8910 C   0  0  0  0  0  0  0  0  0  0  0  0
  181.6560  178.5690  143.0580 N   0  0  0  0  0  0  0  0  0  0  0  0
  188.6040  178.1030  144.4370 N   0  0  0  0  0  0  0  0  0  0  0  0
  191.5160  176.3930  145.7620 C   0  0  0  0  0  2  0  0  0  0  0  0
  182.3580  178.3340  140.6050 C   0  0  0  0  0  0  0  0  0  0  0  0
  186.1640  178.3360  144.2480 C   0  0  0  0  0  0  0  0  0  0  0  0
  189.9270  177.5150  142.2620 C   0  0  0  0  0  2  0  0  0  0  0  0
  186.3050  178.2000  142.8170 N   0  0  0  0  0  0  0  0  0  0  0  0
  185.9170  178.5690  147.0290 C   0  0  0  0  0  3  0  0  0  0  0  0
  184.5120  179.3780  139.7780 C   0  0  0  0  0  3  0  0  0  0  0  0
  187.1750  178.4000  146.4470 C   0  0  0  0  0  3  0  0  0  0  0  0
  185.3740  179.1730  140.7770 C   0  0  0  0  0  3  0  0  0  0  0  0
  182.6590  178.4700  142.0460 C   0  0  2  0  0  3  0  0  0  0  0  0
  184.7780  178.6260  146.2240 C   0  0  0  0  0  3  0  0  0  0  0  0
  183.7600  178.5710  143.9880 N   0  0  0  0  0  0  0  0  0  0  0  0
  181.0180  177.8130  140.2040 C   0  0  0  0  0  2  0  0  0  0  0  0
  181.1360  176.9700  138.9450 C   0  0  0  0  0  2  0  0  0  0  0  0
  179.1720  174.2730  139.6010 C   0  0  0  0  0  2  0  0  0  0  0  0
  180.9160  174.8000  138.0880 C   0  0  0  0  0  2  0  0  0  0  0  0
  181.1960  175.5620  139.2980 N   0  0  0  0  0  0  0  0  0  0  0  0
  179.9520  173.7000  138.4540 C   0  0  0  0  0  2  0  0  0  0  0  0
  180.0920  175.3070  140.2180 C   0  0  0  0  0  2  0  0  0  0  0  0
  1 26  1  0  0  0  0
  3  8  1  0  0  0  0
  3 16  1  1  0  0  0
  4 23  2  0  0  0  0
  5 15  1  0  0  0  0
  6  7  1  0  0  0  0
  7  3  1  0  0  0  0
  8 12  1  1  0  0  0
  8 16  1  0  0  0  0
  9 27  1  0  0  0  0
 10 22  1  0  0  0  0
 10 17  2  0  0  0  0
 11 20  1  0  0  0  0
 11  5  2  0  0  0  0
 13  9  2  0  0  0  0
 13 20  1  0  0  0  0
 14  2  2  0  0  0  0
 15  4  1  0  0  0  0
 15 12  1  0  0  0  0
 18  1  2  0  0  0  0
 18  4  1  0  0  0  0
 19  6  1  0  0  0  0
 19  5  1  0  0  0  0
 20 18  1  0  0  0  0
 22 24  2  0  0  0  0
 23 21  1  0  0  0  0
 24 13  1  0  0  0  0
 25 17  1  1  0  0  0
 25  9  1  0  0  0  0
 25 14  1  0  0  0  0
 26 21  2  0  0  0  0
 27  2  1  0  0  0  0
 27  1  1  0  0  0  0
 28 17  1  0  0  0  0
 29 32  1  0  0  0  0
 29 28  1  0  0  0  0
 30 34  1  0  0  0  0
 31 33  1  0  0  0  0
 31 32  1  0  0  0  0
 32 34  1  0  0  0  0
 33 30  1  0  0  0  0
M  END
>  <MODEL>
3

>  <REMARK>
 VINA RESULT:      -9.0      1.877      9.106
  Name = 
  3 active torsions:
  status: ('A' for Active; 'I' for Inactive)
    1  A    between atoms: C_17  and  C_28
    2  A    between atoms: C_28  and  C_29
    3  A    between atoms: C_29  and  N_32
                            x       y       z     vdW  Elec       q    Type
                         _______ _______ _______ _____ _____    ______ ____

>  <TORSDO>
F 3

$$$$
=
 OpenBabel11122412193D

 34 41  0  0  1  0  0  0  0  0999 V2000
  185.5410  178.4970  145.4760 C   0  0  0  0  0  0  0  0  0  0  0  0
  182.9920  178.7890  145.0580 C   0  0  0  0  0  3  0  0  0  0  0  0
  191.0000  175.6950  145.1570 C   0  0  2  0  0  3  0  0  0  0  0  0
  187.9380  178.1180  145.6220 C   0  0  0  0  0  0  0  0  0  0  0  0
  189.1980  177.6200  143.5260 C   0  0  0  0  0  0  0  0  0  0  0  0
  190.5780  175.6310  142.8460 C   0  0  0  0  0  2  0  0  0  0  0  0
  191.5300  175.2290  143.8880 N   0  0  0  0  0  2  0  0  0  0  0  0
  191.5670  177.0920  145.3220 C   0  0  1  0  0  3  0  0  0  0  0  0
  184.4310  178.5020  143.2610 C   0  0  0  0  0  0  0  0  0  0  0  0
  183.6750  178.8200  140.3220 C   0  0  0  0  0  3  0  0  0  0  0  0
  188.0950  177.7250  142.8440 N   0  0  0  0  0  0  0  0  0  0  0  0
  190.4190  177.9580  145.8040 C   0  0  0  0  0  2  0  0  0  0  0  0
  185.6850  178.1430  142.5280 C   0  0  0  0  0  0  0  0  0  0  0  0
  182.2550  178.7490  143.7950 N   0  0  0  0  0  0  0  0  0  0  0  0
  189.1980  177.8510  144.9710 N   0  0  0  0  0  0  0  0  0  0  0  0
  192.0350  175.9700  146.2260 C   0  0  0  0  0  2  0  0  0  0  0  0
  182.8650  178.4480  141.3250 C   0  0  0  0  0  0  0  0  0  0  0  0
  186.7730  178.2380  144.8520 C   0  0  0  0  0  0  0  0  0  0  0  0
  190.4140  177.1610  142.7630 C   0  0  0  0  0  2  0  0  0  0  0  0
  186.8610  178.0810  143.4190 N   0  0  0  0  0  0  0  0  0  0  0  0
  186.6260  178.5100  147.6370 C   0  0  0  0  0  3  0  0  0  0  0  0
  185.0550  179.3450  140.4230 C   0  0  0  0  0  3  0  0  0  0  0  0
  187.8530  178.2560  147.0190 C   0  0  0  0  0  3  0  0  0  0  0  0
  185.9330  179.0930  141.3980 C   0  0  0  0  0  3  0  0  0  0  0  0
  183.2190  178.5770  142.7550 C   0  0  2  0  0  3  0  0  0  0  0  0
  185.4690  178.6330  146.8660 C   0  0  0  0  0  3  0  0  0  0  0  0
  184.3820  178.6240  144.6610 N   0  0  0  0  0  0  0  0  0  0  0  0
  181.4840  178.0100  140.9700 C   0  0  0  0  0  2  0  0  0  0  0  0
  181.0180  178.7120  139.7030 C   0  0  0  0  0  2  0  0  0  0  0  0
  182.1450  176.3020  137.5860 C   0  0  0  0  0  2  0  0  0  0  0  0
  180.6100  176.4260  139.3860 C   0  0  0  0  0  2  0  0  0  0  0  0
  180.5650  177.7290  138.7340 N   0  0  0  0  0  0  0  0  0  0  0  0
  181.2270  175.4510  138.4140 C   0  0  0  0  0  2  0  0  0  0  0  0
  181.5590  177.6970  137.6650 C   0  0  0  0  0  2  0  0  0  0  0  0
  1 26  1  0  0  0  0
  3  8  1  0  0  0  0
  3 16  1  1  0  0  0
  4 23  2  0  0  0  0
  5 15  1  0  0  0  0
  6  7  1  0  0  0  0
  7  3  1  0  0  0  0
  8 12  1  1  0  0  0
  8 16  1  0  0  0  0
  9 27  1  0  0  0  0
 10 22  1  0  0  0  0
 10 17  2  0  0  0  0
 11 20  1  0  0  0  0
 11  5  2  0  0  0  0
 13  9  2  0  0  0  0
 13 20  1  0  0  0  0
 14  2  2  0  0  0  0
 15  4  1  0  0  0  0
 15 12  1  0  0  0  0
 18  1  2  0  0  0  0
 18  4  1  0  0  0  0
 19  6  1  0  0  0  0
 19  5  1  0  0  0  0
 20 18  1  0  0  0  0
 22 24  2  0  0  0  0
 23 21  1  0  0  0  0
 24 13  1  0  0  0  0
 25 17  1  1  0  0  0
 25  9  1  0  0  0  0
 25 14  1  0  0  0  0
 26 21  2  0  0  0  0
 27  2  1  0  0  0  0
 27  1  1  0  0  0  0
 28 17  1  0  0  0  0
 29 28  1  0  0  0  0
 30 34  1  0  0  0  0
 30 33  1  0  0  0  0
 32 31  1  0  0  0  0
 32 29  1  0  0  0  0
 33 31  1  0  0  0  0
 34 32  1  0  0  0  0
M  END
>  <MODEL>
4

>  <REMARK>
 VINA RESULT:      -8.8      1.799      9.198
  Name = 
  3 active torsions:
  status: ('A' for Active; 'I' for Inactive)
    1  A    between atoms: C_17  and  C_28
    2  A    between atoms: C_28  and  C_29
    3  A    between atoms: C_29  and  N_32
                            x       y       z     vdW  Elec       q    Type
                         _______ _______ _______ _____ _____    ______ ____

>  <TORSDO>
F 3

$$$$
=
 OpenBabel11122412193D

 34 41  0  0  1  0  0  0  0  0999 V2000
  189.0040  177.7550  141.0340 C   0  0  0  0  0  0  0  0  0  0  0  0
  189.6790  177.5350  143.5350 C   0  0  0  0  0  3  0  0  0  0  0  0
  185.8090  176.4690  135.9460 C   0  0  2  0  0  3  0  0  0  0  0  0
  188.1200  177.9220  138.7750 C   0  0  0  0  0  0  0  0  0  0  0  0
  185.6650  178.2540  138.4750 C   0  0  0  0  0  0  0  0  0  0  0  0
  183.9290  176.8680  137.2970 C   0  0  0  0  0  2  0  0  0  0  0  0
  184.3580  176.4610  135.9540 N   0  0  0  0  0  2  0  0  0  0  0  0
  186.1850  177.8770  135.5250 C   0  0  1  0  0  3  0  0  0  0  0  0
  187.4850  178.0350  142.9710 C   0  0  0  0  0  0  0  0  0  0  0  0
  185.3010  178.8680  144.9330 C   0  0  0  0  0  3  0  0  0  0  0  0
  185.5130  178.2600  139.7670 N   0  0  0  0  0  0  0  0  0  0  0  0
  187.3060  178.3080  136.4510 C   0  0  0  0  0  2  0  0  0  0  0  0
  186.2650  178.1670  142.1140 C   0  0  0  0  0  0  0  0  0  0  0  0
  188.8380  177.6300  144.7280 N   0  0  0  0  0  0  0  0  0  0  0  0
  186.9990  178.1230  137.8900 N   0  0  0  0  0  0  0  0  0  0  0  0
  186.4450  176.7110  134.5940 C   0  0  0  0  0  2  0  0  0  0  0  0
  186.3600  178.0860  145.1930 C   0  0  0  0  0  0  0  0  0  0  0  0
  187.9190  177.9490  140.1620 C   0  0  0  0  0  0  0  0  0  0  0  0
  184.4010  178.2910  137.6540 C   0  0  0  0  0  2  0  0  0  0  0  0
  186.5860  178.1690  140.6730 N   0  0  0  0  0  0  0  0  0  0  0  0
  190.4900  177.4990  139.1450 C   0  0  0  0  0  3  0  0  0  0  0  0
  185.0420  179.6600  143.7110 C   0  0  0  0  0  3  0  0  0  0  0  0
  189.4150  177.6950  138.2750 C   0  0  0  0  0  3  0  0  0  0  0  0
  185.4870  179.3930  142.4800 C   0  0  0  0  0  3  0  0  0  0  0  0
  187.5170  177.9450  144.2840 C   0  0  2  0  0  3  0  0  0  0  0  0
  190.2870  177.5300  140.5250 C   0  0  0  0  0  3  0  0  0  0  0  0
  188.7640  177.8000  142.4350 N   0  0  0  0  0  0  0  0  0  0  0  0
  186.4250  177.4370  146.5350 C   0  0  0  0  0  2  0  0  0  0  0  0
  186.9090  178.4320  147.5780 C   0  0  0  0  0  2  0  0  0  0  0  0
  189.6990  176.4930  147.4200 C   0  0  0  0  0  2  0  0  0  0  0  0
  189.1360  178.6280  148.2800 C   0  0  0  0  0  2  0  0  0  0  0  0
  187.9310  177.8180  148.4080 N   0  0  0  0  0  0  0  0  0  0  0  0
  190.3010  177.6870  148.1010 C   0  0  0  0  0  2  0  0  0  0  0  0
  188.2350  176.5180  147.8160 C   0  0  0  0  0  2  0  0  0  0  0  0
  1 27  1  0  0  0  0
  2 14  2  0  0  0  0
  3 16  1  6  0  0  0
  3  7  1  0  0  0  0
  4 18  1  0  0  0  0
  5 11  2  0  0  0  0
  6 19  1  0  0  0  0
  7  6  1  0  0  0  0
  8 16  1  6  0  0  0
  8  3  1  0  0  0  0
  8 12  1  0  0  0  0
 10 17  2  0  0  0  0
 11 20  1  0  0  0  0
 12 15  1  0  0  0  0
 13 24  1  0  0  0  0
 13  9  2  0  0  0  0
 15  5  1  0  0  0  0
 15  4  1  0  0  0  0
 17 28  1  0  0  0  0
 18 20  1  0  0  0  0
 18  1  2  0  0  0  0
 19  5  1  0  0  0  0
 20 13  1  0  0  0  0
 21 26  2  0  0  0  0
 22 10  1  0  0  0  0
 23  4  2  0  0  0  0
 23 21  1  0  0  0  0
 24 22  2  0  0  0  0
 25  9  1  6  0  0  0
 25 14  1  0  0  0  0
 25 17  1  0  0  0  0
 26  1  1  0  0  0  0
 27  9  1  0  0  0  0
 27  2  1  0  0  0  0
 28 29  1  0  0  0  0
 29 32  1  0  0  0  0
 30 34  1  0  0  0  0
 30 33  1  0  0  0  0
 31 32  1  0  0  0  0
 33 31  1  0  0  0  0
 34 32  1  0  0  0  0
M  END
>  <MODEL>
5

>  <REMARK>
 VINA RESULT:      -8.1      3.068      4.569
  Name = 
  3 active torsions:
  status: ('A' for Active; 'I' for Inactive)
    1  A    between atoms: C_17  and  C_28
    2  A    between atoms: C_28  and  C_29
    3  A    between atoms: C_29  and  N_32
                            x       y       z     vdW  Elec       q    Type
                         _______ _______ _______ _____ _____    ______ ____

>  <TORSDO>
F 3

$$$$
=
 OpenBabel11122412193D

 34 41  0  0  1  0  0  0  0  0999 V2000
  186.0480  178.3840  141.9020 C   0  0  0  0  0  0  0  0  0  0  0  0
  184.4360  178.4470  139.8630 C   0  0  0  0  0  3  0  0  0  0  0  0
  190.4300  176.0590  145.5280 C   0  0  2  0  0  3  0  0  0  0  0  0
  187.7350  178.2160  143.6450 C   0  0  0  0  0  0  0  0  0  0  0  0
  190.1020  177.7910  142.9780 C   0  0  0  0  0  0  0  0  0  0  0  0
  191.6810  175.9170  143.5440 C   0  0  0  0  0  2  0  0  0  0  0  0
  191.7000  175.6180  144.9800 N   0  0  0  0  0  2  0  0  0  0  0  0
  190.6640  177.5030  145.9310 C   0  0  1  0  0  3  0  0  0  0  0  0
  186.7240  178.2530  139.5220 C   0  0  0  0  0  0  0  0  0  0  0  0
  188.1320  178.4520  136.8220 C   0  0  0  0  0  3  0  0  0  0  0  0
  189.7440  177.7890  141.7280 N   0  0  0  0  0  0  0  0  0  0  0  0
  189.4480  178.2740  145.4550 C   0  0  0  0  0  2  0  0  0  0  0  0
  188.1610  177.9910  139.8470 C   0  0  2  0  0  3  0  0  0  0  0  0
  184.7480  178.3200  138.4390 N   0  0  0  0  0  0  0  0  0  0  0  0
  189.1160  178.0470  144.0280 N   0  0  0  0  0  0  0  0  0  0  0  0
  190.4560  176.4420  146.9920 C   0  0  0  0  0  2  0  0  0  0  0  0
  186.8790  178.0290  137.0460 C   0  0  0  0  0  0  0  0  0  0  0  0
  187.3900  178.2210  142.2860 C   0  0  0  0  0  0  0  0  0  0  0  0
  191.5360  177.4260  143.2630 C   0  0  0  0  0  2  0  0  0  0  0  0
  188.4290  178.0470  141.2980 N   0  0  0  0  0  0  0  0  0  0  0  0
  185.3890  178.5290  144.2240 C   0  0  0  0  0  3  0  0  0  0  0  0
  189.0530  179.0960  137.7850 C   0  0  0  0  0  3  0  0  0  0  0  0
  186.7230  178.3710  144.6090 C   0  0  0  0  0  3  0  0  0  0  0  0
  189.0550  178.9390  139.1110 C   0  0  0  0  0  3  0  0  0  0  0  0
  186.1680  178.2140  138.3300 C   0  0  0  0  0  0  0  0  0  0  0  0
  185.0510  178.5380  142.8700 C   0  0  0  0  0  3  0  0  0  0  0  0
  185.7370  178.3960  140.5140 N   0  0  0  0  0  0  0  0  0  0  0  0
  186.1230  177.4670  135.8880 C   0  0  0  0  0  2  0  0  0  0  0  0
  186.3760  175.9730  135.7700 C   0  0  0  0  0  2  0  0  0  0  0  0
  184.5690  173.4690  137.1960 C   0  0  0  0  0  2  0  0  0  0  0  0
  186.8560  174.0720  137.0530 C   0  0  0  0  0  2  0  0  0  0  0  0
  186.1130  175.3260  137.0430 N   0  0  0  0  0  0  0  0  0  0  0  0
  185.9400  173.0030  137.5940 C   0  0  0  0  0  2  0  0  0  0  0  0
  184.6960  174.9740  137.0580 C   0  0  0  0  0  2  0  0  0  0  0  0
  1 18  2  0  0  0  0
  1 26  1  0  0  0  0
  2 27  1  0  0  0  0
  3  8  1  0  0  0  0
  3 16  1  1  0  0  0
  4 15  1  0  0  0  0
  4 23  2  0  0  0  0
  5 19  1  0  0  0  0
  5 15  1  0  0  0  0
  6  7  1  0  0  0  0
  7  3  1  0  0  0  0
  8 12  1  6  0  0  0
  8 16  1  0  0  0  0
  9 13  1  0  0  0  0
  9 27  1  0  0  0  0
 10 17  2  0  0  0  0
 10 22  1  0  0  0  0
 11  5  2  0  0  0  0
 13 24  1  6  0  0  0
 13 20  1  0  0  0  0
 14  2  2  0  0  0  0
 15 12  1  0  0  0  0
 17 25  1  0  0  0  0
 18  4  1  0  0  0  0
 19  6  1  0  0  0  0
 20 11  1  0  0  0  0
 20 18  1  0  0  0  0
 21 23  1  0  0  0  0
 22 24  2  0  0  0  0
 25 14  1  0  0  0  0
 25  9  2  0  0  0  0
 26 21  2  0  0  0  0
 27  1  1  0  0  0  0
 28 17  1  0  0  0  0
 29 28  1  0  0  0  0
 29 32  1  0  0  0  0
 30 33  1  0  0  0  0
 31 33  1  0  0  0  0
 32 31  1  0  0  0  0
 32 34  1  0  0  0  0
 34 30  1  0  0  0  0
M  END
>  <MODEL>
6

>  <REMARK>
 VINA RESULT:      -8.0      2.867      8.972
  Name = 
  3 active torsions:
  status: ('A' for Active; 'I' for Inactive)
    1  A    between atoms: C_17  and  C_28
    2  A    between atoms: C_28  and  C_29
    3  A    between atoms: C_29  and  N_32
                            x       y       z     vdW  Elec       q    Type
                         _______ _______ _______ _____ _____    ______ ____

>  <TORSDO>
F 3

$$$$
=
 OpenBabel11122412193D

 34 41  0  0  1  0  0  0  0  0999 V2000
  184.6330  177.9490  139.1330 C   0  0  0  0  0  0  0  0  0  0  0  0
  186.1570  179.0440  140.9330 C   0  0  0  0  0  3  0  0  0  0  0  0
  181.0120  173.6080  136.7270 C   0  0  2  0  0  3  0  0  0  0  0  0
  183.0600  176.8340  137.6530 C   0  0  0  0  0  0  0  0  0  0  0  0
  180.8690  176.0860  138.5840 C   0  0  0  0  0  0  0  0  0  0  0  0
  179.8170  173.8070  138.7410 C   0  0  0  0  0  2  0  0  0  0  0  0
  179.8870  173.0710  137.4730 N   0  0  0  0  0  2  0  0  0  0  0  0
  180.4270  174.7470  135.9140 C   0  0  1  0  0  3  0  0  0  0  0  0
  183.9890  178.4220  141.4780 C   0  0  0  0  0  0  0  0  0  0  0  0
  182.5490  179.1230  144.0760 C   0  0  0  0  0  3  0  0  0  0  0  0
  181.2040  176.5670  139.7450 N   0  0  0  0  0  0  0  0  0  0  0  0
  181.4050  175.8990  136.0400 C   0  0  0  0  0  2  0  0  0  0  0  0
  182.6670  177.7320  141.3530 C   0  0  0  0  0  0  0  0  0  0  0  0
  185.8740  179.3050  142.3440 N   0  0  0  0  0  0  0  0  0  0  0  0
  181.7690  176.2250  137.4400 N   0  0  0  0  0  0  0  0  0  0  0  0
  180.9040  173.4870  135.2220 C   0  0  0  0  0  2  0  0  0  0  0  0
  183.8710  178.9670  143.9060 C   0  0  0  0  0  0  0  0  0  0  0  0
  183.3790  177.3540  138.9150 C   0  0  0  0  0  0  0  0  0  0  0  0
  179.5750  175.3140  138.5290 C   0  0  0  0  0  2  0  0  0  0  0  0
  182.4070  177.2580  139.9790 N   0  0  0  0  0  0  0  0  0  0  0  0
  185.2570  177.5030  136.8400 C   0  0  0  0  0  3  0  0  0  0  0  0
  181.5050  179.1860  143.0290 C   0  0  0  0  0  3  0  0  0  0  0  0
  184.0100  176.9140  136.6190 C   0  0  0  0  0  3  0  0  0  0  0  0
  181.5550  178.6200  141.8200 C   0  0  0  0  0  3  0  0  0  0  0  0
  184.5250  178.9000  142.5820 C   0  0  2  0  0  3  0  0  0  0  0  0
  185.5690  178.0230  138.0970 C   0  0  0  0  0  3  0  0  0  0  0  0
  184.9180  178.4760  140.4240 N   0  0  0  0  0  0  0  0  0  0  0  0
  184.7320  179.0020  145.1240 C   0  0  0  0  0  2  0  0  0  0  0  0
  185.7360  177.8610  145.0920 C   0  0  0  0  0  2  0  0  0  0  0  0
  188.2630  177.1280  147.2470 C   0  0  0  0  0  2  0  0  0  0  0  0
  188.0440  177.4950  144.9170 C   0  0  0  0  0  2  0  0  0  0  0  0
  187.0320  178.3330  145.5480 N   0  0  0  0  0  0  0  0  0  0  0  0
  189.0560  177.1280  145.9730 C   0  0  0  0  0  2  0  0  0  0  0  0
  187.1020  178.0660  146.9820 C   0  0  0  0  0  2  0  0  0  0  0  0
  1 27  1  0  0  0  0
  2 14  2  0  0  0  0
  3 16  1  6  0  0  0
  3  7  1  0  0  0  0
  4 18  2  0  0  0  0
  5 11  2  0  0  0  0
  7  6  1  0  0  0  0
  8 16  1  6  0  0  0
  8 12  1  0  0  0  0
  8  3  1  0  0  0  0
 11 20  1  0  0  0  0
 12 15  1  0  0  0  0
 13  9  2  0  0  0  0
 13 24  1  0  0  0  0
 14 25  1  0  0  0  0
 15  4  1  0  0  0  0
 15  5  1  0  0  0  0
 17 10  2  0  0  0  0
 17 28  1  0  0  0  0
 18  1  1  0  0  0  0
 18 20  1  0  0  0  0
 19  5  1  0  0  0  0
 19  6  1  0  0  0  0
 20 13  1  0  0  0  0
 21 26  1  0  0  0  0
 22 10  1  0  0  0  0
 23 21  2  0  0  0  0
 23  4  1  0  0  0  0
 24 22  2  0  0  0  0
 25  9  1  1  0  0  0
 25 17  1  0  0  0  0
 26  1  2  0  0  0  0
 27  2  1  0  0  0  0
 27  9  1  0  0  0  0
 29 28  1  0  0  0  0
 29 32  1  0  0  0  0
 31 32  1  0  0  0  0
 31 33  1  0  0  0  0
 32 34  1  0  0  0  0
 33 30  1  0  0  0  0
 34 30  1  0  0  0  0
M  END
>  <MODEL>
7

>  <REMARK>
 VINA RESULT:      -7.8      2.810      4.218
  Name = 
  3 active torsions:
  status: ('A' for Active; 'I' for Inactive)
    1  A    between atoms: C_17  and  C_28
    2  A    between atoms: C_28  and  C_29
    3  A    between atoms: C_29  and  N_32
                            x       y       z     vdW  Elec       q    Type
                         _______ _______ _______ _____ _____    ______ ____

>  <TORSDO>
F 3

$$$$
=
 OpenBabel11122412193D

 34 41  0  0  1  0  0  0  0  0999 V2000
  186.3730  178.2320  142.2540 C   0  0  0  0  0  0  0  0  0  0  0  0
  184.1750  178.4820  143.6200 C   0  0  0  0  0  3  0  0  0  0  0  0
  190.0860  175.8530  137.9760 C   0  0  2  0  0  3  0  0  0  0  0  0
  188.2730  177.9510  140.7640 C   0  0  0  0  0  0  0  0  0  0  0  0
  187.8770  178.0030  138.3010 C   0  0  0  0  0  0  0  0  0  0  0  0
  188.3030  176.2920  136.5080 C   0  0  0  0  0  2  0  0  0  0  0  0
  189.6500  175.7140  136.5980 N   0  0  0  0  0  2  0  0  0  0  0  0
  190.7750  177.2040  138.0270 C   0  0  1  0  0  3  0  0  0  0  0  0
  184.1270  178.6810  141.3090 C   0  0  0  0  0  0  0  0  0  0  0  0
  181.7330  179.6170  139.6640 C   0  0  0  0  0  3  0  0  0  0  0  0
  186.6090  178.2040  138.5140 N   0  0  0  0  0  0  0  0  0  0  0  0
  190.2840  177.8790  139.2930 C   0  0  0  0  0  2  0  0  0  0  0  0
  184.5960  178.5610  139.8930 C   0  0  0  0  0  0  0  0  0  0  0  0
  182.8100  178.6910  143.1380 N   0  0  0  0  0  0  0  0  0  0  0  0
  188.8070  177.9010  139.4250 N   0  0  0  0  0  0  0  0  0  0  0  0
  191.5840  175.9310  138.1730 C   0  0  0  0  0  2  0  0  0  0  0  0
  181.6980  178.9880  140.8490 C   0  0  0  0  0  0  0  0  0  0  0  0
  186.9040  178.1830  140.9540 C   0  0  0  0  0  0  0  0  0  0  0  0
  188.2870  177.7910  136.8660 C   0  0  0  0  0  2  0  0  0  0  0  0
  186.0560  178.3590  139.7980 N   0  0  0  0  0  0  0  0  0  0  0  0
  188.5670  177.8110  143.1780 C   0  0  0  0  0  3  0  0  0  0  0  0
  182.9160  180.1740  138.9720 C   0  0  0  0  0  3  0  0  0  0  0  0
  189.0980  177.7650  141.8870 C   0  0  0  0  0  3  0  0  0  0  0  0
  184.1780  179.7540  139.0900 C   0  0  0  0  0  3  0  0  0  0  0  0
  182.8820  178.8080  141.7160 C   0  0  2  0  0  3  0  0  0  0  0  0
  187.2040  178.0470  143.3630 C   0  0  0  0  0  3  0  0  0  0  0  0
  184.9810  178.4810  142.4090 N   0  0  0  0  0  0  0  0  0  0  0  0
  180.3630  178.5730  141.3710 C   0  0  0  0  0  2  0  0  0  0  0  0
  179.3380  178.5660  140.2480 C   0  0  0  0  0  2  0  0  0  0  0  0
  180.4370  175.6660  138.8530 C   0  0  0  0  0  2  0  0  0  0  0  0
  179.5680  176.3420  140.9510 C   0  0  0  0  0  2  0  0  0  0  0  0
  178.9310  177.2020  139.9610 N   0  0  0  0  0  0  0  0  0  0  0  0
  180.1230  175.1430  140.2250 C   0  0  0  0  0  2  0  0  0  0  0  0
  179.5080  176.8490  138.6670 C   0  0  0  0  0  2  0  0  0  0  0  0
  1 27  1  0  0  0  0
  1 26  1  0  0  0  0
  3  8  1  0  0  0  0
  3 16  1  6  0  0  0
  4 18  1  0  0  0  0
  4 23  2  0  0  0  0
  5 11  2  0  0  0  0
  5 15  1  0  0  0  0
  6  7  1  0  0  0  0
  6 19  1  0  0  0  0
  7  3  1  0  0  0  0
  8 16  1  1  0  0  0
  8 12  1  0  0  0  0
  9 25  1  0  0  0  0
  9 27  1  0  0  0  0
 10 17  2  0  0  0  0
 11 20  1  0  0  0  0
 12 15  1  0  0  0  0
 13  9  2  0  0  0  0
 14  2  2  0  0  0  0
 15  4  1  0  0  0  0
 17 28  1  0  0  0  0
 18  1  2  0  0  0  0
 19  5  1  0  0  0  0
 20 13  1  0  0  0  0
 20 18  1  0  0  0  0
 21 26  2  0  0  0  0
 22 24  2  0  0  0  0
 22 10  1  0  0  0  0
 23 21  1  0  0  0  0
 24 13  1  0  0  0  0
 25 17  1  6  0  0  0
 25 14  1  0  0  0  0
 27  2  1  0  0  0  0
 29 28  1  0  0  0  0
 30 33  1  0  0  0  0
 32 29  1  0  0  0  0
 32 31  1  0  0  0  0
 33 31  1  0  0  0  0
 34 30  1  0  0  0  0
 34 32  1  0  0  0  0
M  END
>  <MODEL>
8

>  <REMARK>
 VINA RESULT:      -7.8      2.763      8.799
  Name = 
  3 active torsions:
  status: ('A' for Active; 'I' for Inactive)
    1  A    between atoms: C_17  and  C_28
    2  A    between atoms: C_28  and  C_29
    3  A    between atoms: C_29  and  N_32
                            x       y       z     vdW  Elec       q    Type
                         _______ _______ _______ _____ _____    ______ ____

>  <TORSDO>
F 3

$$$$
=
 OpenBabel11122412193D

 34 41  0  0  1  0  0  0  0  0999 V2000
  190.6700  177.4830  141.2570 C   0  0  0  0  0  0  0  0  0  0  0  0
  190.4390  177.7190  143.8360 C   0  0  0  0  0  3  0  0  0  0  0  0
  189.6660  174.9840  135.7350 C   0  0  2  0  0  3  0  0  0  0  0  0
  190.6280  177.1890  138.8440 C   0  0  0  0  0  0  0  0  0  0  0  0
  188.4170  177.0320  137.6990 C   0  0  0  0  0  0  0  0  0  0  0  0
  187.3950  175.2130  136.2950 C   0  0  0  0  0  2  0  0  0  0  0  0
  188.3180  174.7160  135.2670 N   0  0  0  0  0  2  0  0  0  0  0  0
  189.9880  176.3690  135.2070 C   0  0  1  0  0  3  0  0  0  0  0  0
  188.5420  177.7370  142.5000 C   0  0  0  0  0  0  0  0  0  0  0  0
  185.7200  178.4150  143.4450 C   0  0  0  0  0  3  0  0  0  0  0  0
  187.8190  177.1800  138.8440 N   0  0  0  0  0  0  0  0  0  0  0  0
  190.6480  177.1120  136.3530 C   0  0  0  0  0  2  0  0  0  0  0  0
  187.6970  177.5340  141.2820 C   0  0  0  0  0  0  0  0  0  0  0  0
  189.2260  177.8170  144.6470 N   0  0  0  0  0  0  0  0  0  0  0  0
  189.8770  177.0660  137.6180 N   0  0  0  0  0  0  0  0  0  0  0  0
  190.7030  175.1570  134.6460 C   0  0  0  0  0  2  0  0  0  0  0  0
  186.7070  177.8770  144.1790 C   0  0  0  0  0  0  0  0  0  0  0  0
  189.9480  177.3620  140.0570 C   0  0  0  0  0  0  0  0  0  0  0  0
  187.5310  176.7310  136.5160 C   0  0  0  0  0  2  0  0  0  0  0  0
  188.5050  177.4030  140.0520 N   0  0  0  0  0  0  0  0  0  0  0  0
  192.7480  177.2520  140.0430 C   0  0  0  0  0  3  0  0  0  0  0  0
  185.8150  178.9790  142.0810 C   0  0  0  0  0  3  0  0  0  0  0  0
  192.0330  177.1350  138.8480 C   0  0  0  0  0  3  0  0  0  0  0  0
  186.6960  178.6370  141.1370 C   0  0  0  0  0  3  0  0  0  0  0  0
  188.1190  177.8280  143.7430 C   0  0  2  0  0  3  0  0  0  0  0  0
  192.0670  177.4270  141.2490 C   0  0  0  0  0  3  0  0  0  0  0  0
  189.9460  177.6680  142.4680 N   0  0  0  0  0  0  0  0  0  0  0  0
  186.3730  177.4330  145.5640 C   0  0  0  0  0  2  0  0  0  0  0  0
  186.5300  178.5880  146.5400 C   0  0  0  0  0  2  0  0  0  0  0  0
  189.2120  176.8620  147.7170 C   0  0  0  0  0  2  0  0  0  0  0  0
  188.2620  179.0040  148.0620 C   0  0  0  0  0  2  0  0  0  0  0  0
  187.1440  178.1160  147.7680 N   0  0  0  0  0  0  0  0  0  0  0  0
  189.4340  178.1450  148.4640 C   0  0  0  0  0  2  0  0  0  0  0  0
  187.7160  176.8040  147.4810 C   0  0  0  0  0  2  0  0  0  0  0  0
  1 27  1  0  0  0  0
  2 14  2  0  0  0  0
  3 16  1  6  0  0  0
  4 23  2  0  0  0  0
  4 18  1  0  0  0  0
  5 11  2  0  0  0  0
  6 19  1  0  0  0  0
  7  3  1  0  0  0  0
  7  6  1  0  0  0  0
  8 16  1  6  0  0  0
  8  3  1  0  0  0  0
  8 12  1  0  0  0  0
 10 17  2  0  0  0  0
 11 20  1  0  0  0  0
 12 15  1  0  0  0  0
 13  9  2  0  0  0  0
 15  5  1  0  0  0  0
 15  4  1  0  0  0  0
 17 28  1  0  0  0  0
 18  1  2  0  0  0  0
 19  5  1  0  0  0  0
 20 18  1  0  0  0  0
 20 13  1  0  0  0  0
 21 26  2  0  0  0  0
 22 10  1  0  0  0  0
 23 21  1  0  0  0  0
 24 13  1  0  0  0  0
 24 22  2  0  0  0  0
 25  9  1  1  0  0  0
 25 17  1  0  0  0  0
 25 14  1  0  0  0  0
 26  1  1  0  0  0  0
 27  9  1  0  0  0  0
 27  2  1  0  0  0  0
 28 29  1  0  0  0  0
 29 32  1  0  0  0  0
 30 33  1  0  0  0  0
 31 33  1  0  0  0  0
 32 31  1  0  0  0  0
 34 30  1  0  0  0  0
 34 32  1  0  0  0  0
M  END
>  <MODEL>
9

>  <REMARK>
 VINA RESULT:      -7.7      3.962      6.710
  Name = 
  3 active torsions:
  status: ('A' for Active; 'I' for Inactive)
    1  A    between atoms: C_17  and  C_28
    2  A    between atoms: C_28  and  C_29
    3  A    between atoms: C_29  and  N_32
                            x       y       z     vdW  Elec       q    Type
                         _______ _______ _______ _____ _____    ______ ____

>  <TORSDO>
F 3

$$$$
