=
 OpenBabel11122411223D

 37 43  0  0  1  0  0  0  0  0999 V2000
  182.3560  179.9950  138.7020 C   0  0  0  0  0  2  0  0  0  0  0  0
  185.5350  178.5260  142.9250 C   0  0  0  0  0  0  0  0  0  0  0  0
  185.2200  178.3950  138.6590 C   0  0  1  0  0  3  0  0  0  0  0  0
  181.3650  181.1540  138.8060 C   0  0  2  0  0  3  0  0  0  0  0  0
  181.9730  176.7660  137.6230 O   0  0  0  0  0  0  0  0  0  0  0  0
  186.6060  178.7460  140.6840 C   0  0  0  0  0  0  0  0  0  0  0  0
  183.9820  177.5120  138.7690 C   0  0  2  0  0  3  0  0  0  0  0  0
  179.4730  179.5770  138.0070 C   0  0  2  0  0  3  0  0  0  0  0  0
  185.4100  178.7490  140.0830 C   0  0  0  0  0  0  0  0  0  0  0  0
  183.2210  177.3680  137.4380 C   0  0  1  0  0  3  0  0  0  0  0  0
  187.8460  178.6870  139.8420 C   0  0  0  0  0  2  0  0  0  0  0  0
  179.8970  180.7240  138.9340 C   0  0  0  0  0  2  0  0  0  0  0  0
  184.1450  178.6340  140.8400 C   0  0  2  0  0  3  0  0  0  0  0  0
  185.1140  179.8840  143.4620 C   0  0  0  0  0  1  0  0  0  0  0  0
  186.2630  176.7310  136.9190 C   0  0  0  0  0  2  0  0  0  0  0  0
  187.6290  177.7740  138.6600 C   0  0  0  0  0  3  0  0  0  0  0  0
  184.3700  177.8800  142.1510 C   0  0  0  0  0  2  0  0  0  0  0  0
  180.1700  178.2250  138.2850 C   0  0  1  0  0  3  0  0  0  0  0  0
  181.0670  177.7180  137.1510 C   0  0  0  0  0  2  0  0  0  0  0  0
  186.4150  177.6470  138.0940 C   0  0  0  0  0  0  0  0  0  0  0  0
  183.1990  177.9370  139.9650 N   0  0  1  0  0  0  0  0  0  0  0  0
  186.6890  178.6810  142.0830 O   0  0  0  0  0  0  0  0  0  0  0  0
  184.0220  176.5930  136.3750 C   0  0  1  0  0  3  0  0  0  0  0  0
  185.8960  177.6370  144.0950 C   0  0  0  0  0  1  0  0  0  0  0  0
  180.8040  178.1620  139.6130 N   0  0  0  0  0  2  0  0  0  0  0  0
  179.5500  179.9600  136.6650 O   0  0  0  0  0  1  0  0  0  0  0  0
  182.0870  178.8800  139.7360 C   0  0  2  0  0  3  0  0  0  0  0  0
  185.2640  177.1850  136.0370 O   0  0  0  0  0  0  0  0  0  0  0  0
  184.6320  174.4680  137.5650 C   0  0  0  0  0  3  0  0  0  0  0  0
  184.0130  175.0850  136.4720 C   0  0  0  0  0  0  0  0  0  0  0  0
  183.3710  174.2970  135.5040 C   0  0  0  0  0  3  0  0  0  0  0  0
  182.6850  172.0760  134.5940 C   0  0  0  0  0  1  0  0  0  0  0  0
  183.9870  172.2930  136.7150 C   0  0  0  0  0  3  0  0  0  0  0  0
  183.3620  172.9050  135.6240 C   0  0  0  0  0  0  0  0  0  0  0  0
  184.6220  173.0750  137.6850 C   0  0  0  0  0  3  0  0  0  0  0  0
  180.5590  183.1170  137.8220 C   0  0  0  0  0  1  0  0  0  0  0  0
  181.5250  182.0430  137.6670 N   0  0  0  0  0  2  0  0  0  0  0  0
  1  4  1  0  0  0  0
  1 27  1  0  0  0  0
  2 14  1  0  0  0  0
  2 24  1  0  0  0  0
  3 20  1  1  0  0  0
  3  7  1  0  0  0  0
  3  9  1  0  0  0  0
  4 37  1  6  0  0  0
  4 12  1  0  0  0  0
  6 22  1  0  0  0  0
  7 21  1  0  0  0  0
  8 18  1  0  0  0  0
  8 12  1  0  0  0  0
  9  6  2  0  0  0  0
  9 13  1  0  0  0  0
 10  5  1  0  0  0  0
 10  7  1  0  0  0  0
 11  6  1  0  0  0  0
 13 17  1  0  0  0  0
 15 20  1  0  0  0  0
 16 11  1  0  0  0  0
 17  2  1  0  0  0  0
 18 25  1  0  0  0  0
 19  5  1  0  0  0  0
 19 18  1  0  0  0  0
 20 16  2  0  0  0  0
 21 13  1  0  0  0  0
 22  2  1  0  0  0  0
 23 30  1  0  0  0  0
 23 10  1  0  0  0  0
 25 27  1  0  0  0  0
 26  8  1  0  0  0  0
 27 21  1  0  0  0  0
 28 23  1  0  0  0  0
 28 15  1  0  0  0  0
 29 35  1  0  0  0  0
 30 29  2  0  0  0  0
 31 34  2  0  0  0  0
 31 30  1  0  0  0  0
 32 34  1  0  0  0  0
 33 35  2  0  0  0  0
 34 33  1  0  0  0  0
 37 36  1  0  0  0  0
M  END
>  <MODEL>
1

>  <REMARK>
 VINA RESULT:      -6.6      0.000      0.000
  Name = 
  2 active torsions:
  status: ('A' for Active; 'I' for Inactive)
    1  A    between atoms: C_4  and  N_37
    2  A    between atoms: C_23  and  C_30
                            x       y       z     vdW  Elec       q    Type
                         _______ _______ _______ _____ _____    ______ ____

>  <TORSDO>
F 2

$$$$
=
 OpenBabel11122411223D

 37 43  0  0  1  0  0  0  0  0999 V2000
  182.3080  176.3010  138.5130 C   0  0  0  0  0  2  0  0  0  0  0  0
  184.6390  178.9300  142.7250 C   0  0  0  0  0  0  0  0  0  0  0  0
  181.0930  178.7420  140.3370 C   0  0  1  0  0  3  0  0  0  0  0  0
  182.7330  174.8880  138.1120 C   0  0  2  0  0  3  0  0  0  0  0  0
  181.9390  179.1710  136.6800 O   0  0  0  0  0  0  0  0  0  0  0  0
  182.1500  178.9620  142.5680 C   0  0  0  0  0  0  0  0  0  0  0  0
  181.8860  179.1780  139.1100 C   0  0  2  0  0  3  0  0  0  0  0  0
  183.1310  175.7210  135.6920 C   0  0  2  0  0  3  0  0  0  0  0  0
  182.1980  178.5400  141.2990 C   0  0  0  0  0  0  0  0  0  0  0  0
  181.1090  179.0000  137.7920 C   0  0  1  0  0  3  0  0  0  0  0  0
  180.8320  179.3810  143.1490 C   0  0  0  0  0  2  0  0  0  0  0  0
  183.5970  174.8220  136.8450 C   0  0  0  0  0  2  0  0  0  0  0  0
  183.4760  178.2730  140.6030 C   0  0  2  0  0  3  0  0  0  0  0  0
  185.1450  177.5380  143.0620 C   0  0  0  0  0  1  0  0  0  0  0  0
  179.2790  180.5680  139.8230 C   0  0  0  0  0  2  0  0  0  0  0  0
  180.0160  180.1130  142.1110 C   0  0  0  0  0  3  0  0  0  0  0  0
  184.5990  179.1230  141.1970 C   0  0  0  0  0  2  0  0  0  0  0  0
  183.2010  177.2390  135.9820 C   0  0  1  0  0  3  0  0  0  0  0  0
  181.8470  177.9540  136.0020 C   0  0  0  0  0  2  0  0  0  0  0  0
  180.1200  179.8100  140.8040 C   0  0  0  0  0  0  0  0  0  0  0  0
  183.2500  178.5800  139.1880 N   0  0  1  0  0  0  0  0  0  0  0  0
  183.3360  179.1190  143.3020 O   0  0  0  0  0  0  0  0  0  0  0  0
  179.8930  179.9410  137.6860 C   0  0  1  0  0  3  0  0  0  0  0  0
  185.5910  179.9450  143.3210 C   0  0  0  0  0  1  0  0  0  0  0  0
  184.0620  177.5700  137.1310 N   0  0  0  0  0  2  0  0  0  0  0  0
  181.8800  175.3190  135.2150 O   0  0  0  0  0  1  0  0  0  0  0  0
  183.4690  177.3170  138.4580 C   0  0  2  0  0  3  0  0  0  0  0  0
  178.9350  179.7700  138.7150 O   0  0  0  0  0  0  0  0  0  0  0  0
  181.1000  182.1230  137.9750 C   0  0  0  0  0  3  0  0  0  0  0  0
  180.1630  181.3660  137.2630 C   0  0  0  0  0  0  0  0  0  0  0  0
  179.5140  181.9320  136.1550 C   0  0  0  0  0  3  0  0  0  0  0  0
  179.0980  183.8420  134.6020 C   0  0  0  0  0  1  0  0  0  0  0  0
  180.7250  184.0010  136.4920 C   0  0  0  0  0  3  0  0  0  0  0  0
  179.7920  183.2470  135.7740 C   0  0  0  0  0  0  0  0  0  0  0  0
  181.3790  183.4390  137.5920 C   0  0  0  0  0  3  0  0  0  0  0  0
  180.4570  174.7190  138.6230 C   0  0  0  0  0  1  0  0  0  0  0  0
  181.5590  174.0460  137.9570 N   0  0  0  0  0  2  0  0  0  0  0  0
  2 14  1  0  0  0  0
  2 22  1  0  0  0  0
  2 24  1  0  0  0  0
  3 20  1  1  0  0  0
  3  9  1  0  0  0  0
  4 37  1  6  0  0  0
  4  1  1  0  0  0  0
  5 10  1  0  0  0  0
  6 11  1  0  0  0  0
  6 22  1  0  0  0  0
  7 21  1  0  0  0  0
  7  3  1  0  0  0  0
  8 18  1  0  0  0  0
  8 12  1  0  0  0  0
  9  6  2  0  0  0  0
 10  7  1  0  0  0  0
 12  4  1  0  0  0  0
 13 17  1  0  0  0  0
 13  9  1  0  0  0  0
 15 20  1  0  0  0  0
 16 11  1  0  0  0  0
 17  2  1  0  0  0  0
 18 19  1  0  0  0  0
 18 25  1  0  0  0  0
 19  5  1  0  0  0  0
 20 16  2  0  0  0  0
 21 13  1  0  0  0  0
 23 10  1  0  0  0  0
 23 28  1  0  0  0  0
 25 27  1  0  0  0  0
 26  8  1  0  0  0  0
 27  1  1  0  0  0  0
 27 21  1  0  0  0  0
 28 15  1  0  0  0  0
 30 23  1  0  0  0  0
 30 29  2  0  0  0  0
 31 30  1  0  0  0  0
 32 34  1  0  0  0  0
 33 35  2  0  0  0  0
 34 31  2  0  0  0  0
 34 33  1  0  0  0  0
 35 29  1  0  0  0  0
 37 36  1  0  0  0  0
M  END
>  <MODEL>
2

>  <REMARK>
 VINA RESULT:      -6.2      2.180      6.436
  Name = 
  2 active torsions:
  status: ('A' for Active; 'I' for Inactive)
    1  A    between atoms: C_4  and  N_37
    2  A    between atoms: C_23  and  C_30
                            x       y       z     vdW  Elec       q    Type
                         _______ _______ _______ _____ _____    ______ ____

>  <TORSDO>
F 2

$$$$
=
 OpenBabel11122411223D

 37 43  0  0  1  0  0  0  0  0999 V2000
  191.0270  175.7770  136.0950 C   0  0  0  0  0  2  0  0  0  0  0  0
  186.6720  172.4630  135.7210 C   0  0  0  0  0  0  0  0  0  0  0  0
  187.8470  176.5200  136.4110 C   0  0  1  0  0  3  0  0  0  0  0  0
  192.3580  175.4360  135.4250 C   0  0  2  0  0  3  0  0  0  0  0  0
  190.2720  176.7190  139.3010 O   0  0  0  0  0  0  0  0  0  0  0  0
  186.3160  174.9000  135.3260 C   0  0  0  0  0  0  0  0  0  0  0  0
  188.5500  176.1060  137.6990 C   0  0  2  0  0  3  0  0  0  0  0  0
  193.5550  175.7390  137.7010 C   0  0  2  0  0  3  0  0  0  0  0  0
  187.5080  175.1880  135.8640 C   0  0  0  0  0  0  0  0  0  0  0  0
  189.4600  177.2070  138.2740 C   0  0  1  0  0  3  0  0  0  0  0  0
  185.3850  176.0210  134.9720 C   0  0  0  0  0  2  0  0  0  0  0  0
  193.4470  174.9490  136.3910 C   0  0  0  0  0  2  0  0  0  0  0  0
  188.4080  174.1420  136.3960 C   0  0  2  0  0  3  0  0  0  0  0  0
  187.4840  171.8430  134.5970 C   0  0  0  0  0  1  0  0  0  0  0  0
  186.6270  178.4580  137.6920 C   0  0  0  0  0  2  0  0  0  0  0  0
  185.4640  177.1110  136.0130 C   0  0  0  0  0  3  0  0  0  0  0  0
  187.6060  172.9240  136.8550 C   0  0  0  0  0  2  0  0  0  0  0  0
  192.3180  175.6380  138.6250 C   0  0  1  0  0  3  0  0  0  0  0  0
  191.5700  176.9560  138.8460 C   0  0  0  0  0  2  0  0  0  0  0  0
  186.6090  177.3590  136.6740 C   0  0  0  0  0  0  0  0  0  0  0  0
  189.1510  174.7550  137.5010 N   0  0  1  0  0  0  0  0  0  0  0  0
  185.9040  173.5640  135.2060 O   0  0  0  0  0  0  0  0  0  0  0  0
  188.6700  178.4330  138.7700 C   0  0  1  0  0  3  0  0  0  0  0  0
  185.7240  171.4150  136.2630 C   0  0  0  0  0  1  0  0  0  0  0  0
  191.4370  174.5070  138.2900 N   0  0  0  0  0  2  0  0  0  0  0  0
  193.9440  177.0600  137.4620 O   0  0  0  0  0  1  0  0  0  0  0  0
  190.5730  174.7060  137.1100 C   0  0  2  0  0  3  0  0  0  0  0  0
  187.8940  179.0680  137.7690 O   0  0  0  0  0  0  0  0  0  0  0  0
  186.6860  178.6800  140.2890 C   0  0  0  0  0  3  0  0  0  0  0  0
  188.0330  178.3320  140.1370 C   0  0  0  0  0  0  0  0  0  0  0  0
  188.7580  177.8690  141.2450 C   0  0  0  0  0  3  0  0  0  0  0  0
  188.9170  177.2810  143.6660 C   0  0  0  0  0  1  0  0  0  0  0  0
  186.7980  178.1230  142.6440 C   0  0  0  0  0  3  0  0  0  0  0  0
  188.1430  177.7680  142.4950 C   0  0  0  0  0  0  0  0  0  0  0  0
  186.0700  178.5790  141.5400 C   0  0  0  0  0  3  0  0  0  0  0  0
  194.2850  176.4730  134.5990 C   0  0  0  0  0  1  0  0  0  0  0  0
  192.8380  176.5820  134.6710 N   0  0  0  0  0  2  0  0  0  0  0  0
  1 27  1  0  0  0  0
  2 24  1  0  0  0  0
  2 17  1  0  0  0  0
  3  9  1  1  0  0  0
  3 20  1  0  0  0  0
  3  7  1  0  0  0  0
  4 37  1  1  0  0  0
  4  1  1  0  0  0  0
  4 12  1  0  0  0  0
  6  9  2  0  0  0  0
  7 10  1  0  0  0  0
  8 18  1  0  0  0  0
  9 13  1  0  0  0  0
 10 23  1  0  0  0  0
 10  5  1  0  0  0  0
 11  6  1  0  0  0  0
 11 16  1  0  0  0  0
 12  8  1  0  0  0  0
 13 17  1  0  0  0  0
 13 21  1  0  0  0  0
 14  2  1  0  0  0  0
 15 28  1  0  0  0  0
 16 20  2  0  0  0  0
 18 19  1  0  0  0  0
 19  5  1  0  0  0  0
 20 15  1  0  0  0  0
 21  7  1  0  0  0  0
 22  6  1  0  0  0  0
 22  2  1  0  0  0  0
 23 30  1  0  0  0  0
 25 18  1  0  0  0  0
 26  8  1  0  0  0  0
 27 21  1  0  0  0  0
 27 25  1  0  0  0  0
 28 23  1  0  0  0  0
 29 35  1  0  0  0  0
 30 29  2  0  0  0  0
 30 31  1  0  0  0  0
 31 34  2  0  0  0  0
 34 33  1  0  0  0  0
 34 32  1  0  0  0  0
 35 33  2  0  0  0  0
 36 37  1  0  0  0  0
M  END
>  <MODEL>
3

>  <REMARK>
 VINA RESULT:      -5.8      4.558      9.364
  Name = 
  2 active torsions:
  status: ('A' for Active; 'I' for Inactive)
    1  A    between atoms: C_4  and  N_37
    2  A    between atoms: C_23  and  C_30
                            x       y       z     vdW  Elec       q    Type
                         _______ _______ _______ _____ _____    ______ ____

>  <TORSDO>
F 2

$$$$
=
 OpenBabel11122411223D

 37 43  0  0  1  0  0  0  0  0999 V2000
  183.6900  174.9890  136.9690 C   0  0  0  0  0  2  0  0  0  0  0  0
  188.0090  178.3050  137.6330 C   0  0  0  0  0  0  0  0  0  0  0  0
  183.9620  177.6540  138.8620 C   0  0  1  0  0  3  0  0  0  0  0  0
  183.8510  173.5420  136.5020 C   0  0  2  0  0  3  0  0  0  0  0  0
  181.6740  177.5260  135.8590 O   0  0  0  0  0  0  0  0  0  0  0  0
  186.2970  178.2480  139.4450 C   0  0  0  0  0  0  0  0  0  0  0  0
  183.4790  177.9130  137.4390 C   0  0  2  0  0  3  0  0  0  0  0  0
  182.1590  173.9950  134.5950 C   0  0  2  0  0  3  0  0  0  0  0  0
  185.4240  177.6330  138.6370 C   0  0  0  0  0  0  0  0  0  0  0  0
  182.0100  177.5110  137.2150 C   0  0  1  0  0  3  0  0  0  0  0  0
  185.8380  178.7190  140.7930 C   0  0  0  0  0  2  0  0  0  0  0  0
  183.4520  173.3000  135.0390 C   0  0  0  0  0  2  0  0  0  0  0  0
  185.7490  177.2930  137.2350 C   0  0  2  0  0  3  0  0  0  0  0  0
  188.7780  176.9960  137.5700 C   0  0  0  0  0  1  0  0  0  0  0  0
  182.1660  179.3310  139.7840 C   0  0  0  0  0  2  0  0  0  0  0  0
  184.4310  179.2590  140.7040 C   0  0  0  0  0  3  0  0  0  0  0  0
  186.8010  178.2540  136.6790 C   0  0  0  0  0  2  0  0  0  0  0  0
  182.2160  175.5410  134.6010 C   0  0  1  0  0  3  0  0  0  0  0  0
  181.2680  176.2150  135.5980 C   0  0  0  0  0  2  0  0  0  0  0  0
  183.5490  178.7580  139.8200 C   0  0  0  0  0  0  0  0  0  0  0  0
  184.4920  177.3690  136.4870 N   0  0  1  0  0  0  0  0  0  0  0  0
  187.5890  178.5480  138.9850 O   0  0  0  0  0  0  0  0  0  0  0  0
  181.0250  178.3920  138.0070 C   0  0  1  0  0  3  0  0  0  0  0  0
  188.9300  179.4240  137.1960 C   0  0  0  0  0  1  0  0  0  0  0  0
  183.5900  176.0690  134.6410 N   0  0  0  0  0  2  0  0  0  0  0  0
  181.0540  173.4920  135.2870 O   0  0  0  0  0  1  0  0  0  0  0  0
  184.2510  176.0130  135.9590 C   0  0  2  0  0  3  0  0  0  0  0  0
  181.2160  178.3600  139.4110 O   0  0  0  0  0  0  0  0  0  0  0  0
  179.6480  179.8300  136.4780 C   0  0  0  0  0  3  0  0  0  0  0  0
  180.6820  179.7400  137.4160 C   0  0  0  0  0  0  0  0  0  0  0  0
  181.3610  180.9020  137.8130 C   0  0  0  0  0  3  0  0  0  0  0  0
  181.7410  183.3670  137.6860 C   0  0  0  0  0  1  0  0  0  0  0  0
  179.9850  182.2250  136.3230 C   0  0  0  0  0  3  0  0  0  0  0  0
  181.0150  182.1400  137.2650 C   0  0  0  0  0  0  0  0  0  0  0  0
  179.3020  181.0700  135.9300 C   0  0  0  0  0  3  0  0  0  0  0  0
  183.3910  171.2940  136.9590 C   0  0  0  0  0  1  0  0  0  0  0  0
  183.0990  172.6560  137.3750 N   0  0  0  0  0  2  0  0  0  0  0  0
  2 22  1  0  0  0  0
  3  9  1  6  0  0  0
  3 20  1  0  0  0  0
  4  1  1  0  0  0  0
  4 37  1  1  0  0  0
  5 10  1  0  0  0  0
  6 11  1  0  0  0  0
  7  3  1  0  0  0  0
  8 18  1  0  0  0  0
  8 12  1  0  0  0  0
  8 26  1  0  0  0  0
  9  6  2  0  0  0  0
 10  7  1  0  0  0  0
 10 23  1  0  0  0  0
 12  4  1  0  0  0  0
 13  9  1  0  0  0  0
 14  2  1  0  0  0  0
 15 20  1  0  0  0  0
 16 11  1  0  0  0  0
 17 13  1  0  0  0  0
 17  2  1  0  0  0  0
 18 25  1  0  0  0  0
 18 19  1  0  0  0  0
 19  5  1  0  0  0  0
 20 16  2  0  0  0  0
 21 13  1  0  0  0  0
 21  7  1  0  0  0  0
 22  6  1  0  0  0  0
 23 28  1  0  0  0  0
 24  2  1  0  0  0  0
 25 27  1  0  0  0  0
 27 21  1  0  0  0  0
 27  1  1  0  0  0  0
 28 15  1  0  0  0  0
 29 30  1  0  0  0  0
 30 31  2  0  0  0  0
 30 23  1  0  0  0  0
 33 34  2  0  0  0  0
 34 32  1  0  0  0  0
 34 31  1  0  0  0  0
 35 33  1  0  0  0  0
 35 29  2  0  0  0  0
 36 37  1  0  0  0  0
M  END
>  <MODEL>
4

>  <REMARK>
 VINA RESULT:      -5.2      2.161      6.467
  Name = 
  2 active torsions:
  status: ('A' for Active; 'I' for Inactive)
    1  A    between atoms: C_4  and  N_37
    2  A    between atoms: C_23  and  C_30
                            x       y       z     vdW  Elec       q    Type
                         _______ _______ _______ _____ _____    ______ ____

>  <TORSDO>
F 2

$$$$
=
 OpenBabel11122411223D

 37 43  0  0  1  0  0  0  0  0999 V2000
  184.4150  178.1020  138.3960 C   0  0  0  0  0  2  0  0  0  0  0  0
  180.1560  181.4330  137.4720 C   0  0  0  0  0  0  0  0  0  0  0  0
  181.2740  177.7070  139.2570 C   0  0  1  0  0  3  0  0  0  0  0  0
  185.8530  178.6220  138.4220 C   0  0  2  0  0  3  0  0  0  0  0  0
  182.9750  175.4850  136.7200 O   0  0  0  0  0  0  0  0  0  0  0  0
  179.9810  179.8200  139.3660 C   0  0  0  0  0  0  0  0  0  0  0  0
  181.6480  177.1540  137.8870 C   0  0  2  0  0  3  0  0  0  0  0  0
  186.5030  176.8420  136.6580 C   0  0  2  0  0  3  0  0  0  0  0  0
  181.0260  179.1220  138.9030 C   0  0  0  0  0  0  0  0  0  0  0  0
  182.4370  175.8330  137.9620 C   0  0  1  0  0  3  0  0  0  0  0  0
  179.1940  179.2760  140.5200 C   0  0  0  0  0  2  0  0  0  0  0  0
  186.6740  178.2770  137.1720 C   0  0  0  0  0  2  0  0  0  0  0  0
  181.7450  179.5030  137.6680 C   0  0  2  0  0  3  0  0  0  0  0  0
  181.1840  182.5110  137.7690 C   0  0  0  0  0  1  0  0  0  0  0  0
  179.8560  175.5550  139.7490 C   0  0  0  0  0  2  0  0  0  0  0  0
  179.0670  177.7760  140.4020 C   0  0  0  0  0  3  0  0  0  0  0  0
  180.8190  180.2640  136.7190 C   0  0  0  0  0  2  0  0  0  0  0  0
  185.0850  176.5000  136.1450 C   0  0  1  0  0  3  0  0  0  0  0  0
  184.3500  175.4250  136.9530 C   0  0  0  0  0  2  0  0  0  0  0  0
  180.0370  177.0390  139.8310 C   0  0  0  0  0  0  0  0  0  0  0  0
  182.2330  178.2570  137.0710 N   0  0  1  0  0  0  0  0  0  0  0  0
  179.5640  180.9840  138.7020 O   0  0  0  0  0  0  0  0  0  0  0  0
  181.5950  174.6670  138.5130 C   0  0  1  0  0  3  0  0  0  0  0  0
  179.0750  182.0280  136.5950 C   0  0  0  0  0  1  0  0  0  0  0  0
  184.2680  177.6920  135.8650 N   0  0  0  0  0  2  0  0  0  0  0  0
  186.9810  175.9140  137.5880 O   0  0  0  0  0  1  0  0  0  0  0  0
  183.7050  178.3660  137.0510 C   0  0  2  0  0  3  0  0  0  0  0  0
  181.0910  174.8810  139.8200 O   0  0  0  0  0  0  0  0  0  0  0  0
  179.8600  174.7590  136.7000 C   0  0  0  0  0  3  0  0  0  0  0  0
  180.6580  173.9810  137.5460 C   0  0  0  0  0  0  0  0  0  0  0  0
  180.5960  172.5810  137.4630 C   0  0  0  0  0  3  0  0  0  0  0  0
  179.6700  170.4870  136.4680 C   0  0  0  0  0  1  0  0  0  0  0  0
  178.9340  172.7510  135.7100 C   0  0  0  0  0  3  0  0  0  0  0  0
  179.7340  171.9690  136.5500 C   0  0  0  0  0  0  0  0  0  0  0  0
  178.9980  174.1460  135.7860 C   0  0  0  0  0  3  0  0  0  0  0  0
  185.8630  178.7300  140.7590 C   0  0  0  0  0  1  0  0  0  0  0  0
  186.5300  178.1370  139.6130 N   0  0  0  0  0  2  0  0  0  0  0  0
  1  4  1  0  0  0  0
  2 14  1  0  0  0  0
  2 22  1  0  0  0  0
  3  9  1  6  0  0  0
  3 20  1  0  0  0  0
  4 37  1  1  0  0  0
  5 19  1  0  0  0  0
  5 10  1  0  0  0  0
  6 11  1  0  0  0  0
  7 10  1  0  0  0  0
  7  3  1  0  0  0  0
  8 12  1  0  0  0  0
  8 26  1  0  0  0  0
  9  6  2  0  0  0  0
 10 23  1  0  0  0  0
 12  4  1  0  0  0  0
 13  9  1  0  0  0  0
 15 28  1  0  0  0  0
 15 20  1  0  0  0  0
 16 11  1  0  0  0  0
 17  2  1  0  0  0  0
 17 13  1  0  0  0  0
 18  8  1  0  0  0  0
 18 19  1  0  0  0  0
 20 16  2  0  0  0  0
 21 13  1  0  0  0  0
 21  7  1  0  0  0  0
 22  6  1  0  0  0  0
 23 28  1  0  0  0  0
 24  2  1  0  0  0  0
 25 18  1  0  0  0  0
 25 27  1  0  0  0  0
 27 21  1  0  0  0  0
 27  1  1  0  0  0  0
 29 30  1  0  0  0  0
 30 23  1  0  0  0  0
 31 30  2  0  0  0  0
 32 34  1  0  0  0  0
 33 35  1  0  0  0  0
 33 34  2  0  0  0  0
 34 31  1  0  0  0  0
 35 29  2  0  0  0  0
 37 36  1  0  0  0  0
M  END
>  <MODEL>
5

>  <REMARK>
 VINA RESULT:      -4.4      2.451      5.995
  Name = 
  2 active torsions:
  status: ('A' for Active; 'I' for Inactive)
    1  A    between atoms: C_4  and  N_37
    2  A    between atoms: C_23  and  C_30
                            x       y       z     vdW  Elec       q    Type
                         _______ _______ _______ _____ _____    ______ ____

>  <TORSDO>
F 2

$$$$
=
 OpenBabel11122411223D

 37 43  0  0  1  0  0  0  0  0999 V2000
  186.6940  177.0890  136.2180 C   0  0  0  0  0  2  0  0  0  0  0  0
  183.1020  172.9450  136.3320 C   0  0  0  0  0  0  0  0  0  0  0  0
  183.4920  177.1640  136.9330 C   0  0  1  0  0  3  0  0  0  0  0  0
  187.9730  177.0220  135.3850 C   0  0  2  0  0  3  0  0  0  0  0  0
  186.1610  177.8900  139.5060 O   0  0  0  0  0  0  0  0  0  0  0  0
  182.2060  175.2510  136.0200 C   0  0  0  0  0  0  0  0  0  0  0  0
  184.4190  176.9180  138.1190 C   0  0  2  0  0  3  0  0  0  0  0  0
  189.3530  177.5910  137.5010 C   0  0  2  0  0  3  0  0  0  0  0  0
  183.3700  175.7850  136.4120 C   0  0  0  0  0  0  0  0  0  0  0  0
  185.1460  178.1900  138.5930 C   0  0  1  0  0  3  0  0  0  0  0  0
  181.0280  176.1520  135.7990 C   0  0  0  0  0  2  0  0  0  0  0  0
  189.2500  176.7810  136.2020 C   0  0  0  0  0  2  0  0  0  0  0  0
  184.5250  174.9530  136.8140 C   0  0  2  0  0  3  0  0  0  0  0  0
  183.8800  172.4930  135.1080 C   0  0  0  0  0  1  0  0  0  0  0  0
  182.0660  178.8230  138.3820 C   0  0  0  0  0  2  0  0  0  0  0  0
  181.0080  177.2460  136.8390 C   0  0  0  0  0  3  0  0  0  0  0  0
  184.0530  173.6010  137.3500 C   0  0  0  0  0  2  0  0  0  0  0  0
  188.2870  177.2470  138.5680 C   0  0  1  0  0  3  0  0  0  0  0  0
  187.3170  178.3850  138.8990 C   0  0  0  0  0  2  0  0  0  0  0  0
  182.1500  177.7330  137.3580 C   0  0  0  0  0  0  0  0  0  0  0  0
  185.2560  175.7170  137.8280 N   0  0  1  0  0  0  0  0  0  0  0  0
  182.0670  173.8570  135.9320 O   0  0  0  0  0  0  0  0  0  0  0  0
  184.1870  179.2310  139.2010 C   0  0  1  0  0  3  0  0  0  0  0  0
  182.4650  171.7300  136.9720 C   0  0  0  0  0  1  0  0  0  0  0  0
  187.6230  175.9550  138.3270 N   0  0  0  0  0  2  0  0  0  0  0  0
  189.4290  178.9610  137.2350 O   0  0  0  0  0  1  0  0  0  0  0  0
  186.5980  175.9590  137.2660 C   0  0  2  0  0  3  0  0  0  0  0  0
  183.1800  179.6820  138.3120 O   0  0  0  0  0  0  0  0  0  0  0  0
  182.3990  178.8430  140.9200 C   0  0  0  0  0  3  0  0  0  0  0  0
  183.7580  179.0160  140.6340 C   0  0  0  0  0  0  0  0  0  0  0  0
  184.6980  178.9580  141.6740 C   0  0  0  0  0  3  0  0  0  0  0  0
  185.2780  178.6850  144.0870 C   0  0  0  0  0  1  0  0  0  0  0  0
  182.9190  178.5750  143.2710 C   0  0  0  0  0  3  0  0  0  0  0  0
  184.2780  178.7410  142.9890 C   0  0  0  0  0  0  0  0  0  0  0  0
  181.9800  178.6250  142.2360 C   0  0  0  0  0  3  0  0  0  0  0  0
  186.8160  178.8950  134.5940 C   0  0  0  0  0  1  0  0  0  0  0  0
  188.1100  178.2340  134.5940 N   0  0  0  0  0  2  0  0  0  0  0  0
  1 27  1  0  0  0  0
  2 24  1  0  0  0  0
  2 17  1  0  0  0  0
  3  9  1  1  0  0  0
  3 20  1  0  0  0  0
  3  7  1  0  0  0  0
  4 37  1  1  0  0  0
  4 12  1  0  0  0  0
  4  1  1  0  0  0  0
  6  9  2  0  0  0  0
  7 10  1  0  0  0  0
  8 18  1  0  0  0  0
  9 13  1  0  0  0  0
 10 23  1  0  0  0  0
 10  5  1  0  0  0  0
 11  6  1  0  0  0  0
 11 16  1  0  0  0  0
 12  8  1  0  0  0  0
 13 17  1  0  0  0  0
 13 21  1  0  0  0  0
 14  2  1  0  0  0  0
 16 20  2  0  0  0  0
 18 19  1  0  0  0  0
 19  5  1  0  0  0  0
 20 15  1  0  0  0  0
 21  7  1  0  0  0  0
 22  6  1  0  0  0  0
 22  2  1  0  0  0  0
 23 30  1  0  0  0  0
 25 18  1  0  0  0  0
 26  8  1  0  0  0  0
 27 21  1  0  0  0  0
 27 25  1  0  0  0  0
 28 15  1  0  0  0  0
 28 23  1  0  0  0  0
 29 35  1  0  0  0  0
 30 29  2  0  0  0  0
 30 31  1  0  0  0  0
 31 34  2  0  0  0  0
 34 33  1  0  0  0  0
 34 32  1  0  0  0  0
 35 33  2  0  0  0  0
 37 36  1  0  0  0  0
M  END
>  <MODEL>
6

>  <REMARK>
 VINA RESULT:      -4.2      2.451      7.405
  Name = 
  2 active torsions:
  status: ('A' for Active; 'I' for Inactive)
    1  A    between atoms: C_4  and  N_37
    2  A    between atoms: C_23  and  C_30
                            x       y       z     vdW  Elec       q    Type
                         _______ _______ _______ _____ _____    ______ ____

>  <TORSDO>
F 2

$$$$
=
 OpenBabel11122411223D

 37 43  0  0  1  0  0  0  0  0999 V2000
  184.5430  177.1870  136.2940 C   0  0  0  0  0  2  0  0  0  0  0  0
  180.7510  173.2400  136.6500 C   0  0  0  0  0  0  0  0  0  0  0  0
  181.2830  177.4400  136.0240 C   0  0  1  0  0  3  0  0  0  0  0  0
  185.9920  176.8790  135.9140 C   0  0  2  0  0  3  0  0  0  0  0  0
  183.2040  178.9700  138.8940 O   0  0  0  0  0  0  0  0  0  0  0  0
  180.1510  175.3200  135.4130 C   0  0  0  0  0  0  0  0  0  0  0  0
  181.8330  177.5890  137.4380 C   0  0  2  0  0  3  0  0  0  0  0  0
  186.7870  178.1000  138.0550 C   0  0  2  0  0  3  0  0  0  0  0  0
  181.2020  175.9650  135.9340 C   0  0  0  0  0  0  0  0  0  0  0  0
  182.4990  178.9550  137.6870 C   0  0  1  0  0  3  0  0  0  0  0  0
  179.1480  176.0910  134.6080 C   0  0  0  0  0  2  0  0  0  0  0  0
  186.9780  176.9230  137.0900 C   0  0  0  0  0  2  0  0  0  0  0  0
  182.1390  175.3160  136.8770 C   0  0  2  0  0  3  0  0  0  0  0  0
  181.7950  172.4380  135.8900 C   0  0  0  0  0  1  0  0  0  0  0  0
  179.6480  179.4500  136.4380 C   0  0  0  0  0  2  0  0  0  0  0  0
  178.9310  177.4550  135.2160 C   0  0  0  0  0  3  0  0  0  0  0  0
  181.4390  174.1940  137.6440 C   0  0  0  0  0  2  0  0  0  0  0  0
  185.4500  178.0930  138.8320 C   0  0  1  0  0  3  0  0  0  0  0  0
  184.5150  179.2650  138.5150 C   0  0  0  0  0  2  0  0  0  0  0  0
  179.9240  178.0950  135.8610 C   0  0  0  0  0  0  0  0  0  0  0  0
  182.6240  176.3690  137.7730 N   0  0  1  0  0  0  0  0  0  0  0  0
  179.9350  173.9670  135.7170 O   0  0  0  0  0  0  0  0  0  0  0  0
  181.4940  180.1220  137.6550 C   0  0  1  0  0  3  0  0  0  0  0  0
  179.8740  172.2780  137.4220 C   0  0  0  0  0  1  0  0  0  0  0  0
  184.7790  176.7820  138.8190 N   0  0  0  0  0  2  0  0  0  0  0  0
  187.0360  179.3190  137.4180 O   0  0  0  0  0  1  0  0  0  0  0  0
  184.0830  176.4400  137.5640 C   0  0  2  0  0  3  0  0  0  0  0  0
  180.8020  180.2580  136.4260 O   0  0  0  0  0  0  0  0  0  0  0  0
  180.0340  181.5910  139.0740 C   0  0  0  0  0  3  0  0  0  0  0  0
  180.6780  180.3600  138.9040 C   0  0  0  0  0  0  0  0  0  0  0  0
  180.5320  179.3620  139.8800 C   0  0  0  0  0  3  0  0  0  0  0  0
  179.6120  178.5410  142.0510 C   0  0  0  0  0  1  0  0  0  0  0  0
  179.1230  180.8340  141.1870 C   0  0  0  0  0  3  0  0  0  0  0  0
  179.7600  179.6000  141.0190 C   0  0  0  0  0  0  0  0  0  0  0  0
  179.2600  181.8280  140.2140 C   0  0  0  0  0  3  0  0  0  0  0  0
  187.8290  177.4960  134.6050 C   0  0  0  0  0  1  0  0  0  0  0  0
  186.4290  177.7840  134.8640 N   0  0  0  0  0  2  0  0  0  0  0  0
  1 27  1  0  0  0  0
  2 24  1  0  0  0  0
  2 17  1  0  0  0  0
  3 20  1  1  0  0  0
  3  7  1  0  0  0  0
  4 37  1  6  0  0  0
  4  1  1  0  0  0  0
  4 12  1  0  0  0  0
  6 22  1  0  0  0  0
  6  9  2  0  0  0  0
  7 10  1  0  0  0  0
  7 21  1  0  0  0  0
  8 18  1  0  0  0  0
  9  3  1  0  0  0  0
  9 13  1  0  0  0  0
 10  5  1  0  0  0  0
 11 16  1  0  0  0  0
 11  6  1  0  0  0  0
 12  8  1  0  0  0  0
 13 17  1  0  0  0  0
 13 21  1  0  0  0  0
 14  2  1  0  0  0  0
 16 20  2  0  0  0  0
 19 18  1  0  0  0  0
 19  5  1  0  0  0  0
 20 15  1  0  0  0  0
 22  2  1  0  0  0  0
 23 10  1  0  0  0  0
 23 30  1  0  0  0  0
 25 18  1  0  0  0  0
 26  8  1  0  0  0  0
 27 21  1  0  0  0  0
 27 25  1  0  0  0  0
 28 15  1  0  0  0  0
 28 23  1  0  0  0  0
 29 35  1  0  0  0  0
 30 29  2  0  0  0  0
 30 31  1  0  0  0  0
 31 34  2  0  0  0  0
 34 33  1  0  0  0  0
 34 32  1  0  0  0  0
 35 33  2  0  0  0  0
 36 37  1  0  0  0  0
M  END
>  <MODEL>
7

>  <REMARK>
 VINA RESULT:      -4.1      2.591      7.510
  Name = 
  2 active torsions:
  status: ('A' for Active; 'I' for Inactive)
    1  A    between atoms: C_4  and  N_37
    2  A    between atoms: C_23  and  C_30
                            x       y       z     vdW  Elec       q    Type
                         _______ _______ _______ _____ _____    ______ ____

>  <TORSDO>
F 2

$$$$
