=
 OpenBabel11122410543D

 31 35  0  0  1  0  0  0  0  0999 V2000
  183.4600  179.0160  144.5570 C   0  0  0  0  0  0  0  0  0  0  0  0
  186.5580  178.7190  142.4430 N   0  0  0  0  0  0  0  0  0  0  0  0
  187.5630  177.9940  143.1870 C   0  0  0  0  0  0  0  0  0  0  0  0
  184.2200  177.0630  138.1200 O   0  0  0  0  0  0  0  0  0  0  0  0
  185.2950  177.6230  137.7690 C   0  0  0  0  0  0  0  0  0  0  0  0
  188.4970  177.1390  145.2630 C   0  0  0  0  0  0  0  0  0  0  0  0
  185.1810  178.7660  142.8660 C   0  0  0  0  0  0  0  0  0  0  0  0
  182.4730  178.8100  143.5880 C   0  0  0  0  0  3  0  0  0  0  0  0
  187.5090  177.8590  144.5830 C   0  0  0  0  0  3  0  0  0  0  0  0
  185.7860  178.5020  140.1090 C   0  0  0  0  0  0  0  0  0  0  0  0
  183.1060  179.2370  145.8460 F   0  0  0  0  0  0  0  0  0  0  0  0
  188.6350  177.5090  141.0030 C   0  0  0  0  0  2  0  0  0  0  0  0
  188.4310  177.0030  146.7420 C   0  0  0  0  0  1  0  0  0  0  0  0
  184.5630  178.3320  140.5300 N   0  0  0  0  0  0  0  0  0  0  0  0
  186.8140  179.1050  141.0390 C   0  0  2  0  0  3  0  0  0  0  0  0
  186.1200  178.2880  138.7310 N   0  0  0  0  0  2  0  0  0  0  0  0
  184.8110  178.9930  144.1990 C   0  0  0  0  0  3  0  0  0  0  0  0
  189.5430  176.5440  144.5530 C   0  0  0  0  0  3  0  0  0  0  0  0
  184.1850  178.5710  141.8920 C   0  0  0  0  0  0  0  0  0  0  0  0
  182.8350  178.5850  142.2560 C   0  0  0  0  0  3  0  0  0  0  0  0
  188.1990  178.8470  140.6070 N   0  0  0  0  0  2  0  0  0  0  0  0
  188.6220  177.4010  142.4870 C   0  0  0  0  0  0  0  0  0  0  0  0
  189.6040  176.6710  143.1620 C   0  0  0  0  0  3  0  0  0  0  0  0
  188.0800  175.7430  136.0270 C   0  0  1  0  0  3  0  0  0  0  0  0
  185.6130  176.1370  135.7510 C   0  0  0  0  0  2  0  0  0  0  0  0
  187.3450  179.3350  136.7240 O   0  0  0  0  0  1  0  0  0  0  0  0
  189.0320  174.8660  136.5420 O   0  0  0  0  0  1  0  0  0  0  0  0
  186.6830  175.1840  136.2870 C   0  0  0  0  0  2  0  0  0  0  0  0
  187.1910  178.0760  136.1390 C   0  0  2  0  0  3  0  0  0  0  0  0
  185.7640  177.5440  136.3420 C   0  0  2  0  0  3  0  0  0  0  0  0
  188.2380  177.1080  136.6890 C   0  0  0  0  0  2  0  0  0  0  0  0
  1 11  1  0  0  0  0
  2  7  1  0  0  0  0
  2  3  1  0  0  0  0
  3  9  1  0  0  0  0
  5  4  2  0  0  0  0
  5 16  1  0  0  0  0
  6 13  1  0  0  0  0
  7 17  2  0  0  0  0
  8  1  2  0  0  0  0
  9  6  2  0  0  0  0
 10 14  2  0  0  0  0
 12 22  1  0  0  0  0
 14 19  1  0  0  0  0
 15 10  1  6  0  0  0
 15  2  1  0  0  0  0
 16 10  1  0  0  0  0
 17  1  1  0  0  0  0
 18  6  1  0  0  0  0
 19 20  2  0  0  0  0
 19  7  1  0  0  0  0
 20  8  1  0  0  0  0
 21 12  1  0  0  0  0
 21 15  1  0  0  0  0
 22 23  1  0  0  0  0
 22  3  2  0  0  0  0
 23 18  2  0  0  0  0
 24 28  1  0  0  0  0
 24 27  1  1  0  0  0
 24 31  1  0  0  0  0
 25 28  1  0  0  0  0
 25 30  1  0  0  0  0
 29 30  1  0  0  0  0
 29 31  1  0  0  0  0
 29 26  1  1  0  0  0
 30  5  1  1  0  0  0
M  END
>  <MODEL>
1

>  <REMARK>
 VINA RESULT:      -9.6      0.000      0.000
  Name = 
  1 active torsions:
  status: ('A' for Active; 'I' for Inactive)
    1  A    between atoms: C_5  and  C_30
                            x       y       z     vdW  Elec       q    Type
                         _______ _______ _______ _____ _____    ______ ____

>  <TORSDO>
F 1

$$$$
=
 OpenBabel11122410543D

 31 35  0  0  1  0  0  0  0  0999 V2000
  180.9910  178.8080  143.0190 C   0  0  0  0  0  0  0  0  0  0  0  0
  184.6420  178.9630  142.1200 N   0  0  0  0  0  0  0  0  0  0  0  0
  185.4220  178.5380  143.2600 C   0  0  0  0  0  0  0  0  0  0  0  0
  184.2880  176.4470  137.5970 O   0  0  0  0  0  0  0  0  0  0  0  0
  185.3110  177.1830  137.5340 C   0  0  0  0  0  0  0  0  0  0  0  0
  185.6860  178.1010  145.6380 C   0  0  0  0  0  0  0  0  0  0  0  0
  183.2160  178.7610  142.0520 C   0  0  0  0  0  0  0  0  0  0  0  0
  180.4590  178.3080  141.8260 C   0  0  0  0  0  3  0  0  0  0  0  0
  184.9000  178.5300  144.5630 C   0  0  0  0  0  3  0  0  0  0  0  0
  184.7930  178.3660  139.7300 C   0  0  0  0  0  0  0  0  0  0  0  0
  180.1740  179.0730  144.0650 F   0  0  0  0  0  0  0  0  0  0  0  0
  187.2620  178.0800  141.6600 C   0  0  0  0  0  2  0  0  0  0  0  0
  185.1230  178.0960  147.0130 C   0  0  0  0  0  1  0  0  0  0  0  0
  183.5450  177.9850  139.7460 N   0  0  0  0  0  0  0  0  0  0  0  0
  185.3120  179.2570  140.8340 C   0  0  2  0  0  3  0  0  0  0  0  0
  185.6230  178.0950  138.5920 N   0  0  0  0  0  2  0  0  0  0  0  0
  182.3660  179.0330  143.1340 C   0  0  0  0  0  3  0  0  0  0  0  0
  186.9980  177.6720  145.4180 C   0  0  0  0  0  3  0  0  0  0  0  0
  182.6750  178.2700  140.8500 C   0  0  0  0  0  0  0  0  0  0  0  0
  181.3010  178.0370  140.7420 C   0  0  0  0  0  3  0  0  0  0  0  0
  186.7820  179.2530  140.9300 N   0  0  0  0  0  2  0  0  0  0  0  0
  186.7410  178.1150  143.0530 C   0  0  0  0  0  0  0  0  0  0  0  0
  187.5250  177.6740  144.1230 C   0  0  0  0  0  3  0  0  0  0  0  0
  188.8090  175.7910  137.1410 C   0  0  1  0  0  3  0  0  0  0  0  0
  186.5720  175.6090  136.0110 C   0  0  0  0  0  2  0  0  0  0  0  0
  187.2760  179.1880  136.9450 O   0  0  0  0  0  1  0  0  0  0  0  0
  189.6520  175.1990  138.0790 O   0  0  0  0  0  1  0  0  0  0  0  0
  187.5280  174.9700  137.0190 C   0  0  0  0  0  2  0  0  0  0  0  0
  187.5560  177.8750  136.5620 C   0  0  2  0  0  3  0  0  0  0  0  0
  186.2610  177.0670  136.3740 C   0  0  2  0  0  3  0  0  0  0  0  0
  188.4880  177.2170  137.5780 C   0  0  0  0  0  2  0  0  0  0  0  0
  1 17  1  0  0  0  0
  1 11  1  0  0  0  0
  2  3  1  0  0  0  0
  3  9  1  0  0  0  0
  5  4  2  0  0  0  0
  5 16  1  0  0  0  0
  6 13  1  0  0  0  0
  7  2  1  0  0  0  0
  7 17  2  0  0  0  0
  8  1  2  0  0  0  0
  9  6  2  0  0  0  0
 10 14  2  0  0  0  0
 12 22  1  0  0  0  0
 14 19  1  0  0  0  0
 15 10  1  6  0  0  0
 15 21  1  0  0  0  0
 15  2  1  0  0  0  0
 16 10  1  0  0  0  0
 18  6  1  0  0  0  0
 19  7  1  0  0  0  0
 20 19  2  0  0  0  0
 20  8  1  0  0  0  0
 21 12  1  0  0  0  0
 22  3  2  0  0  0  0
 22 23  1  0  0  0  0
 23 18  2  0  0  0  0
 24 31  1  0  0  0  0
 24 27  1  1  0  0  0
 25 30  1  0  0  0  0
 25 28  1  0  0  0  0
 28 24  1  0  0  0  0
 29 26  1  1  0  0  0
 29 31  1  0  0  0  0
 30 29  1  0  0  0  0
 30  5  1  1  0  0  0
M  END
>  <MODEL>
2

>  <REMARK>
 VINA RESULT:      -9.4      1.426      2.003
  Name = 
  1 active torsions:
  status: ('A' for Active; 'I' for Inactive)
    1  A    between atoms: C_5  and  C_30
                            x       y       z     vdW  Elec       q    Type
                         _______ _______ _______ _____ _____    ______ ____

>  <TORSDO>
F 1

$$$$
=
 OpenBabel11122410543D

 31 35  0  0  1  0  0  0  0  0999 V2000
  180.7660  178.7410  143.0800 C   0  0  0  0  0  0  0  0  0  0  0  0
  184.3910  178.9770  142.1000 N   0  0  0  0  0  0  0  0  0  0  0  0
  185.2060  178.5830  143.2270 C   0  0  0  0  0  0  0  0  0  0  0  0
  184.0030  176.4090  137.6100 O   0  0  0  0  0  0  0  0  0  0  0  0
  185.0060  177.1690  137.5180 C   0  0  0  0  0  0  0  0  0  0  0  0
  185.5320  178.1760  145.6020 C   0  0  0  0  0  0  0  0  0  0  0  0
  182.9700  178.7400  142.0650 C   0  0  0  0  0  0  0  0  0  0  0  0
  180.2210  178.2170  141.9030 C   0  0  0  0  0  3  0  0  0  0  0  0
  184.7120  178.5750  144.5410 C   0  0  0  0  0  3  0  0  0  0  0  0
  184.5050  178.3600  139.7130 C   0  0  0  0  0  0  0  0  0  0  0  0
  179.9640  178.9970  144.1410 F   0  0  0  0  0  0  0  0  0  0  0  0
  187.0220  178.1550  141.5920 C   0  0  0  0  0  2  0  0  0  0  0  0
  184.9990  178.1710  146.9900 C   0  0  0  0  0  1  0  0  0  0  0  0
  183.2680  177.9490  139.7610 N   0  0  0  0  0  0  0  0  0  0  0  0
  185.0260  179.2750  140.7980 C   0  0  2  0  0  3  0  0  0  0  0  0
  185.3170  178.0990  138.5600 N   0  0  0  0  0  2  0  0  0  0  0  0
  182.1370  179.0010  143.1630 C   0  0  0  0  0  3  0  0  0  0  0  0
  186.8490  177.7770  145.3580 C   0  0  0  0  0  3  0  0  0  0  0  0
  182.4150  178.2230  140.8800 C   0  0  0  0  0  0  0  0  0  0  0  0
  181.0450  177.9560  140.8040 C   0  0  0  0  0  3  0  0  0  0  0  0
  186.4980  179.3090  140.8620 N   0  0  0  0  0  2  0  0  0  0  0  0
  186.5300  178.1910  142.9960 C   0  0  0  0  0  0  0  0  0  0  0  0
  187.3480  177.7800  144.0520 C   0  0  0  0  0  3  0  0  0  0  0  0
  185.9690  174.3490  135.1840 C   0  0  1  0  0  3  0  0  0  0  0  0
  185.1930  176.7350  135.0360 C   0  0  0  0  0  2  0  0  0  0  0  0
  187.7460  176.3600  137.7780 O   0  0  0  0  0  1  0  0  0  0  0  0
  185.5490  173.0220  135.1560 O   0  0  0  0  0  1  0  0  0  0  0  0
  184.7650  175.2680  134.9880 C   0  0  0  0  0  2  0  0  0  0  0  0
  187.1040  176.0950  136.5660 C   0  0  2  0  0  3  0  0  0  0  0  0
  185.9330  177.0650  136.3380 C   0  0  2  0  0  3  0  0  0  0  0  0
  186.6470  174.6380  136.5200 C   0  0  0  0  0  2  0  0  0  0  0  0
  1 17  1  0  0  0  0
  1 11  1  0  0  0  0
  2  3  1  0  0  0  0
  3  9  1  0  0  0  0
  5  4  2  0  0  0  0
  5 16  1  0  0  0  0
  6 13  1  0  0  0  0
  7  2  1  0  0  0  0
  7 17  2  0  0  0  0
  8  1  2  0  0  0  0
  9  6  2  0  0  0  0
 10 14  2  0  0  0  0
 12 22  1  0  0  0  0
 14 19  1  0  0  0  0
 15 10  1  6  0  0  0
 15 21  1  0  0  0  0
 15  2  1  0  0  0  0
 16 10  1  0  0  0  0
 18  6  1  0  0  0  0
 19  7  1  0  0  0  0
 20 19  2  0  0  0  0
 20  8  1  0  0  0  0
 21 12  1  0  0  0  0
 22  3  2  0  0  0  0
 22 23  1  0  0  0  0
 23 18  2  0  0  0  0
 24 27  1  1  0  0  0
 24 31  1  0  0  0  0
 25 30  1  0  0  0  0
 28 25  1  0  0  0  0
 28 24  1  0  0  0  0
 29 26  1  1  0  0  0
 30 29  1  0  0  0  0
 30  5  1  1  0  0  0
 31 29  1  0  0  0  0
M  END
>  <MODEL>
3

>  <REMARK>
 VINA RESULT:      -9.2      1.712      2.466
  Name = 
  1 active torsions:
  status: ('A' for Active; 'I' for Inactive)
    1  A    between atoms: C_5  and  C_30
                            x       y       z     vdW  Elec       q    Type
                         _______ _______ _______ _____ _____    ______ ____

>  <TORSDO>
F 1

$$$$
=
 OpenBabel11122410543D

 31 35  0  0  1  0  0  0  0  0999 V2000
  184.5420  178.6860  144.4800 C   0  0  0  0  0  0  0  0  0  0  0  0
  188.2310  178.4950  143.7640 N   0  0  0  0  0  0  0  0  0  0  0  0
  188.8830  177.7990  144.8500 C   0  0  0  0  0  0  0  0  0  0  0  0
  187.8400  176.7770  138.8850 O   0  0  0  0  0  0  0  0  0  0  0  0
  188.9480  177.3720  138.9810 C   0  0  0  0  0  0  0  0  0  0  0  0
  188.9470  176.9690  147.1350 C   0  0  0  0  0  0  0  0  0  0  0  0
  186.7980  178.4960  143.6080 C   0  0  0  0  0  0  0  0  0  0  0  0
  184.0250  178.4510  143.2020 C   0  0  0  0  0  3  0  0  0  0  0  0
  188.2860  177.6590  146.1130 C   0  0  0  0  0  3  0  0  0  0  0  0
  188.4500  178.2590  141.3160 C   0  0  0  0  0  0  0  0  0  0  0  0
  183.7020  178.8920  145.5230 F   0  0  0  0  0  0  0  0  0  0  0  0
  190.7440  177.3550  143.2710 C   0  0  0  0  0  2  0  0  0  0  0  0
  188.3060  176.8260  148.4680 C   0  0  0  0  0  1  0  0  0  0  0  0
  187.1650  178.0490  141.2220 N   0  0  0  0  0  0  0  0  0  0  0  0
  189.0080  178.8930  142.5700 C   0  0  2  0  0  3  0  0  0  0  0  0
  189.3070  178.0610  140.1840 N   0  0  0  0  0  2  0  0  0  0  0  0
  185.9250  178.7070  144.6840 C   0  0  0  0  0  3  0  0  0  0  0  0
  190.2060  176.4100  146.9010 C   0  0  0  0  0  3  0  0  0  0  0  0
  186.2730  178.2720  142.3220 C   0  0  0  0  0  0  0  0  0  0  0  0
  184.8900  178.2420  142.1230 C   0  0  0  0  0  3  0  0  0  0  0  0
  190.4590  178.6800  142.7220 N   0  0  0  0  0  2  0  0  0  0  0  0
  190.1490  177.2430  144.6310 C   0  0  0  0  0  0  0  0  0  0  0  0
  190.8070  176.5430  145.6450 C   0  0  0  0  0  3  0  0  0  0  0  0
  188.9470  175.7410  135.5660 C   0  0  1  0  0  3  0  0  0  0  0  0
  189.4300  177.9900  136.5790 C   0  0  0  0  0  2  0  0  0  0  0  0
  190.8650  175.2530  138.7300 O   0  0  0  0  0  1  0  0  0  0  0  0
  187.9710  174.9720  134.9370 O   0  0  0  0  0  1  0  0  0  0  0  0
  188.3860  177.1280  135.8670 C   0  0  0  0  0  2  0  0  0  0  0  0
  190.4470  175.8900  137.5600 C   0  0  2  0  0  3  0  0  0  0  0  0
  189.9450  177.3130  137.8560 C   0  0  2  0  0  3  0  0  0  0  0  0
  189.3820  175.0510  136.8550 C   0  0  0  0  0  2  0  0  0  0  0  0
  1 17  1  0  0  0  0
  1 11  1  0  0  0  0
  2  3  1  0  0  0  0
  3  9  1  0  0  0  0
  4  5  2  0  0  0  0
  5 16  1  0  0  0  0
  6 13  1  0  0  0  0
  7  2  1  0  0  0  0
  7 17  2  0  0  0  0
  8  1  2  0  0  0  0
  9  6  2  0  0  0  0
 12 22  1  0  0  0  0
 14 10  2  0  0  0  0
 14 19  1  0  0  0  0
 15 10  1  6  0  0  0
 15 21  1  0  0  0  0
 15  2  1  0  0  0  0
 16 10  1  0  0  0  0
 18  6  1  0  0  0  0
 19  7  1  0  0  0  0
 20 19  2  0  0  0  0
 20  8  1  0  0  0  0
 21 12  1  0  0  0  0
 22  3  2  0  0  0  0
 22 23  1  0  0  0  0
 23 18  2  0  0  0  0
 24 27  1  1  0  0  0
 24 28  1  0  0  0  0
 24 31  1  0  0  0  0
 25 30  1  0  0  0  0
 28 25  1  0  0  0  0
 29 30  1  0  0  0  0
 29 26  1  1  0  0  0
 30  5  1  1  0  0  0
 31 29  1  0  0  0  0
M  END
>  <MODEL>
4

>  <REMARK>
 VINA RESULT:      -9.0      1.910      2.824
  Name = 
  1 active torsions:
  status: ('A' for Active; 'I' for Inactive)
    1  A    between atoms: C_5  and  C_30
                            x       y       z     vdW  Elec       q    Type
                         _______ _______ _______ _____ _____    ______ ____

>  <TORSDO>
F 1

$$$$
=
 OpenBabel11122410543D

 31 35  0  0  1  0  0  0  0  0999 V2000
  185.0940  178.7620  146.0120 C   0  0  0  0  0  0  0  0  0  0  0  0
  187.0420  178.6110  142.7960 N   0  0  0  0  0  0  0  0  0  0  0  0
  188.2400  177.8320  143.0110 C   0  0  0  0  0  0  0  0  0  0  0  0
  183.0840  177.2740  139.7210 O   0  0  0  0  0  0  0  0  0  0  0  0
  183.9370  177.8550  138.9960 C   0  0  0  0  0  0  0  0  0  0  0  0
  189.9170  176.8290  144.4590 C   0  0  0  0  0  0  0  0  0  0  0  0
  185.9610  178.6310  143.7500 C   0  0  0  0  0  0  0  0  0  0  0  0
  183.7910  178.6280  145.5230 C   0  0  0  0  0  3  0  0  0  0  0  0
  188.7600  177.5980  144.2940 C   0  0  0  0  0  3  0  0  0  0  0  0
  185.3730  178.5630  140.9770 C   0  0  0  0  0  0  0  0  0  0  0  0
  185.3080  178.8910  147.3430 F   0  0  0  0  0  0  0  0  0  0  0  0
  188.3050  177.5030  140.5530 C   0  0  0  0  0  2  0  0  0  0  0  0
  190.4580  176.5870  145.8220 C   0  0  0  0  0  1  0  0  0  0  0  0
  184.4260  178.3660  141.8530 N   0  0  0  0  0  0  0  0  0  0  0  0
  186.7100  179.0970  141.4380 C   0  0  2  0  0  3  0  0  0  0  0  0
  185.1050  178.4480  139.5730 N   0  0  0  0  0  2  0  0  0  0  0  0
  186.1780  178.7620  145.1290 C   0  0  0  0  0  3  0  0  0  0  0  0
  190.5600  176.2840  143.3450 C   0  0  0  0  0  3  0  0  0  0  0  0
  184.6470  178.5070  143.2620 C   0  0  0  0  0  0  0  0  0  0  0  0
  183.5670  178.4990  144.1490 C   0  0  0  0  0  3  0  0  0  0  0  0
  187.7870  178.8670  140.4590 N   0  0  0  0  0  2  0  0  0  0  0  0
  188.8990  177.2890  141.9010 C   0  0  0  0  0  0  0  0  0  0  0  0
  190.0480  176.5110  142.0630 C   0  0  0  0  0  3  0  0  0  0  0  0
  182.4670  175.4370  136.4830 C   0  0  1  0  0  3  0  0  0  0  0  0
  182.3050  177.8760  137.0670 C   0  0  0  0  0  2  0  0  0  0  0  0
  185.8890  176.7320  137.2190 O   0  0  0  0  0  1  0  0  0  0  0  0
  181.8790  174.1890  136.6730 O   0  0  0  0  0  1  0  0  0  0  0  0
  181.6700  176.4950  137.2410 C   0  0  0  0  0  2  0  0  0  0  0  0
  184.5620  176.7660  136.7860 C   0  0  2  0  0  3  0  0  0  0  0  0
  183.7770  177.8780  137.5010 C   0  0  2  0  0  3  0  0  0  0  0  0
  183.9090  175.3990  136.9810 C   0  0  0  0  0  2  0  0  0  0  0  0
  1 11  1  0  0  0  0
  2  3  1  0  0  0  0
  2  7  1  0  0  0  0
  3  9  1  0  0  0  0
  5 16  1  0  0  0  0
  5  4  2  0  0  0  0
  6 13  1  0  0  0  0
  7 17  1  0  0  0  0
  8  1  1  0  0  0  0
  9  6  2  0  0  0  0
 10 15  1  0  0  0  0
 10 14  2  0  0  0  0
 12 22  1  0  0  0  0
 14 19  1  0  0  0  0
 15 21  1  6  0  0  0
 15  2  1  0  0  0  0
 16 10  1  0  0  0  0
 17  1  2  0  0  0  0
 18  6  1  0  0  0  0
 19  7  2  0  0  0  0
 19 20  1  0  0  0  0
 20  8  2  0  0  0  0
 21 12  1  0  0  0  0
 22 23  1  0  0  0  0
 22  3  2  0  0  0  0
 23 18  2  0  0  0  0
 24 27  1  1  0  0  0
 24 31  1  0  0  0  0
 24 28  1  0  0  0  0
 25 28  1  0  0  0  0
 25 30  1  0  0  0  0
 29 31  1  0  0  0  0
 29 26  1  1  0  0  0
 29 30  1  0  0  0  0
 30  5  1  1  0  0  0
M  END
>  <MODEL>
5

>  <REMARK>
 VINA RESULT:      -9.0      1.884      2.709
  Name = 
  1 active torsions:
  status: ('A' for Active; 'I' for Inactive)
    1  A    between atoms: C_5  and  C_30
                            x       y       z     vdW  Elec       q    Type
                         _______ _______ _______ _____ _____    ______ ____

>  <TORSDO>
F 1

$$$$
=
 OpenBabel11122410543D

 31 35  0  0  1  0  0  0  0  0999 V2000
  189.2600  177.5350  141.6930 C   0  0  0  0  0  0  0  0  0  0  0  0
  185.6310  177.8190  142.6480 N   0  0  0  0  0  0  0  0  0  0  0  0
  185.5420  178.1530  144.0510 C   0  0  0  0  0  0  0  0  0  0  0  0
  184.1810  180.8780  138.7180 O   0  0  0  0  0  0  0  0  0  0  0  0
  183.1550  180.2490  139.0970 C   0  0  0  0  0  0  0  0  0  0  0  0
  186.4840  178.2890  146.2890 C   0  0  0  0  0  0  0  0  0  0  0  0
  186.8730  177.9030  141.9200 C   0  0  0  0  0  0  0  0  0  0  0  0
  189.2370  178.1420  140.4330 C   0  0  0  0  0  3  0  0  0  0  0  0
  186.6080  177.9410  144.9400 C   0  0  0  0  0  3  0  0  0  0  0  0
  184.4670  178.7420  140.6770 C   0  0  0  0  0  0  0  0  0  0  0  0
  190.4250  177.0610  142.1950 F   0  0  0  0  0  0  0  0  0  0  0  0
  183.2530  178.9800  143.5700 C   0  0  0  0  0  2  0  0  0  0  0  0
  187.6180  178.0610  147.2210 C   0  0  0  0  0  1  0  0  0  0  0  0
  185.6180  179.0070  140.1220 N   0  0  0  0  0  0  0  0  0  0  0  0
  184.4050  177.7590  141.8230 C   0  0  2  0  0  3  0  0  0  0  0  0
  183.2490  179.2340  140.1020 N   0  0  0  0  0  2  0  0  0  0  0  0
  188.0820  177.4160  142.4360 C   0  0  0  0  0  3  0  0  0  0  0  0
  185.2960  178.8560  146.7590 C   0  0  0  0  0  3  0  0  0  0  0  0
  186.8530  178.5030  140.6470 C   0  0  0  0  0  0  0  0  0  0  0  0
  188.0340  178.6280  139.9110 C   0  0  0  0  0  3  0  0  0  0  0  0
  183.1660  177.8780  142.6130 N   0  0  0  0  0  2  0  0  0  0  0  0
  184.3540  178.7130  144.5360 C   0  0  0  0  0  0  0  0  0  0  0  0
  184.2300  179.0730  145.8800 C   0  0  0  0  0  3  0  0  0  0  0  0
  179.6410  179.0380  139.8150 C   0  0  1  0  0  3  0  0  0  0  0  0
  180.8770  181.2170  139.6070 C   0  0  0  0  0  2  0  0  0  0  0  0
  181.9660  178.8350  136.9030 O   0  0  0  0  0  1  0  0  0  0  0  0
  179.1870  178.0790  140.7170 O   0  0  0  0  0  1  0  0  0  0  0  0
  180.3470  180.1570  140.5760 C   0  0  0  0  0  2  0  0  0  0  0  0
  181.1090  179.4300  137.8300 C   0  0  2  0  0  3  0  0  0  0  0  0
  181.8000  180.6010  138.5480 C   0  0  2  0  0  3  0  0  0  0  0  0
  180.5960  178.3860  138.8200 C   0  0  0  0  0  2  0  0  0  0  0  0
  1 11  1  0  0  0  0
  1 17  1  0  0  0  0
  2  3  1  0  0  0  0
  3 22  2  0  0  0  0
  3  9  1  0  0  0  0
  4  5  2  0  0  0  0
  5 16  1  0  0  0  0
  6 18  1  0  0  0  0
  6 13  1  0  0  0  0
  7 17  2  0  0  0  0
  7  2  1  0  0  0  0
  8  1  2  0  0  0  0
  9  6  2  0  0  0  0
 12 22  1  0  0  0  0
 14 19  1  0  0  0  0
 14 10  2  0  0  0  0
 15 10  1  6  0  0  0
 15 21  1  0  0  0  0
 15  2  1  0  0  0  0
 16 10  1  0  0  0  0
 19  7  1  0  0  0  0
 20  8  1  0  0  0  0
 20 19  2  0  0  0  0
 21 12  1  0  0  0  0
 22 23  1  0  0  0  0
 23 18  2  0  0  0  0
 24 28  1  0  0  0  0
 24 27  1  1  0  0  0
 25 28  1  0  0  0  0
 29 26  1  6  0  0  0
 29 30  1  0  0  0  0
 29 31  1  0  0  0  0
 30  5  1  1  0  0  0
 30 25  1  0  0  0  0
 31 24  1  0  0  0  0
M  END
>  <MODEL>
6

>  <REMARK>
 VINA RESULT:      -8.9      3.316      5.669
  Name = 
  1 active torsions:
  status: ('A' for Active; 'I' for Inactive)
    1  A    between atoms: C_5  and  C_30
                            x       y       z     vdW  Elec       q    Type
                         _______ _______ _______ _____ _____    ______ ____

>  <TORSDO>
F 1

$$$$
=
 OpenBabel11122410543D

 31 35  0  0  1  0  0  0  0  0999 V2000
  191.1450  176.8080  142.8580 C   0  0  0  0  0  0  0  0  0  0  0  0
  189.1410  177.6940  139.7980 N   0  0  0  0  0  0  0  0  0  0  0  0
  189.5180  176.8080  138.7210 C   0  0  0  0  0  0  0  0  0  0  0  0
  184.4970  177.8400  142.1040 O   0  0  0  0  0  0  0  0  0  0  0  0
  184.4300  178.5820  141.0860 C   0  0  0  0  0  0  0  0  0  0  0  0
  191.0450  175.2340  137.6700 C   0  0  0  0  0  0  0  0  0  0  0  0
  189.5280  177.4430  141.1640 C   0  0  0  0  0  0  0  0  0  0  0  0
  190.1680  176.9510  143.8480 C   0  0  0  0  0  3  0  0  0  0  0  0
  190.7240  176.0900  138.7290 C   0  0  0  0  0  3  0  0  0  0  0  0
  186.9270  178.4240  140.6080 C   0  0  0  0  0  0  0  0  0  0  0  0
  192.4020  176.4320  143.1950 F   0  0  0  0  0  0  0  0  0  0  0  0
  187.3470  177.3860  137.6680 C   0  0  0  0  0  2  0  0  0  0  0  0
  192.3250  174.4790  137.6890 C   0  0  0  0  0  1  0  0  0  0  0  0
  187.2210  177.9900  141.8030 N   0  0  0  0  0  0  0  0  0  0  0  0
  188.0360  178.6590  139.6090 C   0  0  2  0  0  3  0  0  0  0  0  0
  185.5920  178.8430  140.2930 N   0  0  0  0  0  2  0  0  0  0  0  0
  190.8270  177.0510  141.5180 C   0  0  0  0  0  3  0  0  0  0  0  0
  190.1620  175.0850  136.5980 C   0  0  0  0  0  3  0  0  0  0  0  0
  188.5520  177.5970  142.1660 C   0  0  0  0  0  0  0  0  0  0  0  0
  188.8710  177.3440  143.5030 C   0  0  0  0  0  3  0  0  0  0  0  0
  187.5520  178.7240  138.2190 N   0  0  0  0  0  2  0  0  0  0  0  0
  188.6450  176.6580  137.6360 C   0  0  0  0  0  0  0  0  0  0  0  0
  188.9570  175.7950  136.5820 C   0  0  0  0  0  3  0  0  0  0  0  0
  181.8900  177.5980  138.4580 C   0  0  1  0  0  3  0  0  0  0  0  0
  181.9400  178.1960  140.8990 C   0  0  0  0  0  2  0  0  0  0  0  0
  184.2080  180.4820  138.9480 O   0  0  0  0  0  1  0  0  0  0  0  0
  181.8950  176.5380  137.5540 O   0  0  0  0  0  1  0  0  0  0  0  0
  181.9230  177.0520  139.8830 C   0  0  0  0  0  2  0  0  0  0  0  0
  183.1130  179.6510  139.1930 C   0  0  2  0  0  3  0  0  0  0  0  0
  183.1100  179.1550  140.6480 C   0  0  2  0  0  3  0  0  0  0  0  0
  183.1020  178.4890  138.2010 C   0  0  0  0  0  2  0  0  0  0  0  0
  1 11  1  0  0  0  0
  1  8  1  0  0  0  0
  2  7  1  0  0  0  0
  3  9  1  0  0  0  0
  3  2  1  0  0  0  0
  5  4  2  0  0  0  0
  6 13  1  0  0  0  0
  6  9  2  0  0  0  0
  7 17  1  0  0  0  0
  7 19  2  0  0  0  0
 10 14  2  0  0  0  0
 12 21  1  0  0  0  0
 14 19  1  0  0  0  0
 15 21  1  6  0  0  0
 15  2  1  0  0  0  0
 15 10  1  0  0  0  0
 16 10  1  0  0  0  0
 16  5  1  0  0  0  0
 17  1  2  0  0  0  0
 18  6  1  0  0  0  0
 19 20  1  0  0  0  0
 20  8  2  0  0  0  0
 22 12  1  0  0  0  0
 22  3  2  0  0  0  0
 23 18  2  0  0  0  0
 23 22  1  0  0  0  0
 24 27  1  6  0  0  0
 24 28  1  0  0  0  0
 28 25  1  0  0  0  0
 29 26  1  6  0  0  0
 29 30  1  0  0  0  0
 30 25  1  0  0  0  0
 30  5  1  6  0  0  0
 31 24  1  0  0  0  0
 31 29  1  0  0  0  0
M  END
>  <MODEL>
7

>  <REMARK>
 VINA RESULT:      -8.7      2.989      5.981
  Name = 
  1 active torsions:
  status: ('A' for Active; 'I' for Inactive)
    1  A    between atoms: C_5  and  C_30
                            x       y       z     vdW  Elec       q    Type
                         _______ _______ _______ _____ _____    ______ ____

>  <TORSDO>
F 1

$$$$
=
 OpenBabel11122410543D

 31 35  0  0  1  0  0  0  0  0999 V2000
  191.2160  176.5810  143.1290 C   0  0  0  0  0  0  0  0  0  0  0  0
  187.7760  177.1070  144.5610 N   0  0  0  0  0  0  0  0  0  0  0  0
  187.9030  177.6510  145.8940 C   0  0  0  0  0  0  0  0  0  0  0  0
  185.7590  179.5790  140.4710 O   0  0  0  0  0  0  0  0  0  0  0  0
  184.7990  179.0440  141.0920 C   0  0  0  0  0  0  0  0  0  0  0  0
  189.1750  178.0960  147.9180 C   0  0  0  0  0  0  0  0  0  0  0  0
  188.8930  177.0460  143.6510 C   0  0  0  0  0  0  0  0  0  0  0  0
  191.0050  176.9930  141.8090 C   0  0  0  0  0  3  0  0  0  0  0  0
  189.0910  177.5460  146.6350 C   0  0  0  0  0  3  0  0  0  0  0  0
  186.3300  177.7550  142.6690 C   0  0  0  0  0  0  0  0  0  0  0  0
  192.4420  176.1570  143.5170 F   0  0  0  0  0  0  0  0  0  0  0  0
  185.5720  178.4600  145.6400 C   0  0  0  0  0  2  0  0  0  0  0  0
  190.4370  177.9790  148.6940 C   0  0  0  0  0  1  0  0  0  0  0  0
  187.3840  177.9020  141.9130 N   0  0  0  0  0  0  0  0  0  0  0  0
  186.4380  176.9580  143.9480 C   0  0  2  0  0  3  0  0  0  0  0  0
  185.0410  178.1890  142.2140 N   0  0  0  0  0  2  0  0  0  0  0  0
  190.1640  176.6090  144.0490 C   0  0  0  0  0  3  0  0  0  0  0  0
  188.0760  178.7600  148.4680 C   0  0  0  0  0  3  0  0  0  0  0  0
  188.6820  177.4480  142.3190 C   0  0  0  0  0  0  0  0  0  0  0  0
  189.7380  177.4270  141.4040 C   0  0  0  0  0  3  0  0  0  0  0  0
  185.3350  177.2290  144.8870 N   0  0  0  0  0  2  0  0  0  0  0  0
  186.8050  178.3110  146.4600 C   0  0  0  0  0  0  0  0  0  0  0  0
  186.8900  178.8720  147.7360 C   0  0  0  0  0  3  0  0  0  0  0  0
  182.3360  177.4410  138.7060 C   0  0  1  0  0  3  0  0  0  0  0  0
  182.4100  178.2230  141.0940 C   0  0  0  0  0  2  0  0  0  0  0  0
  184.1350  180.7080  138.8520 O   0  0  0  0  0  1  0  0  0  0  0  0
  182.4800  176.3310  137.8770 O   0  0  0  0  0  1  0  0  0  0  0  0
  182.5400  177.0190  140.1600 C   0  0  0  0  0  2  0  0  0  0  0  0
  183.2170  179.7220  139.2220 C   0  0  2  0  0  3  0  0  0  0  0  0
  183.3780  179.3470  140.7040 C   0  0  2  0  0  3  0  0  0  0  0  0
  183.3580  178.5030  138.3130 C   0  0  0  0  0  2  0  0  0  0  0  0
  1 11  1  0  0  0  0
  1 17  1  0  0  0  0
  2  3  1  0  0  0  0
  3 22  2  0  0  0  0
  3  9  1  0  0  0  0
  4  5  2  0  0  0  0
  5 16  1  0  0  0  0
  6 18  1  0  0  0  0
  6 13  1  0  0  0  0
  7 17  2  0  0  0  0
  7  2  1  0  0  0  0
  8  1  2  0  0  0  0
  9  6  2  0  0  0  0
 12 22  1  0  0  0  0
 14 19  1  0  0  0  0
 14 10  2  0  0  0  0
 15 10  1  6  0  0  0
 15  2  1  0  0  0  0
 15 21  1  0  0  0  0
 16 10  1  0  0  0  0
 19  7  1  0  0  0  0
 20  8  1  0  0  0  0
 20 19  2  0  0  0  0
 21 12  1  0  0  0  0
 22 23  1  0  0  0  0
 23 18  2  0  0  0  0
 24 27  1  6  0  0  0
 24 28  1  0  0  0  0
 28 25  1  0  0  0  0
 29 26  1  6  0  0  0
 29 30  1  0  0  0  0
 30  5  1  6  0  0  0
 30 25  1  0  0  0  0
 31 24  1  0  0  0  0
 31 29  1  0  0  0  0
M  END
>  <MODEL>
8

>  <REMARK>
 VINA RESULT:      -8.6      3.417      5.359
  Name = 
  1 active torsions:
  status: ('A' for Active; 'I' for Inactive)
    1  A    between atoms: C_5  and  C_30
                            x       y       z     vdW  Elec       q    Type
                         _______ _______ _______ _____ _____    ______ ____

>  <TORSDO>
F 1

$$$$
=
 OpenBabel11122410543D

 31 35  0  0  1  0  0  0  0  0999 V2000
  185.9230  178.4550  146.5000 C   0  0  0  0  0  0  0  0  0  0  0  0
  187.3630  178.4850  143.0240 N   0  0  0  0  0  0  0  0  0  0  0  0
  188.5870  177.7170  143.0190 C   0  0  0  0  0  0  0  0  0  0  0  0
  182.9990  177.2280  140.5190 O   0  0  0  0  0  0  0  0  0  0  0  0
  183.7280  177.8560  139.7020 C   0  0  0  0  0  0  0  0  0  0  0  0
  190.4720  176.6750  144.1480 C   0  0  0  0  0  0  0  0  0  0  0  0
  186.4390  178.4430  144.1290 C   0  0  0  0  0  0  0  0  0  0  0  0
  184.5610  178.3220  146.2070 C   0  0  0  0  0  3  0  0  0  0  0  0
  189.2970  177.4310  144.1960 C   0  0  0  0  0  3  0  0  0  0  0  0
  185.4400  178.4940  141.4770 C   0  0  0  0  0  0  0  0  0  0  0  0
  186.3340  178.5250  147.7880 F   0  0  0  0  0  0  0  0  0  0  0  0
  188.2840  177.5030  140.5660 C   0  0  0  0  0  2  0  0  0  0  0  0
  191.2150  176.3780  145.4000 C   0  0  0  0  0  1  0  0  0  0  0  0
  184.6370  178.2410  142.4740 N   0  0  0  0  0  0  0  0  0  0  0  0
  186.8260  179.0280  141.7570 C   0  0  2  0  0  3  0  0  0  0  0  0
  184.9640  178.4400  140.1250 N   0  0  0  0  0  2  0  0  0  0  0  0
  186.8600  178.5130  145.4650 C   0  0  0  0  0  3  0  0  0  0  0  0
  190.9440  176.1930  142.9240 C   0  0  0  0  0  3  0  0  0  0  0  0
  185.0680  178.3210  143.8400 C   0  0  0  0  0  0  0  0  0  0  0  0
  184.1340  178.2530  144.8770 C   0  0  0  0  0  3  0  0  0  0  0  0
  187.7450  178.8610  140.6170 N   0  0  0  0  0  2  0  0  0  0  0  0
  189.0760  177.2370  141.7970 C   0  0  0  0  0  0  0  0  0  0  0  0
  190.2430  176.4700  141.7470 C   0  0  0  0  0  3  0  0  0  0  0  0
  180.4950  177.3090  137.8120 C   0  0  1  0  0  3  0  0  0  0  0  0
  182.3050  179.0440  137.9850 C   0  0  0  0  0  2  0  0  0  0  0  0
  183.8050  175.5910  137.9450 O   0  0  0  0  0  1  0  0  0  0  0  0
  179.2330  176.9430  138.2750 O   0  0  0  0  0  1  0  0  0  0  0  0
  180.9110  178.6270  138.4590 C   0  0  0  0  0  2  0  0  0  0  0  0
  182.8870  176.6030  137.6570 C   0  0  2  0  0  3  0  0  0  0  0  0
  183.3420  177.9460  138.2510 C   0  0  2  0  0  3  0  0  0  0  0  0
  181.4970  176.2100  138.1510 C   0  0  0  0  0  2  0  0  0  0  0  0
  1 11  1  0  0  0  0
  2  7  1  0  0  0  0
  3  2  1  0  0  0  0
  3  9  1  0  0  0  0
  5 16  1  0  0  0  0
  5  4  2  0  0  0  0
  6  9  2  0  0  0  0
  6 13  1  0  0  0  0
  7 17  1  0  0  0  0
  8  1  1  0  0  0  0
 10 15  1  0  0  0  0
 10 14  2  0  0  0  0
 12 21  1  0  0  0  0
 12 22  1  0  0  0  0
 14 19  1  0  0  0  0
 15 21  1  6  0  0  0
 15  2  1  0  0  0  0
 16 10  1  0  0  0  0
 17  1  2  0  0  0  0
 18  6  1  0  0  0  0
 19  7  2  0  0  0  0
 19 20  1  0  0  0  0
 20  8  2  0  0  0  0
 22  3  2  0  0  0  0
 23 22  1  0  0  0  0
 23 18  2  0  0  0  0
 24 31  1  0  0  0  0
 24 27  1  1  0  0  0
 24 28  1  0  0  0  0
 25 30  1  0  0  0  0
 25 28  1  0  0  0  0
 29 26  1  1  0  0  0
 29 31  1  0  0  0  0
 29 30  1  0  0  0  0
 30  5  1  1  0  0  0
M  END
>  <MODEL>
9

>  <REMARK>
 VINA RESULT:      -8.5      2.635      3.858
  Name = 
  1 active torsions:
  status: ('A' for Active; 'I' for Inactive)
    1  A    between atoms: C_5  and  C_30
                            x       y       z     vdW  Elec       q    Type
                         _______ _______ _______ _____ _____    ______ ____

>  <TORSDO>
F 1

$$$$
