=
 OpenBabel11122411213D

 37 44  0  0  1  0  0  0  0  0999 V2000
  187.9520  178.1870  146.0870 O   0  0  0  0  0  0  0  0  0  0  0  0
  190.7970  177.3430  142.7140 C   0  0  0  0  0  0  0  0  0  0  0  0
  186.8420  178.2180  141.7020 C   0  0  0  0  0  0  0  0  0  0  0  0
  188.0010  177.5940  147.3600 C   0  0  2  0  0  3  0  0  0  0  0  0
  184.2290  178.9090  144.4620 O   0  0  0  0  0  0  0  0  0  0  0  0
  189.0980  177.7400  140.9530 C   0  0  0  0  0  0  0  0  0  0  0  0
  186.1850  178.1590  142.9450 C   0  0  0  0  0  0  0  0  0  0  0  0
  186.0620  179.1880  147.6990 C   0  0  0  0  0  0  0  0  0  0  0  0
  188.1420  177.8650  141.9360 C   0  0  0  0  0  0  0  0  0  0  0  0
  184.6530  178.2850  143.2370 C   0  0  2  0  0  3  0  0  0  0  0  0
  188.7210  177.9880  139.6280 C   0  0  0  0  0  3  0  0  0  0  0  0
  187.1390  178.3700  148.3590 C   0  0  0  0  0  2  0  0  0  0  0  0
  188.3750  177.5670  143.2080 N   0  0  0  0  0  0  0  0  0  0  0  0
  191.3200  178.7180  143.0870 C   0  0  0  0  0  1  0  0  0  0  0  0
  185.0410  178.8610  139.9940 C   0  0  0  0  0  2  0  0  0  0  0  0
  187.3860  178.3520  139.3450 C   0  0  0  0  0  3  0  0  0  0  0  0
  189.6320  176.9750  143.6700 C   0  0  0  0  0  2  0  0  0  0  0  0
  185.0270  178.5740  146.7950 C   0  0  1  0  0  3  0  0  0  0  0  0
  185.2860  179.0020  145.3690 C   0  0  1  0  0  3  0  0  0  0  0  0
  186.4240  178.4590  140.3750 C   0  0  0  0  0  0  0  0  0  0  0  0
  187.1980  177.7040  143.8530 C   0  0  0  0  0  0  0  0  0  0  0  0
  190.3890  177.3510  141.3310 O   0  0  0  0  0  0  0  0  0  0  0  0
  183.7890  178.8300  142.0900 C   0  0  1  0  0  3  0  0  0  0  0  0
  191.9140  176.3380  142.8960 C   0  0  0  0  0  1  0  0  0  0  0  0
  185.5900  177.5700  145.7800 C   0  0  1  0  0  3  0  0  0  0  0  0
  186.0050  180.3830  147.9380 O   0  0  0  0  0  0  0  0  0  0  0  0
  187.0510  177.4080  145.3390 C   0  0  2  0  0  3  0  0  0  0  0  0
  184.0070  178.0970  140.7850 C   0  0  0  0  0  2  0  0  0  0  0  0
  181.9430  178.6640  143.7710 C   0  0  0  0  0  3  0  0  0  0  0  0
  182.3280  178.8090  142.4330 C   0  0  0  0  0  0  0  0  0  0  0  0
  181.3440  178.9320  141.4390 C   0  0  0  0  0  3  0  0  0  0  0  0
  179.0440  179.0230  140.8210 F   0  0  0  0  0  0  0  0  0  0  0  0
  179.6120  178.7600  143.1220 C   0  0  0  0  0  3  0  0  0  0  0  0
  179.9900  178.9060  141.7840 C   0  0  0  0  0  0  0  0  0  0  0  0
  180.5880  178.6390  144.1150 C   0  0  0  0  0  3  0  0  0  0  0  0
  190.2960  176.7420  146.9080 C   0  0  0  0  0  1  0  0  0  0  0  0
  189.4330  177.5450  147.8610 C   0  0  0  0  0  2  0  0  0  0  0  0
  1  4  1  0  0  0  0
  2 24  1  0  0  0  0
  2 14  1  0  0  0  0
  2 17  1  0  0  0  0
  3  9  1  0  0  0  0
  3  7  1  0  0  0  0
  4 37  1  1  0  0  0
  4 12  1  0  0  0  0
  6 22  1  0  0  0  0
  6  9  2  0  0  0  0
  7 21  2  0  0  0  0
  8 26  2  0  0  0  0
  8 12  1  0  0  0  0
  9 13  1  0  0  0  0
 10  7  1  6  0  0  0
 10  5  1  0  0  0  0
 11  6  1  0  0  0  0
 13 17  1  0  0  0  0
 13 21  1  0  0  0  0
 15 20  1  0  0  0  0
 15 28  1  0  0  0  0
 16 11  2  0  0  0  0
 16 20  1  0  0  0  0
 18  8  1  1  0  0  0
 19  5  1  6  0  0  0
 19 25  1  0  0  0  0
 19 18  1  0  0  0  0
 20  3  2  0  0  0  0
 21 27  1  0  0  0  0
 22  2  1  0  0  0  0
 23 30  1  1  0  0  0
 23 10  1  0  0  0  0
 25 18  1  0  0  0  0
 27 25  1  0  0  0  0
 27  1  1  0  0  0  0
 28 23  1  0  0  0  0
 29 35  1  0  0  0  0
 30 29  2  0  0  0  0
 31 34  2  0  0  0  0
 31 30  1  0  0  0  0
 32 34  1  0  0  0  0
 33 35  2  0  0  0  0
 34 33  1  0  0  0  0
 36 37  1  0  0  0  0
M  END
>  <MODEL>
1

>  <REMARK>
 VINA RESULT:     -11.7      0.000      0.000
  Name = 
  2 active torsions:
  status: ('A' for Active; 'I' for Inactive)
    1  A    between atoms: C_4  and  C_37
    2  A    between atoms: C_23  and  C_30
                            x       y       z     vdW  Elec       q    Type
                         _______ _______ _______ _____ _____    ______ ____

>  <TORSDO>
F 2

$$$$
=
 OpenBabel11122411213D

 37 44  0  0  1  0  0  0  0  0999 V2000
  186.8950  177.6810  139.6060 O   0  0  0  0  0  0  0  0  0  0  0  0
  189.9890  177.5440  142.8600 C   0  0  0  0  0  0  0  0  0  0  0  0
  186.0120  178.0420  144.0280 C   0  0  0  0  0  0  0  0  0  0  0  0
  187.0890  178.2180  138.3230 C   0  0  2  0  0  3  0  0  0  0  0  0
  183.2120  178.2490  141.3750 O   0  0  0  0  0  0  0  0  0  0  0  0
  188.3260  177.7440  144.6880 C   0  0  0  0  0  0  0  0  0  0  0  0
  185.3630  178.3110  142.8080 C   0  0  0  0  0  0  0  0  0  0  0  0
  184.7180  177.3600  138.0800 C   0  0  0  0  0  0  0  0  0  0  0  0
  187.3450  177.9400  143.7420 C   0  0  0  0  0  0  0  0  0  0  0  0
  183.8670  178.7020  142.5740 C   0  0  2  0  0  3  0  0  0  0  0  0
  187.9410  177.6410  146.0290 C   0  0  0  0  0  3  0  0  0  0  0  0
  185.9790  177.7700  137.3680 C   0  0  0  0  0  2  0  0  0  0  0  0
  187.6130  178.1380  142.4570 N   0  0  0  0  0  0  0  0  0  0  0  0
  190.0100  176.0710  142.4930 C   0  0  0  0  0  1  0  0  0  0  0  0
  184.1690  178.0430  145.8100 C   0  0  0  0  0  2  0  0  0  0  0  0
  186.5730  177.7440  146.3660 C   0  0  0  0  0  3  0  0  0  0  0  0
  188.9770  178.2750  141.9410 C   0  0  0  0  0  2  0  0  0  0  0  0
  183.9830  178.2890  139.0100 C   0  0  1  0  0  3  0  0  0  0  0  0
  184.1400  177.8050  140.4330 C   0  0  1  0  0  3  0  0  0  0  0  0
  185.5900  177.9590  145.3730 C   0  0  0  0  0  0  0  0  0  0  0  0
  186.4330  178.3980  141.8570 C   0  0  0  0  0  0  0  0  0  0  0  0
  189.6560  177.6780  144.2570 O   0  0  0  0  0  0  0  0  0  0  0  0
  182.9160  178.4800  143.7600 C   0  0  1  0  0  3  0  0  0  0  0  0
  191.3690  178.1180  142.6220 C   0  0  0  0  0  1  0  0  0  0  0  0
  184.8880  179.0520  139.9860 C   0  0  1  0  0  3  0  0  0  0  0  0
  184.2570  176.2520  137.8640 O   0  0  0  0  0  0  0  0  0  0  0  0
  186.3350  178.7200  140.3730 C   0  0  2  0  0  3  0  0  0  0  0  0
  183.4180  179.1050  145.0440 C   0  0  0  0  0  2  0  0  0  0  0  0
  180.4830  178.6320  144.3230 C   0  0  0  0  0  3  0  0  0  0  0  0
  181.5330  178.9860  143.4680 C   0  0  0  0  0  0  0  0  0  0  0  0
  181.2770  179.8060  142.3570 C   0  0  0  0  0  3  0  0  0  0  0  0
  179.7360  181.0510  141.0330 F   0  0  0  0  0  0  0  0  0  0  0  0
  178.9340  179.9040  142.9620 C   0  0  0  0  0  3  0  0  0  0  0  0
  179.9800  180.2620  142.1060 C   0  0  0  0  0  0  0  0  0  0  0  0
  179.1860  179.0890  144.0700 C   0  0  0  0  0  3  0  0  0  0  0  0
  189.0520  178.9040  136.9540 C   0  0  0  0  0  1  0  0  0  0  0  0
  188.4340  177.7860  137.7700 C   0  0  0  0  0  2  0  0  0  0  0  0
  1 27  1  0  0  0  0
  2 22  1  0  0  0  0
  3 20  1  0  0  0  0
  4 37  1  6  0  0  0
  4  1  1  0  0  0  0
  6 11  2  0  0  0  0
  7  3  1  0  0  0  0
  9  3  2  0  0  0  0
  9  6  1  0  0  0  0
 10  5  1  6  0  0  0
 10  7  1  0  0  0  0
 10 23  1  0  0  0  0
 11 16  1  0  0  0  0
 12  8  1  0  0  0  0
 12  4  1  0  0  0  0
 13  9  1  0  0  0  0
 14  2  1  0  0  0  0
 17 13  1  0  0  0  0
 17  2  1  0  0  0  0
 18  8  1  6  0  0  0
 18 25  1  0  0  0  0
 18 19  1  0  0  0  0
 19  5  1  1  0  0  0
 20 15  1  0  0  0  0
 20 16  2  0  0  0  0
 21 13  1  0  0  0  0
 21  7  2  0  0  0  0
 22  6  1  0  0  0  0
 23 30  1  6  0  0  0
 23 28  1  0  0  0  0
 24  2  1  0  0  0  0
 25 27  1  0  0  0  0
 25 19  1  0  0  0  0
 26  8  2  0  0  0  0
 27 21  1  0  0  0  0
 28 15  1  0  0  0  0
 30 29  2  0  0  0  0
 31 30  1  0  0  0  0
 32 34  1  0  0  0  0
 33 35  2  0  0  0  0
 34 31  2  0  0  0  0
 34 33  1  0  0  0  0
 35 29  1  0  0  0  0
 36 37  1  0  0  0  0
M  END
>  <MODEL>
2

>  <REMARK>
 VINA RESULT:     -11.1      1.964      5.434
  Name = 
  2 active torsions:
  status: ('A' for Active; 'I' for Inactive)
    1  A    between atoms: C_4  and  C_37
    2  A    between atoms: C_23  and  C_30
                            x       y       z     vdW  Elec       q    Type
                         _______ _______ _______ _____ _____    ______ ____

>  <TORSDO>
F 2

$$$$
=
 OpenBabel11122411213D

 37 44  0  0  1  0  0  0  0  0999 V2000
  187.2500  178.0900  144.8330 O   0  0  0  0  0  0  0  0  0  0  0  0
  191.2820  176.7360  143.3870 C   0  0  0  0  0  0  0  0  0  0  0  0
  188.4990  177.8770  140.4900 C   0  0  0  0  0  0  0  0  0  0  0  0
  186.5850  177.5960  145.9680 C   0  0  2  0  0  3  0  0  0  0  0  0
  184.9560  179.0100  141.5300 O   0  0  0  0  0  0  0  0  0  0  0  0
  190.7530  177.1430  140.9990 C   0  0  0  0  0  0  0  0  0  0  0  0
  187.3060  177.9730  141.2300 C   0  0  0  0  0  0  0  0  0  0  0  0
  184.9380  179.3780  145.2420 C   0  0  0  0  0  0  0  0  0  0  0  0
  189.4560  177.4290  141.3590 C   0  0  0  0  0  0  0  0  0  0  0  0
  185.8610  178.2570  140.7030 C   0  0  2  0  0  3  0  0  0  0  0  0
  191.1240  177.3200  139.6610 C   0  0  0  0  0  3  0  0  0  0  0  0
  185.4350  178.5210  146.3750 C   0  0  0  0  0  2  0  0  0  0  0  0
  188.9830  177.2110  142.5800 N   0  0  0  0  0  0  0  0  0  0  0  0
  191.7040  178.0830  143.9420 C   0  0  0  0  0  1  0  0  0  0  0  0
  187.8860  178.5420  138.0920 C   0  0  0  0  0  2  0  0  0  0  0  0
  190.1630  177.7780  138.7320 C   0  0  0  0  0  3  0  0  0  0  0  0
  189.7610  176.5480  143.6280 C   0  0  0  0  0  2  0  0  0  0  0  0
  184.4320  178.7890  143.9520 C   0  0  1  0  0  3  0  0  0  0  0  0
  185.4180  179.0800  142.8440 C   0  0  1  0  0  3  0  0  0  0  0  0
  188.8340  178.0500  139.1300 C   0  0  0  0  0  0  0  0  0  0  0  0
  187.6660  177.5030  142.5360 C   0  0  0  0  0  0  0  0  0  0  0  0
  191.6260  176.6720  141.9880 O   0  0  0  0  0  0  0  0  0  0  0  0
  185.7580  178.7870  139.2640 C   0  0  1  0  0  3  0  0  0  0  0  0
  192.0320  175.6530  144.1320 C   0  0  0  0  0  1  0  0  0  0  0  0
  185.3070  177.6630  143.3860 C   0  0  1  0  0  3  0  0  0  0  0  0
  184.9080  180.5880  145.3920 O   0  0  0  0  0  0  0  0  0  0  0  0
  186.7620  177.3380  143.7490 C   0  0  2  0  0  3  0  0  0  0  0  0
  186.5140  177.9370  138.2660 C   0  0  0  0  0  2  0  0  0  0  0  0
  183.6900  177.8230  138.2360 C   0  0  0  0  0  3  0  0  0  0  0  0
  184.3300  178.9220  138.8200 C   0  0  0  0  0  0  0  0  0  0  0  0
  183.6290  180.1280  138.9820 C   0  0  0  0  0  3  0  0  0  0  0  0
  181.6280  181.3940  138.7130 F   0  0  0  0  0  0  0  0  0  0  0  0
  181.6670  179.1290  137.9730 C   0  0  0  0  0  3  0  0  0  0  0  0
  182.3010  180.2290  138.5570 C   0  0  0  0  0  0  0  0  0  0  0  0
  182.3620  177.9270  137.8120 C   0  0  0  0  0  3  0  0  0  0  0  0
  188.9480  177.8770  146.6980 C   0  0  0  0  0  1  0  0  0  0  0  0
  187.5560  177.4590  147.1260 C   0  0  0  0  0  2  0  0  0  0  0  0
  1  4  1  0  0  0  0
  2 17  1  0  0  0  0
  2 14  1  0  0  0  0
  2 24  1  0  0  0  0
  3  7  1  0  0  0  0
  3  9  1  0  0  0  0
  4 12  1  0  0  0  0
  4 37  1  1  0  0  0
  6  9  2  0  0  0  0
  6 22  1  0  0  0  0
  7 21  2  0  0  0  0
  8 26  2  0  0  0  0
  8 12  1  0  0  0  0
  9 13  1  0  0  0  0
 10  7  1  1  0  0  0
 10  5  1  0  0  0  0
 11  6  1  0  0  0  0
 13 17  1  0  0  0  0
 15 28  1  0  0  0  0
 15 20  1  0  0  0  0
 16 20  1  0  0  0  0
 16 11  2  0  0  0  0
 18  8  1  1  0  0  0
 19  5  1  6  0  0  0
 19 25  1  0  0  0  0
 19 18  1  0  0  0  0
 20  3  2  0  0  0  0
 21 13  1  0  0  0  0
 21 27  1  0  0  0  0
 22  2  1  0  0  0  0
 23 30  1  6  0  0  0
 23 10  1  0  0  0  0
 25 27  1  0  0  0  0
 25 18  1  0  0  0  0
 27  1  1  0  0  0  0
 28 23  1  0  0  0  0
 29 30  1  0  0  0  0
 30 31  2  0  0  0  0
 33 34  2  0  0  0  0
 34 32  1  0  0  0  0
 34 31  1  0  0  0  0
 35 33  1  0  0  0  0
 35 29  2  0  0  0  0
 36 37  1  0  0  0  0
M  END
>  <MODEL>
3

>  <REMARK>
 VINA RESULT:     -10.5      1.974      2.988
  Name = 
  2 active torsions:
  status: ('A' for Active; 'I' for Inactive)
    1  A    between atoms: C_4  and  C_37
    2  A    between atoms: C_23  and  C_30
                            x       y       z     vdW  Elec       q    Type
                         _______ _______ _______ _____ _____    ______ ____

>  <TORSDO>
F 2

$$$$
=
 OpenBabel11122411213D

 37 44  0  0  1  0  0  0  0  0999 V2000
  188.9820  177.5340  141.2900 O   0  0  0  0  0  0  0  0  0  0  0  0
  184.6270  178.3180  142.0660 C   0  0  0  0  0  0  0  0  0  0  0  0
  187.1350  178.0220  145.3910 C   0  0  0  0  0  0  0  0  0  0  0  0
  189.4940  176.7620  140.2340 C   0  0  2  0  0  3  0  0  0  0  0  0
  190.9000  177.2880  144.9350 O   0  0  0  0  0  0  0  0  0  0  0  0
  184.9130  178.4590  144.5250 C   0  0  0  0  0  0  0  0  0  0  0  0
  188.3260  177.5190  144.8350 C   0  0  0  0  0  0  0  0  0  0  0  0
  191.6600  177.5390  141.2920 C   0  0  0  0  0  0  0  0  0  0  0  0
  186.2260  178.0770  144.3700 C   0  0  0  0  0  0  0  0  0  0  0  0
  189.6300  177.0790  145.5790 C   0  0  2  0  0  3  0  0  0  0  0  0
  184.4730  178.8140  145.8050 C   0  0  0  0  0  3  0  0  0  0  0  0
  190.9930  177.0100  140.0510 C   0  0  0  0  0  2  0  0  0  0  0  0
  186.7180  177.6380  143.2180 N   0  0  0  0  0  0  0  0  0  0  0  0
  184.9930  179.6920  141.5370 C   0  0  0  0  0  1  0  0  0  0  0  0
  187.6170  178.3490  147.8880 C   0  0  0  0  0  2  0  0  0  0  0  0
  185.3800  178.7680  146.8860 C   0  0  0  0  0  3  0  0  0  0  0  0
  185.8880  177.4160  142.0320 C   0  0  0  0  0  2  0  0  0  0  0  0
  191.6180  176.8010  142.6030 C   0  0  1  0  0  3  0  0  0  0  0  0
  190.7350  177.5500  143.5750 C   0  0  1  0  0  3  0  0  0  0  0  0
  186.7200  178.3580  146.6980 C   0  0  0  0  0  0  0  0  0  0  0  0
  187.9890  177.2590  143.4660 C   0  0  0  0  0  0  0  0  0  0  0  0
  184.0850  178.4510  143.3960 O   0  0  0  0  0  0  0  0  0  0  0  0
  189.7530  177.5160  147.0460 C   0  0  1  0  0  3  0  0  0  0  0  0
  183.5740  177.7190  141.1590 C   0  0  0  0  0  1  0  0  0  0  0  0
  190.2350  176.2460  142.9710 C   0  0  1  0  0  3  0  0  0  0  0  0
  192.2890  178.5820  141.2200 O   0  0  0  0  0  0  0  0  0  0  0  0
  188.8780  176.6580  142.3860 C   0  0  2  0  0  3  0  0  0  0  0  0
  188.5390  177.1540  147.8740 C   0  0  0  0  0  2  0  0  0  0  0  0
  191.4580  175.7010  147.2890 C   0  0  0  0  0  3  0  0  0  0  0  0
  190.9830  176.9540  147.6960 C   0  0  0  0  0  0  0  0  0  0  0  0
  191.6640  177.6600  148.7010 C   0  0  0  0  0  3  0  0  0  0  0  0
  193.4600  177.7970  150.2620 F   0  0  0  0  0  0  0  0  0  0  0  0
  193.2750  175.8610  148.8830 C   0  0  0  0  0  3  0  0  0  0  0  0
  192.8060  177.1130  149.2920 C   0  0  0  0  0  0  0  0  0  0  0  0
  192.6000  175.1560  147.8820 C   0  0  0  0  0  3  0  0  0  0  0  0
  189.0930  178.5030  138.5010 C   0  0  0  0  0  1  0  0  0  0  0  0
  188.7660  177.0910  138.9440 C   0  0  0  0  0  2  0  0  0  0  0  0
  1 27  1  0  0  0  0
  2 22  1  0  0  0  0
  3 20  1  0  0  0  0
  4 37  1  6  0  0  0
  4  1  1  0  0  0  0
  5 10  1  0  0  0  0
  6 11  2  0  0  0  0
  7  3  1  0  0  0  0
  9  6  1  0  0  0  0
  9  3  2  0  0  0  0
 10  7  1  6  0  0  0
 10 23  1  0  0  0  0
 11 16  1  0  0  0  0
 12  4  1  0  0  0  0
 12  8  1  0  0  0  0
 13 21  1  0  0  0  0
 13  9  1  0  0  0  0
 14  2  1  0  0  0  0
 17  2  1  0  0  0  0
 17 13  1  0  0  0  0
 18  8  1  6  0  0  0
 18 25  1  0  0  0  0
 18 19  1  0  0  0  0
 19  5  1  1  0  0  0
 20 16  2  0  0  0  0
 20 15  1  0  0  0  0
 21  7  2  0  0  0  0
 22  6  1  0  0  0  0
 23 30  1  1  0  0  0
 23 28  1  0  0  0  0
 24  2  1  0  0  0  0
 25 19  1  0  0  0  0
 26  8  2  0  0  0  0
 27 25  1  0  0  0  0
 27 21  1  0  0  0  0
 28 15  1  0  0  0  0
 29 30  2  0  0  0  0
 29 35  1  0  0  0  0
 30 31  1  0  0  0  0
 31 34  2  0  0  0  0
 33 34  1  0  0  0  0
 34 32  1  0  0  0  0
 35 33  2  0  0  0  0
 36 37  1  0  0  0  0
M  END
>  <MODEL>
4

>  <REMARK>
 VINA RESULT:     -10.3      3.498      8.464
  Name = 
  2 active torsions:
  status: ('A' for Active; 'I' for Inactive)
    1  A    between atoms: C_4  and  C_37
    2  A    between atoms: C_23  and  C_30
                            x       y       z     vdW  Elec       q    Type
                         _______ _______ _______ _____ _____    ______ ____

>  <TORSDO>
F 2

$$$$
=
 OpenBabel11122411213D

 37 44  0  0  1  0  0  0  0  0999 V2000
  189.3980  177.0090  138.8900 O   0  0  0  0  0  0  0  0  0  0  0  0
  190.3220  177.2670  143.2790 C   0  0  0  0  0  0  0  0  0  0  0  0
  186.3920  178.0520  142.1060 C   0  0  0  0  0  0  0  0  0  0  0  0
  190.2840  177.3420  137.8520 C   0  0  2  0  0  3  0  0  0  0  0  0
  185.4140  177.9430  138.3710 O   0  0  0  0  0  0  0  0  0  0  0  0
  187.9830  177.7870  143.9160 C   0  0  0  0  0  0  0  0  0  0  0  0
  186.5030  178.1550  140.7070 C   0  0  0  0  0  0  0  0  0  0  0  0
  188.3080  176.5280  136.4920 C   0  0  0  0  0  0  0  0  0  0  0  0
  187.6620  177.8690  142.5810 C   0  0  0  0  0  0  0  0  0  0  0  0
  185.3950  178.5500  139.6750 C   0  0  2  0  0  3  0  0  0  0  0  0
  186.9500  177.8980  144.8540 C   0  0  0  0  0  3  0  0  0  0  0  0
  189.7900  176.7890  136.5120 C   0  0  0  0  0  2  0  0  0  0  0  0
  188.5760  177.8650  141.6190 N   0  0  0  0  0  0  0  0  0  0  0  0
  190.3770  175.7570  143.1450 C   0  0  0  0  0  1  0  0  0  0  0  0
  183.9040  178.3740  142.6320 C   0  0  0  0  0  2  0  0  0  0  0  0
  185.6250  178.0900  144.4040 C   0  0  0  0  0  3  0  0  0  0  0  0
  190.0160  177.8820  141.8890 C   0  0  0  0  0  2  0  0  0  0  0  0
  187.2990  177.6060  136.7830 C   0  0  1  0  0  3  0  0  0  0  0  0
  186.6440  177.3360  138.1180 C   0  0  1  0  0  3  0  0  0  0  0  0
  185.3280  178.1840  143.0250 C   0  0  0  0  0  0  0  0  0  0  0  0
  187.9130  178.0670  140.4610 C   0  0  0  0  0  0  0  0  0  0  0  0
  189.3290  177.6190  144.2640 O   0  0  0  0  0  0  0  0  0  0  0  0
  183.9500  178.5370  140.1960 C   0  0  1  0  0  3  0  0  0  0  0  0
  191.6760  177.7580  143.7430 C   0  0  0  0  0  1  0  0  0  0  0  0
  187.6390  178.4790  137.9970 C   0  0  1  0  0  3  0  0  0  0  0  0
  187.9140  175.4140  136.1900 O   0  0  0  0  0  0  0  0  0  0  0  0
  188.6330  178.1660  139.1240 C   0  0  2  0  0  3  0  0  0  0  0  0
  183.7750  179.3310  141.4730 C   0  0  0  0  0  2  0  0  0  0  0  0
  182.2900  178.1080  138.3740 C   0  0  0  0  0  3  0  0  0  0  0  0
  182.9800  179.0340  139.1650 C   0  0  0  0  0  0  0  0  0  0  0  0
  182.7530  180.4080  138.9810 C   0  0  0  0  0  3  0  0  0  0  0  0
  181.6320  182.1720  137.8350 F   0  0  0  0  0  0  0  0  0  0  0  0
  181.1620  179.9160  137.2230 C   0  0  0  0  0  3  0  0  0  0  0  0
  181.8470  180.8460  138.0110 C   0  0  0  0  0  0  0  0  0  0  0  0
  181.3840  178.5480  137.4050 C   0  0  0  0  0  3  0  0  0  0  0  0
  191.7890  175.3720  137.6290 C   0  0  0  0  0  1  0  0  0  0  0  0
  191.6670  176.7920  138.1460 C   0  0  0  0  0  2  0  0  0  0  0  0
  1 27  1  0  0  0  0
  2 24  1  0  0  0  0
  2 22  1  0  0  0  0
  3  9  2  0  0  0  0
  3 20  1  0  0  0  0
  4 37  1  1  0  0  0
  4  1  1  0  0  0  0
  6 22  1  0  0  0  0
  6 11  2  0  0  0  0
  7  3  1  0  0  0  0
  8 12  1  0  0  0  0
  9  6  1  0  0  0  0
 10  5  1  6  0  0  0
 10 23  1  0  0  0  0
 10  7  1  0  0  0  0
 12  4  1  0  0  0  0
 13 17  1  0  0  0  0
 13  9  1  0  0  0  0
 14  2  1  0  0  0  0
 15 20  1  0  0  0  0
 16 11  1  0  0  0  0
 17  2  1  0  0  0  0
 18  8  1  1  0  0  0
 18 25  1  0  0  0  0
 18 19  1  0  0  0  0
 19  5  1  6  0  0  0
 20 16  2  0  0  0  0
 21  7  2  0  0  0  0
 21 13  1  0  0  0  0
 23 30  1  6  0  0  0
 23 28  1  0  0  0  0
 25 19  1  0  0  0  0
 25 27  1  0  0  0  0
 26  8  2  0  0  0  0
 27 21  1  0  0  0  0
 28 15  1  0  0  0  0
 29 30  1  0  0  0  0
 31 30  2  0  0  0  0
 32 34  1  0  0  0  0
 33 35  1  0  0  0  0
 33 34  2  0  0  0  0
 34 31  1  0  0  0  0
 35 29  2  0  0  0  0
 36 37  1  0  0  0  0
M  END
>  <MODEL>
5

>  <REMARK>
 VINA RESULT:     -10.1      2.718      6.239
  Name = 
  2 active torsions:
  status: ('A' for Active; 'I' for Inactive)
    1  A    between atoms: C_4  and  C_37
    2  A    between atoms: C_23  and  C_30
                            x       y       z     vdW  Elec       q    Type
                         _______ _______ _______ _____ _____    ______ ____

>  <TORSDO>
F 2

$$$$
=
 OpenBabel11122411213D

 37 44  0  0  1  0  0  0  0  0999 V2000
  186.3040  178.5490  138.3000 O   0  0  0  0  0  0  0  0  0  0  0  0
  181.9700  178.6820  139.4770 C   0  0  0  0  0  0  0  0  0  0  0  0
  184.7830  178.5910  142.5610 C   0  0  0  0  0  0  0  0  0  0  0  0
  186.8180  177.9040  137.1640 C   0  0  2  0  0  3  0  0  0  0  0  0
  188.5560  178.4100  141.7540 O   0  0  0  0  0  0  0  0  0  0  0  0
  182.4540  178.7510  141.9080 C   0  0  0  0  0  0  0  0  0  0  0  0
  185.9770  178.2840  141.8810 C   0  0  0  0  0  0  0  0  0  0  0  0
  188.9460  178.9280  138.0800 C   0  0  0  0  0  0  0  0  0  0  0  0
  183.7880  178.5640  141.6240 C   0  0  0  0  0  0  0  0  0  0  0  0
  187.3900  177.9980  142.4880 C   0  0  2  0  0  3  0  0  0  0  0  0
  182.0860  178.9840  143.2380 C   0  0  0  0  0  3  0  0  0  0  0  0
  188.2480  178.3680  136.8710 C   0  0  0  0  0  2  0  0  0  0  0  0
  184.2290  178.2500  140.4120 N   0  0  0  0  0  0  0  0  0  0  0  0
  182.0980  180.1160  138.9990 C   0  0  0  0  0  1  0  0  0  0  0  0
  185.4390  178.8690  145.0240 C   0  0  0  0  0  2  0  0  0  0  0  0
  183.0860  179.0160  144.2360 C   0  0  0  0  0  3  0  0  0  0  0  0
  183.3340  177.9670  139.2880 C   0  0  0  0  0  2  0  0  0  0  0  0
  189.1210  178.1330  139.3470 C   0  0  1  0  0  3  0  0  0  0  0  0
  188.2360  178.7080  140.4290 C   0  0  1  0  0  3  0  0  0  0  0  0
  184.4460  178.8070  143.9150 C   0  0  0  0  0  0  0  0  0  0  0  0
  185.5560  178.0420  140.5310 C   0  0  0  0  0  0  0  0  0  0  0  0
  181.5370  178.6790  140.8530 O   0  0  0  0  0  0  0  0  0  0  0  0
  187.5830  178.3820  143.9630 C   0  0  1  0  0  3  0  0  0  0  0  0
  180.9300  177.9830  138.6280 C   0  0  0  0  0  1  0  0  0  0  0  0
  187.8650  177.3760  139.7960 C   0  0  1  0  0  3  0  0  0  0  0  0
  189.4180  180.0510  138.0160 O   0  0  0  0  0  0  0  0  0  0  0  0
  186.4170  177.6190  139.3500 C   0  0  2  0  0  3  0  0  0  0  0  0
  186.5090  177.8170  144.8660 C   0  0  0  0  0  2  0  0  0  0  0  0
  190.0760  178.3260  143.7530 C   0  0  0  0  0  3  0  0  0  0  0  0
  188.9320  177.9680  144.4750 C   0  0  0  0  0  0  0  0  0  0  0  0
  189.0640  177.2300  145.6630 C   0  0  0  0  0  3  0  0  0  0  0  0
  190.4550  176.1420  147.2630 F   0  0  0  0  0  0  0  0  0  0  0  0
  191.4710  177.2140  145.3910 C   0  0  0  0  0  3  0  0  0  0  0  0
  190.3320  176.8540  146.1180 C   0  0  0  0  0  0  0  0  0  0  0  0
  191.3420  177.9490  144.2090 C   0  0  0  0  0  3  0  0  0  0  0  0
  184.9020  177.0930  135.7970 C   0  0  0  0  0  1  0  0  0  0  0  0
  185.9400  178.1860  135.9580 C   0  0  0  0  0  2  0  0  0  0  0  0
  1 27  1  0  0  0  0
  2 22  1  0  0  0  0
  3 20  1  0  0  0  0
  4 37  1  6  0  0  0
  4  1  1  0  0  0  0
  6 11  2  0  0  0  0
  7 10  1  0  0  0  0
  7  3  1  0  0  0  0
  9  6  1  0  0  0  0
  9  3  2  0  0  0  0
 10  5  1  6  0  0  0
 10 23  1  0  0  0  0
 11 16  1  0  0  0  0
 12  4  1  0  0  0  0
 12  8  1  0  0  0  0
 13 21  1  0  0  0  0
 13  9  1  0  0  0  0
 14  2  1  0  0  0  0
 17  2  1  0  0  0  0
 17 13  1  0  0  0  0
 18  8  1  6  0  0  0
 18 25  1  0  0  0  0
 18 19  1  0  0  0  0
 19  5  1  1  0  0  0
 20 16  2  0  0  0  0
 20 15  1  0  0  0  0
 21  7  2  0  0  0  0
 22  6  1  0  0  0  0
 23 30  1  1  0  0  0
 23 28  1  0  0  0  0
 24  2  1  0  0  0  0
 25 19  1  0  0  0  0
 26  8  2  0  0  0  0
 27 25  1  0  0  0  0
 27 21  1  0  0  0  0
 28 15  1  0  0  0  0
 29 35  2  0  0  0  0
 29 30  1  0  0  0  0
 30 31  2  0  0  0  0
 31 34  1  0  0  0  0
 33 34  2  0  0  0  0
 34 32  1  0  0  0  0
 35 33  1  0  0  0  0
 36 37  1  0  0  0  0
M  END
>  <MODEL>
6

>  <REMARK>
 VINA RESULT:      -9.8      3.190      8.347
  Name = 
  2 active torsions:
  status: ('A' for Active; 'I' for Inactive)
    1  A    between atoms: C_4  and  C_37
    2  A    between atoms: C_23  and  C_30
                            x       y       z     vdW  Elec       q    Type
                         _______ _______ _______ _____ _____    ______ ____

>  <TORSDO>
F 2

$$$$
=
 OpenBabel11122411213D

 37 44  0  0  1  0  0  0  0  0999 V2000
  187.5230  177.4830  139.3350 O   0  0  0  0  0  0  0  0  0  0  0  0
  189.3580  177.8060  143.4220 C   0  0  0  0  0  0  0  0  0  0  0  0
  185.2240  178.3140  143.1410 C   0  0  0  0  0  0  0  0  0  0  0  0
  188.1370  177.8770  138.1340 C   0  0  2  0  0  3  0  0  0  0  0  0
  183.4670  178.1360  139.7060 O   0  0  0  0  0  0  0  0  0  0  0  0
  187.1840  178.1620  144.5590 C   0  0  0  0  0  0  0  0  0  0  0  0
  185.0200  178.4240  141.7520 C   0  0  0  0  0  0  0  0  0  0  0  0
  185.9730  176.9260  137.2220 C   0  0  0  0  0  0  0  0  0  0  0  0
  186.5760  178.2200  143.3260 C   0  0  0  0  0  0  0  0  0  0  0  0
  183.6900  178.7400  140.9920 C   0  0  2  0  0  3  0  0  0  0  0  0
  186.3740  178.1990  145.7000 C   0  0  0  0  0  3  0  0  0  0  0  0
  187.4030  177.2900  136.9250 C   0  0  0  0  0  2  0  0  0  0  0  0
  187.2570  178.2800  142.1890 N   0  0  0  0  0  0  0  0  0  0  0  0
  189.4860  176.3030  143.2570 C   0  0  0  0  0  1  0  0  0  0  0  0
  182.8930  178.4610  144.1990 C   0  0  0  0  0  2  0  0  0  0  0  0
  184.9730  178.2990  145.5510 C   0  0  0  0  0  3  0  0  0  0  0  0
  188.7160  178.3980  142.1410 C   0  0  0  0  0  2  0  0  0  0  0  0
  184.9800  177.9310  137.7410 C   0  0  1  0  0  3  0  0  0  0  0  0
  184.6510  177.6160  139.1830 C   0  0  1  0  0  3  0  0  0  0  0  0
  184.3780  178.3710  144.2700 C   0  0  0  0  0  0  0  0  0  0  0  0
  186.3460  178.4350  141.2060 C   0  0  0  0  0  0  0  0  0  0  0  0
  188.5820  178.0880  144.6040 O   0  0  0  0  0  0  0  0  0  0  0  0
  182.3970  178.6260  141.8140 C   0  0  1  0  0  3  0  0  0  0  0  0
  190.7440  178.3910  143.5890 C   0  0  0  0  0  1  0  0  0  0  0  0
  185.5160  178.8260  138.8660 C   0  0  1  0  0  3  0  0  0  0  0  0
  185.6000  175.7870  136.9970 O   0  0  0  0  0  0  0  0  0  0  0  0
  186.7500  178.5830  139.7460 C   0  0  2  0  0  3  0  0  0  0  0  0
  182.4500  179.4060  143.1090 C   0  0  0  0  0  2  0  0  0  0  0  0
  180.1450  178.1480  140.8340 C   0  0  0  0  0  3  0  0  0  0  0  0
  181.1950  179.0540  141.0240 C   0  0  0  0  0  0  0  0  0  0  0  0
  181.1050  180.3440  140.4760 C   0  0  0  0  0  3  0  0  0  0  0  0
  179.8930  181.9610  139.2130 F   0  0  0  0  0  0  0  0  0  0  0  0
  178.9310  179.8070  139.5540 C   0  0  0  0  0  3  0  0  0  0  0  0
  179.9750  180.7170  139.7420 C   0  0  0  0  0  0  0  0  0  0  0  0
  179.0160  178.5230  140.1000 C   0  0  0  0  0  3  0  0  0  0  0  0
  189.6720  175.9520  137.7680 C   0  0  0  0  0  1  0  0  0  0  0  0
  189.5850  177.4250  138.1130 C   0  0  0  0  0  2  0  0  0  0  0  0
  1 27  1  0  0  0  0
  2 24  1  0  0  0  0
  2 22  1  0  0  0  0
  3  9  2  0  0  0  0
  3 20  1  0  0  0  0
  4 37  1  1  0  0  0
  4  1  1  0  0  0  0
  6 22  1  0  0  0  0
  6 11  2  0  0  0  0
  7  3  1  0  0  0  0
  9  6  1  0  0  0  0
 10  5  1  6  0  0  0
 10  7  1  0  0  0  0
 10 23  1  0  0  0  0
 12  8  1  0  0  0  0
 12  4  1  0  0  0  0
 13  9  1  0  0  0  0
 14  2  1  0  0  0  0
 15 20  1  0  0  0  0
 16 11  1  0  0  0  0
 17 13  1  0  0  0  0
 17  2  1  0  0  0  0
 18  8  1  1  0  0  0
 18 25  1  0  0  0  0
 18 19  1  0  0  0  0
 19  5  1  6  0  0  0
 20 16  2  0  0  0  0
 21  7  2  0  0  0  0
 21 13  1  0  0  0  0
 23 30  1  6  0  0  0
 23 28  1  0  0  0  0
 25 19  1  0  0  0  0
 25 27  1  0  0  0  0
 26  8  2  0  0  0  0
 27 21  1  0  0  0  0
 28 15  1  0  0  0  0
 29 30  1  0  0  0  0
 31 30  2  0  0  0  0
 32 34  1  0  0  0  0
 33 34  2  0  0  0  0
 33 35  1  0  0  0  0
 34 31  1  0  0  0  0
 35 29  2  0  0  0  0
 36 37  1  0  0  0  0
M  END
>  <MODEL>
7

>  <REMARK>
 VINA RESULT:      -9.6      2.160      5.749
  Name = 
  2 active torsions:
  status: ('A' for Active; 'I' for Inactive)
    1  A    between atoms: C_4  and  C_37
    2  A    between atoms: C_23  and  C_30
                            x       y       z     vdW  Elec       q    Type
                         _______ _______ _______ _____ _____    ______ ____

>  <TORSDO>
F 2

$$$$
=
 OpenBabel11122411213D

 37 44  0  0  1  0  0  0  0  0999 V2000
  184.8310  178.4460  139.8040 O   0  0  0  0  0  0  0  0  0  0  0  0
  188.2960  177.8000  137.0190 C   0  0  0  0  0  0  0  0  0  0  0  0
  189.0080  177.2880  141.1010 C   0  0  0  0  0  0  0  0  0  0  0  0
  183.7950  179.3750  139.6110 C   0  0  2  0  0  3  0  0  0  0  0  0
  186.1730  177.8610  143.6610 O   0  0  0  0  0  0  0  0  0  0  0  0
  189.8610  177.1680  138.8350 C   0  0  0  0  0  0  0  0  0  0  0  0
  187.8410  177.8150  141.6860 C   0  0  0  0  0  0  0  0  0  0  0  0
  182.9970  178.2730  141.7490 C   0  0  0  0  0  0  0  0  0  0  0  0
  188.8880  177.4890  139.7530 C   0  0  0  0  0  0  0  0  0  0  0  0
  187.5280  178.0200  143.2050 C   0  0  2  0  0  3  0  0  0  0  0  0
  191.0510  176.5990  139.3020 C   0  0  0  0  0  3  0  0  0  0  0  0
  182.6110  179.0730  140.5340 C   0  0  0  0  0  2  0  0  0  0  0  0
  187.7630  178.1110  139.4230 N   0  0  0  0  0  0  0  0  0  0  0  0
  187.5270  176.5350  136.6890 C   0  0  0  0  0  1  0  0  0  0  0  0
  190.4480  176.4540  143.0510 C   0  0  0  0  0  2  0  0  0  0  0  0
  191.2150  176.3780  140.6880 C   0  0  0  0  0  3  0  0  0  0  0  0
  187.4970  178.6110  138.0720 C   0  0  0  0  0  2  0  0  0  0  0  0
  184.0460  178.7450  142.7200 C   0  0  1  0  0  3  0  0  0  0  0  0
  185.2780  177.8780  142.5920 C   0  0  1  0  0  3  0  0  0  0  0  0
  190.2020  176.7320  141.6090 C   0  0  0  0  0  0  0  0  0  0  0  0
  187.1090  178.3550  140.5780 C   0  0  0  0  0  0  0  0  0  0  0  0
  189.6140  177.4460  137.4850 O   0  0  0  0  0  0  0  0  0  0  0  0
  188.4600  177.2990  144.1910 C   0  0  1  0  0  3  0  0  0  0  0  0
  188.4220  178.6280  135.7580 C   0  0  0  0  0  1  0  0  0  0  0  0
  185.3140  179.3020  142.0600 C   0  0  1  0  0  3  0  0  0  0  0  0
  182.4110  177.2270  141.9710 O   0  0  0  0  0  0  0  0  0  0  0  0
  185.7810  179.0980  140.6120 C   0  0  2  0  0  3  0  0  0  0  0  0
  189.9250  177.5690  143.9240 C   0  0  0  0  0  2  0  0  0  0  0  0
  189.1680  177.6340  146.5670 C   0  0  0  0  0  3  0  0  0  0  0  0
  188.1420  177.6470  145.6160 C   0  0  0  0  0  0  0  0  0  0  0  0
  186.8370  177.9850  146.0090 C   0  0  0  0  0  3  0  0  0  0  0  0
  185.3050  178.6270  147.7180 F   0  0  0  0  0  0  0  0  0  0  0  0
  187.5940  178.2870  148.2890 C   0  0  0  0  0  3  0  0  0  0  0  0
  186.5660  178.3030  147.3430 C   0  0  0  0  0  0  0  0  0  0  0  0
  188.8950  177.9530  147.9010 C   0  0  0  0  0  3  0  0  0  0  0  0
  183.4070  177.9390  137.6160 C   0  0  0  0  0  1  0  0  0  0  0  0
  183.3290  179.3480  138.1680 C   0  0  0  0  0  2  0  0  0  0  0  0
  1 27  1  0  0  0  0
  2 22  1  0  0  0  0
  2 17  1  0  0  0  0
  3 20  1  0  0  0  0
  3  7  1  0  0  0  0
  4 37  1  6  0  0  0
  4  1  1  0  0  0  0
  4 12  1  0  0  0  0
  6 11  2  0  0  0  0
  6  9  1  0  0  0  0
  8 26  2  0  0  0  0
  9  3  2  0  0  0  0
 10  7  1  6  0  0  0
 10  5  1  0  0  0  0
 10 23  1  0  0  0  0
 11 16  1  0  0  0  0
 12  8  1  0  0  0  0
 13  9  1  0  0  0  0
 13 21  1  0  0  0  0
 14  2  1  0  0  0  0
 15 28  1  0  0  0  0
 16 20  2  0  0  0  0
 17 13  1  0  0  0  0
 18  8  1  6  0  0  0
 19 18  1  0  0  0  0
 19  5  1  1  0  0  0
 20 15  1  0  0  0  0
 21 27  1  0  0  0  0
 21  7  2  0  0  0  0
 22  6  1  0  0  0  0
 23 30  1  1  0  0  0
 24  2  1  0  0  0  0
 25 19  1  0  0  0  0
 25 18  1  0  0  0  0
 27 25  1  0  0  0  0
 28 23  1  0  0  0  0
 29 35  1  0  0  0  0
 30 31  1  0  0  0  0
 30 29  2  0  0  0  0
 31 34  2  0  0  0  0
 34 32  1  0  0  0  0
 34 33  1  0  0  0  0
 35 33  2  0  0  0  0
 36 37  1  0  0  0  0
M  END
>  <MODEL>
8

>  <REMARK>
 VINA RESULT:      -9.5      2.569      6.572
  Name = 
  2 active torsions:
  status: ('A' for Active; 'I' for Inactive)
    1  A    between atoms: C_4  and  C_37
    2  A    between atoms: C_23  and  C_30
                            x       y       z     vdW  Elec       q    Type
                         _______ _______ _______ _____ _____    ______ ____

>  <TORSDO>
F 2

$$$$
=
 OpenBabel11122411213D

 37 44  0  0  1  0  0  0  0  0999 V2000
  190.8760  177.1080  138.1840 O   0  0  0  0  0  0  0  0  0  0  0  0
  186.9040  177.7190  136.1760 C   0  0  0  0  0  0  0  0  0  0  0  0
  187.0350  178.1740  140.3240 C   0  0  0  0  0  0  0  0  0  0  0  0
  191.8650  176.2010  137.7700 C   0  0  2  0  0  3  0  0  0  0  0  0
  190.3430  177.6280  142.2420 O   0  0  0  0  0  0  0  0  0  0  0  0
  185.7340  178.3030  138.2820 C   0  0  0  0  0  0  0  0  0  0  0  0
  188.3060  177.6630  140.6500 C   0  0  0  0  0  0  0  0  0  0  0  0
  193.0660  177.2950  139.7140 C   0  0  0  0  0  0  0  0  0  0  0  0
  186.8800  177.9900  138.9770 C   0  0  0  0  0  0  0  0  0  0  0  0
  188.9260  177.4480  142.0700 C   0  0  2  0  0  3  0  0  0  0  0  0
  184.6560  178.8440  138.9910 C   0  0  0  0  0  3  0  0  0  0  0  0
  193.2080  176.5150  138.4350 C   0  0  0  0  0  2  0  0  0  0  0  0
  187.9230  177.3920  138.4150 N   0  0  0  0  0  0  0  0  0  0  0  0
  187.5680  179.0020  135.7140 C   0  0  0  0  0  1  0  0  0  0  0  0
  186.0120  178.9600  142.5390 C   0  0  0  0  0  2  0  0  0  0  0  0
  184.7760  179.0470  140.3840 C   0  0  0  0  0  3  0  0  0  0  0  0
  187.9140  176.9120  137.0320 C   0  0  0  0  0  2  0  0  0  0  0  0
  192.2460  176.7930  140.8730 C   0  0  1  0  0  3  0  0  0  0  0  0
  191.0010  177.6390  141.0110 C   0  0  1  0  0  3  0  0  0  0  0  0
  185.9610  178.7030  141.0730 C   0  0  0  0  0  0  0  0  0  0  0  0
  188.8040  177.1480  139.4080 C   0  0  0  0  0  0  0  0  0  0  0  0
  185.7040  178.0430  136.9070 O   0  0  0  0  0  0  0  0  0  0  0  0
  188.2040  178.1410  143.2360 C   0  0  1  0  0  3  0  0  0  0  0  0
  186.5360  176.9020  134.9560 C   0  0  0  0  0  1  0  0  0  0  0  0
  190.8790  176.2190  140.4780 C   0  0  1  0  0  3  0  0  0  0  0  0
  193.6680  178.3490  139.8270 O   0  0  0  0  0  0  0  0  0  0  0  0
  190.1220  176.4300  139.1600 C   0  0  2  0  0  3  0  0  0  0  0  0
  186.7200  177.8460  143.2710 C   0  0  0  0  0  2  0  0  0  0  0  0
  188.0020  177.7610  145.7010 C   0  0  0  0  0  3  0  0  0  0  0  0
  188.8130  177.7840  144.5600 C   0  0  0  0  0  0  0  0  0  0  0  0
  190.1780  177.4710  144.6740 C   0  0  0  0  0  3  0  0  0  0  0  0
  192.0380  176.8450  146.0260 F   0  0  0  0  0  0  0  0  0  0  0  0
  189.9070  177.1250  147.0550 C   0  0  0  0  0  3  0  0  0  0  0  0
  190.7210  177.1440  145.9200 C   0  0  0  0  0  0  0  0  0  0  0  0
  188.5480  177.4340  146.9450 C   0  0  0  0  0  3  0  0  0  0  0  0
  193.4780  176.0470  135.8800 C   0  0  0  0  0  1  0  0  0  0  0  0
  192.0250  176.2520  136.2620 C   0  0  0  0  0  2  0  0  0  0  0  0
  1 27  1  0  0  0  0
  2 22  1  0  0  0  0
  2 17  1  0  0  0  0
  3  7  1  0  0  0  0
  3 20  1  0  0  0  0
  4 37  1  6  0  0  0
  4  1  1  0  0  0  0
  4 12  1  0  0  0  0
  6  9  1  0  0  0  0
  6 11  2  0  0  0  0
  8 26  2  0  0  0  0
  9  3  2  0  0  0  0
 10  7  1  6  0  0  0
 10  5  1  0  0  0  0
 10 23  1  0  0  0  0
 11 16  1  0  0  0  0
 12  8  1  0  0  0  0
 13  9  1  0  0  0  0
 13 21  1  0  0  0  0
 14  2  1  0  0  0  0
 15 28  1  0  0  0  0
 16 20  2  0  0  0  0
 17 13  1  0  0  0  0
 18  8  1  6  0  0  0
 18 19  1  0  0  0  0
 19  5  1  1  0  0  0
 20 15  1  0  0  0  0
 21  7  2  0  0  0  0
 22  6  1  0  0  0  0
 23 28  1  0  0  0  0
 23 30  1  1  0  0  0
 24  2  1  0  0  0  0
 25 18  1  0  0  0  0
 25 19  1  0  0  0  0
 27 21  1  0  0  0  0
 27 25  1  0  0  0  0
 29 35  1  0  0  0  0
 30 31  1  0  0  0  0
 30 29  2  0  0  0  0
 31 34  2  0  0  0  0
 34 32  1  0  0  0  0
 34 33  1  0  0  0  0
 35 33  2  0  0  0  0
 36 37  1  0  0  0  0
M  END
>  <MODEL>
9

>  <REMARK>
 VINA RESULT:      -9.2      3.860      7.937
  Name = 
  2 active torsions:
  status: ('A' for Active; 'I' for Inactive)
    1  A    between atoms: C_4  and  C_37
    2  A    between atoms: C_23  and  C_30
                            x       y       z     vdW  Elec       q    Type
                         _______ _______ _______ _____ _____    ______ ____

>  <TORSDO>
F 2

$$$$
