=
 OpenBabel11122412003D

 28 32  0  0  1  0  0  0  0  0999 V2000
  182.0950  177.2360  137.4310 C   0  0  2  0  0  3  0  0  0  0  0  0
  184.8880  173.3690  137.9240 O   0  0  0  0  0  1  0  0  0  0  0  0
  187.7870  179.3940  136.7800 O   0  0  0  0  0  0  0  0  0  0  0  0
  182.3200  177.7330  134.5940 C   0  0  0  0  0  3  0  0  0  0  0  0
  187.7460  177.0460  136.6660 N   0  0  0  0  0  0  0  0  0  0  0  0
  182.1660  177.5860  139.2280 S   0  0  0  0  0  0  0  0  0  0  0  0
  182.8360  173.5840  136.7570 C   0  0  0  0  0  1  0  0  0  0  0  0
  184.3490  173.6680  136.6700 C   0  0  1  0  0  0  0  0  0  0  0  0
  186.1190  172.9610  134.9220 C   0  0  2  0  0  3  0  0  0  0  0  0
  184.7690  175.0880  136.2320 C   0  0  2  0  0  3  0  0  0  0  0  0
  184.9610  179.0190  141.2540 C   0  0  0  0  0  1  0  0  0  0  0  0
  185.7330  176.6590  137.8760 C   0  0  1  0  0  3  0  0  0  0  0  0
  186.9940  173.9000  135.7390 C   0  0  0  0  0  2  0  0  0  0  0  0
  184.8220  172.6080  135.6630 C   0  0  0  0  0  2  0  0  0  0  0  0
  184.7800  178.5580  139.8230 C   0  0  2  0  0  3  0  0  0  0  0  0
  183.4780  177.2600  136.7620 C   0  0  2  0  0  3  0  0  0  0  0  0
  187.2210  178.3000  137.0470 C   0  0  0  0  0  0  0  0  0  0  0  0
  186.8520  171.7460  134.6200 N   0  0  0  0  0  1  0  0  0  0  0  0
  185.9980  178.8340  139.0620 N   0  0  0  0  0  2  0  0  0  0  0  0
  183.4440  177.4310  135.2580 C   0  0  0  0  0  3  0  0  0  0  0  0
  181.1500  178.2210  136.7510 C   0  0  0  0  0  2  0  0  0  0  0  0
  180.9870  177.8350  135.2850 C   0  0  0  0  0  2  0  0  0  0  0  0
  183.3240  179.3830  139.0980 S   0  0  0  0  0  0  0  0  0  0  0  0
  186.8860  175.9740  137.1310 C   0  0  1  0  0  3  0  0  0  0  0  0
  185.9280  178.1890  137.7520 C   0  0  2  0  0  3  0  0  0  0  0  0
  186.2750  175.2320  135.9540 C   0  0  2  0  0  3  0  0  0  0  0  0
  189.0450  176.8460  136.0450 C   0  0  0  0  0  1  0  0  0  0  0  0
  184.4160  176.1470  137.2760 C   0  0  1  0  0  3  0  0  0  0  0  0
  1 21  1  6  0  0  0
  1  6  1  0  0  0  0
  3 17  2  0  0  0  0
  4 20  2  0  0  0  0
  4 22  1  0  0  0  0
  5 17  1  0  0  0  0
  5 24  1  0  0  0  0
  8  7  1  1  0  0  0
  8  2  1  0  0  0  0
  9 18  1  1  0  0  0
  9 14  1  0  0  0  0
  9 13  1  0  0  0  0
 10  8  1  0  0  0  0
 10 28  1  0  0  0  0
 13 26  1  0  0  0  0
 14  8  1  0  0  0  0
 15 11  1  0  0  0  0
 16 28  1  0  0  0  0
 16  1  1  0  0  0  0
 17 25  1  0  0  0  0
 19 15  1  0  0  0  0
 20 16  1  0  0  0  0
 22 21  1  0  0  0  0
 23  6  1  0  0  0  0
 23 15  1  0  0  0  0
 24 12  1  0  0  0  0
 25 12  1  0  0  0  0
 25 19  1  0  0  0  0
 26 10  1  0  0  0  0
 26 24  1  0  0  0  0
 27  5  1  0  0  0  0
 28 12  1  0  0  0  0
M  END
>  <MODEL>
1

>  <REMARK>
 VINA RESULT:      -5.4      0.000      0.000
  Name = 
  0 active torsions:
  status: ('A' for Active; 'I' for Inactive)
                            x       y       z     vdW  Elec       q    Type
                         _______ _______ _______ _____ _____    ______ ____

>  <TORSDO>
F 0

$$$$
=
 OpenBabel11122412003D

 28 32  0  0  1  0  0  0  0  0999 V2000
  180.5600  179.0560  142.5320 C   0  0  2  0  0  3  0  0  0  0  0  0
  180.8570  174.8240  140.2960 O   0  0  0  0  0  1  0  0  0  0  0  0
  185.4250  179.6290  138.8610 O   0  0  0  0  0  0  0  0  0  0  0  0
  179.6120  180.7550  140.3970 C   0  0  0  0  0  3  0  0  0  0  0  0
  184.1590  177.7270  138.3090 N   0  0  0  0  0  0  0  0  0  0  0  0
  181.6500  178.4800  143.8880 S   0  0  0  0  0  0  0  0  0  0  0  0
  178.9310  176.1140  140.7920 C   0  0  0  0  0  1  0  0  0  0  0  0
  180.0190  175.8150  139.7770 C   0  0  1  0  0  0  0  0  0  0  0  0
  180.0960  175.5700  137.2040 C   0  0  2  0  0  3  0  0  0  0  0  0
  180.8250  177.0980  139.4830 C   0  0  2  0  0  3  0  0  0  0  0  0
  185.3520  177.9640  143.8960 C   0  0  0  0  0  1  0  0  0  0  0  0
  183.0980  177.3760  140.4100 C   0  0  1  0  0  3  0  0  0  0  0  0
  181.5900  175.7330  137.4450 C   0  0  0  0  0  2  0  0  0  0  0  0
  179.3410  175.2750  138.5070 C   0  0  0  0  0  2  0  0  0  0  0  0
  184.3030  178.3030  142.8580 C   0  0  2  0  0  3  0  0  0  0  0  0
  181.2460  179.0180  141.1580 C   0  0  2  0  0  3  0  0  0  0  0  0
  184.5960  178.7390  139.1900 C   0  0  0  0  0  0  0  0  0  0  0  0
  179.8660  174.4960  136.2560 N   0  0  0  0  0  1  0  0  0  0  0  0
  184.9520  178.5650  141.5740 N   0  0  0  0  0  2  0  0  0  0  0  0
  180.5860  179.8830  140.1040 C   0  0  0  0  0  3  0  0  0  0  0  0
  180.0510  180.4600  142.8420 C   0  0  0  0  0  2  0  0  0  0  0  0
  179.0370  180.8750  141.7830 C   0  0  0  0  0  2  0  0  0  0  0  0
  183.3250  179.7330  143.4280 S   0  0  0  0  0  0  0  0  0  0  0  0
  183.2250  176.8410  138.9780 C   0  0  1  0  0  3  0  0  0  0  0  0
  183.9490  178.6630  140.5150 C   0  0  2  0  0  3  0  0  0  0  0  0
  181.8470  176.9420  138.3440 C   0  0  2  0  0  3  0  0  0  0  0  0
  184.6940  177.5000  136.9760 C   0  0  0  0  0  1  0  0  0  0  0  0
  181.6060  177.5880  140.7030 C   0  0  1  0  0  3  0  0  0  0  0  0
  1 21  1  1  0  0  0
  1  6  1  0  0  0  0
  3 17  2  0  0  0  0
  4 22  1  0  0  0  0
  5 24  1  0  0  0  0
  5 17  1  0  0  0  0
  8  2  1  0  0  0  0
  8  7  1  1  0  0  0
  9 18  1  6  0  0  0
  9 13  1  0  0  0  0
  9 14  1  0  0  0  0
 10  8  1  0  0  0  0
 10 28  1  0  0  0  0
 12 25  1  0  0  0  0
 12 28  1  0  0  0  0
 13 26  1  0  0  0  0
 14  8  1  0  0  0  0
 15 23  1  0  0  0  0
 15 11  1  0  0  0  0
 16  1  1  0  0  0  0
 17 25  1  0  0  0  0
 19 15  1  0  0  0  0
 20  4  2  0  0  0  0
 20 16  1  0  0  0  0
 22 21  1  0  0  0  0
 23  6  1  0  0  0  0
 24 12  1  0  0  0  0
 25 19  1  0  0  0  0
 26 24  1  0  0  0  0
 26 10  1  0  0  0  0
 27  5  1  0  0  0  0
 28 16  1  0  0  0  0
M  END
>  <MODEL>
2

>  <REMARK>
 VINA RESULT:      -5.3      3.692      5.267
  Name = 
  0 active torsions:
  status: ('A' for Active; 'I' for Inactive)
                            x       y       z     vdW  Elec       q    Type
                         _______ _______ _______ _____ _____    ______ ____

>  <TORSDO>
F 0

$$$$
=
 OpenBabel11122412003D

 28 32  0  0  1  0  0  0  0  0999 V2000
  189.5110  173.9990  135.2460 C   0  0  2  0  0  3  0  0  0  0  0  0
  187.3350  178.2630  135.5320 O   0  0  0  0  0  1  0  0  0  0  0  0
  190.8800  176.0160  140.8610 O   0  0  0  0  0  0  0  0  0  0  0  0
  187.8400  172.3980  136.9770 C   0  0  0  0  0  3  0  0  0  0  0  0
  189.1610  177.2940  139.8920 N   0  0  0  0  0  0  0  0  0  0  0  0
  191.0450  174.7620  134.5960 S   0  0  0  0  0  0  0  0  0  0  0  0
  186.5290  176.2410  134.5940 C   0  0  0  0  0  1  0  0  0  0  0  0
  186.6140  177.1060  135.8380 C   0  0  1  0  0  0  0  0  0  0  0  0
  184.9740  177.7400  137.7350 C   0  0  2  0  0  3  0  0  0  0  0  0
  187.3140  176.3230  136.9710 C   0  0  2  0  0  3  0  0  0  0  0  0
  193.6550  176.7380  136.3990 C   0  0  0  0  0  1  0  0  0  0  0  0
  189.6400  176.8640  137.6000 C   0  0  1  0  0  3  0  0  0  0  0  0
  186.2650  178.1680  138.4200 C   0  0  0  0  0  2  0  0  0  0  0  0
  185.1830  177.5040  136.2330 C   0  0  0  0  0  2  0  0  0  0  0  0
  192.2990  176.1580  136.7430 C   0  0  2  0  0  3  0  0  0  0  0  0
  189.1300  174.5170  136.6410 C   0  0  2  0  0  3  0  0  0  0  0  0
  190.2760  176.4290  139.8360 C   0  0  0  0  0  0  0  0  0  0  0  0
  183.9560  178.7540  137.9310 N   0  0  0  0  0  1  0  0  0  0  0  0
  192.0180  176.3790  138.1610 N   0  0  0  0  0  2  0  0  0  0  0  0
  188.1700  173.6260  137.4020 C   0  0  0  0  0  3  0  0  0  0  0  0
  189.6550  172.4810  135.2560 C   0  0  0  0  0  2  0  0  0  0  0  0
  188.3280  171.8500  135.6630 C   0  0  0  0  0  2  0  0  0  0  0  0
  192.2700  174.3860  136.3130 S   0  0  0  0  0  0  0  0  0  0  0  0
  188.6980  177.6100  138.5540 C   0  0  1  0  0  3  0  0  0  0  0  0
  190.6270  176.0370  138.4560 C   0  0  2  0  0  3  0  0  0  0  0  0
  187.3030  177.0500  138.3260 C   0  0  2  0  0  3  0  0  0  0  0  0
  188.6530  177.9140  141.1040 C   0  0  0  0  0  1  0  0  0  0  0  0
  188.7770  176.0200  136.6510 C   0  0  1  0  0  3  0  0  0  0  0  0
  1 21  1  1  0  0  0
  1 16  1  0  0  0  0
  2  8  1  0  0  0  0
  4 20  2  0  0  0  0
  5 27  1  0  0  0  0
  6  1  1  0  0  0  0
  6 23  1  0  0  0  0
  8  7  1  6  0  0  0
  8 14  1  0  0  0  0
  8 10  1  0  0  0  0
  9 18  1  6  0  0  0
  9 13  1  0  0  0  0
 10 26  1  0  0  0  0
 11 15  1  0  0  0  0
 12 25  1  0  0  0  0
 12 24  1  0  0  0  0
 14  9  1  0  0  0  0
 15 19  1  0  0  0  0
 16 28  1  0  0  0  0
 16 20  1  0  0  0  0
 17  5  1  0  0  0  0
 17  3  2  0  0  0  0
 19 25  1  0  0  0  0
 21 22  1  0  0  0  0
 22  4  1  0  0  0  0
 23 15  1  0  0  0  0
 24  5  1  0  0  0  0
 25 17  1  0  0  0  0
 26 13  1  0  0  0  0
 26 24  1  0  0  0  0
 28 10  1  0  0  0  0
 28 12  1  0  0  0  0
M  END
>  <MODEL>
3

>  <REMARK>
 VINA RESULT:      -5.0      4.133      6.732
  Name = 
  0 active torsions:
  status: ('A' for Active; 'I' for Inactive)
                            x       y       z     vdW  Elec       q    Type
                         _______ _______ _______ _____ _____    ______ ____

>  <TORSDO>
F 0

$$$$
=
 OpenBabel11122412003D

 28 32  0  0  1  0  0  0  0  0999 V2000
  180.6510  176.9890  136.0700 C   0  0  2  0  0  3  0  0  0  0  0  0
  185.1340  175.7230  137.2110 O   0  0  0  0  0  1  0  0  0  0  0  0
  181.3220  178.8700  141.8570 O   0  0  0  0  0  0  0  0  0  0  0  0
  180.9190  179.8560  135.8330 C   0  0  0  0  0  3  0  0  0  0  0  0
  183.3920  178.3000  140.8990 N   0  0  0  0  0  0  0  0  0  0  0  0
  179.9870  175.3880  136.6660 S   0  0  0  0  0  0  0  0  0  0  0  0
  184.3200  176.6640  135.1930 C   0  0  0  0  0  1  0  0  0  0  0  0
  184.9110  176.9410  136.5640 C   0  0  1  0  0  0  0  0  0  0  0  0
  186.6620  178.6010  137.4940 C   0  0  2  0  0  3  0  0  0  0  0  0
  183.9360  177.8140  137.3840 C   0  0  2  0  0  3  0  0  0  0  0  0
  179.4850  174.1890  140.1700 C   0  0  0  0  0  1  0  0  0  0  0  0
  182.6140  176.8110  139.2140 C   0  0  1  0  0  3  0  0  0  0  0  0
  186.0350  178.1920  138.8200 C   0  0  0  0  0  2  0  0  0  0  0  0
  186.2600  177.6480  136.3600 C   0  0  0  0  0  2  0  0  0  0  0  0
  180.1210  175.3970  139.5140 C   0  0  2  0  0  3  0  0  0  0  0  0
  181.3630  177.7880  137.1720 C   0  0  2  0  0  3  0  0  0  0  0  0
  181.9850  178.2390  140.9910 C   0  0  0  0  0  0  0  0  0  0  0  0
  188.1070  178.6220  137.6220 N   0  0  0  0  0  1  0  0  0  0  0  0
  180.5610  176.3380  140.5440 N   0  0  0  0  0  2  0  0  0  0  0  0
  181.5220  179.2640  136.8730 C   0  0  0  0  0  3  0  0  0  0  0  0
  179.5280  177.8120  135.4470 C   0  0  0  0  0  2  0  0  0  0  0  0
  180.1120  179.0770  134.8290 C   0  0  0  0  0  2  0  0  0  0  0  0
  178.9310  176.1600  138.3620 S   0  0  0  0  0  0  0  0  0  0  0  0
  183.8670  177.4530  139.8220 C   0  0  1  0  0  3  0  0  0  0  0  0
  181.3800  177.3900  139.9450 C   0  0  2  0  0  3  0  0  0  0  0  0
  184.5110  178.2890  138.7290 C   0  0  2  0  0  3  0  0  0  0  0  0
  184.2560  178.9790  141.8510 C   0  0  0  0  0  1  0  0  0  0  0  0
  182.6310  177.0860  137.7030 C   0  0  1  0  0  3  0  0  0  0  0  0
  1 21  1  1  0  0  0
  1  6  1  0  0  0  0
  1 16  1  0  0  0  0
  4 20  2  0  0  0  0
  5 17  1  0  0  0  0
  5 27  1  0  0  0  0
  6 23  1  0  0  0  0
  8  7  1  6  0  0  0
  8  2  1  0  0  0  0
  8 10  1  0  0  0  0
  9 18  1  1  0  0  0
  9 13  1  0  0  0  0
 10 28  1  0  0  0  0
 10 26  1  0  0  0  0
 12 24  1  0  0  0  0
 12 25  1  0  0  0  0
 14  8  1  0  0  0  0
 14  9  1  0  0  0  0
 15 11  1  0  0  0  0
 15 19  1  0  0  0  0
 16 28  1  0  0  0  0
 17  3  2  0  0  0  0
 20 16  1  0  0  0  0
 22 21  1  0  0  0  0
 22  4  1  0  0  0  0
 23 15  1  0  0  0  0
 24  5  1  0  0  0  0
 25 19  1  0  0  0  0
 25 17  1  0  0  0  0
 26 13  1  0  0  0  0
 26 24  1  0  0  0  0
 28 12  1  0  0  0  0
M  END
>  <MODEL>
4

>  <REMARK>
 VINA RESULT:      -4.9      2.983      4.962
  Name = 
  0 active torsions:
  status: ('A' for Active; 'I' for Inactive)
                            x       y       z     vdW  Elec       q    Type
                         _______ _______ _______ _____ _____    ______ ____

>  <TORSDO>
F 0

$$$$
=
 OpenBabel11122412003D

 28 32  0  0  1  0  0  0  0  0999 V2000
  179.8850  180.1580  139.3110 C   0  0  2  0  0  3  0  0  0  0  0  0
  182.2470  176.2140  137.9480 O   0  0  0  0  0  1  0  0  0  0  0  0
  184.8940  180.1090  142.8310 O   0  0  0  0  0  0  0  0  0  0  0  0
  181.5450  182.2300  138.1710 C   0  0  0  0  0  3  0  0  0  0  0  0
  185.0800  178.5740  141.0600 N   0  0  0  0  0  0  0  0  0  0  0  0
  178.9680  179.2320  140.6000 S   0  0  0  0  0  0  0  0  0  0  0  0
  181.1170  177.8100  136.6080 C   0  0  0  0  0  1  0  0  0  0  0  0
  182.4360  177.4030  137.2400 C   0  0  1  0  0  0  0  0  0  0  0  0
  184.9060  177.4190  136.4750 C   0  0  2  0  0  3  0  0  0  0  0  0
  182.9260  178.5190  138.1880 C   0  0  2  0  0  3  0  0  0  0  0  0
  180.1590  177.9740  143.9110 C   0  0  0  0  0  1  0  0  0  0  0  0
  182.7630  178.2280  140.6350 C   0  0  1  0  0  3  0  0  0  0  0  0
  185.1490  177.2480  137.9680 C   0  0  0  0  0  2  0  0  0  0  0  0
  183.4420  177.1490  136.1050 C   0  0  0  0  0  2  0  0  0  0  0  0
  180.7960  178.6280  142.7030 C   0  0  2  0  0  3  0  0  0  0  0  0
  181.4060  180.1260  139.5200 C   0  0  2  0  0  3  0  0  0  0  0  0
  184.3490  179.3780  141.9610 C   0  0  0  0  0  0  0  0  0  0  0  0
  185.7690  176.5200  135.7320 N   0  0  0  0  0  1  0  0  0  0  0  0
  182.2100  178.8850  142.9740 N   0  0  0  0  0  2  0  0  0  0  0  0
  182.1640  181.2130  138.7860 C   0  0  0  0  0  3  0  0  0  0  0  0
  179.3790  181.5960  139.2520 C   0  0  0  0  0  2  0  0  0  0  0  0
  180.0450  182.3180  138.0860 C   0  0  0  0  0  2  0  0  0  0  0  0
  179.8940  180.1590  142.2950 S   0  0  0  0  0  0  0  0  0  0  0  0
  184.1790  177.8320  140.1970 C   0  0  1  0  0  3  0  0  0  0  0  0
  182.8900  179.2960  141.7470 C   0  0  2  0  0  3  0  0  0  0  0  0
  184.3370  178.2780  138.7530 C   0  0  2  0  0  3  0  0  0  0  0  0
  186.5200  178.3840  141.0990 C   0  0  0  0  0  1  0  0  0  0  0  0
  182.0030  178.7080  139.3910 C   0  0  1  0  0  3  0  0  0  0  0  0
  1 21  1  1  0  0  0
  1 16  1  0  0  0  0
  1  6  1  0  0  0  0
  4 20  2  0  0  0  0
  5 27  1  0  0  0  0
  5 17  1  0  0  0  0
  6 23  1  0  0  0  0
  8  7  1  6  0  0  0
  8  2  1  0  0  0  0
  8 10  1  0  0  0  0
  9 18  1  6  0  0  0
  9 13  1  0  0  0  0
 10 26  1  0  0  0  0
 10 28  1  0  0  0  0
 12 25  1  0  0  0  0
 13 26  1  0  0  0  0
 14  9  1  0  0  0  0
 14  8  1  0  0  0  0
 15 19  1  0  0  0  0
 15 11  1  0  0  0  0
 17  3  2  0  0  0  0
 20 16  1  0  0  0  0
 22  4  1  0  0  0  0
 22 21  1  0  0  0  0
 23 15  1  0  0  0  0
 24 12  1  0  0  0  0
 24  5  1  0  0  0  0
 25 17  1  0  0  0  0
 25 19  1  0  0  0  0
 26 24  1  0  0  0  0
 28 16  1  0  0  0  0
 28 12  1  0  0  0  0
M  END
>  <MODEL>
5

>  <REMARK>
 VINA RESULT:      -4.7      3.336      4.930
  Name = 
  0 active torsions:
  status: ('A' for Active; 'I' for Inactive)
                            x       y       z     vdW  Elec       q    Type
                         _______ _______ _______ _____ _____    ______ ____

>  <TORSDO>
F 0

$$$$
=
 OpenBabel11122412003D

 28 32  0  0  1  0  0  0  0  0999 V2000
  187.5720  177.2540  137.1720 C   0  0  2  0  0  3  0  0  0  0  0  0
  188.7850  172.6330  137.5980 O   0  0  0  0  0  1  0  0  0  0  0  0
  193.6020  177.3690  138.2230 O   0  0  0  0  0  0  0  0  0  0  0  0
  188.7060  177.8970  134.5940 C   0  0  0  0  0  3  0  0  0  0  0  0
  192.8700  175.1990  137.6900 N   0  0  0  0  0  0  0  0  0  0  0  0
  187.2540  177.3940  138.9720 S   0  0  0  0  0  0  0  0  0  0  0  0
  187.3010  173.6470  136.0510 C   0  0  0  0  0  1  0  0  0  0  0  0
  188.7290  173.2110  136.3280 C   0  0  1  0  0  0  0  0  0  0  0  0
  190.5990  172.0990  134.9310 C   0  0  2  0  0  3  0  0  0  0  0  0
  189.6700  174.4330  136.2530 C   0  0  2  0  0  3  0  0  0  0  0  0
  189.6900  177.5890  141.7990 C   0  0  0  0  0  1  0  0  0  0  0  0
  190.5860  175.4220  138.3240 C   0  0  1  0  0  3  0  0  0  0  0  0
  191.4650  172.6020  136.0780 C   0  0  0  0  0  2  0  0  0  0  0  0
  189.1070  172.1490  135.2830 C   0  0  0  0  0  2  0  0  0  0  0  0
  189.7730  177.3490  140.3070 C   0  0  2  0  0  3  0  0  0  0  0  0
  189.0220  176.8600  136.8500 C   0  0  2  0  0  3  0  0  0  0  0  0
  192.6750  176.5170  138.1570 C   0  0  0  0  0  0  0  0  0  0  0  0
  190.9750  170.7390  134.5940 N   0  0  0  0  0  1  0  0  0  0  0  0
  191.1760  177.2560  139.9030 N   0  0  0  0  0  2  0  0  0  0  0  0
  189.4550  177.1670  135.4320 C   0  0  0  0  0  3  0  0  0  0  0  0
  187.2010  178.5610  136.4800 C   0  0  0  0  0  2  0  0  0  0  0  0
  187.3340  178.3890  134.9710 C   0  0  0  0  0  2  0  0  0  0  0  0
  188.9010  178.6870  139.4260 S   0  0  0  0  0  0  0  0  0  0  0  0
  191.6280  174.4520  137.7520 C   0  0  1  0  0  3  0  0  0  0  0  0
  191.2710  176.7950  138.5190 C   0  0  2  0  0  3  0  0  0  0  0  0
  191.1620  174.0750  136.3550 C   0  0  2  0  0  3  0  0  0  0  0  0
  194.1600  174.6200  137.3560 C   0  0  0  0  0  1  0  0  0  0  0  0
  189.3920  175.4510  137.3590 C   0  0  1  0  0  3  0  0  0  0  0  0
  1 21  1  6  0  0  0
  1  6  1  0  0  0  0
  4 22  1  0  0  0  0
  4 20  2  0  0  0  0
  5 24  1  0  0  0  0
  5 17  1  0  0  0  0
  6 23  1  0  0  0  0
  8  7  1  6  0  0  0
  8  2  1  0  0  0  0
  9 18  1  1  0  0  0
  9 14  1  0  0  0  0
  9 13  1  0  0  0  0
 10  8  1  0  0  0  0
 10 26  1  0  0  0  0
 10 28  1  0  0  0  0
 12 25  1  0  0  0  0
 13 26  1  0  0  0  0
 14  8  1  0  0  0  0
 15 11  1  0  0  0  0
 16  1  1  0  0  0  0
 16 28  1  0  0  0  0
 17  3  2  0  0  0  0
 17 25  1  0  0  0  0
 19 15  1  0  0  0  0
 20 16  1  0  0  0  0
 22 21  1  0  0  0  0
 23 15  1  0  0  0  0
 24 12  1  0  0  0  0
 25 19  1  0  0  0  0
 26 24  1  0  0  0  0
 27  5  1  0  0  0  0
 28 12  1  0  0  0  0
M  END
>  <MODEL>
6

>  <REMARK>
 VINA RESULT:      -4.6      4.012      5.291
  Name = 
  0 active torsions:
  status: ('A' for Active; 'I' for Inactive)
                            x       y       z     vdW  Elec       q    Type
                         _______ _______ _______ _____ _____    ______ ____

>  <TORSDO>
F 0

$$$$
=
 OpenBabel11122412003D

 28 32  0  0  1  0  0  0  0  0999 V2000
  180.9240  179.1060  137.7810 C   0  0  2  0  0  3  0  0  0  0  0  0
  180.7310  174.4070  138.7190 O   0  0  0  0  0  1  0  0  0  0  0  0
  186.6020  177.1100  136.6590 O   0  0  0  0  0  0  0  0  0  0  0  0
  181.0910  179.0960  134.8960 C   0  0  0  0  0  3  0  0  0  0  0  0
  185.0940  175.3190  136.8730 N   0  0  0  0  0  0  0  0  0  0  0  0
  181.3990  179.4890  139.5090 S   0  0  0  0  0  0  0  0  0  0  0  0
  179.1460  175.7670  137.5980 C   0  0  0  0  0  1  0  0  0  0  0  0
  180.3600  174.8670  137.4530 C   0  0  1  0  0  0  0  0  0  0  0  0
  181.0930  173.0500  135.7660 C   0  0  2  0  0  3  0  0  0  0  0  0
  181.5210  175.6560  136.8090 C   0  0  2  0  0  3  0  0  0  0  0  0
  184.6820  179.0030  141.2270 C   0  0  0  0  0  1  0  0  0  0  0  0
  183.4310  176.4000  138.1870 C   0  0  1  0  0  3  0  0  0  0  0  0
  182.4480  173.2910  136.4170 C   0  0  0  0  0  2  0  0  0  0  0  0
  179.9530  173.6630  136.5890 C   0  0  0  0  0  2  0  0  0  0  0  0
  184.0940  178.6360  139.8810 C   0  0  2  0  0  3  0  0  0  0  0  0
  181.9350  178.1910  137.0720 C   0  0  2  0  0  3  0  0  0  0  0  0
  185.5120  176.6490  137.0920 C   0  0  0  0  0  0  0  0  0  0  0  0
  180.8700  171.6250  135.6130 N   0  0  0  0  0  1  0  0  0  0  0  0
  185.1240  178.0110  139.0510 N   0  0  0  0  0  2  0  0  0  0  0  0
  181.8470  178.2120  135.5600 C   0  0  0  0  0  3  0  0  0  0  0  0
  180.7300  180.4020  137.0000 C   0  0  0  0  0  2  0  0  0  0  0  0
  180.2000  180.0790  135.6080 C   0  0  0  0  0  2  0  0  0  0  0  0
  183.4010  180.1280  139.0930 S   0  0  0  0  0  0  0  0  0  0  0  0
  183.8130  175.0780  137.5090 C   0  0  1  0  0  3  0  0  0  0  0  0
  184.5210  177.4430  137.8460 C   0  0  2  0  0  3  0  0  0  0  0  0
  182.7450  174.7900  136.4670 C   0  0  2  0  0  3  0  0  0  0  0  0
  185.9050  174.2880  136.2460 C   0  0  0  0  0  1  0  0  0  0  0  0
  182.0250  176.7870  137.7060 C   0  0  1  0  0  3  0  0  0  0  0  0
  1 21  1  6  0  0  0
  1  6  1  0  0  0  0
  3 17  2  0  0  0  0
  4 20  2  0  0  0  0
  4 22  1  0  0  0  0
  5 17  1  0  0  0  0
  5 24  1  0  0  0  0
  8  7  1  1  0  0  0
  8  2  1  0  0  0  0
  9 18  1  1  0  0  0
  9 13  1  0  0  0  0
  9 14  1  0  0  0  0
 10  8  1  0  0  0  0
 10 28  1  0  0  0  0
 13 26  1  0  0  0  0
 14  8  1  0  0  0  0
 15 11  1  0  0  0  0
 16 28  1  0  0  0  0
 16  1  1  0  0  0  0
 17 25  1  0  0  0  0
 19 15  1  0  0  0  0
 20 16  1  0  0  0  0
 22 21  1  0  0  0  0
 23  6  1  0  0  0  0
 23 15  1  0  0  0  0
 24 12  1  0  0  0  0
 25 12  1  0  0  0  0
 25 19  1  0  0  0  0
 26 10  1  0  0  0  0
 26 24  1  0  0  0  0
 27  5  1  0  0  0  0
 28 12  1  0  0  0  0
M  END
>  <MODEL>
7

>  <REMARK>
 VINA RESULT:      -4.5      2.229      3.197
  Name = 
  0 active torsions:
  status: ('A' for Active; 'I' for Inactive)
                            x       y       z     vdW  Elec       q    Type
                         _______ _______ _______ _____ _____    ______ ____

>  <TORSDO>
F 0

$$$$
=
 OpenBabel11122412003D

 28 32  0  0  1  0  0  0  0  0999 V2000
  182.4030  178.5320  137.9600 C   0  0  2  0  0  3  0  0  0  0  0  0
  185.4160  176.0990  135.1310 O   0  0  0  0  0  1  0  0  0  0  0  0
  180.0930  172.8640  137.8170 O   0  0  0  0  0  0  0  0  0  0  0  0
  183.0730  177.4520  140.5550 C   0  0  0  0  0  3  0  0  0  0  0  0
  182.2770  172.9180  136.9480 N   0  0  0  0  0  0  0  0  0  0  0  0
  181.3510  178.9980  136.5330 S   0  0  0  0  0  0  0  0  0  0  0  0
  185.9130  177.6990  136.8090 C   0  0  0  0  0  1  0  0  0  0  0  0
  185.7090  176.2290  136.4910 C   0  0  1  0  0  0  0  0  0  0  0  0
  186.8680  174.0300  137.2070 C   0  0  2  0  0  3  0  0  0  0  0  0
  184.5510  175.6670  137.3440 C   0  0  2  0  0  3  0  0  0  0  0  0
  178.9310  176.9130  134.5940 C   0  0  0  0  0  1  0  0  0  0  0  0
  182.3560  175.2090  136.3090 C   0  0  1  0  0  3  0  0  0  0  0  0
  185.5900  173.4220  136.6460 C   0  0  0  0  0  2  0  0  0  0  0  0
  187.0290  175.4970  136.7860 C   0  0  0  0  0  2  0  0  0  0  0  0
  179.9470  176.6640  135.6880 C   0  0  2  0  0  3  0  0  0  0  0  0
  182.5020  177.0110  138.1570 C   0  0  2  0  0  3  0  0  0  0  0  0
  181.0400  173.5060  137.2900 C   0  0  0  0  0  0  0  0  0  0  0  0
  188.0140  173.2650  136.7540 N   0  0  0  0  0  1  0  0  0  0  0  0
  179.8730  175.2680  136.1170 N   0  0  0  0  0  2  0  0  0  0  0  0
  182.9580  176.5870  139.5380 C   0  0  0  0  0  3  0  0  0  0  0  0
  181.8840  179.2070  139.2250 C   0  0  0  0  0  2  0  0  0  0  0  0
  182.8440  178.9290  140.3760 C   0  0  0  0  0  2  0  0  0  0  0  0
  179.6470  177.8160  137.0690 S   0  0  0  0  0  0  0  0  0  0  0  0
  183.1550  173.9000  136.3400 C   0  0  1  0  0  3  0  0  0  0  0  0
  180.9960  174.9530  136.9990 C   0  0  2  0  0  3  0  0  0  0  0  0
  184.3700  174.1440  137.2200 C   0  0  2  0  0  3  0  0  0  0  0  0
  182.5700  171.4970  137.0330 C   0  0  0  0  0  1  0  0  0  0  0  0
  183.2050  176.2950  136.9840 C   0  0  1  0  0  3  0  0  0  0  0  0
  1 16  1  0  0  0  0
  1 21  1  1  0  0  0
  2  8  1  0  0  0  0
  5 27  1  0  0  0  0
  5 17  1  0  0  0  0
  6 23  1  0  0  0  0
  6  1  1  0  0  0  0
  8 14  1  0  0  0  0
  8  7  1  1  0  0  0
  8 10  1  0  0  0  0
  9 18  1  6  0  0  0
 11 15  1  0  0  0  0
 12 24  1  0  0  0  0
 12 28  1  0  0  0  0
 12 25  1  0  0  0  0
 13  9  1  0  0  0  0
 13 26  1  0  0  0  0
 14  9  1  0  0  0  0
 15 19  1  0  0  0  0
 15 23  1  0  0  0  0
 16 20  1  0  0  0  0
 17  3  2  0  0  0  0
 19 25  1  0  0  0  0
 20  4  2  0  0  0  0
 21 22  1  0  0  0  0
 22  4  1  0  0  0  0
 24  5  1  0  0  0  0
 24 26  1  0  0  0  0
 25 17  1  0  0  0  0
 26 10  1  0  0  0  0
 28 10  1  0  0  0  0
 28 16  1  0  0  0  0
M  END
>  <MODEL>
8

>  <REMARK>
 VINA RESULT:      -4.5      2.756      5.218
  Name = 
  0 active torsions:
  status: ('A' for Active; 'I' for Inactive)
                            x       y       z     vdW  Elec       q    Type
                         _______ _______ _______ _____ _____    ______ ____

>  <TORSDO>
F 0

$$$$
=
 OpenBabel11122412003D

 28 32  0  0  1  0  0  0  0  0999 V2000
  187.2580  177.3680  137.4900 C   0  0  2  0  0  3  0  0  0  0  0  0
  187.0910  172.5990  137.9710 O   0  0  0  0  0  1  0  0  0  0  0  0
  192.8620  175.4940  135.8910 O   0  0  0  0  0  0  0  0  0  0  0  0
  187.2790  177.6430  134.6140 C   0  0  0  0  0  3  0  0  0  0  0  0
  191.3590  173.6900  136.0040 N   0  0  0  0  0  0  0  0  0  0  0  0
  187.8210  177.5790  139.2210 S   0  0  0  0  0  0  0  0  0  0  0  0
  185.4580  174.0630  137.0700 C   0  0  0  0  0  1  0  0  0  0  0  0
  186.6580  173.1820  136.7760 C   0  0  1  0  0  0  0  0  0  0  0  0
  187.2970  171.5400  134.8830 C   0  0  2  0  0  3  0  0  0  0  0  0
  187.7890  174.0310  136.1550 C   0  0  2  0  0  3  0  0  0  0  0  0
  191.1840  176.9280  140.7150 C   0  0  0  0  0  1  0  0  0  0  0  0
  189.7690  174.6370  137.5010 C   0  0  1  0  0  3  0  0  0  0  0  0
  188.6840  171.7170  135.4860 C   0  0  0  0  0  2  0  0  0  0  0  0
  186.2020  172.0690  135.8190 C   0  0  0  0  0  2  0  0  0  0  0  0
  190.5270  176.6950  139.3710 C   0  0  2  0  0  3  0  0  0  0  0  0
  188.2270  176.5280  136.6450 C   0  0  2  0  0  3  0  0  0  0  0  0
  191.7940  174.9930  136.3320 C   0  0  0  0  0  0  0  0  0  0  0  0
  187.0600  170.1370  134.6020 N   0  0  0  0  0  1  0  0  0  0  0  0
  191.5110  176.1550  138.4320 N   0  0  0  0  0  2  0  0  0  0  0  0
  188.0630  176.6970  135.1490 C   0  0  0  0  0  3  0  0  0  0  0  0
  187.0310  178.7340  136.8520 C   0  0  0  0  0  2  0  0  0  0  0  0
  186.4290  178.5500  135.4630 C   0  0  0  0  0  2  0  0  0  0  0  0
  189.8020  178.2570  138.7700 S   0  0  0  0  0  0  0  0  0  0  0  0
  190.1110  173.3880  136.6780 C   0  0  1  0  0  3  0  0  0  0  0  0
  190.8460  175.7080  137.2090 C   0  0  2  0  0  3  0  0  0  0  0  0
  188.9900  173.2040  135.6680 C   0  0  2  0  0  3  0  0  0  0  0  0
  192.1330  172.7270  135.2390 C   0  0  0  0  0  1  0  0  0  0  0  0
  188.3430  175.0680  137.1320 C   0  0  1  0  0  3  0  0  0  0  0  0
  1 21  1  6  0  0  0
  1  6  1  0  0  0  0
  3 17  2  0  0  0  0
  4 20  2  0  0  0  0
  4 22  1  0  0  0  0
  5 17  1  0  0  0  0
  5 24  1  0  0  0  0
  8  7  1  1  0  0  0
  8  2  1  0  0  0  0
  9 18  1  1  0  0  0
  9 13  1  0  0  0  0
  9 14  1  0  0  0  0
 10  8  1  0  0  0  0
 10 28  1  0  0  0  0
 13 26  1  0  0  0  0
 14  8  1  0  0  0  0
 15 11  1  0  0  0  0
 16 28  1  0  0  0  0
 16  1  1  0  0  0  0
 17 25  1  0  0  0  0
 19 15  1  0  0  0  0
 20 16  1  0  0  0  0
 22 21  1  0  0  0  0
 23  6  1  0  0  0  0
 23 15  1  0  0  0  0
 24 12  1  0  0  0  0
 25 12  1  0  0  0  0
 25 19  1  0  0  0  0
 26 10  1  0  0  0  0
 26 24  1  0  0  0  0
 27  5  1  0  0  0  0
 28 12  1  0  0  0  0
M  END
>  <MODEL>
9

>  <REMARK>
 VINA RESULT:      -4.4      3.544      4.712
  Name = 
  0 active torsions:
  status: ('A' for Active; 'I' for Inactive)
                            x       y       z     vdW  Elec       q    Type
                         _______ _______ _______ _____ _____    ______ ____

>  <TORSDO>
F 0

$$$$
