=
 OpenBabel11122410373D

 32 37  0  0  1  0  0  0  0  0999 V2000
  181.8150  180.2280  139.3670 C   0  0  0  0  0  2  0  0  0  0  0  0
  186.0680  178.0160  142.0630 C   0  0  1  0  0  3  0  0  0  0  0  0
  185.1090  178.5690  146.9310 C   0  0  0  0  0  3  0  0  0  0  0  0
  186.3740  178.0620  147.2330 C   0  0  0  0  0  3  0  0  0  0  0  0
  188.5610  177.8020  141.3900 C   0  0  0  0  0  0  0  0  0  0  0  0
  189.9770  177.8280  141.8750 C   0  0  2  0  0  3  0  0  0  0  0  0
  184.2420  178.2850  140.3710 C   0  0  1  0  0  3  0  0  0  0  0  0
  183.7180  178.3110  142.8530 C   0  0  0  0  0  2  0  0  0  0  0  0
  191.5230  176.9760  143.2920 C   0  0  2  0  0  3  0  0  0  0  0  0
  181.8210  178.4920  141.2500 C   0  0  0  0  0  2  0  0  0  0  0  0
  184.7260  178.7440  145.6000 C   0  0  0  0  0  3  0  0  0  0  0  0
  185.1770  178.6820  143.1240 C   0  0  1  0  0  3  0  0  0  0  0  0
  185.5960  178.4020  144.5530 C   0  0  0  0  0  0  0  0  0  0  0  0
  187.8370  177.5180  143.7590 C   0  0  2  0  0  3  0  0  0  0  0  0
  192.1870  177.0380  141.9150 C   0  0  0  0  0  2  0  0  0  0  0  0
  183.3000  180.2090  138.9620 C   0  0  0  0  0  2  0  0  0  0  0  0
  183.3000  178.8230  141.4760 C   0  0  2  0  0  3  0  0  0  0  0  0
  191.0740  177.3960  140.9410 C   0  0  0  0  0  2  0  0  0  0  0  0
  183.9250  178.8090  138.9630 C   0  0  0  0  0  2  0  0  0  0  0  0
  181.2800  178.8790  139.8710 C   0  0  1  0  0  3  0  0  0  0  0  0
  187.2610  177.7440  146.2020 C   0  0  0  0  0  3  0  0  0  0  0  0
  186.8990  177.9430  144.8600 C   0  0  0  0  0  0  0  0  0  0  0  0
  189.3360  177.6090  144.1240 C   0  0  0  0  0  2  0  0  0  0  0  0
  185.6980  178.6120  140.7050 C   0  0  0  0  0  2  0  0  0  0  0  0
  188.2670  177.4550  140.2560 O   0  0  0  0  0  0  0  0  0  0  0  0
  191.9250  175.6920  143.9920 C   0  0  0  0  0  1  0  0  0  0  0  0
  187.5400  178.2370  142.4220 C   0  0  2  0  0  3  0  0  0  0  0  0
  190.0930  176.9800  143.0430 N   0  0  1  0  0  0  0  0  0  0  0  0
  179.7620  178.8910  139.9170 C   0  0  0  0  0  2  0  0  0  0  0  0
  179.2250  177.5100  140.0780 C   0  0  0  0  0  0  0  0  0  0  0  0
  178.9330  177.0220  141.3450 O   0  0  0  0  0  1  0  0  0  0  0  0
  179.0090  176.7960  139.0640 O   0  0  0  0  0  0  0  0  0  0  0  0
  1 20  1  0  0  0  0
  2 24  1  6  0  0  0
  2 27  1  0  0  0  0
  2 12  1  0  0  0  0
  3  4  1  0  0  0  0
  5  6  1  0  0  0  0
  6 18  1  6  0  0  0
  6 28  1  0  0  0  0
  7 19  1  6  0  0  0
  7 24  1  0  0  0  0
  7 17  1  0  0  0  0
  9 26  1  6  0  0  0
 11  3  2  0  0  0  0
 12  8  1  1  0  0  0
 12 13  1  0  0  0  0
 13 22  2  0  0  0  0
 13 11  1  0  0  0  0
 14 23  1  1  0  0  0
 14 22  1  0  0  0  0
 15  9  1  0  0  0  0
 16 19  1  0  0  0  0
 16  1  1  0  0  0  0
 17 10  1  6  0  0  0
 17  8  1  0  0  0  0
 18 15  1  0  0  0  0
 20 29  1  1  0  0  0
 20 10  1  0  0  0  0
 21  4  2  0  0  0  0
 22 21  1  0  0  0  0
 25  5  2  0  0  0  0
 27  5  1  6  0  0  0
 27 14  1  0  0  0  0
 28  9  1  0  0  0  0
 28 23  1  1  0  0  0
 29 30  1  0  0  0  0
 30 31  1  0  0  0  0
 32 30  2  0  0  0  0
M  END
>  <MODEL>
1

>  <REMARK>
 VINA RESULT:     -10.2      0.000      0.000
  Name = 
  2 active torsions:
  status: ('A' for Active; 'I' for Inactive)
    1  A    between atoms: C_20  and  C_29
    2  A    between atoms: C_29  and  C_30
                            x       y       z     vdW  Elec       q    Type
                         _______ _______ _______ _____ _____    ______ ____

>  <TORSDO>
F 2

$$$$
=
 OpenBabel11122410373D

 32 37  0  0  1  0  0  0  0  0999 V2000
  189.2660  178.3260  147.8060 C   0  0  0  0  0  2  0  0  0  0  0  0
  185.5260  178.0530  143.7830 C   0  0  1  0  0  3  0  0  0  0  0  0
  188.0390  178.3810  139.4810 C   0  0  0  0  0  3  0  0  0  0  0  0
  186.8300  178.4180  138.7840 C   0  0  0  0  0  3  0  0  0  0  0  0
  183.0450  178.7990  143.7370 C   0  0  0  0  0  0  0  0  0  0  0  0
  181.9520  179.3930  142.9060 C   0  0  2  0  0  3  0  0  0  0  0  0
  186.7260  177.5230  145.9160 C   0  0  1  0  0  3  0  0  0  0  0  0
  187.9450  177.4410  143.6930 C   0  0  0  0  0  2  0  0  0  0  0  0
  180.7060  179.2670  141.0190 C   0  0  2  0  0  3  0  0  0  0  0  0
  189.2020  176.8060  145.7470 C   0  0  0  0  0  2  0  0  0  0  0  0
  188.0390  178.3400  140.8770 C   0  0  0  0  0  3  0  0  0  0  0  0
  186.8730  178.3600  143.1080 C   0  0  1  0  0  3  0  0  0  0  0  0
  186.8320  178.3220  141.5940 C   0  0  0  0  0  0  0  0  0  0  0  0
  184.2960  178.3500  141.6260 C   0  0  2  0  0  3  0  0  0  0  0  0
  179.7270  179.5280  142.1660 C   0  0  0  0  0  2  0  0  0  0  0  0
  187.8270  178.8710  147.7990 C   0  0  0  0  0  2  0  0  0  0  0  0
  188.0850  177.6950  145.1930 C   0  0  2  0  0  3  0  0  0  0  0  0
  180.5450  179.3860  143.4410 C   0  0  0  0  0  2  0  0  0  0  0  0
  186.7710  177.8260  147.4210 C   0  0  0  0  0  2  0  0  0  0  0  0
  189.4040  176.8960  147.2620 C   0  0  1  0  0  3  0  0  0  0  0  0
  185.6220  178.4300  139.4840 C   0  0  0  0  0  3  0  0  0  0  0  0
  185.6090  178.4190  140.8880 C   0  0  0  0  0  0  0  0  0  0  0  0
  183.1160  179.0310  140.8990 C   0  0  0  0  0  2  0  0  0  0  0  0
  185.6590  178.4030  145.2650 C   0  0  0  0  0  2  0  0  0  0  0  0
  182.8390  178.3210  144.8410 O   0  0  0  0  0  0  0  0  0  0  0  0
  180.1000  178.2700  140.0520 C   0  0  0  0  0  1  0  0  0  0  0  0
  184.4150  178.8430  143.0870 C   0  0  2  0  0  3  0  0  0  0  0  0
  181.8950  178.7040  141.6340 N   0  0  1  0  0  0  0  0  0  0  0  0
  190.7630  176.3190  147.6190 C   0  0  0  0  0  2  0  0  0  0  0  0
  191.6680  176.3230  146.4360 C   0  0  0  0  0  0  0  0  0  0  0  0
  191.8820  177.4990  145.7290 O   0  0  0  0  0  0  0  0  0  0  0  0
  192.2630  175.2680  146.0940 O   0  0  0  0  0  1  0  0  0  0  0  0
  2 24  1  1  0  0  0
  3 11  1  0  0  0  0
  4  3  2  0  0  0  0
  4 21  1  0  0  0  0
  5 25  2  0  0  0  0
  6 18  1  1  0  0  0
  6  5  1  0  0  0  0
  7 24  1  6  0  0  0
  7 19  1  0  0  0  0
  9 26  1  6  0  0  0
  9 28  1  0  0  0  0
  9 15  1  0  0  0  0
 10 20  1  0  0  0  0
 11 13  2  0  0  0  0
 12  8  1  1  0  0  0
 12  2  1  0  0  0  0
 13 12  1  0  0  0  0
 14 23  1  6  0  0  0
 14 27  1  0  0  0  0
 15 18  1  0  0  0  0
 16  1  1  0  0  0  0
 17  8  1  6  0  0  0
 17 10  1  0  0  0  0
 17  7  1  0  0  0  0
 19 16  1  0  0  0  0
 20 29  1  6  0  0  0
 20  1  1  0  0  0  0
 21 22  2  0  0  0  0
 22 13  1  0  0  0  0
 22 14  1  0  0  0  0
 27  5  1  1  0  0  0
 27  2  1  0  0  0  0
 28 23  1  6  0  0  0
 28  6  1  0  0  0  0
 30 29  1  0  0  0  0
 31 30  2  0  0  0  0
 32 30  1  0  0  0  0
M  END
>  <MODEL>
2

>  <REMARK>
 VINA RESULT:     -10.1      2.961      8.942
  Name = 
  2 active torsions:
  status: ('A' for Active; 'I' for Inactive)
    1  A    between atoms: C_20  and  C_29
    2  A    between atoms: C_29  and  C_30
                            x       y       z     vdW  Elec       q    Type
                         _______ _______ _______ _____ _____    ______ ____

>  <TORSDO>
F 2

$$$$
=
 OpenBabel11122410373D

 32 37  0  0  1  0  0  0  0  0999 V2000
  190.9670  175.5680  137.4150 C   0  0  0  0  0  2  0  0  0  0  0  0
  189.0970  177.4400  142.2360 C   0  0  1  0  0  3  0  0  0  0  0  0
  192.2120  175.7170  145.7370 C   0  0  0  0  0  3  0  0  0  0  0  0
  191.3810  176.2420  146.7270 C   0  0  0  0  0  3  0  0  0  0  0  0
  186.6870  178.0020  143.0050 C   0  0  0  0  0  0  0  0  0  0  0  0
  185.7190  177.9790  144.1460 C   0  0  2  0  0  3  0  0  0  0  0  0
  189.7620  177.4190  139.8230 C   0  0  1  0  0  3  0  0  0  0  0  0
  191.4280  176.7860  141.6290 C   0  0  0  0  0  2  0  0  0  0  0  0
  185.2630  178.6070  146.2730 C   0  0  2  0  0  3  0  0  0  0  0  0
  192.2140  176.8240  139.2660 C   0  0  0  0  0  2  0  0  0  0  0  0
  191.8480  175.8210  144.3930 C   0  0  0  0  0  3  0  0  0  0  0  0
  190.2540  176.4810  142.5590 C   0  0  1  0  0  3  0  0  0  0  0  0
  190.6560  176.4610  144.0200 C   0  0  0  0  0  0  0  0  0  0  0  0
  188.5240  177.6790  144.6590 C   0  0  2  0  0  3  0  0  0  0  0  0
  184.0080  178.9140  145.4540 C   0  0  0  0  0  2  0  0  0  0  0  0
  189.5090  175.7980  137.8530 C   0  0  0  0  0  2  0  0  0  0  0  0
  191.0080  176.5700  140.1760 C   0  0  2  0  0  3  0  0  0  0  0  0
  184.4060  178.7000  144.0010 C   0  0  0  0  0  2  0  0  0  0  0  0
  189.2390  177.2060  138.3950 C   0  0  0  0  0  2  0  0  0  0  0  0
  191.9210  176.7200  137.7670 C   0  0  1  0  0  3  0  0  0  0  0  0
  190.1780  176.8560  146.3740 C   0  0  0  0  0  3  0  0  0  0  0  0
  189.7860  176.9410  145.0280 C   0  0  0  0  0  0  0  0  0  0  0  0
  187.4140  177.6280  145.7330 C   0  0  0  0  0  2  0  0  0  0  0  0
  188.6300  177.1430  140.8120 C   0  0  0  0  0  2  0  0  0  0  0  0
  186.4410  178.5730  141.9530 O   0  0  0  0  0  0  0  0  0  0  0  0
  185.5070  179.7250  147.2680 C   0  0  0  0  0  1  0  0  0  0  0  0
  187.9830  177.2620  143.2720 C   0  0  2  0  0  3  0  0  0  0  0  0
  186.3550  178.5450  145.3170 N   0  0  1  0  0  0  0  0  0  0  0  0
  193.2310  176.5760  137.0110 C   0  0  0  0  0  2  0  0  0  0  0  0
  193.9430  175.3310  137.4180 C   0  0  0  0  0  0  0  0  0  0  0  0
  193.7040  174.1420  136.7420 O   0  0  0  0  0  0  0  0  0  0  0  0
  194.7830  175.3630  138.3550 O   0  0  0  0  0  1  0  0  0  0  0  0
  1 20  1  0  0  0  0
  1 16  1  0  0  0  0
  2 24  1  6  0  0  0
  2 12  1  0  0  0  0
  2 27  1  0  0  0  0
  3  4  1  0  0  0  0
  5  6  1  0  0  0  0
  6 18  1  6  0  0  0
  6 28  1  0  0  0  0
  7 19  1  6  0  0  0
  7 17  1  0  0  0  0
  7 24  1  0  0  0  0
  9 26  1  1  0  0  0
 11  3  2  0  0  0  0
 12  8  1  6  0  0  0
 12 13  1  0  0  0  0
 13 11  1  0  0  0  0
 13 22  2  0  0  0  0
 14 22  1  0  0  0  0
 14 23  1  1  0  0  0
 15  9  1  0  0  0  0
 16 19  1  0  0  0  0
 17 10  1  6  0  0  0
 17  8  1  0  0  0  0
 18 15  1  0  0  0  0
 20 29  1  6  0  0  0
 20 10  1  0  0  0  0
 21  4  2  0  0  0  0
 22 21  1  0  0  0  0
 25  5  2  0  0  0  0
 27  5  1  6  0  0  0
 27 14  1  0  0  0  0
 28 23  1  1  0  0  0
 28  9  1  0  0  0  0
 29 30  1  0  0  0  0
 30 32  1  0  0  0  0
 31 30  2  0  0  0  0
M  END
>  <MODEL>
3

>  <REMARK>
 VINA RESULT:      -9.7      3.565      8.091
  Name = 
  2 active torsions:
  status: ('A' for Active; 'I' for Inactive)
    1  A    between atoms: C_20  and  C_29
    2  A    between atoms: C_29  and  C_30
                            x       y       z     vdW  Elec       q    Type
                         _______ _______ _______ _____ _____    ______ ____

>  <TORSDO>
F 2

$$$$
=
 OpenBabel11122410373D

 32 37  0  0  1  0  0  0  0  0999 V2000
  187.9490  179.0800  136.5330 C   0  0  0  0  0  2  0  0  0  0  0  0
  187.7790  177.6920  141.8520 C   0  0  1  0  0  3  0  0  0  0  0  0
  183.4260  179.3780  143.6230 C   0  0  0  0  0  3  0  0  0  0  0  0
  183.8060  178.9910  144.9090 C   0  0  0  0  0  3  0  0  0  0  0  0
  189.6910  177.3850  143.5740 C   0  0  0  0  0  0  0  0  0  0  0  0
  190.1060  177.5640  145.0010 C   0  0  2  0  0  3  0  0  0  0  0  0
  188.1560  177.4990  139.3840 C   0  0  1  0  0  3  0  0  0  0  0  0
  185.8690  178.1090  140.2990 C   0  0  0  0  0  2  0  0  0  0  0  0
  189.6850  177.1180  147.1800 C   0  0  2  0  0  3  0  0  0  0  0  0
  186.1180  177.8500  137.8350 C   0  0  0  0  0  2  0  0  0  0  0  0
  184.3110  179.2170  142.5560 C   0  0  0  0  0  3  0  0  0  0  0  0
  186.5450  178.5710  141.5900 C   0  0  1  0  0  3  0  0  0  0  0  0
  185.5820  178.6550  142.7570 C   0  0  0  0  0  0  0  0  0  0  0  0
  187.3240  177.6630  144.3110 C   0  0  2  0  0  3  0  0  0  0  0  0
  191.1780  176.8630  146.9680 C   0  0  0  0  0  2  0  0  0  0  0  0
  189.1110  179.0020  137.5390 C   0  0  0  0  0  2  0  0  0  0  0  0
  186.8340  178.2630  139.1240 C   0  0  2  0  0  3  0  0  0  0  0  0
  191.3980  176.9470  145.4650 C   0  0  0  0  0  2  0  0  0  0  0  0
  189.2040  177.6600  138.2740 C   0  0  0  0  0  2  0  0  0  0  0  0
  186.9920  177.8790  136.5770 C   0  0  1  0  0  3  0  0  0  0  0  0
  185.0770  178.4570  145.1300 C   0  0  0  0  0  3  0  0  0  0  0  0
  185.9870  178.3160  144.0700 C   0  0  0  0  0  0  0  0  0  0  0  0
  187.8960  177.8770  145.7300 C   0  0  0  0  0  2  0  0  0  0  0  0
  188.7710  177.9330  140.7140 C   0  0  0  0  0  2  0  0  0  0  0  0
  190.3720  176.7680  142.7690 O   0  0  0  0  0  0  0  0  0  0  0  0
  189.1120  176.0520  148.0930 C   0  0  0  0  0  1  0  0  0  0  0  0
  188.3640  178.0310  143.2260 C   0  0  2  0  0  3  0  0  0  0  0  0
  189.0770  177.0260  145.8650 N   0  0  1  0  0  0  0  0  0  0  0  0
  186.0980  177.8630  135.3490 C   0  0  0  0  0  2  0  0  0  0  0  0
  185.2580  176.6330  135.3210 C   0  0  0  0  0  0  0  0  0  0  0  0
  183.8740  176.7360  135.3680 O   0  0  0  0  0  1  0  0  0  0  0  0
  185.8000  175.5010  135.2240 O   0  0  0  0  0  0  0  0  0  0  0  0
  1 20  1  0  0  0  0
  1 16  1  0  0  0  0
  2 24  1  6  0  0  0
  2 27  1  0  0  0  0
  3  4  1  0  0  0  0
  4 21  2  0  0  0  0
  5  6  1  0  0  0  0
  6 18  1  6  0  0  0
  6 28  1  0  0  0  0
  7 19  1  6  0  0  0
  7 24  1  0  0  0  0
  9 26  1  1  0  0  0
 11 13  1  0  0  0  0
 11  3  2  0  0  0  0
 12  8  1  6  0  0  0
 12  2  1  0  0  0  0
 12 13  1  0  0  0  0
 13 22  2  0  0  0  0
 14 23  1  1  0  0  0
 15  9  1  0  0  0  0
 16 19  1  0  0  0  0
 17 10  1  6  0  0  0
 17  7  1  0  0  0  0
 17  8  1  0  0  0  0
 18 15  1  0  0  0  0
 20 29  1  6  0  0  0
 20 10  1  0  0  0  0
 22 14  1  0  0  0  0
 22 21  1  0  0  0  0
 25  5  2  0  0  0  0
 27  5  1  1  0  0  0
 27 14  1  0  0  0  0
 28 23  1  1  0  0  0
 28  9  1  0  0  0  0
 30 29  1  0  0  0  0
 30 31  1  0  0  0  0
 32 30  2  0  0  0  0
M  END
>  <MODEL>
4

>  <REMARK>
 VINA RESULT:      -9.5      2.985      4.607
  Name = 
  2 active torsions:
  status: ('A' for Active; 'I' for Inactive)
    1  A    between atoms: C_20  and  C_29
    2  A    between atoms: C_29  and  C_30
                            x       y       z     vdW  Elec       q    Type
                         _______ _______ _______ _____ _____    ______ ____

>  <TORSDO>
F 2

$$$$
=
 OpenBabel11122410373D

 32 37  0  0  1  0  0  0  0  0999 V2000
  186.9720  178.8160  147.3450 C   0  0  0  0  0  2  0  0  0  0  0  0
  185.1400  178.2420  142.1920 C   0  0  1  0  0  3  0  0  0  0  0  0
  189.1730  178.1760  139.2480 C   0  0  0  0  0  3  0  0  0  0  0  0
  188.3460  178.1670  138.1240 C   0  0  0  0  0  3  0  0  0  0  0  0
  182.9200  179.0080  141.0980 C   0  0  0  0  0  0  0  0  0  0  0  0
  182.2760  179.5420  139.8570 C   0  0  2  0  0  3  0  0  0  0  0  0
  185.3640  177.8820  144.6590 C   0  0  1  0  0  3  0  0  0  0  0  0
  187.3650  177.5980  143.1250 C   0  0  0  0  0  2  0  0  0  0  0  0
  181.8820  179.2690  137.6440 C   0  0  2  0  0  3  0  0  0  0  0  0
  187.6680  177.1270  145.5510 C   0  0  0  0  0  2  0  0  0  0  0  0
  188.6150  178.2540  140.5250 C   0  0  0  0  0  3  0  0  0  0  0  0
  186.6570  178.4770  142.0930 C   0  0  1  0  0  3  0  0  0  0  0  0
  187.2220  178.3100  140.6970 C   0  0  0  0  0  0  0  0  0  0  0  0
  184.8880  178.3680  139.7060 C   0  0  2  0  0  3  0  0  0  0  0  0
  180.5400  179.6360  138.2790 C   0  0  0  0  0  2  0  0  0  0  0  0
  185.6800  179.3740  146.7210 C   0  0  0  0  0  2  0  0  0  0  0  0
  186.9050  177.9770  144.5320 C   0  0  2  0  0  3  0  0  0  0  0  0
  180.7740  179.5940  139.7820 C   0  0  0  0  0  2  0  0  0  0  0  0
  184.8180  178.3120  146.0280 C   0  0  0  0  0  2  0  0  0  0  0  0
  187.2520  177.3440  147.0090 C   0  0  1  0  0  3  0  0  0  0  0  0
  186.9610  178.2520  138.2780 C   0  0  0  0  0  3  0  0  0  0  0  0
  186.3880  178.3600  139.5550 C   0  0  0  0  0  0  0  0  0  0  0  0
  184.1270  178.9980  138.5180 C   0  0  0  0  0  2  0  0  0  0  0  0
  184.6860  178.7150  143.5710 C   0  0  0  0  0  2  0  0  0  0  0  0
  182.2680  178.6280  142.0590 O   0  0  0  0  0  0  0  0  0  0  0  0
  181.6690  178.1990  136.5900 C   0  0  0  0  0  1  0  0  0  0  0  0
  184.4350  178.9820  141.0520 C   0  0  2  0  0  3  0  0  0  0  0  0
  182.7010  178.7470  138.7230 N   0  0  1  0  0  0  0  0  0  0  0  0
  188.3290  176.7840  147.9230 C   0  0  0  0  0  2  0  0  0  0  0  0
  189.6120  177.5200  147.7430 C   0  0  0  0  0  0  0  0  0  0  0  0
  190.5040  177.1300  146.7540 O   0  0  0  0  0  0  0  0  0  0  0  0
  189.8750  178.5150  148.4690 O   0  0  0  0  0  1  0  0  0  0  0  0
  2 24  1  1  0  0  0
  3 11  1  0  0  0  0
  4 21  1  0  0  0  0
  4  3  2  0  0  0  0
  5 25  2  0  0  0  0
  6 18  1  1  0  0  0
  6  5  1  0  0  0  0
  7 24  1  6  0  0  0
  7 19  1  0  0  0  0
  9 26  1  6  0  0  0
  9 15  1  0  0  0  0
  9 28  1  0  0  0  0
 10 20  1  0  0  0  0
 11 13  2  0  0  0  0
 12  2  1  0  0  0  0
 12  8  1  1  0  0  0
 13 12  1  0  0  0  0
 14 23  1  6  0  0  0
 14 27  1  0  0  0  0
 15 18  1  0  0  0  0
 16  1  1  0  0  0  0
 17  8  1  6  0  0  0
 17  7  1  0  0  0  0
 17 10  1  0  0  0  0
 19 16  1  0  0  0  0
 20  1  1  0  0  0  0
 20 29  1  1  0  0  0
 21 22  2  0  0  0  0
 22 14  1  0  0  0  0
 22 13  1  0  0  0  0
 27  5  1  1  0  0  0
 27  2  1  0  0  0  0
 28 23  1  6  0  0  0
 28  6  1  0  0  0  0
 30 29  1  0  0  0  0
 30 32  1  0  0  0  0
 31 30  2  0  0  0  0
M  END
>  <MODEL>
5

>  <REMARK>
 VINA RESULT:      -9.4      2.960      8.472
  Name = 
  2 active torsions:
  status: ('A' for Active; 'I' for Inactive)
    1  A    between atoms: C_20  and  C_29
    2  A    between atoms: C_29  and  C_30
                            x       y       z     vdW  Elec       q    Type
                         _______ _______ _______ _____ _____    ______ ____

>  <TORSDO>
F 2

$$$$
=
 OpenBabel11122410373D

 32 37  0  0  1  0  0  0  0  0999 V2000
  191.2900  177.6620  148.0850 C   0  0  0  0  0  2  0  0  0  0  0  0
  187.3650  177.6030  144.2340 C   0  0  1  0  0  3  0  0  0  0  0  0
  189.6740  178.1530  139.8410 C   0  0  0  0  0  3  0  0  0  0  0  0
  188.4350  178.2280  139.2050 C   0  0  0  0  0  3  0  0  0  0  0  0
  184.8870  178.3520  144.3420 C   0  0  0  0  0  0  0  0  0  0  0  0
  183.7570  178.9910  143.5960 C   0  0  2  0  0  3  0  0  0  0  0  0
  188.6610  176.9610  146.2770 C   0  0  1  0  0  3  0  0  0  0  0  0
  189.7750  176.9940  143.9980 C   0  0  0  0  0  2  0  0  0  0  0  0
  182.4240  178.9640  141.7660 C   0  0  2  0  0  3  0  0  0  0  0  0
  191.1240  176.2510  145.9550 C   0  0  0  0  0  2  0  0  0  0  0  0
  189.7400  178.0390  141.2310 C   0  0  0  0  0  3  0  0  0  0  0  0
  188.6790  177.9440  143.5130 C   0  0  1  0  0  3  0  0  0  0  0  0
  188.5680  177.9850  142.0020 C   0  0  0  0  0  0  0  0  0  0  0  0
  186.0360  178.0140  142.1550 C   0  0  2  0  0  3  0  0  0  0  0  0
  181.5010  179.1650  142.9690 C   0  0  0  0  0  2  0  0  0  0  0  0
  189.8530  178.2070  148.1740 C   0  0  0  0  0  2  0  0  0  0  0  0
  189.9850  177.1690  145.5010 C   0  0  2  0  0  3  0  0  0  0  0  0
  182.3780  178.9560  144.1960 C   0  0  0  0  0  2  0  0  0  0  0  0
  188.7770  177.1840  147.7910 C   0  0  0  0  0  2  0  0  0  0  0  0
  191.3970  176.2620  147.4610 C   0  0  1  0  0  3  0  0  0  0  0  0
  187.2610  178.2050  139.9600 C   0  0  0  0  0  3  0  0  0  0  0  0
  187.3130  178.1200  141.3610 C   0  0  0  0  0  0  0  0  0  0  0  0
  184.8250  178.7330  141.5200 C   0  0  0  0  0  2  0  0  0  0  0  0
  187.5680  177.8750  145.7230 C   0  0  0  0  0  2  0  0  0  0  0  0
  184.7300  177.8170  145.4290 O   0  0  0  0  0  0  0  0  0  0  0  0
  181.7700  178.0190  140.7770 C   0  0  0  0  0  1  0  0  0  0  0  0
  186.2250  178.4290  143.6320 C   0  0  2  0  0  3  0  0  0  0  0  0
  183.6390  178.3690  142.2930 N   0  0  1  0  0  0  0  0  0  0  0  0
  192.7690  175.6650  147.7240 C   0  0  0  0  0  2  0  0  0  0  0  0
  193.1960  175.9180  149.1290 C   0  0  0  0  0  0  0  0  0  0  0  0
  193.8030  177.1210  149.4660 O   0  0  0  0  0  0  0  0  0  0  0  0
  192.9810  175.0530  150.0180 O   0  0  0  0  0  1  0  0  0  0  0  0
  1 16  1  0  0  0  0
  2 24  1  1  0  0  0
  3 11  1  0  0  0  0
  4  3  2  0  0  0  0
  4 21  1  0  0  0  0
  5 25  2  0  0  0  0
  6 18  1  1  0  0  0
  6  5  1  0  0  0  0
  7 24  1  6  0  0  0
  7 19  1  0  0  0  0
  9 26  1  6  0  0  0
  9 28  1  0  0  0  0
  9 15  1  0  0  0  0
 10 20  1  0  0  0  0
 11 13  2  0  0  0  0
 12  8  1  6  0  0  0
 12  2  1  0  0  0  0
 13 12  1  0  0  0  0
 14 23  1  6  0  0  0
 14 27  1  0  0  0  0
 15 18  1  0  0  0  0
 17  8  1  6  0  0  0
 17 10  1  0  0  0  0
 17  7  1  0  0  0  0
 19 16  1  0  0  0  0
 20 29  1  6  0  0  0
 20  1  1  0  0  0  0
 21 22  2  0  0  0  0
 22 13  1  0  0  0  0
 22 14  1  0  0  0  0
 27  2  1  0  0  0  0
 27  5  1  1  0  0  0
 28 23  1  6  0  0  0
 28  6  1  0  0  0  0
 29 30  1  0  0  0  0
 30 31  2  0  0  0  0
 30 32  1  0  0  0  0
M  END
>  <MODEL>
6

>  <REMARK>
 VINA RESULT:      -9.2      3.760      9.483
  Name = 
  2 active torsions:
  status: ('A' for Active; 'I' for Inactive)
    1  A    between atoms: C_20  and  C_29
    2  A    between atoms: C_29  and  C_30
                            x       y       z     vdW  Elec       q    Type
                         _______ _______ _______ _____ _____    ______ ____

>  <TORSDO>
F 2

$$$$
=
 OpenBabel11122410373D

 32 37  0  0  1  0  0  0  0  0999 V2000
  188.7940  178.3150  147.2400 C   0  0  0  0  0  2  0  0  0  0  0  0
  185.8220  177.9770  142.6260 C   0  0  1  0  0  3  0  0  0  0  0  0
  189.0320  178.4410  138.8300 C   0  0  0  0  0  3  0  0  0  0  0  0
  187.9620  178.4500  137.9330 C   0  0  0  0  0  3  0  0  0  0  0  0
  183.3630  178.6450  142.1530 C   0  0  0  0  0  0  0  0  0  0  0  0
  182.4110  179.2160  141.1490 C   0  0  2  0  0  3  0  0  0  0  0  0
  186.6490  177.4570  144.9310 C   0  0  1  0  0  3  0  0  0  0  0  0
  188.2390  177.4430  142.9540 C   0  0  0  0  0  2  0  0  0  0  0  0
  181.5180  179.0750  139.0740 C   0  0  2  0  0  3  0  0  0  0  0  0
  189.1400  176.8210  145.1900 C   0  0  0  0  0  2  0  0  0  0  0  0
  188.7910  178.3810  140.2030 C   0  0  0  0  0  3  0  0  0  0  0  0
  187.2540  178.3360  142.1980 C   0  0  1  0  0  3  0  0  0  0  0  0
  187.4790  178.3160  140.6990 C   0  0  0  0  0  0  0  0  0  0  0  0
  184.9760  178.2640  140.2900 C   0  0  2  0  0  3  0  0  0  0  0  0
  180.3460  179.2900  140.0350 C   0  0  0  0  0  2  0  0  0  0  0  0
  187.3610  178.8140  146.9870 C   0  0  0  0  0  2  0  0  0  0  0  0
  188.1070  177.6810  144.4570 C   0  0  2  0  0  3  0  0  0  0  0  0
  180.9350  179.1570  141.4320 C   0  0  0  0  0  2  0  0  0  0  0  0
  186.4220  177.7410  146.4220 C   0  0  0  0  0  2  0  0  0  0  0  0
  189.0720  176.8980  146.7180 C   0  0  1  0  0  3  0  0  0  0  0  0
  186.6510  178.4150  138.4120 C   0  0  0  0  0  3  0  0  0  0  0  0
  186.3940  178.3840  139.7920 C   0  0  0  0  0  0  0  0  0  0  0  0
  183.9180  178.9170  139.3730 C   0  0  0  0  0  2  0  0  0  0  0  0
  185.6830  178.3120  144.1100 C   0  0  0  0  0  2  0  0  0  0  0  0
  182.9840  178.1460  143.2010 O   0  0  0  0  0  0  0  0  0  0  0  0
  181.1220  178.0720  138.0080 C   0  0  0  0  0  1  0  0  0  0  0  0
  184.8230  178.7410  141.7530 C   0  0  2  0  0  3  0  0  0  0  0  0
  182.6000  178.5420  139.8810 N   0  0  1  0  0  0  0  0  0  0  0  0
  190.3670  176.3580  147.3020 C   0  0  0  0  0  2  0  0  0  0  0  0
  191.4830  176.4870  146.3240 C   0  0  0  0  0  0  0  0  0  0  0  0
  192.2310  175.3710  145.9720 O   0  0  0  0  0  1  0  0  0  0  0  0
  191.7310  177.6020  145.7940 O   0  0  0  0  0  0  0  0  0  0  0  0
  2 24  1  1  0  0  0
  3 11  1  0  0  0  0
  4 21  1  0  0  0  0
  4  3  2  0  0  0  0
  5 25  2  0  0  0  0
  6 18  1  1  0  0  0
  6  5  1  0  0  0  0
  7 24  1  6  0  0  0
  7 19  1  0  0  0  0
  9 26  1  6  0  0  0
  9 28  1  0  0  0  0
  9 15  1  0  0  0  0
 10 20  1  0  0  0  0
 11 13  2  0  0  0  0
 12  2  1  0  0  0  0
 12  8  1  1  0  0  0
 13 12  1  0  0  0  0
 14 23  1  6  0  0  0
 14 27  1  0  0  0  0
 15 18  1  0  0  0  0
 16  1  1  0  0  0  0
 17  8  1  6  0  0  0
 17  7  1  0  0  0  0
 17 10  1  0  0  0  0
 19 16  1  0  0  0  0
 20  1  1  0  0  0  0
 20 29  1  1  0  0  0
 21 22  2  0  0  0  0
 22 14  1  0  0  0  0
 22 13  1  0  0  0  0
 27  5  1  1  0  0  0
 27  2  1  0  0  0  0
 28 23  1  6  0  0  0
 28  6  1  0  0  0  0
 30 29  1  0  0  0  0
 31 30  1  0  0  0  0
 32 30  2  0  0  0  0
M  END
>  <MODEL>
7

>  <REMARK>
 VINA RESULT:      -9.1      2.853      8.748
  Name = 
  2 active torsions:
  status: ('A' for Active; 'I' for Inactive)
    1  A    between atoms: C_20  and  C_29
    2  A    between atoms: C_29  and  C_30
                            x       y       z     vdW  Elec       q    Type
                         _______ _______ _______ _____ _____    ______ ____

>  <TORSDO>
F 2

$$$$
=
 OpenBabel11122410373D

 32 37  0  0  1  0  0  0  0  0999 V2000
  187.3470  177.1190  146.0990 C   0  0  0  0  0  2  0  0  0  0  0  0
  183.9970  178.5880  141.9930 C   0  0  1  0  0  3  0  0  0  0  0  0
  179.4610  179.1710  143.9970 C   0  0  0  0  0  3  0  0  0  0  0  0
  178.9310  179.3770  142.7230 C   0  0  0  0  0  3  0  0  0  0  0  0
  184.0840  178.0240  139.4650 C   0  0  0  0  0  0  0  0  0  0  0  0
  183.2780  177.7170  138.2420 C   0  0  2  0  0  3  0  0  0  0  0  0
  186.0290  178.5090  143.4530 C   0  0  1  0  0  3  0  0  0  0  0  0
  183.7540  179.0590  144.4330 C   0  0  0  0  0  2  0  0  0  0  0  0
  181.6440  178.3730  136.8190 C   0  0  2  0  0  3  0  0  0  0  0  0
  185.7280  179.0980  145.9510 C   0  0  0  0  0  2  0  0  0  0  0  0
  180.8160  178.8700  144.1480 C   0  0  0  0  0  3  0  0  0  0  0  0
  183.1060  178.3750  143.2280 C   0  0  1  0  0  3  0  0  0  0  0  0
  181.6610  178.7840  143.0310 C   0  0  0  0  0  0  0  0  0  0  0  0
  182.0000  178.9000  140.5200 C   0  0  2  0  0  3  0  0  0  0  0  0
  182.8100  177.8990  135.9480 C   0  0  0  0  0  2  0  0  0  0  0  0
  187.3900  176.6790  144.6250 C   0  0  0  0  0  2  0  0  0  0  0  0
  185.1230  178.4390  144.7070 C   0  0  2  0  0  3  0  0  0  0  0  0
  183.9710  177.6770  136.9060 C   0  0  0  0  0  2  0  0  0  0  0  0
  187.4020  177.8460  143.6310 C   0  0  0  0  0  2  0  0  0  0  0  0
  187.1420  178.6280  146.3030 C   0  0  1  0  0  3  0  0  0  0  0  0
  179.7520  179.2660  141.5990 C   0  0  0  0  0  3  0  0  0  0  0  0
  181.1100  178.9350  141.7360 C   0  0  0  0  0  0  0  0  0  0  0  0
  181.2850  178.4880  139.2140 C   0  0  0  0  0  2  0  0  0  0  0  0
  185.3260  177.8790  142.2500 C   0  0  0  0  0  2  0  0  0  0  0  0
  185.2870  178.2300  139.4190 O   0  0  0  0  0  0  0  0  0  0  0  0
  181.0210  179.6110  136.2030 C   0  0  0  0  0  1  0  0  0  0  0  0
  183.2780  178.0590  140.7490 C   0  0  2  0  0  3  0  0  0  0  0  0
  182.2210  178.6980  138.1110 N   0  0  1  0  0  0  0  0  0  0  0  0
  187.4540  179.0190  147.7380 C   0  0  0  0  0  2  0  0  0  0  0  0
  188.3040  177.9870  148.3950 C   0  0  0  0  0  0  0  0  0  0  0  0
  189.6680  177.9420  148.1380 O   0  0  0  0  0  0  0  0  0  0  0  0
  187.7920  177.1730  149.2080 O   0  0  0  0  0  1  0  0  0  0  0  0
  1 20  1  0  0  0  0
  2 24  1  1  0  0  0
  2 12  1  0  0  0  0
  3 11  1  0  0  0  0
  4  3  2  0  0  0  0
  6 18  1  6  0  0  0
  6  5  1  0  0  0  0
  7 24  1  6  0  0  0
  7 19  1  0  0  0  0
  7 17  1  0  0  0  0
  9 26  1  6  0  0  0
  9 28  1  0  0  0  0
 10 20  1  0  0  0  0
 12  8  1  1  0  0  0
 13 12  1  0  0  0  0
 13 11  2  0  0  0  0
 14 23  1  6  0  0  0
 14 27  1  0  0  0  0
 14 22  1  0  0  0  0
 15  9  1  0  0  0  0
 15 18  1  0  0  0  0
 16  1  1  0  0  0  0
 17  8  1  6  0  0  0
 17 10  1  0  0  0  0
 19 16  1  0  0  0  0
 20 29  1  1  0  0  0
 21 22  2  0  0  0  0
 21  4  1  0  0  0  0
 22 13  1  0  0  0  0
 25  5  2  0  0  0  0
 27  5  1  6  0  0  0
 27  2  1  0  0  0  0
 28  6  1  0  0  0  0
 28 23  1  1  0  0  0
 29 30  1  0  0  0  0
 30 32  1  0  0  0  0
 31 30  2  0  0  0  0
M  END
>  <MODEL>
8

>  <REMARK>
 VINA RESULT:      -8.6      3.276      8.092
  Name = 
  2 active torsions:
  status: ('A' for Active; 'I' for Inactive)
    1  A    between atoms: C_20  and  C_29
    2  A    between atoms: C_29  and  C_30
                            x       y       z     vdW  Elec       q    Type
                         _______ _______ _______ _____ _____    ______ ____

>  <TORSDO>
F 2

$$$$
=
 OpenBabel11122410373D

 32 37  0  0  1  0  0  0  0  0999 V2000
  190.6870  176.3090  139.4830 C   0  0  0  0  0  2  0  0  0  0  0  0
  186.1030  178.4420  141.6460 C   0  0  1  0  0  3  0  0  0  0  0  0
  186.4080  177.7580  146.5830 C   0  0  0  0  0  3  0  0  0  0  0  0
  185.1120  178.2550  146.7260 C   0  0  0  0  0  3  0  0  0  0  0  0
  183.7210  178.6730  140.6530 C   0  0  0  0  0  0  0  0  0  0  0  0
  182.2540  178.6320  140.9450 C   0  0  2  0  0  3  0  0  0  0  0  0
  188.1390  178.2210  140.2060 C   0  0  1  0  0  3  0  0  0  0  0  0
  188.3280  178.1280  142.7340 C   0  0  0  0  0  2  0  0  0  0  0  0
  180.5280  179.4440  142.1660 C   0  0  2  0  0  3  0  0  0  0  0  0
  190.4220  177.9930  141.3940 C   0  0  0  0  0  2  0  0  0  0  0  0
  186.9660  177.6200  145.3100 C   0  0  0  0  0  3  0  0  0  0  0  0
  186.8480  177.7490  142.7980 C   0  0  1  0  0  3  0  0  0  0  0  0
  186.2420  177.9890  144.1660 C   0  0  0  0  0  0  0  0  0  0  0  0
  184.1220  178.8920  143.1050 C   0  0  2  0  0  3  0  0  0  0  0  0
  180.0540  179.4190  140.7110 C   0  0  0  0  0  2  0  0  0  0  0  0
  189.2690  176.3380  138.8840 C   0  0  0  0  0  2  0  0  0  0  0  0
  188.9290  177.6540  141.4120 C   0  0  2  0  0  3  0  0  0  0  0  0
  181.2880  179.0890  139.8850 C   0  0  0  0  0  2  0  0  0  0  0  0
  188.6430  177.7360  138.8400 C   0  0  0  0  0  2  0  0  0  0  0  0
  191.1440  177.6440  140.0890 C   0  0  1  0  0  3  0  0  0  0  0  0
  184.3690  178.6000  145.5960 C   0  0  0  0  0  3  0  0  0  0  0  0
  184.9070  178.4390  144.3090 C   0  0  0  0  0  0  0  0  0  0  0  0
  182.5890  178.7900  143.2640 C   0  0  0  0  0  2  0  0  0  0  0  0
  186.6540  177.8840  140.3340 C   0  0  0  0  0  2  0  0  0  0  0  0
  184.1620  179.0510  139.5780 O   0  0  0  0  0  0  0  0  0  0  0  0
  180.0310  180.7070  142.8400 C   0  0  0  0  0  1  0  0  0  0  0  0
  184.5980  178.2110  141.8010 C   0  0  2  0  0  3  0  0  0  0  0  0
  181.9790  179.4480  142.1090 N   0  0  1  0  0  0  0  0  0  0  0  0
  192.6430  177.6320  140.3360 C   0  0  0  0  0  2  0  0  0  0  0  0
  193.3550  176.9180  139.2390 C   0  0  0  0  0  0  0  0  0  0  0  0
  192.9800  177.1230  137.9180 O   0  0  0  0  0  0  0  0  0  0  0  0
  194.3160  176.1500  139.5070 O   0  0  0  0  0  1  0  0  0  0  0  0
  1 20  1  0  0  0  0
  2 24  1  6  0  0  0
  2 27  1  0  0  0  0
  2 12  1  0  0  0  0
  3  4  1  0  0  0  0
  5  6  1  0  0  0  0
  6 18  1  6  0  0  0
  6 28  1  0  0  0  0
  7 19  1  6  0  0  0
  7 24  1  0  0  0  0
  7 17  1  0  0  0  0
  9 26  1  6  0  0  0
 11  3  2  0  0  0  0
 12  8  1  1  0  0  0
 12 13  1  0  0  0  0
 13 22  2  0  0  0  0
 13 11  1  0  0  0  0
 14 23  1  1  0  0  0
 14 22  1  0  0  0  0
 15  9  1  0  0  0  0
 16  1  1  0  0  0  0
 17 10  1  6  0  0  0
 17  8  1  0  0  0  0
 18 15  1  0  0  0  0
 19 16  1  0  0  0  0
 20 29  1  1  0  0  0
 20 10  1  0  0  0  0
 21  4  2  0  0  0  0
 22 21  1  0  0  0  0
 25  5  2  0  0  0  0
 27  5  1  6  0  0  0
 27 14  1  0  0  0  0
 28  9  1  0  0  0  0
 28 23  1  1  0  0  0
 30 32  1  0  0  0  0
 30 29  1  0  0  0  0
 31 30  2  0  0  0  0
M  END
>  <MODEL>
9

>  <REMARK>
 VINA RESULT:      -8.3      2.611      8.015
  Name = 
  2 active torsions:
  status: ('A' for Active; 'I' for Inactive)
    1  A    between atoms: C_20  and  C_29
    2  A    between atoms: C_29  and  C_30
                            x       y       z     vdW  Elec       q    Type
                         _______ _______ _______ _____ _____    ______ ____

>  <TORSDO>
F 2

$$$$
