=
 OpenBabel11122410363D

 32 37  0  0  1  0  0  0  0  0999 V2000
  187.0170  178.0440  143.2970 C   0  0  1  0  0  3  0  0  0  0  0  0
  189.4860  177.4060  139.1940 C   0  0  0  0  0  3  0  0  0  0  0  0
  190.7530  177.3250  139.9490 C   0  0  0  0  0  3  0  0  0  0  0  0
  188.1520  177.6260  145.4340 C   0  0  0  0  0  0  0  0  0  0  0  0
  189.3380  177.2660  146.0580 C   0  0  0  0  0  0  0  0  0  0  0  0
  184.5980  178.7460  143.1930 C   0  0  0  0  0  2  0  0  0  0  0  0
  185.9260  178.7610  141.1300 C   0  0  0  0  0  2  0  0  0  0  0  0
  191.5630  176.7290  146.3080 C   0  0  1  0  0  3  0  0  0  0  0  0
  188.3640  177.8380  139.7800 C   0  0  0  0  0  3  0  0  0  0  0  0
  187.0800  178.2190  141.8590 N   0  0  1  0  0  0  0  0  0  0  0  0
  188.3770  178.3650  141.1960 C   0  0  1  0  0  3  0  0  0  0  0  0
  189.4100  177.6200  143.3270 C   0  0  0  0  0  0  0  0  0  0  0  0
  190.9300  176.7230  147.6470 N   0  0  0  0  0  0  0  0  0  0  0  0
  184.6080  178.3140  141.7420 C   0  0  2  0  0  3  0  0  0  0  0  0
  189.5760  177.0650  147.4300 N   0  0  0  0  0  0  0  0  0  0  0  0
  190.7680  177.4860  141.2760 C   0  0  0  0  0  3  0  0  0  0  0  0
  189.5100  177.7800  141.9980 C   0  0  2  0  0  3  0  0  0  0  0  0
  190.5280  177.2540  144.0290 N   0  0  0  0  0  0  0  0  0  0  0  0
  185.6550  177.9620  143.9490 C   0  0  0  0  0  2  0  0  0  0  0  0
  187.0230  177.8300  146.2230 O   0  0  0  0  0  1  0  0  0  0  0  0
  192.1010  175.3450  145.9960 C   0  0  0  0  0  1  0  0  0  0  0  0
  188.1540  177.7880  144.0110 C   0  0  0  0  0  0  0  0  0  0  0  0
  190.4690  177.0740  145.3670 C   0  0  0  0  0  0  0  0  0  0  0  0
  182.6590  178.0100  140.1010 C   0  0  2  0  0  3  0  0  0  0  0  0
  183.4520  178.9710  140.9950 C   0  0  1  0  0  3  0  0  0  0  0  0
  182.1350  178.3910  141.4730 C   0  0  1  0  0  3  0  0  0  0  0  0
  181.0980  179.3840  141.3310 N   0  0  0  0  0  0  0  0  0  0  0  0
  180.2620  179.6660  142.2690 C   0  0  0  0  0  0  0  0  0  0  0  0
  180.2930  178.9800  143.6000 C   0  0  0  0  0  1  0  0  0  0  0  0
  179.2250  180.7080  142.0270 C   0  0  0  0  0  1  0  0  0  0  0  0
  183.1570  176.7050  140.1410 O   0  0  0  0  0  0  0  0  0  0  0  0
  182.2350  175.9540  139.4120 C   0  0  0  0  0  1  0  0  0  0  0  0
  1 19  1  6  0  0  0
  1 22  1  0  0  0  0
  2  9  2  0  0  0  0
  2  3  1  0  0  0  0
  3 16  2  0  0  0  0
  4  5  1  0  0  0  0
  4 20  1  0  0  0  0
  5 15  1  0  0  0  0
  6 19  1  0  0  0  0
  8 21  1  6  0  0  0
  8 13  1  0  0  0  0
 10  7  1  1  0  0  0
 10  1  1  0  0  0  0
 11  9  1  6  0  0  0
 11 10  1  0  0  0  0
 11 17  1  0  0  0  0
 12 22  1  0  0  0  0
 12 18  2  0  0  0  0
 14  7  1  6  0  0  0
 14  6  1  0  0  0  0
 15 13  2  0  0  0  0
 17 16  1  1  0  0  0
 17 12  1  0  0  0  0
 18 23  1  0  0  0  0
 22  4  2  0  0  0  0
 23  5  2  0  0  0  0
 23  8  1  0  0  0  0
 24 31  1  1  0  0  0
 24 25  1  0  0  0  0
 24 26  1  0  0  0  0
 25 26  1  0  0  0  0
 25 14  1  1  0  0  0
 26 27  1  6  0  0  0
 27 28  2  0  0  0  0
 28 29  1  0  0  0  0
 30 28  1  0  0  0  0
 32 31  1  0  0  0  0
M  END
>  <MODEL>
1

>  <REMARK>
 VINA RESULT:     -10.1      0.000      0.000
  Name = 
  3 active torsions:
  status: ('A' for Active; 'I' for Inactive)
    1  A    between atoms: C_1  and  O_16
    2  A    between atoms: C_10  and  C_17
    3  A    between atoms: C_20  and  N_29
                            x       y       z     vdW  Elec       q    Type
                         _______ _______ _______ _____ _____    ______ ____

>  <TORSDO>
F 3

$$$$
=
 OpenBabel11122410363D

 32 37  0  0  1  0  0  0  0  0999 V2000
  186.1420  178.2770  143.2880 C   0  0  1  0  0  3  0  0  0  0  0  0
  189.4530  177.3680  139.8890 C   0  0  0  0  0  3  0  0  0  0  0  0
  190.5270  177.4030  140.9020 C   0  0  0  0  0  3  0  0  0  0  0  0
  186.7940  178.0950  145.6480 C   0  0  0  0  0  0  0  0  0  0  0  0
  187.8230  177.8370  146.5430 C   0  0  0  0  0  0  0  0  0  0  0  0
  183.7910  178.8750  142.6010 C   0  0  0  0  0  2  0  0  0  0  0  0
  185.5340  178.7550  140.8790 C   0  0  0  0  0  2  0  0  0  0  0  0
  189.9500  177.4100  147.3130 C   0  0  1  0  0  3  0  0  0  0  0  0
  188.2230  177.8080  140.1770 C   0  0  0  0  0  3  0  0  0  0  0  0
  186.5120  178.3250  141.8860 N   0  0  1  0  0  0  0  0  0  0  0  0
  187.9190  178.4600  141.5060 C   0  0  1  0  0  3  0  0  0  0  0  0
  188.4780  177.9480  143.8700 C   0  0  0  0  0  0  0  0  0  0  0  0
  189.0420  177.5000  148.4800 N   0  0  0  0  0  0  0  0  0  0  0  0
  184.1230  178.3150  141.2340 C   0  0  2  0  0  3  0  0  0  0  0  0
  187.7610  177.7690  147.9470 N   0  0  0  0  0  0  0  0  0  0  0  0
  190.2510  177.6820  142.1790 C   0  0  0  0  0  3  0  0  0  0  0  0
  188.8620  177.9920  142.5840 C   0  0  2  0  0  3  0  0  0  0  0  0
  189.4250  177.6890  144.8270 N   0  0  0  0  0  0  0  0  0  0  0  0
  184.6730  178.2020  143.6380 C   0  0  0  0  0  2  0  0  0  0  0  0
  185.5170  178.3260  146.1540 O   0  0  0  0  0  1  0  0  0  0  0  0
  190.5670  176.0250  147.2580 C   0  0  0  0  0  1  0  0  0  0  0  0
  187.1020  178.1290  144.2490 C   0  0  0  0  0  0  0  0  0  0  0  0
  189.0800  177.6270  146.1320 C   0  0  0  0  0  0  0  0  0  0  0  0
  182.3570  177.7740  139.4540 C   0  0  2  0  0  3  0  0  0  0  0  0
  183.1440  178.8580  140.1980 C   0  0  1  0  0  3  0  0  0  0  0  0
  181.7240  178.5270  140.6090 C   0  0  1  0  0  3  0  0  0  0  0  0
  180.8310  179.5350  140.0910 N   0  0  0  0  0  0  0  0  0  0  0  0
  180.0670  180.2500  140.8420 C   0  0  0  0  0  0  0  0  0  0  0  0
  180.0380  180.0930  142.3320 C   0  0  0  0  0  1  0  0  0  0  0  0
  179.1780  181.2670  140.2140 C   0  0  0  0  0  1  0  0  0  0  0  0
  182.6940  176.4830  139.8710 O   0  0  0  0  0  0  0  0  0  0  0  0
  181.6070  175.6960  139.4920 C   0  0  0  0  0  1  0  0  0  0  0  0
  1 19  1  6  0  0  0
  1 22  1  0  0  0  0
  2  9  2  0  0  0  0
  2  3  1  0  0  0  0
  3 16  2  0  0  0  0
  4 20  1  0  0  0  0
  4  5  1  0  0  0  0
  5 15  1  0  0  0  0
  6 19  1  0  0  0  0
  8 21  1  6  0  0  0
  8 13  1  0  0  0  0
 10  7  1  1  0  0  0
 10  1  1  0  0  0  0
 11  9  1  6  0  0  0
 11 10  1  0  0  0  0
 11 17  1  0  0  0  0
 12 22  1  0  0  0  0
 12 18  2  0  0  0  0
 14  7  1  6  0  0  0
 14  6  1  0  0  0  0
 15 13  2  0  0  0  0
 17 16  1  1  0  0  0
 17 12  1  0  0  0  0
 18 23  1  0  0  0  0
 22  4  2  0  0  0  0
 23  5  2  0  0  0  0
 23  8  1  0  0  0  0
 24 31  1  1  0  0  0
 24 25  1  0  0  0  0
 24 26  1  0  0  0  0
 25 26  1  0  0  0  0
 25 14  1  1  0  0  0
 26 27  1  6  0  0  0
 27 28  2  0  0  0  0
 28 29  1  0  0  0  0
 30 28  1  0  0  0  0
 32 31  1  0  0  0  0
M  END
>  <MODEL>
2

>  <REMARK>
 VINA RESULT:      -9.4      1.092      1.296
  Name = 
  3 active torsions:
  status: ('A' for Active; 'I' for Inactive)
    1  A    between atoms: C_1  and  O_16
    2  A    between atoms: C_10  and  C_17
    3  A    between atoms: C_20  and  N_29
                            x       y       z     vdW  Elec       q    Type
                         _______ _______ _______ _____ _____    ______ ____

>  <TORSDO>
F 3

$$$$
=
 OpenBabel11122410363D

 32 37  0  0  1  0  0  0  0  0999 V2000
  185.4300  178.5600  140.6840 C   0  0  1  0  0  3  0  0  0  0  0  0
  183.6320  179.0750  145.1390 C   0  0  0  0  0  3  0  0  0  0  0  0
  184.8920  178.5720  145.7230 C   0  0  0  0  0  3  0  0  0  0  0  0
  187.8370  178.1520  140.4230 C   0  0  0  0  0  0  0  0  0  0  0  0
  189.0500  177.9570  141.0690 C   0  0  0  0  0  0  0  0  0  0  0  0
  183.8940  178.7660  138.6950 C   0  0  0  0  0  2  0  0  0  0  0  0
  182.9160  178.6860  140.9440 C   0  0  0  0  0  2  0  0  0  0  0  0
  190.5460  177.6390  142.7900 C   0  0  1  0  0  3  0  0  0  0  0  0
  183.3860  178.9520  143.8300 C   0  0  0  0  0  3  0  0  0  0  0  0
  184.2600  178.6500  141.5360 N   0  0  1  0  0  0  0  0  0  0  0  0
  184.3300  178.1950  142.9250 C   0  0  1  0  0  3  0  0  0  0  0  0
  186.7970  178.1230  142.6450 C   0  0  0  0  0  0  0  0  0  0  0  0
  191.2930  177.6090  141.5110 N   0  0  0  0  0  0  0  0  0  0  0  0
  182.9000  179.4340  139.6210 C   0  0  2  0  0  3  0  0  0  0  0  0
  190.3260  177.8010  140.4990 N   0  0  0  0  0  0  0  0  0  0  0  0
  185.8950  178.1680  144.9380 C   0  0  0  0  0  3  0  0  0  0  0  0
  185.7370  178.1930  143.4660 C   0  0  2  0  0  3  0  0  0  0  0  0
  188.0390  177.9420  143.1930 N   0  0  0  0  0  0  0  0  0  0  0  0
  185.2960  178.9810  139.2370 C   0  0  0  0  0  2  0  0  0  0  0  0
  187.8270  178.2020  139.0310 O   0  0  0  0  0  1  0  0  0  0  0  0
  191.0510  178.7860  143.6440 C   0  0  0  0  0  1  0  0  0  0  0  0
  186.6530  178.2700  141.2200 C   0  0  0  0  0  0  0  0  0  0  0  0
  189.1340  177.8760  142.4030 C   0  0  0  0  0  0  0  0  0  0  0  0
  180.9870  180.7110  138.4820 C   0  0  2  0  0  3  0  0  0  0  0  0
  181.5010  179.3690  139.0160 C   0  0  1  0  0  3  0  0  0  0  0  0
  181.5660  179.6780  137.5340 C   0  0  1  0  0  3  0  0  0  0  0  0
  180.4910  178.9940  136.8580 N   0  0  0  0  0  0  0  0  0  0  0  0
  180.6840  178.0280  136.0280 C   0  0  0  0  0  0  0  0  0  0  0  0
  182.0550  177.5280  135.6890 C   0  0  0  0  0  1  0  0  0  0  0  0
  179.5090  177.3830  135.3790 C   0  0  0  0  0  1  0  0  0  0  0  0
  181.9090  181.7470  138.6570 O   0  0  0  0  0  0  0  0  0  0  0  0
  181.4090  182.7960  137.8870 C   0  0  0  0  0  1  0  0  0  0  0  0
  1 19  1  1  0  0  0
  1 22  1  0  0  0  0
  1 10  1  0  0  0  0
  2  3  1  0  0  0  0
  4  5  2  0  0  0  0
  4 22  1  0  0  0  0
  5 23  1  0  0  0  0
  6 19  1  0  0  0  0
  8 21  1  1  0  0  0
  9  2  2  0  0  0  0
 10  7  1  6  0  0  0
 10 11  1  0  0  0  0
 11 17  1  0  0  0  0
 11  9  1  1  0  0  0
 12 18  1  0  0  0  0
 12 17  1  0  0  0  0
 13  8  1  0  0  0  0
 14  6  1  6  0  0  0
 14  7  1  0  0  0  0
 15  5  1  0  0  0  0
 15 13  2  0  0  0  0
 16  3  2  0  0  0  0
 17 16  1  1  0  0  0
 20  4  1  0  0  0  0
 22 12  2  0  0  0  0
 23  8  1  0  0  0  0
 23 18  2  0  0  0  0
 24 31  1  1  0  0  0
 24 25  1  0  0  0  0
 25 14  1  1  0  0  0
 26 27  1  6  0  0  0
 26 24  1  0  0  0  0
 26 25  1  0  0  0  0
 28 27  2  0  0  0  0
 29 28  1  0  0  0  0
 30 28  1  0  0  0  0
 32 31  1  0  0  0  0
M  END
>  <MODEL>
3

>  <REMARK>
 VINA RESULT:      -8.7      2.903      5.304
  Name = 
  3 active torsions:
  status: ('A' for Active; 'I' for Inactive)
    1  A    between atoms: C_1  and  O_16
    2  A    between atoms: C_10  and  C_17
    3  A    between atoms: C_20  and  N_29
                            x       y       z     vdW  Elec       q    Type
                         _______ _______ _______ _____ _____    ______ ____

>  <TORSDO>
F 3

$$$$
=
 OpenBabel11122410363D

 32 37  0  0  1  0  0  0  0  0999 V2000
  187.6740  177.7460  142.3950 C   0  0  1  0  0  3  0  0  0  0  0  0
  183.4870  179.4600  144.0900 C   0  0  0  0  0  3  0  0  0  0  0  0
  183.8590  179.0600  145.4620 C   0  0  0  0  0  3  0  0  0  0  0  0
  189.4450  177.1660  143.9940 C   0  0  0  0  0  0  0  0  0  0  0  0
  189.8090  177.0820  145.3310 C   0  0  0  0  0  0  0  0  0  0  0  0
  188.0040  177.5160  139.9060 C   0  0  0  0  0  2  0  0  0  0  0  0
  185.7680  178.0570  140.7600 C   0  0  0  0  0  2  0  0  0  0  0  0
  189.6100  177.1370  147.6230 C   0  0  1  0  0  3  0  0  0  0  0  0
  184.1820  179.0220  143.0340 C   0  0  0  0  0  3  0  0  0  0  0  0
  186.2940  178.1050  142.1300 N   0  0  1  0  0  0  0  0  0  0  0  0
  185.2970  178.0150  143.1980 C   0  0  1  0  0  3  0  0  0  0  0  0
  187.1950  177.7520  144.7770 C   0  0  0  0  0  0  0  0  0  0  0  0
  190.9990  176.7470  147.2860 N   0  0  0  0  0  0  0  0  0  0  0  0
  186.8210  178.4450  139.7350 C   0  0  2  0  0  3  0  0  0  0  0  0
  191.0560  176.7240  145.8740 N   0  0  0  0  0  0  0  0  0  0  0  0
  185.0090  178.4210  145.6980 C   0  0  0  0  0  3  0  0  0  0  0  0
  185.9090  178.0800  144.5730 C   0  0  2  0  0  3  0  0  0  0  0  0
  187.6500  177.6560  146.0660 N   0  0  0  0  0  0  0  0  0  0  0  0
  188.6580  177.7920  141.2480 C   0  0  0  0  0  2  0  0  0  0  0  0
  190.4000  176.8630  143.0260 O   0  0  0  0  0  1  0  0  0  0  0  0
  189.6260  178.4370  148.4050 C   0  0  0  0  0  1  0  0  0  0  0  0
  188.0990  177.5410  143.6770 C   0  0  0  0  0  0  0  0  0  0  0  0
  188.9390  177.3370  146.3160 C   0  0  0  0  0  0  0  0  0  0  0  0
  187.1570  178.8270  137.2200 C   0  0  2  0  0  3  0  0  0  0  0  0
  186.2430  178.2980  138.3310 C   0  0  1  0  0  3  0  0  0  0  0  0
  187.0950  177.3420  137.5210 C   0  0  1  0  0  3  0  0  0  0  0  0
  186.2710  176.6870  136.5340 N   0  0  0  0  0  0  0  0  0  0  0  0
  186.4060  175.4460  136.2180 C   0  0  0  0  0  0  0  0  0  0  0  0
  187.4400  174.5680  136.8520 C   0  0  0  0  0  1  0  0  0  0  0  0
  185.5060  174.8590  135.1860 C   0  0  0  0  0  1  0  0  0  0  0  0
  188.3550  179.3510  137.7140 O   0  0  0  0  0  0  0  0  0  0  0  0
  189.3430  178.8010  136.8970 C   0  0  0  0  0  1  0  0  0  0  0  0
  1 19  1  1  0  0  0
  1 22  1  0  0  0  0
  2  3  1  0  0  0  0
  3 16  2  0  0  0  0
  4  5  1  0  0  0  0
  5 15  1  0  0  0  0
  5 23  2  0  0  0  0
  6 19  1  0  0  0  0
  8 21  1  1  0  0  0
  9  2  2  0  0  0  0
 10  7  1  6  0  0  0
 10  1  1  0  0  0  0
 10 11  1  0  0  0  0
 11  9  1  6  0  0  0
 11 17  1  0  0  0  0
 12 18  2  0  0  0  0
 13  8  1  0  0  0  0
 14  6  1  6  0  0  0
 14  7  1  0  0  0  0
 15 13  2  0  0  0  0
 17 12  1  0  0  0  0
 17 16  1  1  0  0  0
 18 23  1  0  0  0  0
 20  4  1  0  0  0  0
 22  4  2  0  0  0  0
 22 12  1  0  0  0  0
 23  8  1  0  0  0  0
 24 26  1  0  0  0  0
 24 31  1  1  0  0  0
 24 25  1  0  0  0  0
 25 14  1  1  0  0  0
 26 27  1  6  0  0  0
 26 25  1  0  0  0  0
 28 27  2  0  0  0  0
 28 29  1  0  0  0  0
 30 28  1  0  0  0  0
 32 31  1  0  0  0  0
M  END
>  <MODEL>
4

>  <REMARK>
 VINA RESULT:      -8.4      2.708      5.512
  Name = 
  3 active torsions:
  status: ('A' for Active; 'I' for Inactive)
    1  A    between atoms: C_1  and  O_16
    2  A    between atoms: C_10  and  C_17
    3  A    between atoms: C_20  and  N_29
                            x       y       z     vdW  Elec       q    Type
                         _______ _______ _______ _____ _____    ______ ____

>  <TORSDO>
F 3

$$$$
=
 OpenBabel11122410363D

 32 37  0  0  1  0  0  0  0  0999 V2000
  186.0040  178.3920  141.9140 C   0  0  1  0  0  3  0  0  0  0  0  0
  187.1040  177.6610  146.5620 C   0  0  0  0  0  3  0  0  0  0  0  0
  185.7680  178.1380  146.9700 C   0  0  0  0  0  3  0  0  0  0  0  0
  183.6630  178.8190  141.3090 C   0  0  0  0  0  0  0  0  0  0  0  0
  182.3650  178.9850  141.7710 C   0  0  0  0  0  0  0  0  0  0  0  0
  187.8270  178.2780  140.1760 C   0  0  0  0  0  2  0  0  0  0  0  0
  188.4490  178.2480  142.5490 C   0  0  0  0  0  2  0  0  0  0  0  0
  180.6230  179.2240  143.2560 C   0  0  1  0  0  3  0  0  0  0  0  0
  187.5470  177.8450  145.3130 C   0  0  0  0  0  3  0  0  0  0  0  0
  187.0310  178.2590  142.9300 N   0  0  1  0  0  0  0  0  0  0  0  0
  186.7470  178.6470  144.3120 C   0  0  1  0  0  3  0  0  0  0  0  0
  184.3520  178.7390  143.6630 C   0  0  0  0  0  0  0  0  0  0  0  0
  180.0790  179.3170  141.8820 N   0  0  0  0  0  0  0  0  0  0  0  0
  188.6710  177.5640  141.2100 C   0  0  2  0  0  3  0  0  0  0  0  0
  181.1900  179.1720  141.0210 N   0  0  0  0  0  0  0  0  0  0  0  0
  184.8940  178.5820  146.0610 C   0  0  0  0  0  3  0  0  0  0  0  0
  185.2750  178.6270  144.6320 C   0  0  2  0  0  3  0  0  0  0  0  0
  183.0400  178.8960  144.0230 N   0  0  0  0  0  0  0  0  0  0  0  0
  186.3600  178.0410  140.4870 C   0  0  0  0  0  2  0  0  0  0  0  0
  183.8850  178.8350  139.9340 O   0  0  0  0  0  1  0  0  0  0  0  0
  179.9980  178.0390  143.9680 C   0  0  0  0  0  1  0  0  0  0  0  0
  184.7130  178.6590  142.2710 C   0  0  0  0  0  0  0  0  0  0  0  0
  182.0780  179.0030  143.0790 C   0  0  0  0  0  0  0  0  0  0  0  0
  191.0280  176.5880  141.4880 C   0  0  2  0  0  3  0  0  0  0  0  0
  190.1450  177.6550  140.8290 C   0  0  1  0  0  3  0  0  0  0  0  0
  190.5560  176.4170  140.0570 C   0  0  1  0  0  3  0  0  0  0  0  0
  191.6300  176.7530  139.1550 N   0  0  0  0  0  0  0  0  0  0  0  0
  191.8880  176.0790  138.0870 C   0  0  0  0  0  0  0  0  0  0  0  0
  191.0880  174.8780  137.6880 C   0  0  0  0  0  1  0  0  0  0  0  0
  193.0200  176.5050  137.2170 C   0  0  0  0  0  1  0  0  0  0  0  0
  190.3030  175.7310  142.3210 O   0  0  0  0  0  0  0  0  0  0  0  0
  191.0340  175.6940  143.5080 C   0  0  0  0  0  1  0  0  0  0  0  0
  1 19  1  1  0  0  0
  1 22  1  0  0  0  0
  1 10  1  0  0  0  0
  2  3  1  0  0  0  0
  4  5  2  0  0  0  0
  4 22  1  0  0  0  0
  5 23  1  0  0  0  0
  6 19  1  0  0  0  0
  8 21  1  6  0  0  0
  9  2  2  0  0  0  0
 10  7  1  6  0  0  0
 10 11  1  0  0  0  0
 11 17  1  0  0  0  0
 11  9  1  1  0  0  0
 12 18  1  0  0  0  0
 12 17  1  0  0  0  0
 13  8  1  0  0  0  0
 14  6  1  6  0  0  0
 14  7  1  0  0  0  0
 15  5  1  0  0  0  0
 15 13  2  0  0  0  0
 16  3  2  0  0  0  0
 17 16  1  1  0  0  0
 20  4  1  0  0  0  0
 22 12  2  0  0  0  0
 23  8  1  0  0  0  0
 23 18  2  0  0  0  0
 24 31  1  1  0  0  0
 25 14  1  1  0  0  0
 25 24  1  0  0  0  0
 26 27  1  6  0  0  0
 26 25  1  0  0  0  0
 26 24  1  0  0  0  0
 28 27  2  0  0  0  0
 29 28  1  0  0  0  0
 30 28  1  0  0  0  0
 31 32  1  0  0  0  0
M  END
>  <MODEL>
5

>  <REMARK>
 VINA RESULT:      -8.3      2.411      8.418
  Name = 
  3 active torsions:
  status: ('A' for Active; 'I' for Inactive)
    1  A    between atoms: C_1  and  O_16
    2  A    between atoms: C_10  and  C_17
    3  A    between atoms: C_20  and  N_29
                            x       y       z     vdW  Elec       q    Type
                         _______ _______ _______ _____ _____    ______ ____

>  <TORSDO>
F 3

$$$$
=
 OpenBabel11122410363D

 32 37  0  0  1  0  0  0  0  0999 V2000
  185.9320  178.2100  142.1450 C   0  0  1  0  0  3  0  0  0  0  0  0
  185.0180  178.7600  146.8570 C   0  0  0  0  0  3  0  0  0  0  0  0
  186.3820  178.3050  147.1920 C   0  0  0  0  0  3  0  0  0  0  0  0
  188.2540  177.8660  141.4260 C   0  0  0  0  0  0  0  0  0  0  0  0
  189.5740  177.7190  141.8270 C   0  0  0  0  0  0  0  0  0  0  0  0
  184.0320  178.3320  140.4910 C   0  0  0  0  0  2  0  0  0  0  0  0
  183.5130  178.2680  142.8880 C   0  0  0  0  0  2  0  0  0  0  0  0
  191.3860  177.4790  143.2270 C   0  0  1  0  0  3  0  0  0  0  0  0
  184.5260  178.6050  145.6240 C   0  0  0  0  0  3  0  0  0  0  0  0
  184.9470  178.2820  143.2080 N   0  0  1  0  0  0  0  0  0  0  0  0
  185.3000  177.8580  144.5630 C   0  0  1  0  0  3  0  0  0  0  0  0
  187.6660  177.8510  143.8090 C   0  0  0  0  0  0  0  0  0  0  0  0
  191.8710  177.4450  141.8280 N   0  0  0  0  0  0  0  0  0  0  0  0
  183.2160  178.9890  141.5840 C   0  0  2  0  0  3  0  0  0  0  0  0
  190.7200  177.5890  141.0210 N   0  0  0  0  0  0  0  0  0  0  0  0
  187.2260  177.9150  146.2320 C   0  0  0  0  0  3  0  0  0  0  0  0
  186.7850  177.9060  144.8200 C   0  0  2  0  0  3  0  0  0  0  0  0
  188.9970  177.7170  144.1070 N   0  0  0  0  0  0  0  0  0  0  0  0
  185.5050  178.5980  140.7470 C   0  0  0  0  0  2  0  0  0  0  0  0
  187.9720  177.8890  140.0620 O   0  0  0  0  0  1  0  0  0  0  0  0
  192.0100  178.6570  143.9510 C   0  0  0  0  0  1  0  0  0  0  0  0
  187.2440  177.9660  142.4370 C   0  0  0  0  0  0  0  0  0  0  0  0
  189.9190  177.6670  143.1190 C   0  0  0  0  0  0  0  0  0  0  0  0
  181.2440  179.8400  140.1800 C   0  0  2  0  0  3  0  0  0  0  0  0
  181.7290  178.8710  141.2640 C   0  0  1  0  0  3  0  0  0  0  0  0
  181.5450  178.3930  139.8380 C   0  0  1  0  0  3  0  0  0  0  0  0
  180.3090  177.6580  139.7380 N   0  0  0  0  0  0  0  0  0  0  0  0
  180.2610  176.3830  139.5610 C   0  0  0  0  0  0  0  0  0  0  0  0
  181.4980  175.5470  139.4410 C   0  0  0  0  0  1  0  0  0  0  0  0
  178.9350  175.7120  139.4700 C   0  0  0  0  0  1  0  0  0  0  0  0
  182.2690  180.6560  139.6900 O   0  0  0  0  0  0  0  0  0  0  0  0
  181.9340  180.8780  138.3550 C   0  0  0  0  0  1  0  0  0  0  0  0
  1 19  1  1  0  0  0
  1 22  1  0  0  0  0
  1 10  1  0  0  0  0
  2  3  1  0  0  0  0
  4  5  2  0  0  0  0
  4 22  1  0  0  0  0
  5 23  1  0  0  0  0
  6 19  1  0  0  0  0
  8 21  1  1  0  0  0
  9  2  2  0  0  0  0
 10  7  1  6  0  0  0
 10 11  1  0  0  0  0
 11 17  1  0  0  0  0
 11  9  1  1  0  0  0
 12 18  1  0  0  0  0
 12 17  1  0  0  0  0
 13  8  1  0  0  0  0
 14  6  1  6  0  0  0
 14  7  1  0  0  0  0
 15  5  1  0  0  0  0
 15 13  2  0  0  0  0
 16  3  2  0  0  0  0
 17 16  1  1  0  0  0
 20  4  1  0  0  0  0
 22 12  2  0  0  0  0
 23  8  1  0  0  0  0
 23 18  2  0  0  0  0
 24 31  1  6  0  0  0
 24 25  1  0  0  0  0
 25 14  1  6  0  0  0
 26 27  1  1  0  0  0
 26 24  1  0  0  0  0
 26 25  1  0  0  0  0
 28 27  2  0  0  0  0
 29 28  1  0  0  0  0
 30 28  1  0  0  0  0
 32 31  1  0  0  0  0
M  END
>  <MODEL>
6

>  <REMARK>
 VINA RESULT:      -8.0      2.363      4.494
  Name = 
  3 active torsions:
  status: ('A' for Active; 'I' for Inactive)
    1  A    between atoms: C_1  and  O_16
    2  A    between atoms: C_10  and  C_17
    3  A    between atoms: C_20  and  N_29
                            x       y       z     vdW  Elec       q    Type
                         _______ _______ _______ _____ _____    ______ ____

>  <TORSDO>
F 3

$$$$
=
 OpenBabel11122410363D

 32 37  0  0  1  0  0  0  0  0999 V2000
  188.8360  177.8380  141.2620 C   0  0  1  0  0  3  0  0  0  0  0  0
  184.1940  178.6280  142.3440 C   0  0  0  0  0  3  0  0  0  0  0  0
  183.8900  178.8920  140.9230 C   0  0  0  0  0  3  0  0  0  0  0  0
  189.4680  177.5650  138.9050 C   0  0  0  0  0  0  0  0  0  0  0  0
  189.0310  177.5590  137.5880 C   0  0  0  0  0  0  0  0  0  0  0  0
  190.5310  177.6690  143.1210 C   0  0  0  0  0  2  0  0  0  0  0  0
  188.2540  178.4070  143.6580 C   0  0  0  0  0  2  0  0  0  0  0  0
  187.6160  177.7960  135.7880 C   0  0  1  0  0  3  0  0  0  0  0  0
  185.4580  178.5660  142.7760 C   0  0  0  0  0  3  0  0  0  0  0  0
  187.8500  178.2080  142.2600 N   0  0  1  0  0  0  0  0  0  0  0  0
  186.6140  178.8770  141.8530 C   0  0  1  0  0  3  0  0  0  0  0  0
  187.1980  178.2660  139.5190 C   0  0  0  0  0  0  0  0  0  0  0  0
  188.9500  177.3990  135.2820 N   0  0  0  0  0  0  0  0  0  0  0  0
  189.3680  177.4580  144.0670 C   0  0  2  0  0  3  0  0  0  0  0  0
  189.7710  177.2770  136.4250 N   0  0  0  0  0  0  0  0  0  0  0  0
  184.8600  178.8750  140.0030 C   0  0  0  0  0  3  0  0  0  0  0  0
  186.2600  178.6210  140.4110 C   0  0  2  0  0  3  0  0  0  0  0  0
  186.8560  178.2220  138.1920 N   0  0  0  0  0  0  0  0  0  0  0  0
  190.1270  177.2070  141.7320 C   0  0  0  0  0  2  0  0  0  0  0  0
  190.8030  177.2630  139.1630 O   0  0  0  0  0  1  0  0  0  0  0  0
  186.5970  176.7360  135.4150 C   0  0  0  0  0  1  0  0  0  0  0  0
  188.5270  177.9010  139.9320 C   0  0  0  0  0  0  0  0  0  0  0  0
  187.7680  177.8610  137.2620 C   0  0  0  0  0  0  0  0  0  0  0  0
  188.6890  177.5830  146.5380 C   0  0  2  0  0  3  0  0  0  0  0  0
  189.7990  177.7650  145.4970 C   0  0  1  0  0  3  0  0  0  0  0  0
  189.7370  176.5050  146.3370 C   0  0  1  0  0  3  0  0  0  0  0  0
  190.7170  176.5870  147.3920 N   0  0  0  0  0  0  0  0  0  0  0  0
  191.8590  175.9930  147.3390 C   0  0  0  0  0  0  0  0  0  0  0  0
  192.2710  175.1570  146.1660 C   0  0  0  0  0  1  0  0  0  0  0  0
  192.8060  176.1370  148.4790 C   0  0  0  0  0  1  0  0  0  0  0  0
  187.4820  177.1680  145.9690 O   0  0  0  0  0  0  0  0  0  0  0  0
  186.5030  177.8780  146.6630 C   0  0  0  0  0  1  0  0  0  0  0  0
  1 19  1  1  0  0  0
  1 10  1  0  0  0  0
  2  9  2  0  0  0  0
  3  2  1  0  0  0  0
  4 20  1  0  0  0  0
  4 22  1  0  0  0  0
  5  4  2  0  0  0  0
  7 14  1  0  0  0  0
  8 21  1  1  0  0  0
  8 23  1  0  0  0  0
 10  7  1  1  0  0  0
 11 10  1  0  0  0  0
 11  9  1  1  0  0  0
 12 22  2  0  0  0  0
 12 17  1  0  0  0  0
 13  8  1  0  0  0  0
 13 15  2  0  0  0  0
 14  6  1  6  0  0  0
 15  5  1  0  0  0  0
 16  3  2  0  0  0  0
 17 16  1  6  0  0  0
 17 11  1  0  0  0  0
 18 12  1  0  0  0  0
 19  6  1  0  0  0  0
 22  1  1  0  0  0  0
 23  5  1  0  0  0  0
 23 18  2  0  0  0  0
 24 31  1  6  0  0  0
 25 14  1  6  0  0  0
 25 26  1  0  0  0  0
 25 24  1  0  0  0  0
 26 24  1  0  0  0  0
 26 27  1  1  0  0  0
 28 27  2  0  0  0  0
 28 30  1  0  0  0  0
 29 28  1  0  0  0  0
 31 32  1  0  0  0  0
M  END
>  <MODEL>
7

>  <REMARK>
 VINA RESULT:      -8.0      2.704      8.365
  Name = 
  3 active torsions:
  status: ('A' for Active; 'I' for Inactive)
    1  A    between atoms: C_1  and  O_16
    2  A    between atoms: C_10  and  C_17
    3  A    between atoms: C_20  and  N_29
                            x       y       z     vdW  Elec       q    Type
                         _______ _______ _______ _____ _____    ______ ____

>  <TORSDO>
F 3

$$$$
=
 OpenBabel11122410363D

 32 37  0  0  1  0  0  0  0  0999 V2000
  185.6500  178.3060  141.8690 C   0  0  1  0  0  3  0  0  0  0  0  0
  189.7400  177.1430  139.5770 C   0  0  0  0  0  3  0  0  0  0  0  0
  190.5070  177.3000  140.8290 C   0  0  0  0  0  3  0  0  0  0  0  0
  185.6500  178.3700  144.3230 C   0  0  0  0  0  0  0  0  0  0  0  0
  186.4030  178.2250  145.4800 C   0  0  0  0  0  0  0  0  0  0  0  0
  183.5680  178.7810  140.5270 C   0  0  0  0  0  2  0  0  0  0  0  0
  185.7060  178.5320  139.3490 C   0  0  0  0  0  2  0  0  0  0  0  0
  188.2460  177.9220  146.8250 C   0  0  1  0  0  3  0  0  0  0  0  0
  188.4800  177.5810  139.4830 C   0  0  0  0  0  3  0  0  0  0  0  0
  186.3790  178.2250  140.6180 N   0  0  1  0  0  0  0  0  0  0  0  0
  187.8370  178.3530  140.6120 C   0  0  1  0  0  3  0  0  0  0  0  0
  187.7460  178.0880  143.0790 C   0  0  0  0  0  0  0  0  0  0  0  0
  187.0610  178.1060  147.6940 N   0  0  0  0  0  0  0  0  0  0  0  0
  184.2500  178.0980  139.3600 C   0  0  2  0  0  3  0  0  0  0  0  0
  185.9700  178.2930  146.8170 N   0  0  0  0  0  0  0  0  0  0  0  0
  189.9030  177.6970  141.9540 C   0  0  0  0  0  3  0  0  0  0  0  0
  188.4570  178.0140  141.9430 C   0  0  2  0  0  3  0  0  0  0  0  0
  188.4020  177.9450  144.2730 N   0  0  0  0  0  0  0  0  0  0  0  0
  184.1400  178.2330  141.8230 C   0  0  0  0  0  2  0  0  0  0  0  0
  184.2850  178.6220  144.4470 O   0  0  0  0  0  1  0  0  0  0  0  0
  188.8490  176.5530  147.0740 C   0  0  0  0  0  1  0  0  0  0  0  0
  186.3180  178.2750  143.0600 C   0  0  0  0  0  0  0  0  0  0  0  0
  187.7230  178.0040  145.4400 C   0  0  0  0  0  0  0  0  0  0  0  0
  182.7160  177.4220  137.4170 C   0  0  2  0  0  3  0  0  0  0  0  0
  183.5830  178.5150  138.0530 C   0  0  1  0  0  3  0  0  0  0  0  0
  182.0780  178.5360  138.2260 C   0  0  1  0  0  3  0  0  0  0  0  0
  181.5100  179.5130  137.3300 N   0  0  0  0  0  0  0  0  0  0  0  0
  180.9610  180.6050  137.7370 C   0  0  0  0  0  0  0  0  0  0  0  0
  180.8650  180.9570  139.1890 C   0  0  0  0  0  1  0  0  0  0  0  0
  180.4020  181.5540  136.7340 C   0  0  0  0  0  1  0  0  0  0  0  0
  182.7050  176.2410  138.1660 O   0  0  0  0  0  0  0  0  0  0  0  0
  181.4850  175.6410  137.8570 C   0  0  0  0  0  1  0  0  0  0  0  0
  1 19  1  1  0  0  0
  1 22  1  0  0  0  0
  2  3  1  0  0  0  0
  3 16  2  0  0  0  0
  4 20  1  0  0  0  0
  4  5  1  0  0  0  0
  5 15  1  0  0  0  0
  6 19  1  0  0  0  0
  8 21  1  6  0  0  0
  8 13  1  0  0  0  0
  9  2  2  0  0  0  0
 10  7  1  6  0  0  0
 10  1  1  0  0  0  0
 11  9  1  6  0  0  0
 11 10  1  0  0  0  0
 11 17  1  0  0  0  0
 12 18  2  0  0  0  0
 14  7  1  6  0  0  0
 14  6  1  0  0  0  0
 15 13  2  0  0  0  0
 17 16  1  1  0  0  0
 17 12  1  0  0  0  0
 18 23  1  0  0  0  0
 22 12  1  0  0  0  0
 22  4  2  0  0  0  0
 23  5  2  0  0  0  0
 23  8  1  0  0  0  0
 24 25  1  0  0  0  0
 24 31  1  1  0  0  0
 24 26  1  0  0  0  0
 25 26  1  0  0  0  0
 25 14  1  1  0  0  0
 26 27  1  6  0  0  0
 27 28  2  0  0  0  0
 28 29  1  0  0  0  0
 30 28  1  0  0  0  0
 32 31  1  0  0  0  0
M  END
>  <MODEL>
8

>  <REMARK>
 VINA RESULT:      -8.0      2.191      2.898
  Name = 
  3 active torsions:
  status: ('A' for Active; 'I' for Inactive)
    1  A    between atoms: C_1  and  O_16
    2  A    between atoms: C_10  and  C_17
    3  A    between atoms: C_20  and  N_29
                            x       y       z     vdW  Elec       q    Type
                         _______ _______ _______ _____ _____    ______ ____

>  <TORSDO>
F 3

$$$$
=
 OpenBabel11122410363D

 32 37  0  0  1  0  0  0  0  0999 V2000
  186.7650  177.9750  141.5870 C   0  0  1  0  0  3  0  0  0  0  0  0
  189.1570  178.7190  137.4560 C   0  0  0  0  0  3  0  0  0  0  0  0
  187.8830  178.8330  136.7190 C   0  0  0  0  0  3  0  0  0  0  0  0
  184.3490  178.4130  141.6470 C   0  0  0  0  0  0  0  0  0  0  0  0
  183.2310  178.8050  140.9250 C   0  0  0  0  0  0  0  0  0  0  0  0
  188.0260  177.2000  143.6290 C   0  0  0  0  0  2  0  0  0  0  0  0
  189.1830  177.2410  141.4660 C   0  0  0  0  0  2  0  0  0  0  0  0
  181.9370  179.4070  139.1190 C   0  0  1  0  0  3  0  0  0  0  0  0
  189.1870  178.2480  138.7080 C   0  0  0  0  0  3  0  0  0  0  0  0
  187.9900  177.8120  140.8280 N   0  0  1  0  0  0  0  0  0  0  0  0
  187.9380  177.7110  139.3690 C   0  0  1  0  0  3  0  0  0  0  0  0
  185.5800  178.4720  139.5250 C   0  0  0  0  0  0  0  0  0  0  0  0
  181.0740  179.3840  140.3230 N   0  0  0  0  0  0  0  0  0  0  0  0
  189.2920  177.6430  142.9270 C   0  0  2  0  0  3  0  0  0  0  0  0
  181.9180  179.0020  141.3900 N   0  0  0  0  0  0  0  0  0  0  0  0
  186.7140  178.6630  137.3460 C   0  0  0  0  0  3  0  0  0  0  0  0
  186.6910  178.3250  138.7870 C   0  0  2  0  0  3  0  0  0  0  0  0
  184.4260  178.8670  138.9000 N   0  0  0  0  0  0  0  0  0  0  0  0
  186.8570  178.0110  143.0960 C   0  0  0  0  0  2  0  0  0  0  0  0
  184.2070  178.1680  143.0110 O   0  0  0  0  0  1  0  0  0  0  0  0
  181.9590  180.8100  138.5400 C   0  0  0  0  0  1  0  0  0  0  0  0
  185.5910  178.2610  140.9490 C   0  0  0  0  0  0  0  0  0  0  0  0
  183.2870  179.0360  139.6070 C   0  0  0  0  0  0  0  0  0  0  0  0
  191.7280  177.8630  143.7040 C   0  0  2  0  0  3  0  0  0  0  0  0
  190.5010  176.9560  143.5550 C   0  0  1  0  0  3  0  0  0  0  0  0
  190.8210  177.5970  144.8910 C   0  0  1  0  0  3  0  0  0  0  0  0
  191.4370  176.6180  145.7530 N   0  0  0  0  0  0  0  0  0  0  0  0
  191.1090  176.4650  146.9900 C   0  0  0  0  0  0  0  0  0  0  0  0
  190.0510  177.3000  147.6450 C   0  0  0  0  0  1  0  0  0  0  0  0
  191.8020  175.4260  147.8010 C   0  0  0  0  0  1  0  0  0  0  0  0
  191.5000  179.1580  143.2280 O   0  0  0  0  0  0  0  0  0  0  0  0
  191.5200  179.9610  144.3680 C   0  0  0  0  0  1  0  0  0  0  0  0
  1 19  1  1  0  0  0
  2  9  2  0  0  0  0
  3 16  2  0  0  0  0
  3  2  1  0  0  0  0
  4 20  1  0  0  0  0
  5 15  1  0  0  0  0
  5  4  2  0  0  0  0
  8 21  1  1  0  0  0
  8 23  1  0  0  0  0
  8 13  1  0  0  0  0
 10  7  1  1  0  0  0
 10  1  1  0  0  0  0
 11  9  1  6  0  0  0
 11 10  1  0  0  0  0
 12 22  2  0  0  0  0
 13 15  2  0  0  0  0
 14  7  1  6  0  0  0
 14  6  1  0  0  0  0
 17 16  1  6  0  0  0
 17 11  1  0  0  0  0
 17 12  1  0  0  0  0
 18 12  1  0  0  0  0
 18 23  2  0  0  0  0
 19  6  1  0  0  0  0
 22  1  1  0  0  0  0
 22  4  1  0  0  0  0
 23  5  1  0  0  0  0
 24 31  1  6  0  0  0
 24 26  1  0  0  0  0
 25 14  1  6  0  0  0
 25 24  1  0  0  0  0
 25 26  1  0  0  0  0
 26 27  1  1  0  0  0
 27 28  2  0  0  0  0
 28 29  1  0  0  0  0
 28 30  1  0  0  0  0
 31 32  1  0  0  0  0
M  END
>  <MODEL>
9

>  <REMARK>
 VINA RESULT:      -7.8      2.117      8.152
  Name = 
  3 active torsions:
  status: ('A' for Active; 'I' for Inactive)
    1  A    between atoms: C_1  and  O_16
    2  A    between atoms: C_10  and  C_17
    3  A    between atoms: C_20  and  N_29
                            x       y       z     vdW  Elec       q    Type
                         _______ _______ _______ _____ _____    ______ ____

>  <TORSDO>
F 3

$$$$
