=
 OpenBabel11122410293D

 30 35  0  0  1  0  0  0  0  0999 V2000
  185.9810  178.3790  142.0260 C   0  0  0  0  0  0  0  0  0  0  0  0
  183.5340  178.7700  141.9160 C   0  0  0  0  0  0  0  0  0  0  0  0
  185.9000  178.1820  146.1360 N   0  0  0  0  0  2  0  0  0  0  0  0
  187.1480  178.1130  142.7920 C   0  0  0  0  0  0  0  0  0  0  0  0
  186.0800  178.4580  140.6330 O   0  0  0  0  0  0  0  0  0  0  0  0
  189.5410  177.7480  140.0730 O   0  0  0  0  0  0  0  0  0  0  0  0
  190.1200  177.9630  143.7970 C   0  0  1  0  0  3  0  0  0  0  0  0
  188.4720  178.0110  140.6890 C   0  0  0  0  0  0  0  0  0  0  0  0
  189.4260  178.0270  145.1500 C   0  0  2  0  0  3  0  0  0  0  0  0
  187.2270  178.0180  146.3210 C   0  0  0  0  0  0  0  0  0  0  0  0
  187.3250  178.6490  139.9570 C   0  0  1  0  0  3  0  0  0  0  0  0
  188.3670  177.7710  142.1020 N   0  0  0  0  0  0  0  0  0  0  0  0
  182.3090  178.9140  142.5760 C   0  0  0  0  0  3  0  0  0  0  0  0
  190.0830  176.9530  145.9930 C   0  0  0  0  0  2  0  0  0  0  0  0
  191.5210  177.4480  144.0880 C   0  0  0  0  0  2  0  0  0  0  0  0
  183.5460  178.8600  140.5640 F   0  0  0  0  0  0  0  0  0  0  0  0
  185.7930  178.2330  144.7970 C   0  0  0  0  0  0  0  0  0  0  0  0
  182.2370  178.8310  143.9670 C   0  0  0  0  0  3  0  0  0  0  0  0
  184.7160  178.5340  142.6560 C   0  0  0  0  0  0  0  0  0  0  0  0
  187.0210  178.0890  144.1990 C   0  0  0  0  0  0  0  0  0  0  0  0
  187.7410  177.9770  147.4700 O   0  0  0  0  0  0  0  0  0  0  0  0
  187.9540  177.9410  145.1740 N   0  0  0  0  0  0  0  0  0  0  0  0
  191.5160  176.8970  145.5070 C   0  0  0  0  0  2  0  0  0  0  0  0
  189.0350  175.6850  143.2460 C   0  0  0  0  0  1  0  0  0  0  0  0
  183.3920  178.6000  144.7130 C   0  0  0  0  0  3  0  0  0  0  0  0
  184.6260  178.4500  144.0700 C   0  0  0  0  0  0  0  0  0  0  0  0
  189.4570  177.0680  142.7590 C   0  0  2  0  0  3  0  0  0  0  0  0
  187.2500  178.2680  138.5980 O   0  0  0  0  0  0  0  0  0  0  0  0
  185.7190  177.0810  137.2100 C   0  0  0  0  0  1  0  0  0  0  0  0
  185.8980  178.1850  138.2310 C   0  0  0  0  0  2  0  0  0  0  0  0
  1 19  2  0  0  0  0
  1  4  1  0  0  0  0
  2 13  2  0  0  0  0
  2 19  1  0  0  0  0
  3 10  1  0  0  0  0
  4 20  2  0  0  0  0
  5  1  1  0  0  0  0
  6  8  2  0  0  0  0
  7 15  1  1  0  0  0
  7  9  1  0  0  0  0
  8 12  1  0  0  0  0
  9 22  1  0  0  0  0
  9 14  1  1  0  0  0
 10 21  2  0  0  0  0
 11 28  1  6  0  0  0
 11  5  1  0  0  0  0
 11  8  1  0  0  0  0
 12 27  1  0  0  0  0
 12  4  1  0  0  0  0
 13 18  1  0  0  0  0
 15 23  1  0  0  0  0
 16  2  1  0  0  0  0
 17  3  1  0  0  0  0
 18 25  2  0  0  0  0
 19 26  1  0  0  0  0
 20 17  1  0  0  0  0
 20 22  1  0  0  0  0
 22 10  1  0  0  0  0
 23 14  1  0  0  0  0
 26 25  1  0  0  0  0
 26 17  2  0  0  0  0
 27 24  1  1  0  0  0
 27  7  1  0  0  0  0
 29 30  1  0  0  0  0
 30 28  1  0  0  0  0
M  END
>  <MODEL>
1

>  <REMARK>
 VINA RESULT:     -10.4      0.000      0.000
  Name = 
  2 active torsions:
  status: ('A' for Active; 'I' for Inactive)
    1  A    between atoms: C_11  and  O_28
    2  A    between atoms: O_28  and  C_30
                            x       y       z     vdW  Elec       q    Type
                         _______ _______ _______ _____ _____    ______ ____

>  <TORSDO>
F 2

$$$$
=
 OpenBabel11122410293D

 30 35  0  0  1  0  0  0  0  0999 V2000
  186.8070  178.3270  141.2370 C   0  0  0  0  0  0  0  0  0  0  0  0
  184.4540  178.7080  140.5490 C   0  0  0  0  0  0  0  0  0  0  0  0
  185.7560  178.1520  145.2110 N   0  0  0  0  0  2  0  0  0  0  0  0
  187.7600  178.0690  142.2580 C   0  0  0  0  0  0  0  0  0  0  0  0
  187.2330  178.4000  139.9060 O   0  0  0  0  0  0  0  0  0  0  0  0
  190.7300  177.6990  140.1850 O   0  0  0  0  0  0  0  0  0  0  0  0
  190.4100  177.9360  143.9390 C   0  0  1  0  0  3  0  0  0  0  0  0
  189.5440  177.9610  140.5290 C   0  0  0  0  0  0  0  0  0  0  0  0
  189.4160  178.0040  145.0890 C   0  0  2  0  0  3  0  0  0  0  0  0
  187.0020  177.9930  145.7060 C   0  0  0  0  0  0  0  0  0  0  0  0
  188.6020  178.5910  139.5420 C   0  0  1  0  0  3  0  0  0  0  0  0
  189.1090  177.7280  141.8780 N   0  0  0  0  0  0  0  0  0  0  0  0
  183.1080  178.8520  140.8990 C   0  0  0  0  0  3  0  0  0  0  0  0
  189.8570  176.9370  146.0700 C   0  0  0  0  0  2  0  0  0  0  0  0
  191.7040  177.4280  144.5560 C   0  0  0  0  0  2  0  0  0  0  0  0
  184.7860  178.7920  139.2370 F   0  0  0  0  0  0  0  0  0  0  0  0
  185.9690  178.1950  143.8850 C   0  0  0  0  0  0  0  0  0  0  0  0
  182.7090  178.7750  142.2340 C   0  0  0  0  0  3  0  0  0  0  0  0
  185.4280  178.4800  141.5480 C   0  0  0  0  0  0  0  0  0  0  0  0
  187.3040  178.0520  143.5960 C   0  0  0  0  0  0  0  0  0  0  0  0
  187.2300  177.9600  146.9450 O   0  0  0  0  0  0  0  0  0  0  0  0
  187.9810  177.9130  144.7640 N   0  0  0  0  0  0  0  0  0  0  0  0
  191.3650  176.8840  145.9360 C   0  0  0  0  0  2  0  0  0  0  0  0
  189.4920  175.6510  143.1610 C   0  0  0  0  0  1  0  0  0  0  0  0
  183.6550  178.5530  143.2340 C   0  0  0  0  0  3  0  0  0  0  0  0
  185.0060  178.4040  142.9020 C   0  0  0  0  0  0  0  0  0  0  0  0
  190.0140  177.0330  142.7790 C   0  0  2  0  0  3  0  0  0  0  0  0
  188.8520  178.2030  138.2070 O   0  0  0  0  0  0  0  0  0  0  0  0
  187.3260  178.5210  136.4030 C   0  0  0  0  0  1  0  0  0  0  0  0
  187.6550  177.7250  137.6490 C   0  0  0  0  0  2  0  0  0  0  0  0
  1 19  2  0  0  0  0
  1  4  1  0  0  0  0
  2 13  2  0  0  0  0
  2 19  1  0  0  0  0
  3 10  1  0  0  0  0
  4 20  2  0  0  0  0
  5  1  1  0  0  0  0
  6  8  2  0  0  0  0
  7 15  1  1  0  0  0
  7  9  1  0  0  0  0
  8 12  1  0  0  0  0
  9 14  1  1  0  0  0
 10 21  2  0  0  0  0
 11 28  1  6  0  0  0
 11  5  1  0  0  0  0
 11  8  1  0  0  0  0
 12  4  1  0  0  0  0
 12 27  1  0  0  0  0
 13 18  1  0  0  0  0
 15 23  1  0  0  0  0
 16  2  1  0  0  0  0
 17  3  1  0  0  0  0
 18 25  2  0  0  0  0
 19 26  1  0  0  0  0
 20 17  1  0  0  0  0
 20 22  1  0  0  0  0
 22  9  1  0  0  0  0
 22 10  1  0  0  0  0
 23 14  1  0  0  0  0
 26 25  1  0  0  0  0
 26 17  2  0  0  0  0
 27 24  1  1  0  0  0
 27  7  1  0  0  0  0
 29 30  1  0  0  0  0
 30 28  1  0  0  0  0
M  END
>  <MODEL>
2

>  <REMARK>
 VINA RESULT:     -10.0      1.071      1.200
  Name = 
  2 active torsions:
  status: ('A' for Active; 'I' for Inactive)
    1  A    between atoms: C_11  and  O_28
    2  A    between atoms: O_28  and  C_30
                            x       y       z     vdW  Elec       q    Type
                         _______ _______ _______ _____ _____    ______ ____

>  <TORSDO>
F 2

$$$$
=
 OpenBabel11122410293D

 30 35  0  0  1  0  0  0  0  0999 V2000
  186.7350  177.7900  145.0590 C   0  0  0  0  0  0  0  0  0  0  0  0
  184.3810  178.4470  145.4850 C   0  0  0  0  0  0  0  0  0  0  0  0
  186.3720  178.5940  141.0400 N   0  0  0  0  0  2  0  0  0  0  0  0
  187.8260  177.6500  144.1600 C   0  0  0  0  0  0  0  0  0  0  0  0
  186.9170  177.4750  146.4100 O   0  0  0  0  0  0  0  0  0  0  0  0
  190.3790  176.5820  146.5270 O   0  0  0  0  0  0  0  0  0  0  0  0
  190.4650  176.6860  142.7540 C   0  0  1  0  0  3  0  0  0  0  0  0
  189.2500  176.8830  146.0500 C   0  0  0  0  0  0  0  0  0  0  0  0
  189.6910  177.1150  141.5150 C   0  0  2  0  0  3  0  0  0  0  0  0
  187.6170  178.2130  140.6810 C   0  0  0  0  0  0  0  0  0  0  0  0
  188.0120  176.6850  146.8790 C   0  0  1  0  0  3  0  0  0  0  0  0
  189.1310  177.3470  144.6950 N   0  0  0  0  0  0  0  0  0  0  0  0
  183.1610  178.9260  144.9980 C   0  0  0  0  0  3  0  0  0  0  0  0
  190.6690  177.9250  140.6880 C   0  0  0  0  0  2  0  0  0  0  0  0
  191.9170  176.6040  142.3120 C   0  0  0  0  0  2  0  0  0  0  0  0
  184.4770  178.1650  146.8080 F   0  0  0  0  0  0  0  0  0  0  0  0
  186.3760  178.3990  142.3690 C   0  0  0  0  0  0  0  0  0  0  0  0
  183.0050  179.2320  143.6460 C   0  0  0  0  0  3  0  0  0  0  0  0
  185.4760  178.2710  144.6070 C   0  0  0  0  0  0  0  0  0  0  0  0
  187.5950  177.9290  142.7940 C   0  0  0  0  0  0  0  0  0  0  0  0
  187.9910  178.2010  139.4780 O   0  0  0  0  0  0  0  0  0  0  0  0
  188.4070  177.8110  141.7130 N   0  0  0  0  0  0  0  0  0  0  0  0
  192.0230  177.3050  140.9650 C   0  0  0  0  0  2  0  0  0  0  0  0
  190.5290  179.1030  143.6620 C   0  0  0  0  0  1  0  0  0  0  0  0
  184.0720  179.0630  142.7650 C   0  0  0  0  0  3  0  0  0  0  0  0
  185.3020  178.5880  143.2340 C   0  0  0  0  0  0  0  0  0  0  0  0
  190.3530  177.6160  143.9540 C   0  0  2  0  0  3  0  0  0  0  0  0
  188.2340  176.8610  148.2630 O   0  0  0  0  0  0  0  0  0  0  0  0
  189.5560  178.7080  148.9850 C   0  0  0  0  0  1  0  0  0  0  0  0
  188.1840  178.2340  148.5530 C   0  0  0  0  0  2  0  0  0  0  0  0
  1  5  1  0  0  0  0
  2 16  1  0  0  0  0
  3 17  1  0  0  0  0
  4 12  1  0  0  0  0
  4  1  2  0  0  0  0
  5 11  1  0  0  0  0
  7 15  1  6  0  0  0
  7 27  1  0  0  0  0
  8  6  2  0  0  0  0
  8 11  1  0  0  0  0
  9 14  1  1  0  0  0
  9 22  1  0  0  0  0
  9  7  1  0  0  0  0
 10  3  1  0  0  0  0
 10 22  1  0  0  0  0
 11 28  1  1  0  0  0
 12  8  1  0  0  0  0
 13  2  1  0  0  0  0
 14 23  1  0  0  0  0
 17 20  2  0  0  0  0
 17 26  1  0  0  0  0
 18 13  2  0  0  0  0
 19  1  1  0  0  0  0
 19  2  2  0  0  0  0
 20  4  1  0  0  0  0
 21 10  2  0  0  0  0
 22 20  1  0  0  0  0
 23 15  1  0  0  0  0
 25 26  2  0  0  0  0
 25 18  1  0  0  0  0
 26 19  1  0  0  0  0
 27 24  1  6  0  0  0
 27 12  1  0  0  0  0
 28 30  1  0  0  0  0
 30 29  1  0  0  0  0
M  END
>  <MODEL>
3

>  <REMARK>
 VINA RESULT:      -9.5      1.973      5.319
  Name = 
  2 active torsions:
  status: ('A' for Active; 'I' for Inactive)
    1  A    between atoms: C_11  and  O_28
    2  A    between atoms: O_28  and  C_30
                            x       y       z     vdW  Elec       q    Type
                         _______ _______ _______ _____ _____    ______ ____

>  <TORSDO>
F 2

$$$$
=
 OpenBabel11122410293D

 30 35  0  0  1  0  0  0  0  0999 V2000
  189.9240  177.7470  142.5860 C   0  0  0  0  0  0  0  0  0  0  0  0
  191.4310  177.3180  140.6630 C   0  0  0  0  0  0  0  0  0  0  0  0
  186.7110  178.3870  140.0960 N   0  0  0  0  0  2  0  0  0  0  0  0
  188.6240  178.0250  143.0880 C   0  0  0  0  0  0  0  0  0  0  0  0
  190.9810  177.5650  143.4850 O   0  0  0  0  0  0  0  0  0  0  0  0
  189.3490  177.8780  146.6530 O   0  0  0  0  0  0  0  0  0  0  0  0
  186.2320  179.0260  144.8590 C   0  0  1  0  0  3  0  0  0  0  0  0
  189.5240  177.9130  145.4040 C   0  0  0  0  0  0  0  0  0  0  0  0
  185.5690  179.1470  143.4950 C   0  0  2  0  0  3  0  0  0  0  0  0
  185.8130  178.6890  141.0580 C   0  0  0  0  0  0  0  0  0  0  0  0
  190.9180  177.9930  144.8480 C   0  0  1  0  0  3  0  0  0  0  0  0
  188.4000  177.9480  144.5100 N   0  0  0  0  0  0  0  0  0  0  0  0
  191.6130  177.2040  139.2810 C   0  0  0  0  0  3  0  0  0  0  0  0
  184.1940  178.5310  143.6570 C   0  0  0  0  0  2  0  0  0  0  0  0
  185.0900  179.0480  145.8640 C   0  0  0  0  0  2  0  0  0  0  0  0
  192.5060  177.1280  141.4670 F   0  0  0  0  0  0  0  0  0  0  0  0
  187.8230  178.1240  140.8030 C   0  0  0  0  0  0  0  0  0  0  0  0
  190.5430  177.3910  138.4050 C   0  0  0  0  0  3  0  0  0  0  0  0
  190.1550  177.6230  141.1880 C   0  0  0  0  0  0  0  0  0  0  0  0
  187.5910  178.2530  142.1510 C   0  0  0  0  0  0  0  0  0  0  0  0
  184.6370  179.0490  140.7850 O   0  0  0  0  0  0  0  0  0  0  0  0
  186.2940  178.6100  142.3280 N   0  0  0  0  0  0  0  0  0  0  0  0
  183.7990  178.8290  145.0880 C   0  0  0  0  0  2  0  0  0  0  0  0
  186.4300  176.4610  144.6380 C   0  0  0  0  0  1  0  0  0  0  0  0
  189.2770  177.6940  138.9040 C   0  0  0  0  0  3  0  0  0  0  0  0
  189.0760  177.8090  140.2850 C   0  0  0  0  0  0  0  0  0  0  0  0
  187.0720  177.7750  145.0750 C   0  0  2  0  0  3  0  0  0  0  0  0
  191.8780  177.3370  145.6500 O   0  0  0  0  0  0  0  0  0  0  0  0
  192.0560  175.2830  146.8470 C   0  0  0  0  0  1  0  0  0  0  0  0
  191.6810  175.9500  145.5400 C   0  0  0  0  0  2  0  0  0  0  0  0
  1  4  1  0  0  0  0
  1  5  1  0  0  0  0
  2 19  1  0  0  0  0
  2 16  1  0  0  0  0
  3 17  1  0  0  0  0
  3 10  1  0  0  0  0
  4 12  1  0  0  0  0
  5 11  1  0  0  0  0
  7 27  1  0  0  0  0
  7 15  1  1  0  0  0
  8  6  2  0  0  0  0
  9 14  1  1  0  0  0
  9  7  1  0  0  0  0
 10 22  1  0  0  0  0
 11  8  1  0  0  0  0
 11 28  1  1  0  0  0
 12 27  1  0  0  0  0
 12  8  1  0  0  0  0
 13  2  2  0  0  0  0
 14 23  1  0  0  0  0
 17 20  1  0  0  0  0
 18 25  2  0  0  0  0
 18 13  1  0  0  0  0
 19  1  2  0  0  0  0
 20 22  1  0  0  0  0
 20  4  2  0  0  0  0
 21 10  2  0  0  0  0
 22  9  1  0  0  0  0
 23 15  1  0  0  0  0
 25 26  1  0  0  0  0
 26 17  2  0  0  0  0
 26 19  1  0  0  0  0
 27 24  1  6  0  0  0
 30 28  1  0  0  0  0
 30 29  1  0  0  0  0
M  END
>  <MODEL>
4

>  <REMARK>
 VINA RESULT:      -8.8      2.561      6.631
  Name = 
  2 active torsions:
  status: ('A' for Active; 'I' for Inactive)
    1  A    between atoms: C_11  and  O_28
    2  A    between atoms: O_28  and  C_30
                            x       y       z     vdW  Elec       q    Type
                         _______ _______ _______ _____ _____    ______ ____

>  <TORSDO>
F 2

$$$$
=
 OpenBabel11122410293D

 30 35  0  0  1  0  0  0  0  0999 V2000
  188.0550  177.9050  141.7010 C   0  0  0  0  0  0  0  0  0  0  0  0
  188.8390  177.5480  144.0280 C   0  0  0  0  0  0  0  0  0  0  0  0
  191.6910  176.7530  140.1580 N   0  0  0  0  0  2  0  0  0  0  0  0
  188.2930  177.8370  140.3030 C   0  0  0  0  0  0  0  0  0  0  0  0
  186.8040  178.3300  142.1630 O   0  0  0  0  0  0  0  0  0  0  0  0
  185.0050  178.8540  139.1160 O   0  0  0  0  0  0  0  0  0  0  0  0
  188.2260  178.3700  137.2080 C   0  0  1  0  0  3  0  0  0  0  0  0
  185.9710  178.6300  139.8960 C   0  0  0  0  0  0  0  0  0  0  0  0
  189.6710  177.9070  137.3270 C   0  0  2  0  0  3  0  0  0  0  0  0
  191.3930  176.9610  138.8580 C   0  0  0  0  0  0  0  0  0  0  0  0
  185.8770  179.0400  141.3380 C   0  0  1  0  0  3  0  0  0  0  0  0
  187.1890  178.0510  139.4000 N   0  0  0  0  0  0  0  0  0  0  0  0
  189.8540  177.1580  144.9080 C   0  0  0  0  0  3  0  0  0  0  0  0
  189.8740  176.9190  136.1960 C   0  0  0  0  0  2  0  0  0  0  0  0
  187.8870  178.2530  135.7300 C   0  0  0  0  0  2  0  0  0  0  0  0
  187.6540  177.9480  144.5540 F   0  0  0  0  0  0  0  0  0  0  0  0
  190.5430  177.0760  140.7790 C   0  0  0  0  0  0  0  0  0  0  0  0
  191.0920  176.7390  144.4220 C   0  0  0  0  0  3  0  0  0  0  0  0
  189.0580  177.5190  142.6320 C   0  0  0  0  0  0  0  0  0  0  0  0
  189.5830  177.4530  139.8720 C   0  0  0  0  0  0  0  0  0  0  0  0
  192.2490  176.8140  137.9450 O   0  0  0  0  0  0  0  0  0  0  0  0
  190.1180  177.3750  138.6270 N   0  0  0  0  0  0  0  0  0  0  0  0
  188.9780  177.4150  135.0790 C   0  0  0  0  0  2  0  0  0  0  0  0
  187.3300  176.0620  137.9400 C   0  0  0  0  0  1  0  0  0  0  0  0
  191.3290  176.7040  143.0480 C   0  0  0  0  0  3  0  0  0  0  0  0
  190.3240  177.0890  142.1530 C   0  0  0  0  0  0  0  0  0  0  0  0
  187.2120  177.5810  138.0240 C   0  0  2  0  0  3  0  0  0  0  0  0
  184.5610  178.9790  141.8510 O   0  0  0  0  0  0  0  0  0  0  0  0
  183.7650  178.9920  144.0970 C   0  0  0  0  0  1  0  0  0  0  0  0
  184.5840  178.2590  143.0570 C   0  0  0  0  0  2  0  0  0  0  0  0
  1  5  1  0  0  0  0
  1 19  1  0  0  0  0
  2 16  1  0  0  0  0
  2 13  1  0  0  0  0
  3 17  1  0  0  0  0
  4  1  2  0  0  0  0
  6  8  2  0  0  0  0
  7 15  1  6  0  0  0
  7  9  1  0  0  0  0
  7 27  1  0  0  0  0
  8 11  1  0  0  0  0
  9 14  1  6  0  0  0
  9 22  1  0  0  0  0
 10  3  1  0  0  0  0
 11 28  1  1  0  0  0
 11  5  1  0  0  0  0
 12  8  1  0  0  0  0
 12  4  1  0  0  0  0
 17 26  1  0  0  0  0
 18 13  2  0  0  0  0
 19  2  2  0  0  0  0
 20  4  1  0  0  0  0
 20 17  2  0  0  0  0
 21 10  2  0  0  0  0
 22 10  1  0  0  0  0
 22 20  1  0  0  0  0
 23 15  1  0  0  0  0
 23 14  1  0  0  0  0
 25 18  1  0  0  0  0
 26 19  1  0  0  0  0
 26 25  2  0  0  0  0
 27 24  1  1  0  0  0
 27 12  1  0  0  0  0
 28 30  1  0  0  0  0
 30 29  1  0  0  0  0
M  END
>  <MODEL>
5

>  <REMARK>
 VINA RESULT:      -8.6      2.717      6.668
  Name = 
  2 active torsions:
  status: ('A' for Active; 'I' for Inactive)
    1  A    between atoms: C_11  and  O_28
    2  A    between atoms: O_28  and  C_30
                            x       y       z     vdW  Elec       q    Type
                         _______ _______ _______ _____ _____    ______ ____

>  <TORSDO>
F 2

$$$$
=
 OpenBabel11122410293D

 30 35  0  0  1  0  0  0  0  0999 V2000
  187.7880  177.4820  143.0200 C   0  0  0  0  0  0  0  0  0  0  0  0
  186.8120  177.8970  145.2620 C   0  0  0  0  0  0  0  0  0  0  0  0
  184.5350  179.1650  141.1450 N   0  0  0  0  0  2  0  0  0  0  0  0
  187.7150  177.6110  141.6070 C   0  0  0  0  0  0  0  0  0  0  0  0
  188.9110  176.8760  143.5950 O   0  0  0  0  0  0  0  0  0  0  0  0
  190.9420  176.1680  140.7370 O   0  0  0  0  0  0  0  0  0  0  0  0
  188.0450  177.1380  138.5200 C   0  0  1  0  0  3  0  0  0  0  0  0
  189.9370  176.5090  141.4180 C   0  0  0  0  0  0  0  0  0  0  0  0
  186.6730  177.7970  138.5020 C   0  0  2  0  0  3  0  0  0  0  0  0
  184.9410  178.9440  139.8770 C   0  0  0  0  0  0  0  0  0  0  0  0
  189.8160  176.0600  142.8470 C   0  0  1  0  0  3  0  0  0  0  0  0
  188.8710  177.2630  140.8180 N   0  0  0  0  0  0  0  0  0  0  0  0
  185.7700  178.4070  146.0440 C   0  0  0  0  0  3  0  0  0  0  0  0
  186.7330  178.8260  137.3920 C   0  0  0  0  0  2  0  0  0  0  0  0
  188.5560  177.2370  137.0910 C   0  0  0  0  0  2  0  0  0  0  0  0
  187.8650  177.3240  145.8950 F   0  0  0  0  0  0  0  0  0  0  0  0
  185.5530  178.6710  141.8710 C   0  0  0  0  0  0  0  0  0  0  0  0
  184.6610  179.0060  145.4460 C   0  0  0  0  0  3  0  0  0  0  0  0
  186.7520  177.9850  143.8530 C   0  0  0  0  0  0  0  0  0  0  0  0
  186.5450  178.1820  141.0570 C   0  0  0  0  0  0  0  0  0  0  0  0
  184.2180  179.2280  138.8850 O   0  0  0  0  0  0  0  0  0  0  0  0
  186.1640  178.3590  139.7670 N   0  0  0  0  0  0  0  0  0  0  0  0
  187.6680  178.2330  136.3590 C   0  0  0  0  0  2  0  0  0  0  0  0
  189.1650  179.2820  139.4240 C   0  0  0  0  0  1  0  0  0  0  0  0
  184.5830  179.1020  144.0570 C   0  0  0  0  0  3  0  0  0  0  0  0
  185.6170  178.5990  143.2590 C   0  0  0  0  0  0  0  0  0  0  0  0
  189.0630  177.7600  139.4660 C   0  0  2  0  0  3  0  0  0  0  0  0
  191.0630  175.9260  143.4970 O   0  0  0  0  0  0  0  0  0  0  0  0
  191.6780  176.3760  145.7560 C   0  0  0  0  0  1  0  0  0  0  0  0
  191.1870  176.9540  144.4450 C   0  0  0  0  0  2  0  0  0  0  0  0
  1  5  1  0  0  0  0
  1 19  1  0  0  0  0
  2 16  1  0  0  0  0
  2 13  1  0  0  0  0
  3 17  1  0  0  0  0
  4  1  2  0  0  0  0
  6  8  2  0  0  0  0
  7 15  1  6  0  0  0
  7 27  1  0  0  0  0
  8 11  1  0  0  0  0
  9 14  1  6  0  0  0
  9  7  1  0  0  0  0
  9 22  1  0  0  0  0
 10  3  1  0  0  0  0
 11 28  1  1  0  0  0
 11  5  1  0  0  0  0
 12  8  1  0  0  0  0
 12  4  1  0  0  0  0
 17 26  1  0  0  0  0
 18 13  2  0  0  0  0
 19  2  2  0  0  0  0
 20  4  1  0  0  0  0
 20 17  2  0  0  0  0
 21 10  2  0  0  0  0
 22 10  1  0  0  0  0
 22 20  1  0  0  0  0
 23 15  1  0  0  0  0
 23 14  1  0  0  0  0
 25 18  1  0  0  0  0
 26 19  1  0  0  0  0
 26 25  2  0  0  0  0
 27 24  1  1  0  0  0
 27 12  1  0  0  0  0
 28 30  1  0  0  0  0
 30 29  1  0  0  0  0
M  END
>  <MODEL>
6

>  <REMARK>
 VINA RESULT:      -8.4      2.483      5.715
  Name = 
  2 active torsions:
  status: ('A' for Active; 'I' for Inactive)
    1  A    between atoms: C_11  and  O_28
    2  A    between atoms: O_28  and  C_30
                            x       y       z     vdW  Elec       q    Type
                         _______ _______ _______ _____ _____    ______ ____

>  <TORSDO>
F 2

$$$$
=
 OpenBabel11122410293D

 30 35  0  0  1  0  0  0  0  0999 V2000
  186.2320  178.4200  143.0390 C   0  0  0  0  0  0  0  0  0  0  0  0
  188.4630  177.8780  143.9780 C   0  0  0  0  0  0  0  0  0  0  0  0
  187.6440  178.1540  139.1830 N   0  0  0  0  0  2  0  0  0  0  0  0
  185.3860  178.5960  141.9110 C   0  0  0  0  0  0  0  0  0  0  0  0
  185.6960  178.5500  144.3250 O   0  0  0  0  0  0  0  0  0  0  0  0
  182.2400  179.1800  143.6490 O   0  0  0  0  0  0  0  0  0  0  0  0
  183.0900  179.5440  139.9890 C   0  0  1  0  0  3  0  0  0  0  0  0
  183.4750  179.0200  143.4460 C   0  0  0  0  0  0  0  0  0  0  0  0
  184.1810  179.3290  138.9500 C   0  0  2  0  0  3  0  0  0  0  0  0
  186.4940  178.4900  138.5610 C   0  0  0  0  0  0  0  0  0  0  0  0
  184.4460  179.1970  144.5790 C   0  0  1  0  0  3  0  0  0  0  0  0
  183.9670  178.7390  142.1260 N   0  0  0  0  0  0  0  0  0  0  0  0
  189.8070  177.5500  143.7720 C   0  0  0  0  0  3  0  0  0  0  0  0
  183.5200  178.5640  137.8220 C   0  0  0  0  0  2  0  0  0  0  0  0
  181.7890  179.5820  139.2030 C   0  0  0  0  0  2  0  0  0  0  0  0
  188.0200  177.9850  145.2560 F   0  0  0  0  0  0  0  0  0  0  0  0
  187.2960  178.1790  140.4810 C   0  0  0  0  0  0  0  0  0  0  0  0
  190.3180  177.4280  142.4790 C   0  0  0  0  0  3  0  0  0  0  0  0
  187.6050  178.0870  142.8750 C   0  0  0  0  0  0  0  0  0  0  0  0
  185.9710  178.5080  140.6280 C   0  0  0  0  0  0  0  0  0  0  0  0
  186.4260  178.6280  137.3100 O   0  0  0  0  0  0  0  0  0  0  0  0
  185.4400  178.7040  139.3940 N   0  0  0  0  0  0  0  0  0  0  0  0
  182.0850  179.0500  137.8090 C   0  0  0  0  0  2  0  0  0  0  0  0
  183.0430  177.0340  140.5930 C   0  0  0  0  0  1  0  0  0  0  0  0
  189.4870  177.6320  141.3780 C   0  0  0  0  0  3  0  0  0  0  0  0
  188.1390  177.9580  141.5660 C   0  0  0  0  0  0  0  0  0  0  0  0
  182.9960  178.4820  141.0750 C   0  0  2  0  0  3  0  0  0  0  0  0
  183.9110  178.8330  145.8350 O   0  0  0  0  0  0  0  0  0  0  0  0
  185.7110  179.3410  147.3140 C   0  0  0  0  0  1  0  0  0  0  0  0
  184.9320  178.2530  146.6050 C   0  0  0  0  0  2  0  0  0  0  0  0
  1  5  1  0  0  0  0
  2 16  1  0  0  0  0
  3 17  1  0  0  0  0
  4 12  1  0  0  0  0
  4  1  2  0  0  0  0
  5 11  1  0  0  0  0
  7 15  1  6  0  0  0
  7 27  1  0  0  0  0
  8  6  2  0  0  0  0
  8 11  1  0  0  0  0
  9 14  1  6  0  0  0
  9 22  1  0  0  0  0
  9  7  1  0  0  0  0
 10  3  1  0  0  0  0
 10 22  1  0  0  0  0
 11 28  1  1  0  0  0
 12  8  1  0  0  0  0
 13  2  1  0  0  0  0
 17 20  2  0  0  0  0
 17 26  1  0  0  0  0
 18 13  2  0  0  0  0
 19  1  1  0  0  0  0
 19  2  2  0  0  0  0
 20  4  1  0  0  0  0
 21 10  2  0  0  0  0
 22 20  1  0  0  0  0
 23 14  1  0  0  0  0
 23 15  1  0  0  0  0
 25 26  2  0  0  0  0
 25 18  1  0  0  0  0
 26 19  1  0  0  0  0
 27 24  1  6  0  0  0
 27 12  1  0  0  0  0
 28 30  1  0  0  0  0
 30 29  1  0  0  0  0
M  END
>  <MODEL>
7

>  <REMARK>
 VINA RESULT:      -8.1      2.694      7.298
  Name = 
  2 active torsions:
  status: ('A' for Active; 'I' for Inactive)
    1  A    between atoms: C_11  and  O_28
    2  A    between atoms: O_28  and  C_30
                            x       y       z     vdW  Elec       q    Type
                         _______ _______ _______ _____ _____    ______ ____

>  <TORSDO>
F 2

$$$$
=
 OpenBabel11122410293D

 30 35  0  0  1  0  0  0  0  0999 V2000
  186.5750  178.2010  141.6890 C   0  0  0  0  0  0  0  0  0  0  0  0
  186.4930  177.9390  144.1540 C   0  0  0  0  0  0  0  0  0  0  0  0
  190.5430  177.1180  141.5720 N   0  0  0  0  0  2  0  0  0  0  0  0
  187.2940  178.0990  140.4680 C   0  0  0  0  0  0  0  0  0  0  0  0
  185.2340  178.6000  141.6630 O   0  0  0  0  0  0  0  0  0  0  0  0
  184.6170  178.9760  138.1600 O   0  0  0  0  0  0  0  0  0  0  0  0
  188.3140  178.5370  137.5300 C   0  0  1  0  0  3  0  0  0  0  0  0
  185.2500  178.8060  139.2380 C   0  0  0  0  0  0  0  0  0  0  0  0
  189.6320  178.1240  138.1680 C   0  0  2  0  0  3  0  0  0  0  0  0
  190.7200  177.2780  140.2430 C   0  0  0  0  0  0  0  0  0  0  0  0
  184.6450  179.2550  140.5380 C   0  0  1  0  0  3  0  0  0  0  0  0
  186.5750  178.2510  139.2260 N   0  0  0  0  0  0  0  0  0  0  0  0
  187.1390  177.6070  145.3500 C   0  0  0  0  0  3  0  0  0  0  0  0
  190.2400  177.1100  137.2200 C   0  0  0  0  0  2  0  0  0  0  0  0
  188.5210  178.3650  136.0330 C   0  0  0  0  0  2  0  0  0  0  0  0
  185.1920  178.3160  144.2140 F   0  0  0  0  0  0  0  0  0  0  0  0
  189.2440  177.4230  141.7350 C   0  0  0  0  0  0  0  0  0  0  0  0
  188.4770  177.2130  145.3490 C   0  0  0  0  0  3  0  0  0  0  0  0
  187.1920  177.8750  142.9280 C   0  0  0  0  0  0  0  0  0  0  0  0
  188.6590  177.7430  140.5340 C   0  0  0  0  0  0  0  0  0  0  0  0
  191.8460  177.1320  139.6970 O   0  0  0  0  0  0  0  0  0  0  0  0
  189.6010  177.6450  139.5620 N   0  0  0  0  0  0  0  0  0  0  0  0
  189.7870  177.5440  135.8410 C   0  0  0  0  0  2  0  0  0  0  0  0
  187.2610  176.2250  137.9890 C   0  0  0  0  0  1  0  0  0  0  0  0
  189.1840  177.1450  144.1490 C   0  0  0  0  0  3  0  0  0  0  0  0
  188.5530  177.4710  142.9430 C   0  0  0  0  0  0  0  0  0  0  0  0
  187.0920  177.7410  137.9670 C   0  0  2  0  0  3  0  0  0  0  0  0
  183.2340  179.1680  140.5560 O   0  0  0  0  0  0  0  0  0  0  0  0
  181.7810  179.0030  142.4380 C   0  0  0  0  0  1  0  0  0  0  0  0
  182.8520  178.3240  141.6110 C   0  0  0  0  0  2  0  0  0  0  0  0
  1 19  1  0  0  0  0
  2 16  1  0  0  0  0
  2 13  1  0  0  0  0
  3 17  1  0  0  0  0
  4 20  1  0  0  0  0
  4  1  2  0  0  0  0
  5  1  1  0  0  0  0
  6  8  2  0  0  0  0
  7 15  1  6  0  0  0
  7 27  1  0  0  0  0
  7  9  1  0  0  0  0
  8 11  1  0  0  0  0
  9 14  1  6  0  0  0
  9 22  1  0  0  0  0
 10  3  1  0  0  0  0
 11 28  1  6  0  0  0
 11  5  1  0  0  0  0
 12  8  1  0  0  0  0
 12  4  1  0  0  0  0
 17 26  1  0  0  0  0
 18 13  2  0  0  0  0
 19 26  1  0  0  0  0
 19  2  2  0  0  0  0
 20 17  2  0  0  0  0
 21 10  2  0  0  0  0
 22 10  1  0  0  0  0
 22 20  1  0  0  0  0
 23 15  1  0  0  0  0
 23 14  1  0  0  0  0
 25 18  1  0  0  0  0
 26 25  2  0  0  0  0
 27 24  1  1  0  0  0
 27 12  1  0  0  0  0
 28 30  1  0  0  0  0
 30 29  1  0  0  0  0
M  END
>  <MODEL>
8

>  <REMARK>
 VINA RESULT:      -8.1      2.534      5.684
  Name = 
  2 active torsions:
  status: ('A' for Active; 'I' for Inactive)
    1  A    between atoms: C_11  and  O_28
    2  A    between atoms: O_28  and  C_30
                            x       y       z     vdW  Elec       q    Type
                         _______ _______ _______ _____ _____    ______ ____

>  <TORSDO>
F 2

$$$$
=
 OpenBabel11122410293D

 30 35  0  0  1  0  0  0  0  0999 V2000
  186.1150  178.0020  143.1860 C   0  0  0  0  0  0  0  0  0  0  0  0
  183.7980  178.6710  142.6060 C   0  0  0  0  0  0  0  0  0  0  0  0
  187.3520  178.4110  139.2830 N   0  0  0  0  0  2  0  0  0  0  0  0
  187.4650  177.7890  142.7960 C   0  0  0  0  0  0  0  0  0  0  0  0
  185.7530  177.8220  144.5260 O   0  0  0  0  0  0  0  0  0  0  0  0
  188.8770  176.9840  146.0540 O   0  0  0  0  0  0  0  0  0  0  0  0
  190.4140  176.7250  142.6150 C   0  0  1  0  0  3  0  0  0  0  0  0
  188.0280  177.2250  145.1520 C   0  0  0  0  0  0  0  0  0  0  0  0
  190.1900  177.0220  141.1400 C   0  0  2  0  0  3  0  0  0  0  0  0
  188.6280  178.0110  139.4690 C   0  0  0  0  0  0  0  0  0  0  0  0
  186.5620  177.0940  145.4530 C   0  0  1  0  0  3  0  0  0  0  0  0
  188.4530  177.5540  143.8190 N   0  0  0  0  0  0  0  0  0  0  0  0
  182.8720  179.0860  141.6430 C   0  0  0  0  0  3  0  0  0  0  0  0
  191.4320  177.7600  140.6830 C   0  0  0  0  0  2  0  0  0  0  0  0
  191.9220  176.6160  142.7790 C   0  0  0  0  0  2  0  0  0  0  0  0
  183.3680  178.5190  143.8830 F   0  0  0  0  0  0  0  0  0  0  0  0
  186.8380  178.3450  140.5220 C   0  0  0  0  0  0  0  0  0  0  0  0
  183.2590  179.2590  140.3130 C   0  0  0  0  0  3  0  0  0  0  0  0
  185.1410  178.4240  142.2400 C   0  0  0  0  0  0  0  0  0  0  0  0
  187.7850  177.9320  141.4270 C   0  0  0  0  0  0  0  0  0  0  0  0
  189.4370  177.8870  138.5110 O   0  0  0  0  0  0  0  0  0  0  0  0
  188.9480  177.7200  140.7590 N   0  0  0  0  0  0  0  0  0  0  0  0
  192.5570  177.1850  141.5180 C   0  0  0  0  0  2  0  0  0  0  0  0
  190.1880  179.2180  143.2470 C   0  0  0  0  0  1  0  0  0  0  0  0
  184.5780  179.0180  139.9330 C   0  0  0  0  0  3  0  0  0  0  0  0
  185.5190  178.6050  140.8830 C   0  0  0  0  0  0  0  0  0  0  0  0
  189.8730  177.7640  143.5870 C   0  0  2  0  0  3  0  0  0  0  0  0
  186.2370  177.4050  146.7920 O   0  0  0  0  0  0  0  0  0  0  0  0
  186.0860  179.6940  147.4390 C   0  0  0  0  0  1  0  0  0  0  0  0
  185.3800  178.5180  146.7980 C   0  0  0  0  0  2  0  0  0  0  0  0
  1  5  1  0  0  0  0
  2 16  1  0  0  0  0
  3 10  1  0  0  0  0
  3 17  1  0  0  0  0
  4  1  1  0  0  0  0
  4 12  1  0  0  0  0
  5 11  1  0  0  0  0
  7 15  1  6  0  0  0
  7 27  1  0  0  0  0
  8 11  1  0  0  0  0
  8  6  2  0  0  0  0
  9 14  1  1  0  0  0
  9  7  1  0  0  0  0
 10 22  1  0  0  0  0
 11 28  1  1  0  0  0
 12  8  1  0  0  0  0
 13  2  2  0  0  0  0
 14 23  1  0  0  0  0
 17 26  2  0  0  0  0
 17 20  1  0  0  0  0
 18 13  1  0  0  0  0
 19  2  1  0  0  0  0
 19  1  2  0  0  0  0
 20  4  2  0  0  0  0
 21 10  2  0  0  0  0
 22  9  1  0  0  0  0
 22 20  1  0  0  0  0
 23 15  1  0  0  0  0
 25 18  2  0  0  0  0
 25 26  1  0  0  0  0
 26 19  1  0  0  0  0
 27 24  1  6  0  0  0
 27 12  1  0  0  0  0
 28 30  1  0  0  0  0
 30 29  1  0  0  0  0
M  END
>  <MODEL>
9

>  <REMARK>
 VINA RESULT:      -8.0      1.970      4.981
  Name = 
  2 active torsions:
  status: ('A' for Active; 'I' for Inactive)
    1  A    between atoms: C_11  and  O_28
    2  A    between atoms: O_28  and  C_30
                            x       y       z     vdW  Elec       q    Type
                         _______ _______ _______ _____ _____    ______ ____

>  <TORSDO>
F 2

$$$$
