=
 OpenBabel11122411413D

 37 44  0  0  1  0  0  0  0  0999 V2000
  186.1630  178.4740  144.5310 C   0  0  2  0  0  3  0  0  0  0  0  0
  190.7770  177.7120  143.5480 C   0  0  0  0  0  0  0  0  0  0  0  0
  188.2210  177.6800  140.2370 C   0  0  0  0  0  0  0  0  0  0  0  0
  185.1130  177.9140  145.4660 C   0  0  2  0  0  3  0  0  0  0  0  0
  184.8310  179.5950  140.4790 C   0  0  0  0  0  2  0  0  0  0  0  0
  190.3460  177.0530  141.1920 C   0  0  0  0  0  0  0  0  0  0  0  0
  187.0070  178.3300  140.7380 C   0  0  0  0  0  0  0  0  0  0  0  0
  183.7020  179.1970  143.8830 C   0  0  2  0  0  3  0  0  0  0  0  0
  189.0650  177.5440  141.2970 C   0  0  0  0  0  0  0  0  0  0  0  0
  185.9270  178.6550  139.9890 C   0  0  0  0  0  0  0  0  0  0  0  0
  190.8150  176.6860  139.9250 C   0  0  0  0  0  3  0  0  0  0  0  0
  184.8960  179.2920  144.8490 C   0  0  2  0  0  3  0  0  0  0  0  0
  188.5620  178.0740  142.4890 N   0  0  0  0  0  0  0  0  0  0  0  0
  191.3660  179.1080  143.4630 C   0  0  0  0  0  1  0  0  0  0  0  0
  187.9650  177.8270  137.7320 C   0  0  0  0  0  3  0  0  0  0  0  0
  189.9900  176.8970  138.7970 C   0  0  0  0  0  3  0  0  0  0  0  0
  189.2460  177.8280  143.7600 C   0  0  0  0  0  2  0  0  0  0  0  0
  184.0700  178.8140  142.4550 C   0  0  1  0  0  3  0  0  0  0  0  0
  184.8450  179.8280  141.8620 O   0  0  0  0  0  0  0  0  0  0  0  0
  188.6870  177.4270  138.9400 C   0  0  0  0  0  0  0  0  0  0  0  0
  187.2000  178.5540  142.2500 C   0  0  2  0  0  3  0  0  0  0  0  0
  191.1230  176.9800  142.3540 O   0  0  0  0  0  0  0  0  0  0  0  0
  185.7090  178.0340  138.7000 N   0  0  0  0  0  0  0  0  0  0  0  0
  191.3810  177.0120  144.7460 C   0  0  0  0  0  1  0  0  0  0  0  0
  184.8500  177.5100  142.5300 C   0  0  0  0  0  2  0  0  0  0  0  0
  182.9880  180.3950  143.8920 O   0  0  0  0  0  1  0  0  0  0  0  0
  186.2220  177.7660  143.1590 C   0  0  2  0  0  3  0  0  0  0  0  0
  186.6670  178.1060  137.6310 C   0  0  0  0  0  3  0  0  0  0  0  0
  183.8560  177.6460  137.0970 C   0  0  0  0  0  3  0  0  0  0  0  0
  184.4040  177.5010  138.3840 C   0  0  0  0  0  0  0  0  0  0  0  0
  183.6680  176.7960  139.3530 C   0  0  0  0  0  3  0  0  0  0  0  0
  181.7150  175.5930  139.9960 F   0  0  0  0  0  0  0  0  0  0  0  0
  181.8790  176.4220  137.7680 C   0  0  0  0  0  3  0  0  0  0  0  0
  182.4120  176.2650  139.0480 C   0  0  0  0  0  0  0  0  0  0  0  0
  182.6010  177.1120  136.7920 C   0  0  0  0  0  3  0  0  0  0  0  0
  185.6400  179.4310  147.2170 O   0  0  0  0  0  1  0  0  0  0  0  0
  185.5800  178.0760  146.8970 C   0  0  0  0  0  2  0  0  0  0  0  0
  1 12  1  0  0  0  0
  1  4  1  0  0  0  0
  2 17  1  0  0  0  0
  2 24  1  0  0  0  0
  3  7  1  0  0  0  0
  3  9  1  0  0  0  0
  4 37  1  0  0  0  0
  5 19  1  0  0  0  0
  6  9  2  0  0  0  0
  6 22  1  0  0  0  0
  7 21  1  0  0  0  0
  8 26  1  0  0  0  0
  8 12  1  0  0  0  0
  9 13  1  0  0  0  0
 10  5  1  0  0  0  0
 10  7  2  0  0  0  0
 11  6  1  0  0  0  0
 12  4  1  0  0  0  0
 13 17  1  0  0  0  0
 14  2  1  0  0  0  0
 15 20  1  0  0  0  0
 16 20  1  0  0  0  0
 16 11  2  0  0  0  0
 18 25  1  0  0  0  0
 18  8  1  0  0  0  0
 19 18  1  0  0  0  0
 20  3  2  0  0  0  0
 21 13  1  0  0  0  0
 21 27  1  0  0  0  0
 22  2  1  0  0  0  0
 23 10  1  0  0  0  0
 25 27  1  0  0  0  0
 27  1  1  0  0  0  0
 28 15  2  0  0  0  0
 28 23  1  0  0  0  0
 29 30  1  0  0  0  0
 30 23  1  0  0  0  0
 30 31  2  0  0  0  0
 33 34  2  0  0  0  0
 34 31  1  0  0  0  0
 34 32  1  0  0  0  0
 35 29  2  0  0  0  0
 35 33  1  0  0  0  0
 37 36  1  0  0  0  0
M  END
>  <MODEL>
1

>  <REMARK>
 VINA RESULT:      -8.6      0.000      0.000
  Name = 
  2 active torsions:
  status: ('A' for Active; 'I' for Inactive)
    1  A    between atoms: C_4  and  C_37
    2  A    between atoms: N_23  and  C_30
                            x       y       z     vdW  Elec       q    Type
                         _______ _______ _______ _____ _____    ______ ____

>  <TORSDO>
F 2

$$$$
=
 OpenBabel11122411413D

 37 44  0  0  1  0  0  0  0  0999 V2000
  181.8040  178.9530  142.4690 C   0  0  2  0  0  3  0  0  0  0  0  0
  185.2790  178.5260  145.7200 C   0  0  0  0  0  0  0  0  0  0  0  0
  186.5030  178.1160  141.7410 C   0  0  0  0  0  0  0  0  0  0  0  0
  180.4380  178.3560  142.2090 C   0  0  2  0  0  3  0  0  0  0  0  0
  184.3320  179.7540  138.9450 C   0  0  0  0  0  2  0  0  0  0  0  0
  186.9570  177.7160  144.0770 C   0  0  0  0  0  0  0  0  0  0  0  0
  185.3880  178.6880  140.9820 C   0  0  0  0  0  0  0  0  0  0  0  0
  180.9040  179.4370  140.0280 C   0  0  2  0  0  3  0  0  0  0  0  0
  186.1270  178.1030  143.0500 C   0  0  0  0  0  0  0  0  0  0  0  0
  185.3720  178.8840  139.6420 C   0  0  0  0  0  0  0  0  0  0  0  0
  188.2640  177.3260  143.7630 C   0  0  0  0  0  3  0  0  0  0  0  0
  180.8060  179.6790  141.5450 C   0  0  2  0  0  3  0  0  0  0  0  0
  184.8600  178.6500  143.2780 N   0  0  0  0  0  0  0  0  0  0  0  0
  185.6800  179.9600  146.0140 C   0  0  0  0  0  1  0  0  0  0  0  0
  188.3970  178.1150  140.0760 C   0  0  0  0  0  3  0  0  0  0  0  0
  188.7060  177.4100  142.4230 C   0  0  0  0  0  3  0  0  0  0  0  0
  184.2200  178.5260  144.5890 C   0  0  0  0  0  2  0  0  0  0  0  0
  182.2850  179.0140  139.5410 C   0  0  1  0  0  3  0  0  0  0  0  0
  183.2100  180.0570  139.7300 O   0  0  0  0  0  0  0  0  0  0  0  0
  187.8320  177.8370  141.3970 C   0  0  0  0  0  0  0  0  0  0  0  0
  184.2640  179.0030  141.9880 C   0  0  2  0  0  3  0  0  0  0  0  0
  186.4590  177.7660  145.3840 O   0  0  0  0  0  0  0  0  0  0  0  0
  186.3010  178.1830  138.7840 N   0  0  0  0  0  0  0  0  0  0  0  0
  184.6570  177.9400  146.9680 C   0  0  0  0  0  1  0  0  0  0  0  0
  182.6840  177.7840  140.3440 C   0  0  0  0  0  2  0  0  0  0  0  0
  180.4760  180.5710  139.3380 O   0  0  0  0  0  1  0  0  0  0  0  0
  182.9620  178.1850  141.7950 C   0  0  2  0  0  3  0  0  0  0  0  0
  187.7270  178.2800  138.9370 C   0  0  0  0  0  3  0  0  0  0  0  0
  186.3980  177.7680  136.3390 C   0  0  0  0  0  3  0  0  0  0  0  0
  185.8070  177.5290  137.5930 C   0  0  0  0  0  0  0  0  0  0  0  0
  184.7440  176.6120  137.6730 C   0  0  0  0  0  3  0  0  0  0  0  0
  183.2440  175.0880  136.6220 F   0  0  0  0  0  0  0  0  0  0  0  0
  184.8650  176.2170  135.2890 C   0  0  0  0  0  3  0  0  0  0  0  0
  184.2730  175.9640  136.5280 C   0  0  0  0  0  0  0  0  0  0  0  0
  185.9280  177.1180  135.1950 C   0  0  0  0  0  3  0  0  0  0  0  0
  179.6800  177.6020  144.3310 O   0  0  0  0  0  1  0  0  0  0  0  0
  179.5400  178.6280  143.3980 C   0  0  0  0  0  2  0  0  0  0  0  0
  2 14  1  0  0  0  0
  2 24  1  0  0  0  0
  3  9  1  0  0  0  0
  4  1  1  0  0  0  0
  4 37  1  0  0  0  0
  5 10  1  0  0  0  0
  5 19  1  0  0  0  0
  6 22  1  0  0  0  0
  7  3  1  0  0  0  0
  7 21  1  0  0  0  0
  8 12  1  0  0  0  0
  9 13  1  0  0  0  0
  9  6  2  0  0  0  0
 10  7  2  0  0  0  0
 11  6  1  0  0  0  0
 12  4  1  0  0  0  0
 12  1  1  0  0  0  0
 13 17  1  0  0  0  0
 15 20  1  0  0  0  0
 16 11  2  0  0  0  0
 17  2  1  0  0  0  0
 18 19  1  0  0  0  0
 18  8  1  0  0  0  0
 18 25  1  0  0  0  0
 20  3  2  0  0  0  0
 20 16  1  0  0  0  0
 21 13  1  0  0  0  0
 22  2  1  0  0  0  0
 23 28  1  0  0  0  0
 23 10  1  0  0  0  0
 25 27  1  0  0  0  0
 26  8  1  0  0  0  0
 27 21  1  0  0  0  0
 27  1  1  0  0  0  0
 28 15  2  0  0  0  0
 29 30  1  0  0  0  0
 30 31  2  0  0  0  0
 30 23  1  0  0  0  0
 33 34  2  0  0  0  0
 34 32  1  0  0  0  0
 34 31  1  0  0  0  0
 35 33  1  0  0  0  0
 35 29  2  0  0  0  0
 37 36  1  0  0  0  0
M  END
>  <MODEL>
2

>  <REMARK>
 VINA RESULT:      -8.4      2.332      4.164
  Name = 
  2 active torsions:
  status: ('A' for Active; 'I' for Inactive)
    1  A    between atoms: C_4  and  C_37
    2  A    between atoms: N_23  and  C_30
                            x       y       z     vdW  Elec       q    Type
                         _______ _______ _______ _____ _____    ______ ____

>  <TORSDO>
F 2

$$$$
=
 OpenBabel11122411413D

 37 44  0  0  1  0  0  0  0  0999 V2000
  187.0740  177.9260  139.0630 C   0  0  2  0  0  3  0  0  0  0  0  0
  187.9970  177.7440  143.7470 C   0  0  0  0  0  0  0  0  0  0  0  0
  184.0210  178.5740  142.7460 C   0  0  0  0  0  0  0  0  0  0  0  0
  187.6270  178.6290  137.8420 C   0  0  2  0  0  3  0  0  0  0  0  0
  182.6970  177.4260  139.2610 C   0  0  0  0  0  2  0  0  0  0  0  0
  185.7780  178.6540  144.3970 C   0  0  0  0  0  0  0  0  0  0  0  0
  183.9320  178.1670  141.3410 C   0  0  0  0  0  0  0  0  0  0  0  0
  185.4600  177.8040  136.9700 C   0  0  2  0  0  3  0  0  0  0  0  0
  185.3250  178.4460  143.1140 C   0  0  0  0  0  0  0  0  0  0  0  0
  182.7960  178.1400  140.6040 C   0  0  0  0  0  0  0  0  0  0  0  0
  184.8460  179.0040  145.3820 C   0  0  0  0  0  3  0  0  0  0  0  0
  186.7720  177.3800  137.6530 C   0  0  2  0  0  3  0  0  0  0  0  0
  186.1520  177.9490  142.1010 N   0  0  0  0  0  0  0  0  0  0  0  0
  187.9230  176.2640  144.0750 C   0  0  0  0  0  1  0  0  0  0  0  0
  181.6080  178.6730  143.4740 C   0  0  0  0  0  3  0  0  0  0  0  0
  183.4750  179.0610  145.0440 C   0  0  0  0  0  3  0  0  0  0  0  0
  187.6060  177.9460  142.2610 C   0  0  0  0  0  2  0  0  0  0  0  0
  184.3450  178.2030  137.9300 C   0  0  1  0  0  3  0  0  0  0  0  0
  183.9340  177.0920  138.6900 O   0  0  0  0  0  0  0  0  0  0  0  0
  183.0440  178.8170  143.7200 C   0  0  0  0  0  0  0  0  0  0  0  0
  185.3550  177.7950  140.8820 C   0  0  2  0  0  3  0  0  0  0  0  0
  187.1420  178.4700  144.6550 O   0  0  0  0  0  0  0  0  0  0  0  0
  181.6300  178.8880  141.0200 N   0  0  0  0  0  0  0  0  0  0  0  0
  189.4240  178.2050  143.9420 C   0  0  0  0  0  1  0  0  0  0  0  0
  184.9020  179.2980  138.8280 C   0  0  0  0  0  2  0  0  0  0  0  0
  185.0210  176.7910  136.1170 O   0  0  0  0  0  1  0  0  0  0  0  0
  185.9470  178.7050  139.7760 C   0  0  2  0  0  3  0  0  0  0  0  0
  180.9930  178.6900  142.2930 C   0  0  0  0  0  3  0  0  0  0  0  0
  179.6000  179.4520  139.7090 C   0  0  0  0  0  3  0  0  0  0  0  0
  180.9380  179.7130  140.0560 C   0  0  0  0  0  0  0  0  0  0  0  0
  181.5830  180.8160  139.4690 C   0  0  0  0  0  3  0  0  0  0  0  0
  181.5530  182.6820  137.9880 F   0  0  0  0  0  0  0  0  0  0  0  0
  179.5890  181.3510  138.2080 C   0  0  0  0  0  3  0  0  0  0  0  0
  180.9140  181.6260  138.5480 C   0  0  0  0  0  0  0  0  0  0  0  0
  178.9310  180.2640  138.7900 C   0  0  0  0  0  3  0  0  0  0  0  0
  189.6860  178.1500  138.9280 O   0  0  0  0  0  1  0  0  0  0  0  0
  189.0870  178.2640  137.6740 C   0  0  0  0  0  2  0  0  0  0  0  0
  1 27  1  0  0  0  0
  2 24  1  0  0  0  0
  2 14  1  0  0  0  0
  2 22  1  0  0  0  0
  3  9  2  0  0  0  0
  3 20  1  0  0  0  0
  4  1  1  0  0  0  0
  5 10  1  0  0  0  0
  6 22  1  0  0  0  0
  6 11  2  0  0  0  0
  7  3  1  0  0  0  0
  8 12  1  0  0  0  0
  8 18  1  0  0  0  0
  9  6  1  0  0  0  0
 10 23  1  0  0  0  0
 10  7  2  0  0  0  0
 12  4  1  0  0  0  0
 12  1  1  0  0  0  0
 13 17  1  0  0  0  0
 13  9  1  0  0  0  0
 15 20  1  0  0  0  0
 16 11  1  0  0  0  0
 17  2  1  0  0  0  0
 18 19  1  0  0  0  0
 18 25  1  0  0  0  0
 19  5  1  0  0  0  0
 20 16  2  0  0  0  0
 21  7  1  0  0  0  0
 21 13  1  0  0  0  0
 23 28  1  0  0  0  0
 25 27  1  0  0  0  0
 26  8  1  0  0  0  0
 27 21  1  0  0  0  0
 28 15  2  0  0  0  0
 29 30  1  0  0  0  0
 30 23  1  0  0  0  0
 31 30  2  0  0  0  0
 32 34  1  0  0  0  0
 33 34  2  0  0  0  0
 33 35  1  0  0  0  0
 34 31  1  0  0  0  0
 35 29  2  0  0  0  0
 37  4  1  0  0  0  0
 37 36  1  0  0  0  0
M  END
>  <MODEL>
3

>  <REMARK>
 VINA RESULT:      -8.0      3.014      5.917
  Name = 
  2 active torsions:
  status: ('A' for Active; 'I' for Inactive)
    1  A    between atoms: C_4  and  C_37
    2  A    between atoms: N_23  and  C_30
                            x       y       z     vdW  Elec       q    Type
                         _______ _______ _______ _____ _____    ______ ____

>  <TORSDO>
F 2

$$$$
=
 OpenBabel11122411413D

 37 44  0  0  1  0  0  0  0  0999 V2000
  185.4210  178.2060  138.6200 C   0  0  2  0  0  3  0  0  0  0  0  0
  185.1690  178.6730  143.3680 C   0  0  0  0  0  0  0  0  0  0  0  0
  188.9530  177.7060  141.8720 C   0  0  0  0  0  0  0  0  0  0  0  0
  184.6930  177.4470  137.5310 C   0  0  2  0  0  3  0  0  0  0  0  0
  189.7880  178.6270  138.1750 C   0  0  0  0  0  2  0  0  0  0  0  0
  187.4450  177.7560  143.7540 C   0  0  0  0  0  0  0  0  0  0  0  0
  188.8490  178.0310  140.4470 C   0  0  0  0  0  0  0  0  0  0  0  0
  186.7260  178.1770  136.3180 C   0  0  2  0  0  3  0  0  0  0  0  0
  187.7160  177.8820  142.4110 C   0  0  0  0  0  0  0  0  0  0  0  0
  189.8700  177.9930  139.5580 C   0  0  0  0  0  0  0  0  0  0  0  0
  188.5020  177.4430  144.6180 C   0  0  0  0  0  3  0  0  0  0  0  0
  185.5280  178.6650  137.1520 C   0  0  2  0  0  3  0  0  0  0  0  0
  186.7610  178.3370  141.4950 N   0  0  0  0  0  0  0  0  0  0  0  0
  185.3050  180.1670  143.5940 C   0  0  0  0  0  1  0  0  0  0  0  0
  191.4430  177.5990  142.2600 C   0  0  0  0  0  3  0  0  0  0  0  0
  189.8110  177.3390  144.0950 C   0  0  0  0  0  3  0  0  0  0  0  0
  185.3430  178.3790  141.8560 C   0  0  0  0  0  2  0  0  0  0  0  0
  187.9600  177.8100  137.1350 C   0  0  1  0  0  3  0  0  0  0  0  0
  188.4880  178.9530  137.7630 O   0  0  0  0  0  0  0  0  0  0  0  0
  190.0550  177.4990  142.7120 C   0  0  0  0  0  0  0  0  0  0  0  0
  187.3800  178.4050  140.1700 C   0  0  2  0  0  3  0  0  0  0  0  0
  186.1340  177.9820  144.1890 O   0  0  0  0  0  0  0  0  0  0  0  0
  191.0740  177.2460  139.8510 N   0  0  0  0  0  0  0  0  0  0  0  0
  183.7770  178.2530  143.7870 C   0  0  0  0  0  1  0  0  0  0  0  0
  187.5220  176.7790  138.1650 C   0  0  0  0  0  2  0  0  0  0  0  0
  187.0530  179.1310  135.3540 O   0  0  0  0  0  1  0  0  0  0  0  0
  186.6280  177.4470  139.2130 C   0  0  2  0  0  3  0  0  0  0  0  0
  191.8860  177.5020  141.0080 C   0  0  0  0  0  3  0  0  0  0  0  0
  192.9330  176.5000  138.3860 C   0  0  0  0  0  3  0  0  0  0  0  0
  191.6130  176.3540  138.8490 C   0  0  0  0  0  0  0  0  0  0  0  0
  190.8350  175.2980  138.3420 C   0  0  0  0  0  3  0  0  0  0  0  0
  190.5900  173.4140  136.9050 F   0  0  0  0  0  0  0  0  0  0  0  0
  192.6650  174.5840  136.9310 C   0  0  0  0  0  3  0  0  0  0  0  0
  191.3560  174.4230  137.3860 C   0  0  0  0  0  0  0  0  0  0  0  0
  193.4550  175.6230  137.4310 C   0  0  0  0  0  3  0  0  0  0  0  0
  183.0450  178.9320  138.3840 O   0  0  0  0  0  1  0  0  0  0  0  0
  183.2280  177.8310  137.5480 C   0  0  0  0  0  2  0  0  0  0  0  0
  1 27  1  0  0  0  0
  2 14  1  0  0  0  0
  2 24  1  0  0  0  0
  2 22  1  0  0  0  0
  3  9  2  0  0  0  0
  3 20  1  0  0  0  0
  4 37  1  0  0  0  0
  4  1  1  0  0  0  0
  5 10  1  0  0  0  0
  6 22  1  0  0  0  0
  6 11  2  0  0  0  0
  7  3  1  0  0  0  0
  8 18  1  0  0  0  0
  8 12  1  0  0  0  0
  9  6  1  0  0  0  0
 10 23  1  0  0  0  0
 10  7  2  0  0  0  0
 12  4  1  0  0  0  0
 12  1  1  0  0  0  0
 13 17  1  0  0  0  0
 13  9  1  0  0  0  0
 15 20  1  0  0  0  0
 16 11  1  0  0  0  0
 17  2  1  0  0  0  0
 18 19  1  0  0  0  0
 18 25  1  0  0  0  0
 19  5  1  0  0  0  0
 20 16  2  0  0  0  0
 21  7  1  0  0  0  0
 21 13  1  0  0  0  0
 23 28  1  0  0  0  0
 25 27  1  0  0  0  0
 26  8  1  0  0  0  0
 27 21  1  0  0  0  0
 28 15  2  0  0  0  0
 29 30  1  0  0  0  0
 30 23  1  0  0  0  0
 31 30  2  0  0  0  0
 32 34  1  0  0  0  0
 33 34  2  0  0  0  0
 33 35  1  0  0  0  0
 34 31  1  0  0  0  0
 35 29  2  0  0  0  0
 37 36  1  0  0  0  0
M  END
>  <MODEL>
4

>  <REMARK>
 VINA RESULT:      -7.6      2.866      6.701
  Name = 
  2 active torsions:
  status: ('A' for Active; 'I' for Inactive)
    1  A    between atoms: C_4  and  C_37
    2  A    between atoms: N_23  and  C_30
                            x       y       z     vdW  Elec       q    Type
                         _______ _______ _______ _____ _____    ______ ____

>  <TORSDO>
F 2

$$$$
=
 OpenBabel11122411413D

 37 44  0  0  1  0  0  0  0  0999 V2000
  189.0520  177.3550  140.5920 C   0  0  2  0  0  3  0  0  0  0  0  0
  184.5140  178.3260  141.7310 C   0  0  0  0  0  0  0  0  0  0  0  0
  187.1450  178.0520  144.9710 C   0  0  0  0  0  0  0  0  0  0  0  0
  189.8030  176.3270  139.7740 C   0  0  2  0  0  3  0  0  0  0  0  0
  190.9430  178.6810  144.3480 C   0  0  0  0  0  2  0  0  0  0  0  0
  184.8710  177.9920  144.1660 C   0  0  0  0  0  0  0  0  0  0  0  0
  188.4650  178.1700  144.3490 C   0  0  0  0  0  0  0  0  0  0  0  0
  191.6530  177.3390  141.0750 C   0  0  2  0  0  3  0  0  0  0  0  0
  186.2320  178.0120  143.9620 C   0  0  0  0  0  0  0  0  0  0  0  0
  189.6410  178.2530  145.0160 C   0  0  0  0  0  0  0  0  0  0  0  0
  184.3960  178.0300  145.4830 C   0  0  0  0  0  3  0  0  0  0  0  0
  190.4890  177.6450  140.1160 C   0  0  2  0  0  3  0  0  0  0  0  0
  186.7950  178.1290  142.6870 N   0  0  0  0  0  0  0  0  0  0  0  0
  184.4090  179.8300  141.5530 C   0  0  0  0  0  1  0  0  0  0  0  0
  187.6040  178.5490  147.4010 C   0  0  0  0  0  3  0  0  0  0  0  0
  185.3200  178.1570  146.5450 C   0  0  0  0  0  3  0  0  0  0  0  0
  185.9840  177.8970  141.4910 C   0  0  0  0  0  2  0  0  0  0  0  0
  191.2800  177.3570  142.5520 C   0  0  1  0  0  3  0  0  0  0  0  0
  190.9120  178.6570  142.9470 O   0  0  0  0  0  0  0  0  0  0  0  0
  186.7110  178.1980  146.2960 C   0  0  0  0  0  0  0  0  0  0  0  0
  188.2520  178.1720  142.8220 C   0  0  2  0  0  3  0  0  0  0  0  0
  184.0340  177.9720  143.0450 O   0  0  0  0  0  0  0  0  0  0  0  0
  189.7360  177.8340  146.3970 N   0  0  0  0  0  0  0  0  0  0  0  0
  183.6380  177.6610  140.6920 C   0  0  0  0  0  1  0  0  0  0  0  0
  190.1210  176.3870  142.7310 C   0  0  0  0  0  2  0  0  0  0  0  0
  192.7100  178.2170  140.8340 O   0  0  0  0  0  1  0  0  0  0  0  0
  188.8630  176.9610  142.0730 C   0  0  2  0  0  3  0  0  0  0  0  0
  188.9270  178.4030  147.4390 C   0  0  0  0  0  3  0  0  0  0  0  0
  191.3980  177.0810  148.0790 C   0  0  0  0  0  3  0  0  0  0  0  0
  190.8220  176.9690  146.8000 C   0  0  0  0  0  0  0  0  0  0  0  0
  191.3010  175.9740  145.9310 C   0  0  0  0  0  3  0  0  0  0  0  0
  192.7930  174.1750  145.4680 F   0  0  0  0  0  0  0  0  0  0  0  0
  192.9070  175.2530  147.5900 C   0  0  0  0  0  3  0  0  0  0  0  0
  192.3400  175.1250  146.3210 C   0  0  0  0  0  0  0  0  0  0  0  0
  192.4350  176.2300  148.4700 C   0  0  0  0  0  3  0  0  0  0  0  0
  188.0570  176.9730  138.2980 O   0  0  0  0  0  1  0  0  0  0  0  0
  189.3150  176.3750  138.3410 C   0  0  0  0  0  2  0  0  0  0  0  0
  1 27  1  0  0  0  0
  2 22  1  0  0  0  0
  3 20  1  0  0  0  0
  4 12  1  0  0  0  0
  4  1  1  0  0  0  0
  5 10  1  0  0  0  0
  6 11  2  0  0  0  0
  7  3  1  0  0  0  0
  7 10  2  0  0  0  0
  8 18  1  0  0  0  0
  9  6  1  0  0  0  0
  9  3  2  0  0  0  0
 10 23  1  0  0  0  0
 11 16  1  0  0  0  0
 12  1  1  0  0  0  0
 12  8  1  0  0  0  0
 13 21  1  0  0  0  0
 13  9  1  0  0  0  0
 14  2  1  0  0  0  0
 15 28  2  0  0  0  0
 17  2  1  0  0  0  0
 17 13  1  0  0  0  0
 18 25  1  0  0  0  0
 18 19  1  0  0  0  0
 19  5  1  0  0  0  0
 20 16  2  0  0  0  0
 20 15  1  0  0  0  0
 21  7  1  0  0  0  0
 22  6  1  0  0  0  0
 23 30  1  0  0  0  0
 23 28  1  0  0  0  0
 24  2  1  0  0  0  0
 26  8  1  0  0  0  0
 27 25  1  0  0  0  0
 27 21  1  0  0  0  0
 29 35  1  0  0  0  0
 30 29  2  0  0  0  0
 31 34  2  0  0  0  0
 31 30  1  0  0  0  0
 32 34  1  0  0  0  0
 33 35  2  0  0  0  0
 34 33  1  0  0  0  0
 36 37  1  0  0  0  0
 37  4  1  0  0  0  0
M  END
>  <MODEL>
5

>  <REMARK>
 VINA RESULT:      -7.4      2.920      8.551
  Name = 
  2 active torsions:
  status: ('A' for Active; 'I' for Inactive)
    1  A    between atoms: C_4  and  C_37
    2  A    between atoms: N_23  and  C_30
                            x       y       z     vdW  Elec       q    Type
                         _______ _______ _______ _____ _____    ______ ____

>  <TORSDO>
F 2

$$$$
=
 OpenBabel11122411413D

 37 44  0  0  1  0  0  0  0  0999 V2000
  187.9480  177.7670  145.9730 C   0  0  2  0  0  3  0  0  0  0  0  0
  190.9830  177.0440  142.3540 C   0  0  0  0  0  0  0  0  0  0  0  0
  187.1000  178.1250  141.2340 C   0  0  0  0  0  0  0  0  0  0  0  0
  187.4860  177.0260  147.2090 C   0  0  2  0  0  3  0  0  0  0  0  0
  184.9010  180.0880  143.7880 C   0  0  0  0  0  2  0  0  0  0  0  0
  189.2060  177.1210  140.6200 C   0  0  0  0  0  0  0  0  0  0  0  0
  186.5310  178.6740  142.4670 C   0  0  0  0  0  0  0  0  0  0  0  0
  185.7580  178.7930  147.0450 C   0  0  2  0  0  3  0  0  0  0  0  0
  188.3320  177.6370  141.5480 C   0  0  0  0  0  0  0  0  0  0  0  0
  185.3180  179.2660  142.5740 C   0  0  0  0  0  0  0  0  0  0  0  0
  188.8160  177.1080  139.2750 C   0  0  0  0  0  3  0  0  0  0  0  0
  187.2720  178.5330  147.1280 C   0  0  2  0  0  3  0  0  0  0  0  0
  188.6900  177.8300  142.8860 N   0  0  0  0  0  0  0  0  0  0  0  0
  191.7150  178.3670  142.2240 C   0  0  0  0  0  1  0  0  0  0  0  0
  185.5580  179.0040  139.4430 C   0  0  0  0  0  3  0  0  0  0  0  0
  187.5780  177.6850  138.9120 C   0  0  0  0  0  3  0  0  0  0  0  0
  189.8840  177.1870  143.4380 C   0  0  0  0  0  2  0  0  0  0  0  0
  185.1940  178.8180  145.6300 C   0  0  1  0  0  3  0  0  0  0  0  0
  185.7160  179.9110  144.9150 O   0  0  0  0  0  0  0  0  0  0  0  0
  186.7150  178.2290  139.8910 C   0  0  0  0  0  0  0  0  0  0  0  0
  187.5600  178.4390  143.5900 C   0  0  2  0  0  3  0  0  0  0  0  0
  190.4540  176.6690  141.0650 O   0  0  0  0  0  0  0  0  0  0  0  0
  184.3040  179.0580  141.5620 N   0  0  0  0  0  0  0  0  0  0  0  0
  191.9740  175.9930  142.8030 C   0  0  0  0  0  1  0  0  0  0  0  0
  185.5850  177.5030  144.9710 C   0  0  0  0  0  2  0  0  0  0  0  0
  185.4430  179.9790  147.7100 O   0  0  0  0  0  1  0  0  0  0  0  0
  187.0950  177.4830  144.7170 C   0  0  2  0  0  3  0  0  0  0  0  0
  184.5110  179.3780  140.1770 C   0  0  0  0  0  3  0  0  0  0  0  0
  182.5260  178.9380  143.2890 C   0  0  0  0  0  3  0  0  0  0  0  0
  182.9590  178.7190  141.9690 C   0  0  0  0  0  0  0  0  0  0  0  0
  182.0460  178.1920  141.0390 C   0  0  0  0  0  3  0  0  0  0  0  0
  179.8740  177.3650  140.5140 F   0  0  0  0  0  0  0  0  0  0  0  0
  180.3260  178.0940  142.7370 C   0  0  0  0  0  3  0  0  0  0  0  0
  180.7400  177.8770  141.4220 C   0  0  0  0  0  0  0  0  0  0  0  0
  181.2190  178.6250  143.6710 C   0  0  0  0  0  3  0  0  0  0  0  0
  189.8440  176.7530  147.3260 O   0  0  0  0  0  1  0  0  0  0  0  0
  188.6800  176.7380  148.0940 C   0  0  0  0  0  2  0  0  0  0  0  0
  1 12  1  0  0  0  0
  1  4  1  0  0  0  0
  2 24  1  0  0  0  0
  2 17  1  0  0  0  0
  3  9  1  0  0  0  0
  3  7  1  0  0  0  0
  4 37  1  0  0  0  0
  5 19  1  0  0  0  0
  6 22  1  0  0  0  0
  6  9  2  0  0  0  0
  7 10  2  0  0  0  0
  7 21  1  0  0  0  0
  8 12  1  0  0  0  0
  8 26  1  0  0  0  0
  9 13  1  0  0  0  0
 10  5  1  0  0  0  0
 11  6  1  0  0  0  0
 12  4  1  0  0  0  0
 13 17  1  0  0  0  0
 13 21  1  0  0  0  0
 14  2  1  0  0  0  0
 15 20  1  0  0  0  0
 15 28  2  0  0  0  0
 16 11  2  0  0  0  0
 16 20  1  0  0  0  0
 18  8  1  0  0  0  0
 19 18  1  0  0  0  0
 20  3  2  0  0  0  0
 21 27  1  0  0  0  0
 22  2  1  0  0  0  0
 23 30  1  0  0  0  0
 23 10  1  0  0  0  0
 25 18  1  0  0  0  0
 27 25  1  0  0  0  0
 27  1  1  0  0  0  0
 28 23  1  0  0  0  0
 29 35  1  0  0  0  0
 30 29  2  0  0  0  0
 31 34  2  0  0  0  0
 31 30  1  0  0  0  0
 32 34  1  0  0  0  0
 33 35  2  0  0  0  0
 34 33  1  0  0  0  0
 36 37  1  0  0  0  0
M  END
>  <MODEL>
6

>  <REMARK>
 VINA RESULT:      -6.6      1.971      3.236
  Name = 
  2 active torsions:
  status: ('A' for Active; 'I' for Inactive)
    1  A    between atoms: C_4  and  C_37
    2  A    between atoms: N_23  and  C_30
                            x       y       z     vdW  Elec       q    Type
                         _______ _______ _______ _____ _____    ______ ____

>  <TORSDO>
F 2

$$$$
=
 OpenBabel11122411413D

 37 44  0  0  1  0  0  0  0  0999 V2000
  185.3940  178.5370  143.8410 C   0  0  2  0  0  3  0  0  0  0  0  0
  188.2470  177.7690  147.5960 C   0  0  0  0  0  0  0  0  0  0  0  0
  190.0370  177.2160  143.8560 C   0  0  0  0  0  0  0  0  0  0  0  0
  184.0320  178.0830  143.3610 C   0  0  2  0  0  3  0  0  0  0  0  0
  188.5170  179.0540  140.7710 C   0  0  0  0  0  2  0  0  0  0  0  0
  190.0720  176.7820  146.2290 C   0  0  0  0  0  0  0  0  0  0  0  0
  189.1220  177.8960  142.9370 C   0  0  0  0  0  0  0  0  0  0  0  0
  184.9470  179.0980  141.2940 C   0  0  2  0  0  3  0  0  0  0  0  0
  189.4600  177.2480  145.0890 C   0  0  0  0  0  0  0  0  0  0  0  0
  189.3390  178.0860  141.6140 C   0  0  0  0  0  0  0  0  0  0  0  0
  191.3660  176.2580  146.1220 C   0  0  0  0  0  3  0  0  0  0  0  0
  184.6350  179.3570  142.7790 C   0  0  2  0  0  3  0  0  0  0  0  0
  188.2350  177.9240  145.1200 N   0  0  0  0  0  0  0  0  0  0  0  0
  188.7420  179.1560  147.9660 C   0  0  0  0  0  1  0  0  0  0  0  0
  192.1610  177.0110  142.5110 C   0  0  0  0  0  3  0  0  0  0  0  0
  192.0200  176.2900  144.8700 C   0  0  0  0  0  3  0  0  0  0  0  0
  187.3870  177.8730  146.3110 C   0  0  0  0  0  2  0  0  0  0  0  0
  186.3370  178.5320  141.0270 C   0  0  1  0  0  3  0  0  0  0  0  0
  187.3220  179.4760  141.3720 O   0  0  0  0  0  0  0  0  0  0  0  0
  191.3690  176.7990  143.7230 C   0  0  0  0  0  0  0  0  0  0  0  0
  187.8910  178.3300  143.7560 C   0  0  2  0  0  3  0  0  0  0  0  0
  189.3810  176.8900  147.4420 O   0  0  0  0  0  0  0  0  0  0  0  0
  190.3150  177.2880  140.9050 N   0  0  0  0  0  0  0  0  0  0  0  0
  187.3780  177.2570  148.7230 C   0  0  0  0  0  1  0  0  0  0  0  0
  186.4750  177.2720  141.8680 C   0  0  0  0  0  2  0  0  0  0  0  0
  184.7520  180.2670  140.5580 O   0  0  0  0  0  1  0  0  0  0  0  0
  186.5590  177.6490  143.3500 C   0  0  2  0  0  3  0  0  0  0  0  0
  191.7010  177.2380  141.2830 C   0  0  0  0  0  3  0  0  0  0  0  0
  188.6650  176.8540  139.1030 C   0  0  0  0  0  3  0  0  0  0  0  0
  189.9520  176.6820  139.6440 C   0  0  0  0  0  0  0  0  0  0  0  0
  190.8930  175.9340  138.9150 C   0  0  0  0  0  3  0  0  0  0  0  0
  191.4710  174.6370  137.0020 F   0  0  0  0  0  0  0  0  0  0  0  0
  189.2690  175.5330  137.1680 C   0  0  0  0  0  3  0  0  0  0  0  0
  190.5530  175.3590  137.6880 C   0  0  0  0  0  0  0  0  0  0  0  0
  188.3250  176.2820  137.8750 C   0  0  0  0  0  3  0  0  0  0  0  0
  183.6020  179.1150  145.4580 O   0  0  0  0  0  1  0  0  0  0  0  0
  182.9900  178.4510  144.3960 C   0  0  0  0  0  2  0  0  0  0  0  0
  2 14  1  0  0  0  0
  2 24  1  0  0  0  0
  3  9  1  0  0  0  0
  4  1  1  0  0  0  0
  4 37  1  0  0  0  0
  5 19  1  0  0  0  0
  5 10  1  0  0  0  0
  6 22  1  0  0  0  0
  7 21  1  0  0  0  0
  7  3  1  0  0  0  0
  8 12  1  0  0  0  0
  9 13  1  0  0  0  0
  9  6  2  0  0  0  0
 10  7  2  0  0  0  0
 11  6  1  0  0  0  0
 12  4  1  0  0  0  0
 12  1  1  0  0  0  0
 13 17  1  0  0  0  0
 15 20  1  0  0  0  0
 16 11  2  0  0  0  0
 17  2  1  0  0  0  0
 18  8  1  0  0  0  0
 18 19  1  0  0  0  0
 18 25  1  0  0  0  0
 20  3  2  0  0  0  0
 20 16  1  0  0  0  0
 21 13  1  0  0  0  0
 22  2  1  0  0  0  0
 23 28  1  0  0  0  0
 23 10  1  0  0  0  0
 25 27  1  0  0  0  0
 26  8  1  0  0  0  0
 27 21  1  0  0  0  0
 27  1  1  0  0  0  0
 28 15  2  0  0  0  0
 29 30  1  0  0  0  0
 30 23  1  0  0  0  0
 31 30  2  0  0  0  0
 32 34  1  0  0  0  0
 33 34  2  0  0  0  0
 33 35  1  0  0  0  0
 34 31  1  0  0  0  0
 35 29  2  0  0  0  0
 37 36  1  0  0  0  0
M  END
>  <MODEL>
7

>  <REMARK>
 VINA RESULT:      -5.8      3.014      4.912
  Name = 
  2 active torsions:
  status: ('A' for Active; 'I' for Inactive)
    1  A    between atoms: C_4  and  C_37
    2  A    between atoms: N_23  and  C_30
                            x       y       z     vdW  Elec       q    Type
                         _______ _______ _______ _____ _____    ______ ____

>  <TORSDO>
F 2

$$$$
=
 OpenBabel11122411413D

 37 44  0  0  1  0  0  0  0  0999 V2000
  182.0250  178.6140  140.6570 C   0  0  2  0  0  3  0  0  0  0  0  0
  184.4510  179.2340  144.7260 C   0  0  0  0  0  0  0  0  0  0  0  0
  186.7590  178.0780  141.4350 C   0  0  0  0  0  0  0  0  0  0  0  0
  180.8050  177.8500  140.1880 C   0  0  2  0  0  3  0  0  0  0  0  0
  185.4220  178.8530  137.8540 C   0  0  0  0  0  2  0  0  0  0  0  0
  186.5460  178.2420  143.8330 C   0  0  0  0  0  0  0  0  0  0  0  0
  185.8890  178.3630  140.2920 C   0  0  0  0  0  0  0  0  0  0  0  0
  181.8380  178.4650  138.0220 C   0  0  2  0  0  3  0  0  0  0  0  0
  186.0300  178.3170  142.5590 C   0  0  0  0  0  0  0  0  0  0  0  0
  186.2470  178.2580  138.9900 C   0  0  0  0  0  0  0  0  0  0  0  0
  187.9000  177.9160  143.9830 C   0  0  0  0  0  3  0  0  0  0  0  0
  181.3090  179.0230  139.3540 C   0  0  2  0  0  3  0  0  0  0  0  0
  184.7350  178.7810  142.3030 N   0  0  0  0  0  0  0  0  0  0  0  0
  184.7130  180.7280  144.7690 C   0  0  0  0  0  1  0  0  0  0  0  0
  189.0460  177.8870  140.3880 C   0  0  0  0  0  3  0  0  0  0  0  0
  188.6990  177.7450  142.8290 C   0  0  0  0  0  3  0  0  0  0  0  0
  183.7550  178.8880  143.3850 C   0  0  0  0  0  2  0  0  0  0  0  0
  183.3120  178.0750  138.0370 C   0  0  1  0  0  3  0  0  0  0  0  0
  184.1160  179.2160  138.2150 O   0  0  0  0  0  0  0  0  0  0  0  0
  188.1390  177.8540  141.5360 C   0  0  0  0  0  0  0  0  0  0  0  0
  184.5180  178.7850  140.8560 C   0  0  2  0  0  3  0  0  0  0  0  0
  185.6980  178.5320  144.9090 O   0  0  0  0  0  0  0  0  0  0  0  0
  187.4000  177.4750  138.6030 N   0  0  0  0  0  0  0  0  0  0  0  0
  183.5180  178.8800  145.8630 C   0  0  0  0  0  1  0  0  0  0  0  0
  183.5020  177.0940  139.1840 C   0  0  0  0  0  2  0  0  0  0  0  0
  181.5910  179.3750  136.9940 O   0  0  0  0  0  1  0  0  0  0  0  0
  183.3470  177.8270  140.5190 C   0  0  2  0  0  3  0  0  0  0  0  0
  188.7210  177.7350  139.1060 C   0  0  0  0  0  3  0  0  0  0  0  0
  186.1250  175.7460  137.3610 C   0  0  0  0  0  3  0  0  0  0  0  0
  187.2810  176.5330  137.5130 C   0  0  0  0  0  0  0  0  0  0  0  0
  188.3090  176.4090  136.5630 C   0  0  0  0  0  3  0  0  0  0  0  0
  189.1960  175.4020  134.5940 F   0  0  0  0  0  0  0  0  0  0  0  0
  187.0430  174.7320  135.3640 C   0  0  0  0  0  3  0  0  0  0  0  0
  188.1930  175.5120  135.4980 C   0  0  0  0  0  0  0  0  0  0  0  0
  186.0080  174.8500  136.2950 C   0  0  0  0  0  3  0  0  0  0  0  0
  179.0870  177.2020  141.6970 O   0  0  0  0  0  1  0  0  0  0  0  0
  179.6010  178.2910  140.9930 C   0  0  0  0  0  2  0  0  0  0  0  0
  2 14  1  0  0  0  0
  2 22  1  0  0  0  0
  2 24  1  0  0  0  0
  3 20  2  0  0  0  0
  3  9  1  0  0  0  0
  4  1  1  0  0  0  0
  4 37  1  0  0  0  0
  5 19  1  0  0  0  0
  5 10  1  0  0  0  0
  6 11  1  0  0  0  0
  6 22  1  0  0  0  0
  7 21  1  0  0  0  0
  7  3  1  0  0  0  0
  8 18  1  0  0  0  0
  8 12  1  0  0  0  0
  9  6  2  0  0  0  0
 10  7  2  0  0  0  0
 12  4  1  0  0  0  0
 12  1  1  0  0  0  0
 13  9  1  0  0  0  0
 13 17  1  0  0  0  0
 15 20  1  0  0  0  0
 16 11  2  0  0  0  0
 17  2  1  0  0  0  0
 18 19  1  0  0  0  0
 18 25  1  0  0  0  0
 20 16  1  0  0  0  0
 21 13  1  0  0  0  0
 23 10  1  0  0  0  0
 23 28  1  0  0  0  0
 25 27  1  0  0  0  0
 26  8  1  0  0  0  0
 27  1  1  0  0  0  0
 27 21  1  0  0  0  0
 28 15  2  0  0  0  0
 29 30  1  0  0  0  0
 30 23  1  0  0  0  0
 31 30  2  0  0  0  0
 32 34  1  0  0  0  0
 33 34  2  0  0  0  0
 33 35  1  0  0  0  0
 34 31  1  0  0  0  0
 35 29  2  0  0  0  0
 37 36  1  0  0  0  0
M  END
>  <MODEL>
8

>  <REMARK>
 VINA RESULT:      -5.8      2.859      5.268
  Name = 
  2 active torsions:
  status: ('A' for Active; 'I' for Inactive)
    1  A    between atoms: C_4  and  C_37
    2  A    between atoms: N_23  and  C_30
                            x       y       z     vdW  Elec       q    Type
                         _______ _______ _______ _____ _____    ______ ____

>  <TORSDO>
F 2

$$$$
