=
 OpenBabel11122410213D

 30 35  0  0  1  0  0  0  0  0999 V2000
  188.1230  177.6070  140.6000 C   0  0  0  0  0  0  0  0  0  0  0  0
  189.9530  176.5820  141.9400 C   0  0  0  0  0  0  0  0  0  0  0  0
  185.8530  178.3610  144.0570 N   0  0  0  0  0  2  0  0  0  0  0  0
  186.8730  178.2720  140.5600 C   0  0  0  0  0  0  0  0  0  0  0  0
  188.7910  177.3350  139.3960 O   0  0  0  0  0  0  0  0  0  0  0  0
  187.0350  179.1060  137.0170 O   0  0  0  0  0  0  0  0  0  0  0  0
  184.0950  177.6510  139.8470 C   0  0  1  0  0  3  0  0  0  0  0  0
  187.1630  178.4850  138.0600 C   0  0  0  0  0  0  0  0  0  0  0  0
  183.7960  178.0870  141.2870 C   0  0  2  0  0  3  0  0  0  0  0  0
  184.7170  178.9540  143.4300 C   0  0  0  0  0  0  0  0  0  0  0  0
  188.1320  177.3460  138.1300 C   0  0  2  0  0  3  0  0  0  0  0  0
  186.3420  178.8560  139.2640 C   0  0  1  0  0  3  0  0  0  0  0  0
  190.4590  176.2060  143.1870 C   0  0  0  0  0  3  0  0  0  0  0  0
  182.4060  178.6770  141.2540 C   0  0  0  0  0  2  0  0  0  0  0  0
  182.7380  177.3600  139.2270 C   0  0  0  0  0  2  0  0  0  0  0  0
  190.7230  176.3210  140.8120 O   0  0  0  0  0  1  0  0  0  0  0  0
  186.7180  178.0810  142.9680 C   0  0  0  0  0  0  0  0  0  0  0  0
  189.7340  176.4490  144.3540 C   0  0  0  0  0  3  0  0  0  0  0  0
  188.6910  177.2170  141.8460 C   0  0  0  0  0  0  0  0  0  0  0  0
  186.1920  178.4770  141.7610 C   0  0  0  0  0  0  0  0  0  0  0  0
  183.7320  179.3790  144.0870 O   0  0  0  0  0  0  0  0  0  0  0  0
  184.8180  179.0330  141.9340 C   0  0  1  0  0  3  0  0  0  0  0  0
  181.6790  177.8940  140.1810 C   0  0  0  0  0  2  0  0  0  0  0  0
  184.2050  179.9400  139.0250 O   0  0  0  0  0  1  0  0  0  0  0  0
  188.4900  177.0750  144.2850 C   0  0  0  0  0  3  0  0  0  0  0  0
  187.9650  177.4620  143.0480 C   0  0  0  0  0  0  0  0  0  0  0  0
  184.8360  178.6940  138.9870 C   0  0  2  0  0  3  0  0  0  0  0  0
  187.3930  176.0330  137.8950 C   0  0  0  0  0  2  0  0  0  0  0  0
  185.1950  175.6200  136.7950 C   0  0  0  0  0  1  0  0  0  0  0  0
  186.6310  176.0570  136.5800 C   0  0  0  0  0  2  0  0  0  0  0  0
  1 19  1  0  0  0  0
  2 13  1  0  0  0  0
  4  1  2  0  0  0  0
  4 20  1  0  0  0  0
  5  1  1  0  0  0  0
  6  8  2  0  0  0  0
  7 15  1  6  0  0  0
  7  9  1  0  0  0  0
  8 11  1  0  0  0  0
  9 14  1  6  0  0  0
  9 22  1  0  0  0  0
 10  3  1  0  0  0  0
 10 21  2  0  0  0  0
 11 28  1  1  0  0  0
 11  5  1  0  0  0  0
 12  8  1  6  0  0  0
 12  4  1  0  0  0  0
 13 18  2  0  0  0  0
 15 23  1  0  0  0  0
 16  2  1  0  0  0  0
 17 26  1  0  0  0  0
 17  3  1  0  0  0  0
 19  2  2  0  0  0  0
 19 26  1  0  0  0  0
 20 17  2  0  0  0  0
 22 20  1  1  0  0  0
 22 10  1  0  0  0  0
 23 14  1  0  0  0  0
 25 18  1  0  0  0  0
 26 25  2  0  0  0  0
 27 24  1  1  0  0  0
 27 12  1  0  0  0  0
 27  7  1  0  0  0  0
 30 29  1  0  0  0  0
 30 28  1  0  0  0  0
M  END
>  <MODEL>
1

>  <REMARK>
 VINA RESULT:      -7.7      0.000      0.000
  Name = 
  2 active torsions:
  status: ('A' for Active; 'I' for Inactive)
    1  A    between atoms: C_11  and  C_28
    2  A    between atoms: C_28  and  C_30
                            x       y       z     vdW  Elec       q    Type
                         _______ _______ _______ _____ _____    ______ ____

>  <TORSDO>
F 2

$$$$
=
 OpenBabel11122410213D

 30 35  0  0  1  0  0  0  0  0999 V2000
  188.4170  177.9270  140.8670 C   0  0  0  0  0  0  0  0  0  0  0  0
  189.0890  177.3990  143.2050 C   0  0  0  0  0  0  0  0  0  0  0  0
  184.4190  178.5230  142.0260 N   0  0  0  0  0  2  0  0  0  0  0  0
  187.4110  178.3300  139.9550 C   0  0  0  0  0  0  0  0  0  0  0  0
  189.7150  177.6870  140.3920 O   0  0  0  0  0  0  0  0  0  0  0  0
  189.6790  178.8680  137.1540 O   0  0  0  0  0  0  0  0  0  0  0  0
  185.7750  177.1200  137.8410 C   0  0  1  0  0  3  0  0  0  0  0  0
  189.1840  178.3770  138.1560 C   0  0  0  0  0  0  0  0  0  0  0  0
  184.5970  177.6130  138.6910 C   0  0  2  0  0  3  0  0  0  0  0  0
  183.8780  178.8260  140.7420 C   0  0  0  0  0  0  0  0  0  0  0  0
  190.0000  177.4590  139.0120 C   0  0  2  0  0  3  0  0  0  0  0  0
  187.7580  178.6850  138.5200 C   0  0  1  0  0  3  0  0  0  0  0  0
  188.7340  177.2390  144.5470 C   0  0  0  0  0  3  0  0  0  0  0  0
  183.4870  177.9160  137.7130 C   0  0  0  0  0  2  0  0  0  0  0  0
  185.1440  176.5170  136.5960 C   0  0  0  0  0  2  0  0  0  0  0  0
  190.4170  177.1960  142.8480 O   0  0  0  0  0  1  0  0  0  0  0  0
  185.7990  178.3230  141.7600 C   0  0  0  0  0  0  0  0  0  0  0  0
  187.4180  177.4360  144.9650 C   0  0  0  0  0  3  0  0  0  0  0  0
  188.1110  177.7660  142.2490 C   0  0  0  0  0  0  0  0  0  0  0  0
  186.1120  178.5030  140.4330 C   0  0  0  0  0  0  0  0  0  0  0  0
  182.6630  179.1070  140.5740 O   0  0  0  0  0  0  0  0  0  0  0  0
  184.8880  178.7930  139.6300 C   0  0  1  0  0  3  0  0  0  0  0  0
  183.6760  176.9150  136.5920 C   0  0  0  0  0  2  0  0  0  0  0  0
  186.1510  179.3060  136.8380 O   0  0  0  0  0  1  0  0  0  0  0  0
  186.4390  177.7990  144.0410 C   0  0  0  0  0  3  0  0  0  0  0  0
  186.7730  177.9680  142.6930 C   0  0  0  0  0  0  0  0  0  0  0  0
  186.7850  178.2080  137.4260 C   0  0  2  0  0  3  0  0  0  0  0  0
  189.7060  176.0120  138.6320 C   0  0  0  0  0  2  0  0  0  0  0  0
  192.1390  176.1690  138.1160 C   0  0  0  0  0  1  0  0  0  0  0  0
  190.8580  175.4020  137.8510 C   0  0  0  0  0  2  0  0  0  0  0  0
  1 19  1  0  0  0  0
  2 13  1  0  0  0  0
  4 20  1  0  0  0  0
  4  1  2  0  0  0  0
  5  1  1  0  0  0  0
  6  8  2  0  0  0  0
  7 15  1  6  0  0  0
  7  9  1  0  0  0  0
  8 11  1  0  0  0  0
  9 14  1  6  0  0  0
  9 22  1  0  0  0  0
 10  3  1  0  0  0  0
 11 28  1  6  0  0  0
 11  5  1  0  0  0  0
 12  8  1  6  0  0  0
 12  4  1  0  0  0  0
 13 18  2  0  0  0  0
 16  2  1  0  0  0  0
 17  3  1  0  0  0  0
 17 26  1  0  0  0  0
 19 26  1  0  0  0  0
 19  2  2  0  0  0  0
 20 17  2  0  0  0  0
 21 10  2  0  0  0  0
 22 20  1  1  0  0  0
 22 10  1  0  0  0  0
 23 15  1  0  0  0  0
 23 14  1  0  0  0  0
 25 18  1  0  0  0  0
 26 25  2  0  0  0  0
 27 24  1  1  0  0  0
 27  7  1  0  0  0  0
 27 12  1  0  0  0  0
 30 29  1  0  0  0  0
 30 28  1  0  0  0  0
M  END
>  <MODEL>
2

>  <REMARK>
 VINA RESULT:      -7.0      1.719      2.816
  Name = 
  2 active torsions:
  status: ('A' for Active; 'I' for Inactive)
    1  A    between atoms: C_11  and  C_28
    2  A    between atoms: C_28  and  C_30
                            x       y       z     vdW  Elec       q    Type
                         _______ _______ _______ _____ _____    ______ ____

>  <TORSDO>
F 2

$$$$
=
 OpenBabel11122410213D

 30 35  0  0  1  0  0  0  0  0999 V2000
  187.6390  177.5190  142.3680 C   0  0  0  0  0  0  0  0  0  0  0  0
  186.3700  178.4230  140.4280 C   0  0  0  0  0  0  0  0  0  0  0  0
  184.5300  178.5160  145.0180 N   0  0  0  0  0  2  0  0  0  0  0  0
  187.6890  177.2150  143.7510 C   0  0  0  0  0  0  0  0  0  0  0  0
  188.7440  177.2110  141.5610 O   0  0  0  0  0  0  0  0  0  0  0  0
  190.7670  175.2720  143.5680 O   0  0  0  0  0  0  0  0  0  0  0  0
  188.9950  178.2520  146.1650 C   0  0  1  0  0  3  0  0  0  0  0  0
  189.9400  176.1420  143.3450 C   0  0  0  0  0  0  0  0  0  0  0  0
  187.5600  178.3940  146.6870 C   0  0  2  0  0  3  0  0  0  0  0  0
  185.1370  178.0600  146.2250 C   0  0  0  0  0  0  0  0  0  0  0  0
  190.0440  176.9590  142.0950 C   0  0  2  0  0  3  0  0  0  0  0  0
  188.8320  176.3980  144.3280 C   0  0  1  0  0  3  0  0  0  0  0  0
  185.2190  179.0410  139.9310 C   0  0  0  0  0  3  0  0  0  0  0  0
  187.6480  178.1960  148.1820 C   0  0  0  0  0  2  0  0  0  0  0  0
  189.8860  178.6610  147.3280 C   0  0  0  0  0  2  0  0  0  0  0  0
  187.3840  178.1050  139.5310 O   0  0  0  0  0  1  0  0  0  0  0  0
  185.4980  178.2030  144.0270 C   0  0  0  0  0  0  0  0  0  0  0  0
  184.1670  179.3770  140.7830 C   0  0  0  0  0  3  0  0  0  0  0  0
  186.4820  178.1320  141.8080 C   0  0  0  0  0  0  0  0  0  0  0  0
  186.6090  177.5850  144.5520 C   0  0  0  0  0  0  0  0  0  0  0  0
  184.5560  178.1320  147.3380 O   0  0  0  0  0  0  0  0  0  0  0  0
  186.5100  177.4810  146.0370 C   0  0  1  0  0  3  0  0  0  0  0  0
  189.0050  178.7490  148.5660 C   0  0  0  0  0  2  0  0  0  0  0  0
  189.0940  175.8720  146.6630 O   0  0  0  0  0  1  0  0  0  0  0  0
  184.2550  179.0980  142.1460 C   0  0  0  0  0  3  0  0  0  0  0  0
  185.3970  178.4790  142.6640 C   0  0  0  0  0  0  0  0  0  0  0  0
  189.3860  176.8370  145.6960 C   0  0  2  0  0  3  0  0  0  0  0  0
  190.7640  178.2690  142.4000 C   0  0  0  0  0  2  0  0  0  0  0  0
  191.8740  179.3670  144.3430 C   0  0  0  0  0  1  0  0  0  0  0  0
  191.7710  178.0940  143.5240 C   0  0  0  0  0  2  0  0  0  0  0  0
  1  4  1  0  0  0  0
  2 19  1  0  0  0  0
  3 10  1  0  0  0  0
  4 12  1  0  0  0  0
  4 20  2  0  0  0  0
  5 11  1  0  0  0  0
  5  1  1  0  0  0  0
  7  9  1  0  0  0  0
  7 15  1  1  0  0  0
  8  6  2  0  0  0  0
  9 14  1  1  0  0  0
 10 21  2  0  0  0  0
 11 28  1  1  0  0  0
 11  8  1  0  0  0  0
 12  8  1  6  0  0  0
 12 27  1  0  0  0  0
 13  2  2  0  0  0  0
 13 18  1  0  0  0  0
 14 23  1  0  0  0  0
 15 23  1  0  0  0  0
 16  2  1  0  0  0  0
 17 20  1  0  0  0  0
 17  3  1  0  0  0  0
 18 25  2  0  0  0  0
 19  1  2  0  0  0  0
 19 26  1  0  0  0  0
 22 20  1  6  0  0  0
 22 10  1  0  0  0  0
 22  9  1  0  0  0  0
 25 26  1  0  0  0  0
 26 17  2  0  0  0  0
 27  7  1  0  0  0  0
 27 24  1  1  0  0  0
 28 30  1  0  0  0  0
 30 29  1  0  0  0  0
M  END
>  <MODEL>
3

>  <REMARK>
 VINA RESULT:      -6.9      2.491      6.446
  Name = 
  2 active torsions:
  status: ('A' for Active; 'I' for Inactive)
    1  A    between atoms: C_11  and  C_28
    2  A    between atoms: C_28  and  C_30
                            x       y       z     vdW  Elec       q    Type
                         _______ _______ _______ _____ _____    ______ ____

>  <TORSDO>
F 2

$$$$
=
 OpenBabel11122410213D

 30 35  0  0  1  0  0  0  0  0999 V2000
  188.4280  178.0720  140.3690 C   0  0  0  0  0  0  0  0  0  0  0  0
  186.2650  178.7770  141.3760 C   0  0  0  0  0  0  0  0  0  0  0  0
  186.6900  177.7810  136.5510 N   0  0  0  0  0  2  0  0  0  0  0  0
  189.1760  177.7280  139.2150 C   0  0  0  0  0  0  0  0  0  0  0  0
  189.0670  178.0860  141.6170 O   0  0  0  0  0  0  0  0  0  0  0  0
  192.4190  177.7780  140.8760 O   0  0  0  0  0  0  0  0  0  0  0  0
  190.3180  175.3160  137.9960 C   0  0  1  0  0  3  0  0  0  0  0  0
  191.2260  177.6050  140.6870 C   0  0  0  0  0  0  0  0  0  0  0  0
  189.4530  175.7080  136.7920 C   0  0  2  0  0  3  0  0  0  0  0  0
  187.8450  177.3500  135.8340 C   0  0  0  0  0  0  0  0  0  0  0  0
  190.3090  177.4230  141.8560 C   0  0  2  0  0  3  0  0  0  0  0  0
  190.6830  177.5630  139.2840 C   0  0  1  0  0  3  0  0  0  0  0  0
  184.9080  179.0690  141.2180 C   0  0  0  0  0  3  0  0  0  0  0  0
  190.2020  175.2200  135.5740 C   0  0  0  0  0  2  0  0  0  0  0  0
  191.1030  174.0960  137.5430 C   0  0  0  0  0  2  0  0  0  0  0  0
  186.8150  178.8800  142.6490 O   0  0  0  0  0  1  0  0  0  0  0  0
  187.1710  177.9400  137.8770 C   0  0  0  0  0  0  0  0  0  0  0  0
  184.3030  178.9890  139.9640 C   0  0  0  0  0  3  0  0  0  0  0  0
  187.0450  178.3950  140.2590 C   0  0  0  0  0  0  0  0  0  0  0  0
  188.5110  177.6570  137.9900 C   0  0  0  0  0  0  0  0  0  0  0  0
  187.8250  177.1360  134.5940 O   0  0  0  0  0  0  0  0  0  0  0  0
  189.0710  177.1930  136.6880 C   0  0  1  0  0  3  0  0  0  0  0  0
  190.9180  173.9690  136.0380 C   0  0  0  0  0  2  0  0  0  0  0  0
  192.0740  176.9060  137.4320 O   0  0  0  0  0  1  0  0  0  0  0  0
  185.0530  178.6160  138.8490 C   0  0  0  0  0  3  0  0  0  0  0  0
  186.4140  178.3220  138.9840 C   0  0  0  0  0  0  0  0  0  0  0  0
  191.2990  176.4030  138.4800 C   0  0  2  0  0  3  0  0  0  0  0  0
  190.0870  175.9340  142.1030 C   0  0  0  0  0  2  0  0  0  0  0  0
  191.1090  176.6220  144.2700 C   0  0  0  0  0  1  0  0  0  0  0  0
  190.8470  175.4600  143.3310 C   0  0  0  0  0  2  0  0  0  0  0  0
  1  5  1  0  0  0  0
  2 16  1  0  0  0  0
  3 17  1  0  0  0  0
  4  1  2  0  0  0  0
  5 11  1  0  0  0  0
  7 15  1  6  0  0  0
  7 27  1  0  0  0  0
  8  6  2  0  0  0  0
  8 11  1  0  0  0  0
  9 14  1  6  0  0  0
  9  7  1  0  0  0  0
 10  3  1  0  0  0  0
 11 28  1  6  0  0  0
 12  4  1  1  0  0  0
 12  8  1  0  0  0  0
 13  2  1  0  0  0  0
 14 23  1  0  0  0  0
 17 20  2  0  0  0  0
 17 26  1  0  0  0  0
 18 13  2  0  0  0  0
 19  1  1  0  0  0  0
 19  2  2  0  0  0  0
 20  4  1  0  0  0  0
 21 10  2  0  0  0  0
 22 10  1  6  0  0  0
 22  9  1  0  0  0  0
 22 20  1  0  0  0  0
 23 15  1  0  0  0  0
 25 26  2  0  0  0  0
 25 18  1  0  0  0  0
 26 19  1  0  0  0  0
 27 24  1  6  0  0  0
 27 12  1  0  0  0  0
 28 30  1  0  0  0  0
 30 29  1  0  0  0  0
M  END
>  <MODEL>
4

>  <REMARK>
 VINA RESULT:      -6.8      2.643      6.788
  Name = 
  2 active torsions:
  status: ('A' for Active; 'I' for Inactive)
    1  A    between atoms: C_11  and  C_28
    2  A    between atoms: C_28  and  C_30
                            x       y       z     vdW  Elec       q    Type
                         _______ _______ _______ _____ _____    ______ ____

>  <TORSDO>
F 2

$$$$
=
 OpenBabel11122410213D

 30 35  0  0  1  0  0  0  0  0999 V2000
  189.7290  177.2800  138.5580 C   0  0  0  0  0  0  0  0  0  0  0  0
  190.7760  177.4040  140.8120 C   0  0  0  0  0  0  0  0  0  0  0  0
  186.0630  178.6940  140.0540 N   0  0  0  0  0  2  0  0  0  0  0  0
  188.6050  177.5100  137.7270 C   0  0  0  0  0  0  0  0  0  0  0  0
  190.8970  176.7460  137.9950 O   0  0  0  0  0  0  0  0  0  0  0  0
  190.3560  176.8870  134.5940 O   0  0  0  0  0  0  0  0  0  0  0  0
  186.5280  175.9330  136.3820 C   0  0  1  0  0  3  0  0  0  0  0  0
  190.0190  176.7880  135.7620 C   0  0  0  0  0  0  0  0  0  0  0  0
  185.5630  176.8030  137.1980 C   0  0  2  0  0  3  0  0  0  0  0  0
  185.3190  178.6600  138.8370 C   0  0  0  0  0  0  0  0  0  0  0  0
  190.9090  176.0780  136.7330 C   0  0  2  0  0  3  0  0  0  0  0  0
  188.7080  177.3680  136.2190 C   0  0  1  0  0  3  0  0  0  0  0  0
  190.6610  177.7030  142.1730 C   0  0  0  0  0  3  0  0  0  0  0  0
  184.3180  176.9320  136.3540 C   0  0  0  0  0  2  0  0  0  0  0  0
  185.6390  175.0650  135.5050 C   0  0  0  0  0  2  0  0  0  0  0  0
  191.9990  176.9370  140.3430 O   0  0  0  0  0  1  0  0  0  0  0  0
  187.3530  178.2520  139.6610 C   0  0  0  0  0  0  0  0  0  0  0  0
  189.4610  178.1810  142.6990 C   0  0  0  0  0  3  0  0  0  0  0  0
  189.6700  177.5840  139.9480 C   0  0  0  0  0  0  0  0  0  0  0  0
  187.4300  177.9810  138.3150 C   0  0  0  0  0  0  0  0  0  0  0  0
  184.1180  179.0270  138.7740 O   0  0  0  0  0  0  0  0  0  0  0  0
  186.1050  178.1660  137.6560 C   0  0  1  0  0  3  0  0  0  0  0  0
  184.2270  175.6250  135.5960 C   0  0  0  0  0  2  0  0  0  0  0  0
  186.8700  177.6480  134.6890 O   0  0  0  0  0  1  0  0  0  0  0  0
  188.3590  178.3670  141.8660 C   0  0  0  0  0  3  0  0  0  0  0  0
  188.4520  178.0770  140.5010 C   0  0  0  0  0  0  0  0  0  0  0  0
  187.5200  176.7090  135.4950 C   0  0  2  0  0  3  0  0  0  0  0  0
  190.4470  174.6320  136.8850 C   0  0  0  0  0  2  0  0  0  0  0  0
  192.8470  174.0170  137.1530 C   0  0  0  0  0  1  0  0  0  0  0  0
  191.5400  173.6580  136.4750 C   0  0  0  0  0  2  0  0  0  0  0  0
  1 19  1  0  0  0  0
  2 13  1  0  0  0  0
  4 20  1  0  0  0  0
  4  1  2  0  0  0  0
  5  1  1  0  0  0  0
  6  8  2  0  0  0  0
  7 15  1  6  0  0  0
  7  9  1  0  0  0  0
  8 11  1  0  0  0  0
  9 14  1  6  0  0  0
  9 22  1  0  0  0  0
 10  3  1  0  0  0  0
 11 28  1  1  0  0  0
 11  5  1  0  0  0  0
 12  8  1  1  0  0  0
 12  4  1  0  0  0  0
 13 18  2  0  0  0  0
 15 23  1  0  0  0  0
 16  2  1  0  0  0  0
 17  3  1  0  0  0  0
 17 26  1  0  0  0  0
 19 26  1  0  0  0  0
 19  2  2  0  0  0  0
 20 17  2  0  0  0  0
 21 10  2  0  0  0  0
 22 20  1  1  0  0  0
 22 10  1  0  0  0  0
 23 14  1  0  0  0  0
 25 18  1  0  0  0  0
 26 25  2  0  0  0  0
 27 24  1  1  0  0  0
 27 12  1  0  0  0  0
 27  7  1  0  0  0  0
 30 28  1  0  0  0  0
 30 29  1  0  0  0  0
M  END
>  <MODEL>
5

>  <REMARK>
 VINA RESULT:      -6.8      2.453      4.196
  Name = 
  2 active torsions:
  status: ('A' for Active; 'I' for Inactive)
    1  A    between atoms: C_11  and  C_28
    2  A    between atoms: C_28  and  C_30
                            x       y       z     vdW  Elec       q    Type
                         _______ _______ _______ _____ _____    ______ ____

>  <TORSDO>
F 2

$$$$
=
 OpenBabel11122410213D

 30 35  0  0  1  0  0  0  0  0999 V2000
  186.6540  177.7960  141.4350 C   0  0  0  0  0  0  0  0  0  0  0  0
  184.3280  178.6550  141.2140 C   0  0  0  0  0  0  0  0  0  0  0  0
  186.4040  177.8640  145.6320 N   0  0  0  0  0  2  0  0  0  0  0  0
  187.7090  177.3520  142.2680 C   0  0  0  0  0  0  0  0  0  0  0  0
  186.8370  177.8030  140.0440 O   0  0  0  0  0  0  0  0  0  0  0  0
  189.7780  176.0740  139.5540 O   0  0  0  0  0  0  0  0  0  0  0  0
  190.3080  178.3380  143.2100 C   0  0  1  0  0  3  0  0  0  0  0  0
  189.0070  176.7880  140.1750 C   0  0  0  0  0  0  0  0  0  0  0  0
  189.6980  178.1390  144.6040 C   0  0  2  0  0  3  0  0  0  0  0  0
  187.7210  177.3980  145.9220 C   0  0  0  0  0  0  0  0  0  0  0  0
  188.1280  177.7470  139.4360 C   0  0  2  0  0  3  0  0  0  0  0  0
  188.9520  176.7100  141.6760 C   0  0  1  0  0  3  0  0  0  0  0  0
  183.1480  179.0910  141.8230 C   0  0  0  0  0  3  0  0  0  0  0  0
  190.8570  177.7910  145.5090 C   0  0  0  0  0  2  0  0  0  0  0  0
  191.7420  178.7750  143.4600 C   0  0  0  0  0  2  0  0  0  0  0  0
  184.3850  178.6440  139.8240 O   0  0  0  0  0  1  0  0  0  0  0  0
  186.3610  177.8590  144.2130 C   0  0  0  0  0  0  0  0  0  0  0  0
  183.0310  179.1180  143.2120 C   0  0  0  0  0  3  0  0  0  0  0  0
  185.4240  178.2350  142.0050 C   0  0  0  0  0  0  0  0  0  0  0  0
  187.5340  177.4120  143.6510 C   0  0  0  0  0  0  0  0  0  0  0  0
  188.1300  177.2280  147.0990 O   0  0  0  0  0  0  0  0  0  0  0  0
  188.5530  177.1200  144.7020 C   0  0  1  0  0  3  0  0  0  0  0  0
  192.0360  178.5480  144.9350 C   0  0  0  0  0  2  0  0  0  0  0  0
  190.8560  175.9800  142.9560 O   0  0  0  0  0  1  0  0  0  0  0  0
  184.0970  178.7070  144.0110 C   0  0  0  0  0  3  0  0  0  0  0  0
  185.2870  178.2650  143.4220 C   0  0  0  0  0  0  0  0  0  0  0  0
  190.3040  177.0880  142.3080 C   0  0  2  0  0  3  0  0  0  0  0  0
  188.7770  179.1280  139.4230 C   0  0  0  0  0  2  0  0  0  0  0  0
  188.4470  178.8110  136.9730 C   0  0  0  0  0  1  0  0  0  0  0  0
  189.2950  179.4800  138.0380 C   0  0  0  0  0  2  0  0  0  0  0  0
  1 19  2  0  0  0  0
  1  4  1  0  0  0  0
  2 13  2  0  0  0  0
  2 19  1  0  0  0  0
  3 10  1  0  0  0  0
  4 20  2  0  0  0  0
  5  1  1  0  0  0  0
  6  8  2  0  0  0  0
  7 15  1  1  0  0  0
  7  9  1  0  0  0  0
  9 22  1  0  0  0  0
  9 14  1  1  0  0  0
 10 21  2  0  0  0  0
 11 28  1  1  0  0  0
 11  5  1  0  0  0  0
 11  8  1  0  0  0  0
 12  8  1  6  0  0  0
 12  4  1  0  0  0  0
 12 27  1  0  0  0  0
 13 18  1  0  0  0  0
 15 23  1  0  0  0  0
 16  2  1  0  0  0  0
 17  3  1  0  0  0  0
 18 25  2  0  0  0  0
 19 26  1  0  0  0  0
 20 17  1  0  0  0  0
 22 20  1  6  0  0  0
 22 10  1  0  0  0  0
 23 14  1  0  0  0  0
 26 25  1  0  0  0  0
 26 17  2  0  0  0  0
 27 24  1  1  0  0  0
 27  7  1  0  0  0  0
 29 30  1  0  0  0  0
 30 28  1  0  0  0  0
M  END
>  <MODEL>
6

>  <REMARK>
 VINA RESULT:      -6.7      2.021      5.733
  Name = 
  2 active torsions:
  status: ('A' for Active; 'I' for Inactive)
    1  A    between atoms: C_11  and  C_28
    2  A    between atoms: C_28  and  C_30
                            x       y       z     vdW  Elec       q    Type
                         _______ _______ _______ _____ _____    ______ ____

>  <TORSDO>
F 2

$$$$
=
 OpenBabel11122410213D

 30 35  0  0  1  0  0  0  0  0999 V2000
  187.0810  178.3310  143.0510 C   0  0  0  0  0  0  0  0  0  0  0  0
  185.6940  178.2210  145.1150 C   0  0  0  0  0  0  0  0  0  0  0  0
  183.7180  179.2420  140.6970 N   0  0  0  0  0  2  0  0  0  0  0  0
  187.1710  178.5870  141.6610 C   0  0  0  0  0  0  0  0  0  0  0  0
  188.2390  177.9700  143.7550 O   0  0  0  0  0  0  0  0  0  0  0  0
  190.8120  178.5380  141.5330 O   0  0  0  0  0  0  0  0  0  0  0  0
  187.4920  177.0580  139.1770 C   0  0  1  0  0  3  0  0  0  0  0  0
  189.6680  178.2540  141.8490 C   0  0  0  0  0  0  0  0  0  0  0  0
  186.1720  177.7310  138.7800 C   0  0  2  0  0  3  0  0  0  0  0  0
  184.3700  179.3200  139.4310 C   0  0  0  0  0  0  0  0  0  0  0  0
  189.4160  177.4860  143.1080 C   0  0  2  0  0  3  0  0  0  0  0  0
  188.5200  178.6630  140.9680 C   0  0  1  0  0  3  0  0  0  0  0  0
  184.4400  178.3200  145.7220 C   0  0  0  0  0  3  0  0  0  0  0  0
  186.2270  177.8810  137.2780 C   0  0  0  0  0  2  0  0  0  0  0  0
  187.9140  176.2550  137.9570 C   0  0  0  0  0  2  0  0  0  0  0  0
  186.7900  177.9180  145.9150 O   0  0  0  0  0  1  0  0  0  0  0  0
  184.7810  178.9580  141.5950 C   0  0  0  0  0  0  0  0  0  0  0  0
  183.3060  178.6280  144.9710 C   0  0  0  0  0  3  0  0  0  0  0  0
  185.8290  178.4340  143.7220 C   0  0  0  0  0  0  0  0  0  0  0  0
  185.9990  178.8820  140.9630 C   0  0  0  0  0  0  0  0  0  0  0  0
  183.7510  179.5990  138.3730 O   0  0  0  0  0  0  0  0  0  0  0  0
  185.8480  179.0550  139.4890 C   0  0  1  0  0  3  0  0  0  0  0  0
  187.0260  176.6870  136.7990 C   0  0  0  0  0  2  0  0  0  0  0  0
  188.8270  179.0110  138.6050 O   0  0  0  0  0  1  0  0  0  0  0  0
  183.4150  178.8430  143.5980 C   0  0  0  0  0  3  0  0  0  0  0  0
  184.6620  178.7520  142.9690 C   0  0  0  0  0  0  0  0  0  0  0  0
  188.6280  178.0220  139.5720 C   0  0  2  0  0  3  0  0  0  0  0  0
  189.2790  176.0020  142.7820 C   0  0  0  0  0  2  0  0  0  0  0  0
  191.4820  176.1400  143.9400 C   0  0  0  0  0  1  0  0  0  0  0  0
  190.5110  175.2260  143.2180 C   0  0  0  0  0  2  0  0  0  0  0  0
  1 19  1  0  0  0  0
  1  5  1  0  0  0  0
  2 13  1  0  0  0  0
  2 16  1  0  0  0  0
  3 17  1  0  0  0  0
  4  1  2  0  0  0  0
  6  8  2  0  0  0  0
  7 15  1  6  0  0  0
  7 27  1  0  0  0  0
  8 11  1  0  0  0  0
  9 14  1  6  0  0  0
  9  7  1  0  0  0  0
  9 22  1  0  0  0  0
 10  3  1  0  0  0  0
 11 28  1  6  0  0  0
 11  5  1  0  0  0  0
 12  4  1  1  0  0  0
 12  8  1  0  0  0  0
 17 26  1  0  0  0  0
 18 13  2  0  0  0  0
 19  2  2  0  0  0  0
 20 17  2  0  0  0  0
 20  4  1  0  0  0  0
 21 10  2  0  0  0  0
 22 10  1  1  0  0  0
 22 20  1  0  0  0  0
 23 14  1  0  0  0  0
 23 15  1  0  0  0  0
 25 18  1  0  0  0  0
 26 25  2  0  0  0  0
 26 19  1  0  0  0  0
 27 24  1  6  0  0  0
 27 12  1  0  0  0  0
 28 30  1  0  0  0  0
 30 29  1  0  0  0  0
M  END
>  <MODEL>
7

>  <REMARK>
 VINA RESULT:      -6.6      1.815      5.047
  Name = 
  2 active torsions:
  status: ('A' for Active; 'I' for Inactive)
    1  A    between atoms: C_11  and  C_28
    2  A    between atoms: C_28  and  C_30
                            x       y       z     vdW  Elec       q    Type
                         _______ _______ _______ _____ _____    ______ ____

>  <TORSDO>
F 2

$$$$
=
 OpenBabel11122410213D

 30 35  0  0  1  0  0  0  0  0999 V2000
  188.0160  178.0640  141.7670 C   0  0  0  0  0  0  0  0  0  0  0  0
  186.2520  178.4440  143.4800 C   0  0  0  0  0  0  0  0  0  0  0  0
  185.2110  178.3490  138.6470 N   0  0  0  0  0  2  0  0  0  0  0  0
  188.3830  177.9780  140.4010 C   0  0  0  0  0  0  0  0  0  0  0  0
  189.0000  177.8960  142.7510 O   0  0  0  0  0  0  0  0  0  0  0  0
  191.9750  177.9340  141.0110 O   0  0  0  0  0  0  0  0  0  0  0  0
  189.1200  175.8970  138.4680 C   0  0  1  0  0  3  0  0  0  0  0  0
  190.7810  177.7230  141.1530 C   0  0  0  0  0  0  0  0  0  0  0  0
  187.9290  176.4420  137.6690 C   0  0  2  0  0  3  0  0  0  0  0  0
  186.0990  178.1250  137.5530 C   0  0  0  0  0  0  0  0  0  0  0  0
  190.2600  177.2800  142.4840 C   0  0  2  0  0  3  0  0  0  0  0  0
  189.8430  177.8970  139.9910 C   0  0  1  0  0  3  0  0  0  0  0  0
  184.9080  178.6750  143.7860 C   0  0  0  0  0  3  0  0  0  0  0  0
  188.2800  176.2250  136.2160 C   0  0  0  0  0  2  0  0  0  0  0  0
  189.7390  174.8270  137.5830 C   0  0  0  0  0  2  0  0  0  0  0  0
  187.1580  178.3540  144.5310 O   0  0  0  0  0  1  0  0  0  0  0  0
  186.0670  178.3000  139.7780 C   0  0  0  0  0  0  0  0  0  0  0  0
  183.9540  178.7820  142.7750 C   0  0  0  0  0  3  0  0  0  0  0  0
  186.6620  178.3150  142.1320 C   0  0  0  0  0  0  0  0  0  0  0  0
  187.3810  178.0840  139.4350 C   0  0  0  0  0  0  0  0  0  0  0  0
  185.7080  178.1340  136.3580 O   0  0  0  0  0  0  0  0  0  0  0  0
  187.5250  177.8950  137.9630 C   0  0  1  0  0  3  0  0  0  0  0  0
  189.1100  174.9580  136.2040 C   0  0  0  0  0  2  0  0  0  0  0  0
  190.6150  177.6660  137.7220 O   0  0  0  0  0  1  0  0  0  0  0  0
  184.3360  178.6600  141.4390 C   0  0  0  0  0  3  0  0  0  0  0  0
  185.6760  178.4310  141.1100 C   0  0  0  0  0  0  0  0  0  0  0  0
  190.1940  176.9390  138.8380 C   0  0  2  0  0  3  0  0  0  0  0  0
  190.1320  175.7600  142.5010 C   0  0  0  0  0  2  0  0  0  0  0  0
  191.6250  176.2340  144.4390 C   0  0  0  0  0  1  0  0  0  0  0  0
  190.9930  175.1460  143.5920 C   0  0  0  0  0  2  0  0  0  0  0  0
  1 19  1  0  0  0  0
  1  5  1  0  0  0  0
  2 13  1  0  0  0  0
  2 16  1  0  0  0  0
  3 17  1  0  0  0  0
  4  1  2  0  0  0  0
  6  8  2  0  0  0  0
  7 15  1  6  0  0  0
  7 27  1  0  0  0  0
  8 11  1  0  0  0  0
  9 14  1  6  0  0  0
  9 22  1  0  0  0  0
  9  7  1  0  0  0  0
 10  3  1  0  0  0  0
 11 28  1  6  0  0  0
 11  5  1  0  0  0  0
 12  4  1  1  0  0  0
 12  8  1  0  0  0  0
 17 26  1  0  0  0  0
 18 13  2  0  0  0  0
 19  2  2  0  0  0  0
 20 17  2  0  0  0  0
 20  4  1  0  0  0  0
 21 10  2  0  0  0  0
 22 10  1  6  0  0  0
 22 20  1  0  0  0  0
 23 14  1  0  0  0  0
 23 15  1  0  0  0  0
 25 18  1  0  0  0  0
 26 25  2  0  0  0  0
 26 19  1  0  0  0  0
 27 24  1  6  0  0  0
 27 12  1  0  0  0  0
 28 30  1  0  0  0  0
 30 29  1  0  0  0  0
M  END
>  <MODEL>
8

>  <REMARK>
 VINA RESULT:      -6.6      2.071      5.798
  Name = 
  2 active torsions:
  status: ('A' for Active; 'I' for Inactive)
    1  A    between atoms: C_11  and  C_28
    2  A    between atoms: C_28  and  C_30
                            x       y       z     vdW  Elec       q    Type
                         _______ _______ _______ _____ _____    ______ ____

>  <TORSDO>
F 2

$$$$
=
 OpenBabel11122410213D

 30 35  0  0  1  0  0  0  0  0999 V2000
  185.4170  177.5490  137.9960 C   0  0  0  0  0  0  0  0  0  0  0  0
  183.9510  178.7000  139.6450 C   0  0  0  0  0  0  0  0  0  0  0  0
  182.6620  174.4020  137.5680 N   0  0  0  0  0  2  0  0  0  0  0  0
  185.6210  176.4750  137.0960 C   0  0  0  0  0  0  0  0  0  0  0  0
  186.4130  178.5280  138.1290 O   0  0  0  0  0  0  0  0  0  0  0  0
  188.6110  177.8770  135.5550 O   0  0  0  0  0  0  0  0  0  0  0  0
  187.2230  174.0200  136.9570 C   0  0  1  0  0  3  0  0  0  0  0  0
  187.7840  177.5810  136.4030 C   0  0  0  0  0  0  0  0  0  0  0  0
  185.8620  173.3310  136.7960 C   0  0  2  0  0  3  0  0  0  0  0  0
  183.3950  173.6150  136.6300 C   0  0  0  0  0  0  0  0  0  0  0  0
  187.7600  178.3210  137.7040 C   0  0  2  0  0  3  0  0  0  0  0  0
  186.8040  176.4700  136.1440 C   0  0  1  0  0  3  0  0  0  0  0  0
  182.7640  178.7240  140.3830 C   0  0  0  0  0  3  0  0  0  0  0  0
  186.1200  172.1140  135.9390 C   0  0  0  0  0  2  0  0  0  0  0  0
  188.2520  172.9090  136.8180 C   0  0  0  0  0  2  0  0  0  0  0  0
  184.8460  179.7530  139.8060 O   0  0  0  0  0  1  0  0  0  0  0  0
  183.5000  175.5290  137.7740 C   0  0  0  0  0  0  0  0  0  0  0  0
  181.8270  177.6990  140.2580 C   0  0  0  0  0  3  0  0  0  0  0  0
  184.2170  177.6290  138.7590 C   0  0  0  0  0  0  0  0  0  0  0  0
  184.6500  175.4750  137.0230 C   0  0  0  0  0  0  0  0  0  0  0  0
  182.9490  172.5350  136.1660 O   0  0  0  0  0  0  0  0  0  0  0  0
  184.7230  174.2030  136.2470 C   0  0  1  0  0  3  0  0  0  0  0  0
  187.5240  171.6780  136.3000 C   0  0  0  0  0  2  0  0  0  0  0  0
  187.3250  174.6830  134.6170 O   0  0  0  0  0  1  0  0  0  0  0  0
  182.0670  176.6360  139.3890 C   0  0  0  0  0  3  0  0  0  0  0  0
  183.2470  176.5930  138.6400 C   0  0  0  0  0  0  0  0  0  0  0  0
  187.5240  175.1260  135.9270 C   0  0  2  0  0  3  0  0  0  0  0  0
  188.5410  177.5340  138.7520 C   0  0  0  0  0  2  0  0  0  0  0  0
  189.3430  177.4700  141.1110 C   0  0  0  0  0  1  0  0  0  0  0  0
  188.4870  178.2180  140.1080 C   0  0  0  0  0  2  0  0  0  0  0  0
  1  5  1  0  0  0  0
  1 19  1  0  0  0  0
  2 16  1  0  0  0  0
  2 13  1  0  0  0  0
  3 17  1  0  0  0  0
  4  1  2  0  0  0  0
  6  8  2  0  0  0  0
  7 15  1  6  0  0  0
  8 11  1  0  0  0  0
  9 14  1  6  0  0  0
  9  7  1  0  0  0  0
 10  3  1  0  0  0  0
 11  5  1  0  0  0  0
 11 28  1  1  0  0  0
 12  8  1  1  0  0  0
 12  4  1  0  0  0  0
 14 23  1  0  0  0  0
 17 26  1  0  0  0  0
 18 13  2  0  0  0  0
 19  2  2  0  0  0  0
 20  4  1  0  0  0  0
 20 17  2  0  0  0  0
 21 10  2  0  0  0  0
 22 10  1  1  0  0  0
 22  9  1  0  0  0  0
 22 20  1  0  0  0  0
 23 15  1  0  0  0  0
 25 18  1  0  0  0  0
 26 19  1  0  0  0  0
 26 25  2  0  0  0  0
 27 24  1  6  0  0  0
 27 12  1  0  0  0  0
 27  7  1  0  0  0  0
 28 30  1  0  0  0  0
 30 29  1  0  0  0  0
M  END
>  <MODEL>
9

>  <REMARK>
 VINA RESULT:      -6.4      2.891      6.576
  Name = 
  2 active torsions:
  status: ('A' for Active; 'I' for Inactive)
    1  A    between atoms: C_11  and  C_28
    2  A    between atoms: C_28  and  C_30
                            x       y       z     vdW  Elec       q    Type
                         _______ _______ _______ _____ _____    ______ ____

>  <TORSDO>
F 2

$$$$
