=
 OpenBabel11122410213D

 30 35  0  0  1  0  0  0  0  0999 V2000
  188.2900  178.5150  140.4250 C   0  0  2  0  0  3  0  0  0  0  0  0
  190.1710  177.3040  141.6060 C   0  0  0  0  0  0  0  0  0  0  0  0
  185.8350  177.9520  143.7690 N   0  0  0  0  0  2  0  0  0  0  0  0
  186.7610  178.7290  140.2540 C   0  0  1  0  0  3  0  0  0  0  0  0
  189.0470  178.5840  139.1630 N   0  0  0  0  0  2  0  0  0  0  0  0
  186.9490  179.5360  137.2140 C   0  0  0  0  0  1  0  0  0  0  0  0
  183.8440  177.3250  139.7780 C   0  0  1  0  0  3  0  0  0  0  0  0
  187.0260  178.1300  137.7930 C   0  0  1  0  0  3  0  0  0  0  0  0
  183.6440  177.8320  141.2100 C   0  0  2  0  0  3  0  0  0  0  0  0
  184.6200  178.6460  143.3480 C   0  0  1  0  0  3  0  0  0  0  0  0
  188.4800  177.7690  138.0770 C   0  0  2  0  0  3  0  0  0  0  0  0
  186.1880  177.9610  139.0610 C   0  0  2  0  0  3  0  0  0  0  0  0
  190.6840  177.3770  142.9840 C   0  0  0  0  0  3  0  0  0  0  0  0
  182.3630  178.3900  141.3050 O   0  0  0  0  0  0  0  0  0  0  0  0
  182.4420  177.2030  139.2560 C   0  0  0  0  0  2  0  0  0  0  0  0
  190.9970  177.2280  140.6590 O   0  0  0  0  0  0  0  0  0  0  0  0
  186.6520  177.8290  142.6240 C   0  0  0  0  0  0  0  0  0  0  0  0
  189.9030  177.1850  144.0040 N   0  0  0  0  0  0  0  0  0  0  0  0
  188.6830  177.3150  141.3220 C   0  0  1  0  0  3  0  0  0  0  0  0
  186.0420  178.3470  141.4670 N   0  0  0  0  0  0  0  0  0  0  0  0
  184.5820  180.0280  143.9710 C   0  0  0  0  0  1  0  0  0  0  0  0
  184.6950  178.7760  141.8100 C   0  0  1  0  0  3  0  0  0  0  0  0
  181.5760  177.6400  140.4180 C   0  0  0  0  0  2  0  0  0  0  0  0
  184.2730  179.6600  138.8050 C   0  0  0  0  0  1  0  0  0  0  0  0
  188.5020  176.7900  143.8720 C   0  0  0  0  0  2  0  0  0  0  0  0
  187.8990  177.3580  142.6220 C   0  0  0  0  0  0  0  0  0  0  0  0
  184.6880  178.1890  138.8310 C   0  0  2  0  0  3  0  0  0  0  0  0
  188.6610  176.2710  138.3120 C   0  0  0  0  0  2  0  0  0  0  0  0
  190.6830  175.0020  138.2940 O   0  0  0  0  0  1  0  0  0  0  0  0
  189.8120  175.7310  137.4830 C   0  0  0  0  0  2  0  0  0  0  0  0
  1  5  1  6  0  0  0
  1 19  1  0  0  0  0
  2 13  1  0  0  0  0
  4  1  1  0  0  0  0
  4 20  1  1  0  0  0
  7 15  1  6  0  0  0
  7  9  1  0  0  0  0
  8  6  1  1  0  0  0
  8 11  1  0  0  0  0
  8 12  1  0  0  0  0
  9 14  1  6  0  0  0
  9 22  1  0  0  0  0
 10  3  1  0  0  0  0
 10 21  1  1  0  0  0
 11 28  1  1  0  0  0
 11  5  1  0  0  0  0
 12  4  1  0  0  0  0
 13 18  2  0  0  0  0
 15 23  1  0  0  0  0
 16  2  2  0  0  0  0
 17  3  1  0  0  0  0
 19  2  1  0  0  0  0
 19 26  1  0  0  0  0
 20 22  1  0  0  0  0
 20 17  1  0  0  0  0
 22 10  1  0  0  0  0
 23 14  1  0  0  0  0
 24 27  1  0  0  0  0
 25 18  1  0  0  0  0
 26 17  2  0  0  0  0
 26 25  1  0  0  0  0
 27 12  1  0  0  0  0
 27  7  1  0  0  0  0
 30 29  1  0  0  0  0
 30 28  1  0  0  0  0
M  END
>  <MODEL>
1

>  <REMARK>
 VINA RESULT:      -6.5      0.000      0.000
  Name = 
  2 active torsions:
  status: ('A' for Active; 'I' for Inactive)
    1  A    between atoms: C_11  and  C_28
    2  A    between atoms: C_28  and  C_30
                            x       y       z     vdW  Elec       q    Type
                         _______ _______ _______ _____ _____    ______ ____

>  <TORSDO>
F 2

$$$$
=
 OpenBabel11122410213D

 30 35  0  0  1  0  0  0  0  0999 V2000
  185.5770  177.9120  137.3530 C   0  0  2  0  0  3  0  0  0  0  0  0
  184.0990  178.9790  139.1070 C   0  0  0  0  0  0  0  0  0  0  0  0
  182.8470  174.7600  136.9750 N   0  0  0  0  0  2  0  0  0  0  0  0
  186.0490  176.6180  136.6340 C   0  0  1  0  0  3  0  0  0  0  0  0
  186.6500  178.8980  137.5720 N   0  0  0  0  0  2  0  0  0  0  0  0
  188.9370  177.7090  136.0020 C   0  0  0  0  0  1  0  0  0  0  0  0
  187.1920  173.5710  136.9700 C   0  0  1  0  0  3  0  0  0  0  0  0
  188.4310  177.1820  137.3390 C   0  0  1  0  0  3  0  0  0  0  0  0
  185.8070  173.2540  136.3960 C   0  0  2  0  0  3  0  0  0  0  0  0
  183.4730  173.9690  135.9180 C   0  0  1  0  0  3  0  0  0  0  0  0
  187.8720  178.3340  138.1680 C   0  0  2  0  0  3  0  0  0  0  0  0
  187.3730  176.0880  137.1860 C   0  0  2  0  0  3  0  0  0  0  0  0
  182.6430  179.1810  139.1840 C   0  0  0  0  0  3  0  0  0  0  0  0
  185.9490  172.2470  135.4320 O   0  0  0  0  0  0  0  0  0  0  0  0
  187.9980  172.3550  136.6190 C   0  0  0  0  0  2  0  0  0  0  0  0
  184.8570  179.9110  139.4790 O   0  0  0  0  0  0  0  0  0  0  0  0
  183.8030  175.7120  137.3930 C   0  0  0  0  0  0  0  0  0  0  0  0
  181.8180  178.1830  139.0770 N   0  0  0  0  0  0  0  0  0  0  0  0
  184.6830  177.6780  138.5960 C   0  0  1  0  0  3  0  0  0  0  0  0
  185.0320  175.5720  136.7230 N   0  0  0  0  0  0  0  0  0  0  0  0
  182.7990  174.2680  134.5940 C   0  0  0  0  0  1  0  0  0  0  0  0
  184.9530  174.4090  135.8530 C   0  0  1  0  0  3  0  0  0  0  0  0
  187.0180  171.4610  135.8890 C   0  0  0  0  0  2  0  0  0  0  0  0
  187.9290  174.9580  134.9420 C   0  0  0  0  0  1  0  0  0  0  0  0
  182.2570  176.7930  138.9740 C   0  0  0  0  0  2  0  0  0  0  0  0
  183.5730  176.6970  138.2610 C   0  0  0  0  0  0  0  0  0  0  0  0
  187.8970  174.8370  136.4650 C   0  0  2  0  0  3  0  0  0  0  0  0
  187.6850  177.9450  139.6320 C   0  0  0  0  0  2  0  0  0  0  0  0
  188.8180  177.1790  141.5890 O   0  0  0  0  0  1  0  0  0  0  0  0
  189.0140  177.5810  140.2670 C   0  0  0  0  0  2  0  0  0  0  0  0
  1  5  1  1  0  0  0
  1 19  1  0  0  0  0
  2 13  1  0  0  0  0
  2 16  2  0  0  0  0
  3 17  1  0  0  0  0
  4 20  1  1  0  0  0
  4 12  1  0  0  0  0
  4  1  1  0  0  0  0
  5 11  1  0  0  0  0
  7 15  1  6  0  0  0
  8  6  1  6  0  0  0
  8 11  1  0  0  0  0
  9 14  1  6  0  0  0
  9  7  1  0  0  0  0
 10 21  1  6  0  0  0
 10  3  1  0  0  0  0
 11 28  1  1  0  0  0
 12  8  1  0  0  0  0
 14 23  1  0  0  0  0
 17 26  2  0  0  0  0
 18 13  2  0  0  0  0
 19  2  1  0  0  0  0
 20 17  1  0  0  0  0
 22 10  1  0  0  0  0
 22  9  1  0  0  0  0
 22 20  1  0  0  0  0
 23 15  1  0  0  0  0
 24 27  1  0  0  0  0
 25 18  1  0  0  0  0
 26 19  1  0  0  0  0
 26 25  1  0  0  0  0
 27  7  1  0  0  0  0
 27 12  1  0  0  0  0
 28 30  1  0  0  0  0
 30 29  1  0  0  0  0
M  END
>  <MODEL>
2

>  <REMARK>
 VINA RESULT:      -5.7      3.475      6.529
  Name = 
  2 active torsions:
  status: ('A' for Active; 'I' for Inactive)
    1  A    between atoms: C_11  and  C_28
    2  A    between atoms: C_28  and  C_30
                            x       y       z     vdW  Elec       q    Type
                         _______ _______ _______ _____ _____    ______ ____

>  <TORSDO>
F 2

$$$$
=
 OpenBabel11122410213D

 30 35  0  0  1  0  0  0  0  0999 V2000
  186.7130  178.9740  141.5030 C   0  0  2  0  0  3  0  0  0  0  0  0
  186.0660  178.6220  143.9220 C   0  0  0  0  0  0  0  0  0  0  0  0
  182.6890  178.6720  140.3860 N   0  0  0  0  0  2  0  0  0  0  0  0
  186.3860  178.7420  140.0020 C   0  0  1  0  0  3  0  0  0  0  0  0
  188.1520  178.9110  141.8170 N   0  0  0  0  0  2  0  0  0  0  0  0
  189.3970  178.7730  139.0710 C   0  0  0  0  0  1  0  0  0  0  0  0
  185.6130  176.5700  137.6810 C   0  0  1  0  0  3  0  0  0  0  0  0
  188.6620  177.6260  139.7530 C   0  0  1  0  0  3  0  0  0  0  0  0
  184.2990  177.3540  137.7330 C   0  0  2  0  0  3  0  0  0  0  0  0
  182.7780  178.9040  138.9460 C   0  0  1  0  0  3  0  0  0  0  0  0
  188.8360  177.7310  141.2650 C   0  0  2  0  0  3  0  0  0  0  0  0
  187.1750  177.5770  139.4010 C   0  0  2  0  0  3  0  0  0  0  0  0
  184.9740  179.1700  144.7440 C   0  0  0  0  0  3  0  0  0  0  0  0
  183.8630  177.5740  136.4200 O   0  0  0  0  0  0  0  0  0  0  0  0
  185.6010  175.9660  136.3060 C   0  0  0  0  0  2  0  0  0  0  0  0
  187.2120  178.5210  144.4320 O   0  0  0  0  0  0  0  0  0  0  0  0
  184.0090  178.4760  140.8500 C   0  0  0  0  0  0  0  0  0  0  0  0
  183.7320  179.0510  144.3820 N   0  0  0  0  0  0  0  0  0  0  0  0
  185.8240  178.1820  142.4940 C   0  0  1  0  0  3  0  0  0  0  0  0
  184.9560  178.5100  139.8100 N   0  0  0  0  0  0  0  0  0  0  0  0
  182.4070  180.3420  138.6400 C   0  0  0  0  0  1  0  0  0  0  0  0
  184.2500  178.6550  138.5470 C   0  0  1  0  0  3  0  0  0  0  0  0
  184.2990  176.4490  135.7030 C   0  0  0  0  0  2  0  0  0  0  0  0
  187.0320  178.6120  137.0490 C   0  0  0  0  0  1  0  0  0  0  0  0
  183.3160  178.2920  143.2040 C   0  0  0  0  0  2  0  0  0  0  0  0
  184.3600  178.3520  142.1290 C   0  0  0  0  0  0  0  0  0  0  0  0
  186.9150  177.3500  137.9050 C   0  0  2  0  0  3  0  0  0  0  0  0
  188.4420  176.4390  141.9760 C   0  0  0  0  0  2  0  0  0  0  0  0
  190.3890  175.3120  142.7750 O   0  0  0  0  0  1  0  0  0  0  0  0
  189.3580  176.1720  143.1560 C   0  0  0  0  0  2  0  0  0  0  0  0
  1  5  1  6  0  0  0
  1 19  1  0  0  0  0
  2 16  2  0  0  0  0
  2 13  1  0  0  0  0
  3 17  1  0  0  0  0
  4 20  1  1  0  0  0
  4  1  1  0  0  0  0
  7 15  1  6  0  0  0
  7  9  1  0  0  0  0
  7 27  1  0  0  0  0
  8  6  1  6  0  0  0
  8 11  1  0  0  0  0
  9 14  1  6  0  0  0
  9 22  1  0  0  0  0
 10 21  1  1  0  0  0
 10  3  1  0  0  0  0
 11  5  1  0  0  0  0
 11 28  1  1  0  0  0
 12  8  1  0  0  0  0
 12  4  1  0  0  0  0
 17 26  2  0  0  0  0
 18 13  2  0  0  0  0
 19  2  1  0  0  0  0
 20 17  1  0  0  0  0
 22 10  1  0  0  0  0
 22 20  1  0  0  0  0
 23 15  1  0  0  0  0
 23 14  1  0  0  0  0
 24 27  1  0  0  0  0
 25 18  1  0  0  0  0
 26 19  1  0  0  0  0
 26 25  1  0  0  0  0
 27 12  1  0  0  0  0
 28 30  1  0  0  0  0
 29 30  1  0  0  0  0
M  END
>  <MODEL>
3

>  <REMARK>
 VINA RESULT:      -5.5      2.219      4.146
  Name = 
  2 active torsions:
  status: ('A' for Active; 'I' for Inactive)
    1  A    between atoms: C_11  and  C_28
    2  A    between atoms: C_28  and  C_30
                            x       y       z     vdW  Elec       q    Type
                         _______ _______ _______ _____ _____    ______ ____

>  <TORSDO>
F 2

$$$$
=
 OpenBabel11122410213D

 30 35  0  0  1  0  0  0  0  0999 V2000
  186.4860  179.1500  141.1940 C   0  0  2  0  0  3  0  0  0  0  0  0
  186.9030  178.3530  138.8300 C   0  0  0  0  0  0  0  0  0  0  0  0
  190.2380  177.6900  142.3430 N   0  0  0  0  0  2  0  0  0  0  0  0
  186.7730  178.9860  142.7110 C   0  0  1  0  0  3  0  0  0  0  0  0
  185.0930  179.5200  140.8860 N   0  0  0  0  0  2  0  0  0  0  0  0
  183.9650  180.0830  143.6290 C   0  0  0  0  0  1  0  0  0  0  0  0
  186.8900  176.9400  145.2620 C   0  0  1  0  0  3  0  0  0  0  0  0
  184.2700  178.6950  143.0800 C   0  0  1  0  0  3  0  0  0  0  0  0
  188.3840  177.2500  145.1240 C   0  0  2  0  0  3  0  0  0  0  0  0
  190.2780  178.0900  143.7480 C   0  0  1  0  0  3  0  0  0  0  0  0
  184.0870  178.6890  141.5660 C   0  0  2  0  0  3  0  0  0  0  0  0
  185.6740  178.2080  143.4380 C   0  0  2  0  0  3  0  0  0  0  0  0
  188.0830  178.4300  137.9530 C   0  0  0  0  0  3  0  0  0  0  0  0
  188.9120  177.4560  146.4060 O   0  0  0  0  0  0  0  0  0  0  0  0
  186.7570  176.5150  146.6960 C   0  0  0  0  0  2  0  0  0  0  0  0
  185.7680  178.5720  138.3330 O   0  0  0  0  0  0  0  0  0  0  0  0
  188.9090  177.8800  141.9030 C   0  0  0  0  0  0  0  0  0  0  0  0
  189.2330  177.9570  138.3290 N   0  0  0  0  0  0  0  0  0  0  0  0
  187.0400  178.0130  140.2990 C   0  0  1  0  0  3  0  0  0  0  0  0
  188.0590  178.3280  142.9310 N   0  0  0  0  0  0  0  0  0  0  0  0
  191.1000  179.3560  143.8920 C   0  0  0  0  0  1  0  0  0  0  0  0
  188.8190  178.3720  144.1710 C   0  0  1  0  0  3  0  0  0  0  0  0
  188.1640  176.6140  147.2430 C   0  0  0  0  0  2  0  0  0  0  0  0
  186.2220  179.3850  145.6600 C   0  0  0  0  0  1  0  0  0  0  0  0
  189.4260  177.2340  139.5840 C   0  0  0  0  0  2  0  0  0  0  0  0
  188.4930  177.7410  140.6440 C   0  0  0  0  0  0  0  0  0  0  0  0
  185.8990  178.0700  144.9500 C   0  0  2  0  0  3  0  0  0  0  0  0
  184.0220  177.2700  141.0050 C   0  0  0  0  0  2  0  0  0  0  0  0
  181.7690  177.8310  140.4470 O   0  0  0  0  0  1  0  0  0  0  0  0
  182.8950  177.1400  139.9970 C   0  0  0  0  0  2  0  0  0  0  0  0
  1  5  1  1  0  0  0
  1  4  1  0  0  0  0
  2 19  1  0  0  0  0
  3 10  1  0  0  0  0
  4 20  1  6  0  0  0
  4 12  1  0  0  0  0
  5 11  1  0  0  0  0
  7 15  1  1  0  0  0
  8 12  1  0  0  0  0
  8  6  1  6  0  0  0
  9  7  1  0  0  0  0
  9 14  1  1  0  0  0
 10 21  1  6  0  0  0
 10 22  1  0  0  0  0
 11 28  1  6  0  0  0
 11  8  1  0  0  0  0
 12 27  1  0  0  0  0
 13 18  2  0  0  0  0
 13  2  1  0  0  0  0
 14 23  1  0  0  0  0
 15 23  1  0  0  0  0
 16  2  2  0  0  0  0
 17  3  1  0  0  0  0
 17 20  1  0  0  0  0
 18 25  1  0  0  0  0
 19 26  1  0  0  0  0
 19  1  1  0  0  0  0
 20 22  1  0  0  0  0
 22  9  1  0  0  0  0
 25 26  1  0  0  0  0
 26 17  2  0  0  0  0
 27  7  1  0  0  0  0
 27 24  1  0  0  0  0
 30 29  1  0  0  0  0
 30 28  1  0  0  0  0
M  END
>  <MODEL>
4

>  <REMARK>
 VINA RESULT:      -5.4      2.105      5.856
  Name = 
  2 active torsions:
  status: ('A' for Active; 'I' for Inactive)
    1  A    between atoms: C_11  and  C_28
    2  A    between atoms: C_28  and  C_30
                            x       y       z     vdW  Elec       q    Type
                         _______ _______ _______ _____ _____    ______ ____

>  <TORSDO>
F 2

$$$$
=
 OpenBabel11122410213D

 30 35  0  0  1  0  0  0  0  0999 V2000
  186.0060  176.7950  136.3780 C   0  0  2  0  0  3  0  0  0  0  0  0
  188.4610  177.0140  136.9490 C   0  0  0  0  0  0  0  0  0  0  0  0
  185.0380  179.2910  139.5970 N   0  0  0  0  0  2  0  0  0  0  0  0
  184.5310  176.8240  136.8620 C   0  0  1  0  0  3  0  0  0  0  0  0
  186.2770  175.7760  135.3470 N   0  0  0  0  0  2  0  0  0  0  0  0
  183.5020  174.7870  134.6890 C   0  0  0  0  0  1  0  0  0  0  0  0
  182.3500  175.7200  139.0370 C   0  0  1  0  0  3  0  0  0  0  0  0
  184.2650  174.4550  135.9650 C   0  0  1  0  0  3  0  0  0  0  0  0
  182.4050  177.1900  139.4660 C   0  0  2  0  0  3  0  0  0  0  0  0
  183.5860  179.3790  139.4590 C   0  0  1  0  0  3  0  0  0  0  0  0
  185.7630  174.4370  135.6780 C   0  0  2  0  0  3  0  0  0  0  0  0
  183.9640  175.4240  137.1090 C   0  0  2  0  0  3  0  0  0  0  0  0
  189.2890  178.1700  137.3300 C   0  0  0  0  0  3  0  0  0  0  0  0
  181.0970  177.6270  139.7130 O   0  0  0  0  0  0  0  0  0  0  0  0
  181.0090  175.2650  139.5350 C   0  0  0  0  0  2  0  0  0  0  0  0
  188.9370  176.1690  136.1480 O   0  0  0  0  0  0  0  0  0  0  0  0
  185.4680  178.2570  138.7360 C   0  0  0  0  0  0  0  0  0  0  0  0
  188.9730  178.9200  138.3420 N   0  0  0  0  0  0  0  0  0  0  0  0
  187.0650  176.8330  137.5080 C   0  0  1  0  0  3  0  0  0  0  0  0
  184.3970  177.6220  138.0790 N   0  0  0  0  0  0  0  0  0  0  0  0
  183.2190  180.6810  138.7750 C   0  0  0  0  0  1  0  0  0  0  0  0
  183.1520  178.1900  138.5730 C   0  0  1  0  0  3  0  0  0  0  0  0
  180.4250  176.4940  140.1980 C   0  0  0  0  0  2  0  0  0  0  0  0
  181.5690  176.2440  136.6500 C   0  0  0  0  0  1  0  0  0  0  0  0
  187.8500  178.6290  139.2310 C   0  0  0  0  0  2  0  0  0  0  0  0
  186.7400  177.9470  138.4870 C   0  0  0  0  0  0  0  0  0  0  0  0
  182.4910  175.4120  137.5400 C   0  0  2  0  0  3  0  0  0  0  0  0
  186.5510  173.7680  136.8010 C   0  0  0  0  0  2  0  0  0  0  0  0
  188.7870  172.9680  137.0490 O   0  0  0  0  0  1  0  0  0  0  0  0
  187.6540  172.8910  136.2370 C   0  0  0  0  0  2  0  0  0  0  0  0
  1  5  1  1  0  0  0
  1  4  1  0  0  0  0
  1 19  1  0  0  0  0
  2 13  1  0  0  0  0
  2 19  1  0  0  0  0
  4 12  1  0  0  0  0
  4 20  1  1  0  0  0
  5 11  1  0  0  0  0
  7  9  1  0  0  0  0
  7 15  1  6  0  0  0
  8  6  1  6  0  0  0
  8 12  1  0  0  0  0
  9 14  1  6  0  0  0
 10 21  1  6  0  0  0
 10  3  1  0  0  0  0
 11  8  1  0  0  0  0
 11 28  1  1  0  0  0
 12 27  1  0  0  0  0
 13 18  2  0  0  0  0
 14 23  1  0  0  0  0
 15 23  1  0  0  0  0
 16  2  2  0  0  0  0
 17  3  1  0  0  0  0
 18 25  1  0  0  0  0
 19 26  1  0  0  0  0
 20 22  1  0  0  0  0
 20 17  1  0  0  0  0
 22 10  1  0  0  0  0
 22  9  1  0  0  0  0
 24 27  1  0  0  0  0
 26 17  2  0  0  0  0
 26 25  1  0  0  0  0
 27  7  1  0  0  0  0
 30 28  1  0  0  0  0
 30 29  1  0  0  0  0
M  END
>  <MODEL>
5

>  <REMARK>
 VINA RESULT:      -5.4      2.999      4.360
  Name = 
  2 active torsions:
  status: ('A' for Active; 'I' for Inactive)
    1  A    between atoms: C_11  and  C_28
    2  A    between atoms: C_28  and  C_30
                            x       y       z     vdW  Elec       q    Type
                         _______ _______ _______ _____ _____    ______ ____

>  <TORSDO>
F 2

$$$$
=
 OpenBabel11122410213D

 30 35  0  0  1  0  0  0  0  0999 V2000
  188.3850  178.4080  139.9290 C   0  0  2  0  0  3  0  0  0  0  0  0
  186.0960  178.7820  140.9360 C   0  0  0  0  0  0  0  0  0  0  0  0
  186.6050  177.2950  136.3070 N   0  0  0  0  0  2  0  0  0  0  0  0
  189.2610  177.6670  138.8810 C   0  0  1  0  0  3  0  0  0  0  0  0
  189.0550  178.6180  141.2250 N   0  0  0  0  0  2  0  0  0  0  0  0
  191.8830  177.7470  140.6280 C   0  0  0  0  0  1  0  0  0  0  0  0
  190.1210  174.7880  137.5870 C   0  0  1  0  0  3  0  0  0  0  0  0
  190.6980  176.8040  140.7980 C   0  0  1  0  0  3  0  0  0  0  0  0
  189.3840  175.3890  136.3860 C   0  0  2  0  0  3  0  0  0  0  0  0
  187.7820  177.0590  135.4740 C   0  0  1  0  0  3  0  0  0  0  0  0
  189.6940  177.4110  141.7730 C   0  0  2  0  0  3  0  0  0  0  0  0
  190.0060  176.4710  139.4760 C   0  0  2  0  0  3  0  0  0  0  0  0
  184.8820  179.4350  140.4190 C   0  0  0  0  0  3  0  0  0  0  0  0
  190.1310  175.1200  135.2310 O   0  0  0  0  0  0  0  0  0  0  0  0
  191.0360  173.7760  136.9610 C   0  0  0  0  0  2  0  0  0  0  0  0
  186.4250  178.9850  142.1340 O   0  0  0  0  0  0  0  0  0  0  0  0
  187.0630  177.4140  137.6370 C   0  0  0  0  0  0  0  0  0  0  0  0
  184.3410  179.0610  139.2990 N   0  0  0  0  0  0  0  0  0  0  0  0
  186.9350  177.8790  140.0560 C   0  0  1  0  0  3  0  0  0  0  0  0
  188.4530  177.2210  137.7490 N   0  0  0  0  0  0  0  0  0  0  0  0
  188.0320  178.2670  134.5940 C   0  0  0  0  0  1  0  0  0  0  0  0
  188.9750  176.8670  136.4380 C   0  0  1  0  0  3  0  0  0  0  0  0
  190.7450  173.8830  135.4790 C   0  0  0  0  0  2  0  0  0  0  0  0
  191.8630  176.6670  137.7050 C   0  0  0  0  0  1  0  0  0  0  0  0
  184.8230  177.9200  138.5230 C   0  0  0  0  0  2  0  0  0  0  0  0
  186.3050  177.7510  138.6800 C   0  0  0  0  0  0  0  0  0  0  0  0
  190.9220  175.7450  138.4800 C   0  0  2  0  0  3  0  0  0  0  0  0
  188.6790  176.3800  142.2620 C   0  0  0  0  0  2  0  0  0  0  0  0
  189.4750  176.7560  144.4810 O   0  0  0  0  0  1  0  0  0  0  0  0
  188.3160  176.6280  143.7140 C   0  0  0  0  0  2  0  0  0  0  0  0
  1 19  1  0  0  0  0
  1  5  1  1  0  0  0
  2 16  2  0  0  0  0
  3 17  1  0  0  0  0
  4 20  1  6  0  0  0
  4 12  1  0  0  0  0
  4  1  1  0  0  0  0
  5 11  1  0  0  0  0
  7 15  1  6  0  0  0
  7 27  1  0  0  0  0
  8  6  1  6  0  0  0
  8 11  1  0  0  0  0
  9 14  1  6  0  0  0
  9 22  1  0  0  0  0
  9  7  1  0  0  0  0
 10 21  1  6  0  0  0
 10  3  1  0  0  0  0
 10 22  1  0  0  0  0
 11 28  1  6  0  0  0
 12  8  1  0  0  0  0
 13  2  1  0  0  0  0
 14 23  1  0  0  0  0
 17 20  1  0  0  0  0
 17 26  2  0  0  0  0
 18 13  2  0  0  0  0
 19  2  1  0  0  0  0
 22 20  1  0  0  0  0
 23 15  1  0  0  0  0
 24 27  1  0  0  0  0
 25 26  1  0  0  0  0
 25 18  1  0  0  0  0
 26 19  1  0  0  0  0
 27 12  1  0  0  0  0
 28 30  1  0  0  0  0
 30 29  1  0  0  0  0
M  END
>  <MODEL>
6

>  <REMARK>
 VINA RESULT:      -5.4      2.315      6.585
  Name = 
  2 active torsions:
  status: ('A' for Active; 'I' for Inactive)
    1  A    between atoms: C_11  and  C_28
    2  A    between atoms: C_28  and  C_30
                            x       y       z     vdW  Elec       q    Type
                         _______ _______ _______ _____ _____    ______ ____

>  <TORSDO>
F 2

$$$$
=
 OpenBabel11122410213D

 30 35  0  0  1  0  0  0  0  0999 V2000
  183.1100  177.0440  139.2980 C   0  0  2  0  0  3  0  0  0  0  0  0
  184.9250  178.7280  138.7810 C   0  0  0  0  0  0  0  0  0  0  0  0
  184.6030  174.5230  136.3070 N   0  0  0  0  0  2  0  0  0  0  0  0
  182.2040  175.8860  138.7980 C   0  0  1  0  0  3  0  0  0  0  0  0
  182.4410  177.9650  140.2340 N   0  0  0  0  0  2  0  0  0  0  0  0
  179.8300  176.5460  140.7630 C   0  0  0  0  0  1  0  0  0  0  0  0
  180.1140  174.8490  136.5030 C   0  0  1  0  0  3  0  0  0  0  0  0
  180.1790  177.2760  139.4720 C   0  0  1  0  0  3  0  0  0  0  0  0
  181.2890  173.9100  136.2110 C   0  0  2  0  0  3  0  0  0  0  0  0
  183.7080  173.3750  136.4330 C   0  0  1  0  0  3  0  0  0  0  0  0
  181.1240  178.4350  139.7760 C   0  0  2  0  0  3  0  0  0  0  0  0
  180.7990  176.3590  138.4180 C   0  0  2  0  0  3  0  0  0  0  0  0
  186.3660  178.5800  138.5180 C   0  0  0  0  0  3  0  0  0  0  0  0
  180.7800  172.6240  135.9880 O   0  0  0  0  0  0  0  0  0  0  0  0
  178.9330  174.1080  135.9480 C   0  0  0  0  0  2  0  0  0  0  0  0
  184.5400  179.6800  139.5080 O   0  0  0  0  0  0  0  0  0  0  0  0
  184.0390  175.5650  137.0760 C   0  0  0  0  0  0  0  0  0  0  0  0
  186.8030  177.8010  137.5740 N   0  0  0  0  0  0  0  0  0  0  0  0
  183.9190  177.7630  138.1890 C   0  0  1  0  0  3  0  0  0  0  0  0
  182.8110  175.2030  137.6580 N   0  0  0  0  0  0  0  0  0  0  0  0
  184.3930  172.2810  137.2290 C   0  0  0  0  0  1  0  0  0  0  0  0
  182.4610  173.8670  137.2020 C   0  0  1  0  0  3  0  0  0  0  0  0
  179.5270  172.8310  135.3930 C   0  0  0  0  0  2  0  0  0  0  0  0
  179.8120  174.0360  138.9180 C   0  0  0  0  0  1  0  0  0  0  0  0
  185.9180  177.0980  136.6490 C   0  0  0  0  0  2  0  0  0  0  0  0
  184.6200  176.7420  137.3120 C   0  0  0  0  0  0  0  0  0  0  0  0
  179.8590  175.2330  137.9670 C   0  0  2  0  0  3  0  0  0  0  0  0
  181.2230  179.4110  138.6070 C   0  0  0  0  0  2  0  0  0  0  0  0
  181.9340  181.6750  138.3420 O   0  0  0  0  0  1  0  0  0  0  0  0
  181.0980  180.8450  139.0900 C   0  0  0  0  0  2  0  0  0  0  0  0
  1  5  1  6  0  0  0
  2 16  2  0  0  0  0
  3 10  1  0  0  0  0
  3 17  1  0  0  0  0
  4 20  1  6  0  0  0
  4  1  1  0  0  0  0
  7 15  1  1  0  0  0
  7 27  1  0  0  0  0
  8 11  1  0  0  0  0
  8  6  1  1  0  0  0
  9 14  1  1  0  0  0
  9  7  1  0  0  0  0
  9 22  1  0  0  0  0
 10 22  1  0  0  0  0
 10 21  1  1  0  0  0
 11 28  1  6  0  0  0
 11  5  1  0  0  0  0
 12  4  1  0  0  0  0
 12  8  1  0  0  0  0
 13  2  1  0  0  0  0
 17 26  2  0  0  0  0
 17 20  1  0  0  0  0
 18 13  2  0  0  0  0
 19  2  1  0  0  0  0
 19  1  1  0  0  0  0
 22 20  1  0  0  0  0
 23 15  1  0  0  0  0
 23 14  1  0  0  0  0
 25 26  1  0  0  0  0
 25 18  1  0  0  0  0
 26 19  1  0  0  0  0
 27 12  1  0  0  0  0
 27 24  1  0  0  0  0
 28 30  1  0  0  0  0
 29 30  1  0  0  0  0
M  END
>  <MODEL>
7

>  <REMARK>
 VINA RESULT:      -5.3      4.041      7.320
  Name = 
  2 active torsions:
  status: ('A' for Active; 'I' for Inactive)
    1  A    between atoms: C_11  and  C_28
    2  A    between atoms: C_28  and  C_30
                            x       y       z     vdW  Elec       q    Type
                         _______ _______ _______ _____ _____    ______ ____

>  <TORSDO>
F 2

$$$$
=
 OpenBabel11122410213D

 30 35  0  0  1  0  0  0  0  0999 V2000
  186.9980  175.4890  135.6710 C   0  0  2  0  0  3  0  0  0  0  0  0
  185.8120  173.3060  135.1950 C   0  0  0  0  0  0  0  0  0  0  0  0
  190.3030  173.3700  137.1260 N   0  0  0  0  0  2  0  0  0  0  0  0
  188.0500  176.2630  136.5120 C   0  0  1  0  0  3  0  0  0  0  0  0
  185.8010  176.2810  135.3380 N   0  0  0  0  0  2  0  0  0  0  0  0
  186.5860  179.0430  136.2690 C   0  0  0  0  0  1  0  0  0  0  0  0
  189.1370  177.0130  139.5060 C   0  0  1  0  0  3  0  0  0  0  0  0
  186.2090  177.8880  137.1880 C   0  0  1  0  0  3  0  0  0  0  0  0
  190.3120  176.1570  139.0230 C   0  0  2  0  0  3  0  0  0  0  0  0
  191.2200  174.4620  137.4460 C   0  0  1  0  0  3  0  0  0  0  0  0
  185.2040  176.9800  136.4880 C   0  0  2  0  0  3  0  0  0  0  0  0
  187.4180  177.0720  137.6470 C   0  0  2  0  0  3  0  0  0  0  0  0
  186.2680  172.0430  134.5940 C   0  0  0  0  0  3  0  0  0  0  0  0
  191.5040  176.7890  139.4040 O   0  0  0  0  0  0  0  0  0  0  0  0
  189.7500  177.8690  140.5760 C   0  0  0  0  0  2  0  0  0  0  0  0
  184.6780  173.7510  134.8780 O   0  0  0  0  0  0  0  0  0  0  0  0
  189.0410  173.9560  136.8800 C   0  0  0  0  0  0  0  0  0  0  0  0
  187.2880  171.3980  135.0730 N   0  0  0  0  0  0  0  0  0  0  0  0
  186.6780  174.0620  136.1820 C   0  0  1  0  0  3  0  0  0  0  0  0
  189.0490  175.3510  137.0650 N   0  0  0  0  0  0  0  0  0  0  0  0
  192.2340  174.6160  136.3290 C   0  0  0  0  0  1  0  0  0  0  0  0
  190.3650  175.7450  137.5450 C   0  0  1  0  0  3  0  0  0  0  0  0
  191.1980  177.4330  140.6130 C   0  0  0  0  0  2  0  0  0  0  0  0
  189.3740  178.7450  137.6280 C   0  0  0  0  0  1  0  0  0  0  0  0
  187.9930  171.8100  136.2850 C   0  0  0  0  0  2  0  0  0  0  0  0
  187.9670  173.3010  136.4410 C   0  0  0  0  0  0  0  0  0  0  0  0
  188.4240  177.8900  138.4680 C   0  0  2  0  0  3  0  0  0  0  0  0
  184.5200  176.0250  137.4630 C   0  0  0  0  0  2  0  0  0  0  0  0
  182.9340  175.8880  139.2430 O   0  0  0  0  0  1  0  0  0  0  0  0
  183.5130  176.7650  138.3250 C   0  0  0  0  0  2  0  0  0  0  0  0
  1  5  1  1  0  0  0
  1 19  1  0  0  0  0
  1  4  1  0  0  0  0
  2 19  1  0  0  0  0
  3 10  1  0  0  0  0
  4 20  1  1  0  0  0
  4 12  1  0  0  0  0
  5 11  1  0  0  0  0
  7 15  1  1  0  0  0
  8  6  1  6  0  0  0
  8 12  1  0  0  0  0
  9 14  1  6  0  0  0
  9  7  1  0  0  0  0
 10 21  1  6  0  0  0
 10 22  1  0  0  0  0
 11  8  1  0  0  0  0
 11 28  1  1  0  0  0
 12 27  1  0  0  0  0
 13 18  2  0  0  0  0
 13  2  1  0  0  0  0
 14 23  1  0  0  0  0
 15 23  1  0  0  0  0
 16  2  2  0  0  0  0
 17 20  1  0  0  0  0
 17  3  1  0  0  0  0
 18 25  1  0  0  0  0
 19 26  1  0  0  0  0
 20 22  1  0  0  0  0
 22  9  1  0  0  0  0
 24 27  1  0  0  0  0
 25 26  1  0  0  0  0
 26 17  2  0  0  0  0
 27  7  1  0  0  0  0
 28 30  1  0  0  0  0
 30 29  1  0  0  0  0
M  END
>  <MODEL>
8

>  <REMARK>
 VINA RESULT:      -5.2      3.544      7.403
  Name = 
  2 active torsions:
  status: ('A' for Active; 'I' for Inactive)
    1  A    between atoms: C_11  and  C_28
    2  A    between atoms: C_28  and  C_30
                            x       y       z     vdW  Elec       q    Type
                         _______ _______ _______ _____ _____    ______ ____

>  <TORSDO>
F 2

$$$$
=
 OpenBabel11122410213D

 30 35  0  0  1  0  0  0  0  0999 V2000
  181.0600  175.1560  137.2480 C   0  0  2  0  0  3  0  0  0  0  0  0
  181.1350  172.6980  136.6530 C   0  0  0  0  0  0  0  0  0  0  0  0
  185.2310  175.3520  136.9530 N   0  0  0  0  0  2  0  0  0  0  0  0
  181.7790  176.3870  137.8630 C   0  0  1  0  0  3  0  0  0  0  0  0
  179.6150  175.1010  137.5380 N   0  0  0  0  0  2  0  0  0  0  0  0
  179.1240  177.7870  138.8250 C   0  0  0  0  0  1  0  0  0  0  0  0
  183.4270  177.5890  140.4210 C   0  0  1  0  0  3  0  0  0  0  0  0
  179.8350  176.6170  139.4930 C   0  0  1  0  0  3  0  0  0  0  0  0
  184.5510  177.5910  139.3800 C   0  0  2  0  0  3  0  0  0  0  0  0
  185.4670  176.7690  137.2190 C   0  0  1  0  0  3  0  0  0  0  0  0
  179.2790  175.3020  138.9560 C   0  0  2  0  0  3  0  0  0  0  0  0
  181.3520  176.6570  139.3080 C   0  0  2  0  0  3  0  0  0  0  0  0
  181.8920  171.9490  135.6370 C   0  0  0  0  0  3  0  0  0  0  0  0
  185.2580  178.7950  139.4950 O   0  0  0  0  0  0  0  0  0  0  0  0
  183.8720  178.6270  141.4100 C   0  0  0  0  0  2  0  0  0  0  0  0
  179.9290  172.3990  136.8480 O   0  0  0  0  0  0  0  0  0  0  0  0
  183.8850  175.0920  137.2910 C   0  0  0  0  0  0  0  0  0  0  0  0
  183.1880  172.0170  135.5750 N   0  0  0  0  0  0  0  0  0  0  0  0
  181.7870  173.8040  137.4570 C   0  0  1  0  0  3  0  0  0  0  0  0
  183.2300  176.2250  137.8090 N   0  0  0  0  0  0  0  0  0  0  0  0
  185.6750  177.5030  135.9080 C   0  0  0  0  0  1  0  0  0  0  0  0
  184.1960  177.3070  137.9140 C   0  0  1  0  0  3  0  0  0  0  0  0
  185.1910  179.1220  140.8590 C   0  0  0  0  0  2  0  0  0  0  0  0
  181.9110  179.1580  139.0720 C   0  0  0  0  0  1  0  0  0  0  0  0
  183.9940  172.7470  136.5510 C   0  0  0  0  0  2  0  0  0  0  0  0
  183.2520  173.9380  137.0790 C   0  0  0  0  0  0  0  0  0  0  0  0
  182.0060  177.8980  139.9320 C   0  0  2  0  0  3  0  0  0  0  0  0
  179.6800  174.1150  139.8280 C   0  0  0  0  0  2  0  0  0  0  0  0
  179.6350  173.3780  142.0980 O   0  0  0  0  0  1  0  0  0  0  0  0
  178.9540  174.1550  141.1600 C   0  0  0  0  0  2  0  0  0  0  0  0
  1 19  1  0  0  0  0
  1  5  1  1  0  0  0
  1  4  1  0  0  0  0
  2 16  2  0  0  0  0
  2 19  1  0  0  0  0
  3 10  1  0  0  0  0
  3 17  1  0  0  0  0
  4 20  1  1  0  0  0
  4 12  1  0  0  0  0
  5 11  1  0  0  0  0
  7 15  1  1  0  0  0
  8  6  1  6  0  0  0
  9 14  1  6  0  0  0
  9  7  1  0  0  0  0
 10 21  1  6  0  0  0
 10 22  1  0  0  0  0
 11  8  1  0  0  0  0
 11 28  1  1  0  0  0
 12  8  1  0  0  0  0
 12 27  1  0  0  0  0
 13  2  1  0  0  0  0
 14 23  1  0  0  0  0
 17 20  1  0  0  0  0
 18 13  2  0  0  0  0
 18 25  1  0  0  0  0
 20 22  1  0  0  0  0
 22  9  1  0  0  0  0
 23 15  1  0  0  0  0
 24 27  1  0  0  0  0
 25 26  1  0  0  0  0
 26 17  2  0  0  0  0
 26 19  1  0  0  0  0
 27  7  1  0  0  0  0
 28 30  1  0  0  0  0
 30 29  1  0  0  0  0
M  END
>  <MODEL>
9

>  <REMARK>
 VINA RESULT:      -5.0      4.285      8.052
  Name = 
  2 active torsions:
  status: ('A' for Active; 'I' for Inactive)
    1  A    between atoms: C_11  and  C_28
    2  A    between atoms: C_28  and  C_30
                            x       y       z     vdW  Elec       q    Type
                         _______ _______ _______ _____ _____    ______ ____

>  <TORSDO>
F 2

$$$$
