=
 OpenBabel11122411383D

 37 42  0  0  1  0  0  0  0  0999 V2000
  189.2390  177.9860  143.5440 C   0  0  0  0  0  0  0  0  0  0  0  0
  185.3870  178.1480  141.9170 C   0  0  0  0  0  0  0  0  0  0  0  0
  185.1620  179.3230  138.3200 O   0  0  0  0  0  0  0  0  0  0  0  0
  186.7210  178.2000  143.9210 C   0  0  0  0  0  0  0  0  0  0  0  0
  185.6000  178.1430  140.4400 C   0  0  1  0  0  3  0  0  0  0  0  0
  186.5890  178.1360  142.5430 C   0  0  0  0  0  0  0  0  0  0  0  0
  184.7760  179.2040  139.6810 C   0  0  2  0  0  3  0  0  0  0  0  0
  185.5470  178.2480  144.6930 C   0  0  0  0  0  3  0  0  0  0  0  0
  187.6700  178.1660  141.6480 N   0  0  0  0  0  0  0  0  0  0  0  0
  189.3860  176.4750  143.5000 C   0  0  0  0  0  1  0  0  0  0  0  0
  182.8860  178.2440  141.9440 C   0  0  0  0  0  2  0  0  0  0  0  0
  184.2840  178.2270  144.0550 C   0  0  0  0  0  3  0  0  0  0  0  0
  189.0060  178.5240  142.1150 C   0  0  0  0  0  2  0  0  0  0  0  0
  186.4590  177.7070  137.0700 C   0  0  1  0  0  3  0  0  0  0  0  0
  185.1170  178.0520  137.7180 C   0  0  0  0  0  2  0  0  0  0  0  0
  184.1990  178.1790  142.6500 C   0  0  0  0  0  0  0  0  0  0  0  0
  187.1260  178.3950  140.3100 C   0  0  1  0  0  3  0  0  0  0  0  0
  188.0950  178.3670  144.5160 C   0  0  0  0  0  2  0  0  0  0  0  0
  183.2490  179.0020  139.8590 C   0  0  1  0  0  3  0  0  0  0  0  0
  190.5300  178.5730  144.0720 C   0  0  0  0  0  1  0  0  0  0  0  0
  187.7000  178.0680  137.9040 C   0  0  0  0  0  2  0  0  0  0  0  0
  187.7350  177.4400  139.2960 C   0  0  0  0  0  2  0  0  0  0  0  0
  182.8480  179.3960  141.1470 O   0  0  0  0  0  0  0  0  0  0  0  0
  181.7740  179.0590  137.8390 C   0  0  0  0  0  3  0  0  0  0  0  0
  182.4510  179.7600  138.8430 C   0  0  0  0  0  0  0  0  0  0  0  0
  182.3810  181.1610  138.8790 C   0  0  0  0  0  3  0  0  0  0  0  0
  181.5690  183.2710  137.9570 N   0  0  0  0  0  1  0  0  0  0  0  0
  180.9630  181.1460  136.9170 C   0  0  0  0  0  3  0  0  0  0  0  0
  181.6380  181.8510  137.9170 C   0  0  0  0  0  0  0  0  0  0  0  0
  181.0310  179.7490  136.8780 C   0  0  0  0  0  3  0  0  0  0  0  0
  186.2730  173.4440  136.0280 O   0  0  0  0  0  0  0  0  0  0  0  0
  185.5320  173.9480  136.9140 C   0  0  0  0  0  0  0  0  0  0  0  0
  186.4890  176.2840  136.6180 C   0  0  0  0  0  0  0  0  0  0  0  0
  185.6140  175.3390  137.2430 N   0  0  0  0  0  2  0  0  0  0  0  0
  187.2660  175.9310  135.6890 O   0  0  0  0  0  0  0  0  0  0  0  0
  184.2650  171.9080  136.8570 N   0  0  0  0  0  1  0  0  0  0  0  0
  184.5840  173.0760  137.6570 C   0  0  0  0  0  2  0  0  0  0  0  0
  1 20  1  0  0  0  0
  1 18  1  0  0  0  0
  2  6  2  0  0  0  0
  2 16  1  0  0  0  0
  4 18  1  0  0  0  0
  4  8  2  0  0  0  0
  5  2  1  1  0  0  0
  6  4  1  0  0  0  0
  7  3  1  6  0  0  0
  7 19  1  0  0  0  0
  7  5  1  0  0  0  0
  9 13  1  0  0  0  0
  9  6  1  0  0  0  0
 10  1  1  0  0  0  0
 11 16  1  0  0  0  0
 12  8  1  0  0  0  0
 13  1  1  0  0  0  0
 14 33  1  1  0  0  0
 14 15  1  0  0  0  0
 14 21  1  0  0  0  0
 15  3  1  0  0  0  0
 16 12  2  0  0  0  0
 17 22  1  6  0  0  0
 17  5  1  0  0  0  0
 17  9  1  0  0  0  0
 19 25  1  6  0  0  0
 19 23  1  0  0  0  0
 21 22  1  0  0  0  0
 23 11  1  0  0  0  0
 24 25  1  0  0  0  0
 25 26  2  0  0  0  0
 28 29  2  0  0  0  0
 29 27  1  0  0  0  0
 29 26  1  0  0  0  0
 30 28  1  0  0  0  0
 30 24  2  0  0  0  0
 31 32  2  0  0  0  0
 32 34  1  0  0  0  0
 32 37  1  0  0  0  0
 33 34  1  0  0  0  0
 35 33  2  0  0  0  0
 36 37  1  0  0  0  0
M  END
>  <MODEL>
1

>  <REMARK>
 VINA RESULT:      -7.5      0.000      0.000
  Name = 
  3 active torsions:
  status: ('A' for Active; 'I' for Inactive)
    1  A    between atoms: C_4  and  C_37
    2  A    between atoms: C_8  and  C_18
    3  A    between atoms: C_23  and  C_30
                            x       y       z     vdW  Elec       q    Type
                         _______ _______ _______ _____ _____    ______ ____

>  <TORSDO>
F 3

$$$$
=
 OpenBabel11122411383D

 37 42  0  0  1  0  0  0  0  0999 V2000
  189.0200  177.9600  143.8170 C   0  0  0  0  0  0  0  0  0  0  0  0
  185.2190  178.1890  142.0800 C   0  0  0  0  0  0  0  0  0  0  0  0
  185.1190  179.3580  138.4760 O   0  0  0  0  0  0  0  0  0  0  0  0
  186.4970  178.2220  144.1210 C   0  0  0  0  0  0  0  0  0  0  0  0
  185.4750  178.1760  140.6100 C   0  0  1  0  0  3  0  0  0  0  0  0
  186.4030  178.1570  142.7400 C   0  0  0  0  0  0  0  0  0  0  0  0
  184.6920  179.2500  139.8250 C   0  0  2  0  0  3  0  0  0  0  0  0
  185.3020  178.2930  144.8590 C   0  0  0  0  0  3  0  0  0  0  0  0
  187.5090  178.1640  141.8760 N   0  0  0  0  0  0  0  0  0  0  0  0
  189.1400  176.4460  143.7810 C   0  0  0  0  0  1  0  0  0  0  0  0
  182.7210  178.3320  142.0360 C   0  0  0  0  0  2  0  0  0  0  0  0
  184.0580  178.2950  144.1860 C   0  0  0  0  0  3  0  0  0  0  0  0
  188.8370  178.4980  142.3800 C   0  0  0  0  0  2  0  0  0  0  0  0
  186.4200  177.7150  137.2670 C   0  0  1  0  0  3  0  0  0  0  0  0
  185.0670  178.0860  137.8750 C   0  0  0  0  0  2  0  0  0  0  0  0
  184.0120  178.2440  142.7790 C   0  0  0  0  0  0  0  0  0  0  0  0
  187.0070  178.3990  140.5230 C   0  0  1  0  0  3  0  0  0  0  0  0
  187.8560  178.3650  144.7550 C   0  0  0  0  0  2  0  0  0  0  0  0
  183.1570  179.0770  139.9610 C   0  0  1  0  0  3  0  0  0  0  0  0
  190.3070  178.5240  144.3800 C   0  0  0  0  0  1  0  0  0  0  0  0
  187.6440  178.0540  138.1350 C   0  0  0  0  0  2  0  0  0  0  0  0
  187.6270  177.4300  139.5290 C   0  0  0  0  0  2  0  0  0  0  0  0
  182.7270  179.4820  141.2360 O   0  0  0  0  0  0  0  0  0  0  0  0
  182.3360  181.2410  139.0120 C   0  0  0  0  0  3  0  0  0  0  0  0
  182.4030  179.8470  138.9200 C   0  0  0  0  0  0  0  0  0  0  0  0
  181.7580  179.1890  137.8620 C   0  0  0  0  0  3  0  0  0  0  0  0
  180.3990  179.2540  135.8340 N   0  0  0  0  0  1  0  0  0  0  0  0
  180.9890  181.3180  137.0010 C   0  0  0  0  0  3  0  0  0  0  0  0
  181.0520  179.9240  136.9050 C   0  0  0  0  0  0  0  0  0  0  0  0
  181.6310  181.9760  138.0540 C   0  0  0  0  0  3  0  0  0  0  0  0
  186.8710  173.5590  135.9190 O   0  0  0  0  0  0  0  0  0  0  0  0
  187.8640  174.3060  136.1240 C   0  0  0  0  0  0  0  0  0  0  0  0
  186.4370  176.2900  136.8190 C   0  0  0  0  0  0  0  0  0  0  0  0
  187.6950  175.6600  136.5580 N   0  0  0  0  0  2  0  0  0  0  0  0
  185.3550  175.6550  136.6880 O   0  0  0  0  0  0  0  0  0  0  0  0
  189.8590  173.4300  137.1390 N   0  0  0  0  0  1  0  0  0  0  0  0
  189.2350  173.7840  135.8770 C   0  0  0  0  0  2  0  0  0  0  0  0
  1 20  1  0  0  0  0
  1 18  1  0  0  0  0
  2  6  2  0  0  0  0
  2 16  1  0  0  0  0
  4 18  1  0  0  0  0
  4  8  2  0  0  0  0
  5  2  1  1  0  0  0
  6  4  1  0  0  0  0
  7  3  1  6  0  0  0
  7 19  1  0  0  0  0
  7  5  1  0  0  0  0
  9 13  1  0  0  0  0
  9  6  1  0  0  0  0
 10  1  1  0  0  0  0
 11 16  1  0  0  0  0
 12  8  1  0  0  0  0
 13  1  1  0  0  0  0
 14 33  1  1  0  0  0
 14 15  1  0  0  0  0
 14 21  1  0  0  0  0
 15  3  1  0  0  0  0
 16 12  2  0  0  0  0
 17 22  1  6  0  0  0
 17  5  1  0  0  0  0
 17  9  1  0  0  0  0
 19 25  1  6  0  0  0
 19 23  1  0  0  0  0
 21 22  1  0  0  0  0
 23 11  1  0  0  0  0
 25 24  1  0  0  0  0
 26 25  2  0  0  0  0
 27 29  1  0  0  0  0
 28 30  1  0  0  0  0
 29 28  2  0  0  0  0
 29 26  1  0  0  0  0
 30 24  2  0  0  0  0
 31 32  2  0  0  0  0
 32 34  1  0  0  0  0
 34 33  1  0  0  0  0
 35 33  2  0  0  0  0
 37 32  1  0  0  0  0
 37 36  1  0  0  0  0
M  END
>  <MODEL>
2

>  <REMARK>
 VINA RESULT:      -7.3      1.474      1.819
  Name = 
  3 active torsions:
  status: ('A' for Active; 'I' for Inactive)
    1  A    between atoms: C_4  and  C_37
    2  A    between atoms: C_8  and  C_18
    3  A    between atoms: C_23  and  C_30
                            x       y       z     vdW  Elec       q    Type
                         _______ _______ _______ _____ _____    ______ ____

>  <TORSDO>
F 3

$$$$
=
 OpenBabel11122411383D

 37 42  0  0  1  0  0  0  0  0999 V2000
  179.8840  178.8120  142.4610 C   0  0  0  0  0  0  0  0  0  0  0  0
  182.4670  176.8630  139.8060 C   0  0  0  0  0  0  0  0  0  0  0  0
  185.7430  178.6320  139.0940 O   0  0  0  0  0  0  0  0  0  0  0  0
  180.1910  177.1620  140.5340 C   0  0  0  0  0  0  0  0  0  0  0  0
  183.8070  177.4620  140.0750 C   0  0  1  0  0  3  0  0  0  0  0  0
  181.5430  177.4610  140.5980 C   0  0  0  0  0  0  0  0  0  0  0  0
  184.5820  177.8690  138.8040 C   0  0  2  0  0  3  0  0  0  0  0  0
  179.7790  176.1710  139.6250 C   0  0  0  0  0  3  0  0  0  0  0  0
  182.0860  178.4800  141.3960 N   0  0  0  0  0  0  0  0  0  0  0  0
  180.1310  177.8990  143.6500 C   0  0  0  0  0  1  0  0  0  0  0  0
  183.1200  175.2550  138.0040 C   0  0  0  0  0  2  0  0  0  0  0  0
  180.7360  175.5160  138.8160 C   0  0  0  0  0  3  0  0  0  0  0  0
  181.2150  179.4660  142.0270 C   0  0  0  0  0  2  0  0  0  0  0  0
  186.8300  178.7900  141.2500 C   0  0  1  0  0  3  0  0  0  0  0  0
  186.5330  177.9280  140.0220 C   0  0  0  0  0  2  0  0  0  0  0  0
  182.0980  175.8650  138.9040 C   0  0  0  0  0  0  0  0  0  0  0  0
  183.4660  178.6900  140.9610 C   0  0  1  0  0  3  0  0  0  0  0  0
  179.2200  178.0040  141.3180 C   0  0  0  0  0  2  0  0  0  0  0  0
  184.8690  176.6600  137.8770 C   0  0  1  0  0  3  0  0  0  0  0  0
  178.9310  179.9040  142.8930 C   0  0  0  0  0  1  0  0  0  0  0  0
  185.6380  179.6010  141.7840 C   0  0  0  0  0  2  0  0  0  0  0  0
  184.4130  178.7640  142.1480 C   0  0  0  0  0  2  0  0  0  0  0  0
  183.6970  176.2580  137.2140 O   0  0  0  0  0  0  0  0  0  0  0  0
  185.5780  177.6120  135.6750 C   0  0  0  0  0  3  0  0  0  0  0  0
  185.9300  176.9590  136.8610 C   0  0  0  0  0  0  0  0  0  0  0  0
  187.2640  176.5880  137.0810 C   0  0  0  0  0  3  0  0  0  0  0  0
  189.5910  176.4910  136.3440 N   0  0  0  0  0  1  0  0  0  0  0  0
  187.8820  177.5210  134.9340 C   0  0  0  0  0  3  0  0  0  0  0  0
  188.2380  176.8680  136.1190 C   0  0  0  0  0  0  0  0  0  0  0  0
  186.5530  177.8930  134.7130 C   0  0  0  0  0  3  0  0  0  0  0  0
  188.5280  176.6400  144.6830 O   0  0  0  0  0  0  0  0  0  0  0  0
  187.6210  177.5040  144.8180 C   0  0  0  0  0  0  0  0  0  0  0  0
  187.4830  177.9870  142.3270 C   0  0  0  0  0  0  0  0  0  0  0  0
  187.0860  178.1980  143.6860 N   0  0  0  0  0  2  0  0  0  0  0  0
  188.3590  177.1280  142.0340 O   0  0  0  0  0  0  0  0  0  0  0  0
  185.9440  178.6740  146.0790 N   0  0  0  0  0  1  0  0  0  0  0  0
  187.1230  177.8340  146.1800 C   0  0  0  0  0  2  0  0  0  0  0  0
  1 20  1  0  0  0  0
  1 10  1  0  0  0  0
  2  6  1  0  0  0  0
  3 15  1  0  0  0  0
  4  6  2  0  0  0  0
  4 18  1  0  0  0  0
  5  2  1  6  0  0  0
  5 17  1  0  0  0  0
  6  9  1  0  0  0  0
  7  3  1  1  0  0  0
  7  5  1  0  0  0  0
  8  4  1  0  0  0  0
  9 13  1  0  0  0  0
 11 16  1  0  0  0  0
 12 16  1  0  0  0  0
 12  8  2  0  0  0  0
 13  1  1  0  0  0  0
 14 21  1  0  0  0  0
 14 33  1  1  0  0  0
 15 14  1  0  0  0  0
 16  2  2  0  0  0  0
 17  9  1  0  0  0  0
 17 22  1  1  0  0  0
 18  1  1  0  0  0  0
 19 25  1  6  0  0  0
 19  7  1  0  0  0  0
 21 22  1  0  0  0  0
 23 19  1  0  0  0  0
 23 11  1  0  0  0  0
 24 25  1  0  0  0  0
 25 26  2  0  0  0  0
 28 29  2  0  0  0  0
 29 27  1  0  0  0  0
 29 26  1  0  0  0  0
 30 28  1  0  0  0  0
 30 24  2  0  0  0  0
 31 32  2  0  0  0  0
 32 37  1  0  0  0  0
 33 34  1  0  0  0  0
 34 32  1  0  0  0  0
 35 33  2  0  0  0  0
 36 37  1  0  0  0  0
M  END
>  <MODEL>
3

>  <REMARK>
 VINA RESULT:      -6.8      3.015      6.978
  Name = 
  3 active torsions:
  status: ('A' for Active; 'I' for Inactive)
    1  A    between atoms: C_4  and  C_37
    2  A    between atoms: C_8  and  C_18
    3  A    between atoms: C_23  and  C_30
                            x       y       z     vdW  Elec       q    Type
                         _______ _______ _______ _____ _____    ______ ____

>  <TORSDO>
F 3

$$$$
=
 OpenBabel11122411383D

 37 42  0  0  1  0  0  0  0  0999 V2000
  184.1030  176.5650  135.7640 C   0  0  0  0  0  0  0  0  0  0  0  0
  187.7600  174.6160  136.3500 C   0  0  0  0  0  0  0  0  0  0  0  0
  190.6460  176.8160  137.4440 O   0  0  0  0  0  0  0  0  0  0  0  0
  185.6280  174.5850  135.2310 C   0  0  0  0  0  0  0  0  0  0  0  0
  188.5470  175.5430  137.2150 C   0  0  1  0  0  3  0  0  0  0  0  0
  186.5590  175.1790  136.0680 C   0  0  0  0  0  0  0  0  0  0  0  0
  189.9970  175.7690  136.7380 C   0  0  2  0  0  3  0  0  0  0  0  0
  185.9420  173.3290  134.6830 C   0  0  0  0  0  3  0  0  0  0  0  0
  186.4160  176.4620  136.6180 N   0  0  0  0  0  0  0  0  0  0  0  0
  183.4310  176.0650  137.0310 C   0  0  0  0  0  1  0  0  0  0  0  0
  189.4470  172.7830  136.1160 C   0  0  0  0  0  2  0  0  0  0  0  0
  187.1770  172.7140  134.9950 C   0  0  0  0  0  3  0  0  0  0  0  0
  185.3740  177.3620  136.1330 C   0  0  0  0  0  2  0  0  0  0  0  0
  189.9270  177.7570  139.5550 C   0  0  1  0  0  3  0  0  0  0  0  0
  190.5500  176.5650  138.8260 C   0  0  0  0  0  2  0  0  0  0  0  0
  188.1010  173.3640  135.8370 C   0  0  0  0  0  0  0  0  0  0  0  0
  187.7140  176.8510  137.1690 C   0  0  1  0  0  3  0  0  0  0  0  0
  184.4040  175.3660  134.8300 C   0  0  0  0  0  2  0  0  0  0  0  0
  190.8220  174.4570  136.7150 C   0  0  1  0  0  3  0  0  0  0  0  0
  183.1430  177.4950  135.0540 C   0  0  0  0  0  1  0  0  0  0  0  0
  188.7180  178.3960  138.8510 C   0  0  0  0  0  2  0  0  0  0  0  0
  187.5670  177.4330  138.5660 C   0  0  0  0  0  2  0  0  0  0  0  0
  190.4340  173.6510  135.6310 O   0  0  0  0  0  0  0  0  0  0  0  0
  192.8220  175.3550  135.5100 C   0  0  0  0  0  3  0  0  0  0  0  0
  192.2960  174.7100  136.6350 C   0  0  0  0  0  0  0  0  0  0  0  0
  193.1550  174.3040  137.6680 C   0  0  0  0  0  3  0  0  0  0  0  0
  195.3970  174.1290  138.6200 N   0  0  0  0  0  1  0  0  0  0  0  0
  195.0490  175.1880  136.4450 C   0  0  0  0  0  3  0  0  0  0  0  0
  194.5290  174.5420  137.5720 C   0  0  0  0  0  0  0  0  0  0  0  0
  194.1950  175.5940  135.4150 C   0  0  0  0  0  3  0  0  0  0  0  0
  189.4180  176.6160  143.7660 O   0  0  0  0  0  0  0  0  0  0  0  0
  190.5120  176.4640  143.1600 C   0  0  0  0  0  0  0  0  0  0  0  0
  189.6260  177.4200  140.9790 C   0  0  0  0  0  0  0  0  0  0  0  0
  190.6550  176.8370  141.7850 N   0  0  0  0  0  2  0  0  0  0  0  0
  188.4850  177.6620  141.4590 O   0  0  0  0  0  0  0  0  0  0  0  0
  191.6920  176.3220  145.2480 N   0  0  0  0  0  1  0  0  0  0  0  0
  191.6650  175.8530  143.8750 C   0  0  0  0  0  2  0  0  0  0  0  0
  1 13  1  0  0  0  0
  1 10  1  0  0  0  0
  3 15  1  0  0  0  0
  4  6  2  0  0  0  0
  5  2  1  6  0  0  0
  6  2  1  0  0  0  0
  6  9  1  0  0  0  0
  7  5  1  0  0  0  0
  7  3  1  1  0  0  0
  8 12  2  0  0  0  0
  8  4  1  0  0  0  0
  9 17  1  0  0  0  0
 12 16  1  0  0  0  0
 13  9  1  0  0  0  0
 14 33  1  1  0  0  0
 15 14  1  0  0  0  0
 16 11  1  0  0  0  0
 16  2  2  0  0  0  0
 17  5  1  0  0  0  0
 17 22  1  1  0  0  0
 18  4  1  0  0  0  0
 18  1  1  0  0  0  0
 19 25  1  6  0  0  0
 19  7  1  0  0  0  0
 20  1  1  0  0  0  0
 21 14  1  0  0  0  0
 22 21  1  0  0  0  0
 23 11  1  0  0  0  0
 23 19  1  0  0  0  0
 24 25  1  0  0  0  0
 25 26  2  0  0  0  0
 28 29  2  0  0  0  0
 29 26  1  0  0  0  0
 29 27  1  0  0  0  0
 30 24  2  0  0  0  0
 30 28  1  0  0  0  0
 32 31  2  0  0  0  0
 32 37  1  0  0  0  0
 33 35  2  0  0  0  0
 33 34  1  0  0  0  0
 34 32  1  0  0  0  0
 37 36  1  0  0  0  0
M  END
>  <MODEL>
4

>  <REMARK>
 VINA RESULT:      -6.8      4.294      9.551
  Name = 
  3 active torsions:
  status: ('A' for Active; 'I' for Inactive)
    1  A    between atoms: C_4  and  C_37
    2  A    between atoms: C_8  and  C_18
    3  A    between atoms: C_23  and  C_30
                            x       y       z     vdW  Elec       q    Type
                         _______ _______ _______ _____ _____    ______ ____

>  <TORSDO>
F 3

$$$$
=
 OpenBabel11122411383D

 37 42  0  0  1  0  0  0  0  0999 V2000
  184.9230  178.8110  144.6930 C   0  0  0  0  0  0  0  0  0  0  0  0
  184.9480  178.4830  140.5210 C   0  0  0  0  0  0  0  0  0  0  0  0
  181.6750  177.4250  138.9290 O   0  0  0  0  0  0  0  0  0  0  0  0
  186.2540  178.4370  142.5450 C   0  0  0  0  0  0  0  0  0  0  0  0
  183.5100  178.5530  140.1290 C   0  0  1  0  0  3  0  0  0  0  0  0
  185.0460  178.5430  141.8720 C   0  0  0  0  0  0  0  0  0  0  0  0
  183.0820  177.4730  139.1120 C   0  0  2  0  0  3  0  0  0  0  0  0
  187.4230  178.2940  141.7780 C   0  0  0  0  0  3  0  0  0  0  0  0
  183.7960  178.6080  142.5070 N   0  0  0  0  0  0  0  0  0  0  0  0
  184.9090  180.3290  144.7510 C   0  0  0  0  0  1  0  0  0  0  0  0
  185.9580  178.2400  138.2440 C   0  0  0  0  0  2  0  0  0  0  0  0
  187.3400  178.2640  140.3660 C   0  0  0  0  0  3  0  0  0  0  0  0
  183.6750  178.3120  143.9310 C   0  0  0  0  0  2  0  0  0  0  0  0
  180.1060  179.1580  139.5560 C   0  0  1  0  0  3  0  0  0  0  0  0
  181.2120  178.7130  138.5980 C   0  0  0  0  0  2  0  0  0  0  0  0
  186.0880  178.3570  139.7260 C   0  0  0  0  0  0  0  0  0  0  0  0
  182.7730  178.3950  141.4840 C   0  0  1  0  0  3  0  0  0  0  0  0
  186.2460  178.3300  144.0470 C   0  0  0  0  0  2  0  0  0  0  0  0
  183.8610  177.5800  137.7760 C   0  0  1  0  0  3  0  0  0  0  0  0
  184.8630  178.2830  146.1100 C   0  0  0  0  0  1  0  0  0  0  0  0
  180.3590  178.8410  141.0390 C   0  0  0  0  0  2  0  0  0  0  0  0
  181.6560  179.4190  141.6010 C   0  0  0  0  0  2  0  0  0  0  0  0
  185.1780  177.1170  137.9370 O   0  0  0  0  0  0  0  0  0  0  0  0
  182.5730  177.5090  135.6330 C   0  0  0  0  0  3  0  0  0  0  0  0
  183.2030  176.8130  136.6700 C   0  0  0  0  0  0  0  0  0  0  0  0
  183.2040  175.4100  136.6650 C   0  0  0  0  0  3  0  0  0  0  0  0
  182.5800  173.2900  135.6260 N   0  0  0  0  0  1  0  0  0  0  0  0
  181.9490  175.4120  134.5940 C   0  0  0  0  0  3  0  0  0  0  0  0
  182.5770  174.7120  135.6290 C   0  0  0  0  0  0  0  0  0  0  0  0
  181.9470  176.8100  134.5960 C   0  0  0  0  0  3  0  0  0  0  0  0
  179.3520  183.3860  138.6370 O   0  0  0  0  0  0  0  0  0  0  0  0
  180.1310  182.6800  137.9420 C   0  0  0  0  0  0  0  0  0  0  0  0
  179.7590  180.5950  139.3470 C   0  0  0  0  0  0  0  0  0  0  0  0
  180.3670  181.3050  138.2630 N   0  0  0  0  0  2  0  0  0  0  0  0
  178.9310  181.1640  140.1100 O   0  0  0  0  0  0  0  0  0  0  0  0
  181.7950  184.2800  137.2740 N   0  0  0  0  0  1  0  0  0  0  0  0
  180.8440  183.2950  136.7910 C   0  0  0  0  0  2  0  0  0  0  0  0
  1 10  1  0  0  0  0
  1 20  1  0  0  0  0
  2  6  1  0  0  0  0
  4 18  1  0  0  0  0
  5  2  1  1  0  0  0
  5 17  1  0  0  0  0
  6  9  1  0  0  0  0
  6  4  2  0  0  0  0
  7  3  1  6  0  0  0
  7  5  1  0  0  0  0
  8  4  1  0  0  0  0
  9 13  1  0  0  0  0
 11 16  1  0  0  0  0
 12  8  2  0  0  0  0
 13  1  1  0  0  0  0
 14 33  1  1  0  0  0
 14 21  1  0  0  0  0
 15  3  1  0  0  0  0
 15 14  1  0  0  0  0
 16 12  1  0  0  0  0
 16  2  2  0  0  0  0
 17 22  1  1  0  0  0
 17  9  1  0  0  0  0
 18  1  1  0  0  0  0
 19 25  1  6  0  0  0
 19 23  1  0  0  0  0
 19  7  1  0  0  0  0
 21 22  1  0  0  0  0
 23 11  1  0  0  0  0
 24 25  1  0  0  0  0
 26 25  2  0  0  0  0
 27 29  1  0  0  0  0
 28 30  1  0  0  0  0
 28 29  2  0  0  0  0
 29 26  1  0  0  0  0
 30 24  2  0  0  0  0
 32 34  1  0  0  0  0
 32 31  2  0  0  0  0
 33 35  2  0  0  0  0
 34 33  1  0  0  0  0
 37 36  1  0  0  0  0
 37 32  1  0  0  0  0
M  END
>  <MODEL>
5

>  <REMARK>
 VINA RESULT:      -6.6      2.414      6.454
  Name = 
  3 active torsions:
  status: ('A' for Active; 'I' for Inactive)
    1  A    between atoms: C_4  and  C_37
    2  A    between atoms: C_8  and  C_18
    3  A    between atoms: C_23  and  C_30
                            x       y       z     vdW  Elec       q    Type
                         _______ _______ _______ _____ _____    ______ ____

>  <TORSDO>
F 3

$$$$
=
 OpenBabel11122411383D

 37 42  0  0  1  0  0  0  0  0999 V2000
  180.3640  178.8420  143.3800 C   0  0  0  0  0  0  0  0  0  0  0  0
  183.4330  178.7070  140.5370 C   0  0  0  0  0  0  0  0  0  0  0  0
  182.5550  177.0580  137.2390 O   0  0  0  0  0  0  0  0  0  0  0  0
  182.8690  178.8480  142.8740 C   0  0  0  0  0  0  0  0  0  0  0  0
  182.7330  178.4920  139.2370 C   0  0  1  0  0  3  0  0  0  0  0  0
  182.5190  178.7280  141.5390 C   0  0  0  0  0  0  0  0  0  0  0  0
  183.3640  177.3920  138.3570 C   0  0  2  0  0  3  0  0  0  0  0  0
  184.2320  178.9870  143.1870 C   0  0  0  0  0  3  0  0  0  0  0  0
  181.2090  178.5020  141.0870 N   0  0  0  0  0  0  0  0  0  0  0  0
  180.0460  180.3190  143.2270 C   0  0  0  0  0  1  0  0  0  0  0  0
  185.7890  178.7810  139.6990 C   0  0  0  0  0  2  0  0  0  0  0  0
  185.1950  179.0010  142.1510 C   0  0  0  0  0  3  0  0  0  0  0  0
  180.1580  178.1260  142.0270 C   0  0  0  0  0  2  0  0  0  0  0  0
  180.7430  178.3950  136.3540 C   0  0  1  0  0  3  0  0  0  0  0  0
  182.2540  178.2330  136.5250 C   0  0  0  0  0  2  0  0  0  0  0  0
  184.7930  178.8570  140.8080 C   0  0  0  0  0  0  0  0  0  0  0  0
  181.2910  178.1240  139.6760 C   0  0  1  0  0  3  0  0  0  0  0  0
  181.8040  178.6760  143.9260 C   0  0  0  0  0  2  0  0  0  0  0  0
  184.8290  177.7170  137.9680 C   0  0  1  0  0  3  0  0  0  0  0  0
  179.4000  178.2510  144.3860 C   0  0  0  0  0  1  0  0  0  0  0  0
  179.9050  178.0740  137.6020 C   0  0  0  0  0  2  0  0  0  0  0  0
  180.2740  178.8860  138.8420 C   0  0  0  0  0  2  0  0  0  0  0  0
  185.6830  177.5340  139.0690 O   0  0  0  0  0  0  0  0  0  0  0  0
  185.8100  177.5040  135.6770 C   0  0  0  0  0  3  0  0  0  0  0  0
  185.3140  176.8780  136.8250 C   0  0  0  0  0  0  0  0  0  0  0  0
  185.2700  175.4770  136.8890 C   0  0  0  0  0  3  0  0  0  0  0  0
  185.6740  173.2910  135.8770 N   0  0  0  0  0  1  0  0  0  0  0  0
  186.2160  175.3420  134.6640 C   0  0  0  0  0  3  0  0  0  0  0  0
  185.7190  174.7110  135.8090 C   0  0  0  0  0  0  0  0  0  0  0  0
  186.2610  176.7380  134.5980 C   0  0  0  0  0  3  0  0  0  0  0  0
  179.9180  182.4990  135.0240 O   0  0  0  0  0  0  0  0  0  0  0  0
  180.5550  182.2550  136.0830 C   0  0  0  0  0  0  0  0  0  0  0  0
  180.4050  179.7360  135.7890 C   0  0  0  0  0  0  0  0  0  0  0  0
  180.8070  180.9100  136.5020 N   0  0  0  0  0  2  0  0  0  0  0  0
  179.7880  179.8240  134.6920 O   0  0  0  0  0  0  0  0  0  0  0  0
  181.1790  184.5760  136.1190 N   0  0  0  0  0  1  0  0  0  0  0  0
  181.0200  183.3840  136.9320 C   0  0  0  0  0  2  0  0  0  0  0  0
  1 18  1  0  0  0  0
  1 20  1  0  0  0  0
  2 16  2  0  0  0  0
  2  6  1  0  0  0  0
  4  8  1  0  0  0  0
  4 18  1  0  0  0  0
  5 17  1  0  0  0  0
  5  2  1  1  0  0  0
  6  4  2  0  0  0  0
  7  3  1  6  0  0  0
  7  5  1  0  0  0  0
  9  6  1  0  0  0  0
  9 13  1  0  0  0  0
 10  1  1  0  0  0  0
 11 16  1  0  0  0  0
 12  8  2  0  0  0  0
 13  1  1  0  0  0  0
 14 33  1  1  0  0  0
 14 15  1  0  0  0  0
 14 21  1  0  0  0  0
 15  3  1  0  0  0  0
 16 12  1  0  0  0  0
 17 22  1  6  0  0  0
 17  9  1  0  0  0  0
 19 25  1  6  0  0  0
 19  7  1  0  0  0  0
 19 23  1  0  0  0  0
 21 22  1  0  0  0  0
 23 11  1  0  0  0  0
 24 25  1  0  0  0  0
 25 26  2  0  0  0  0
 28 29  2  0  0  0  0
 29 27  1  0  0  0  0
 29 26  1  0  0  0  0
 30 28  1  0  0  0  0
 30 24  2  0  0  0  0
 31 32  2  0  0  0  0
 32 34  1  0  0  0  0
 32 37  1  0  0  0  0
 33 34  1  0  0  0  0
 35 33  2  0  0  0  0
 36 37  1  0  0  0  0
M  END
>  <MODEL>
6

>  <REMARK>
 VINA RESULT:      -6.3      2.823      7.086
  Name = 
  3 active torsions:
  status: ('A' for Active; 'I' for Inactive)
    1  A    between atoms: C_4  and  C_37
    2  A    between atoms: C_8  and  C_18
    3  A    between atoms: C_23  and  C_30
                            x       y       z     vdW  Elec       q    Type
                         _______ _______ _______ _____ _____    ______ ____

>  <TORSDO>
F 3

$$$$
=
 OpenBabel11122411383D

 37 42  0  0  1  0  0  0  0  0999 V2000
  189.3590  176.2940  136.1180 C   0  0  0  0  0  0  0  0  0  0  0  0
  186.4120  177.7030  138.7340 C   0  0  0  0  0  0  0  0  0  0  0  0
  182.9600  178.1640  137.2370 O   0  0  0  0  0  0  0  0  0  0  0  0
  188.7660  177.5840  138.2420 C   0  0  0  0  0  0  0  0  0  0  0  0
  185.1210  177.3310  138.0830 C   0  0  1  0  0  3  0  0  0  0  0  0
  187.4410  177.3190  137.9380 C   0  0  0  0  0  0  0  0  0  0  0  0
  184.0820  178.4720  138.0500 C   0  0  2  0  0  3  0  0  0  0  0  0
  189.0440  178.2510  139.4480 C   0  0  0  0  0  3  0  0  0  0  0  0
  187.0110  176.7360  136.7360 N   0  0  0  0  0  0  0  0  0  0  0  0
  189.4130  174.8760  136.6600 C   0  0  0  0  0  1  0  0  0  0  0  0
  185.5040  178.8140  140.7840 C   0  0  0  0  0  2  0  0  0  0  0  0
  187.9830  178.6280  140.3050 C   0  0  0  0  0  3  0  0  0  0  0  0
  187.9320  176.5990  135.6120 C   0  0  0  0  0  2  0  0  0  0  0  0
  182.3260  175.9550  136.4790 C   0  0  1  0  0  3  0  0  0  0  0  0
  182.4180  176.9320  137.6510 C   0  0  0  0  0  2  0  0  0  0  0  0
  186.6490  178.3530  139.9450 C   0  0  0  0  0  0  0  0  0  0  0  0
  185.5610  176.9100  136.6560 C   0  0  1  0  0  3  0  0  0  0  0  0
  189.8250  177.2840  137.2140 C   0  0  0  0  0  2  0  0  0  0  0  0
  183.6850  178.9480  139.4710 C   0  0  1  0  0  3  0  0  0  0  0  0
  190.3140  176.3900  134.9480 C   0  0  0  0  0  1  0  0  0  0  0  0
  183.5510  175.9280  135.5510 C   0  0  0  0  0  2  0  0  0  0  0  0
  184.8730  175.6160  136.2510 C   0  0  0  0  0  2  0  0  0  0  0  0
  184.7200  179.7080  140.0430 O   0  0  0  0  0  0  0  0  0  0  0  0
  181.3500  179.3600  140.2710 C   0  0  0  0  0  3  0  0  0  0  0  0
  182.4240  179.7590  139.4690 C   0  0  0  0  0  0  0  0  0  0  0  0
  182.3060  180.9050  138.6690 C   0  0  0  0  0  3  0  0  0  0  0  0
  181.0010  182.8060  137.8620 N   0  0  0  0  0  1  0  0  0  0  0  0
  180.0480  181.2410  139.4780 C   0  0  0  0  0  3  0  0  0  0  0  0
  181.1190  181.6440  138.6740 C   0  0  0  0  0  0  0  0  0  0  0  0
  180.1640  180.0990  140.2770 C   0  0  0  0  0  3  0  0  0  0  0  0
  181.3900  171.7890  137.5100 O   0  0  0  0  0  0  0  0  0  0  0  0
  182.0140  172.0930  136.4590 C   0  0  0  0  0  0  0  0  0  0  0  0
  181.9550  174.5860  136.9480 C   0  0  0  0  0  0  0  0  0  0  0  0
  182.3030  173.4580  136.1390 N   0  0  0  0  0  2  0  0  0  0  0  0
  181.3550  174.4330  138.0470 O   0  0  0  0  0  0  0  0  0  0  0  0
  183.5140  170.2510  136.0930 N   0  0  0  0  0  1  0  0  0  0  0  0
  182.4250  171.0180  135.5160 C   0  0  0  0  0  2  0  0  0  0  0  0
  1 10  1  0  0  0  0
  1 18  1  0  0  0  0
  2 16  1  0  0  0  0
  3 15  1  0  0  0  0
  4  8  2  0  0  0  0
  5  2  1  1  0  0  0
  6  4  1  0  0  0  0
  6  2  2  0  0  0  0
  7  3  1  1  0  0  0
  7  5  1  0  0  0  0
  7 19  1  0  0  0  0
  8 12  1  0  0  0  0
  9  6  1  0  0  0  0
 13  1  1  0  0  0  0
 13  9  1  0  0  0  0
 14 33  1  1  0  0  0
 14 15  1  0  0  0  0
 16 12  2  0  0  0  0
 16 11  1  0  0  0  0
 17 22  1  1  0  0  0
 17  9  1  0  0  0  0
 17  5  1  0  0  0  0
 18  4  1  0  0  0  0
 19 25  1  6  0  0  0
 19 23  1  0  0  0  0
 20  1  1  0  0  0  0
 21 22  1  0  0  0  0
 21 14  1  0  0  0  0
 23 11  1  0  0  0  0
 24 30  1  0  0  0  0
 25 24  2  0  0  0  0
 26 29  2  0  0  0  0
 26 25  1  0  0  0  0
 27 29  1  0  0  0  0
 28 30  2  0  0  0  0
 29 28  1  0  0  0  0
 32 31  2  0  0  0  0
 33 35  2  0  0  0  0
 34 32  1  0  0  0  0
 34 33  1  0  0  0  0
 37 36  1  0  0  0  0
 37 32  1  0  0  0  0
M  END
>  <MODEL>
7

>  <REMARK>
 VINA RESULT:      -6.3      2.670      4.582
  Name = 
  3 active torsions:
  status: ('A' for Active; 'I' for Inactive)
    1  A    between atoms: C_4  and  C_37
    2  A    between atoms: C_8  and  C_18
    3  A    between atoms: C_23  and  C_30
                            x       y       z     vdW  Elec       q    Type
                         _______ _______ _______ _____ _____    ______ ____

>  <TORSDO>
F 3

$$$$
=
 OpenBabel11122411383D

 37 42  0  0  1  0  0  0  0  0999 V2000
  185.3900  178.5040  145.2920 C   0  0  0  0  0  0  0  0  0  0  0  0
  186.8980  178.4620  141.3880 C   0  0  0  0  0  0  0  0  0  0  0  0
  184.4270  177.5160  138.6740 O   0  0  0  0  0  0  0  0  0  0  0  0
  187.4040  178.2780  143.7360 C   0  0  0  0  0  0  0  0  0  0  0  0
  185.6910  178.5590  140.5160 C   0  0  1  0  0  3  0  0  0  0  0  0
  186.5110  178.4290  142.6870 C   0  0  0  0  0  0  0  0  0  0  0  0
  185.6760  177.5520  139.3470 C   0  0  2  0  0  3  0  0  0  0  0  0
  188.7720  178.1880  143.4260 C   0  0  0  0  0  3  0  0  0  0  0  0
  185.1160  178.4510  142.8400 N   0  0  0  0  0  0  0  0  0  0  0  0
  185.3200  180.0150  145.4380 C   0  0  0  0  0  1  0  0  0  0  0  0
  188.6540  178.3760  139.6070 C   0  0  0  0  0  2  0  0  0  0  0  0
  189.1950  178.2540  142.0780 C   0  0  0  0  0  3  0  0  0  0  0  0
  184.5060  178.0580  144.1060 C   0  0  0  0  0  2  0  0  0  0  0  0
  182.6960  179.2020  138.8130 C   0  0  1  0  0  3  0  0  0  0  0  0
  184.0800  178.8230  138.2830 C   0  0  0  0  0  2  0  0  0  0  0  0
  188.2490  178.3910  141.0430 C   0  0  0  0  0  0  0  0  0  0  0  0
  184.5260  178.3080  141.5090 C   0  0  1  0  0  3  0  0  0  0  0  0
  186.8670  178.0680  145.1270 C   0  0  0  0  0  2  0  0  0  0  0  0
  186.8750  177.7490  138.3840 C   0  0  1  0  0  3  0  0  0  0  0  0
  184.8450  177.8800  146.5580 C   0  0  0  0  0  1  0  0  0  0  0  0
  182.4150  178.7840  140.2660 C   0  0  0  0  0  2  0  0  0  0  0  0
  183.4150  179.3230  141.2870 C   0  0  0  0  0  2  0  0  0  0  0  0
  188.0610  177.2760  138.9720 O   0  0  0  0  0  0  0  0  0  0  0  0
  186.5110  177.8260  135.9110 C   0  0  0  0  0  3  0  0  0  0  0  0
  186.6700  177.0600  137.0700 C   0  0  0  0  0  0  0  0  0  0  0  0
  186.6280  175.6600  136.9880 C   0  0  0  0  0  3  0  0  0  0  0  0
  186.3860  173.6150  135.6740 N   0  0  0  0  0  1  0  0  0  0  0  0
  186.2690  175.8050  134.5980 C   0  0  0  0  0  3  0  0  0  0  0  0
  186.4280  175.0350  135.7540 C   0  0  0  0  0  0  0  0  0  0  0  0
  186.3110  177.2010  134.6760 C   0  0  0  0  0  3  0  0  0  0  0  0
  181.4800  183.3520  138.0450 O   0  0  0  0  0  0  0  0  0  0  0  0
  180.6690  182.3920  137.9620 C   0  0  0  0  0  0  0  0  0  0  0  0
  182.4110  180.6500  138.5870 C   0  0  0  0  0  0  0  0  0  0  0  0
  181.0880  181.0450  138.2100 N   0  0  0  0  0  2  0  0  0  0  0  0
  183.3230  181.5070  138.7410 O   0  0  0  0  0  0  0  0  0  0  0  0
  179.2370  183.4610  136.3560 N   0  0  0  0  0  1  0  0  0  0  0  0
  179.2610  182.6570  137.5640 C   0  0  0  0  0  2  0  0  0  0  0  0
  1 10  1  0  0  0  0
  1 20  1  0  0  0  0
  2  6  1  0  0  0  0
  4 18  1  0  0  0  0
  5  2  1  1  0  0  0
  5 17  1  0  0  0  0
  6  9  1  0  0  0  0
  6  4  2  0  0  0  0
  7  3  1  6  0  0  0
  7  5  1  0  0  0  0
  8  4  1  0  0  0  0
  9 13  1  0  0  0  0
 11 16  1  0  0  0  0
 12  8  2  0  0  0  0
 13  1  1  0  0  0  0
 14 33  1  1  0  0  0
 14 21  1  0  0  0  0
 15  3  1  0  0  0  0
 15 14  1  0  0  0  0
 16  2  2  0  0  0  0
 16 12  1  0  0  0  0
 17 22  1  6  0  0  0
 17  9  1  0  0  0  0
 18  1  1  0  0  0  0
 19 25  1  6  0  0  0
 19 23  1  0  0  0  0
 19  7  1  0  0  0  0
 21 22  1  0  0  0  0
 23 11  1  0  0  0  0
 24 25  1  0  0  0  0
 26 25  2  0  0  0  0
 27 29  1  0  0  0  0
 28 30  1  0  0  0  0
 28 29  2  0  0  0  0
 29 26  1  0  0  0  0
 30 24  2  0  0  0  0
 32 31  2  0  0  0  0
 32 34  1  0  0  0  0
 33 35  2  0  0  0  0
 34 33  1  0  0  0  0
 36 37  1  0  0  0  0
 37 32  1  0  0  0  0
M  END
>  <MODEL>
8

>  <REMARK>
 VINA RESULT:      -5.8      1.892      6.219
  Name = 
  3 active torsions:
  status: ('A' for Active; 'I' for Inactive)
    1  A    between atoms: C_4  and  C_37
    2  A    between atoms: C_8  and  C_18
    3  A    between atoms: C_23  and  C_30
                            x       y       z     vdW  Elec       q    Type
                         _______ _______ _______ _____ _____    ______ ____

>  <TORSDO>
F 3

$$$$
=
 OpenBabel11122411383D

 37 42  0  0  1  0  0  0  0  0999 V2000
  180.6380  179.8970  139.2020 C   0  0  0  0  0  0  0  0  0  0  0  0
  183.7120  177.2810  138.0960 C   0  0  0  0  0  0  0  0  0  0  0  0
  187.2290  178.4200  138.9340 O   0  0  0  0  0  0  0  0  0  0  0  0
  181.4570  178.0150  137.6790 C   0  0  0  0  0  0  0  0  0  0  0  0
  184.8750  177.6880  138.9380 C   0  0  1  0  0  3  0  0  0  0  0  0
  182.6640  178.1020  138.3540 C   0  0  0  0  0  0  0  0  0  0  0  0
  186.2000  177.8230  138.1590 C   0  0  2  0  0  3  0  0  0  0  0  0
  181.3160  177.0070  136.7090 C   0  0  0  0  0  3  0  0  0  0  0  0
  182.9740  179.1050  139.2850 N   0  0  0  0  0  0  0  0  0  0  0  0
  180.1440  179.0940  140.3940 C   0  0  0  0  0  1  0  0  0  0  0  0
  184.7850  175.3990  136.8420 C   0  0  0  0  0  2  0  0  0  0  0  0
  182.3890  176.1230  136.4520 C   0  0  0  0  0  3  0  0  0  0  0  0
  182.1190  180.2800  139.4160 C   0  0  0  0  0  2  0  0  0  0  0  0
  187.2380  178.6430  141.3430 C   0  0  1  0  0  3  0  0  0  0  0  0
  187.3660  177.7080  140.1400 C   0  0  0  0  0  2  0  0  0  0  0  0
  183.6050  176.2600  137.1510 C   0  0  0  0  0  0  0  0  0  0  0  0
  184.4140  179.0440  139.5330 C   0  0  1  0  0  3  0  0  0  0  0  0
  180.4180  179.0820  137.9030 C   0  0  0  0  0  2  0  0  0  0  0  0
  186.6360  176.4880  137.5030 C   0  0  1  0  0  3  0  0  0  0  0  0
  179.8210  181.1670  139.1150 C   0  0  0  0  0  1  0  0  0  0  0  0
  186.1130  179.6860  141.2440 C   0  0  0  0  0  2  0  0  0  0  0  0
  184.7200  179.1000  141.0210 C   0  0  0  0  0  2  0  0  0  0  0  0
  185.8350  176.2050  136.3830 O   0  0  0  0  0  0  0  0  0  0  0  0
  188.4780  177.3350  136.0370 C   0  0  0  0  0  3  0  0  0  0  0  0
  188.0760  176.5010  137.0850 C   0  0  0  0  0  0  0  0  0  0  0  0
  189.0200  175.6840  137.7250 C   0  0  0  0  0  3  0  0  0  0  0  0
  191.3110  174.8750  137.9670 N   0  0  0  0  0  1  0  0  0  0  0  0
  190.7540  176.5410  136.2690 C   0  0  0  0  0  3  0  0  0  0  0  0
  190.3560  175.7040  137.3170 C   0  0  0  0  0  0  0  0  0  0  0  0
  189.8150  177.3560  135.6300 C   0  0  0  0  0  3  0  0  0  0  0  0
  186.8130  176.6800  145.2490 O   0  0  0  0  0  0  0  0  0  0  0  0
  186.2440  177.7720  144.9860 C   0  0  0  0  0  0  0  0  0  0  0  0
  187.1690  177.8720  142.6200 C   0  0  0  0  0  0  0  0  0  0  0  0
  186.4010  178.3990  143.7080 N   0  0  0  0  0  2  0  0  0  0  0  0
  187.7690  176.7680  142.7270 O   0  0  0  0  0  0  0  0  0  0  0  0
  186.2200  178.6240  147.2320 N   0  0  0  0  0  1  0  0  0  0  0  0
  185.4250  178.4410  146.0310 C   0  0  0  0  0  2  0  0  0  0  0  0
  1 13  1  0  0  0  0
  1 10  1  0  0  0  0
  2  6  1  0  0  0  0
  3 15  1  0  0  0  0
  4 18  1  0  0  0  0
  4  6  2  0  0  0  0
  5  2  1  6  0  0  0
  5 17  1  0  0  0  0
  6  9  1  0  0  0  0
  7  3  1  1  0  0  0
  7  5  1  0  0  0  0
  8  4  1  0  0  0  0
  9 13  1  0  0  0  0
  9 17  1  0  0  0  0
 11 16  1  0  0  0  0
 12  8  2  0  0  0  0
 12 16  1  0  0  0  0
 14 33  1  1  0  0  0
 15 14  1  0  0  0  0
 16  2  2  0  0  0  0
 17 22  1  1  0  0  0
 18  1  1  0  0  0  0
 19 25  1  6  0  0  0
 19  7  1  0  0  0  0
 20  1  1  0  0  0  0
 21 14  1  0  0  0  0
 22 21  1  0  0  0  0
 23 11  1  0  0  0  0
 23 19  1  0  0  0  0
 24 25  1  0  0  0  0
 25 26  2  0  0  0  0
 28 29  2  0  0  0  0
 29 26  1  0  0  0  0
 29 27  1  0  0  0  0
 30 24  2  0  0  0  0
 30 28  1  0  0  0  0
 32 31  2  0  0  0  0
 32 37  1  0  0  0  0
 33 35  2  0  0  0  0
 33 34  1  0  0  0  0
 34 32  1  0  0  0  0
 37 36  1  0  0  0  0
M  END
>  <MODEL>
9

>  <REMARK>
 VINA RESULT:      -5.5      2.803      7.798
  Name = 
  3 active torsions:
  status: ('A' for Active; 'I' for Inactive)
    1  A    between atoms: C_4  and  C_37
    2  A    between atoms: C_8  and  C_18
    3  A    between atoms: C_23  and  C_30
                            x       y       z     vdW  Elec       q    Type
                         _______ _______ _______ _____ _____    ______ ____

>  <TORSDO>
F 3

$$$$
