=
 OpenBabel11122411133D

 31 35  0  0  1  0  0  0  0  0999 V2000
  191.4090  176.5280  144.8770 C   0  0  0  0  0  0  0  0  0  0  0  0
  187.7450  176.9870  143.9410 C   0  0  2  0  0  3  0  0  0  0  0  0
  187.0770  177.7480  145.0750 C   0  0  0  0  0  0  0  0  0  0  0  0
  187.0000  178.4740  147.4940 C   0  0  0  0  0  0  0  0  0  0  0  0
  189.2500  177.1180  143.9360 C   0  0  0  0  0  0  0  0  0  0  0  0
  192.0460  177.3410  143.9370 C   0  0  0  0  0  3  0  0  0  0  0  0
  187.6510  177.5940  146.4690 C   0  0  0  0  0  2  0  0  0  0  0  0
  187.7380  178.6260  141.9940 C   0  0  2  0  0  3  0  0  0  0  0  0
  192.1420  175.8520  145.7940 F   0  0  0  0  0  0  0  0  0  0  0  0
  185.2680  178.4680  143.5180 C   0  0  0  0  0  2  0  0  0  0  0  0
  187.5280  178.6070  148.6280 O   0  0  0  0  0  0  0  0  0  0  0  0
  189.1640  178.5790  141.9850 O   0  0  0  0  0  0  0  0  0  0  0  0
  187.1500  177.3220  142.5600 C   0  0  2  0  0  3  0  0  0  0  0  0
  190.0160  176.4140  144.8740 C   0  0  0  0  0  3  0  0  0  0  0  0
  185.7270  179.1370  147.2030 C   0  0  0  0  0  3  0  0  0  0  0  0
  189.8980  177.9230  142.9780 C   0  0  0  0  0  0  0  0  0  0  0  0
  191.2910  178.0330  142.9850 C   0  0  0  0  0  3  0  0  0  0  0  0
  185.6870  177.3730  142.6400 N   0  0  0  0  0  2  0  0  0  0  0  0
  185.8860  178.3630  144.8830 C   0  0  0  0  0  0  0  0  0  0  0  0
  185.2050  179.0750  145.9810 C   0  0  0  0  0  3  0  0  0  0  0  0
  188.6470  177.2570  139.6670 O   0  0  0  0  0  0  0  0  0  0  0  0
  187.7430  178.1240  139.5180 C   0  0  0  0  0  0  0  0  0  0  0  0
  187.2480  178.8520  140.6430 N   0  0  0  0  0  2  0  0  0  0  0  0
  187.5210  176.5830  135.9810 C   0  0  1  0  0  3  0  0  0  0  0  0
  186.2640  177.2620  137.7030 C   0  0  0  0  0  2  0  0  0  0  0  0
  188.8950  179.7000  137.1810 O   0  0  0  0  0  0  0  0  0  0  0  0
  188.0280  175.3770  135.2180 C   0  0  0  0  0  1  0  0  0  0  0  0
  187.0240  176.1790  137.2300 O   0  0  0  0  0  0  0  0  0  0  0  0
  188.2780  178.6480  137.1580 C   0  0  0  0  0  0  0  0  0  0  0  0
  187.1780  178.4050  138.1620 C   0  0  2  0  0  3  0  0  0  0  0  0
  188.6580  177.5910  136.1580 C   0  0  0  0  0  2  0  0  0  0  0  0
  1  9  1  0  0  0  0
  2  5  1  6  0  0  0
  2  3  1  0  0  0  0
  3  7  1  0  0  0  0
  4 11  2  0  0  0  0
  5 14  2  0  0  0  0
  6  1  2  0  0  0  0
  7  4  1  0  0  0  0
  8 23  1  6  0  0  0
  8 13  1  0  0  0  0
 10 19  1  0  0  0  0
 12  8  1  0  0  0  0
 12 16  1  0  0  0  0
 13 18  1  1  0  0  0
 13  2  1  0  0  0  0
 14  1  1  0  0  0  0
 15  4  1  0  0  0  0
 16 17  2  0  0  0  0
 16  5  1  0  0  0  0
 17  6  1  0  0  0  0
 18 10  1  0  0  0  0
 19  3  2  0  0  0  0
 19 20  1  0  0  0  0
 20 15  2  0  0  0  0
 22 21  2  0  0  0  0
 22 23  1  0  0  0  0
 24 27  1  1  0  0  0
 24 31  1  0  0  0  0
 24 28  1  0  0  0  0
 25 30  1  0  0  0  0
 28 25  1  0  0  0  0
 29 26  2  0  0  0  0
 29 30  1  0  0  0  0
 30 22  1  1  0  0  0
 31 29  1  0  0  0  0
M  END
>  <MODEL>
1

>  <REMARK>
 VINA RESULT:      -9.6      0.000      0.000
  Name = 
  2 active torsions:
  status: ('A' for Active; 'I' for Inactive)
    1  A    between atoms: C_5  and  C_30
    2  A    between atoms: C_10  and  N_16
                            x       y       z     vdW  Elec       q    Type
                         _______ _______ _______ _____ _____    ______ ____

>  <TORSDO>
F 2

$$$$
=
 OpenBabel11122411133D

 31 35  0  0  1  0  0  0  0  0999 V2000
  190.0320  176.0710  142.7250 C   0  0  0  0  0  0  0  0  0  0  0  0
  186.4610  177.1960  143.4270 C   0  0  2  0  0  3  0  0  0  0  0  0
  186.4580  177.8810  144.7840 C   0  0  0  0  0  0  0  0  0  0  0  0
  187.4880  178.2630  147.0610 C   0  0  0  0  0  0  0  0  0  0  0  0
  187.8360  177.1010  142.8070 C   0  0  0  0  0  0  0  0  0  0  0  0
  190.3880  176.9040  141.6620 C   0  0  0  0  0  3  0  0  0  0  0  0
  187.4950  177.4500  145.8010 C   0  0  0  0  0  2  0  0  0  0  0  0
  186.0000  179.0750  141.7740 C   0  0  2  0  0  3  0  0  0  0  0  0
  190.9230  175.1710  143.2070 F   0  0  0  0  0  0  0  0  0  0  0  0
  184.3560  179.0740  144.1710 C   0  0  0  0  0  2  0  0  0  0  0  0
  188.4370  178.1550  147.8790 O   0  0  0  0  0  0  0  0  0  0  0  0
  187.2670  178.8190  141.1710 O   0  0  0  0  0  0  0  0  0  0  0  0
  185.4440  177.8060  142.4440 C   0  0  2  0  0  3  0  0  0  0  0  0
  188.7590  176.1660  143.2930 C   0  0  0  0  0  3  0  0  0  0  0  0
  186.3580  179.1420  147.3690 C   0  0  0  0  0  3  0  0  0  0  0  0
  188.1920  177.9280  141.7230 C   0  0  0  0  0  0  0  0  0  0  0  0
  189.4670  177.8270  141.1580 C   0  0  0  0  0  3  0  0  0  0  0  0
  184.1730  178.0630  143.1280 N   0  0  0  0  0  2  0  0  0  0  0  0
  185.4320  178.6870  145.1460 C   0  0  0  0  0  0  0  0  0  0  0  0
  185.3930  179.3310  146.4720 C   0  0  0  0  0  3  0  0  0  0  0  0
  185.3680  177.7320  139.3420 O   0  0  0  0  0  0  0  0  0  0  0  0
  184.7900  178.8310  139.5700 C   0  0  0  0  0  0  0  0  0  0  0  0
  185.0680  179.5590  140.7660 N   0  0  0  0  0  2  0  0  0  0  0  0
  180.9890  179.0090  138.8970 C   0  0  1  0  0  3  0  0  0  0  0  0
  182.7830  180.2860  139.2920 C   0  0  0  0  0  2  0  0  0  0  0  0
  183.7300  177.6810  136.9570 O   0  0  0  0  0  0  0  0  0  0  0  0
  179.6920  178.4820  139.4770 C   0  0  0  0  0  1  0  0  0  0  0  0
  181.7990  179.5100  139.9280 O   0  0  0  0  0  0  0  0  0  0  0  0
  183.1210  178.2850  137.8240 C   0  0  0  0  0  0  0  0  0  0  0  0
  183.8090  179.3890  138.5880 C   0  0  2  0  0  3  0  0  0  0  0  0
  181.7070  177.8860  138.1490 C   0  0  0  0  0  2  0  0  0  0  0  0
  1  9  1  0  0  0  0
  1 14  1  0  0  0  0
  2  5  1  6  0  0  0
  2  3  1  0  0  0  0
  3 19  2  0  0  0  0
  3  7  1  0  0  0  0
  4 15  1  0  0  0  0
  4 11  2  0  0  0  0
  5 14  2  0  0  0  0
  6  1  2  0  0  0  0
  7  4  1  0  0  0  0
  8 23  1  6  0  0  0
  8 13  1  0  0  0  0
 10 19  1  0  0  0  0
 12 16  1  0  0  0  0
 12  8  1  0  0  0  0
 13 18  1  1  0  0  0
 13  2  1  0  0  0  0
 16  5  1  0  0  0  0
 17  6  1  0  0  0  0
 17 16  2  0  0  0  0
 18 10  1  0  0  0  0
 19 20  1  0  0  0  0
 20 15  2  0  0  0  0
 21 22  2  0  0  0  0
 22 23  1  0  0  0  0
 24 27  1  1  0  0  0
 24 28  1  0  0  0  0
 25 28  1  0  0  0  0
 26 29  2  0  0  0  0
 29 31  1  0  0  0  0
 29 30  1  0  0  0  0
 30 25  1  0  0  0  0
 30 22  1  1  0  0  0
 31 24  1  0  0  0  0
M  END
>  <MODEL>
2

>  <REMARK>
 VINA RESULT:      -9.3      2.947      3.750
  Name = 
  2 active torsions:
  status: ('A' for Active; 'I' for Inactive)
    1  A    between atoms: C_5  and  C_30
    2  A    between atoms: C_10  and  N_16
                            x       y       z     vdW  Elec       q    Type
                         _______ _______ _______ _____ _____    ______ ____

>  <TORSDO>
F 2

$$$$
=
 OpenBabel11122411133D

 31 35  0  0  1  0  0  0  0  0999 V2000
  189.9300  175.9720  142.6880 C   0  0  0  0  0  0  0  0  0  0  0  0
  186.6180  177.1130  144.1840 C   0  0  2  0  0  3  0  0  0  0  0  0
  186.9220  177.7490  145.5300 C   0  0  0  0  0  0  0  0  0  0  0  0
  188.4270  178.0370  147.5410 C   0  0  0  0  0  0  0  0  0  0  0  0
  187.8240  177.0240  143.2770 C   0  0  0  0  0  0  0  0  0  0  0  0
  190.0630  176.8390  141.6000 C   0  0  0  0  0  3  0  0  0  0  0  0
  188.1460  177.2690  146.2830 C   0  0  0  0  0  2  0  0  0  0  0  0
  185.8460  179.0550  142.7320 C   0  0  2  0  0  3  0  0  0  0  0  0
  190.8860  175.0450  142.9350 F   0  0  0  0  0  0  0  0  0  0  0  0
  184.7600  178.9880  145.4280 C   0  0  0  0  0  2  0  0  0  0  0  0
  189.5290  177.8890  148.1290 O   0  0  0  0  0  0  0  0  0  0  0  0
  186.9480  178.8060  141.8600 O   0  0  0  0  0  0  0  0  0  0  0  0
  185.4240  177.7700  143.4650 C   0  0  2  0  0  3  0  0  0  0  0  0
  188.8120  176.0620  143.5210 C   0  0  0  0  0  3  0  0  0  0  0  0
  187.4080  178.9180  148.1150 C   0  0  0  0  0  3  0  0  0  0  0  0
  187.9530  177.8850  142.1690 C   0  0  0  0  0  0  0  0  0  0  0  0
  189.0730  177.7900  141.3380 C   0  0  0  0  0  3  0  0  0  0  0  0
  184.3360  178.0170  144.4160 N   0  0  0  0  0  2  0  0  0  0  0  0
  186.0140  178.5540  146.1330 C   0  0  0  0  0  0  0  0  0  0  0  0
  186.2760  179.1500  147.4560 C   0  0  0  0  0  3  0  0  0  0  0  0
  184.1200  177.5190  141.0650 O   0  0  0  0  0  0  0  0  0  0  0  0
  183.8950  178.7570  141.1550 C   0  0  0  0  0  0  0  0  0  0  0  0
  184.7280  179.5860  141.9670 N   0  0  0  0  0  2  0  0  0  0  0  0
  181.4560  178.0190  138.2500 C   0  0  1  0  0  3  0  0  0  0  0  0
  181.5230  178.4650  140.4420 C   0  0  0  0  0  2  0  0  0  0  0  0
  183.8850  180.6410  138.7620 O   0  0  0  0  0  0  0  0  0  0  0  0
  181.1940  176.9470  137.2120 C   0  0  0  0  0  1  0  0  0  0  0  0
  181.6500  177.4240  139.5060 O   0  0  0  0  0  0  0  0  0  0  0  0
  183.1500  179.6940  138.9880 C   0  0  0  0  0  0  0  0  0  0  0  0
  182.7560  179.3760  140.4080 C   0  0  2  0  0  3  0  0  0  0  0  0
  182.6870  178.8310  137.8460 C   0  0  0  0  0  2  0  0  0  0  0  0
  1  9  1  0  0  0  0
  1 14  1  0  0  0  0
  2  5  1  6  0  0  0
  2  3  1  0  0  0  0
  3 19  2  0  0  0  0
  3  7  1  0  0  0  0
  4 15  1  0  0  0  0
  4 11  2  0  0  0  0
  5 14  2  0  0  0  0
  6  1  2  0  0  0  0
  7  4  1  0  0  0  0
  8 23  1  6  0  0  0
  8 13  1  0  0  0  0
 10 19  1  0  0  0  0
 12 16  1  0  0  0  0
 12  8  1  0  0  0  0
 13  2  1  0  0  0  0
 13 18  1  1  0  0  0
 16  5  1  0  0  0  0
 17  6  1  0  0  0  0
 17 16  2  0  0  0  0
 18 10  1  0  0  0  0
 19 20  1  0  0  0  0
 20 15  2  0  0  0  0
 21 22  2  0  0  0  0
 22 23  1  0  0  0  0
 24 27  1  6  0  0  0
 24 28  1  0  0  0  0
 26 29  2  0  0  0  0
 28 25  1  0  0  0  0
 29 30  1  0  0  0  0
 30 25  1  0  0  0  0
 30 22  1  6  0  0  0
 31 24  1  0  0  0  0
 31 29  1  0  0  0  0
M  END
>  <MODEL>
3

>  <REMARK>
 VINA RESULT:      -9.0      3.042      3.698
  Name = 
  2 active torsions:
  status: ('A' for Active; 'I' for Inactive)
    1  A    between atoms: C_5  and  C_30
    2  A    between atoms: C_10  and  N_16
                            x       y       z     vdW  Elec       q    Type
                         _______ _______ _______ _____ _____    ______ ____

>  <TORSDO>
F 2

$$$$
=
 OpenBabel11122411133D

 31 35  0  0  1  0  0  0  0  0999 V2000
  190.4640  176.9330  145.8060 C   0  0  0  0  0  0  0  0  0  0  0  0
  187.5810  177.2260  143.3340 C   0  0  2  0  0  3  0  0  0  0  0  0
  186.4710  178.0060  144.0180 C   0  0  0  0  0  0  0  0  0  0  0  0
  185.3250  178.8240  146.1180 C   0  0  0  0  0  0  0  0  0  0  0  0
  188.9320  177.4090  143.9840 C   0  0  0  0  0  0  0  0  0  0  0  0
  191.4380  177.7310  145.2010 C   0  0  0  0  0  3  0  0  0  0  0  0
  186.3740  177.9280  145.5280 C   0  0  0  0  0  2  0  0  0  0  0  0
  188.4090  178.7860  141.5020 C   0  0  2  0  0  3  0  0  0  0  0  0
  190.7280  176.3190  146.9850 F   0  0  0  0  0  0  0  0  0  0  0  0
  185.5220  178.6010  141.7910 C   0  0  0  0  0  2  0  0  0  0  0  0
  185.2980  179.0190  147.3600 O   0  0  0  0  0  0  0  0  0  0  0  0
  189.6930  178.7890  142.1220 O   0  0  0  0  0  0  0  0  0  0  0  0
  187.6500  177.4850  141.8170 C   0  0  2  0  0  3  0  0  0  0  0  0
  189.2170  176.7700  145.1970 C   0  0  0  0  0  3  0  0  0  0  0  0
  184.3010  179.4300  145.2640 C   0  0  0  0  0  3  0  0  0  0  0  0
  189.9240  178.1980  143.3680 C   0  0  0  0  0  0  0  0  0  0  0  0
  191.1700  178.3580  143.9810 C   0  0  0  0  0  3  0  0  0  0  0  0
  186.3010  177.4880  141.2430 N   0  0  0  0  0  2  0  0  0  0  0  0
  185.4770  178.5720  143.2920 C   0  0  0  0  0  0  0  0  0  0  0  0
  184.3730  179.3020  143.9410 C   0  0  0  0  0  3  0  0  0  0  0  0
  189.8710  177.0250  139.8050 O   0  0  0  0  0  0  0  0  0  0  0  0
  189.3030  178.0150  139.2680 C   0  0  0  0  0  0  0  0  0  0  0  0
  188.5610  178.9410  140.0630 N   0  0  0  0  0  2  0  0  0  0  0  0
  187.7990  176.7610  135.9370 C   0  0  1  0  0  3  0  0  0  0  0  0
  188.0320  178.5920  137.2000 C   0  0  0  0  0  2  0  0  0  0  0  0
  191.1810  176.7970  137.2030 O   0  0  0  0  0  0  0  0  0  0  0  0
  186.8210  175.7170  135.4370 C   0  0  0  0  0  1  0  0  0  0  0  0
  187.2490  177.4370  137.0360 O   0  0  0  0  0  0  0  0  0  0  0  0
  189.9890  177.0310  137.1020 C   0  0  0  0  0  0  0  0  0  0  0  0
  189.4020  178.2380  137.7920 C   0  0  2  0  0  3  0  0  0  0  0  0
  189.1130  176.0830  136.3280 C   0  0  0  0  0  2  0  0  0  0  0  0
  1  9  1  0  0  0  0
  2  5  1  1  0  0  0
  2  3  1  0  0  0  0
  3  7  1  0  0  0  0
  4 11  2  0  0  0  0
  5 14  1  0  0  0  0
  6  1  1  0  0  0  0
  7  4  1  0  0  0  0
  8 23  1  6  0  0  0
  8 13  1  0  0  0  0
  8 12  1  0  0  0  0
 10 19  1  0  0  0  0
 12 16  1  0  0  0  0
 13 18  1  1  0  0  0
 13  2  1  0  0  0  0
 14  1  2  0  0  0  0
 15  4  1  0  0  0  0
 16 17  1  0  0  0  0
 16  5  2  0  0  0  0
 17  6  2  0  0  0  0
 18 10  1  0  0  0  0
 19 20  1  0  0  0  0
 19  3  2  0  0  0  0
 20 15  2  0  0  0  0
 22 21  2  0  0  0  0
 22 23  1  0  0  0  0
 24 27  1  1  0  0  0
 24 31  1  0  0  0  0
 24 28  1  0  0  0  0
 25 30  1  0  0  0  0
 28 25  1  0  0  0  0
 29 26  2  0  0  0  0
 29 30  1  0  0  0  0
 30 22  1  1  0  0  0
 31 29  1  0  0  0  0
M  END
>  <MODEL>
4

>  <REMARK>
 VINA RESULT:      -8.8      1.371      1.691
  Name = 
  2 active torsions:
  status: ('A' for Active; 'I' for Inactive)
    1  A    between atoms: C_5  and  C_30
    2  A    between atoms: C_10  and  N_16
                            x       y       z     vdW  Elec       q    Type
                         _______ _______ _______ _____ _____    ______ ____

>  <TORSDO>
F 2

$$$$
=
 OpenBabel11122411133D

 31 35  0  0  1  0  0  0  0  0999 V2000
  192.2260  175.2430  135.8170 C   0  0  0  0  0  0  0  0  0  0  0  0
  189.5240  177.4800  137.3020 C   0  0  2  0  0  3  0  0  0  0  0  0
  188.1810  176.8410  136.9890 C   0  0  0  0  0  0  0  0  0  0  0  0
  186.7470  175.3050  135.5850 C   0  0  0  0  0  0  0  0  0  0  0  0
  190.6850  176.5190  137.1910 C   0  0  0  0  0  0  0  0  0  0  0  0
  192.8450  174.7450  136.9670 C   0  0  0  0  0  3  0  0  0  0  0  0
  188.0740  175.9850  135.7430 C   0  0  0  0  0  2  0  0  0  0  0  0
  189.7570  177.2480  139.8260 C   0  0  2  0  0  3  0  0  0  0  0  0
  192.6660  174.8640  134.5940 F   0  0  0  0  0  0  0  0  0  0  0  0
  187.1460  178.1040  138.8740 C   0  0  0  0  0  2  0  0  0  0  0  0
  186.6100  174.3980  134.7240 O   0  0  0  0  0  0  0  0  0  0  0  0
  190.9250  176.4560  139.6180 O   0  0  0  0  0  0  0  0  0  0  0  0
  189.5370  178.2200  138.6530 C   0  0  2  0  0  3  0  0  0  0  0  0
  191.1530  176.1310  135.9300 C   0  0  0  0  0  3  0  0  0  0  0  0
  185.5970  175.7250  136.3880 C   0  0  0  0  0  3  0  0  0  0  0  0
  191.3230  176.0290  138.3480 C   0  0  0  0  0  0  0  0  0  0  0  0
  192.3980  175.1420  138.2300 C   0  0  0  0  0  3  0  0  0  0  0  0
  188.3040  178.9980  138.8140 N   0  0  0  0  0  2  0  0  0  0  0  0
  187.0700  177.2010  137.6750 C   0  0  0  0  0  0  0  0  0  0  0  0
  185.7520  176.6190  137.3600 C   0  0  0  0  0  3  0  0  0  0  0  0
  189.4240  176.1430  142.4300 O   0  0  0  0  0  0  0  0  0  0  0  0
  189.7100  177.3690  142.3490 C   0  0  0  0  0  0  0  0  0  0  0  0
  189.8830  177.9870  141.0730 N   0  0  0  0  0  2  0  0  0  0  0  0
  191.0630  177.1330  145.9610 C   0  0  1  0  0  3  0  0  0  0  0  0
  191.3360  178.2340  144.0320 C   0  0  0  0  0  2  0  0  0  0  0  0
  187.7820  177.8790  144.6500 O   0  0  0  0  0  0  0  0  0  0  0  0
  191.6680  176.1080  146.8970 C   0  0  0  0  0  1  0  0  0  0  0  0
  191.6810  177.0490  144.7040 O   0  0  0  0  0  0  0  0  0  0  0  0
  188.9840  177.6810  144.6950 C   0  0  0  0  0  0  0  0  0  0  0  0
  189.8680  178.1950  143.5860 C   0  0  2  0  0  3  0  0  0  0  0  0
  189.5590  176.8850  145.8360 C   0  0  0  0  0  2  0  0  0  0  0  0
  1 14  2  0  0  0  0
  1  6  1  0  0  0  0
  2  3  1  1  0  0  0
  2 13  1  0  0  0  0
  3 19  2  0  0  0  0
  4  7  1  0  0  0  0
  4 15  1  0  0  0  0
  5  2  1  0  0  0  0
  5 16  2  0  0  0  0
  6 17  2  0  0  0  0
  7  3  1  0  0  0  0
  8 23  1  1  0  0  0
  9  1  1  0  0  0  0
 11  4  2  0  0  0  0
 12  8  1  0  0  0  0
 13 18  1  1  0  0  0
 13  8  1  0  0  0  0
 14  5  1  0  0  0  0
 15 20  2  0  0  0  0
 16 12  1  0  0  0  0
 17 16  1  0  0  0  0
 18 10  1  0  0  0  0
 19 10  1  0  0  0  0
 20 19  1  0  0  0  0
 22 21  2  0  0  0  0
 23 22  1  0  0  0  0
 24 27  1  1  0  0  0
 25 28  1  0  0  0  0
 26 29  2  0  0  0  0
 28 24  1  0  0  0  0
 29 31  1  0  0  0  0
 30 22  1  6  0  0  0
 30 25  1  0  0  0  0
 30 29  1  0  0  0  0
 31 24  1  0  0  0  0
M  END
>  <MODEL>
5

>  <REMARK>
 VINA RESULT:      -8.5      3.226      8.228
  Name = 
  2 active torsions:
  status: ('A' for Active; 'I' for Inactive)
    1  A    between atoms: C_5  and  C_30
    2  A    between atoms: C_10  and  N_16
                            x       y       z     vdW  Elec       q    Type
                         _______ _______ _______ _____ _____    ______ ____

>  <TORSDO>
F 2

$$$$
=
 OpenBabel11122411133D

 31 35  0  0  1  0  0  0  0  0999 V2000
  189.0320  177.8760  143.8250 C   0  0  0  0  0  0  0  0  0  0  0  0
  186.7510  179.0030  140.9900 C   0  0  2  0  0  3  0  0  0  0  0  0
  187.1430  178.2160  139.7500 C   0  0  0  0  0  0  0  0  0  0  0  0
  188.8350  176.8740  138.4370 C   0  0  0  0  0  0  0  0  0  0  0  0
  187.2290  178.3720  142.2770 C   0  0  0  0  0  0  0  0  0  0  0  0
  188.1330  177.2150  144.6650 C   0  0  0  0  0  3  0  0  0  0  0  0
  188.5770  177.7400  139.6340 C   0  0  0  0  0  2  0  0  0  0  0  0
  184.4370  178.1270  141.5850 C   0  0  2  0  0  3  0  0  0  0  0  0
  190.3410  177.9540  144.1620 F   0  0  0  0  0  0  0  0  0  0  0  0
  184.8960  178.6590  138.7640 C   0  0  0  0  0  2  0  0  0  0  0  0
  189.9160  176.2360  138.3500 O   0  0  0  0  0  0  0  0  0  0  0  0
  184.9580  177.6820  142.8370 O   0  0  0  0  0  0  0  0  0  0  0  0
  185.2450  179.3210  141.0480 C   0  0  2  0  0  3  0  0  0  0  0  0
  188.5800  178.4570  142.6370 C   0  0  0  0  0  3  0  0  0  0  0  0
  187.8610  176.8060  137.3450 C   0  0  0  0  0  3  0  0  0  0  0  0
  186.3230  177.7190  143.1360 C   0  0  0  0  0  0  0  0  0  0  0  0
  186.7800  177.1410  144.3240 C   0  0  0  0  0  3  0  0  0  0  0  0
  184.7690  179.7530  139.7300 N   0  0  0  0  0  2  0  0  0  0  0  0
  186.3010  178.1330  138.6920 C   0  0  0  0  0  0  0  0  0  0  0  0
  186.6790  177.4050  137.4670 C   0  0  0  0  0  3  0  0  0  0  0  0
  182.2610  176.9510  140.1720 O   0  0  0  0  0  0  0  0  0  0  0  0
  181.9940  177.8600  141.0040 C   0  0  0  0  0  0  0  0  0  0  0  0
  183.0390  178.4970  141.7410 N   0  0  0  0  0  2  0  0  0  0  0  0
  179.2530  180.1010  139.4550 C   0  0  1  0  0  3  0  0  0  0  0  0
  179.7130  177.9810  140.0010 C   0  0  0  0  0  2  0  0  0  0  0  0
  180.8540  180.1240  142.6920 O   0  0  0  0  0  0  0  0  0  0  0  0
  179.0750  181.0730  138.3070 C   0  0  0  0  0  1  0  0  0  0  0  0
  179.9100  178.9480  139.0010 O   0  0  0  0  0  0  0  0  0  0  0  0
  180.5060  179.7530  141.5840 C   0  0  0  0  0  0  0  0  0  0  0  0
  180.5780  178.2880  141.2300 C   0  0  2  0  0  3  0  0  0  0  0  0
  180.0560  180.7710  140.5720 C   0  0  0  0  0  2  0  0  0  0  0  0
  1  9  1  0  0  0  0
  1  6  1  0  0  0  0
  2  3  1  6  0  0  0
  2 13  1  0  0  0  0
  2  5  1  0  0  0  0
  4  7  1  0  0  0  0
  5 14  1  0  0  0  0
  5 16  2  0  0  0  0
  7  3  1  0  0  0  0
  8 23  1  1  0  0  0
  8 12  1  0  0  0  0
 10 18  1  0  0  0  0
 11  4  2  0  0  0  0
 12 16  1  0  0  0  0
 13 18  1  6  0  0  0
 13  8  1  0  0  0  0
 14  1  2  0  0  0  0
 15 20  2  0  0  0  0
 15  4  1  0  0  0  0
 16 17  1  0  0  0  0
 17  6  2  0  0  0  0
 19 10  1  0  0  0  0
 19  3  2  0  0  0  0
 20 19  1  0  0  0  0
 21 22  2  0  0  0  0
 22 23  1  0  0  0  0
 24 27  1  6  0  0  0
 24 31  1  0  0  0  0
 25 30  1  0  0  0  0
 28 24  1  0  0  0  0
 28 25  1  0  0  0  0
 29 26  2  0  0  0  0
 30 22  1  6  0  0  0
 30 29  1  0  0  0  0
 31 29  1  0  0  0  0
M  END
>  <MODEL>
6

>  <REMARK>
 VINA RESULT:      -8.0      4.125      6.816
  Name = 
  2 active torsions:
  status: ('A' for Active; 'I' for Inactive)
    1  A    between atoms: C_5  and  C_30
    2  A    between atoms: C_10  and  N_16
                            x       y       z     vdW  Elec       q    Type
                         _______ _______ _______ _____ _____    ______ ____

>  <TORSDO>
F 2

$$$$
=
 OpenBabel11122411133D

 31 35  0  0  1  0  0  0  0  0999 V2000
  188.8980  177.8710  144.2750 C   0  0  0  0  0  0  0  0  0  0  0  0
  187.0740  178.8610  141.0810 C   0  0  2  0  0  3  0  0  0  0  0  0
  187.6350  178.0090  139.9540 C   0  0  0  0  0  0  0  0  0  0  0  0
  189.4850  176.5930  138.9750 C   0  0  0  0  0  0  0  0  0  0  0  0
  187.3500  178.2950  142.4550 C   0  0  0  0  0  0  0  0  0  0  0  0
  187.8770  177.2580  145.0060 C   0  0  0  0  0  3  0  0  0  0  0  0
  189.0640  177.5210  140.0750 C   0  0  0  0  0  2  0  0  0  0  0  0
  184.6870  178.0280  141.3720 C   0  0  2  0  0  3  0  0  0  0  0  0
  190.1440  177.9590  144.7980 F   0  0  0  0  0  0  0  0  0  0  0  0
  185.5630  178.4120  138.6260 C   0  0  0  0  0  2  0  0  0  0  0  0
  190.5590  175.9460  139.0810 O   0  0  0  0  0  0  0  0  0  0  0  0
  185.0120  177.6460  142.7070 O   0  0  0  0  0  0  0  0  0  0  0  0
  185.5800  179.1890  140.9000 C   0  0  2  0  0  3  0  0  0  0  0  0
  188.6330  178.3920  143.0060 C   0  0  0  0  0  3  0  0  0  0  0  0
  188.6820  176.4740  137.7560 C   0  0  0  0  0  3  0  0  0  0  0  0
  186.3180  177.6910  143.2020 C   0  0  0  0  0  0  0  0  0  0  0  0
  186.5880  177.1730  144.4720 C   0  0  0  0  0  3  0  0  0  0  0  0
  185.3080  179.5540  139.5060 N   0  0  0  0  0  2  0  0  0  0  0  0
  186.9570  177.8760  138.7890 C   0  0  0  0  0  0  0  0  0  0  0  0
  187.5020  177.0840  137.6710 C   0  0  0  0  0  3  0  0  0  0  0  0
  182.7320  176.8020  139.7010 O   0  0  0  0  0  0  0  0  0  0  0  0
  182.3540  177.7490  140.4440 C   0  0  0  0  0  0  0  0  0  0  0  0
  183.2850  178.4120  141.3000 N   0  0  0  0  0  2  0  0  0  0  0  0
  179.5470  178.8690  142.8520 C   0  0  1  0  0  3  0  0  0  0  0  0
  180.7770  179.5610  141.1160 C   0  0  0  0  0  2  0  0  0  0  0  0
  179.7740  176.1320  140.5070 O   0  0  0  0  0  0  0  0  0  0  0  0
  179.3030  179.0290  144.3380 C   0  0  0  0  0  1  0  0  0  0  0  0
  180.7910  179.4240  142.5150 O   0  0  0  0  0  0  0  0  0  0  0  0
  180.0360  177.1690  141.0930 C   0  0  0  0  0  0  0  0  0  0  0  0
  180.9260  178.1950  140.4360 C   0  0  2  0  0  3  0  0  0  0  0  0
  179.5050  177.3850  142.4840 C   0  0  0  0  0  2  0  0  0  0  0  0
  1  9  1  0  0  0  0
  1  6  1  0  0  0  0
  2  3  1  6  0  0  0
  2  5  1  0  0  0  0
  3  7  1  0  0  0  0
  4 11  2  0  0  0  0
  4  7  1  0  0  0  0
  5 14  1  0  0  0  0
  5 16  2  0  0  0  0
  8 23  1  1  0  0  0
  8 12  1  0  0  0  0
 10 19  1  0  0  0  0
 10 18  1  0  0  0  0
 12 16  1  0  0  0  0
 13 18  1  6  0  0  0
 13  2  1  0  0  0  0
 13  8  1  0  0  0  0
 14  1  2  0  0  0  0
 15  4  1  0  0  0  0
 16 17  1  0  0  0  0
 17  6  2  0  0  0  0
 19  3  2  0  0  0  0
 20 15  2  0  0  0  0
 20 19  1  0  0  0  0
 21 22  2  0  0  0  0
 22 23  1  0  0  0  0
 24 27  1  1  0  0  0
 25 28  1  0  0  0  0
 26 29  2  0  0  0  0
 28 24  1  0  0  0  0
 29 31  1  0  0  0  0
 30 22  1  1  0  0  0
 30 29  1  0  0  0  0
 30 25  1  0  0  0  0
 31 24  1  0  0  0  0
M  END
>  <MODEL>
7

>  <REMARK>
 VINA RESULT:      -8.0      3.841      6.992
  Name = 
  2 active torsions:
  status: ('A' for Active; 'I' for Inactive)
    1  A    between atoms: C_5  and  C_30
    2  A    between atoms: C_10  and  N_16
                            x       y       z     vdW  Elec       q    Type
                         _______ _______ _______ _____ _____    ______ ____

>  <TORSDO>
F 2

$$$$
=
 OpenBabel11122411133D

 31 35  0  0  1  0  0  0  0  0999 V2000
  184.0660  178.8300  144.5540 C   0  0  0  0  0  0  0  0  0  0  0  0
  182.7240  178.1280  141.0590 C   0  0  2  0  0  3  0  0  0  0  0  0
  181.4850  178.9860  140.8660 C   0  0  0  0  0  0  0  0  0  0  0  0
  179.5490  180.3030  141.8160 C   0  0  0  0  0  0  0  0  0  0  0  0
  183.6180  178.6080  142.1790 C   0  0  0  0  0  0  0  0  0  0  0  0
  185.2680  179.4840  144.2700 C   0  0  0  0  0  3  0  0  0  0  0  0
  180.6810  179.3600  142.0940 C   0  0  0  0  0  2  0  0  0  0  0  0
  184.4340  179.1230  139.4580 C   0  0  2  0  0  3  0  0  0  0  0  0
  183.6950  178.6250  145.8400 F   0  0  0  0  0  0  0  0  0  0  0  0
  181.7490  178.8010  138.3930 C   0  0  0  0  0  2  0  0  0  0  0  0
  178.9530  180.8620  142.7720 O   0  0  0  0  0  0  0  0  0  0  0  0
  185.2690  179.4180  140.5770 O   0  0  0  0  0  0  0  0  0  0  0  0
  183.5210  177.9210  139.7560 C   0  0  2  0  0  3  0  0  0  0  0  0
  183.2460  178.3900  143.5110 C   0  0  0  0  0  3  0  0  0  0  0  0
  179.0980  180.5380  140.4420 C   0  0  0  0  0  3  0  0  0  0  0  0
  184.8390  179.2520  141.8960 C   0  0  0  0  0  0  0  0  0  0  0  0
  185.6560  179.6890  142.9430 C   0  0  0  0  0  3  0  0  0  0  0  0
  182.6070  177.6420  138.6450 N   0  0  0  0  0  2  0  0  0  0  0  0
  180.9980  179.2230  139.6240 C   0  0  0  0  0  0  0  0  0  0  0  0
  179.7760  180.0230  139.4200 C   0  0  0  0  0  3  0  0  0  0  0  0
  187.1430  178.2430  139.5320 O   0  0  0  0  0  0  0  0  0  0  0  0
  186.6110  178.4020  138.3990 C   0  0  0  0  0  0  0  0  0  0  0  0
  185.2590  178.8480  138.2910 N   0  0  0  0  0  2  0  0  0  0  0  0
  189.4340  176.1270  137.0610 C   0  0  1  0  0  3  0  0  0  0  0  0
  187.2810  176.6510  136.7530 C   0  0  0  0  0  2  0  0  0  0  0  0
  189.1320  179.7170  137.3090 O   0  0  0  0  0  0  0  0  0  0  0  0
  190.3900  175.0640  137.5630 C   0  0  0  0  0  1  0  0  0  0  0  0
  188.1410  175.8620  137.5360 O   0  0  0  0  0  0  0  0  0  0  0  0
  188.8340  178.5350  137.3150 C   0  0  0  0  0  0  0  0  0  0  0  0
  187.3900  178.1280  137.1510 C   0  0  2  0  0  3  0  0  0  0  0  0
  189.9070  177.5030  137.5330 C   0  0  0  0  0  2  0  0  0  0  0  0
  1  9  1  0  0  0  0
  2  3  1  6  0  0  0
  2  5  1  0  0  0  0
  3  7  1  0  0  0  0
  4  7  1  0  0  0  0
  4 11  2  0  0  0  0
  5 14  1  0  0  0  0
  6  1  1  0  0  0  0
  8 23  1  6  0  0  0
  8 13  1  0  0  0  0
  8 12  1  0  0  0  0
 10 18  1  0  0  0  0
 10 19  1  0  0  0  0
 12 16  1  0  0  0  0
 13 18  1  6  0  0  0
 13  2  1  0  0  0  0
 14  1  2  0  0  0  0
 15  4  1  0  0  0  0
 16  5  2  0  0  0  0
 16 17  1  0  0  0  0
 17  6  2  0  0  0  0
 19  3  2  0  0  0  0
 20 19  1  0  0  0  0
 20 15  2  0  0  0  0
 22 21  2  0  0  0  0
 23 22  1  0  0  0  0
 24 31  1  0  0  0  0
 24 28  1  0  0  0  0
 24 27  1  1  0  0  0
 25 30  1  0  0  0  0
 25 28  1  0  0  0  0
 26 29  2  0  0  0  0
 29 31  1  0  0  0  0
 30 29  1  0  0  0  0
 30 22  1  1  0  0  0
M  END
>  <MODEL>
8

>  <REMARK>
 VINA RESULT:      -8.0      4.258      5.901
  Name = 
  2 active torsions:
  status: ('A' for Active; 'I' for Inactive)
    1  A    between atoms: C_5  and  C_30
    2  A    between atoms: C_10  and  N_16
                            x       y       z     vdW  Elec       q    Type
                         _______ _______ _______ _____ _____    ______ ____

>  <TORSDO>
F 2

$$$$
=
 OpenBabel11122411133D

 31 35  0  0  1  0  0  0  0  0999 V2000
  188.1560  176.9580  136.1980 C   0  0  0  0  0  0  0  0  0  0  0  0
  186.3460  178.5890  139.1260 C   0  0  2  0  0  3  0  0  0  0  0  0
  185.0210  177.8650  139.3020 C   0  0  0  0  0  0  0  0  0  0  0  0
  183.1510  176.4390  138.3770 C   0  0  0  0  0  0  0  0  0  0  0  0
  187.3590  177.7990  138.3310 C   0  0  0  0  0  0  0  0  0  0  0  0
  189.2350  176.3450  136.8380 C   0  0  0  0  0  3  0  0  0  0  0  0
  184.3910  177.2280  138.0810 C   0  0  0  0  0  2  0  0  0  0  0  0
  187.6870  177.9570  141.1950 C   0  0  2  0  0  3  0  0  0  0  0  0
  188.0130  176.8460  134.8550 F   0  0  0  0  0  0  0  0  0  0  0  0
  184.9060  178.6620  141.6620 C   0  0  0  0  0  2  0  0  0  0  0  0
  182.6670  175.6830  137.4970 O   0  0  0  0  0  0  0  0  0  0  0  0
  188.6590  177.3490  140.3450 O   0  0  0  0  0  0  0  0  0  0  0  0
  186.9420  179.0840  140.4580 C   0  0  2  0  0  3  0  0  0  0  0  0
  187.2240  177.6870  136.9420 C   0  0  0  0  0  3  0  0  0  0  0  0
  182.4700  176.5830  139.6660 C   0  0  0  0  0  3  0  0  0  0  0  0
  188.4590  177.1930  138.9710 C   0  0  0  0  0  0  0  0  0  0  0  0
  189.3900  176.4670  138.2220 C   0  0  0  0  0  3  0  0  0  0  0  0
  185.8920  179.6790  141.2900 N   0  0  0  0  0  2  0  0  0  0  0  0
  184.3250  177.9750  140.4590 C   0  0  0  0  0  0  0  0  0  0  0  0
  183.0200  177.3100  140.6350 C   0  0  0  0  0  3  0  0  0  0  0  0
  188.5570  176.3960  143.4130 O   0  0  0  0  0  0  0  0  0  0  0  0
  188.7570  177.6410  143.4610 C   0  0  0  0  0  0  0  0  0  0  0  0
  188.3380  178.4820  142.3860 N   0  0  0  0  0  2  0  0  0  0  0  0
  191.2790  176.7800  146.2590 C   0  0  1  0  0  3  0  0  0  0  0  0
  190.9560  178.1520  144.5210 C   0  0  0  0  0  2  0  0  0  0  0  0
  187.8420  177.8820  146.3560 O   0  0  0  0  0  0  0  0  0  0  0  0
  192.0710  175.5930  146.7690 C   0  0  0  0  0  1  0  0  0  0  0  0
  191.3950  176.8620  144.8630 O   0  0  0  0  0  0  0  0  0  0  0  0
  188.9540  177.6200  145.9290 C   0  0  0  0  0  0  0  0  0  0  0  0
  189.4310  178.2550  144.6470 C   0  0  2  0  0  3  0  0  0  0  0  0
  189.8130  176.6290  146.6670 C   0  0  0  0  0  2  0  0  0  0  0  0
  1  6  2  0  0  0  0
  1 14  1  0  0  0  0
  2  5  1  1  0  0  0
  2  3  1  0  0  0  0
  2 13  1  0  0  0  0
  3 19  2  0  0  0  0
  4 15  1  0  0  0  0
  5 16  1  0  0  0  0
  6 17  1  0  0  0  0
  7  4  1  0  0  0  0
  7  3  1  0  0  0  0
  8 23  1  1  0  0  0
  9  1  1  0  0  0  0
 11  4  2  0  0  0  0
 12  8  1  0  0  0  0
 13  8  1  0  0  0  0
 13 18  1  1  0  0  0
 14  5  2  0  0  0  0
 15 20  2  0  0  0  0
 16 12  1  0  0  0  0
 17 16  2  0  0  0  0
 18 10  1  0  0  0  0
 19 20  1  0  0  0  0
 19 10  1  0  0  0  0
 21 22  2  0  0  0  0
 23 22  1  0  0  0  0
 24 31  1  0  0  0  0
 24 27  1  6  0  0  0
 25 30  1  0  0  0  0
 25 28  1  0  0  0  0
 28 24  1  0  0  0  0
 29 26  2  0  0  0  0
 29 31  1  0  0  0  0
 30 22  1  6  0  0  0
 30 29  1  0  0  0  0
M  END
>  <MODEL>
9

>  <REMARK>
 VINA RESULT:      -7.8      3.086      7.575
  Name = 
  2 active torsions:
  status: ('A' for Active; 'I' for Inactive)
    1  A    between atoms: C_5  and  C_30
    2  A    between atoms: C_10  and  N_16
                            x       y       z     vdW  Elec       q    Type
                         _______ _______ _______ _____ _____    ______ ____

>  <TORSDO>
F 2

$$$$
