=
 OpenBabel11122411513D

 28 32  0  0  1  0  0  0  0  0999 V2000
  183.7850  176.7120  138.5680 C   0  0  0  0  0  0  0  0  0  0  0  0
  186.3280  177.3290  142.5160 O   0  0  0  0  0  0  0  0  0  0  0  0
  179.0600  180.0700  140.0550 O   0  0  0  0  0  0  0  0  0  0  0  0
  185.2380  179.0290  137.9620 C   0  0  0  0  0  3  0  0  0  0  0  0
  180.3180  179.5610  142.2940 C   0  0  2  0  0  3  0  0  0  0  0  0
  182.8600  175.5540  138.7780 C   0  0  0  0  0  2  0  0  0  0  0  0
  185.9080  179.5320  141.4940 O   0  0  0  0  0  0  0  0  0  0  0  0
  185.4040  178.5120  142.4730 S   0  0  0  0  0  0  0  0  0  0  0  0
  184.1660  178.6360  144.7560 C   0  0  1  0  0  3  0  0  0  0  0  0
  183.7380  177.9970  142.1660 C   0  0  1  0  0  3  0  0  0  0  0  0
  179.1380  175.7930  138.4710 O   0  0  0  0  0  1  0  0  0  0  0  0
  181.8250  178.4490  140.8040 C   0  0  2  0  0  3  0  0  0  0  0  0
  182.8820  179.0050  144.2450 O   0  0  0  0  0  0  0  0  0  0  0  0
  185.2920  179.2560  144.0390 N   0  0  0  0  0  2  0  0  0  0  0  0
  180.3500  175.5940  139.1310 C   0  0  2  0  0  3  0  0  0  0  0  0
  183.8790  177.7510  139.5190 C   0  0  0  0  0  0  0  0  0  0  0  0
  179.2700  178.8800  140.9810 S   0  0  2  0  0  0  0  0  0  0  0  0
  184.2430  178.9960  146.2240 C   0  0  0  0  0  1  0  0  0  0  0  0
  180.3810  176.4300  140.4130 C   0  0  0  0  0  2  0  0  0  0  0  0
  184.5690  178.9220  139.1830 C   0  0  0  0  0  3  0  0  0  0  0  0
  184.4540  176.8270  137.3430 C   0  0  0  0  0  3  0  0  0  0  0  0
  185.1920  177.9750  137.0470 C   0  0  0  0  0  3  0  0  0  0  0  0
  181.5030  175.8950  138.1760 C   0  0  0  0  0  2  0  0  0  0  0  0
  181.5080  178.6380  142.2580 C   0  0  1  0  0  3  0  0  0  0  0  0
  180.5630  177.9240  140.1410 C   0  0  2  0  0  3  0  0  0  0  0  0
  182.8430  179.0390  142.8250 C   0  0  2  0  0  3  0  0  0  0  0  0
  179.6090  179.4370  143.6280 C   0  0  0  0  0  1  0  0  0  0  0  0
  183.1050  177.6380  140.8050 C   0  0  1  0  0  3  0  0  0  0  0  0
  1  6  1  0  0  0  0
  1 16  1  0  0  0  0
  3 17  2  0  0  0  0
  4 20  1  0  0  0  0
  5 27  1  1  0  0  0
  7  8  2  0  0  0  0
  8  2  2  0  0  0  0
  8 14  1  0  0  0  0
  9 18  1  1  0  0  0
 10  8  1  6  0  0  0
 10 26  1  0  0  0  0
 11 15  1  0  0  0  0
 12 28  1  0  0  0  0
 12 24  1  0  0  0  0
 13  9  1  0  0  0  0
 14  9  1  0  0  0  0
 15 19  1  0  0  0  0
 16 28  1  0  0  0  0
 17  5  1  0  0  0  0
 20 16  2  0  0  0  0
 21  1  2  0  0  0  0
 22 21  1  0  0  0  0
 22  4  2  0  0  0  0
 23  6  1  0  0  0  0
 23 15  1  0  0  0  0
 24  5  1  0  0  0  0
 24 26  1  0  0  0  0
 25 19  1  0  0  0  0
 25 12  1  0  0  0  0
 25 17  1  0  0  0  0
 26 13  1  0  0  0  0
 28 10  1  0  0  0  0
M  END
>  <MODEL>
1

>  <REMARK>
 VINA RESULT:      -5.7      0.000      0.000
  Name = 
  0 active torsions:
  status: ('A' for Active; 'I' for Inactive)
                            x       y       z     vdW  Elec       q    Type
                         _______ _______ _______ _____ _____    ______ ____

>  <TORSDO>
F 0

$$$$
=
 OpenBabel11122411513D

 28 32  0  0  1  0  0  0  0  0999 V2000
  191.2810  174.7020  137.5420 C   0  0  0  0  0  0  0  0  0  0  0  0
  190.8980  175.8280  142.1270 O   0  0  0  0  0  0  0  0  0  0  0  0
  187.3050  178.6080  135.3620 O   0  0  0  0  0  0  0  0  0  0  0  0
  193.1650  176.7600  137.7890 C   0  0  0  0  0  3  0  0  0  0  0  0
  186.8010  178.4180  137.9250 C   0  0  2  0  0  3  0  0  0  0  0  0
  190.2440  173.6710  137.2210 C   0  0  0  0  0  2  0  0  0  0  0  0
  191.5820  177.8370  140.8740 O   0  0  0  0  0  0  0  0  0  0  0  0
  190.4160  177.0490  141.3960 S   0  0  0  0  0  0  0  0  0  0  0  0
  188.0770  177.6690  142.3440 C   0  0  1  0  0  3  0  0  0  0  0  0
  189.2400  176.6100  140.1480 C   0  0  1  0  0  3  0  0  0  0  0  0
  187.6180  174.1230  134.5930 O   0  0  0  0  0  1  0  0  0  0  0  0
  188.6900  176.9490  137.8450 C   0  0  2  0  0  3  0  0  0  0  0  0
  187.4700  178.0340  141.1010 O   0  0  0  0  0  0  0  0  0  0  0  0
  189.4900  178.0660  142.4560 N   0  0  0  0  0  2  0  0  0  0  0  0
  188.1060  173.9570  135.8900 C   0  0  2  0  0  3  0  0  0  0  0  0
  190.9420  175.8840  138.2340 C   0  0  0  0  0  0  0  0  0  0  0  0
  186.6930  177.5910  136.3140 S   0  0  2  0  0  0  0  0  0  0  0  0
  187.2900  178.2800  143.4840 C   0  0  0  0  0  1  0  0  0  0  0  0
  187.4800  175.0050  136.8130 C   0  0  0  0  0  2  0  0  0  0  0  0
  191.8780  176.9220  138.3080 C   0  0  0  0  0  3  0  0  0  0  0  0
  192.5710  174.5460  137.0200 C   0  0  0  0  0  3  0  0  0  0  0  0
  193.5160  175.5660  137.1570 C   0  0  0  0  0  3  0  0  0  0  0  0
  189.6320  173.9970  135.8640 C   0  0  0  0  0  2  0  0  0  0  0  0
  187.5800  177.4180  138.7390 C   0  0  1  0  0  3  0  0  0  0  0  0
  188.0420  176.4090  136.5830 C   0  0  2  0  0  3  0  0  0  0  0  0
  188.3230  177.8160  139.9860 C   0  0  2  0  0  3  0  0  0  0  0  0
  185.4120  178.5870  138.5060 C   0  0  0  0  0  1  0  0  0  0  0  0
  189.5340  176.0610  138.7360 C   0  0  1  0  0  3  0  0  0  0  0  0
  1 16  1  0  0  0  0
  3 17  2  0  0  0  0
  4 20  1  0  0  0  0
  5 27  1  1  0  0  0
  5 24  1  0  0  0  0
  6  1  1  0  0  0  0
  7  8  2  0  0  0  0
  8  2  2  0  0  0  0
  8 14  1  0  0  0  0
  9 14  1  0  0  0  0
  9 18  1  1  0  0  0
 10  8  1  6  0  0  0
 11 15  1  0  0  0  0
 12 28  1  0  0  0  0
 12 24  1  0  0  0  0
 13  9  1  0  0  0  0
 15 19  1  0  0  0  0
 16 20  2  0  0  0  0
 16 28  1  0  0  0  0
 17 25  1  0  0  0  0
 17  5  1  0  0  0  0
 21 22  1  0  0  0  0
 21  1  2  0  0  0  0
 22  4  2  0  0  0  0
 23 15  1  0  0  0  0
 23  6  1  0  0  0  0
 24 26  1  0  0  0  0
 25 19  1  0  0  0  0
 25 12  1  0  0  0  0
 26 10  1  0  0  0  0
 26 13  1  0  0  0  0
 28 10  1  0  0  0  0
M  END
>  <MODEL>
2

>  <REMARK>
 VINA RESULT:      -5.5      5.528      7.392
  Name = 
  0 active torsions:
  status: ('A' for Active; 'I' for Inactive)
                            x       y       z     vdW  Elec       q    Type
                         _______ _______ _______ _____ _____    ______ ____

>  <TORSDO>
F 0

$$$$
=
 OpenBabel11122411513D

 28 32  0  0  1  0  0  0  0  0999 V2000
  188.7140  177.8770  137.3070 C   0  0  0  0  0  0  0  0  0  0  0  0
  192.7280  175.7310  136.0000 O   0  0  0  0  0  0  0  0  0  0  0  0
  185.3000  173.0030  137.9430 O   0  0  0  0  0  0  0  0  0  0  0  0
  189.9190  177.3540  139.7800 C   0  0  0  0  0  3  0  0  0  0  0  0
  187.3550  172.2630  136.4980 C   0  0  2  0  0  3  0  0  0  0  0  0
  187.8920  178.1290  136.0820 C   0  0  0  0  0  2  0  0  0  0  0  0
  192.0590  174.8760  138.2120 O   0  0  0  0  0  0  0  0  0  0  0  0
  191.9530  174.6710  136.7290 S   0  0  0  0  0  0  0  0  0  0  0  0
  191.8140  172.5850  135.1840 C   0  0  1  0  0  3  0  0  0  0  0  0
  190.2850  174.5970  136.1400 C   0  0  1  0  0  3  0  0  0  0  0  0
  184.4170  176.8220  135.6120 O   0  0  0  0  0  1  0  0  0  0  0  0
  188.0080  174.5350  136.8700 C   0  0  2  0  0  3  0  0  0  0  0  0
  190.4620  172.2280  135.4840 O   0  0  0  0  0  0  0  0  0  0  0  0
  192.5670  173.0930  136.3420 N   0  0  0  0  0  2  0  0  0  0  0  0
  185.7790  176.9440  135.3360 C   0  0  2  0  0  3  0  0  0  0  0  0
  189.2700  176.6060  137.5610 C   0  0  0  0  0  0  0  0  0  0  0  0
  185.8060  173.2050  136.5220 S   0  0  2  0  0  0  0  0  0  0  0  0
  192.5320  171.3850  134.6030 C   0  0  0  0  0  1  0  0  0  0  0  0
  186.4060  175.5520  135.2230 C   0  0  0  0  0  2  0  0  0  0  0  0
  189.8280  176.3450  138.8190 C   0  0  0  0  0  3  0  0  0  0  0  0
  188.8040  178.8840  138.2770 C   0  0  0  0  0  3  0  0  0  0  0  0
  189.4200  178.6280  139.5040 C   0  0  0  0  0  3  0  0  0  0  0  0
  186.4330  177.8250  136.3980 C   0  0  0  0  0  2  0  0  0  0  0  0
  188.3530  173.3100  136.0770 C   0  0  1  0  0  3  0  0  0  0  0  0
  186.5530  174.8560  136.5780 C   0  0  2  0  0  3  0  0  0  0  0  0
  189.8250  173.1590  136.3480 C   0  0  2  0  0  3  0  0  0  0  0  0
  187.2740  171.1740  135.4480 C   0  0  0  0  0  1  0  0  0  0  0  0
  189.1120  175.5180  136.5330 C   0  0  1  0  0  3  0  0  0  0  0  0
  1 16  2  0  0  0  0
  1 21  1  0  0  0  0
  2  8  2  0  0  0  0
  5 27  1  6  0  0  0
  5 17  1  0  0  0  0
  6 23  1  0  0  0  0
  6  1  1  0  0  0  0
  8  7  2  0  0  0  0
  9 18  1  1  0  0  0
  9 13  1  0  0  0  0
  9 14  1  0  0  0  0
 10 26  1  0  0  0  0
 10 28  1  0  0  0  0
 10  8  1  1  0  0  0
 13 26  1  0  0  0  0
 14  8  1  0  0  0  0
 15 11  1  0  0  0  0
 15 23  1  0  0  0  0
 16 20  1  0  0  0  0
 17 25  1  0  0  0  0
 17  3  2  0  0  0  0
 19 15  1  0  0  0  0
 19 25  1  0  0  0  0
 20  4  2  0  0  0  0
 21 22  2  0  0  0  0
 22  4  1  0  0  0  0
 24 26  1  0  0  0  0
 24  5  1  0  0  0  0
 24 12  1  0  0  0  0
 25 12  1  0  0  0  0
 28 12  1  0  0  0  0
 28 16  1  0  0  0  0
M  END
>  <MODEL>
3

>  <REMARK>
 VINA RESULT:      -5.4      6.944      9.352
  Name = 
  0 active torsions:
  status: ('A' for Active; 'I' for Inactive)
                            x       y       z     vdW  Elec       q    Type
                         _______ _______ _______ _____ _____    ______ ____

>  <TORSDO>
F 0

$$$$
=
 OpenBabel11122411513D

 28 32  0  0  1  0  0  0  0  0999 V2000
  182.7640  177.9450  136.9670 C   0  0  0  0  0  0  0  0  0  0  0  0
  187.2400  179.4930  136.8710 O   0  0  0  0  0  0  0  0  0  0  0  0
  183.8890  172.1020  137.6160 O   0  0  0  0  0  0  0  0  0  0  0  0
  183.2940  178.3470  139.6880 C   0  0  0  0  0  3  0  0  0  0  0  0
  186.1200  173.1780  136.7630 C   0  0  2  0  0  3  0  0  0  0  0  0
  182.3620  177.5760  135.5730 C   0  0  0  0  0  2  0  0  0  0  0  0
  186.8580  178.3100  138.9990 O   0  0  0  0  0  0  0  0  0  0  0  0
  187.3130  178.1680  137.5760 S   0  0  0  0  0  0  0  0  0  0  0  0
  189.1130  176.7280  136.3740 C   0  0  1  0  0  3  0  0  0  0  0  0
  186.4350  176.9260  136.6700 C   0  0  1  0  0  3  0  0  0  0  0  0
  181.1670  174.1670  134.5940 O   0  0  0  0  0  1  0  0  0  0  0  0
  184.8170  175.1800  136.9100 C   0  0  2  0  0  3  0  0  0  0  0  0
  188.4160  175.4810  136.4360 O   0  0  0  0  0  0  0  0  0  0  0  0
  188.9420  177.5660  137.5720 N   0  0  0  0  0  2  0  0  0  0  0  0
  182.0330  175.2610  134.5940 C   0  0  2  0  0  3  0  0  0  0  0  0
  183.9740  177.4760  137.5230 C   0  0  0  0  0  0  0  0  0  0  0  0
  184.4330  172.6820  136.3170 S   0  0  2  0  0  0  0  0  0  0  0  0
  190.5870  176.4690  136.1460 C   0  0  0  0  0  1  0  0  0  0  0  0
  183.4670  174.7810  134.8290 C   0  0  0  0  0  2  0  0  0  0  0  0
  184.2030  177.6430  138.8940 C   0  0  0  0  0  3  0  0  0  0  0  0
  181.8550  178.6450  137.7680 C   0  0  0  0  0  3  0  0  0  0  0  0
  182.1250  178.8600  139.1210 C   0  0  0  0  0  3  0  0  0  0  0  0
  181.5550  176.2850  135.6210 C   0  0  0  0  0  2  0  0  0  0  0  0
  186.1220  174.6400  136.4030 C   0  0  1  0  0  3  0  0  0  0  0  0
  183.7180  174.3480  136.2740 C   0  0  2  0  0  3  0  0  0  0  0  0
  187.1160  175.6030  136.9960 C   0  0  2  0  0  3  0  0  0  0  0  0
  187.1160  172.4320  135.8980 C   0  0  0  0  0  1  0  0  0  0  0  0
  184.9130  176.6730  136.6640 C   0  0  1  0  0  3  0  0  0  0  0  0
  1 16  2  0  0  0  0
  1 21  1  0  0  0  0
  2  8  2  0  0  0  0
  5 27  1  6  0  0  0
  6 23  1  0  0  0  0
  6  1  1  0  0  0  0
  8  7  2  0  0  0  0
  9 18  1  1  0  0  0
  9 13  1  0  0  0  0
  9 14  1  0  0  0  0
 10 26  1  0  0  0  0
 10  8  1  1  0  0  0
 11 15  1  0  0  0  0
 13 26  1  0  0  0  0
 14  8  1  0  0  0  0
 15 19  1  0  0  0  0
 15 23  1  0  0  0  0
 16 20  1  0  0  0  0
 17  5  1  0  0  0  0
 17  3  2  0  0  0  0
 19 25  1  0  0  0  0
 20  4  2  0  0  0  0
 21 22  2  0  0  0  0
 22  4  1  0  0  0  0
 24  5  1  0  0  0  0
 24 12  1  0  0  0  0
 24 26  1  0  0  0  0
 25 17  1  0  0  0  0
 25 12  1  0  0  0  0
 28 10  1  0  0  0  0
 28 12  1  0  0  0  0
 28 16  1  0  0  0  0
M  END
>  <MODEL>
4

>  <REMARK>
 VINA RESULT:      -5.3      4.267      6.952
  Name = 
  0 active torsions:
  status: ('A' for Active; 'I' for Inactive)
                            x       y       z     vdW  Elec       q    Type
                         _______ _______ _______ _____ _____    ______ ____

>  <TORSDO>
F 0

$$$$
=
 OpenBabel11122411513D

 28 32  0  0  1  0  0  0  0  0999 V2000
  189.3880  177.9100  138.1020 C   0  0  0  0  0  0  0  0  0  0  0  0
  193.9290  177.1530  136.9890 O   0  0  0  0  0  0  0  0  0  0  0  0
  187.3240  172.3820  137.1010 O   0  0  0  0  0  0  0  0  0  0  0  0
  190.4500  177.0680  140.5530 C   0  0  0  0  0  3  0  0  0  0  0  0
  189.6280  172.5290  135.8640 C   0  0  2  0  0  3  0  0  0  0  0  0
  188.6490  178.2690  136.8510 C   0  0  0  0  0  2  0  0  0  0  0  0
  193.3010  175.6330  138.8240 O   0  0  0  0  0  0  0  0  0  0  0  0
  193.3930  175.7930  137.3350 S   0  0  0  0  0  0  0  0  0  0  0  0
  193.9510  174.1950  135.3620 C   0  0  1  0  0  3  0  0  0  0  0  0
  191.8660  175.4880  136.4930 C   0  0  1  0  0  3  0  0  0  0  0  0
  185.6970  176.3590  135.5690 O   0  0  0  0  0  1  0  0  0  0  0  0
  189.6260  174.7190  136.8290 C   0  0  2  0  0  3  0  0  0  0  0  0
  192.7170  173.4710  135.3620 O   0  0  0  0  0  0  0  0  0  0  0  0
  194.4320  174.5510  136.7070 N   0  0  0  0  0  2  0  0  0  0  0  0
  186.9990  176.8570  135.5420 C   0  0  2  0  0  3  0  0  0  0  0  0
  190.2310  176.7800  138.1500 C   0  0  0  0  0  0  0  0  0  0  0  0
  187.8910  173.0500  135.8550 S   0  0  2  0  0  0  0  0  0  0  0  0
  195.0090  173.3810  134.6470 C   0  0  0  0  0  1  0  0  0  0  0  0
  187.9770  175.7230  135.2210 C   0  0  0  0  0  2  0  0  0  0  0  0
  190.7160  176.3440  139.3890 C   0  0  0  0  0  3  0  0  0  0  0  0
  189.1200  178.6300  139.2730 C   0  0  0  0  0  3  0  0  0  0  0  0
  189.6630  178.2190  140.4930 C   0  0  0  0  0  3  0  0  0  0  0  0
  187.2970  177.5660  136.8620 C   0  0  0  0  0  2  0  0  0  0  0  0
  190.3520  173.8490  135.8460 C   0  0  1  0  0  3  0  0  0  0  0  0
  188.1720  174.7600  136.3930 C   0  0  2  0  0  3  0  0  0  0  0  0
  191.7800  173.9790  136.3020 C   0  0  2  0  0  3  0  0  0  0  0  0
  189.9340  171.7540  134.5980 C   0  0  0  0  0  1  0  0  0  0  0  0
  190.4600  175.9830  136.8940 C   0  0  1  0  0  3  0  0  0  0  0  0
  1 16  2  0  0  0  0
  1 21  1  0  0  0  0
  2  8  2  0  0  0  0
  5 27  1  6  0  0  0
  6 23  1  0  0  0  0
  6  1  1  0  0  0  0
  8  7  2  0  0  0  0
  9 18  1  1  0  0  0
  9 13  1  0  0  0  0
  9 14  1  0  0  0  0
 10 28  1  0  0  0  0
 10  8  1  1  0  0  0
 12 28  1  0  0  0  0
 13 26  1  0  0  0  0
 14  8  1  0  0  0  0
 15 11  1  0  0  0  0
 15 23  1  0  0  0  0
 16 20  1  0  0  0  0
 17  5  1  0  0  0  0
 17 25  1  0  0  0  0
 17  3  2  0  0  0  0
 19 15  1  0  0  0  0
 19 25  1  0  0  0  0
 20  4  2  0  0  0  0
 21 22  2  0  0  0  0
 22  4  1  0  0  0  0
 24  5  1  0  0  0  0
 24 26  1  0  0  0  0
 24 12  1  0  0  0  0
 25 12  1  0  0  0  0
 26 10  1  0  0  0  0
 28 16  1  0  0  0  0
M  END
>  <MODEL>
5

>  <REMARK>
 VINA RESULT:      -5.3      7.404     10.257
  Name = 
  0 active torsions:
  status: ('A' for Active; 'I' for Inactive)
                            x       y       z     vdW  Elec       q    Type
                         _______ _______ _______ _____ _____    ______ ____

>  <TORSDO>
F 0

$$$$
=
 OpenBabel11122411513D

 28 32  0  0  1  0  0  0  0  0999 V2000
  180.0180  178.3100  138.4090 C   0  0  0  0  0  0  0  0  0  0  0  0
  184.2310  180.3820  139.0330 O   0  0  0  0  0  0  0  0  0  0  0  0
  181.9570  172.8300  136.9840 O   0  0  0  0  0  0  0  0  0  0  0  0
  180.5240  177.7840  141.1130 C   0  0  0  0  0  3  0  0  0  0  0  0
  184.0030  174.4300  136.6500 C   0  0  2  0  0  3  0  0  0  0  0  0
  179.6520  178.4120  136.9610 C   0  0  0  0  0  2  0  0  0  0  0  0
  184.0490  178.4780  140.5870 O   0  0  0  0  0  0  0  0  0  0  0  0
  184.4990  178.9160  139.2240 S   0  0  0  0  0  0  0  0  0  0  0  0
  186.4650  178.2560  137.6570 C   0  0  1  0  0  3  0  0  0  0  0  0
  183.7900  177.9710  137.9050 C   0  0  1  0  0  3  0  0  0  0  0  0
  178.9310  175.4480  134.7930 O   0  0  0  0  0  1  0  0  0  0  0  0
  182.4360  176.0530  137.4500 C   0  0  2  0  0  3  0  0  0  0  0  0
  185.9510  176.9870  137.2470 O   0  0  0  0  0  0  0  0  0  0  0  0
  186.1960  178.5810  139.0670 N   0  0  0  0  0  2  0  0  0  0  0  0
  179.6350  176.5760  135.2130 C   0  0  2  0  0  3  0  0  0  0  0  0
  181.2890  177.8420  138.8060 C   0  0  0  0  0  0  0  0  0  0  0  0
  182.3960  173.9020  135.9960 S   0  0  2  0  0  0  0  0  0  0  0  0
  187.9580  178.2970  137.4060 C   0  0  0  0  0  1  0  0  0  0  0  0
  181.1250  176.2430  135.3150 C   0  0  0  0  0  2  0  0  0  0  0  0
  181.5110  177.5400  140.1550 C   0  0  0  0  0  3  0  0  0  0  0  0
  179.0310  178.5490  139.3730 C   0  0  0  0  0  3  0  0  0  0  0  0
  179.2880  178.3020  140.7230 C   0  0  0  0  0  3  0  0  0  0  0  0
  179.0330  177.0920  136.5180 C   0  0  0  0  0  2  0  0  0  0  0  0
  183.7960  175.9110  136.8340 C   0  0  1  0  0  3  0  0  0  0  0  0
  181.4550  175.3610  136.5210 C   0  0  2  0  0  3  0  0  0  0  0  0
  184.6540  176.7240  137.7650 C   0  0  2  0  0  3  0  0  0  0  0  0
  185.0810  174.1840  135.6140 C   0  0  0  0  0  1  0  0  0  0  0  0
  182.3180  177.5330  137.7540 C   0  0  1  0  0  3  0  0  0  0  0  0
  1 16  2  0  0  0  0
  1 21  1  0  0  0  0
  2  8  2  0  0  0  0
  5 27  1  6  0  0  0
  5 24  1  0  0  0  0
  6  1  1  0  0  0  0
  8  7  2  0  0  0  0
  9 18  1  1  0  0  0
  9 14  1  0  0  0  0
 10  8  1  1  0  0  0
 11 15  1  0  0  0  0
 12 28  1  0  0  0  0
 13  9  1  0  0  0  0
 13 26  1  0  0  0  0
 14  8  1  0  0  0  0
 15 19  1  0  0  0  0
 15 23  1  0  0  0  0
 16 20  1  0  0  0  0
 17 25  1  0  0  0  0
 17  5  1  0  0  0  0
 17  3  2  0  0  0  0
 19 25  1  0  0  0  0
 20  4  2  0  0  0  0
 21 22  2  0  0  0  0
 22  4  1  0  0  0  0
 23  6  1  0  0  0  0
 24 12  1  0  0  0  0
 24 26  1  0  0  0  0
 25 12  1  0  0  0  0
 26 10  1  0  0  0  0
 28 10  1  0  0  0  0
 28 16  1  0  0  0  0
M  END
>  <MODEL>
6

>  <REMARK>
 VINA RESULT:      -5.2      3.129      5.942
  Name = 
  0 active torsions:
  status: ('A' for Active; 'I' for Inactive)
                            x       y       z     vdW  Elec       q    Type
                         _______ _______ _______ _____ _____    ______ ____

>  <TORSDO>
F 0

$$$$
=
 OpenBabel11122411513D

 28 32  0  0  1  0  0  0  0  0999 V2000
  189.9120  174.8020  136.0660 C   0  0  0  0  0  0  0  0  0  0  0  0
  185.7450  176.9690  135.4600 O   0  0  0  0  0  0  0  0  0  0  0  0
  190.5160  175.7260  141.9480 O   0  0  0  0  0  0  0  0  0  0  0  0
  188.1030  172.7260  136.5790 C   0  0  0  0  0  3  0  0  0  0  0  0
  188.7120  177.4380  141.1290 C   0  0  2  0  0  3  0  0  0  0  0  0
  190.9990  175.8220  135.9290 C   0  0  0  0  0  2  0  0  0  0  0  0
  185.4630  175.1610  137.1100 O   0  0  0  0  0  0  0  0  0  0  0  0
  185.7780  176.6150  136.9200 S   0  0  0  0  0  0  0  0  0  0  0  0
  185.2820  178.7790  138.2730 C   0  0  1  0  0  3  0  0  0  0  0  0
  187.3130  177.1100  137.6510 C   0  0  1  0  0  3  0  0  0  0  0  0
  193.5120  176.5430  138.6070 O   0  0  0  0  0  1  0  0  0  0  0  0
  189.0990  176.3350  139.0400 C   0  0  2  0  0  3  0  0  0  0  0  0
  186.2250  178.5540  139.3240 O   0  0  0  0  0  0  0  0  0  0  0  0
  184.6130  177.5550  137.8010 N   0  0  0  0  0  2  0  0  0  0  0  0
  192.4480  176.8260  137.7510 C   0  0  2  0  0  3  0  0  0  0  0  0
  188.7990  175.0330  136.9020 C   0  0  0  0  0  0  0  0  0  0  0  0
  190.4750  177.0130  141.1350 S   0  0  2  0  0  0  0  0  0  0  0  0
  184.2400  179.7740  138.7380 C   0  0  0  0  0  1  0  0  0  0  0  0
  191.2980  177.4450  138.5490 C   0  0  0  0  0  2  0  0  0  0  0  0
  187.9300  173.9720  137.1870 C   0  0  0  0  0  3  0  0  0  0  0  0
  190.0840  173.5490  135.4630 C   0  0  0  0  0  3  0  0  0  0  0  0
  189.1730  172.5190  135.7060 C   0  0  0  0  0  3  0  0  0  0  0  0
  192.0550  175.5590  136.9950 C   0  0  0  0  0  2  0  0  0  0  0  0
  188.4140  177.5190  139.6540 C   0  0  1  0  0  3  0  0  0  0  0  0
  190.5650  176.4250  139.4220 C   0  0  2  0  0  3  0  0  0  0  0  0
  187.0140  177.3910  139.1180 C   0  0  2  0  0  3  0  0  0  0  0  0
  188.5120  178.7950  141.7720 C   0  0  0  0  0  1  0  0  0  0  0  0
  188.6620  176.3640  137.5890 C   0  0  1  0  0  3  0  0  0  0  0  0
  1 16  1  0  0  0  0
  2  8  2  0  0  0  0
  4 20  1  0  0  0  0
  5 17  1  0  0  0  0
  5 27  1  1  0  0  0
  6  1  1  0  0  0  0
  6 23  1  0  0  0  0
  8  7  2  0  0  0  0
  8 14  1  0  0  0  0
  9 18  1  1  0  0  0
  9 13  1  0  0  0  0
 10  8  1  1  0  0  0
 10 26  1  0  0  0  0
 12 25  1  0  0  0  0
 12 24  1  0  0  0  0
 14  9  1  0  0  0  0
 15 19  1  0  0  0  0
 15 11  1  0  0  0  0
 16 20  2  0  0  0  0
 16 28  1  0  0  0  0
 17  3  2  0  0  0  0
 19 25  1  0  0  0  0
 21 22  1  0  0  0  0
 21  1  2  0  0  0  0
 22  4  2  0  0  0  0
 23 15  1  0  0  0  0
 24  5  1  0  0  0  0
 25 17  1  0  0  0  0
 26 13  1  0  0  0  0
 26 24  1  0  0  0  0
 28 10  1  0  0  0  0
 28 12  1  0  0  0  0
M  END
>  <MODEL>
7

>  <REMARK>
 VINA RESULT:      -5.0      5.373      8.472
  Name = 
  0 active torsions:
  status: ('A' for Active; 'I' for Inactive)
                            x       y       z     vdW  Elec       q    Type
                         _______ _______ _______ _____ _____    ______ ____

>  <TORSDO>
F 0

$$$$
=
 OpenBabel11122411513D

 28 32  0  0  1  0  0  0  0  0999 V2000
  181.2240  179.4650  137.5860 C   0  0  0  0  0  0  0  0  0  0  0  0
  178.9390  175.4320  136.6140 O   0  0  0  0  0  0  0  0  0  0  0  0
  186.7820  177.6250  136.3460 O   0  0  0  0  0  0  0  0  0  0  0  0
  180.7060  179.7410  134.8480 C   0  0  0  0  0  3  0  0  0  0  0  0
  185.3530  175.4520  136.6550 C   0  0  2  0  0  3  0  0  0  0  0  0
  181.6710  179.4210  139.0140 C   0  0  0  0  0  2  0  0  0  0  0  0
  180.1450  176.1640  134.5940 O   0  0  0  0  0  0  0  0  0  0  0  0
  180.2230  175.3340  135.8420 S   0  0  0  0  0  0  0  0  0  0  0  0
  181.3500  173.0740  136.4580 C   0  0  1  0  0  3  0  0  0  0  0  0
  181.6070  175.7310  136.8720 C   0  0  1  0  0  3  0  0  0  0  0  0
  185.2450  179.7520  140.0760 O   0  0  0  0  0  1  0  0  0  0  0  0
  183.5990  177.0520  136.9600 C   0  0  2  0  0  3  0  0  0  0  0  0
  182.6970  173.5520  136.5070 O   0  0  0  0  0  0  0  0  0  0  0  0
  180.5400  173.6860  135.3930 N   0  0  0  0  0  2  0  0  0  0  0  0
  184.0200  179.1050  139.9150 C   0  0  2  0  0  3  0  0  0  0  0  0
  181.4740  178.3850  136.7130 C   0  0  0  0  0  0  0  0  0  0  0  0
  186.1340  176.8590  137.4910 S   0  0  2  0  0  0  0  0  0  0  0  0
  181.3580  171.5700  136.2840 C   0  0  0  0  0  1  0  0  0  0  0  0
  184.2460  177.7250  139.2920 C   0  0  0  0  0  2  0  0  0  0  0  0
  181.2540  178.5550  135.3410 C   0  0  0  0  0  3  0  0  0  0  0  0
  180.6790  180.6540  137.0870 C   0  0  0  0  0  3  0  0  0  0  0  0
  180.4050  180.7870  135.7240 C   0  0  0  0  0  3  0  0  0  0  0  0
  183.0800  179.9950  139.1040 C   0  0  0  0  0  2  0  0  0  0  0  0
  183.9160  175.5910  137.0820 C   0  0  1  0  0  3  0  0  0  0  0  0
  184.6140  177.7960  137.8090 C   0  0  2  0  0  3  0  0  0  0  0  0
  182.7920  174.9560  136.3090 C   0  0  2  0  0  3  0  0  0  0  0  0
  185.9290  174.1570  137.1910 C   0  0  0  0  0  1  0  0  0  0  0  0
  182.1150  177.1370  137.2550 C   0  0  1  0  0  3  0  0  0  0  0  0
  1  6  1  0  0  0  0
  3 17  2  0  0  0  0
  4 20  2  0  0  0  0
  4 22  1  0  0  0  0
  5 24  1  0  0  0  0
  5 27  1  1  0  0  0
  5 17  1  0  0  0  0
  6 23  1  0  0  0  0
  7  8  2  0  0  0  0
  8  2  2  0  0  0  0
  9 18  1  6  0  0  0
  9 13  1  0  0  0  0
 10  8  1  6  0  0  0
 10 28  1  0  0  0  0
 12 24  1  0  0  0  0
 12 28  1  0  0  0  0
 12 25  1  0  0  0  0
 14  8  1  0  0  0  0
 14  9  1  0  0  0  0
 15 11  1  0  0  0  0
 16 28  1  0  0  0  0
 16  1  2  0  0  0  0
 17 25  1  0  0  0  0
 19 15  1  0  0  0  0
 20 16  1  0  0  0  0
 21  1  1  0  0  0  0
 22 21  2  0  0  0  0
 23 15  1  0  0  0  0
 25 19  1  0  0  0  0
 26 13  1  0  0  0  0
 26 10  1  0  0  0  0
 26 24  1  0  0  0  0
M  END
>  <MODEL>
8

>  <REMARK>
 VINA RESULT:      -4.9      3.989      7.460
  Name = 
  0 active torsions:
  status: ('A' for Active; 'I' for Inactive)
                            x       y       z     vdW  Elec       q    Type
                         _______ _______ _______ _____ _____    ______ ____

>  <TORSDO>
F 0

$$$$
=
 OpenBabel11122411513D

 28 32  0  0  1  0  0  0  0  0999 V2000
  180.8260  178.8310  142.5850 C   0  0  0  0  0  0  0  0  0  0  0  0
  179.0920  175.1080  140.2260 O   0  0  0  0  0  0  0  0  0  0  0  0
  185.1650  180.3360  138.7470 O   0  0  0  0  0  0  0  0  0  0  0  0
  178.9310  180.0390  140.9130 C   0  0  0  0  0  3  0  0  0  0  0  0
  184.4950  177.8750  138.1520 C   0  0  2  0  0  3  0  0  0  0  0  0
  181.9460  178.3570  143.4570 C   0  0  0  0  0  2  0  0  0  0  0  0
  178.9370  177.1000  138.7830 O   0  0  0  0  0  0  0  0  0  0  0  0
  179.7880  175.9280  139.1780 S   0  0  0  0  0  0  0  0  0  0  0  0
  181.4370  174.3670  137.9120 C   0  0  1  0  0  3  0  0  0  0  0  0
  181.4140  176.3810  139.7130 C   0  0  1  0  0  3  0  0  0  0  0  0
  185.4370  179.6890  143.2540 O   0  0  0  0  0  1  0  0  0  0  0  0
  182.9070  178.2400  139.9060 C   0  0  2  0  0  3  0  0  0  0  0  0
  182.5120  175.3020  137.7890 O   0  0  0  0  0  0  0  0  0  0  0  0
  180.1030  174.9700  137.7640 N   0  0  0  0  0  2  0  0  0  0  0  0
  184.4360  178.7230  143.1540 C   0  0  2  0  0  3  0  0  0  0  0  0
  180.7690  178.4790  141.2200 C   0  0  0  0  0  0  0  0  0  0  0  0
  185.3420  178.9470  139.3450 S   0  0  2  0  0  0  0  0  0  0  0  0
  181.6100  173.2660  136.8870 C   0  0  0  0  0  1  0  0  0  0  0  0
  184.5400  178.0130  141.8020 C   0  0  0  0  0  2  0  0  0  0  0  0
  179.8470  179.1250  140.3870 C   0  0  0  0  0  3  0  0  0  0  0  0
  179.9080  179.7510  143.1060 C   0  0  0  0  0  3  0  0  0  0  0  0
  178.9530  180.3420  142.2760 C   0  0  0  0  0  3  0  0  0  0  0  0
  183.0770  179.3760  143.4000 C   0  0  0  0  0  2  0  0  0  0  0  0
  183.4850  177.1740  139.0220 C   0  0  1  0  0  3  0  0  0  0  0  0
  184.0710  178.8860  140.6370 C   0  0  2  0  0  3  0  0  0  0  0  0
  182.2500  176.5330  138.4480 C   0  0  2  0  0  3  0  0  0  0  0  0
  185.4750  176.8690  137.5840 C   0  0  0  0  0  1  0  0  0  0  0  0
  181.8000  177.5340  140.6620 C   0  0  1  0  0  3  0  0  0  0  0  0
  1 21  1  0  0  0  0
  1  6  1  0  0  0  0
  3 17  2  0  0  0  0
  4 22  1  0  0  0  0
  5 27  1  1  0  0  0
  5 24  1  0  0  0  0
  5 17  1  0  0  0  0
  7  8  2  0  0  0  0
  8  2  2  0  0  0  0
  9 18  1  6  0  0  0
 10  8  1  6  0  0  0
 10 28  1  0  0  0  0
 12 25  1  0  0  0  0
 12 28  1  0  0  0  0
 13  9  1  0  0  0  0
 13 26  1  0  0  0  0
 14  9  1  0  0  0  0
 14  8  1  0  0  0  0
 15 11  1  0  0  0  0
 15 23  1  0  0  0  0
 16  1  2  0  0  0  0
 17 25  1  0  0  0  0
 19 15  1  0  0  0  0
 20  4  2  0  0  0  0
 20 16  1  0  0  0  0
 22 21  2  0  0  0  0
 23  6  1  0  0  0  0
 24 12  1  0  0  0  0
 25 19  1  0  0  0  0
 26 24  1  0  0  0  0
 26 10  1  0  0  0  0
 28 16  1  0  0  0  0
M  END
>  <MODEL>
9

>  <REMARK>
 VINA RESULT:      -4.9      2.490      6.668
  Name = 
  0 active torsions:
  status: ('A' for Active; 'I' for Inactive)
                            x       y       z     vdW  Elec       q    Type
                         _______ _______ _______ _____ _____    ______ ____

>  <TORSDO>
F 0

$$$$
