=
 OpenBabel11122412083D

 34 40  0  0  1  0  0  0  0  0999 V2000
  182.1800  178.5260  143.5230 C   0  0  2  0  0  3  0  0  0  0  0  0
  183.7790  178.6600  145.7640 S   0  0  0  0  0  0  0  0  0  0  0  0
  180.9980  179.5780  137.2540 C   0  0  0  0  0  0  0  0  0  0  0  0
  180.7260  178.3010  141.4470 C   0  0  0  0  0  0  0  0  0  0  0  0
  181.8310  178.2240  139.1790 C   0  0  1  0  0  3  0  0  0  0  0  0
  181.7170  180.6480  139.2510 O   0  0  0  0  0  1  0  0  0  0  0  0
  181.4720  179.7210  136.0980 O   0  0  0  0  0  0  0  0  0  0  0  0
  178.9590  179.3360  138.6680 C   0  0  0  0  0  2  0  0  0  0  0  0
  184.5920  179.4010  143.2580 C   0  0  2  0  0  3  0  0  0  0  0  0
  187.5090  178.0070  142.7120 C   0  0  0  0  0  2  0  0  0  0  0  0
  183.0910  177.9080  139.9870 C   0  0  0  0  0  2  0  0  0  0  0  0
  179.3320  178.0330  139.3610 C   0  0  0  0  0  2  0  0  0  0  0  0
  184.5140  178.5410  141.9790 C   0  0  1  0  0  3  0  0  0  0  0  0
  185.4060  179.4220  145.5820 C   0  0  0  0  0  2  0  0  0  0  0  0
  180.6290  178.1710  140.0160 N   0  0  0  0  0  0  0  0  0  0  0  0
  179.6130  179.4440  137.4070 O   0  0  0  0  0  0  0  0  0  0  0  0
  186.5870  177.8760  143.9210 C   0  0  2  0  0  3  0  0  0  0  0  0
  181.9660  178.9280  142.0590 C   0  0  2  0  0  3  0  0  0  0  0  0
  181.9420  179.5490  138.4160 C   0  0  2  0  0  3  0  0  0  0  0  0
  183.2410  178.8550  141.1810 C   0  0  2  0  0  3  0  0  0  0  0  0
  179.7730  177.9100  143.7350 C   0  0  0  0  0  2  0  0  0  0  0  0
  186.7860  177.7130  141.4070 C   0  0  0  0  0  2  0  0  0  0  0  0
  179.7060  177.9160  142.2310 C   0  0  0  0  0  3  0  0  0  0  0  0
  185.7390  178.7700  141.1040 C   0  0  0  0  0  2  0  0  0  0  0  0
  185.8470  179.2160  144.1400 C   0  0  1  0  0  3  0  0  0  0  0  0
  180.8850  178.8030  144.2770 C   0  0  0  0  0  2  0  0  0  0  0  0
  183.3290  179.3280  144.1370 C   0  0  1  0  0  3  0  0  0  0  0  0
  187.4460  177.4860  145.1210 C   0  0  0  0  0  2  0  0  0  0  0  0
  188.8180  177.0280  144.6580 C   0  0  0  0  0  2  0  0  0  0  0  0
  191.1290  176.8570  147.5280 C   0  0  0  0  0  2  0  0  0  0  0  0
  191.5480  177.1320  144.9720 S   0  0  0  0  0  0  0  0  0  0  0  0
  189.8900  177.5540  145.5930 C   0  0  2  0  0  3  0  0  0  0  0  0
  192.0270  176.3670  146.4980 N   0  0  0  0  0  2  0  0  0  0  0  0
  189.7410  176.9140  146.9460 C   0  0  0  0  0  2  0  0  0  0  0  0
  1 27  1  0  0  0  0
  1 26  1  1  0  0  0
  3 16  1  0  0  0  0
  3 19  1  0  0  0  0
  4 18  1  0  0  0  0
  4 23  2  0  0  0  0
  5 11  1  1  0  0  0
  5 15  1  0  0  0  0
  7  3  2  0  0  0  0
  8 12  1  0  0  0  0
  9 27  1  0  0  0  0
  9 25  1  0  0  0  0
 10 17  1  0  0  0  0
 11 20  1  0  0  0  0
 12 15  1  0  0  0  0
 13  9  1  0  0  0  0
 14  2  1  0  0  0  0
 15  4  1  0  0  0  0
 16  8  1  0  0  0  0
 17 25  1  0  0  0  0
 17 28  1  0  0  0  0
 18  1  1  0  0  0  0
 19  5  1  0  0  0  0
 19  6  1  0  0  0  0
 20 13  1  0  0  0  0
 20 18  1  0  0  0  0
 21 26  1  0  0  0  0
 22 10  1  0  0  0  0
 23 21  1  0  0  0  0
 24 22  1  0  0  0  0
 24 13  1  0  0  0  0
 25 14  1  0  0  0  0
 27  2  1  0  0  0  0
 29 28  1  0  0  0  0
 29 32  1  0  0  0  0
 31 32  1  0  0  0  0
 31 33  1  0  0  0  0
 32 34  1  0  0  0  0
 33 30  1  0  0  0  0
 34 30  1  0  0  0  0
M  END
>  <MODEL>
1

>  <REMARK>
 VINA RESULT:      -8.2      0.000      0.000
  Name = 
  3 active torsions:
  status: ('A' for Active; 'I' for Inactive)
    1  A    between atoms: C_17  and  C_28
    2  A    between atoms: C_28  and  C_29
    3  A    between atoms: C_29  and  C_32
                            x       y       z     vdW  Elec       q    Type
                         _______ _______ _______ _____ _____    ______ ____

>  <TORSDO>
F 3

$$$$
=
 OpenBabel11122412083D

 34 40  0  0  1  0  0  0  0  0999 V2000
  184.2220  178.7340  143.9650 C   0  0  2  0  0  3  0  0  0  0  0  0
  181.6210  179.1940  143.1790 S   0  0  0  0  0  0  0  0  0  0  0  0
  190.1370  176.2890  143.0530 C   0  0  0  0  0  0  0  0  0  0  0  0
  186.6460  178.4080  144.6670 C   0  0  0  0  0  0  0  0  0  0  0  0
  188.4040  178.0780  142.8860 C   0  0  1  0  0  3  0  0  0  0  0  0
  187.8290  175.7240  143.0230 O   0  0  0  0  0  1  0  0  0  0  0  0
  191.0210  175.9370  142.2300 O   0  0  0  0  0  0  0  0  0  0  0  0
  189.5340  176.6830  145.4400 C   0  0  0  0  0  2  0  0  0  0  0  0
  183.5060  177.9960  141.6000 C   0  0  2  0  0  3  0  0  0  0  0  0
  183.3990  179.4430  138.6600 C   0  0  0  0  0  2  0  0  0  0  0  0
  187.3320  178.6470  141.9550 C   0  0  0  0  0  2  0  0  0  0  0  0
  189.0700  178.1270  145.3090 C   0  0  0  0  0  2  0  0  0  0  0  0
  184.9030  178.5550  141.2560 C   0  0  1  0  0  3  0  0  0  0  0  0
  181.1030  178.5280  141.5830 C   0  0  0  0  0  2  0  0  0  0  0  0
  188.0250  178.2240  144.2940 N   0  0  0  0  0  0  0  0  0  0  0  0
  190.4650  176.3550  144.4120 O   0  0  0  0  0  0  0  0  0  0  0  0
  182.6060  179.7630  139.9230 C   0  0  2  0  0  3  0  0  0  0  0  0
  185.5490  178.0160  143.6940 C   0  0  2  0  0  3  0  0  0  0  0  0
  188.7740  176.6320  142.5370 C   0  0  2  0  0  3  0  0  0  0  0  0
  185.9710  177.9900  142.2030 C   0  0  2  0  0  3  0  0  0  0  0  0
  184.9270  179.2100  146.3100 C   0  0  0  0  0  2  0  0  0  0  0  0
  184.8970  179.4010  138.9200 C   0  0  0  0  0  2  0  0  0  0  0  0
  186.3330  178.8790  145.8850 C   0  0  0  0  0  3  0  0  0  0  0  0
  185.2700  178.2320  139.8150 C   0  0  0  0  0  2  0  0  0  0  0  0
  182.3380  178.4520  140.6970 C   0  0  1  0  0  3  0  0  0  0  0  0
  183.8750  178.5330  145.4350 C   0  0  0  0  0  2  0  0  0  0  0  0
  183.1130  178.1650  143.0800 C   0  0  1  0  0  3  0  0  0  0  0  0
  181.3170  180.4600  139.4990 C   0  0  0  0  0  2  0  0  0  0  0  0
  181.4280  180.9430  138.0640 C   0  0  0  0  0  2  0  0  0  0  0  0
  181.4820  184.4990  137.0830 C   0  0  0  0  0  2  0  0  0  0  0  0
  179.9410  182.5230  136.3720 S   0  0  0  0  0  0  0  0  0  0  0  0
  180.8570  182.3430  137.9350 C   0  0  2  0  0  3  0  0  0  0  0  0
  180.8680  183.9530  135.8850 N   0  0  0  0  0  2  0  0  0  0  0  0
  181.9770  183.3470  137.9170 C   0  0  0  0  0  2  0  0  0  0  0  0
  1 26  1  1  0  0  0
  3 16  1  0  0  0  0
  4 23  2  0  0  0  0
  5 11  1  6  0  0  0
  5 15  1  0  0  0  0
  7  3  2  0  0  0  0
  9 27  1  0  0  0  0
 10 22  1  0  0  0  0
 10 17  1  0  0  0  0
 11 20  1  0  0  0  0
 12  8  1  0  0  0  0
 13  9  1  0  0  0  0
 13 20  1  0  0  0  0
 14  2  1  0  0  0  0
 15  4  1  0  0  0  0
 15 12  1  0  0  0  0
 16  8  1  0  0  0  0
 17 25  1  0  0  0  0
 18  1  1  0  0  0  0
 18  4  1  0  0  0  0
 19  5  1  0  0  0  0
 19  6  1  0  0  0  0
 19  3  1  0  0  0  0
 20 18  1  0  0  0  0
 22 24  1  0  0  0  0
 23 21  1  0  0  0  0
 24 13  1  0  0  0  0
 25 14  1  0  0  0  0
 25  9  1  0  0  0  0
 26 21  1  0  0  0  0
 27  2  1  0  0  0  0
 27  1  1  0  0  0  0
 28 17  1  0  0  0  0
 29 28  1  0  0  0  0
 30 34  1  0  0  0  0
 31 32  1  0  0  0  0
 32 29  1  0  0  0  0
 33 31  1  0  0  0  0
 33 30  1  0  0  0  0
 34 32  1  0  0  0  0
M  END
>  <MODEL>
2

>  <REMARK>
 VINA RESULT:      -7.5      4.236      8.942
  Name = 
  3 active torsions:
  status: ('A' for Active; 'I' for Inactive)
    1  A    between atoms: C_17  and  C_28
    2  A    between atoms: C_28  and  C_29
    3  A    between atoms: C_29  and  C_32
                            x       y       z     vdW  Elec       q    Type
                         _______ _______ _______ _____ _____    ______ ____

>  <TORSDO>
F 3

$$$$
=
 OpenBabel11122412083D

 34 40  0  0  1  0  0  0  0  0999 V2000
  188.5760  177.2590  138.0550 C   0  0  2  0  0  3  0  0  0  0  0  0
  186.6930  178.3640  139.7380 S   0  0  0  0  0  0  0  0  0  0  0  0
  194.6210  175.4980  136.5860 C   0  0  0  0  0  0  0  0  0  0  0  0
  190.2770  176.1440  136.5270 C   0  0  0  0  0  0  0  0  0  0  0  0
  192.3460  175.1140  137.5420 C   0  0  1  0  0  3  0  0  0  0  0  0
  193.3140  177.3310  137.3480 O   0  0  0  0  0  1  0  0  0  0  0  0
  195.7490  175.1350  137.0080 O   0  0  0  0  0  0  0  0  0  0  0  0
  193.1370  175.8600  134.6150 C   0  0  0  0  0  2  0  0  0  0  0  0
  189.3120  177.9660  140.4230 C   0  0  2  0  0  3  0  0  0  0  0  0
  189.3560  176.5120  143.3620 C   0  0  0  0  0  2  0  0  0  0  0  0
  191.5470  175.1920  138.8430 C   0  0  0  0  0  2  0  0  0  0  0  0
  191.9730  174.9860  135.0590 C   0  0  0  0  0  2  0  0  0  0  0  0
  190.0940  176.6390  140.3230 C   0  0  1  0  0  3  0  0  0  0  0  0
  187.2670  178.9950  141.3290 C   0  0  0  0  0  2  0  0  0  0  0  0
  191.5080  175.4090  136.3770 N   0  0  0  0  0  0  0  0  0  0  0  0
  194.3540  175.4240  135.2140 O   0  0  0  0  0  0  0  0  0  0  0  0
  188.1630  176.9020  142.4940 C   0  0  2  0  0  3  0  0  0  0  0  0
  190.0570  176.9890  137.7690 C   0  0  2  0  0  3  0  0  0  0  0  0
  193.6080  175.9840  137.5760 C   0  0  2  0  0  3  0  0  0  0  0  0
  190.8830  176.5630  139.0090 C   0  0  2  0  0  3  0  0  0  0  0  0
  187.9970  176.7610  135.6800 C   0  0  0  0  0  2  0  0  0  0  0  0
  190.3700  175.6760  142.5970 C   0  0  0  0  0  2  0  0  0  0  0  0
  189.3530  176.1190  135.5530 C   0  0  0  0  0  3  0  0  0  0  0  0
  191.0430  176.4860  141.5030 C   0  0  0  0  0  2  0  0  0  0  0  0
  188.5020  178.1960  141.7190 C   0  0  1  0  0  3  0  0  0  0  0  0
  187.9480  177.8160  136.7820 C   0  0  0  0  0  2  0  0  0  0  0  0
  188.4240  178.2620  139.1990 C   0  0  1  0  0  3  0  0  0  0  0  0
  186.9570  177.0760  143.4130 C   0  0  0  0  0  2  0  0  0  0  0  0
  187.3850  177.7070  144.7270 C   0  0  0  0  0  2  0  0  0  0  0  0
  183.9900  179.0200  145.3270 C   0  0  0  0  0  2  0  0  0  0  0  0
  185.9880  178.5640  146.9360 S   0  0  0  0  0  0  0  0  0  0  0  0
  186.3700  178.7460  145.1650 C   0  0  2  0  0  3  0  0  0  0  0  0
  184.2420  178.4610  146.6440 N   0  0  0  0  0  2  0  0  0  0  0  0
  185.0860  178.5510  144.4070 C   0  0  0  0  0  2  0  0  0  0  0  0
  1 26  1  6  0  0  0
  1 27  1  0  0  0  0
  2 14  1  0  0  0  0
  3  7  2  0  0  0  0
  3 19  1  0  0  0  0
  4 18  1  0  0  0  0
  5 19  1  0  0  0  0
  5 11  1  1  0  0  0
  6 19  1  0  0  0  0
  8 12  1  0  0  0  0
  8 16  1  0  0  0  0
  9 25  1  0  0  0  0
 11 20  1  0  0  0  0
 12 15  1  0  0  0  0
 13  9  1  0  0  0  0
 13 24  1  0  0  0  0
 14 25  1  0  0  0  0
 15  4  1  0  0  0  0
 15  5  1  0  0  0  0
 16  3  1  0  0  0  0
 17 10  1  0  0  0  0
 17 28  1  0  0  0  0
 18  1  1  0  0  0  0
 18 20  1  0  0  0  0
 20 13  1  0  0  0  0
 21 26  1  0  0  0  0
 22 10  1  0  0  0  0
 23 21  1  0  0  0  0
 23  4  2  0  0  0  0
 24 22  1  0  0  0  0
 25 17  1  0  0  0  0
 27  2  1  0  0  0  0
 27  9  1  0  0  0  0
 28 29  1  0  0  0  0
 29 32  1  0  0  0  0
 30 33  1  0  0  0  0
 32 31  1  0  0  0  0
 33 31  1  0  0  0  0
 34 32  1  0  0  0  0
 34 30  1  0  0  0  0
M  END
>  <MODEL>
3

>  <REMARK>
 VINA RESULT:      -7.3      6.520      9.288
  Name = 
  3 active torsions:
  status: ('A' for Active; 'I' for Inactive)
    1  A    between atoms: C_17  and  C_28
    2  A    between atoms: C_28  and  C_29
    3  A    between atoms: C_29  and  C_32
                            x       y       z     vdW  Elec       q    Type
                         _______ _______ _______ _____ _____    ______ ____

>  <TORSDO>
F 3

$$$$
=
 OpenBabel11122412083D

 34 40  0  0  1  0  0  0  0  0999 V2000
  190.1120  175.4920  137.0130 C   0  0  2  0  0  3  0  0  0  0  0  0
  187.8010  176.6650  137.9520 S   0  0  0  0  0  0  0  0  0  0  0  0
  196.5370  175.2020  136.3650 C   0  0  0  0  0  0  0  0  0  0  0  0
  192.2350  174.3360  136.2200 C   0  0  0  0  0  0  0  0  0  0  0  0
  194.3770  174.6910  137.5070 C   0  0  1  0  0  3  0  0  0  0  0  0
  194.6710  176.6510  136.1050 O   0  0  0  0  0  1  0  0  0  0  0  0
  197.6630  175.4850  136.8490 O   0  0  0  0  0  0  0  0  0  0  0  0
  195.2600  173.9980  134.5940 C   0  0  0  0  0  2  0  0  0  0  0  0
  190.3200  177.5210  138.5920 C   0  0  2  0  0  3  0  0  0  0  0  0
  190.4340  177.9160  141.8450 C   0  0  0  0  0  2  0  0  0  0  0  0
  193.4400  175.1850  138.6090 C   0  0  0  0  0  2  0  0  0  0  0  0
  194.3570  173.1760  135.5010 C   0  0  0  0  0  2  0  0  0  0  0  0
  191.4610  176.6570  139.1710 C   0  0  1  0  0  3  0  0  0  0  0  0
  187.9710  178.1760  138.9260 C   0  0  0  0  0  2  0  0  0  0  0  0
  193.6340  174.0560  136.4150 N   0  0  0  0  0  0  0  0  0  0  0  0
  196.4710  174.3430  135.2610 O   0  0  0  0  0  0  0  0  0  0  0  0
  189.2920  177.4010  140.9740 C   0  0  2  0  0  3  0  0  0  0  0  0
  191.6300  175.5880  136.8300 C   0  0  2  0  0  3  0  0  0  0  0  0
  195.3160  175.7910  136.9990 C   0  0  2  0  0  3  0  0  0  0  0  0
  192.3890  176.1540  138.0570 C   0  0  2  0  0  3  0  0  0  0  0  0
  189.9920  173.6760  135.3080 C   0  0  0  0  0  2  0  0  0  0  0  0
  191.7320  177.1670  141.5870 C   0  0  0  0  0  2  0  0  0  0  0  0
  191.4820  173.5200  135.4640 C   0  0  0  0  0  3  0  0  0  0  0  0
  192.2650  177.4470  140.1930 C   0  0  0  0  0  2  0  0  0  0  0  0
  189.3290  178.1280  139.6100 C   0  0  1  0  0  3  0  0  0  0  0  0
  189.5060  175.0740  135.6780 C   0  0  0  0  0  2  0  0  0  0  0  0
  189.5380  176.8400  137.4530 C   0  0  1  0  0  3  0  0  0  0  0  0
  187.9870  177.6470  141.7260 C   0  0  0  0  0  2  0  0  0  0  0  0
  187.9800  176.8730  143.0330 C   0  0  0  0  0  2  0  0  0  0  0  0
  186.6220  177.8540  146.3190 C   0  0  0  0  0  2  0  0  0  0  0  0
  189.0650  177.6330  145.4440 S   0  0  0  0  0  0  0  0  0  0  0  0
  187.7490  177.8150  144.1990 C   0  0  2  0  0  3  0  0  0  0  0  0
  187.9110  177.3510  146.7590 N   0  0  0  0  0  2  0  0  0  0  0  0
  186.4460  177.4780  144.8720 C   0  0  0  0  0  2  0  0  0  0  0  0
  1 26  1  6  0  0  0
  1 27  1  0  0  0  0
  2 14  1  0  0  0  0
  3  7  2  0  0  0  0
  3 19  1  0  0  0  0
  4 15  1  0  0  0  0
  4 18  1  0  0  0  0
  5 11  1  1  0  0  0
  6 19  1  0  0  0  0
  8 16  1  0  0  0  0
  8 12  1  0  0  0  0
  9 13  1  0  0  0  0
  9 25  1  0  0  0  0
 12 15  1  0  0  0  0
 13 24  1  0  0  0  0
 14 25  1  0  0  0  0
 15  5  1  0  0  0  0
 16  3  1  0  0  0  0
 17 28  1  0  0  0  0
 17 10  1  0  0  0  0
 18  1  1  0  0  0  0
 18 20  1  0  0  0  0
 19  5  1  0  0  0  0
 20 11  1  0  0  0  0
 20 13  1  0  0  0  0
 21 23  1  0  0  0  0
 21 26  1  0  0  0  0
 22 10  1  0  0  0  0
 23  4  2  0  0  0  0
 24 22  1  0  0  0  0
 25 17  1  0  0  0  0
 27  2  1  0  0  0  0
 27  9  1  0  0  0  0
 28 29  1  0  0  0  0
 29 32  1  0  0  0  0
 30 33  1  0  0  0  0
 31 33  1  0  0  0  0
 32 34  1  0  0  0  0
 32 31  1  0  0  0  0
 34 30  1  0  0  0  0
M  END
>  <MODEL>
4

>  <REMARK>
 VINA RESULT:      -7.2      7.799     10.772
  Name = 
  3 active torsions:
  status: ('A' for Active; 'I' for Inactive)
    1  A    between atoms: C_17  and  C_28
    2  A    between atoms: C_28  and  C_29
    3  A    between atoms: C_29  and  C_32
                            x       y       z     vdW  Elec       q    Type
                         _______ _______ _______ _____ _____    ______ ____

>  <TORSDO>
F 3

$$$$
=
 OpenBabel11122412083D

 34 40  0  0  1  0  0  0  0  0999 V2000
  187.2110  175.4860  137.0880 C   0  0  2  0  0  3  0  0  0  0  0  0
  184.8530  176.7460  137.7560 S   0  0  0  0  0  0  0  0  0  0  0  0
  193.6410  175.3340  136.4310 C   0  0  0  0  0  0  0  0  0  0  0  0
  189.3830  174.2690  136.5610 C   0  0  0  0  0  0  0  0  0  0  0  0
  191.5120  175.0150  137.6940 C   0  0  1  0  0  3  0  0  0  0  0  0
  191.7080  176.5950  135.8630 O   0  0  0  0  0  1  0  0  0  0  0  0
  194.7550  175.7730  136.8170 O   0  0  0  0  0  0  0  0  0  0  0  0
  192.4140  173.6880  135.0160 C   0  0  0  0  0  2  0  0  0  0  0  0
  187.3320  177.8390  138.1370 C   0  0  2  0  0  3  0  0  0  0  0  0
  187.4410  179.0020  141.2000 C   0  0  0  0  0  2  0  0  0  0  0  0
  190.5570  175.7150  138.6610 C   0  0  0  0  0  2  0  0  0  0  0  0
  191.5540  173.0660  136.1070 C   0  0  0  0  0  2  0  0  0  0  0  0
  188.5140  177.1890  138.8860 C   0  0  1  0  0  3  0  0  0  0  0  0
  184.9560  178.4510  138.3400 C   0  0  0  0  0  2  0  0  0  0  0  0
  190.7950  174.1060  136.7950 N   0  0  0  0  0  0  0  0  0  0  0  0
  193.6100  174.2350  135.5640 O   0  0  0  0  0  0  0  0  0  0  0  0
  186.3200  178.2450  140.4940 C   0  0  2  0  0  3  0  0  0  0  0  0
  188.7230  175.6020  136.8650 C   0  0  2  0  0  3  0  0  0  0  0  0
  192.3970  176.0030  136.9260 C   0  0  2  0  0  3  0  0  0  0  0  0
  189.4600  176.4770  137.9100 C   0  0  2  0  0  3  0  0  0  0  0  0
  187.1700  173.3120  135.8650 C   0  0  0  0  0  2  0  0  0  0  0  0
  188.7710  178.2720  141.1080 C   0  0  0  0  0  2  0  0  0  0  0  0
  188.6650  173.2650  136.0320 C   0  0  0  0  0  3  0  0  0  0  0  0
  189.2850  178.2350  139.6800 C   0  0  0  0  0  2  0  0  0  0  0  0
  186.3180  178.6270  138.9960 C   0  0  1  0  0  3  0  0  0  0  0  0
  186.6200  174.7360  135.9000 C   0  0  0  0  0  2  0  0  0  0  0  0
  186.5770  176.8730  137.2040 C   0  0  1  0  0  3  0  0  0  0  0  0
  185.0080  178.6040  141.1860 C   0  0  0  0  0  2  0  0  0  0  0  0
  185.2840  179.2890  142.5130 C   0  0  0  0  0  2  0  0  0  0  0  0
  185.6420  177.9640  145.9370 C   0  0  0  0  0  2  0  0  0  0  0  0
  183.6120  179.0030  144.6780 S   0  0  0  0  0  0  0  0  0  0  0  0
  184.9740  178.3490  143.6630 C   0  0  2  0  0  3  0  0  0  0  0  0
  184.5520  178.8930  146.1770 N   0  0  0  0  0  2  0  0  0  0  0  0
  186.1790  178.2260  144.5550 C   0  0  0  0  0  2  0  0  0  0  0  0
  1 26  1  6  0  0  0
  1 27  1  0  0  0  0
  2 14  1  0  0  0  0
  3  7  2  0  0  0  0
  3 19  1  0  0  0  0
  4 15  1  0  0  0  0
  4 18  1  0  0  0  0
  5 11  1  6  0  0  0
  6 19  1  0  0  0  0
  8 16  1  0  0  0  0
  8 12  1  0  0  0  0
  9 13  1  0  0  0  0
  9 25  1  0  0  0  0
 12 15  1  0  0  0  0
 13 24  1  0  0  0  0
 14 25  1  0  0  0  0
 15  5  1  0  0  0  0
 16  3  1  0  0  0  0
 17 28  1  0  0  0  0
 17 10  1  0  0  0  0
 18  1  1  0  0  0  0
 18 20  1  0  0  0  0
 19  5  1  0  0  0  0
 20 11  1  0  0  0  0
 20 13  1  0  0  0  0
 21 26  1  0  0  0  0
 21 23  1  0  0  0  0
 22 10  1  0  0  0  0
 23  4  2  0  0  0  0
 24 22  1  0  0  0  0
 25 17  1  0  0  0  0
 27  2  1  0  0  0  0
 27  9  1  0  0  0  0
 28 29  1  0  0  0  0
 29 32  1  0  0  0  0
 30 33  1  0  0  0  0
 31 33  1  0  0  0  0
 32 34  1  0  0  0  0
 32 31  1  0  0  0  0
 34 30  1  0  0  0  0
M  END
>  <MODEL>
5

>  <REMARK>
 VINA RESULT:      -7.2      6.422      9.164
  Name = 
  3 active torsions:
  status: ('A' for Active; 'I' for Inactive)
    1  A    between atoms: C_17  and  C_28
    2  A    between atoms: C_28  and  C_29
    3  A    between atoms: C_29  and  C_32
                            x       y       z     vdW  Elec       q    Type
                         _______ _______ _______ _____ _____    ______ ____

>  <TORSDO>
F 3

$$$$
=
 OpenBabel11122412083D

 34 40  0  0  1  0  0  0  0  0999 V2000
  184.2690  178.8060  144.0400 C   0  0  2  0  0  3  0  0  0  0  0  0
  181.6660  179.2640  143.2560 S   0  0  0  0  0  0  0  0  0  0  0  0
  190.1700  176.3210  143.1490 C   0  0  0  0  0  0  0  0  0  0  0  0
  186.6930  178.4810  144.7400 C   0  0  0  0  0  0  0  0  0  0  0  0
  188.4430  178.1140  142.9580 C   0  0  1  0  0  3  0  0  0  0  0  0
  187.8590  175.7650  143.1360 O   0  0  0  0  0  1  0  0  0  0  0  0
  191.0500  175.9520  142.3290 O   0  0  0  0  0  0  0  0  0  0  0  0
  189.5760  176.7570  145.5310 C   0  0  0  0  0  2  0  0  0  0  0  0
  183.5420  178.0320  141.6900 C   0  0  2  0  0  3  0  0  0  0  0  0
  183.4310  179.4320  138.7270 C   0  0  0  0  0  2  0  0  0  0  0  0
  187.3710  178.6730  142.0220 C   0  0  0  0  0  2  0  0  0  0  0  0
  189.1180  178.2000  145.3780 C   0  0  0  0  0  2  0  0  0  0  0  0
  184.9400  178.5800  141.3330 C   0  0  1  0  0  3  0  0  0  0  0  0
  181.1400  178.5740  141.6720 C   0  0  0  0  0  2  0  0  0  0  0  0
  188.0700  178.2850  144.3650 N   0  0  0  0  0  0  0  0  0  0  0  0
  190.5030  176.4080  144.5060 O   0  0  0  0  0  0  0  0  0  0  0  0
  182.6430  179.7760  139.9870 C   0  0  2  0  0  3  0  0  0  0  0  0
  185.5910  178.0770  143.7760 C   0  0  2  0  0  3  0  0  0  0  0  0
  188.8070  176.6610  142.6320 C   0  0  2  0  0  3  0  0  0  0  0  0
  186.0080  178.0250  142.2850 C   0  0  2  0  0  3  0  0  0  0  0  0
  184.9830  179.3180  146.3740 C   0  0  0  0  0  2  0  0  0  0  0  0
  184.9290  179.3870  138.9820 C   0  0  0  0  0  2  0  0  0  0  0  0
  186.3860  178.9730  145.9510 C   0  0  0  0  0  3  0  0  0  0  0  0
  185.3000  178.2310  139.8950 C   0  0  0  0  0  2  0  0  0  0  0  0
  182.3720  178.4780  140.7840 C   0  0  1  0  0  3  0  0  0  0  0  0
  183.9250  178.6310  145.5150 C   0  0  0  0  0  2  0  0  0  0  0  0
  183.1540  178.2270  143.1680 C   0  0  1  0  0  3  0  0  0  0  0  0
  181.3550  180.4710  139.5560 C   0  0  0  0  0  2  0  0  0  0  0  0
  181.6170  181.3660  138.3570 C   0  0  0  0  0  2  0  0  0  0  0  0
  179.6120  180.5030  135.3840 C   0  0  0  0  0  2  0  0  0  0  0  0
  179.2030  180.1200  137.9270 S   0  0  0  0  0  0  0  0  0  0  0  0
  180.3930  181.4160  137.4630 C   0  0  2  0  0  3  0  0  0  0  0  0
  179.1260  179.4690  136.2800 N   0  0  0  0  0  2  0  0  0  0  0  0
  180.7980  181.1630  136.0360 C   0  0  0  0  0  2  0  0  0  0  0  0
  1 26  1  1  0  0  0
  3 16  1  0  0  0  0
  4 23  2  0  0  0  0
  5 11  1  6  0  0  0
  5 15  1  0  0  0  0
  7  3  2  0  0  0  0
  9 27  1  0  0  0  0
 10 22  1  0  0  0  0
 10 17  1  0  0  0  0
 11 20  1  0  0  0  0
 12  8  1  0  0  0  0
 13  9  1  0  0  0  0
 13 20  1  0  0  0  0
 14  2  1  0  0  0  0
 15  4  1  0  0  0  0
 15 12  1  0  0  0  0
 16  8  1  0  0  0  0
 17 25  1  0  0  0  0
 18  1  1  0  0  0  0
 18  4  1  0  0  0  0
 19  5  1  0  0  0  0
 19  6  1  0  0  0  0
 19  3  1  0  0  0  0
 20 18  1  0  0  0  0
 22 24  1  0  0  0  0
 23 21  1  0  0  0  0
 24 13  1  0  0  0  0
 25 14  1  0  0  0  0
 25  9  1  0  0  0  0
 26 21  1  0  0  0  0
 27  2  1  0  0  0  0
 27  1  1  0  0  0  0
 28 17  1  0  0  0  0
 29 28  1  0  0  0  0
 30 34  1  0  0  0  0
 30 33  1  0  0  0  0
 32 31  1  0  0  0  0
 32 29  1  0  0  0  0
 33 31  1  0  0  0  0
 34 32  1  0  0  0  0
M  END
>  <MODEL>
6

>  <REMARK>
 VINA RESULT:      -6.9      3.924      9.012
  Name = 
  3 active torsions:
  status: ('A' for Active; 'I' for Inactive)
    1  A    between atoms: C_17  and  C_28
    2  A    between atoms: C_28  and  C_29
    3  A    between atoms: C_29  and  C_32
                            x       y       z     vdW  Elec       q    Type
                         _______ _______ _______ _____ _____    ______ ____

>  <TORSDO>
F 3

$$$$
=
 OpenBabel11122412083D

 34 40  0  0  1  0  0  0  0  0999 V2000
  185.9590  178.3140  141.4640 C   0  0  2  0  0  3  0  0  0  0  0  0
  188.6660  177.8620  141.7230 S   0  0  0  0  0  0  0  0  0  0  0  0
  180.7590  180.1990  138.1180 C   0  0  0  0  0  0  0  0  0  0  0  0
  183.4470  178.6290  141.2150 C   0  0  0  0  0  0  0  0  0  0  0  0
  182.4200  178.5130  138.9120 C   0  0  1  0  0  3  0  0  0  0  0  0
  182.9410  180.8790  138.7680 O   0  0  0  0  0  1  0  0  0  0  0  0
  180.2190  180.3370  136.9890 O   0  0  0  0  0  0  0  0  0  0  0  0
  180.4920  180.3020  140.5950 C   0  0  0  0  0  2  0  0  0  0  0  0
  187.4600  178.6280  139.3900 C   0  0  2  0  0  3  0  0  0  0  0  0
  188.5610  176.6560  137.0130 C   0  0  0  0  0  2  0  0  0  0  0  0
  183.7400  177.8390  138.5370 C   0  0  0  0  0  2  0  0  0  0  0  0
  180.9540  178.8880  140.9190 C   0  0  0  0  0  2  0  0  0  0  0  0
  186.2610  177.9350  138.7070 C   0  0  1  0  0  3  0  0  0  0  0  0
  189.7130  178.2400  140.3030 C   0  0  0  0  0  2  0  0  0  0  0  0
  182.2850  178.6600  140.3640 N   0  0  0  0  0  0  0  0  0  0  0  0
  179.9790  180.3740  139.2670 O   0  0  0  0  0  0  0  0  0  0  0  0
  188.8630  176.6280  138.5090 C   0  0  2  0  0  3  0  0  0  0  0  0
  184.8180  178.8910  140.6180 C   0  0  2  0  0  3  0  0  0  0  0  0
  182.2110  179.8430  138.1780 C   0  0  2  0  0  3  0  0  0  0  0  0
  184.9390  178.6080  139.1000 C   0  0  2  0  0  3  0  0  0  0  0  0
  184.4790  178.2530  143.4710 C   0  0  0  0  0  2  0  0  0  0  0  0
  187.0670  176.6620  136.7310 C   0  0  0  0  0  2  0  0  0  0  0  0
  183.3120  178.4170  142.5340 C   0  0  0  0  0  3  0  0  0  0  0  0
  186.4210  177.9560  137.1940 C   0  0  0  0  0  2  0  0  0  0  0  0
  188.8620  178.0760  139.0510 C   0  0  1  0  0  3  0  0  0  0  0  0
  185.7770  178.8100  142.8930 C   0  0  0  0  0  2  0  0  0  0  0  0
  187.3140  178.7660  140.9170 C   0  0  1  0  0  3  0  0  0  0  0  0
  190.2100  175.9380  138.6980 C   0  0  0  0  0  2  0  0  0  0  0  0
  190.6130  175.2120  137.4260 C   0  0  0  0  0  2  0  0  0  0  0  0
  193.9960  175.5530  135.9960 C   0  0  0  0  0  2  0  0  0  0  0  0
  192.9670  176.3780  138.2420 S   0  0  0  0  0  0  0  0  0  0  0  0
  192.1160  175.0130  137.3890 C   0  0  2  0  0  3  0  0  0  0  0  0
  194.0010  176.7300  136.8460 N   0  0  0  0  0  2  0  0  0  0  0  0
  192.5920  175.0110  135.9620 C   0  0  0  0  0  2  0  0  0  0  0  0
  1 26  1  1  0  0  0
  3 19  1  0  0  0  0
  3 16  1  0  0  0  0
  4 23  2  0  0  0  0
  5 11  1  1  0  0  0
  5 15  1  0  0  0  0
  7  3  2  0  0  0  0
  8 12  1  0  0  0  0
  9 27  1  0  0  0  0
 10 17  1  0  0  0  0
 11 20  1  0  0  0  0
 13 20  1  0  0  0  0
 13  9  1  0  0  0  0
 14  2  1  0  0  0  0
 15 12  1  0  0  0  0
 15  4  1  0  0  0  0
 16  8  1  0  0  0  0
 17 28  1  0  0  0  0
 17 25  1  0  0  0  0
 18  4  1  0  0  0  0
 18  1  1  0  0  0  0
 19  6  1  0  0  0  0
 19  5  1  0  0  0  0
 20 18  1  0  0  0  0
 22 10  1  0  0  0  0
 22 24  1  0  0  0  0
 23 21  1  0  0  0  0
 24 13  1  0  0  0  0
 25  9  1  0  0  0  0
 25 14  1  0  0  0  0
 26 21  1  0  0  0  0
 27  1  1  0  0  0  0
 27  2  1  0  0  0  0
 29 28  1  0  0  0  0
 30 33  1  0  0  0  0
 32 29  1  0  0  0  0
 32 31  1  0  0  0  0
 33 31  1  0  0  0  0
 34 30  1  0  0  0  0
 34 32  1  0  0  0  0
M  END
>  <MODEL>
7

>  <REMARK>
 VINA RESULT:      -6.9      4.105      5.541
  Name = 
  3 active torsions:
  status: ('A' for Active; 'I' for Inactive)
    1  A    between atoms: C_17  and  C_28
    2  A    between atoms: C_28  and  C_29
    3  A    between atoms: C_29  and  C_32
                            x       y       z     vdW  Elec       q    Type
                         _______ _______ _______ _____ _____    ______ ____

>  <TORSDO>
F 3

$$$$
=
 OpenBabel11122412083D

 34 40  0  0  1  0  0  0  0  0999 V2000
  188.7760  177.4900  140.7740 C   0  0  2  0  0  3  0  0  0  0  0  0
  190.2000  177.3310  138.4190 S   0  0  0  0  0  0  0  0  0  0  0  0
  183.8120  179.5980  144.3390 C   0  0  0  0  0  0  0  0  0  0  0  0
  187.4270  177.5410  142.9310 C   0  0  0  0  0  0  0  0  0  0  0  0
  184.9440  177.9790  142.8120 C   0  0  1  0  0  3  0  0  0  0  0  0
  185.5470  180.3290  142.8890 O   0  0  0  0  0  1  0  0  0  0  0  0
  182.6170  179.9920  144.3610 O   0  0  0  0  0  0  0  0  0  0  0  0
  185.8230  178.9310  145.6530 C   0  0  0  0  0  2  0  0  0  0  0  0
  187.7830  178.5900  138.6640 C   0  0  2  0  0  3  0  0  0  0  0  0
  185.8780  177.5640  136.2000 C   0  0  0  0  0  2  0  0  0  0  0  0
  185.1180  177.6200  141.3360 C   0  0  0  0  0  2  0  0  0  0  0  0
  186.0360  177.5560  145.0360 C   0  0  0  0  0  2  0  0  0  0  0  0
  186.4870  177.9820  139.2410 C   0  0  1  0  0  3  0  0  0  0  0  0
  189.5610  178.2420  136.9970 C   0  0  0  0  0  2  0  0  0  0  0  0
  186.1510  177.6730  143.5850 N   0  0  0  0  0  0  0  0  0  0  0  0
  184.4580  179.3260  145.5510 O   0  0  0  0  0  0  0  0  0  0  0  0
  187.2960  177.1350  136.5680 C   0  0  2  0  0  3  0  0  0  0  0  0
  187.6250  178.1400  141.5500 C   0  0  2  0  0  3  0  0  0  0  0  0
  184.4850  179.4280  143.0130 C   0  0  2  0  0  3  0  0  0  0  0  0
  186.3270  178.3360  140.7260 C   0  0  2  0  0  3  0  0  0  0  0  0
  189.7730  176.6520  142.9010 C   0  0  0  0  0  2  0  0  0  0  0  0
  184.9250  177.4620  137.3800 C   0  0  0  0  0  2  0  0  0  0  0  0
  188.4480  176.9350  143.5580 C   0  0  0  0  0  3  0  0  0  0  0  0
  185.2730  178.4690  138.4620 C   0  0  0  0  0  2  0  0  0  0  0  0
  188.0520  178.3470  137.1620 C   0  0  1  0  0  3  0  0  0  0  0  0
  190.0120  177.5160  141.6660 C   0  0  0  0  0  2  0  0  0  0  0  0
  189.0470  178.2530  139.4770 C   0  0  1  0  0  3  0  0  0  0  0  0
  187.9620  176.5980  135.3050 C   0  0  0  0  0  2  0  0  0  0  0  0
  187.5050  175.1760  135.0340 C   0  0  0  0  0  2  0  0  0  0  0  0
  190.8710  174.1560  136.1460 C   0  0  0  0  0  2  0  0  0  0  0  0
  188.4970  173.2760  136.7580 S   0  0  0  0  0  0  0  0  0  0  0  0
  188.6620  174.2110  135.2040 C   0  0  2  0  0  3  0  0  0  0  0  0
  190.1190  173.7280  137.3120 N   0  0  0  0  0  2  0  0  0  0  0  0
  189.9550  174.9780  135.2780 C   0  0  0  0  0  2  0  0  0  0  0  0
  1 18  1  0  0  0  0
  1 26  1  1  0  0  0
  2 27  1  0  0  0  0
  3  7  2  0  0  0  0
  3 16  1  0  0  0  0
  4 23  2  0  0  0  0
  4 15  1  0  0  0  0
  5 11  1  6  0  0  0
  5 19  1  0  0  0  0
  5 15  1  0  0  0  0
  6 19  1  0  0  0  0
  9 13  1  0  0  0  0
  9 27  1  0  0  0  0
 10 17  1  0  0  0  0
 10 22  1  0  0  0  0
 12  8  1  0  0  0  0
 13 20  1  0  0  0  0
 14 25  1  0  0  0  0
 14  2  1  0  0  0  0
 15 12  1  0  0  0  0
 16  8  1  0  0  0  0
 17 25  1  0  0  0  0
 18  4  1  0  0  0  0
 19  3  1  0  0  0  0
 20 11  1  0  0  0  0
 20 18  1  0  0  0  0
 21 23  1  0  0  0  0
 22 24  1  0  0  0  0
 24 13  1  0  0  0  0
 25  9  1  0  0  0  0
 26 21  1  0  0  0  0
 27  1  1  0  0  0  0
 28 17  1  0  0  0  0
 29 32  1  0  0  0  0
 29 28  1  0  0  0  0
 30 33  1  0  0  0  0
 31 33  1  0  0  0  0
 32 34  1  0  0  0  0
 32 31  1  0  0  0  0
 34 30  1  0  0  0  0
M  END
>  <MODEL>
8

>  <REMARK>
 VINA RESULT:      -6.6      4.827      8.016
  Name = 
  3 active torsions:
  status: ('A' for Active; 'I' for Inactive)
    1  A    between atoms: C_17  and  C_28
    2  A    between atoms: C_28  and  C_29
    3  A    between atoms: C_29  and  C_32
                            x       y       z     vdW  Elec       q    Type
                         _______ _______ _______ _____ _____    ______ ____

>  <TORSDO>
F 3

$$$$
=
 OpenBabel11122412083D

 34 40  0  0  1  0  0  0  0  0999 V2000
  187.9650  177.6140  140.4530 C   0  0  2  0  0  3  0  0  0  0  0  0
  186.1370  178.4520  138.5680 S   0  0  0  0  0  0  0  0  0  0  0  0
  190.4020  177.5490  146.4410 C   0  0  0  0  0  0  0  0  0  0  0  0
  189.6030  176.7500  142.1980 C   0  0  0  0  0  0  0  0  0  0  0  0
  188.9060  176.7180  144.6230 C   0  0  1  0  0  3  0  0  0  0  0  0
  189.7190  179.0040  144.6900 O   0  0  0  0  0  1  0  0  0  0  0  0
  190.1850  177.6810  147.6730 O   0  0  0  0  0  0  0  0  0  0  0  0
  192.0210  176.9150  144.6540 C   0  0  0  0  0  2  0  0  0  0  0  0
  185.9960  179.0900  141.2250 C   0  0  2  0  0  3  0  0  0  0  0  0
  182.9250  178.5140  142.2190 C   0  0  0  0  0  2  0  0  0  0  0  0
  187.4960  176.8640  144.0490 C   0  0  0  0  0  2  0  0  0  0  0  0
  191.1730  175.8580  143.9610 C   0  0  0  0  0  2  0  0  0  0  0  0
  186.0210  178.0990  142.4080 C   0  0  1  0  0  3  0  0  0  0  0  0
  184.8610  179.6110  139.1040 C   0  0  0  0  0  2  0  0  0  0  0  0
  189.8860  176.4290  143.5730 N   0  0  0  0  0  0  0  0  0  0  0  0
  191.6410  177.0520  146.0210 O   0  0  0  0  0  0  0  0  0  0  0  0
  183.5590  178.2740  140.8520 C   0  0  2  0  0  3  0  0  0  0  0  0
  188.5220  177.7650  141.8730 C   0  0  2  0  0  3  0  0  0  0  0  0
  189.3170  177.9220  145.4790 C   0  0  2  0  0  3  0  0  0  0  0  0
  187.4420  177.9480  142.9690 C   0  0  2  0  0  3  0  0  0  0  0  0
  190.0150  176.3790  139.7500 C   0  0  0  0  0  2  0  0  0  0  0  0
  183.7300  177.8780  143.3420 C   0  0  0  0  0  2  0  0  0  0  0  0
  190.3230  176.1890  141.2120 C   0  0  0  0  0  3  0  0  0  0  0  0
  185.0780  178.5570  143.5110 C   0  0  0  0  0  2  0  0  0  0  0  0
  184.6170  179.3690  140.5860 C   0  0  1  0  0  3  0  0  0  0  0  0
  189.1450  177.6050  139.4880 C   0  0  0  0  0  2  0  0  0  0  0  0
  187.0220  178.7710  140.1210 C   0  0  1  0  0  3  0  0  0  0  0  0
  182.4420  178.2830  139.8140 C   0  0  0  0  0  2  0  0  0  0  0  0
  181.0870  178.3150  140.4990 C   0  0  0  0  0  2  0  0  0  0  0  0
  179.6300  181.6270  139.7830 C   0  0  0  0  0  2  0  0  0  0  0  0
  180.9560  179.9530  138.2930 S   0  0  0  0  0  0  0  0  0  0  0  0
  180.1620  179.2860  139.7890 C   0  0  2  0  0  3  0  0  0  0  0  0
  180.6840  181.6340  138.7840 N   0  0  0  0  0  2  0  0  0  0  0  0
  179.8600  180.4500  140.6930 C   0  0  0  0  0  2  0  0  0  0  0  0
  1 26  1  6  0  0  0
  1 18  1  0  0  0  0
  2 14  1  0  0  0  0
  2 27  1  0  0  0  0
  3  7  2  0  0  0  0
  4 15  1  0  0  0  0
  5 11  1  6  0  0  0
  5 19  1  0  0  0  0
  6 19  1  0  0  0  0
  8 16  1  0  0  0  0
  9 13  1  0  0  0  0
 10 22  1  0  0  0  0
 12  8  1  0  0  0  0
 13 20  1  0  0  0  0
 13 24  1  0  0  0  0
 14 25  1  0  0  0  0
 15 12  1  0  0  0  0
 15  5  1  0  0  0  0
 16  3  1  0  0  0  0
 17 10  1  0  0  0  0
 18  4  1  0  0  0  0
 18 20  1  0  0  0  0
 19  3  1  0  0  0  0
 20 11  1  0  0  0  0
 21 23  1  0  0  0  0
 22 24  1  0  0  0  0
 23  4  2  0  0  0  0
 25 17  1  0  0  0  0
 25  9  1  0  0  0  0
 26 21  1  0  0  0  0
 27  1  1  0  0  0  0
 27  9  1  0  0  0  0
 28 29  1  0  0  0  0
 28 17  1  0  0  0  0
 30 34  1  0  0  0  0
 31 33  1  0  0  0  0
 31 32  1  0  0  0  0
 32 29  1  0  0  0  0
 32 34  1  0  0  0  0
 33 30  1  0  0  0  0
M  END
>  <MODEL>
9

>  <REMARK>
 VINA RESULT:      -6.5      4.383      9.645
  Name = 
  3 active torsions:
  status: ('A' for Active; 'I' for Inactive)
    1  A    between atoms: C_17  and  C_28
    2  A    between atoms: C_28  and  C_29
    3  A    between atoms: C_29  and  C_32
                            x       y       z     vdW  Elec       q    Type
                         _______ _______ _______ _____ _____    ______ ____

>  <TORSDO>
F 3

$$$$
