=
 OpenBabel11122411563D

 28 32  0  0  1  0  0  0  0  0999 V2000
  180.4330  178.2750  141.9970 C   0  0  0  0  0  0  0  0  0  0  0  0
  180.6450  180.9450  139.7390 O   0  0  0  0  0  0  0  0  0  0  0  0
  182.0760  173.9500  137.6720 O   0  0  0  0  0  1  0  0  0  0  0  0
  182.7130  178.9420  143.4850 C   0  0  0  0  0  3  0  0  0  0  0  0
  183.4640  175.8790  137.6130 C   0  0  2  0  0  3  0  0  0  0  0  0
  179.1970  177.8900  141.2450 C   0  0  0  0  0  2  0  0  0  0  0  0
  182.6530  181.8210  138.6180 O   0  0  0  0  0  0  0  0  0  0  0  0
  181.7070  180.6590  138.7140 S   0  0  0  0  0  0  0  0  0  0  0  0
  181.1850  179.1390  136.5000 C   0  0  0  0  0  0  0  0  0  0  0  0
  182.6150  179.1920  139.1420 C   0  0  2  0  0  3  0  0  0  0  0  0
  179.3650  174.3050  140.4820 O   0  0  0  0  0  0  0  0  0  0  0  0
  182.5090  176.8160  139.6040 C   0  0  2  0  0  3  0  0  0  0  0  0
  182.0940  178.2870  136.8750 N   0  0  0  0  0  0  0  0  0  0  0  0
  180.9820  180.3740  137.1810 N   0  0  0  0  0  2  0  0  0  0  0  0
  179.5180  175.5430  140.3190 C   0  0  0  0  0  0  0  0  0  0  0  0
  181.6790  178.4070  141.3530 C   0  0  0  0  0  0  0  0  0  0  0  0
  182.0670  175.3380  137.8090 C   0  0  2  0  0  3  0  0  0  0  0  0
  180.3310  178.8040  135.4130 N   0  0  0  0  0  1  0  0  0  0  0  0
  180.2200  176.0370  139.0950 C   0  0  0  0  0  2  0  0  0  0  0  0
  182.8160  178.7320  142.1080 C   0  0  0  0  0  3  0  0  0  0  0  0
  180.3400  178.4820  143.3790 C   0  0  0  0  0  3  0  0  0  0  0  0
  181.4750  178.8190  144.1200 C   0  0  0  0  0  3  0  0  0  0  0  0
  179.0030  176.4470  141.3010 N   0  0  0  0  0  2  0  0  0  0  0  0
  183.5280  177.1010  138.5110 C   0  0  2  0  0  3  0  0  0  0  0  0
  181.6410  175.6980  139.1610 N   0  0  2  0  0  0  0  0  0  0  0  0
  183.1300  178.4630  137.9120 C   0  0  2  0  0  3  0  0  0  0  0  0
  183.7190  176.1730  136.2720 O   0  0  0  0  0  1  0  0  0  0  0  0
  181.7960  178.1480  139.8790 C   0  0  1  0  0  3  0  0  0  0  0  0
  1 21  1  0  0  0  0
  3 17  1  0  0  0  0
  4 22  1  0  0  0  0
  5 27  1  6  0  0  0
  5 17  1  0  0  0  0
  5 24  1  0  0  0  0
  6 23  1  0  0  0  0
  6  1  1  0  0  0  0
  7  8  2  0  0  0  0
  8  2  2  0  0  0  0
  9 13  2  0  0  0  0
  9 14  1  0  0  0  0
 10  8  1  6  0  0  0
 10 28  1  0  0  0  0
 12 28  1  0  0  0  0
 13 26  1  0  0  0  0
 14  8  1  0  0  0  0
 15 11  2  0  0  0  0
 15 23  1  0  0  0  0
 16  1  2  0  0  0  0
 16 20  1  0  0  0  0
 17 25  1  0  0  0  0
 18  9  1  0  0  0  0
 19 25  1  0  0  0  0
 19 15  1  0  0  0  0
 20  4  2  0  0  0  0
 21 22  2  0  0  0  0
 24 12  1  0  0  0  0
 25 12  1  0  0  0  0
 26 24  1  0  0  0  0
 26 10  1  0  0  0  0
 28 16  1  0  0  0  0
M  END
>  <MODEL>
1

>  <REMARK>
 VINA RESULT:      -6.4      0.000      0.000
  Name = 
  0 active torsions:
  status: ('A' for Active; 'I' for Inactive)
                            x       y       z     vdW  Elec       q    Type
                         _______ _______ _______ _____ _____    ______ ____

>  <TORSDO>
F 0

$$$$
=
 OpenBabel11122411563D

 28 32  0  0  1  0  0  0  0  0999 V2000
  185.5620  176.7760  137.4370 C   0  0  0  0  0  0  0  0  0  0  0  0
  183.2340  177.5340  134.9310 O   0  0  0  0  0  0  0  0  0  0  0  0
  181.9080  179.0390  142.0880 O   0  0  0  0  0  1  0  0  0  0  0  0
  185.2360  173.9930  137.3360 C   0  0  0  0  0  3  0  0  0  0  0  0
  180.7070  177.6670  140.5640 C   0  0  2  0  0  3  0  0  0  0  0  0
  185.7850  178.2530  137.5140 C   0  0  0  0  0  2  0  0  0  0  0  0
  181.0030  176.5520  134.5940 O   0  0  0  0  0  0  0  0  0  0  0  0
  181.8410  177.4240  135.4840 S   0  0  0  0  0  0  0  0  0  0  0  0
  180.6800  179.4870  136.8550 C   0  0  0  0  0  0  0  0  0  0  0  0
  181.8670  176.7400  137.1240 C   0  0  2  0  0  3  0  0  0  0  0  0
  185.6790  179.2680  141.0390 O   0  0  0  0  0  0  0  0  0  0  0  0
  182.6820  176.9710  139.3940 C   0  0  2  0  0  3  0  0  0  0  0  0
  180.5620  178.7210  137.9010 N   0  0  0  0  0  0  0  0  0  0  0  0
  181.1300  178.9850  135.6000 N   0  0  0  0  0  2  0  0  0  0  0  0
  185.2560  179.0250  139.8790 C   0  0  0  0  0  0  0  0  0  0  0  0
  184.2860  176.2110  137.6250 C   0  0  0  0  0  0  0  0  0  0  0  0
  181.7930  178.7030  140.7390 C   0  0  2  0  0  3  0  0  0  0  0  0
  180.4030  180.8760  136.9830 N   0  0  0  0  0  1  0  0  0  0  0  0
  183.7960  179.1680  139.5890 C   0  0  0  0  0  2  0  0  0  0  0  0
  184.1340  174.8160  137.5810 C   0  0  0  0  0  3  0  0  0  0  0  0
  186.6610  175.9430  137.1960 C   0  0  0  0  0  3  0  0  0  0  0  0
  186.4990  174.5560  137.1410 C   0  0  0  0  0  3  0  0  0  0  0  0
  186.1830  178.6330  138.8630 N   0  0  0  0  0  2  0  0  0  0  0  0
  181.1670  176.8300  139.3840 C   0  0  2  0  0  3  0  0  0  0  0  0
  183.0440  178.1130  140.2680 N   0  0  2  0  0  0  0  0  0  0  0  0
  180.7160  177.2550  137.9740 C   0  0  2  0  0  3  0  0  0  0  0  0
  179.4580  178.2590  140.3580 O   0  0  0  0  0  1  0  0  0  0  0  0
  183.1080  177.0930  137.9230 C   0  0  1  0  0  3  0  0  0  0  0  0
  1  6  1  0  0  0  0
  1 16  1  0  0  0  0
  2  8  2  0  0  0  0
  4 20  1  0  0  0  0
  5 27  1  6  0  0  0
  5 17  1  0  0  0  0
  6 23  1  0  0  0  0
  7  8  2  0  0  0  0
  8 14  1  0  0  0  0
  9 18  1  0  0  0  0
  9 13  2  0  0  0  0
 10  8  1  6  0  0  0
 10 28  1  0  0  0  0
 10 26  1  0  0  0  0
 12 25  1  0  0  0  0
 13 26  1  0  0  0  0
 14  9  1  0  0  0  0
 15 11  2  0  0  0  0
 16 28  1  0  0  0  0
 17  3  1  0  0  0  0
 19 15  1  0  0  0  0
 19 25  1  0  0  0  0
 20 16  2  0  0  0  0
 21  1  2  0  0  0  0
 22 21  1  0  0  0  0
 22  4  2  0  0  0  0
 23 15  1  0  0  0  0
 24 12  1  0  0  0  0
 24  5  1  0  0  0  0
 25 17  1  0  0  0  0
 26 24  1  0  0  0  0
 28 12  1  0  0  0  0
M  END
>  <MODEL>
2

>  <REMARK>
 VINA RESULT:      -5.5      2.492      5.667
  Name = 
  0 active torsions:
  status: ('A' for Active; 'I' for Inactive)
                            x       y       z     vdW  Elec       q    Type
                         _______ _______ _______ _____ _____    ______ ____

>  <TORSDO>
F 0

$$$$
=
 OpenBabel11122411563D

 28 32  0  0  1  0  0  0  0  0999 V2000
  180.6800  180.5690  138.4820 C   0  0  0  0  0  0  0  0  0  0  0  0
  184.1370  180.5700  139.0520 O   0  0  0  0  0  0  0  0  0  0  0  0
  180.7110  174.8380  135.7860 O   0  0  0  0  0  1  0  0  0  0  0  0
  179.9200  180.2760  141.1640 C   0  0  0  0  0  3  0  0  0  0  0  0
  181.9950  174.9180  137.7840 C   0  0  2  0  0  3  0  0  0  0  0  0
  181.0360  180.7460  137.0390 C   0  0  0  0  0  2  0  0  0  0  0  0
  185.4200  179.1070  140.5590 O   0  0  0  0  0  0  0  0  0  0  0  0
  184.6100  179.1640  139.2950 S   0  0  0  0  0  0  0  0  0  0  0  0
  185.1930  177.4730  137.2250 C   0  0  0  0  0  0  0  0  0  0  0  0
  183.2320  178.0500  139.4280 C   0  0  2  0  0  3  0  0  0  0  0  0
  179.1030  178.3390  135.0560 O   0  0  0  0  0  0  0  0  0  0  0  0
  181.2670  177.1340  138.3460 C   0  0  2  0  0  3  0  0  0  0  0  0
  184.2760  176.6500  137.6450 N   0  0  0  0  0  0  0  0  0  0  0  0
  185.5670  178.6290  137.9710 N   0  0  0  0  0  2  0  0  0  0  0  0
  180.0650  178.7970  135.7260 C   0  0  0  0  0  0  0  0  0  0  0  0
  181.1560  179.4750  139.2310 C   0  0  0  0  0  0  0  0  0  0  0  0
  181.5700  175.6470  136.5310 C   0  0  2  0  0  3  0  0  0  0  0  0
  185.8000  177.2430  135.9600 N   0  0  0  0  0  1  0  0  0  0  0  0
  181.2440  177.9200  136.0040 C   0  0  0  0  0  2  0  0  0  0  0  0
  180.7630  179.3330  140.5710 C   0  0  0  0  0  3  0  0  0  0  0  0
  179.8320  181.5070  139.0830 C   0  0  0  0  0  3  0  0  0  0  0  0
  179.4570  181.3640  140.4210 C   0  0  0  0  0  3  0  0  0  0  0  0
  180.0130  180.1480  136.1910 N   0  0  0  0  0  2  0  0  0  0  0  0
  182.1860  176.0150  138.8150 C   0  0  2  0  0  3  0  0  0  0  0  0
  180.8720  176.8620  136.9430 N   0  0  2  0  0  0  0  0  0  0  0  0
  183.5830  176.6510  138.9480 C   0  0  2  0  0  3  0  0  0  0  0  0
  183.1490  174.1600  137.5740 O   0  0  0  0  0  1  0  0  0  0  0  0
  182.0330  178.4430  138.5840 C   0  0  1  0  0  3  0  0  0  0  0  0
  1 21  2  0  0  0  0
  1 16  1  0  0  0  0
  2  8  2  0  0  0  0
  3 17  1  0  0  0  0
  5 27  1  6  0  0  0
  5 24  1  0  0  0  0
  6  1  1  0  0  0  0
  8  7  2  0  0  0  0
  9 13  2  0  0  0  0
  9 14  1  0  0  0  0
 10  8  1  6  0  0  0
 11 15  2  0  0  0  0
 12 28  1  0  0  0  0
 12 24  1  0  0  0  0
 13 26  1  0  0  0  0
 14  8  1  0  0  0  0
 15 19  1  0  0  0  0
 15 23  1  0  0  0  0
 16 20  2  0  0  0  0
 17 25  1  0  0  0  0
 17  5  1  0  0  0  0
 18  9  1  0  0  0  0
 19 25  1  0  0  0  0
 20  4  1  0  0  0  0
 21 22  1  0  0  0  0
 22  4  2  0  0  0  0
 23  6  1  0  0  0  0
 24 26  1  0  0  0  0
 25 12  1  0  0  0  0
 26 10  1  0  0  0  0
 28 16  1  0  0  0  0
 28 10  1  0  0  0  0
M  END
>  <MODEL>
3

>  <REMARK>
 VINA RESULT:      -5.5      2.490      3.899
  Name = 
  0 active torsions:
  status: ('A' for Active; 'I' for Inactive)
                            x       y       z     vdW  Elec       q    Type
                         _______ _______ _______ _____ _____    ______ ____

>  <TORSDO>
F 0

$$$$
=
 OpenBabel11122411563D

 28 32  0  0  1  0  0  0  0  0999 V2000
  184.5570  177.0360  137.7400 C   0  0  0  0  0  0  0  0  0  0  0  0
  181.9520  178.3520  135.8020 O   0  0  0  0  0  0  0  0  0  0  0  0
  182.1290  179.1630  143.1890 O   0  0  0  0  0  1  0  0  0  0  0  0
  183.8350  174.3430  137.4460 C   0  0  0  0  0  3  0  0  0  0  0  0
  180.5000  178.1310  141.8000 C   0  0  2  0  0  3  0  0  0  0  0  0
  184.9930  178.4570  137.9090 C   0  0  0  0  0  2  0  0  0  0  0  0
  179.5810  177.6900  135.8060 O   0  0  0  0  0  0  0  0  0  0  0  0
  180.6760  178.3460  136.5970 S   0  0  0  0  0  0  0  0  0  0  0  0
  180.0720  180.3590  138.3480 C   0  0  0  0  0  0  0  0  0  0  0  0
  180.8960  177.4780  138.1320 C   0  0  2  0  0  3  0  0  0  0  0  0
  185.6510  179.0610  141.4680 O   0  0  0  0  0  0  0  0  0  0  0  0
  182.1220  177.3450  140.2170 C   0  0  2  0  0  3  0  0  0  0  0  0
  180.0360  179.4970  139.3220 N   0  0  0  0  0  0  0  0  0  0  0  0
  180.2200  179.9570  136.9890 N   0  0  0  0  0  2  0  0  0  0  0  0
  185.0010  179.0070  140.3920 C   0  0  0  0  0  0  0  0  0  0  0  0
  183.2680  176.6090  138.1140 C   0  0  0  0  0  0  0  0  0  0  0  0
  181.7330  179.0030  141.8610 C   0  0  2  0  0  3  0  0  0  0  0  0
  180.0180  181.7480  138.6530 N   0  0  0  0  0  1  0  0  0  0  0  0
  183.5470  179.3560  140.3990 C   0  0  0  0  0  2  0  0  0  0  0  0
  182.9190  175.2570  137.9720 C   0  0  0  0  0  3  0  0  0  0  0  0
  185.4700  176.1110  137.2190 C   0  0  0  0  0  3  0  0  0  0  0  0
  185.1100  174.7700  137.0680 C   0  0  0  0  0  3  0  0  0  0  0  0
  185.6710  178.6270  139.1870 N   0  0  0  0  0  2  0  0  0  0  0  0
  180.6240  177.3880  140.4830 C   0  0  2  0  0  3  0  0  0  0  0  0
  182.7870  178.3260  141.1080 N   0  0  2  0  0  0  0  0  0  0  0  0
  179.9960  178.0250  139.2290 C   0  0  2  0  0  3  0  0  0  0  0  0
  179.3290  178.8880  141.8910 O   0  0  0  0  0  1  0  0  0  0  0  0
  182.2950  177.5850  138.7100 C   0  0  1  0  0  3  0  0  0  0  0  0
  1  6  1  0  0  0  0
  1 16  1  0  0  0  0
  2  8  2  0  0  0  0
  4 20  1  0  0  0  0
  5 17  1  0  0  0  0
  5 27  1  6  0  0  0
  6 23  1  0  0  0  0
  7  8  2  0  0  0  0
  8 14  1  0  0  0  0
  9 18  1  0  0  0  0
  9 13  2  0  0  0  0
 10  8  1  6  0  0  0
 10 28  1  0  0  0  0
 10 26  1  0  0  0  0
 12 24  1  0  0  0  0
 12 25  1  0  0  0  0
 14  9  1  0  0  0  0
 15 19  1  0  0  0  0
 15 11  2  0  0  0  0
 16 28  1  0  0  0  0
 17  3  1  0  0  0  0
 19 25  1  0  0  0  0
 20 16  2  0  0  0  0
 21  1  2  0  0  0  0
 22 21  1  0  0  0  0
 22  4  2  0  0  0  0
 23 15  1  0  0  0  0
 24  5  1  0  0  0  0
 25 17  1  0  0  0  0
 26 13  1  0  0  0  0
 26 24  1  0  0  0  0
 28 12  1  0  0  0  0
M  END
>  <MODEL>
4

>  <REMARK>
 VINA RESULT:      -5.3      2.529      5.503
  Name = 
  0 active torsions:
  status: ('A' for Active; 'I' for Inactive)
                            x       y       z     vdW  Elec       q    Type
                         _______ _______ _______ _____ _____    ______ ____

>  <TORSDO>
F 0

$$$$
=
 OpenBabel11122411563D

 28 32  0  0  1  0  0  0  0  0999 V2000
  180.2920  179.5350  141.3010 C   0  0  0  0  0  0  0  0  0  0  0  0
  179.4140  177.1680  138.8720 O   0  0  0  0  0  0  0  0  0  0  0  0
  186.5120  178.7780  140.3820 O   0  0  0  0  0  1  0  0  0  0  0  0
  179.4570  181.7880  139.8580 C   0  0  0  0  0  3  0  0  0  0  0  0
  185.3000  178.9600  138.3460 C   0  0  2  0  0  3  0  0  0  0  0  0
  180.7330  178.3610  142.1180 C   0  0  0  0  0  2  0  0  0  0  0  0
  179.7720  177.2940  136.4400 O   0  0  0  0  0  0  0  0  0  0  0  0
  180.4440  177.1600  137.7770 S   0  0  0  0  0  0  0  0  0  0  0  0
  182.7600  175.7220  138.0010 C   0  0  0  0  0  0  0  0  0  0  0  0
  181.6000  178.4930  137.9910 C   0  0  2  0  0  3  0  0  0  0  0  0
  184.0820  179.0580  143.4470 O   0  0  0  0  0  0  0  0  0  0  0  0
  183.2430  179.5250  139.4420 C   0  0  2  0  0  3  0  0  0  0  0  0
  183.4490  176.8200  137.8870 N   0  0  0  0  0  0  0  0  0  0  0  0
  181.3460  175.6970  137.8280 N   0  0  0  0  0  2  0  0  0  0  0  0
  183.2060  178.6360  142.6490 C   0  0  0  0  0  0  0  0  0  0  0  0
  180.8180  179.7820  140.0180 C   0  0  0  0  0  0  0  0  0  0  0  0
  185.3140  178.4270  139.7600 C   0  0  2  0  0  3  0  0  0  0  0  0
  183.4300  174.5200  138.3620 N   0  0  0  0  0  1  0  0  0  0  0  0
  183.6320  178.0140  141.3570 C   0  0  0  0  0  2  0  0  0  0  0  0
  180.4000  180.9170  139.3070 C   0  0  0  0  0  3  0  0  0  0  0  0
  179.3510  180.4160  141.8470 C   0  0  0  0  0  3  0  0  0  0  0  0
  178.9310  181.5370  141.1270 C   0  0  0  0  0  3  0  0  0  0  0  0
  181.8240  178.7460  143.0030 N   0  0  0  0  0  2  0  0  0  0  0  0
  183.8390  179.2600  138.0670 C   0  0  2  0  0  3  0  0  0  0  0  0
  184.1910  179.0340  140.4710 N   0  0  2  0  0  0  0  0  0  0  0  0
  182.9760  178.1460  137.4450 C   0  0  2  0  0  3  0  0  0  0  0  0
  185.8510  178.0460  137.4450 O   0  0  0  0  0  1  0  0  0  0  0  0
  181.8560  178.8650  139.4400 C   0  0  1  0  0  3  0  0  0  0  0  0
  1 21  1  0  0  0  0
  1  6  1  0  0  0  0
  4 22  1  0  0  0  0
  5 27  1  6  0  0  0
  5 17  1  0  0  0  0
  6 23  1  0  0  0  0
  7  8  2  0  0  0  0
  8 14  1  0  0  0  0
  8  2  2  0  0  0  0
  9 18  1  0  0  0  0
 10  8  1  1  0  0  0
 10 28  1  0  0  0  0
 12 25  1  0  0  0  0
 13  9  2  0  0  0  0
 14  9  1  0  0  0  0
 15 23  1  0  0  0  0
 15 11  2  0  0  0  0
 16  1  2  0  0  0  0
 17  3  1  0  0  0  0
 17 25  1  0  0  0  0
 19 15  1  0  0  0  0
 20  4  2  0  0  0  0
 20 16  1  0  0  0  0
 22 21  2  0  0  0  0
 24  5  1  0  0  0  0
 24 12  1  0  0  0  0
 25 19  1  0  0  0  0
 26 13  1  0  0  0  0
 26 10  1  0  0  0  0
 26 24  1  0  0  0  0
 28 12  1  0  0  0  0
 28 16  1  0  0  0  0
M  END
>  <MODEL>
5

>  <REMARK>
 VINA RESULT:      -5.0      2.829      4.173
  Name = 
  0 active torsions:
  status: ('A' for Active; 'I' for Inactive)
                            x       y       z     vdW  Elec       q    Type
                         _______ _______ _______ _____ _____    ______ ____

>  <TORSDO>
F 0

$$$$
=
 OpenBabel11122411563D

 28 32  0  0  1  0  0  0  0  0999 V2000
  185.0160  175.6740  136.1290 C   0  0  0  0  0  0  0  0  0  0  0  0
  181.8510  176.6950  135.0260 O   0  0  0  0  0  0  0  0  0  0  0  0
  184.9080  179.4340  141.2240 O   0  0  0  0  0  1  0  0  0  0  0  0
  184.2540  173.0950  136.9210 C   0  0  0  0  0  3  0  0  0  0  0  0
  182.8710  178.2490  140.9150 C   0  0  2  0  0  3  0  0  0  0  0  0
  185.4740  177.0330  135.7020 C   0  0  0  0  0  2  0  0  0  0  0  0
  179.6770  176.3170  136.1150 O   0  0  0  0  0  0  0  0  0  0  0  0
  180.9900  177.0400  136.2090 S   0  0  0  0  0  0  0  0  0  0  0  0
  181.1090  179.5020  137.3950 C   0  0  0  0  0  0  0  0  0  0  0  0
  181.8000  176.5970  137.7280 C   0  0  2  0  0  3  0  0  0  0  0  0
  187.4720  178.4950  138.4100 O   0  0  0  0  0  0  0  0  0  0  0  0
  183.7460  176.8980  139.1380 C   0  0  2  0  0  3  0  0  0  0  0  0
  181.4630  178.9410  138.5150 N   0  0  0  0  0  0  0  0  0  0  0  0
  180.7140  178.7360  136.2600 N   0  0  0  0  0  2  0  0  0  0  0  0
  186.4530  178.2250  137.7250 C   0  0  0  0  0  0  0  0  0  0  0  0
  183.9800  175.5050  137.0680 C   0  0  0  0  0  0  0  0  0  0  0  0
  184.0230  178.9670  140.2510 C   0  0  2  0  0  3  0  0  0  0  0  0
  181.1690  180.9190  137.2830 N   0  0  0  0  0  1  0  0  0  0  0  0
  185.1150  178.7170  138.1790 C   0  0  0  0  0  2  0  0  0  0  0  0
  183.6120  174.2100  137.4650 C   0  0  0  0  0  3  0  0  0  0  0  0
  185.6580  174.5510  135.5930 C   0  0  0  0  0  3  0  0  0  0  0  0
  185.2760  173.2650  135.9840 C   0  0  0  0  0  3  0  0  0  0  0  0
  186.5990  177.4660  136.5210 N   0  0  0  0  0  2  0  0  0  0  0  0
  182.4730  177.1710  139.9240 C   0  0  2  0  0  3  0  0  0  0  0  0
  184.7020  178.0040  139.3870 N   0  0  2  0  0  0  0  0  0  0  0  0
  181.3990  177.5110  138.8740 C   0  0  2  0  0  3  0  0  0  0  0  0
  181.8250  179.1240  141.2180 O   0  0  0  0  0  1  0  0  0  0  0  0
  183.3130  176.7040  137.6770 C   0  0  1  0  0  3  0  0  0  0  0  0
  1 16  1  0  0  0  0
  2  8  2  0  0  0  0
  4 20  1  0  0  0  0
  5 27  1  6  0  0  0
  6  1  1  0  0  0  0
  6 23  1  0  0  0  0
  7  8  2  0  0  0  0
  8 14  1  0  0  0  0
  9 13  2  0  0  0  0
 10  8  1  6  0  0  0
 10 26  1  0  0  0  0
 12 25  1  0  0  0  0
 12 24  1  0  0  0  0
 13 26  1  0  0  0  0
 14  9  1  0  0  0  0
 15 19  1  0  0  0  0
 15 11  2  0  0  0  0
 16 20  2  0  0  0  0
 16 28  1  0  0  0  0
 17  5  1  0  0  0  0
 17  3  1  0  0  0  0
 18  9  1  0  0  0  0
 19 25  1  0  0  0  0
 21 22  1  0  0  0  0
 21  1  2  0  0  0  0
 22  4  2  0  0  0  0
 23 15  1  0  0  0  0
 24  5  1  0  0  0  0
 25 17  1  0  0  0  0
 26 24  1  0  0  0  0
 28 10  1  0  0  0  0
 28 12  1  0  0  0  0
M  END
>  <MODEL>
6

>  <REMARK>
 VINA RESULT:      -4.9      2.679      6.154
  Name = 
  0 active torsions:
  status: ('A' for Active; 'I' for Inactive)
                            x       y       z     vdW  Elec       q    Type
                         _______ _______ _______ _____ _____    ______ ____

>  <TORSDO>
F 0

$$$$
=
 OpenBabel11122411563D

 28 32  0  0  1  0  0  0  0  0999 V2000
  182.4190  178.2860  141.7860 C   0  0  0  0  0  0  0  0  0  0  0  0
  181.2480  175.1190  140.8540 O   0  0  0  0  0  0  0  0  0  0  0  0
  181.2510  180.8410  136.1100 O   0  0  0  0  0  1  0  0  0  0  0  0
  180.2870  178.9190  143.4920 C   0  0  0  0  0  3  0  0  0  0  0  0
  179.4480  179.5130  136.9070 C   0  0  2  0  0  3  0  0  0  0  0  0
  183.5880  177.9860  140.9020 C   0  0  0  0  0  2  0  0  0  0  0  0
  178.9470  174.4710  140.2670 O   0  0  0  0  0  0  0  0  0  0  0  0
  180.1480  175.2640  139.8390 S   0  0  0  0  0  0  0  0  0  0  0  0
  180.6930  175.5840  137.1770 C   0  0  0  0  0  0  0  0  0  0  0  0
  179.6900  176.9700  139.6470 C   0  0  2  0  0  3  0  0  0  0  0  0
  184.1760  180.8770  138.7210 O   0  0  0  0  0  0  0  0  0  0  0  0
  180.4290  179.2050  139.0740 C   0  0  2  0  0  3  0  0  0  0  0  0
  180.0780  176.7310  137.1940 N   0  0  0  0  0  0  0  0  0  0  0  0
  180.6900  174.7110  138.3040 N   0  0  0  0  0  2  0  0  0  0  0  0
  183.7090  179.7700  139.0940 C   0  0  0  0  0  0  0  0  0  0  0  0
  181.0980  178.2650  141.2980 C   0  0  0  0  0  0  0  0  0  0  0  0
  180.9470  179.6750  136.8130 C   0  0  2  0  0  3  0  0  0  0  0  0
  181.4350  175.2140  136.0220 N   0  0  0  0  0  1  0  0  0  0  0  0
  182.7390  179.0520  138.2110 C   0  0  0  0  0  2  0  0  0  0  0  0
  180.0380  178.5920  142.1570 C   0  0  0  0  0  3  0  0  0  0  0  0
  182.6590  178.6200  143.1250 C   0  0  0  0  0  3  0  0  0  0  0  0
  181.5970  178.9320  143.9770 C   0  0  0  0  0  3  0  0  0  0  0  0
  184.1290  179.2190  140.3450 N   0  0  0  0  0  2  0  0  0  0  0  0
  179.2230  178.8110  138.2330 C   0  0  2  0  0  3  0  0  0  0  0  0
  181.4650  179.7710  138.1760 N   0  0  2  0  0  0  0  0  0  0  0  0
  179.1920  177.2710  138.2430 C   0  0  2  0  0  3  0  0  0  0  0  0
  178.9380  178.8000  135.8190 O   0  0  0  0  0  1  0  0  0  0  0  0
  180.8340  177.9460  139.8550 C   0  0  1  0  0  3  0  0  0  0  0  0
  1 21  1  0  0  0  0
  3 17  1  0  0  0  0
  4 22  1  0  0  0  0
  5 27  1  6  0  0  0
  5 24  1  0  0  0  0
  6  1  1  0  0  0  0
  8  7  2  0  0  0  0
  8  2  2  0  0  0  0
  9 13  2  0  0  0  0
  9 14  1  0  0  0  0
 10  8  1  6  0  0  0
 10 28  1  0  0  0  0
 11 15  2  0  0  0  0
 12 28  1  0  0  0  0
 13 26  1  0  0  0  0
 14  8  1  0  0  0  0
 15 23  1  0  0  0  0
 16  1  2  0  0  0  0
 16 20  1  0  0  0  0
 17  5  1  0  0  0  0
 17 25  1  0  0  0  0
 18  9  1  0  0  0  0
 19 15  1  0  0  0  0
 20  4  2  0  0  0  0
 21 22  2  0  0  0  0
 23  6  1  0  0  0  0
 24 26  1  0  0  0  0
 24 12  1  0  0  0  0
 25 19  1  0  0  0  0
 25 12  1  0  0  0  0
 26 10  1  0  0  0  0
 28 16  1  0  0  0  0
M  END
>  <MODEL>
7

>  <REMARK>
 VINA RESULT:      -4.7      2.316      4.704
  Name = 
  0 active torsions:
  status: ('A' for Active; 'I' for Inactive)
                            x       y       z     vdW  Elec       q    Type
                         _______ _______ _______ _____ _____    ______ ____

>  <TORSDO>
F 0

$$$$
=
 OpenBabel11122411563D

 28 32  0  0  1  0  0  0  0  0999 V2000
  181.5400  178.3110  137.2150 C   0  0  0  0  0  0  0  0  0  0  0  0
  181.1680  174.8700  136.6720 O   0  0  0  0  0  0  0  0  0  0  0  0
  187.8490  177.9780  137.6500 O   0  0  0  0  0  1  0  0  0  0  0  0
  180.8780  179.1120  134.6110 C   0  0  0  0  0  3  0  0  0  0  0  0
  186.9900  176.7400  135.8120 C   0  0  2  0  0  3  0  0  0  0  0  0
  181.8800  177.9340  138.6220 C   0  0  0  0  0  2  0  0  0  0  0  0
  181.9240  173.5560  134.7330 O   0  0  0  0  0  0  0  0  0  0  0  0
  182.3670  174.3420  135.9340 S   0  0  0  0  0  0  0  0  0  0  0  0
  184.6620  173.6450  137.2490 C   0  0  0  0  0  0  0  0  0  0  0  0
  183.4210  175.6730  135.4120 C   0  0  2  0  0  3  0  0  0  0  0  0
  184.9300  179.7210  139.6040 O   0  0  0  0  0  0  0  0  0  0  0  0
  184.7590  177.5740  136.0940 C   0  0  2  0  0  3  0  0  0  0  0  0
  185.3200  174.5330  136.5620 N   0  0  0  0  0  0  0  0  0  0  0  0
  183.2990  173.3360  136.9720 N   0  0  0  0  0  2  0  0  0  0  0  0
  184.2160  178.7940  139.1430 C   0  0  0  0  0  0  0  0  0  0  0  0
  182.2640  177.8040  136.1180 C   0  0  0  0  0  0  0  0  0  0  0  0
  186.7860  177.1700  137.2460 C   0  0  2  0  0  3  0  0  0  0  0  0
  185.3050  173.0030  138.3430 N   0  0  0  0  0  1  0  0  0  0  0  0
  184.8760  177.5840  138.5620 C   0  0  0  0  0  2  0  0  0  0  0  0
  181.9310  178.2180  134.8190 C   0  0  0  0  0  3  0  0  0  0  0  0
  180.4890  179.2110  136.9960 C   0  0  0  0  0  3  0  0  0  0  0  0
  180.1560  179.6070  135.6990 C   0  0  0  0  0  3  0  0  0  0  0  0
  182.7920  178.9130  139.1990 N   0  0  0  0  0  2  0  0  0  0  0  0
  185.5870  176.6170  135.2490 C   0  0  2  0  0  3  0  0  0  0  0  0
  185.5380  177.9290  137.3050 N   0  0  2  0  0  0  0  0  0  0  0  0
  184.8810  175.2520  135.3510 C   0  0  2  0  0  3  0  0  0  0  0  0
  187.7170  175.5500  135.7300 O   0  0  0  0  0  1  0  0  0  0  0  0
  183.4170  176.8700  136.3440 C   0  0  1  0  0  3  0  0  0  0  0  0
  1  6  1  0  0  0  0
  4 20  2  0  0  0  0
  4 22  1  0  0  0  0
  5 27  1  1  0  0  0
  5 17  1  0  0  0  0
  6 23  1  0  0  0  0
  7  8  2  0  0  0  0
  8  2  2  0  0  0  0
  8 14  1  0  0  0  0
  9 18  1  0  0  0  0
 10  8  1  1  0  0  0
 10 28  1  0  0  0  0
 12 28  1  0  0  0  0
 12 25  1  0  0  0  0
 13  9  2  0  0  0  0
 14  9  1  0  0  0  0
 15 23  1  0  0  0  0
 15 11  2  0  0  0  0
 16 28  1  0  0  0  0
 16  1  2  0  0  0  0
 17 25  1  0  0  0  0
 17  3  1  0  0  0  0
 19 15  1  0  0  0  0
 20 16  1  0  0  0  0
 21  1  1  0  0  0  0
 22 21  2  0  0  0  0
 24 26  1  0  0  0  0
 24  5  1  0  0  0  0
 24 12  1  0  0  0  0
 25 19  1  0  0  0  0
 26 10  1  0  0  0  0
 26 13  1  0  0  0  0
M  END
>  <MODEL>
8

>  <REMARK>
 VINA RESULT:      -4.7      3.513      6.148
  Name = 
  0 active torsions:
  status: ('A' for Active; 'I' for Inactive)
                            x       y       z     vdW  Elec       q    Type
                         _______ _______ _______ _____ _____    ______ ____

>  <TORSDO>
F 0

$$$$
=
 OpenBabel11122411563D

 28 32  0  0  1  0  0  0  0  0999 V2000
  190.1390  173.5840  136.3270 C   0  0  0  0  0  0  0  0  0  0  0  0
  191.3540  175.2530  139.1580 O   0  0  0  0  0  0  0  0  0  0  0  0
  185.2740  177.5660  135.5600 O   0  0  0  0  0  1  0  0  0  0  0  0
  192.1990  174.3670  134.5940 C   0  0  0  0  0  3  0  0  0  0  0  0
  187.3230  178.6930  135.9870 C   0  0  2  0  0  3  0  0  0  0  0  0
  189.0290  173.1240  137.2190 C   0  0  0  0  0  2  0  0  0  0  0  0
  192.2950  177.5240  139.2850 O   0  0  0  0  0  0  0  0  0  0  0  0
  191.0480  176.7210  139.0500 S   0  0  0  0  0  0  0  0  0  0  0  0
  188.6160  177.7330  139.7900 C   0  0  0  0  0  0  0  0  0  0  0  0
  190.3900  177.1110  137.4460 C   0  0  2  0  0  3  0  0  0  0  0  0
  185.8390  173.6870  135.4950 O   0  0  0  0  0  0  0  0  0  0  0  0
  188.6350  176.6910  135.8290 C   0  0  2  0  0  3  0  0  0  0  0  0
  188.4330  178.1690  138.5780 N   0  0  0  0  0  0  0  0  0  0  0  0
  189.8520  177.1580  140.2060 N   0  0  0  0  0  2  0  0  0  0  0  0
  186.8240  173.9290  136.2390 C   0  0  0  0  0  0  0  0  0  0  0  0
  190.4130  174.9520  136.1340 C   0  0  0  0  0  0  0  0  0  0  0  0
  186.4580  177.4930  136.2950 C   0  0  2  0  0  3  0  0  0  0  0  0
  187.5350  177.7820  140.7130 N   0  0  0  0  0  1  0  0  0  0  0  0
  186.9270  175.2650  136.9030 C   0  0  0  0  0  2  0  0  0  0  0  0
  191.4410  175.3340  135.2580 C   0  0  0  0  0  3  0  0  0  0  0  0
  190.9010  172.6220  135.6540 C   0  0  0  0  0  3  0  0  0  0  0  0
  191.9310  173.0110  134.7940 C   0  0  0  0  0  3  0  0  0  0  0  0
  187.8130  172.9170  136.4430 N   0  0  0  0  0  2  0  0  0  0  0  0
  188.7450  178.1810  136.1200 C   0  0  2  0  0  3  0  0  0  0  0  0
  187.2070  176.2990  135.9070 N   0  0  2  0  0  0  0  0  0  0  0  0
  189.4290  178.2880  137.4960 C   0  0  2  0  0  3  0  0  0  0  0  0
  187.0450  179.7610  136.8430 O   0  0  0  0  0  1  0  0  0  0  0  0
  189.5770  175.9920  136.8210 C   0  0  1  0  0  3  0  0  0  0  0  0
  1  6  1  0  0  0  0
  3 17  1  0  0  0  0
  4 22  2  0  0  0  0
  4 20  1  0  0  0  0
  5 24  1  0  0  0  0
  5 17  1  0  0  0  0
  5 27  1  1  0  0  0
  8  2  2  0  0  0  0
  8  7  2  0  0  0  0
  8 14  1  0  0  0  0
  9 14  1  0  0  0  0
  9 18  1  0  0  0  0
 10 26  1  0  0  0  0
 10  8  1  1  0  0  0
 11 15  2  0  0  0  0
 12 25  1  0  0  0  0
 12 24  1  0  0  0  0
 12 28  1  0  0  0  0
 13  9  2  0  0  0  0
 15 23  1  0  0  0  0
 15 19  1  0  0  0  0
 16  1  1  0  0  0  0
 16 28  1  0  0  0  0
 20 16  2  0  0  0  0
 21  1  2  0  0  0  0
 22 21  1  0  0  0  0
 23  6  1  0  0  0  0
 24 26  1  0  0  0  0
 25 17  1  0  0  0  0
 25 19  1  0  0  0  0
 26 13  1  0  0  0  0
 28 10  1  0  0  0  0
M  END
>  <MODEL>
9

>  <REMARK>
 VINA RESULT:      -4.6      6.739      9.502
  Name = 
  0 active torsions:
  status: ('A' for Active; 'I' for Inactive)
                            x       y       z     vdW  Elec       q    Type
                         _______ _______ _______ _____ _____    ______ ____

>  <TORSDO>
F 0

$$$$
