=
 OpenBabel11122411023D

 31 35  0  0  1  0  0  0  0  0999 V2000
  193.3270  175.6970  136.1700 C   0  0  0  0  0  0  0  0  0  0  0  0
  189.7900  176.9310  136.8550 C   0  0  2  0  0  3  0  0  0  0  0  0
  188.8520  175.7380  136.7850 C   0  0  0  0  0  0  0  0  0  0  0  0
  188.3430  173.4920  136.0040 C   0  0  0  0  0  0  0  0  0  0  0  0
  191.2270  176.5190  137.0550 C   0  0  0  0  0  0  0  0  0  0  0  0
  193.8420  175.6110  137.4680 C   0  0  0  0  0  3  0  0  0  0  0  0
  189.2230  174.5720  136.0960 C   0  0  0  0  0  3  0  0  0  0  0  0
  189.8280  177.4980  139.3310 C   0  0  0  0  0  0  0  0  0  0  0  0
  194.1310  175.3160  135.0600 N   0  0  0  0  0  1  0  0  0  0  0  0
  187.1410  176.9820  137.9940 O   0  0  0  0  0  0  0  0  0  0  0  0
  188.7270  172.3400  135.3320 O   0  0  0  0  0  1  0  0  0  0  0  0
  190.9570  176.8640  139.4740 N   0  0  0  0  0  0  0  0  0  0  0  0
  189.3730  177.9390  137.9530 C   0  0  2  0  0  3  0  0  0  0  0  0
  189.0790  177.8950  140.4860 N   0  0  0  0  0  2  0  0  0  0  0  0
  192.0190  176.1450  135.9630 C   0  0  0  0  0  3  0  0  0  0  0  0
  187.0760  173.5700  136.5860 C   0  0  0  0  0  3  0  0  0  0  0  0
  191.7510  176.4480  138.3570 C   0  0  0  0  0  0  0  0  0  0  0  0
  193.0550  175.9870  138.5610 C   0  0  0  0  0  3  0  0  0  0  0  0
  187.8690  178.2030  137.8880 C   0  0  0  0  0  2  0  0  0  0  0  0
  187.5580  175.8210  137.3410 C   0  0  0  0  0  0  0  0  0  0  0  0
  186.6850  174.7330  137.2520 C   0  0  0  0  0  3  0  0  0  0  0  0
  190.0080  178.6230  142.6110 C   0  0  0  0  0  1  0  0  0  0  0  0
  189.3940  177.4670  141.8440 C   0  0  1  0  0  3  0  0  0  0  0  0
  186.1790  178.1830  144.2590 C   0  0  0  0  0  0  0  0  0  0  0  0
  186.9780  177.5960  142.1050 O   0  0  0  0  0  0  0  0  0  0  0  0
  189.3820  176.3670  144.7090 O   0  0  0  0  0  1  0  0  0  0  0  0
  185.1510  178.8100  145.1290 C   0  0  0  0  0  1  0  0  0  0  0  0
  186.0210  178.1850  142.9400 C   0  0  0  0  0  2  0  0  0  0  0  0
  188.2900  176.9700  144.0980 C   0  0  0  0  0  0  0  0  0  0  0  0
  188.1580  176.9390  142.5860 C   0  0  0  0  0  0  0  0  0  0  0  0
  187.3610  177.5510  144.8560 C   0  0  0  0  0  3  0  0  0  0  0  0
  1  6  1  0  0  0  0
  2  3  1  1  0  0  0
  2  5  1  0  0  0  0
  2 13  1  0  0  0  0
  3 20  1  0  0  0  0
  4  7  1  0  0  0  0
  4 16  2  0  0  0  0
  5 17  2  0  0  0  0
  6 18  2  0  0  0  0
  7  3  2  0  0  0  0
  8 12  2  0  0  0  0
  8 14  1  0  0  0  0
  9  1  1  0  0  0  0
 11  4  1  0  0  0  0
 13 19  1  1  0  0  0
 13  8  1  0  0  0  0
 14 23  1  0  0  0  0
 15  1  2  0  0  0  0
 15  5  1  0  0  0  0
 16 21  1  0  0  0  0
 17 18  1  0  0  0  0
 17 12  1  0  0  0  0
 19 10  1  0  0  0  0
 20 10  1  0  0  0  0
 21 20  2  0  0  0  0
 23 30  1  0  0  0  0
 23 22  1  1  0  0  0
 24 31  2  0  0  0  0
 24 27  1  0  0  0  0
 25 30  1  0  0  0  0
 25 28  1  0  0  0  0
 28 24  1  0  0  0  0
 29 26  1  0  0  0  0
 29 31  1  0  0  0  0
 30 29  2  0  0  0  0
M  END
>  <MODEL>
1

>  <REMARK>
 VINA RESULT:      -7.6      0.000      0.000
  Name = 
  2 active torsions:
  status: ('A' for Active; 'I' for Inactive)
    1  A    between atoms: C_5  and  N_16
    2  A    between atoms: C_5  and  C_30
                            x       y       z     vdW  Elec       q    Type
                         _______ _______ _______ _____ _____    ______ ____

>  <TORSDO>
F 2

$$$$
=
 OpenBabel11122411023D

 31 35  0  0  1  0  0  0  0  0999 V2000
  185.9010  172.7890  135.3380 C   0  0  0  0  0  0  0  0  0  0  0  0
  186.4430  176.4800  136.1050 C   0  0  2  0  0  3  0  0  0  0  0  0
  185.4550  176.8870  137.1850 C   0  0  0  0  0  0  0  0  0  0  0  0
  183.3660  176.5370  138.3810 C   0  0  0  0  0  0  0  0  0  0  0  0
  186.6400  174.9860  136.0440 C   0  0  0  0  0  0  0  0  0  0  0  0
  186.9380  172.2030  136.0710 C   0  0  0  0  0  3  0  0  0  0  0  0
  184.2890  176.1380  137.4120 C   0  0  0  0  0  3  0  0  0  0  0  0
  188.6760  176.5130  137.3160 C   0  0  0  0  0  0  0  0  0  0  0  0
  184.9940  171.9700  134.6110 N   0  0  0  0  0  1  0  0  0  0  0  0
  186.7820  178.8690  137.6850 O   0  0  0  0  0  0  0  0  0  0  0  0
  182.2250  175.7790  138.6060 O   0  0  0  0  0  1  0  0  0  0  0  0
  188.6280  175.2210  137.4710 N   0  0  0  0  0  0  0  0  0  0  0  0
  187.8100  177.1860  136.2680 C   0  0  2  0  0  3  0  0  0  0  0  0
  189.6380  177.2860  138.0430 N   0  0  0  0  0  2  0  0  0  0  0  0
  185.7480  174.1790  135.3280 C   0  0  0  0  0  3  0  0  0  0  0  0
  183.5900  177.6980  139.1240 C   0  0  0  0  0  3  0  0  0  0  0  0
  187.6910  174.3970  136.7670 C   0  0  0  0  0  0  0  0  0  0  0  0
  187.8330  173.0070  136.7850 C   0  0  0  0  0  3  0  0  0  0  0  0
  187.6090  178.6760  136.5400 C   0  0  0  0  0  2  0  0  0  0  0  0
  185.6560  178.0770  137.9160 C   0  0  0  0  0  0  0  0  0  0  0  0
  184.7320  178.4660  138.8910 C   0  0  0  0  0  3  0  0  0  0  0  0
  191.8710  176.5000  138.5960 C   0  0  0  0  0  1  0  0  0  0  0  0
  190.4680  176.7480  139.1160 C   0  0  1  0  0  3  0  0  0  0  0  0
  190.6270  177.2170  143.1700 C   0  0  0  0  0  0  0  0  0  0  0  0
  191.7190  177.4580  141.0790 O   0  0  0  0  0  0  0  0  0  0  0  0
  188.0170  177.8360  140.6070 O   0  0  0  0  0  1  0  0  0  0  0  0
  190.6800  176.9960  144.6380 C   0  0  0  0  0  1  0  0  0  0  0  0
  191.7510  177.2470  142.4630 C   0  0  0  0  0  2  0  0  0  0  0  0
  189.2610  177.6320  141.1900 C   0  0  0  0  0  0  0  0  0  0  0  0
  190.5130  177.6800  140.3350 C   0  0  0  0  0  0  0  0  0  0  0  0
  189.3340  177.4180  142.5040 C   0  0  0  0  0  3  0  0  0  0  0  0
  1  6  1  0  0  0  0
  2  5  1  1  0  0  0
  2 13  1  0  0  0  0
  2  3  1  0  0  0  0
  3  7  2  0  0  0  0
  3 20  1  0  0  0  0
  4 11  1  0  0  0  0
  4 16  2  0  0  0  0
  5 17  2  0  0  0  0
  6 18  2  0  0  0  0
  7  4  1  0  0  0  0
  8 12  2  0  0  0  0
  8 14  1  0  0  0  0
  9  1  1  0  0  0  0
 10 20  1  0  0  0  0
 13 19  1  1  0  0  0
 13  8  1  0  0  0  0
 14 23  1  0  0  0  0
 15  1  2  0  0  0  0
 15  5  1  0  0  0  0
 17 18  1  0  0  0  0
 17 12  1  0  0  0  0
 19 10  1  0  0  0  0
 20 21  2  0  0  0  0
 21 16  1  0  0  0  0
 23 22  1  6  0  0  0
 23 30  1  0  0  0  0
 24 27  1  0  0  0  0
 25 28  1  0  0  0  0
 26 29  1  0  0  0  0
 28 24  1  0  0  0  0
 29 31  1  0  0  0  0
 30 25  1  0  0  0  0
 30 29  2  0  0  0  0
 31 24  2  0  0  0  0
M  END
>  <MODEL>
2

>  <REMARK>
 VINA RESULT:      -7.4      2.876      5.108
  Name = 
  2 active torsions:
  status: ('A' for Active; 'I' for Inactive)
    1  A    between atoms: C_5  and  N_16
    2  A    between atoms: C_5  and  C_30
                            x       y       z     vdW  Elec       q    Type
                         _______ _______ _______ _____ _____    ______ ____

>  <TORSDO>
F 2

$$$$
=
 OpenBabel11122411023D

 31 35  0  0  1  0  0  0  0  0999 V2000
  190.8590  176.7390  142.4970 C   0  0  0  0  0  0  0  0  0  0  0  0
  190.1230  178.0470  138.9980 C   0  0  2  0  0  3  0  0  0  0  0  0
  190.3160  176.9030  138.0160 C   0  0  0  0  0  0  0  0  0  0  0  0
  191.3050  174.7580  137.4370 C   0  0  0  0  0  0  0  0  0  0  0  0
  189.9370  177.5620  140.4130 C   0  0  0  0  0  0  0  0  0  0  0  0
  189.5660  176.5170  142.9830 C   0  0  0  0  0  3  0  0  0  0  0  0
  191.1010  175.7890  138.3560 C   0  0  0  0  0  3  0  0  0  0  0  0
  187.6060  178.3880  139.0080 C   0  0  0  0  0  0  0  0  0  0  0  0
  191.9850  176.4270  143.3080 N   0  0  0  0  0  1  0  0  0  0  0  0
  189.0270  178.1010  136.3300 O   0  0  0  0  0  0  0  0  0  0  0  0
  192.0710  173.6550  137.7900 O   0  0  0  0  0  1  0  0  0  0  0  0
  187.5020  177.6990  140.1080 N   0  0  0  0  0  0  0  0  0  0  0  0
  188.9460  178.9680  138.5980 C   0  0  2  0  0  3  0  0  0  0  0  0
  186.4330  178.7090  138.2520 N   0  0  0  0  0  2  0  0  0  0  0  0
  191.0460  177.2550  141.2120 C   0  0  0  0  0  3  0  0  0  0  0  0
  190.7390  174.8340  136.1630 C   0  0  0  0  0  3  0  0  0  0  0  0
  188.6390  177.3530  140.9080 C   0  0  0  0  0  0  0  0  0  0  0  0
  188.4570  176.8240  142.1890 C   0  0  0  0  0  3  0  0  0  0  0  0
  189.0120  179.2960  137.1070 C   0  0  0  0  0  2  0  0  0  0  0  0
  189.7760  176.9870  136.7160 C   0  0  0  0  0  0  0  0  0  0  0  0
  189.9770  175.9470  135.8030 C   0  0  0  0  0  3  0  0  0  0  0  0
  184.1850  179.2480  139.0060 C   0  0  0  0  0  1  0  0  0  0  0  0
  185.1130  178.1490  138.5230 C   0  0  1  0  0  3  0  0  0  0  0  0
  182.6250  175.3140  136.9570 C   0  0  0  0  0  0  0  0  0  0  0  0
  183.0890  177.6170  137.2810 O   0  0  0  0  0  0  0  0  0  0  0  0
  186.3110  175.7040  137.1090 O   0  0  0  0  0  1  0  0  0  0  0  0
  181.6550  174.2050  136.7660 C   0  0  0  0  0  1  0  0  0  0  0  0
  182.1880  176.5590  137.1040 C   0  0  0  0  0  2  0  0  0  0  0  0
  184.9570  176.0140  137.1240 C   0  0  0  0  0  0  0  0  0  0  0  0
  184.5140  177.4550  137.2920 C   0  0  0  0  0  0  0  0  0  0  0  0
  184.0670  175.0350  136.9690 C   0  0  0  0  0  3  0  0  0  0  0  0
  1  6  1  0  0  0  0
  1  9  1  0  0  0  0
  2  3  1  6  0  0  0
  2  5  1  0  0  0  0
  3  7  1  0  0  0  0
  4 11  1  0  0  0  0
  4  7  2  0  0  0  0
  5 17  2  0  0  0  0
  5 15  1  0  0  0  0
  8 12  2  0  0  0  0
 10 20  1  0  0  0  0
 10 19  1  0  0  0  0
 12 17  1  0  0  0  0
 13 19  1  6  0  0  0
 13  2  1  0  0  0  0
 13  8  1  0  0  0  0
 14 23  1  0  0  0  0
 14  8  1  0  0  0  0
 15  1  2  0  0  0  0
 16  4  1  0  0  0  0
 17 18  1  0  0  0  0
 18  6  2  0  0  0  0
 20  3  2  0  0  0  0
 21 16  2  0  0  0  0
 21 20  1  0  0  0  0
 23 22  1  6  0  0  0
 24 31  2  0  0  0  0
 24 28  1  0  0  0  0
 25 30  1  0  0  0  0
 26 29  1  0  0  0  0
 27 24  1  0  0  0  0
 28 25  1  0  0  0  0
 29 30  2  0  0  0  0
 30 23  1  0  0  0  0
 31 29  1  0  0  0  0
M  END
>  <MODEL>
3

>  <REMARK>
 VINA RESULT:      -6.9      3.241      5.659
  Name = 
  2 active torsions:
  status: ('A' for Active; 'I' for Inactive)
    1  A    between atoms: C_5  and  N_16
    2  A    between atoms: C_5  and  C_30
                            x       y       z     vdW  Elec       q    Type
                         _______ _______ _______ _____ _____    ______ ____

>  <TORSDO>
F 2

$$$$
=
 OpenBabel11122411023D

 31 35  0  0  1  0  0  0  0  0999 V2000
  179.8390  178.0690  141.8040 C   0  0  0  0  0  0  0  0  0  0  0  0
  183.1510  179.0260  140.1870 C   0  0  2  0  0  3  0  0  0  0  0  0
  184.2650  178.7150  141.1730 C   0  0  0  0  0  0  0  0  0  0  0  0
  185.0290  178.3470  143.4520 C   0  0  0  0  0  0  0  0  0  0  0  0
  181.8770  178.2890  140.5120 C   0  0  0  0  0  0  0  0  0  0  0  0
  179.5950  176.8270  141.2100 C   0  0  0  0  0  3  0  0  0  0  0  0
  183.9960  178.5970  142.5460 C   0  0  0  0  0  3  0  0  0  0  0  0
  183.4620  177.2650  138.3820 C   0  0  0  0  0  0  0  0  0  0  0  0
  178.9310  178.5870  142.7690 N   0  0  0  0  0  1  0  0  0  0  0  0
  185.9080  178.7840  139.3750 O   0  0  0  0  0  0  0  0  0  0  0  0
  184.7490  178.2170  144.8050 O   0  0  0  0  0  1  0  0  0  0  0  0
  182.5150  176.5400  138.9070 N   0  0  0  0  0  0  0  0  0  0  0  0
  183.5680  178.7390  138.7250 C   0  0  2  0  0  3  0  0  0  0  0  0
  184.3230  176.7050  137.3840 N   0  0  0  0  0  2  0  0  0  0  0  0
  180.9820  178.7980  141.4610 C   0  0  0  0  0  3  0  0  0  0  0  0
  186.3440  178.2270  142.9990 C   0  0  0  0  0  3  0  0  0  0  0  0
  181.6210  177.0480  139.9040 C   0  0  0  0  0  0  0  0  0  0  0  0
  180.4850  176.3160  140.2600 C   0  0  0  0  0  3  0  0  0  0  0  0
  184.9600  179.3070  138.4480 C   0  0  0  0  0  2  0  0  0  0  0  0
  185.6000  178.6270  140.7270 C   0  0  0  0  0  0  0  0  0  0  0  0
  186.6290  178.3680  141.6390 C   0  0  0  0  0  3  0  0  0  0  0  0
  184.2910  175.1400  135.5250 C   0  0  0  0  0  1  0  0  0  0  0  0
  184.3450  175.2890  137.0330 C   0  0  1  0  0  3  0  0  0  0  0  0
  187.8820  173.3590  136.3610 C   0  0  0  0  0  0  0  0  0  0  0  0
  186.7730  175.2790  137.2040 O   0  0  0  0  0  0  0  0  0  0  0  0
  184.5540  172.2800  137.5930 O   0  0  0  0  0  1  0  0  0  0  0  0
  189.0730  172.7230  135.7410 C   0  0  0  0  0  1  0  0  0  0  0  0
  187.8850  174.6630  136.6180 C   0  0  0  0  0  2  0  0  0  0  0  0
  185.6330  173.0920  137.2710 C   0  0  0  0  0  0  0  0  0  0  0  0
  185.5840  174.5750  137.5900 C   0  0  0  0  0  0  0  0  0  0  0  0
  186.7080  172.5470  136.7020 C   0  0  0  0  0  3  0  0  0  0  0  0
  1  9  1  0  0  0  0
  2  5  1  1  0  0  0
  2  3  1  0  0  0  0
  3  7  1  0  0  0  0
  4 11  1  0  0  0  0
  5 15  2  0  0  0  0
  6  1  2  0  0  0  0
  7  4  2  0  0  0  0
  8 13  1  0  0  0  0
  8 12  2  0  0  0  0
 10 20  1  0  0  0  0
 12 17  1  0  0  0  0
 13 19  1  1  0  0  0
 13  2  1  0  0  0  0
 14  8  1  0  0  0  0
 15  1  1  0  0  0  0
 16  4  1  0  0  0  0
 17 18  2  0  0  0  0
 17  5  1  0  0  0  0
 18  6  1  0  0  0  0
 19 10  1  0  0  0  0
 20  3  2  0  0  0  0
 20 21  1  0  0  0  0
 21 16  2  0  0  0  0
 23 22  1  6  0  0  0
 23 14  1  0  0  0  0
 23 30  1  0  0  0  0
 24 28  1  0  0  0  0
 24 31  2  0  0  0  0
 25 30  1  0  0  0  0
 27 24  1  0  0  0  0
 28 25  1  0  0  0  0
 29 30  2  0  0  0  0
 29 26  1  0  0  0  0
 31 29  1  0  0  0  0
M  END
>  <MODEL>
4

>  <REMARK>
 VINA RESULT:      -6.8      4.213      9.435
  Name = 
  2 active torsions:
  status: ('A' for Active; 'I' for Inactive)
    1  A    between atoms: C_5  and  N_16
    2  A    between atoms: C_5  and  C_30
                            x       y       z     vdW  Elec       q    Type
                         _______ _______ _______ _____ _____    ______ ____

>  <TORSDO>
F 2

$$$$
=
 OpenBabel11122411023D

 31 35  0  0  1  0  0  0  0  0999 V2000
  192.5240  177.1700  140.2380 C   0  0  0  0  0  0  0  0  0  0  0  0
  189.5920  177.7200  137.8710 C   0  0  2  0  0  3  0  0  0  0  0  0
  189.1650  176.3670  137.3270 C   0  0  0  0  0  0  0  0  0  0  0  0
  189.6640  174.0440  136.8070 C   0  0  0  0  0  0  0  0  0  0  0  0
  190.4120  177.5980  139.1310 C   0  0  0  0  0  0  0  0  0  0  0  0
  191.8840  177.2210  141.4810 C   0  0  0  0  0  3  0  0  0  0  0  0
  190.0490  175.2750  137.3410 C   0  0  0  0  0  3  0  0  0  0  0  0
  187.6840  178.3520  139.4250 C   0  0  0  0  0  0  0  0  0  0  0  0
  193.9220  176.9210  140.1690 N   0  0  0  0  0  1  0  0  0  0  0  0
  187.0150  177.2910  136.6500 O   0  0  0  0  0  0  0  0  0  0  0  0
  190.5410  172.9690  136.8400 O   0  0  0  0  0  1  0  0  0  0  0  0
  188.3720  177.9500  140.4560 N   0  0  0  0  0  0  0  0  0  0  0  0
  188.3860  178.6580  138.1160 C   0  0  2  0  0  3  0  0  0  0  0  0
  186.2860  178.6280  139.5620 N   0  0  0  0  0  2  0  0  0  0  0  0
  191.7890  177.3530  139.0630 C   0  0  0  0  0  3  0  0  0  0  0  0
  188.3970  173.8930  136.2380 C   0  0  0  0  0  3  0  0  0  0  0  0
  189.7730  177.6640  140.3810 C   0  0  0  0  0  0  0  0  0  0  0  0
  190.5100  177.4680  141.5530 C   0  0  0  0  0  3  0  0  0  0  0  0
  187.4370  178.6260  136.9190 C   0  0  0  0  0  2  0  0  0  0  0  0
  187.9010  176.2150  136.7200 C   0  0  0  0  0  0  0  0  0  0  0  0
  187.5180  174.9770  136.1950 C   0  0  0  0  0  3  0  0  0  0  0  0
  185.9240  179.2160  141.8920 C   0  0  0  0  0  1  0  0  0  0  0  0
  185.5060  178.3060  140.7530 C   0  0  1  0  0  3  0  0  0  0  0  0
  182.2370  177.3840  138.4850 C   0  0  0  0  0  0  0  0  0  0  0  0
  183.3870  177.1290  140.5440 O   0  0  0  0  0  0  0  0  0  0  0  0
  184.1520  180.5030  139.0940 O   0  0  0  0  0  1  0  0  0  0  0  0
  181.3150  176.8570  137.4460 C   0  0  0  0  0  1  0  0  0  0  0  0
  182.5230  176.6470  139.5530 C   0  0  0  0  0  2  0  0  0  0  0  0
  183.6390  179.2230  139.2650 C   0  0  0  0  0  0  0  0  0  0  0  0
  183.9960  178.4270  140.5060 C   0  0  0  0  0  0  0  0  0  0  0  0
  182.8210  178.7230  138.3400 C   0  0  0  0  0  3  0  0  0  0  0  0
  1  6  1  0  0  0  0
  2  3  1  1  0  0  0
  2 13  1  0  0  0  0
  2  5  1  0  0  0  0
  3  7  1  0  0  0  0
  4 11  1  0  0  0  0
  4  7  2  0  0  0  0
  5 17  2  0  0  0  0
  6 18  2  0  0  0  0
  8 14  1  0  0  0  0
  8 12  2  0  0  0  0
  9  1  1  0  0  0  0
 10 20  1  0  0  0  0
 10 19  1  0  0  0  0
 13 19  1  6  0  0  0
 13  8  1  0  0  0  0
 14 23  1  0  0  0  0
 15  5  1  0  0  0  0
 15  1  2  0  0  0  0
 16  4  1  0  0  0  0
 17 12  1  0  0  0  0
 17 18  1  0  0  0  0
 20  3  2  0  0  0  0
 21 16  2  0  0  0  0
 21 20  1  0  0  0  0
 23 22  1  1  0  0  0
 24 28  1  0  0  0  0
 26 29  1  0  0  0  0
 27 24  1  0  0  0  0
 28 25  1  0  0  0  0
 29 30  2  0  0  0  0
 30 25  1  0  0  0  0
 30 23  1  0  0  0  0
 31 24  2  0  0  0  0
 31 29  1  0  0  0  0
M  END
>  <MODEL>
5

>  <REMARK>
 VINA RESULT:      -6.6      2.795      4.322
  Name = 
  2 active torsions:
  status: ('A' for Active; 'I' for Inactive)
    1  A    between atoms: C_5  and  N_16
    2  A    between atoms: C_5  and  C_30
                            x       y       z     vdW  Elec       q    Type
                         _______ _______ _______ _____ _____    ______ ____

>  <TORSDO>
F 2

$$$$
=
 OpenBabel11122411023D

 31 35  0  0  1  0  0  0  0  0999 V2000
  190.8950  176.7740  138.4620 C   0  0  0  0  0  0  0  0  0  0  0  0
  187.6960  176.6930  136.3980 C   0  0  2  0  0  3  0  0  0  0  0  0
  187.0800  175.3110  136.5370 C   0  0  0  0  0  0  0  0  0  0  0  0
  187.2970  172.9380  137.0220 C   0  0  0  0  0  0  0  0  0  0  0  0
  188.6830  176.9930  137.4970 C   0  0  0  0  0  0  0  0  0  0  0  0
  190.4570  177.4270  139.6180 C   0  0  0  0  0  3  0  0  0  0  0  0
  187.8600  174.2130  136.9310 C   0  0  0  0  0  3  0  0  0  0  0  0
  186.1050  178.1760  137.7090 C   0  0  0  0  0  0  0  0  0  0  0  0
  192.2410  176.3240  138.3670 N   0  0  0  0  0  1  0  0  0  0  0  0
  184.9370  176.1620  135.7470 O   0  0  0  0  0  0  0  0  0  0  0  0
  188.0760  171.8630  137.4280 O   0  0  0  0  0  1  0  0  0  0  0  0
  186.9040  178.1480  138.7380 N   0  0  0  0  0  0  0  0  0  0  0  0
  186.6250  177.8070  136.3330 C   0  0  2  0  0  3  0  0  0  0  0  0
  184.7710  178.6780  137.8530 N   0  0  0  0  0  2  0  0  0  0  0  0
  190.0090  176.5510  137.4040 C   0  0  0  0  0  3  0  0  0  0  0  0
  185.9510  172.7440  136.7060 C   0  0  0  0  0  3  0  0  0  0  0  0
  188.2490  177.6630  138.6530 C   0  0  0  0  0  0  0  0  0  0  0  0
  189.1350  177.8720  139.7140 C   0  0  0  0  0  3  0  0  0  0  0  0
  185.5060  177.4130  135.3690 C   0  0  0  0  0  2  0  0  0  0  0  0
  185.7300  175.1000  136.1860 C   0  0  0  0  0  0  0  0  0  0  0  0
  185.1700  173.8230  136.2870 C   0  0  0  0  0  3  0  0  0  0  0  0
  183.2590  180.2080  138.9850 C   0  0  0  0  0  1  0  0  0  0  0  0
  184.1570  178.9950  139.1380 C   0  0  1  0  0  3  0  0  0  0  0  0
  180.5450  177.2340  139.8710 C   0  0  0  0  0  0  0  0  0  0  0  0
  182.5850  177.1990  138.6620 O   0  0  0  0  0  0  0  0  0  0  0  0
  183.1510  178.7570  142.0270 O   0  0  0  0  0  1  0  0  0  0  0  0
  179.0950  176.9220  139.9690 C   0  0  0  0  0  1  0  0  0  0  0  0
  181.2180  176.9150  138.7710 C   0  0  0  0  0  2  0  0  0  0  0  0
  182.5370  178.1610  140.9330 C   0  0  0  0  0  0  0  0  0  0  0  0
  183.3560  177.8140  139.7030 C   0  0  0  0  0  0  0  0  0  0  0  0
  181.2350  177.8830  140.9920 C   0  0  0  0  0  3  0  0  0  0  0  0
  1  6  1  0  0  0  0
  2  3  1  1  0  0  0
  2  5  1  0  0  0  0
  3  7  1  0  0  0  0
  4 11  1  0  0  0  0
  5 17  2  0  0  0  0
  6 18  2  0  0  0  0
  7  4  2  0  0  0  0
  8 14  1  0  0  0  0
  8 12  2  0  0  0  0
  9  1  1  0  0  0  0
 10 20  1  0  0  0  0
 13 19  1  6  0  0  0
 13  2  1  0  0  0  0
 13  8  1  0  0  0  0
 14 23  1  0  0  0  0
 15  5  1  0  0  0  0
 15  1  2  0  0  0  0
 16  4  1  0  0  0  0
 17 12  1  0  0  0  0
 17 18  1  0  0  0  0
 19 10  1  0  0  0  0
 20 21  1  0  0  0  0
 20  3  2  0  0  0  0
 21 16  2  0  0  0  0
 23 22  1  6  0  0  0
 23 30  1  0  0  0  0
 24 27  1  0  0  0  0
 24 31  2  0  0  0  0
 25 28  1  0  0  0  0
 25 30  1  0  0  0  0
 28 24  1  0  0  0  0
 29 31  1  0  0  0  0
 29 26  1  0  0  0  0
 30 29  2  0  0  0  0
M  END
>  <MODEL>
6

>  <REMARK>
 VINA RESULT:      -6.3      3.428      4.719
  Name = 
  2 active torsions:
  status: ('A' for Active; 'I' for Inactive)
    1  A    between atoms: C_5  and  N_16
    2  A    between atoms: C_5  and  C_30
                            x       y       z     vdW  Elec       q    Type
                         _______ _______ _______ _____ _____    ______ ____

>  <TORSDO>
F 2

$$$$
=
 OpenBabel11122411023D

 31 35  0  0  1  0  0  0  0  0999 V2000
  181.1400  178.7860  143.3150 C   0  0  0  0  0  0  0  0  0  0  0  0
  181.3090  178.1800  139.5600 C   0  0  2  0  0  3  0  0  0  0  0  0
  180.9100  179.4660  138.8560 C   0  0  0  0  0  0  0  0  0  0  0  0
  179.7610  181.6100  138.8590 C   0  0  0  0  0  0  0  0  0  0  0  0
  181.7180  178.4140  140.9920 C   0  0  0  0  0  0  0  0  0  0  0  0
  182.4890  179.0030  143.6170 C   0  0  0  0  0  3  0  0  0  0  0  0
  180.1560  180.4460  139.5220 C   0  0  0  0  0  3  0  0  0  0  0  0
  183.8010  178.0120  139.0960 C   0  0  0  0  0  0  0  0  0  0  0  0
  180.1600  178.8710  144.3420 N   0  0  0  0  0  1  0  0  0  0  0  0
  181.9310  178.6800  136.7880 O   0  0  0  0  0  0  0  0  0  0  0  0
  179.0280  182.5770  139.5340 O   0  0  0  0  0  1  0  0  0  0  0  0
  184.0680  178.4970  140.2750 N   0  0  0  0  0  0  0  0  0  0  0  0
  182.4320  177.4270  138.8070 C   0  0  2  0  0  3  0  0  0  0  0  0
  184.8380  177.9110  138.1130 N   0  0  0  0  0  2  0  0  0  0  0  0
  180.7540  178.4980  142.0030 C   0  0  0  0  0  3  0  0  0  0  0  0
  180.1020  181.8020  137.5190 C   0  0  0  0  0  3  0  0  0  0  0  0
  183.0750  178.6170  141.3000 C   0  0  0  0  0  0  0  0  0  0  0  0
  183.4550  178.9180  142.6100 C   0  0  0  0  0  3  0  0  0  0  0  0
  182.1230  177.3680  137.3120 C   0  0  0  0  0  2  0  0  0  0  0  0
  181.2210  179.6530  137.4920 C   0  0  0  0  0  0  0  0  0  0  0  0
  180.8300  180.8240  136.8370 C   0  0  0  0  0  3  0  0  0  0  0  0
  186.6680  178.2520  139.6760 C   0  0  0  0  0  1  0  0  0  0  0  0
  186.1640  178.5000  138.2670 C   0  0  1  0  0  3  0  0  0  0  0  0
  189.3400  176.0750  137.4220 C   0  0  0  0  0  0  0  0  0  0  0  0
  187.0280  176.5230  137.1410 O   0  0  0  0  0  0  0  0  0  0  0  0
  188.8820  179.7530  137.5920 O   0  0  0  0  0  1  0  0  0  0  0  0
  190.4700  175.1140  137.4980 C   0  0  0  0  0  1  0  0  0  0  0  0
  188.1050  175.6310  137.2190 C   0  0  0  0  0  2  0  0  0  0  0  0
  188.5950  178.3990  137.4780 C   0  0  0  0  0  0  0  0  0  0  0  0
  187.1650  177.9470  137.2430 C   0  0  0  0  0  0  0  0  0  0  0  0
  189.5900  177.5160  137.5570 C   0  0  0  0  0  3  0  0  0  0  0  0
  1  6  1  0  0  0  0
  1  9  1  0  0  0  0
  2  3  1  6  0  0  0
  2  5  1  0  0  0  0
  3  7  1  0  0  0  0
  4  7  2  0  0  0  0
  4 11  1  0  0  0  0
  5 17  2  0  0  0  0
  5 15  1  0  0  0  0
  8 12  2  0  0  0  0
 10 19  1  0  0  0  0
 10 20  1  0  0  0  0
 12 17  1  0  0  0  0
 13 19  1  6  0  0  0
 13  8  1  0  0  0  0
 13  2  1  0  0  0  0
 14 23  1  0  0  0  0
 14  8  1  0  0  0  0
 15  1  2  0  0  0  0
 16  4  1  0  0  0  0
 17 18  1  0  0  0  0
 18  6  2  0  0  0  0
 20  3  2  0  0  0  0
 21 20  1  0  0  0  0
 21 16  2  0  0  0  0
 23 22  1  1  0  0  0
 24 27  1  0  0  0  0
 24 31  2  0  0  0  0
 25 28  1  0  0  0  0
 25 30  1  0  0  0  0
 28 24  1  0  0  0  0
 29 31  1  0  0  0  0
 29 26  1  0  0  0  0
 30 29  2  0  0  0  0
 30 23  1  0  0  0  0
M  END
>  <MODEL>
7

>  <REMARK>
 VINA RESULT:      -6.2      5.214      9.439
  Name = 
  2 active torsions:
  status: ('A' for Active; 'I' for Inactive)
    1  A    between atoms: C_5  and  N_16
    2  A    between atoms: C_5  and  C_30
                            x       y       z     vdW  Elec       q    Type
                         _______ _______ _______ _____ _____    ______ ____

>  <TORSDO>
F 2

$$$$
=
 OpenBabel11122411023D

 31 35  0  0  1  0  0  0  0  0999 V2000
  192.8740  177.1010  140.3060 C   0  0  0  0  0  0  0  0  0  0  0  0
  189.7130  177.7230  138.2760 C   0  0  2  0  0  3  0  0  0  0  0  0
  189.2210  176.3860  137.7470 C   0  0  0  0  0  0  0  0  0  0  0  0
  189.6450  174.0750  137.1200 C   0  0  0  0  0  0  0  0  0  0  0  0
  190.6600  177.5650  139.4390 C   0  0  0  0  0  0  0  0  0  0  0  0
  192.3690  177.1230  141.6110 C   0  0  0  0  0  3  0  0  0  0  0  0
  190.0930  175.2910  137.6410 C   0  0  0  0  0  3  0  0  0  0  0  0
  187.9840  178.3250  140.0380 C   0  0  0  0  0  0  0  0  0  0  0  0
  194.2550  176.8460  140.0830 N   0  0  0  0  0  1  0  0  0  0  0  0
  187.0180  177.3380  137.3240 O   0  0  0  0  0  0  0  0  0  0  0  0
  190.5130  172.9950  137.0340 O   0  0  0  0  0  1  0  0  0  0  0  0
  188.7740  177.8940  140.9800 N   0  0  0  0  0  0  0  0  0  0  0  0
  188.5470  178.6600  138.6700 C   0  0  2  0  0  3  0  0  0  0  0  0
  186.6100  178.6040  140.3280 N   0  0  0  0  0  2  0  0  0  0  0  0
  192.0200  177.3160  139.2200 C   0  0  0  0  0  3  0  0  0  0  0  0
  188.3250  173.9440  136.6850 C   0  0  0  0  0  3  0  0  0  0  0  0
  190.1570  177.6040  140.7500 C   0  0  0  0  0  0  0  0  0  0  0  0
  191.0120  177.3750  141.8330 C   0  0  0  0  0  3  0  0  0  0  0  0
  187.4760  178.6630  137.5790 C   0  0  0  0  0  2  0  0  0  0  0  0
  187.8980  176.2560  137.2740 C   0  0  0  0  0  0  0  0  0  0  0  0
  187.4540  175.0330  136.7620 C   0  0  0  0  0  3  0  0  0  0  0  0
  186.9710  178.3130  142.7140 C   0  0  0  0  0  1  0  0  0  0  0  0
  185.9580  178.2560  141.5860 C   0  0  1  0  0  3  0  0  0  0  0  0
  182.2730  178.7820  143.2670 C   0  0  0  0  0  0  0  0  0  0  0  0
  184.5900  179.2860  143.3160 O   0  0  0  0  0  0  0  0  0  0  0  0
  183.5180  178.6700  139.7740 O   0  0  0  0  0  1  0  0  0  0  0  0
  180.9770  178.5940  143.9680 C   0  0  0  0  0  1  0  0  0  0  0  0
  183.3610  179.1020  143.9600 C   0  0  0  0  0  2  0  0  0  0  0  0
  183.4980  178.8070  141.1560 C   0  0  0  0  0  0  0  0  0  0  0  0
  184.7700  179.1760  141.8970 C   0  0  0  0  0  0  0  0  0  0  0  0
  182.3500  178.6290  141.8090 C   0  0  0  0  0  3  0  0  0  0  0  0
  1  6  1  0  0  0  0
  2  3  1  1  0  0  0
  2 13  1  0  0  0  0
  2  5  1  0  0  0  0
  4  7  2  0  0  0  0
  5 17  2  0  0  0  0
  6 18  2  0  0  0  0
  7  3  1  0  0  0  0
  8 14  1  0  0  0  0
  8 12  2  0  0  0  0
  9  1  1  0  0  0  0
 10 19  1  0  0  0  0
 11  4  1  0  0  0  0
 13 19  1  6  0  0  0
 13  8  1  0  0  0  0
 14 23  1  0  0  0  0
 15  5  1  0  0  0  0
 15  1  2  0  0  0  0
 16 21  2  0  0  0  0
 16  4  1  0  0  0  0
 17 12  1  0  0  0  0
 17 18  1  0  0  0  0
 20 10  1  0  0  0  0
 20  3  2  0  0  0  0
 21 20  1  0  0  0  0
 23 30  1  0  0  0  0
 23 22  1  1  0  0  0
 24 28  1  0  0  0  0
 24 27  1  0  0  0  0
 25 28  1  0  0  0  0
 26 29  1  0  0  0  0
 29 31  1  0  0  0  0
 29 30  2  0  0  0  0
 30 25  1  0  0  0  0
 31 24  2  0  0  0  0
M  END
>  <MODEL>
8

>  <REMARK>
 VINA RESULT:      -6.1      2.279      3.521
  Name = 
  2 active torsions:
  status: ('A' for Active; 'I' for Inactive)
    1  A    between atoms: C_5  and  N_16
    2  A    between atoms: C_5  and  C_30
                            x       y       z     vdW  Elec       q    Type
                         _______ _______ _______ _____ _____    ______ ____

>  <TORSDO>
F 2

$$$$
=
 OpenBabel11122411023D

 31 35  0  0  1  0  0  0  0  0999 V2000
  180.4260  179.5110  142.3030 C   0  0  0  0  0  0  0  0  0  0  0  0
  180.0940  178.3680  138.6870 C   0  0  2  0  0  3  0  0  0  0  0  0
  180.3100  179.5740  137.7890 C   0  0  0  0  0  0  0  0  0  0  0  0
  180.3050  181.9820  137.4440 C   0  0  0  0  0  0  0  0  0  0  0  0
  180.6390  178.5830  140.0760 C   0  0  0  0  0  0  0  0  0  0  0  0
  181.7320  179.1060  142.5990 C   0  0  0  0  0  3  0  0  0  0  0  0
  180.1400  180.8770  138.2830 C   0  0  0  0  0  3  0  0  0  0  0  0
  182.1870  176.9780  138.3090 C   0  0  0  0  0  0  0  0  0  0  0  0
  179.6560  180.1950  143.2840 N   0  0  0  0  0  1  0  0  0  0  0  0
  180.7320  178.1120  135.8850 O   0  0  0  0  0  0  0  0  0  0  0  0
  180.1480  183.2650  137.9490 O   0  0  0  0  0  1  0  0  0  0  0  0
  182.7120  177.4430  139.4060 N   0  0  0  0  0  0  0  0  0  0  0  0
  180.6910  177.0750  138.0810 C   0  0  2  0  0  3  0  0  0  0  0  0
  183.0020  176.2600  137.3740 N   0  0  0  0  0  2  0  0  0  0  0  0
  179.8810  179.2550  141.0420 C   0  0  0  0  0  3  0  0  0  0  0  0
  180.6250  181.7960  136.0980 C   0  0  0  0  0  3  0  0  0  0  0  0
  181.9460  178.1620  140.3790 C   0  0  0  0  0  0  0  0  0  0  0  0
  182.4910  178.4320  141.6370 C   0  0  0  0  0  3  0  0  0  0  0  0
  180.3120  176.9550  136.6050 C   0  0  0  0  0  2  0  0  0  0  0  0
  180.6010  179.3950  136.4200 C   0  0  0  0  0  0  0  0  0  0  0  0
  180.7720  180.5050  135.5870 C   0  0  0  0  0  3  0  0  0  0  0  0
  184.8970  174.7620  137.1100 C   0  0  0  0  0  1  0  0  0  0  0  0
  184.4550  176.1680  137.4670 C   0  0  1  0  0  3  0  0  0  0  0  0
  187.8520  177.4380  135.5880 C   0  0  0  0  0  0  0  0  0  0  0  0
  185.6670  176.5380  135.3890 O   0  0  0  0  0  0  0  0  0  0  0  0
  185.8450  178.7280  138.4290 O   0  0  0  0  0  1  0  0  0  0  0  0
  189.2410  177.5840  135.0810 C   0  0  0  0  0  1  0  0  0  0  0  0
  186.9800  176.6840  134.9270 C   0  0  0  0  0  2  0  0  0  0  0  0
  186.1950  178.0330  137.2790 C   0  0  0  0  0  0  0  0  0  0  0  0
  185.1580  177.1890  136.5610 C   0  0  0  0  0  0  0  0  0  0  0  0
  187.4390  178.1370  136.8110 C   0  0  0  0  0  3  0  0  0  0  0  0
  1  6  1  0  0  0  0
  1  9  1  0  0  0  0
  2  3  1  6  0  0  0
  2  5  1  0  0  0  0
  3  7  1  0  0  0  0
  4 11  1  0  0  0  0
  4  7  2  0  0  0  0
  5 17  2  0  0  0  0
  5 15  1  0  0  0  0
  8 12  2  0  0  0  0
 10 20  1  0  0  0  0
 10 19  1  0  0  0  0
 12 17  1  0  0  0  0
 13 19  1  6  0  0  0
 13  8  1  0  0  0  0
 13  2  1  0  0  0  0
 14 23  1  0  0  0  0
 14  8  1  0  0  0  0
 15  1  2  0  0  0  0
 16  4  1  0  0  0  0
 17 18  1  0  0  0  0
 18  6  2  0  0  0  0
 20  3  2  0  0  0  0
 21 16  2  0  0  0  0
 21 20  1  0  0  0  0
 23 22  1  6  0  0  0
 24 31  2  0  0  0  0
 25 30  1  0  0  0  0
 27 24  1  0  0  0  0
 28 25  1  0  0  0  0
 28 24  1  0  0  0  0
 29 26  1  0  0  0  0
 30 29  2  0  0  0  0
 30 23  1  0  0  0  0
 31 29  1  0  0  0  0
M  END
>  <MODEL>
9

>  <REMARK>
 VINA RESULT:      -5.8      5.945     10.080
  Name = 
  2 active torsions:
  status: ('A' for Active; 'I' for Inactive)
    1  A    between atoms: C_5  and  N_16
    2  A    between atoms: C_5  and  C_30
                            x       y       z     vdW  Elec       q    Type
                         _______ _______ _______ _____ _____    ______ ____

>  <TORSDO>
F 2

$$$$
