=
 OpenBabel11122410253D

 30 35  0  0  1  0  0  0  0  0999 V2000
  187.1360  177.7330  145.3220 C   0  0  1  0  0  3  0  0  0  0  0  0
  184.8380  178.8180  145.7570 C   0  0  1  0  0  3  0  0  0  0  0  0
  186.6130  178.3430  141.2430 O   0  0  0  0  0  0  0  0  0  0  0  0
  188.2400  177.9730  144.2850 C   0  0  1  0  0  3  0  0  0  0  0  0
  187.4220  178.4600  146.5000 O   0  0  0  0  0  0  0  0  0  0  0  0
  190.8660  177.3120  146.8740 O   0  0  0  0  0  1  0  0  0  0  0  0
  190.9000  176.7400  142.7870 C   0  0  1  0  0  3  0  0  0  0  0  0
  189.8000  177.9800  146.2650 C   0  0  2  0  0  3  0  0  0  0  0  0
  189.9920  176.9910  141.5840 C   0  0  2  0  0  3  0  0  0  0  0  0
  187.9430  178.3290  140.9070 C   0  0  0  0  0  0  0  0  0  0  0  0
  188.5380  177.8650  147.1340 C   0  0  2  0  0  3  0  0  0  0  0  0
  189.5590  177.4290  144.8530 C   0  0  2  0  0  3  0  0  0  0  0  0
  183.4600  179.1050  145.1740 C   0  0  0  0  0  2  0  0  0  0  0  0
  190.8990  177.7270  140.6510 C   0  0  0  0  0  2  0  0  0  0  0  0
  192.2380  176.7140  142.3470 O   0  0  0  0  0  0  0  0  0  0  0  0
  184.6770  178.1130  146.9510 O   0  0  0  0  0  1  0  0  0  0  0  0
  186.4280  177.7080  142.5010 C   0  0  1  0  0  3  0  0  0  0  0  0
  183.5950  179.7290  143.7990 C   0  0  0  0  0  2  0  0  0  0  0  0
  185.7090  178.0040  144.7730 C   0  0  1  0  0  3  0  0  0  0  0  0
  187.8630  177.3040  142.9630 C   0  0  1  0  0  3  0  0  0  0  0  0
  188.3740  178.7830  139.8140 O   0  0  0  0  0  0  0  0  0  0  0  0
  188.7680  177.7360  141.8990 N   0  0  0  0  0  0  0  0  0  0  0  0
  192.2550  177.1770  141.0140 C   0  0  0  0  0  2  0  0  0  0  0  0
  190.9260  179.1910  143.5780 C   0  0  0  0  0  1  0  0  0  0  0  0
  184.3890  178.7770  142.9220 C   0  0  0  0  0  2  0  0  0  0  0  0
  185.7540  178.6260  143.4320 N   0  0  2  0  0  0  0  0  0  0  0  0
  190.7730  177.7220  143.9630 C   0  0  2  0  0  3  0  0  0  0  0  0
  188.2730  176.5360  147.4930 O   0  0  0  0  0  0  0  0  0  0  0  0
  188.0650  177.8540  149.3260 F   0  0  0  0  0  0  0  0  0  0  0  0
  187.7840  176.6090  148.7970 C   0  0  0  0  0  2  0  0  0  0  0  0
  1  5  1  1  0  0  0
  2 16  1  1  0  0  0
  3 17  1  0  0  0  0
  4 12  1  0  0  0  0
  4  1  1  0  0  0  0
  5 11  1  0  0  0  0
  7 27  1  0  0  0  0
  8  6  1  0  0  0  0
  8 11  1  0  0  0  0
  9 22  1  0  0  0  0
  9  7  1  0  0  0  0
 10  3  1  0  0  0  0
 10 22  1  0  0  0  0
 11 28  1  0  0  0  0
 12  8  1  0  0  0  0
 13  2  1  0  0  0  0
 14 23  1  0  0  0  0
 14  9  1  0  0  0  0
 15  7  1  0  0  0  0
 17 20  1  0  0  0  0
 17 26  1  0  0  0  0
 18 13  1  0  0  0  0
 19  1  1  0  0  0  0
 19  2  1  0  0  0  0
 20  4  1  0  0  0  0
 21 10  2  0  0  0  0
 22 20  1  0  0  0  0
 23 15  1  0  0  0  0
 24 27  1  0  0  0  0
 25 26  1  0  0  0  0
 25 18  1  0  0  0  0
 26 19  1  0  0  0  0
 27 12  1  0  0  0  0
 28 30  1  0  0  0  0
 30 29  1  0  0  0  0
M  END
>  <MODEL>
1

>  <REMARK>
 VINA RESULT:      -9.1      0.000      0.000
  Name = 
  2 active torsions:
  status: ('A' for Active; 'I' for Inactive)
    1  A    between atoms: C_11  and  O_28
    2  A    between atoms: O_28  and  C_30
                            x       y       z     vdW  Elec       q    Type
                         _______ _______ _______ _____ _____    ______ ____

>  <TORSDO>
F 2

$$$$
=
 OpenBabel11122410253D

 30 35  0  0  1  0  0  0  0  0999 V2000
  187.1590  178.5200  140.6420 C   0  0  1  0  0  3  0  0  0  0  0  0
  184.7580  178.4290  139.7050 C   0  0  1  0  0  3  0  0  0  0  0  0
  185.6300  178.1830  144.4930 O   0  0  0  0  0  0  0  0  0  0  0  0
  187.8500  177.8680  141.8460 C   0  0  1  0  0  3  0  0  0  0  0  0
  187.3710  177.7340  139.4860 O   0  0  0  0  0  0  0  0  0  0  0  0
  190.9890  177.4260  139.8490 O   0  0  0  0  0  1  0  0  0  0  0  0
  190.4190  177.9550  143.9020 C   0  0  1  0  0  3  0  0  0  0  0  0
  189.6490  177.2360  140.1960 C   0  0  2  0  0  3  0  0  0  0  0  0
  189.2630  178.0880  144.8920 C   0  0  2  0  0  3  0  0  0  0  0  0
  186.7650  177.6720  145.0720 C   0  0  0  0  0  0  0  0  0  0  0  0
  188.7340  177.8370  139.1180 C   0  0  2  0  0  3  0  0  0  0  0  0
  189.3620  177.8430  141.5760 C   0  0  2  0  0  3  0  0  0  0  0  0
  183.2910  178.7130  139.9970 C   0  0  0  0  0  2  0  0  0  0  0  0
  189.6050  177.0580  145.9200 C   0  0  0  0  0  2  0  0  0  0  0  0
  191.5440  177.4510  144.5850 O   0  0  0  0  0  0  0  0  0  0  0  0
  185.1280  179.1350  138.5590 O   0  0  0  0  0  1  0  0  0  0  0  0
  185.9630  178.8340  143.2750 C   0  0  1  0  0  3  0  0  0  0  0  0
  182.8930  178.0920  141.3220 C   0  0  0  0  0  2  0  0  0  0  0  0
  185.6590  178.8370  140.8930 C   0  0  1  0  0  3  0  0  0  0  0  0
  187.5040  178.6370  143.1200 C   0  0  1  0  0  3  0  0  0  0  0  0
  186.7560  177.0890  146.1880 O   0  0  0  0  0  0  0  0  0  0  0  0
  187.9360  177.8860  144.2990 N   0  0  0  0  0  0  0  0  0  0  0  0
  191.1120  177.0250  145.8580 C   0  0  0  0  0  2  0  0  0  0  0  0
  189.6510  175.6890  142.9470 C   0  0  0  0  0  1  0  0  0  0  0  0
  183.8000  178.6560  142.4020 C   0  0  0  0  0  2  0  0  0  0  0  0
  185.1880  178.2530  142.1680 N   0  0  2  0  0  0  0  0  0  0  0  0
  190.1610  177.0980  142.6530 C   0  0  2  0  0  3  0  0  0  0  0  0
  189.0830  179.1610  138.8180 O   0  0  0  0  0  0  0  0  0  0  0  0
  189.5250  178.0180  136.9110 F   0  0  0  0  0  0  0  0  0  0  0  0
  189.0860  179.2220  137.4250 C   0  0  0  0  0  2  0  0  0  0  0  0
  1  5  1  6  0  0  0
  1 19  1  0  0  0  0
  1  4  1  0  0  0  0
  2 16  1  6  0  0  0
  2 13  1  0  0  0  0
  2 19  1  0  0  0  0
  3 10  1  0  0  0  0
  4 20  1  0  0  0  0
  6  8  1  0  0  0  0
  7 15  1  0  0  0  0
  7  9  1  0  0  0  0
  8 12  1  0  0  0  0
  9 14  1  0  0  0  0
 10 21  2  0  0  0  0
 11  5  1  0  0  0  0
 11  8  1  0  0  0  0
 12  4  1  0  0  0  0
 12 27  1  0  0  0  0
 13 18  1  0  0  0  0
 15 23  1  0  0  0  0
 17  3  1  0  0  0  0
 18 25  1  0  0  0  0
 19 26  1  0  0  0  0
 20 17  1  0  0  0  0
 20 22  1  0  0  0  0
 22  9  1  0  0  0  0
 22 10  1  0  0  0  0
 23 14  1  0  0  0  0
 26 25  1  0  0  0  0
 26 17  1  0  0  0  0
 27 24  1  0  0  0  0
 27  7  1  0  0  0  0
 28 11  1  0  0  0  0
 29 30  1  0  0  0  0
 30 28  1  0  0  0  0
M  END
>  <MODEL>
2

>  <REMARK>
 VINA RESULT:      -8.9      2.988      5.660
  Name = 
  2 active torsions:
  status: ('A' for Active; 'I' for Inactive)
    1  A    between atoms: C_11  and  O_28
    2  A    between atoms: O_28  and  C_30
                            x       y       z     vdW  Elec       q    Type
                         _______ _______ _______ _____ _____    ______ ____

>  <TORSDO>
F 2

$$$$
=
 OpenBabel11122410253D

 30 35  0  0  1  0  0  0  0  0999 V2000
  188.9530  177.1940  143.4220 C   0  0  1  0  0  3  0  0  0  0  0  0
  191.1380  177.0270  144.7800 C   0  0  1  0  0  3  0  0  0  0  0  0
  186.8190  177.5750  146.9700 O   0  0  0  0  0  0  0  0  0  0  0  0
  187.6390  177.9600  143.6210 C   0  0  1  0  0  3  0  0  0  0  0  0
  189.8200  177.9390  142.5920 O   0  0  0  0  0  0  0  0  0  0  0  0
  187.4040  178.5830  139.9340 O   0  0  0  0  0  1  0  0  0  0  0  0
  184.4600  178.1980  142.8010 C   0  0  1  0  0  3  0  0  0  0  0  0
  187.9420  178.6700  141.2210 C   0  0  2  0  0  3  0  0  0  0  0  0
  184.3460  178.0100  144.3130 C   0  0  2  0  0  3  0  0  0  0  0  0
  185.7280  178.2120  146.4340 C   0  0  0  0  0  0  0  0  0  0  0  0
  189.2930  177.9400  141.2790 C   0  0  2  0  0  3  0  0  0  0  0  0
  186.9560  178.1060  142.2530 C   0  0  2  0  0  3  0  0  0  0  0  0
  191.7530  176.6290  146.1150 C   0  0  0  0  0  2  0  0  0  0  0  0
  183.4160  179.1140  144.7010 C   0  0  0  0  0  2  0  0  0  0  0  0
  183.2900  178.8310  142.3340 O   0  0  0  0  0  0  0  0  0  0  0  0
  191.7690  176.3030  143.7660 O   0  0  0  0  0  1  0  0  0  0  0  0
  187.5340  176.9000  145.9450 C   0  0  1  0  0  3  0  0  0  0  0  0
  190.9890  177.2740  147.2550 C   0  0  0  0  0  2  0  0  0  0  0  0
  189.6160  176.7580  144.7570 C   0  0  1  0  0  3  0  0  0  0  0  0
  186.7580  177.2250  144.6300 C   0  0  1  0  0  3  0  0  0  0  0  0
  184.8950  178.8440  147.1350 O   0  0  0  0  0  0  0  0  0  0  0  0
  185.6280  178.0660  145.0250 N   0  0  0  0  0  0  0  0  0  0  0  0
  182.5700  179.2770  143.4620 C   0  0  0  0  0  2  0  0  0  0  0  0
  185.8860  180.3390  142.9360 C   0  0  0  0  0  1  0  0  0  0  0  0
  189.5360  176.8440  147.1550 C   0  0  0  0  0  2  0  0  0  0  0  0
  188.9320  177.3570  145.9230 N   0  0  2  0  0  0  0  0  0  0  0  0
  185.6890  178.9680  142.2930 C   0  0  2  0  0  3  0  0  0  0  0  0
  189.2040  176.6390  140.7630 O   0  0  0  0  0  0  0  0  0  0  0  0
  190.6600  177.7890  139.4610 F   0  0  0  0  0  0  0  0  0  0  0  0
  190.2810  176.5300  139.8840 C   0  0  0  0  0  2  0  0  0  0  0  0
  1  5  1  1  0  0  0
  1  4  1  0  0  0  0
  1 19  1  0  0  0  0
  2 16  1  6  0  0  0
  2 13  1  0  0  0  0
  4 20  1  0  0  0  0
  6  8  1  0  0  0  0
  7  9  1  0  0  0  0
  8 11  1  0  0  0  0
  8 12  1  0  0  0  0
  9 14  1  0  0  0  0
  9 22  1  0  0  0  0
 10  3  1  0  0  0  0
 10 21  2  0  0  0  0
 11  5  1  0  0  0  0
 12 27  1  0  0  0  0
 12  4  1  0  0  0  0
 13 18  1  0  0  0  0
 15  7  1  0  0  0  0
 15 23  1  0  0  0  0
 17  3  1  0  0  0  0
 19  2  1  0  0  0  0
 19 26  1  0  0  0  0
 20 22  1  0  0  0  0
 20 17  1  0  0  0  0
 22 10  1  0  0  0  0
 23 14  1  0  0  0  0
 25 18  1  0  0  0  0
 26 17  1  0  0  0  0
 26 25  1  0  0  0  0
 27  7  1  0  0  0  0
 27 24  1  0  0  0  0
 28 11  1  0  0  0  0
 29 30  1  0  0  0  0
 30 28  1  0  0  0  0
M  END
>  <MODEL>
3

>  <REMARK>
 VINA RESULT:      -8.7      2.506      6.635
  Name = 
  2 active torsions:
  status: ('A' for Active; 'I' for Inactive)
    1  A    between atoms: C_11  and  O_28
    2  A    between atoms: O_28  and  C_30
                            x       y       z     vdW  Elec       q    Type
                         _______ _______ _______ _____ _____    ______ ____

>  <TORSDO>
F 2

$$$$
=
 OpenBabel11122410253D

 30 35  0  0  1  0  0  0  0  0999 V2000
  188.6790  177.3450  144.4480 C   0  0  1  0  0  3  0  0  0  0  0  0
  190.1330  177.5980  146.5630 C   0  0  1  0  0  3  0  0  0  0  0  0
  185.3020  178.2220  146.7080 O   0  0  0  0  0  0  0  0  0  0  0  0
  187.4020  178.0360  143.9530 C   0  0  1  0  0  3  0  0  0  0  0  0
  189.8130  177.9850  143.8970 O   0  0  0  0  0  0  0  0  0  0  0  0
  188.6740  177.9400  140.4300 O   0  0  0  0  0  1  0  0  0  0  0  0
  184.8230  177.8790  141.9140 C   0  0  1  0  0  3  0  0  0  0  0  0
  188.6500  178.3060  141.7790 C   0  0  2  0  0  3  0  0  0  0  0  0
  184.1090  177.9680  143.2620 C   0  0  2  0  0  3  0  0  0  0  0  0
  184.5230  178.6650  145.6690 C   0  0  0  0  0  0  0  0  0  0  0  0
  189.8580  177.7020  142.5110 C   0  0  2  0  0  3  0  0  0  0  0  0
  187.3280  177.8720  142.4280 C   0  0  2  0  0  3  0  0  0  0  0  0
  190.1560  177.5030  148.0820 C   0  0  0  0  0  2  0  0  0  0  0  0
  183.1090  179.0530  143.0200 C   0  0  0  0  0  2  0  0  0  0  0  0
  183.9440  178.3250  140.9060 O   0  0  0  0  0  0  0  0  0  0  0  0
  191.1130  176.7460  146.0490 O   0  0  0  0  0  1  0  0  0  0  0  0
  186.3640  177.4230  146.2080 C   0  0  1  0  0  3  0  0  0  0  0  0
  189.0030  178.2910  148.6720 C   0  0  0  0  0  2  0  0  0  0  0  0
  188.7470  177.2160  145.9940 C   0  0  1  0  0  3  0  0  0  0  0  0
  186.1840  177.4380  144.6570 C   0  0  1  0  0  3  0  0  0  0  0  0
  183.4830  179.3530  145.8420 O   0  0  0  0  0  0  0  0  0  0  0  0
  184.9970  178.2510  144.3960 N   0  0  0  0  0  0  0  0  0  0  0  0
  182.8350  178.9180  141.5430 C   0  0  0  0  0  2  0  0  0  0  0  0
  186.0890  180.1070  142.1690 C   0  0  0  0  0  1  0  0  0  0  0  0
  187.7100  177.7430  148.0950 C   0  0  0  0  0  2  0  0  0  0  0  0
  187.6560  177.9700  146.6490 N   0  0  2  0  0  0  0  0  0  0  0  0
  186.1570  178.6300  141.7900 C   0  0  2  0  0  3  0  0  0  0  0  0
  189.9750  176.3250  142.2750 O   0  0  0  0  0  0  0  0  0  0  0  0
  191.3060  175.0480  143.5930 F   0  0  0  0  0  0  0  0  0  0  0  0
  191.2940  176.0170  142.6080 C   0  0  0  0  0  2  0  0  0  0  0  0
  1  5  1  1  0  0  0
  1 19  1  0  0  0  0
  2 16  1  6  0  0  0
  2 13  1  0  0  0  0
  4  1  1  0  0  0  0
  4 20  1  0  0  0  0
  6  8  1  0  0  0  0
  7  9  1  0  0  0  0
  8 12  1  0  0  0  0
  8 11  1  0  0  0  0
  9 22  1  0  0  0  0
 10 21  2  0  0  0  0
 10  3  1  0  0  0  0
 11  5  1  0  0  0  0
 12  4  1  0  0  0  0
 13 18  1  0  0  0  0
 14  9  1  0  0  0  0
 15 23  1  0  0  0  0
 15  7  1  0  0  0  0
 17 26  1  0  0  0  0
 17  3  1  0  0  0  0
 19  2  1  0  0  0  0
 19 26  1  0  0  0  0
 20 17  1  0  0  0  0
 22 20  1  0  0  0  0
 22 10  1  0  0  0  0
 23 14  1  0  0  0  0
 25 18  1  0  0  0  0
 26 25  1  0  0  0  0
 27  7  1  0  0  0  0
 27 24  1  0  0  0  0
 27 12  1  0  0  0  0
 28 11  1  0  0  0  0
 28 30  1  0  0  0  0
 30 29  1  0  0  0  0
M  END
>  <MODEL>
4

>  <REMARK>
 VINA RESULT:      -7.7      2.117      5.866
  Name = 
  2 active torsions:
  status: ('A' for Active; 'I' for Inactive)
    1  A    between atoms: C_11  and  O_28
    2  A    between atoms: O_28  and  C_30
                            x       y       z     vdW  Elec       q    Type
                         _______ _______ _______ _____ _____    ______ ____

>  <TORSDO>
F 2

$$$$
=
 OpenBabel11122410253D

 30 35  0  0  1  0  0  0  0  0999 V2000
  186.6420  178.3020  143.3230 C   0  0  1  0  0  3  0  0  0  0  0  0
  188.7610  177.0520  144.0960 C   0  0  1  0  0  3  0  0  0  0  0  0
  187.8330  177.8050  139.3710 O   0  0  0  0  0  0  0  0  0  0  0  0
  185.7240  178.1730  142.1010 C   0  0  1  0  0  3  0  0  0  0  0  0
  186.1120  177.5540  144.3990 O   0  0  0  0  0  0  0  0  0  0  0  0
  182.7300  178.9130  144.2270 O   0  0  0  0  0  1  0  0  0  0  0  0
  183.4440  179.6310  140.2260 C   0  0  1  0  0  3  0  0  0  0  0  0
  183.8440  178.1980  143.7800 C   0  0  2  0  0  3  0  0  0  0  0  0
  184.5320  179.3640  139.1870 C   0  0  2  0  0  3  0  0  0  0  0  0
  186.5860  177.9180  138.8110 C   0  0  0  0  0  0  0  0  0  0  0  0
  184.9390  178.1980  144.8580 C   0  0  2  0  0  3  0  0  0  0  0  0
  184.3600  178.7820  142.4580 C   0  0  2  0  0  3  0  0  0  0  0  0
  190.1990  176.6960  143.7460 C   0  0  0  0  0  2  0  0  0  0  0  0
  183.7610  178.7240  138.0780 C   0  0  0  0  0  2  0  0  0  0  0  0
  182.2070  179.7610  139.5640 O   0  0  0  0  0  0  0  0  0  0  0  0
  188.7510  177.7020  145.3310 O   0  0  0  0  0  1  0  0  0  0  0  0
  187.8330  178.3800  140.6700 C   0  0  1  0  0  3  0  0  0  0  0  0
  190.2710  176.1310  142.3410 C   0  0  0  0  0  2  0  0  0  0  0  0
  188.1240  177.9560  143.0160 C   0  0  1  0  0  3  0  0  0  0  0  0
  186.3650  178.8620  140.8970 C   0  0  1  0  0  3  0  0  0  0  0  0
  186.3260  177.5330  137.6410 O   0  0  0  0  0  0  0  0  0  0  0  0
  185.6370  178.5290  139.6730 N   0  0  0  0  0  0  0  0  0  0  0  0
  182.3970  179.3490  138.2280 C   0  0  0  0  0  2  0  0  0  0  0  0
  183.1360  177.1610  140.8860 C   0  0  0  0  0  1  0  0  0  0  0  0
  189.7000  177.1640  141.3850 C   0  0  0  0  0  2  0  0  0  0  0  0
  188.2780  177.3870  141.6590 N   0  0  2  0  0  0  0  0  0  0  0  0
  183.3060  178.6020  141.3590 C   0  0  2  0  0  3  0  0  0  0  0  0
  185.2150  179.4930  145.3190 O   0  0  0  0  0  0  0  0  0  0  0  0
  184.9380  178.3430  147.2520 F   0  0  0  0  0  0  0  0  0  0  0  0
  185.6860  179.3160  146.6200 C   0  0  0  0  0  2  0  0  0  0  0  0
  1  5  1  1  0  0  0
  2 16  1  1  0  0  0
  3 17  1  0  0  0  0
  4 12  1  0  0  0  0
  4  1  1  0  0  0  0
  5 11  1  0  0  0  0
  7 27  1  0  0  0  0
  8  6  1  0  0  0  0
  8 11  1  0  0  0  0
  9 22  1  0  0  0  0
  9  7  1  0  0  0  0
 10  3  1  0  0  0  0
 10 22  1  0  0  0  0
 11 28  1  0  0  0  0
 12  8  1  0  0  0  0
 13  2  1  0  0  0  0
 14 23  1  0  0  0  0
 14  9  1  0  0  0  0
 15  7  1  0  0  0  0
 17 20  1  0  0  0  0
 17 26  1  0  0  0  0
 18 13  1  0  0  0  0
 19  1  1  0  0  0  0
 19  2  1  0  0  0  0
 20  4  1  0  0  0  0
 21 10  2  0  0  0  0
 22 20  1  0  0  0  0
 23 15  1  0  0  0  0
 24 27  1  0  0  0  0
 25 26  1  0  0  0  0
 25 18  1  0  0  0  0
 26 19  1  0  0  0  0
 27 12  1  0  0  0  0
 28 30  1  0  0  0  0
 30 29  1  0  0  0  0
M  END
>  <MODEL>
5

>  <REMARK>
 VINA RESULT:      -7.5      2.563      5.884
  Name = 
  2 active torsions:
  status: ('A' for Active; 'I' for Inactive)
    1  A    between atoms: C_11  and  O_28
    2  A    between atoms: O_28  and  C_30
                            x       y       z     vdW  Elec       q    Type
                         _______ _______ _______ _____ _____    ______ ____

>  <TORSDO>
F 2

$$$$
=
 OpenBabel11122410253D

 30 35  0  0  1  0  0  0  0  0999 V2000
  188.3800  177.9550  141.2180 C   0  0  1  0  0  3  0  0  0  0  0  0
  188.1710  177.4710  138.6940 C   0  0  1  0  0  3  0  0  0  0  0  0
  184.3540  178.9910  141.3160 O   0  0  0  0  0  0  0  0  0  0  0  0
  187.4240  177.7990  142.4070 C   0  0  1  0  0  3  0  0  0  0  0  0
  189.2040  176.8120  141.1140 O   0  0  0  0  0  0  0  0  0  0  0  0
  190.2730  176.7480  144.6020 O   0  0  0  0  0  1  0  0  0  0  0  0
  186.7430  178.6880  145.5030 C   0  0  1  0  0  3  0  0  0  0  0  0
  189.3680  176.6620  143.5410 C   0  0  2  0  0  3  0  0  0  0  0  0
  185.4670  179.1400  144.7950 C   0  0  2  0  0  3  0  0  0  0  0  0
  184.1590  178.7520  142.6530 C   0  0  0  0  0  0  0  0  0  0  0  0
  190.1070  176.8100  142.2030 C   0  0  2  0  0  3  0  0  0  0  0  0
  188.2640  177.7180  143.6910 C   0  0  2  0  0  3  0  0  0  0  0  0
  187.4120  177.8030  137.4160 C   0  0  0  0  0  2  0  0  0  0  0  0
  184.3990  178.5590  145.6640 C   0  0  0  0  0  2  0  0  0  0  0  0
  186.4580  178.4940  146.8700 O   0  0  0  0  0  0  0  0  0  0  0  0
  189.5280  177.7260  138.4840 O   0  0  0  0  0  1  0  0  0  0  0  0
  185.7400  179.1670  141.0550 C   0  0  1  0  0  3  0  0  0  0  0  0
  185.9190  177.6920  137.6520 C   0  0  0  0  0  2  0  0  0  0  0  0
  187.6530  178.3030  139.8900 C   0  0  1  0  0  3  0  0  0  0  0  0
  186.4390  178.9670  142.4370 C   0  0  1  0  0  3  0  0  0  0  0  0
  183.0150  178.6110  143.1600 O   0  0  0  0  0  0  0  0  0  0  0  0
  185.3670  178.7040  143.3970 N   0  0  0  0  0  0  0  0  0  0  0  0
  185.0560  178.5450  147.0210 C   0  0  0  0  0  2  0  0  0  0  0  0
  186.5230  176.2120  144.8300 C   0  0  0  0  0  1  0  0  0  0  0  0
  185.5460  178.6300  138.7860 C   0  0  0  0  0  2  0  0  0  0  0  0
  186.1850  178.2060  140.0340 N   0  0  2  0  0  0  0  0  0  0  0  0
  187.4320  177.4330  144.9470 C   0  0  2  0  0  3  0  0  0  0  0  0
  190.9300  177.9450  142.1860 O   0  0  0  0  0  0  0  0  0  0  0  0
  192.1540  177.8290  140.2810 F   0  0  0  0  0  0  0  0  0  0  0  0
  192.1300  177.5080  141.6240 C   0  0  0  0  0  2  0  0  0  0  0  0
  1  5  1  6  0  0  0
  1  4  1  0  0  0  0
  2 16  1  6  0  0  0
  2 19  1  0  0  0  0
  3 10  1  0  0  0  0
  4 20  1  0  0  0  0
  4 12  1  0  0  0  0
  5 11  1  0  0  0  0
  7 15  1  0  0  0  0
  8 12  1  0  0  0  0
  8  6  1  0  0  0  0
  9  7  1  0  0  0  0
  9 14  1  0  0  0  0
 10 21  2  0  0  0  0
 10 22  1  0  0  0  0
 11  8  1  0  0  0  0
 12 27  1  0  0  0  0
 13 18  1  0  0  0  0
 13  2  1  0  0  0  0
 14 23  1  0  0  0  0
 15 23  1  0  0  0  0
 17  3  1  0  0  0  0
 17 20  1  0  0  0  0
 18 25  1  0  0  0  0
 19 26  1  0  0  0  0
 19  1  1  0  0  0  0
 20 22  1  0  0  0  0
 22  9  1  0  0  0  0
 24 27  1  0  0  0  0
 25 26  1  0  0  0  0
 26 17  1  0  0  0  0
 27  7  1  0  0  0  0
 28 11  1  0  0  0  0
 29 30  1  0  0  0  0
 30 28  1  0  0  0  0
M  END
>  <MODEL>
6

>  <REMARK>
 VINA RESULT:      -7.3      2.682      5.944
  Name = 
  2 active torsions:
  status: ('A' for Active; 'I' for Inactive)
    1  A    between atoms: C_11  and  O_28
    2  A    between atoms: O_28  and  C_30
                            x       y       z     vdW  Elec       q    Type
                         _______ _______ _______ _____ _____    ______ ____

>  <TORSDO>
F 2

$$$$
=
 OpenBabel11122410253D

 30 35  0  0  1  0  0  0  0  0999 V2000
  186.0170  178.6270  140.4890 C   0  0  1  0  0  3  0  0  0  0  0  0
  185.5170  178.3010  142.9970 C   0  0  1  0  0  3  0  0  0  0  0  0
  189.8800  177.2220  141.1140 O   0  0  0  0  0  0  0  0  0  0  0  0
  186.8910  177.8740  139.4780 C   0  0  1  0  0  3  0  0  0  0  0  0
  184.6880  178.1520  140.4180 O   0  0  0  0  0  0  0  0  0  0  0  0
  184.3340  178.4340  136.7980 O   0  0  0  0  0  1  0  0  0  0  0  0
  188.4310  177.9930  136.5710 C   0  0  1  0  0  3  0  0  0  0  0  0
  184.8520  177.9370  137.9960 C   0  0  2  0  0  3  0  0  0  0  0  0
  189.6090  177.7050  137.5000 C   0  0  2  0  0  3  0  0  0  0  0  0
  190.1140  176.8150  139.8240 C   0  0  0  0  0  0  0  0  0  0  0  0
  184.1260  178.5730  139.1910 C   0  0  2  0  0  3  0  0  0  0  0  0
  186.3660  178.1800  138.0670 C   0  0  2  0  0  3  0  0  0  0  0  0
  186.1180  178.2470  144.3950 C   0  0  0  0  0  2  0  0  0  0  0  0
  190.2840  176.5620  136.8130 C   0  0  0  0  0  2  0  0  0  0  0  0
  188.7680  177.5700  135.2690 O   0  0  0  0  0  0  0  0  0  0  0  0
  184.5280  179.2860  142.9760 O   0  0  0  0  0  1  0  0  0  0  0  0
  188.8150  178.1620  141.1360 C   0  0  1  0  0  3  0  0  0  0  0  0
  187.3030  177.3010  144.4170 C   0  0  0  0  0  2  0  0  0  0  0  0
  186.5930  178.6070  141.9310 C   0  0  1  0  0  3  0  0  0  0  0  0
  188.3530  178.2840  139.6500 C   0  0  1  0  0  3  0  0  0  0  0  0
  191.0410  176.0200  139.5180 O   0  0  0  0  0  0  0  0  0  0  0  0
  189.2240  177.3950  138.8820 N   0  0  0  0  0  0  0  0  0  0  0  0
  189.9570  176.8160  135.3620 C   0  0  0  0  0  2  0  0  0  0  0  0
  187.1070  175.8760  137.2050 C   0  0  0  0  0  1  0  0  0  0  0  0
  188.3130  177.7820  143.3900 C   0  0  0  0  0  2  0  0  0  0  0  0
  187.7520  177.6950  142.0400 N   0  0  2  0  0  0  0  0  0  0  0  0
  187.0770  177.3840  136.9660 C   0  0  2  0  0  3  0  0  0  0  0  0
  184.0960  179.9720  139.0960 O   0  0  0  0  0  0  0  0  0  0  0  0
  182.6190  181.6110  138.5780 F   0  0  0  0  0  0  0  0  0  0  0  0
  182.7450  180.2930  138.9710 C   0  0  0  0  0  2  0  0  0  0  0  0
  1  5  1  1  0  0  0
  1 19  1  0  0  0  0
  2 16  1  1  0  0  0
  2 13  1  0  0  0  0
  3 17  1  0  0  0  0
  4 20  1  0  0  0  0
  4  1  1  0  0  0  0
  6  8  1  0  0  0  0
  7 27  1  0  0  0  0
  7  9  1  0  0  0  0
  8 12  1  0  0  0  0
  8 11  1  0  0  0  0
  9 22  1  0  0  0  0
 10  3  1  0  0  0  0
 11  5  1  0  0  0  0
 12  4  1  0  0  0  0
 13 18  1  0  0  0  0
 14  9  1  0  0  0  0
 15 23  1  0  0  0  0
 15  7  1  0  0  0  0
 17 26  1  0  0  0  0
 19 26  1  0  0  0  0
 19  2  1  0  0  0  0
 20 17  1  0  0  0  0
 21 10  2  0  0  0  0
 22 20  1  0  0  0  0
 22 10  1  0  0  0  0
 23 14  1  0  0  0  0
 25 18  1  0  0  0  0
 26 25  1  0  0  0  0
 27 24  1  0  0  0  0
 27 12  1  0  0  0  0
 28 11  1  0  0  0  0
 29 30  1  0  0  0  0
 30 28  1  0  0  0  0
M  END
>  <MODEL>
7

>  <REMARK>
 VINA RESULT:      -7.3      3.891      6.653
  Name = 
  2 active torsions:
  status: ('A' for Active; 'I' for Inactive)
    1  A    between atoms: C_11  and  O_28
    2  A    between atoms: O_28  and  C_30
                            x       y       z     vdW  Elec       q    Type
                         _______ _______ _______ _____ _____    ______ ____

>  <TORSDO>
F 2

$$$$
=
 OpenBabel11122410253D

 30 35  0  0  1  0  0  0  0  0999 V2000
  187.5660  177.6730  140.5640 C   0  0  1  0  0  3  0  0  0  0  0  0
  189.8410  177.6900  139.3500 C   0  0  1  0  0  3  0  0  0  0  0  0
  189.5460  177.2610  144.1960 O   0  0  0  0  0  0  0  0  0  0  0  0
  187.0900  178.1890  141.9280 C   0  0  1  0  0  3  0  0  0  0  0  0
  187.3120  178.6460  139.5710 O   0  0  0  0  0  0  0  0  0  0  0  0
  183.8130  179.2220  140.4350 O   0  0  0  0  0  1  0  0  0  0  0  0
  184.7750  178.0150  144.2630 C   0  0  1  0  0  3  0  0  0  0  0  0
  185.1970  179.2320  140.6310 C   0  0  2  0  0  3  0  0  0  0  0  0
  186.0140  177.6230  145.0670 C   0  0  2  0  0  3  0  0  0  0  0  0
  188.5480  177.7770  144.9830 C   0  0  0  0  0  0  0  0  0  0  0  0
  185.9130  178.7270  139.3700 C   0  0  2  0  0  3  0  0  0  0  0  0
  185.5690  178.3930  141.8610 C   0  0  2  0  0  3  0  0  0  0  0  0
  191.2920  177.2320  139.4090 C   0  0  0  0  0  2  0  0  0  0  0  0
  185.9050  178.5070  146.2680 C   0  0  0  0  0  2  0  0  0  0  0  0
  183.7960  178.5060  145.1500 O   0  0  0  0  0  0  0  0  0  0  0  0
  189.2690  177.2090  138.1710 O   0  0  0  0  0  1  0  0  0  0  0  0
  189.0090  176.8430  142.9500 C   0  0  1  0  0  3  0  0  0  0  0  0
  191.9020  177.5980  140.7470 C   0  0  0  0  0  2  0  0  0  0  0  0
  189.0400  177.1850  140.5730 C   0  0  1  0  0  3  0  0  0  0  0  0
  187.4910  177.2010  143.0240 C   0  0  1  0  0  3  0  0  0  0  0  0
  188.7460  178.1750  146.1620 O   0  0  0  0  0  0  0  0  0  0  0  0
  187.2800  177.7940  144.3440 N   0  0  0  0  0  0  0  0  0  0  0  0
  184.4140  178.6860  146.4050 C   0  0  0  0  0  2  0  0  0  0  0  0
  185.6740  180.3220  143.5540 C   0  0  0  0  0  1  0  0  0  0  0  0
  191.0660  176.9570  141.8410 C   0  0  0  0  0  2  0  0  0  0  0  0
  189.7130  177.5170  141.8480 N   0  0  2  0  0  0  0  0  0  0  0  0
  184.9830  179.0290  143.1270 C   0  0  2  0  0  3  0  0  0  0  0  0
  185.3890  177.5040  138.9290 O   0  0  0  0  0  0  0  0  0  0  0  0
  186.3760  177.1280  136.9230 F   0  0  0  0  0  0  0  0  0  0  0  0
  185.2600  177.6480  137.5480 C   0  0  0  0  0  2  0  0  0  0  0  0
  1  5  1  6  0  0  0
  1 19  1  0  0  0  0
  1  4  1  0  0  0  0
  2 16  1  6  0  0  0
  2 13  1  0  0  0  0
  2 19  1  0  0  0  0
  3 10  1  0  0  0  0
  4 20  1  0  0  0  0
  6  8  1  0  0  0  0
  7  9  1  0  0  0  0
  7 15  1  0  0  0  0
  8 12  1  0  0  0  0
  9 14  1  0  0  0  0
 10 21  2  0  0  0  0
 11  5  1  0  0  0  0
 11  8  1  0  0  0  0
 12  4  1  0  0  0  0
 12 27  1  0  0  0  0
 13 18  1  0  0  0  0
 14 23  1  0  0  0  0
 15 23  1  0  0  0  0
 17 20  1  0  0  0  0
 17  3  1  0  0  0  0
 18 25  1  0  0  0  0
 19 26  1  0  0  0  0
 20 22  1  0  0  0  0
 22 10  1  0  0  0  0
 22  9  1  0  0  0  0
 25 26  1  0  0  0  0
 26 17  1  0  0  0  0
 27 24  1  0  0  0  0
 27  7  1  0  0  0  0
 28 11  1  0  0  0  0
 29 30  1  0  0  0  0
 30 28  1  0  0  0  0
M  END
>  <MODEL>
8

>  <REMARK>
 VINA RESULT:      -6.9      2.915      7.301
  Name = 
  2 active torsions:
  status: ('A' for Active; 'I' for Inactive)
    1  A    between atoms: C_11  and  O_28
    2  A    between atoms: O_28  and  C_30
                            x       y       z     vdW  Elec       q    Type
                         _______ _______ _______ _____ _____    ______ ____

>  <TORSDO>
F 2

$$$$
=
 OpenBabel11122410253D

 30 35  0  0  1  0  0  0  0  0999 V2000
  188.9970  178.1010  141.9270 C   0  0  1  0  0  3  0  0  0  0  0  0
  190.0740  177.1370  139.7910 C   0  0  1  0  0  3  0  0  0  0  0  0
  185.3470  178.3130  139.9490 O   0  0  0  0  0  0  0  0  0  0  0  0
  187.6060  177.9760  142.5600 C   0  0  1  0  0  3  0  0  0  0  0  0
  189.8690  177.1460  142.4960 O   0  0  0  0  0  0  0  0  0  0  0  0
  189.1290  177.9290  145.9830 O   0  0  0  0  0  1  0  0  0  0  0  0
  185.4430  179.2560  144.6860 C   0  0  1  0  0  3  0  0  0  0  0  0
  188.8580  177.4730  144.6900 C   0  0  2  0  0  3  0  0  0  0  0  0
  184.6300  179.3080  143.3930 C   0  0  2  0  0  3  0  0  0  0  0  0
  184.5550  178.2860  141.0700 C   0  0  0  0  0  0  0  0  0  0  0  0
  190.1340  177.5210  143.8340 C   0  0  2  0  0  3  0  0  0  0  0  0
  187.7290  178.2970  144.0570 C   0  0  2  0  0  3  0  0  0  0  0  0
  189.9960  177.0740  138.2720 C   0  0  0  0  0  2  0  0  0  0  0  0
  183.3330  178.6920  143.8090 C   0  0  0  0  0  2  0  0  0  0  0  0
  184.5540  179.2590  145.7800 O   0  0  0  0  0  0  0  0  0  0  0  0
  191.3340  177.6150  140.1530 O   0  0  0  0  0  1  0  0  0  0  0  0
  186.6640  178.7120  140.3000 C   0  0  1  0  0  3  0  0  0  0  0  0
  188.5910  176.7120  137.8350 C   0  0  0  0  0  2  0  0  0  0  0  0
  188.9720  178.0510  140.3750 C   0  0  1  0  0  3  0  0  0  0  0  0
  186.6270  178.9090  141.8480 C   0  0  1  0  0  3  0  0  0  0  0  0
  183.3260  178.0130  141.0290 O   0  0  0  0  0  0  0  0  0  0  0  0
  185.2550  178.6150  142.2610 N   0  0  0  0  0  0  0  0  0  0  0  0
  183.2550  179.0560  145.2710 C   0  0  0  0  0  2  0  0  0  0  0  0
  185.7980  176.7050  144.6380 C   0  0  0  0  0  1  0  0  0  0  0  0
  187.6350  177.7460  138.4030 C   0  0  0  0  0  2  0  0  0  0  0  0
  187.6300  177.6910  139.8670 N   0  0  2  0  0  0  0  0  0  0  0  0
  186.4250  178.0840  144.8350 C   0  0  2  0  0  3  0  0  0  0  0  0
  190.7570  178.7760  143.8990 O   0  0  0  0  0  0  0  0  0  0  0  0
  192.0560  177.4470  145.1970 F   0  0  0  0  0  0  0  0  0  0  0  0
  192.0620  178.5050  144.3090 C   0  0  0  0  0  2  0  0  0  0  0  0
  1  5  1  1  0  0  0
  1  4  1  0  0  0  0
  2 16  1  6  0  0  0
  2 19  1  0  0  0  0
  3 17  1  0  0  0  0
  3 10  1  0  0  0  0
  4 12  1  0  0  0  0
  5 11  1  0  0  0  0
  7 27  1  0  0  0  0
  7 15  1  0  0  0  0
  8  6  1  0  0  0  0
  9 14  1  0  0  0  0
  9  7  1  0  0  0  0
 10 22  1  0  0  0  0
 11 28  1  0  0  0  0
 11  8  1  0  0  0  0
 12  8  1  0  0  0  0
 12 27  1  0  0  0  0
 13  2  1  0  0  0  0
 14 23  1  0  0  0  0
 17 20  1  0  0  0  0
 18 13  1  0  0  0  0
 18 25  1  0  0  0  0
 19  1  1  0  0  0  0
 20 22  1  0  0  0  0
 20  4  1  0  0  0  0
 21 10  2  0  0  0  0
 22  9  1  0  0  0  0
 23 15  1  0  0  0  0
 24 27  1  0  0  0  0
 25 26  1  0  0  0  0
 26 17  1  0  0  0  0
 26 19  1  0  0  0  0
 28 30  1  0  0  0  0
 30 29  1  0  0  0  0
M  END
>  <MODEL>
9

>  <REMARK>
 VINA RESULT:      -6.9      2.089      5.811
  Name = 
  2 active torsions:
  status: ('A' for Active; 'I' for Inactive)
    1  A    between atoms: C_11  and  O_28
    2  A    between atoms: O_28  and  C_30
                            x       y       z     vdW  Elec       q    Type
                         _______ _______ _______ _____ _____    ______ ____

>  <TORSDO>
F 2

$$$$
