=
 OpenBabel11122410343D

 30 35  0  0  1  0  0  0  0  0999 V2000
  187.3200  177.7300  143.0450 C   0  0  2  0  0  3  0  0  0  0  0  0
  184.9100  178.4950  142.7580 C   0  0  0  0  0  0  0  0  0  0  0  0
  187.0790  178.4160  147.0060 O   0  0  0  0  0  0  0  0  0  0  0  0
  188.4210  177.8200  144.1150 C   0  0  2  0  0  3  0  0  0  0  0  0
  187.6620  178.5970  141.9890 O   0  0  0  0  0  0  0  0  0  0  0  0
  191.0480  178.1530  141.5760 O   0  0  0  0  0  0  0  0  0  0  0  0
  190.7370  175.9490  145.3450 C   0  0  2  0  0  3  0  0  0  0  0  0
  189.9540  177.9530  142.0840 C   0  0  0  0  0  0  0  0  0  0  0  0
  190.4850  177.1130  146.2820 C   0  0  2  0  0  3  0  0  0  0  0  0
  188.4180  178.2580  147.2890 C   0  0  0  0  0  0  0  0  0  0  0  0
  188.6880  177.9710  141.2590 C   0  0  2  0  0  3  0  0  0  0  0  0
  189.8560  177.6020  143.5440 C   0  0  2  0  0  3  0  0  0  0  0  0
  183.6690  178.8590  143.2860 C   0  0  0  0  0  3  0  0  0  0  0  0
  191.1290  176.6690  147.5760 C   0  0  0  0  0  2  0  0  0  0  0  0
  192.1260  175.4670  145.6860 C   0  0  0  0  0  2  0  0  0  0  0  0
  185.0720  178.5070  141.3770 O   0  0  0  0  0  1  0  0  0  0  0  0
  186.7310  177.4920  145.9790 C   0  0  2  0  0  3  0  0  0  0  0  0
  183.4500  178.8220  144.6610 C   0  0  0  0  0  3  0  0  0  0  0  0
  185.9690  178.1190  143.6160 C   0  0  0  0  0  0  0  0  0  0  0  0
  188.0740  177.0180  145.3790 C   0  0  2  0  0  3  0  0  0  0  0  0
  189.0200  178.8980  148.1910 O   0  0  0  0  0  0  0  0  0  0  0  0
  189.0470  177.3290  146.4240 N   0  0  0  0  0  0  0  0  0  0  0  0
  192.3080  175.7960  147.1630 C   0  0  0  0  0  2  0  0  0  0  0  0
  189.8430  175.0880  143.1790 C   0  0  0  0  0  1  0  0  0  0  0  0
  184.4670  178.4040  145.5160 C   0  0  0  0  0  3  0  0  0  0  0  0
  185.7220  178.0450  145.0100 C   0  0  0  0  0  0  0  0  0  0  0  0
  190.5500  176.2540  143.8530 C   0  0  2  0  0  3  0  0  0  0  0  0
  188.8780  178.6830  139.9580 C   0  0  0  0  0  3  0  0  0  0  0  0
  188.4510  178.9270  137.6610 O   0  0  0  0  0  1  0  0  0  0  0  0
  188.2660  178.2580  138.8620 C   0  0  0  0  0  3  0  0  0  0  0  0
  1  5  1  6  0  0  0
  1 19  1  0  0  0  0
  1  4  1  0  0  0  0
  2 13  2  0  0  0  0
  2 19  1  0  0  0  0
  3 10  1  0  0  0  0
  4 20  1  0  0  0  0
  6  8  2  0  0  0  0
  7 15  1  0  0  0  0
  7  9  1  0  0  0  0
  8 12  1  0  0  0  0
  9 22  1  0  0  0  0
  9 14  1  0  0  0  0
 10 21  2  0  0  0  0
 11  5  1  0  0  0  0
 11  8  1  0  0  0  0
 12 27  1  0  0  0  0
 12  4  1  0  0  0  0
 13 18  1  0  0  0  0
 15 23  1  0  0  0  0
 16  2  1  0  0  0  0
 17  3  1  0  0  0  0
 18 25  2  0  0  0  0
 19 26  2  0  0  0  0
 20 17  1  0  0  0  0
 20 22  1  0  0  0  0
 22 10  1  0  0  0  0
 23 14  1  0  0  0  0
 24 27  1  0  0  0  0
 26 25  1  0  0  0  0
 26 17  1  0  0  0  0
 27  7  1  0  0  0  0
 28 11  1  0  0  0  0
 29 30  1  0  0  0  0
 30 28  2  0  0  0  0
M  END
>  <MODEL>
1

>  <REMARK>
 VINA RESULT:     -10.1      0.000      0.000
  Name = 
  1 active torsions:
  status: ('A' for Active; 'I' for Inactive)
    1  A    between atoms: C_11  and  C_28
                            x       y       z     vdW  Elec       q    Type
                         _______ _______ _______ _____ _____    ______ ____

>  <TORSDO>
F 1

$$$$
=
 OpenBabel11122410343D

 30 35  0  0  1  0  0  0  0  0999 V2000
  185.9480  178.0140  142.2740 C   0  0  2  0  0  3  0  0  0  0  0  0
  183.6810  178.4840  141.2170 C   0  0  0  0  0  0  0  0  0  0  0  0
  184.5530  179.2450  145.8450 O   0  0  0  0  0  0  0  0  0  0  0  0
  186.6920  178.3690  143.5710 C   0  0  2  0  0  3  0  0  0  0  0  0
  186.5290  178.7470  141.2200 O   0  0  0  0  0  0  0  0  0  0  0  0
  189.9110  178.5880  141.8250 O   0  0  0  0  0  0  0  0  0  0  0  0
  188.6620  176.9400  145.6820 C   0  0  2  0  0  3  0  0  0  0  0  0
  188.7310  178.3560  142.0410 C   0  0  0  0  0  0  0  0  0  0  0  0
  188.0900  178.1970  146.3050 C   0  0  2  0  0  3  0  0  0  0  0  0
  185.7630  179.2650  146.5040 C   0  0  0  0  0  0  0  0  0  0  0  0
  187.7520  178.1270  140.9130 C   0  0  2  0  0  3  0  0  0  0  0  0
  188.2400  178.2150  143.4580 C   0  0  2  0  0  3  0  0  0  0  0  0
  182.3230  178.7950  141.3180 C   0  0  0  0  0  3  0  0  0  0  0  0
  188.3630  178.0150  147.7810 C   0  0  0  0  0  2  0  0  0  0  0  0
  189.9200  176.6550  146.4650 C   0  0  0  0  0  2  0  0  0  0  0  0
  184.2280  178.3100  139.9500 O   0  0  0  0  0  1  0  0  0  0  0  0
  184.5620  178.1500  144.9330 C   0  0  2  0  0  3  0  0  0  0  0  0
  181.7240  178.9390  142.5680 C   0  0  0  0  0  3  0  0  0  0  0  0
  184.4720  178.3460  142.3810 C   0  0  0  0  0  0  0  0  0  0  0  0
  186.0440  177.7300  144.8100 C   0  0  2  0  0  3  0  0  0  0  0  0
  186.0470  180.0880  147.4140 O   0  0  0  0  0  0  0  0  0  0  0  0
  186.6610  178.2870  146.0120 N   0  0  0  0  0  0  0  0  0  0  0  0
  189.6560  177.2130  147.8580 C   0  0  0  0  0  2  0  0  0  0  0  0
  188.4700  175.6850  143.5330 C   0  0  0  0  0  1  0  0  0  0  0  0
  182.4780  178.7540  143.7250 C   0  0  0  0  0  3  0  0  0  0  0  0
  183.8420  178.4520  143.6470 C   0  0  0  0  0  0  0  0  0  0  0  0
  188.8910  177.0020  144.1660 C   0  0  2  0  0  3  0  0  0  0  0  0
  188.2650  178.6550  139.6110 C   0  0  0  0  0  3  0  0  0  0  0  0
  188.1900  178.7880  137.2670 O   0  0  0  0  0  1  0  0  0  0  0  0
  187.7050  178.2900  138.4680 C   0  0  0  0  0  3  0  0  0  0  0  0
  1  5  1  6  0  0  0
  1 19  1  0  0  0  0
  1  4  1  0  0  0  0
  2 13  2  0  0  0  0
  2 19  1  0  0  0  0
  3 10  1  0  0  0  0
  4 20  1  0  0  0  0
  6  8  2  0  0  0  0
  7  9  1  0  0  0  0
  7 15  1  0  0  0  0
  8 12  1  0  0  0  0
  9 14  1  0  0  0  0
 10 21  2  0  0  0  0
 11  5  1  0  0  0  0
 11  8  1  0  0  0  0
 12  4  1  0  0  0  0
 12 27  1  0  0  0  0
 13 18  1  0  0  0  0
 14 23  1  0  0  0  0
 15 23  1  0  0  0  0
 16  2  1  0  0  0  0
 17  3  1  0  0  0  0
 18 25  2  0  0  0  0
 19 26  2  0  0  0  0
 20 17  1  0  0  0  0
 20 22  1  0  0  0  0
 22  9  1  0  0  0  0
 22 10  1  0  0  0  0
 24 27  1  0  0  0  0
 26 25  1  0  0  0  0
 26 17  1  0  0  0  0
 27  7  1  0  0  0  0
 28 11  1  0  0  0  0
 29 30  1  0  0  0  0
 30 28  2  0  0  0  0
M  END
>  <MODEL>
2

>  <REMARK>
 VINA RESULT:      -9.5      1.476      2.182
  Name = 
  1 active torsions:
  status: ('A' for Active; 'I' for Inactive)
    1  A    between atoms: C_11  and  C_28
                            x       y       z     vdW  Elec       q    Type
                         _______ _______ _______ _____ _____    ______ ____

>  <TORSDO>
F 1

$$$$
=
 OpenBabel11122410343D

 30 35  0  0  1  0  0  0  0  0999 V2000
  188.0510  177.4140  140.3720 C   0  0  2  0  0  3  0  0  0  0  0  0
  187.3710  177.7880  142.7960 C   0  0  0  0  0  0  0  0  0  0  0  0
  191.9300  177.3790  141.4520 O   0  0  0  0  0  0  0  0  0  0  0  0
  189.3280  177.5130  139.5220 C   0  0  2  0  0  3  0  0  0  0  0  0
  187.2100  178.4900  140.0290 O   0  0  0  0  0  0  0  0  0  0  0  0
  187.4550  178.7130  136.6050 O   0  0  0  0  0  0  0  0  0  0  0  0
  190.7600  175.8920  137.1340 C   0  0  2  0  0  3  0  0  0  0  0  0
  187.6940  178.2450  137.7090 C   0  0  0  0  0  0  0  0  0  0  0  0
  191.7660  176.8230  137.7800 C   0  0  2  0  0  3  0  0  0  0  0  0
  192.4620  177.4090  140.1820 C   0  0  0  0  0  0  0  0  0  0  0  0
  186.6350  178.1810  138.7840 C   0  0  2  0  0  3  0  0  0  0  0  0
  189.0450  177.6440  137.9940 C   0  0  2  0  0  3  0  0  0  0  0  0
  187.6720  177.8380  144.1590 C   0  0  0  0  0  3  0  0  0  0  0  0
  193.0980  176.2880  137.3020 C   0  0  0  0  0  2  0  0  0  0  0  0
  191.3170  175.6080  135.7610 C   0  0  0  0  0  2  0  0  0  0  0  0
  186.0670  178.0570  142.3950 O   0  0  0  0  0  1  0  0  0  0  0  0
  190.7430  176.5920  141.4170 C   0  0  2  0  0  3  0  0  0  0  0  0
  188.9560  177.5350  144.6090 C   0  0  0  0  0  3  0  0  0  0  0  0
  188.3750  177.4630  141.8540 C   0  0  0  0  0  0  0  0  0  0  0  0
  190.3790  176.4640  139.9210 C   0  0  2  0  0  3  0  0  0  0  0  0
  193.5450  177.9860  139.8930 O   0  0  0  0  0  0  0  0  0  0  0  0
  191.6340  176.7600  139.2340 N   0  0  0  0  0  0  0  0  0  0  0  0
  192.8300  175.7130  135.9170 C   0  0  0  0  0  2  0  0  0  0  0  0
  188.3640  175.2620  137.4330 C   0  0  0  0  0  1  0  0  0  0  0  0
  189.9420  177.1630  143.6980 C   0  0  0  0  0  3  0  0  0  0  0  0
  189.6650  177.1160  142.3270 C   0  0  0  0  0  0  0  0  0  0  0  0
  189.3140  176.4040  137.1090 C   0  0  2  0  0  3  0  0  0  0  0  0
  185.5040  179.1210  138.5120 C   0  0  0  0  0  3  0  0  0  0  0  0
  183.4850  180.1520  139.1310 O   0  0  0  0  0  1  0  0  0  0  0  0
  184.5290  179.2760  139.3950 C   0  0  0  0  0  3  0  0  0  0  0  0
  1  5  1  6  0  0  0
  1 19  1  0  0  0  0
  2 13  1  0  0  0  0
  4 20  1  0  0  0  0
  4  1  1  0  0  0  0
  6  8  2  0  0  0  0
  7  9  1  0  0  0  0
  8 12  1  0  0  0  0
  8 11  1  0  0  0  0
  9 22  1  0  0  0  0
 10  3  1  0  0  0  0
 11  5  1  0  0  0  0
 12  4  1  0  0  0  0
 13 18  2  0  0  0  0
 14  9  1  0  0  0  0
 15 23  1  0  0  0  0
 15  7  1  0  0  0  0
 16  2  1  0  0  0  0
 17  3  1  0  0  0  0
 17 26  1  0  0  0  0
 19 26  1  0  0  0  0
 19  2  2  0  0  0  0
 20 17  1  0  0  0  0
 21 10  2  0  0  0  0
 22 20  1  0  0  0  0
 22 10  1  0  0  0  0
 23 14  1  0  0  0  0
 25 18  1  0  0  0  0
 26 25  2  0  0  0  0
 27  7  1  0  0  0  0
 27 24  1  0  0  0  0
 27 12  1  0  0  0  0
 28 11  1  0  0  0  0
 28 30  2  0  0  0  0
 29 30  1  0  0  0  0
M  END
>  <MODEL>
3

>  <REMARK>
 VINA RESULT:      -7.9      3.063      6.392
  Name = 
  1 active torsions:
  status: ('A' for Active; 'I' for Inactive)
    1  A    between atoms: C_11  and  C_28
                            x       y       z     vdW  Elec       q    Type
                         _______ _______ _______ _____ _____    ______ ____

>  <TORSDO>
F 1

$$$$
=
 OpenBabel11122410343D

 30 35  0  0  1  0  0  0  0  0999 V2000
  184.7630  178.8680  141.1730 C   0  0  2  0  0  3  0  0  0  0  0  0
  185.1750  178.8020  138.6620 C   0  0  0  0  0  0  0  0  0  0  0  0
  188.2710  176.9970  141.8110 O   0  0  0  0  0  0  0  0  0  0  0  0
  185.3200  178.1890  142.4340 C   0  0  2  0  0  3  0  0  0  0  0  0
  183.4810  178.3420  140.9190 O   0  0  0  0  0  0  0  0  0  0  0  0
  182.0150  178.1230  144.0230 O   0  0  0  0  0  0  0  0  0  0  0  0
  186.0560  178.9820  145.4680 C   0  0  2  0  0  3  0  0  0  0  0  0
  182.9080  178.3860  143.2320 C   0  0  0  0  0  0  0  0  0  0  0  0
  186.7180  177.6640  145.1220 C   0  0  2  0  0  3  0  0  0  0  0  0
  188.0910  176.7480  143.1540 C   0  0  0  0  0  0  0  0  0  0  0  0
  182.6060  178.9240  141.8520 C   0  0  2  0  0  3  0  0  0  0  0  0
  184.3470  178.2530  143.6510 C   0  0  2  0  0  3  0  0  0  0  0  0
  186.0070  178.5740  137.5630 C   0  0  0  0  0  3  0  0  0  0  0  0
  187.7660  177.5030  146.2010 C   0  0  0  0  0  2  0  0  0  0  0  0
  185.9870  179.0000  146.9760 C   0  0  0  0  0  2  0  0  0  0  0  0
  183.8650  179.2070  138.4300 O   0  0  0  0  0  1  0  0  0  0  0  0
  187.6830  178.2590  141.5110 C   0  0  2  0  0  3  0  0  0  0  0  0
  187.3380  178.2070  137.7490 C   0  0  0  0  0  3  0  0  0  0  0  0
  185.6660  178.6280  139.9770 C   0  0  0  0  0  0  0  0  0  0  0  0
  186.7770  178.5890  142.7180 C   0  0  2  0  0  3  0  0  0  0  0  0
  188.5420  175.7300  143.7410 O   0  0  0  0  0  0  0  0  0  0  0  0
  187.3050  177.7430  143.7860 N   0  0  0  0  0  0  0  0  0  0  0  0
  187.1820  178.1740  147.4370 C   0  0  0  0  0  2  0  0  0  0  0  0
  184.6160  180.6830  144.3430 C   0  0  0  0  0  1  0  0  0  0  0  0
  187.8500  178.0830  139.0390 C   0  0  0  0  0  3  0  0  0  0  0  0
  187.0320  178.2960  140.1550 C   0  0  0  0  0  0  0  0  0  0  0  0
  184.7000  179.2330  144.7960 C   0  0  2  0  0  3  0  0  0  0  0  0
  181.1930  178.6550  141.4440 C   0  0  0  0  0  3  0  0  0  0  0  0
  179.6110  177.5920  140.0690 O   0  0  0  0  0  1  0  0  0  0  0  0
  180.9270  177.8340  140.4380 C   0  0  0  0  0  3  0  0  0  0  0  0
  1 19  1  6  0  0  0
  1  4  1  0  0  0  0
  2 19  1  0  0  0  0
  3 10  1  0  0  0  0
  4 20  1  0  0  0  0
  4 12  1  0  0  0  0
  5  1  1  0  0  0  0
  5 11  1  0  0  0  0
  7 15  1  0  0  0  0
  8 12  1  0  0  0  0
  8  6  2  0  0  0  0
  9  7  1  0  0  0  0
  9 14  1  0  0  0  0
 10 21  2  0  0  0  0
 10 22  1  0  0  0  0
 11  8  1  0  0  0  0
 12 27  1  0  0  0  0
 13 18  1  0  0  0  0
 13  2  2  0  0  0  0
 14 23  1  0  0  0  0
 15 23  1  0  0  0  0
 16  2  1  0  0  0  0
 17  3  1  0  0  0  0
 17 20  1  0  0  0  0
 18 25  2  0  0  0  0
 19 26  2  0  0  0  0
 20 22  1  0  0  0  0
 22  9  1  0  0  0  0
 24 27  1  0  0  0  0
 25 26  1  0  0  0  0
 26 17  1  0  0  0  0
 27  7  1  0  0  0  0
 28 11  1  0  0  0  0
 29 30  1  0  0  0  0
 30 28  2  0  0  0  0
M  END
>  <MODEL>
4

>  <REMARK>
 VINA RESULT:      -7.8      2.689      5.908
  Name = 
  1 active torsions:
  status: ('A' for Active; 'I' for Inactive)
    1  A    between atoms: C_11  and  C_28
                            x       y       z     vdW  Elec       q    Type
                         _______ _______ _______ _____ _____    ______ ____

>  <TORSDO>
F 1

$$$$
=
 OpenBabel11122410343D

 30 35  0  0  1  0  0  0  0  0999 V2000
  187.7550  178.0510  142.4680 C   0  0  2  0  0  3  0  0  0  0  0  0
  185.2970  178.7100  142.5450 C   0  0  0  0  0  0  0  0  0  0  0  0
  187.4120  177.1820  138.5520 O   0  0  0  0  0  0  0  0  0  0  0  0
  188.6950  177.2820  141.5280 C   0  0  2  0  0  3  0  0  0  0  0  0
  187.5180  177.2520  143.6040 O   0  0  0  0  0  0  0  0  0  0  0  0
  190.5850  175.8820  144.3430 O   0  0  0  0  0  0  0  0  0  0  0  0
  191.7200  177.5040  140.4400 C   0  0  2  0  0  3  0  0  0  0  0  0
  189.7990  176.5740  143.7130 C   0  0  0  0  0  0  0  0  0  0  0  0
  190.9380  176.5570  139.5520 C   0  0  2  0  0  3  0  0  0  0  0  0
  188.6410  176.5780  138.4020 C   0  0  0  0  0  0  0  0  0  0  0  0
  188.6750  177.3150  144.3990 C   0  0  2  0  0  3  0  0  0  0  0  0
  189.9890  176.7670  142.2320 C   0  0  2  0  0  3  0  0  0  0  0  0
  184.0870  179.0040  141.9120 C   0  0  0  0  0  3  0  0  0  0  0  0
  191.7930  176.4540  138.3080 C   0  0  0  0  0  2  0  0  0  0  0  0
  193.1670  177.1400  140.2180 C   0  0  0  0  0  2  0  0  0  0  0  0
  185.3480  178.7610  143.9340 O   0  0  0  0  0  1  0  0  0  0  0  0
  187.5540  178.2530  139.4800 C   0  0  2  0  0  3  0  0  0  0  0  0
  184.0020  179.0050  140.5210 C   0  0  0  0  0  3  0  0  0  0  0  0
  186.4410  178.3760  141.7830 C   0  0  0  0  0  0  0  0  0  0  0  0
  188.9050  178.0070  140.1890 C   0  0  2  0  0  3  0  0  0  0  0  0
  188.8570  175.6240  137.6080 O   0  0  0  0  0  0  0  0  0  0  0  0
  189.6190  177.1200  139.2720 N   0  0  0  0  0  0  0  0  0  0  0  0
  193.2290  176.6100  138.7910 C   0  0  0  0  0  2  0  0  0  0  0  0
  191.3030  178.9310  142.4450 C   0  0  0  0  0  1  0  0  0  0  0  0
  185.1320  178.7290  139.7560 C   0  0  0  0  0  3  0  0  0  0  0  0
  186.3520  178.4220  140.3690 C   0  0  0  0  0  0  0  0  0  0  0  0
  191.3130  177.5040  141.9190 C   0  0  2  0  0  3  0  0  0  0  0  0
  188.3790  176.7530  145.7530 C   0  0  0  0  0  3  0  0  0  0  0  0
  188.3010  176.9460  148.0930 O   0  0  0  0  0  1  0  0  0  0  0  0
  188.5800  177.4790  146.8430 C   0  0  0  0  0  3  0  0  0  0  0  0
  1 19  1  6  0  0  0
  1  5  1  0  0  0  0
  2 16  1  0  0  0  0
  3 17  1  0  0  0  0
  4 12  1  0  0  0  0
  4  1  1  0  0  0  0
  5 11  1  0  0  0  0
  7 27  1  0  0  0  0
  8  6  2  0  0  0  0
  8 11  1  0  0  0  0
  9  7  1  0  0  0  0
 10  3  1  0  0  0  0
 10 22  1  0  0  0  0
 11 28  1  0  0  0  0
 12  8  1  0  0  0  0
 13  2  1  0  0  0  0
 14 23  1  0  0  0  0
 14  9  1  0  0  0  0
 15  7  1  0  0  0  0
 17 20  1  0  0  0  0
 17 26  1  0  0  0  0
 18 13  2  0  0  0  0
 19  2  2  0  0  0  0
 20  4  1  0  0  0  0
 21 10  2  0  0  0  0
 22  9  1  0  0  0  0
 22 20  1  0  0  0  0
 23 15  1  0  0  0  0
 25 26  2  0  0  0  0
 25 18  1  0  0  0  0
 26 19  1  0  0  0  0
 27 12  1  0  0  0  0
 27 24  1  0  0  0  0
 28 30  2  0  0  0  0
 30 29  1  0  0  0  0
M  END
>  <MODEL>
5

>  <REMARK>
 VINA RESULT:      -7.4      2.614      5.867
  Name = 
  1 active torsions:
  status: ('A' for Active; 'I' for Inactive)
    1  A    between atoms: C_11  and  C_28
                            x       y       z     vdW  Elec       q    Type
                         _______ _______ _______ _____ _____    ______ ____

>  <TORSDO>
F 1

$$$$
