=
 OpenBabel11122410553D

 31 35  0  0  1  0  0  0  0  0999 V2000
  191.2030  176.0190  143.6250 C   0  0  0  0  0  0  0  0  0  0  0  0
  187.5120  176.8650  143.8600 C   0  0  2  0  0  3  0  0  0  0  0  0
  187.3840  177.5340  145.2220 C   0  0  0  0  0  0  0  0  0  0  0  0
  188.2500  178.0740  147.4310 C   0  0  0  0  0  0  0  0  0  0  0  0
  188.9310  176.8430  143.3290 C   0  0  0  0  0  0  0  0  0  0  0  0
  191.6610  176.9110  142.6560 C   0  0  0  0  0  3  0  0  0  0  0  0
  188.4070  177.4680  146.1810 C   0  0  0  0  0  3  0  0  0  0  0  0
  186.9330  178.8450  142.4080 C   0  0  2  0  0  3  0  0  0  0  0  0
  192.0760  175.1970  144.2560 F   0  0  0  0  0  0  0  0  0  0  0  0
  185.1210  178.2310  144.6020 N   0  0  0  0  0  2  0  0  0  0  0  0
  189.3470  178.0070  148.4310 C   0  0  0  0  0  1  0  0  0  0  0  0
  188.2990  178.6530  141.2310 S   0  0  0  0  0  0  0  0  0  0  0  0
  186.4970  177.4470  142.8580 C   0  0  2  0  0  3  0  0  0  0  0  0
  189.8490  175.9900  143.9620 C   0  0  0  0  0  3  0  0  0  0  0  0
  187.0640  178.7440  147.7390 C   0  0  0  0  0  3  0  0  0  0  0  0
  189.3940  177.7150  142.3120 C   0  0  0  0  0  0  0  0  0  0  0  0
  190.7570  177.7460  141.9980 C   0  0  0  0  0  3  0  0  0  0  0  0
  185.1460  177.4340  143.4400 N   0  0  0  0  0  2  0  0  0  0  0  0
  186.1800  178.1780  145.5590 C   0  0  0  0  0  0  0  0  0  0  0  0
  186.0280  178.7960  146.8030 C   0  0  0  0  0  3  0  0  0  0  0  0
  185.7970  179.5900  141.7160 C   0  0  0  0  0  2  0  0  0  0  0  0
  185.8640  178.8870  139.4200 O   0  0  0  0  0  1  0  0  0  0  0  0
  185.1730  178.7300  140.6260 C   0  0  2  0  0  3  0  0  0  0  0  0
  182.4300  177.3830  138.4560 C   0  0  1  0  0  3  0  0  0  0  0  0
  182.9390  177.8500  140.8530 C   0  0  0  0  0  2  0  0  0  0  0  0
  184.0850  180.7050  138.8440 O   0  0  0  0  0  1  0  0  0  0  0  0
  182.4780  176.4200  137.4490 O   0  0  0  0  0  1  0  0  0  0  0  0
  182.9510  176.7850  139.7540 C   0  0  0  0  0  2  0  0  0  0  0  0
  183.3040  179.6010  139.1950 C   0  0  2  0  0  3  0  0  0  0  0  0
  183.7360  179.0290  140.4920 N   0  0  0  0  0  0  0  0  0  0  0  0
  183.2860  178.5750  138.0610 C   0  0  0  0  0  2  0  0  0  0  0  0
  1 14  1  0  0  0  0
  1  9  1  0  0  0  0
  2  5  1  6  0  0  0
  2  3  1  0  0  0  0
  3 19  2  0  0  0  0
  3  7  1  0  0  0  0
  4 15  1  0  0  0  0
  4 11  1  0  0  0  0
  5 14  2  0  0  0  0
  6  1  2  0  0  0  0
  7  4  2  0  0  0  0
  8 21  1  6  0  0  0
  8 13  1  0  0  0  0
 10 19  1  0  0  0  0
 12 16  1  0  0  0  0
 12  8  1  0  0  0  0
 13 18  1  1  0  0  0
 13  2  1  0  0  0  0
 16  5  1  0  0  0  0
 17 16  2  0  0  0  0
 17  6  1  0  0  0  0
 18 10  1  0  0  0  0
 19 20  1  0  0  0  0
 20 15  2  0  0  0  0
 23 22  1  6  0  0  0
 23 21  1  0  0  0  0
 24 27  1  6  0  0  0
 24 28  1  0  0  0  0
 28 25  1  0  0  0  0
 29 26  1  6  0  0  0
 29 30  1  0  0  0  0
 30 23  1  0  0  0  0
 30 25  1  0  0  0  0
 31 24  1  0  0  0  0
 31 29  1  0  0  0  0
M  END
>  <MODEL>
1

>  <REMARK>
 VINA RESULT:      -9.3      0.000      0.000
  Name = 
  3 active torsions:
  status: ('A' for Active; 'I' for Inactive)
    1  A    between atoms: C_5  and  C_16
    2  A    between atoms: C_5  and  N_30
    3  A    between atoms: C_10  and  C_16
                            x       y       z     vdW  Elec       q    Type
                         _______ _______ _______ _____ _____    ______ ____

>  <TORSDO>
F 3

$$$$
=
 OpenBabel11122410553D

 31 35  0  0  1  0  0  0  0  0999 V2000
  192.9380  175.7210  136.1230 C   0  0  0  0  0  0  0  0  0  0  0  0
  189.7070  177.3520  137.2620 C   0  0  2  0  0  3  0  0  0  0  0  0
  188.6400  176.3300  136.8930 C   0  0  0  0  0  0  0  0  0  0  0  0
  187.9030  174.3420  135.6980 C   0  0  0  0  0  0  0  0  0  0  0  0
  191.1040  176.7680  137.3350 C   0  0  0  0  0  0  0  0  0  0  0  0
  193.5610  175.4000  137.3290 C   0  0  0  0  0  3  0  0  0  0  0  0
  188.9100  175.2510  136.0360 C   0  0  0  0  0  3  0  0  0  0  0  0
  189.4700  177.2590  139.7720 C   0  0  2  0  0  3  0  0  0  0  0  0
  193.5070  175.3570  134.9490 F   0  0  0  0  0  0  0  0  0  0  0  0
  187.0340  177.6150  138.2190 N   0  0  0  0  0  2  0  0  0  0  0  0
  188.2070  173.1980  134.8000 C   0  0  0  0  0  1  0  0  0  0  0  0
  191.2400  177.1410  140.1490 S   0  0  0  0  0  0  0  0  0  0  0  0
  189.3100  178.1370  138.5260 C   0  0  2  0  0  3  0  0  0  0  0  0
  191.7160  176.3950  136.1280 C   0  0  0  0  0  3  0  0  0  0  0  0
  186.6130  174.5080  136.2070 C   0  0  0  0  0  3  0  0  0  0  0  0
  191.7630  176.4810  138.5560 C   0  0  0  0  0  0  0  0  0  0  0  0
  192.9790  175.7890  138.5370 C   0  0  0  0  0  3  0  0  0  0  0  0
  187.9490  178.6740  138.3820 N   0  0  0  0  0  2  0  0  0  0  0  0
  187.3280  176.5080  137.3660 C   0  0  0  0  0  0  0  0  0  0  0  0
  186.3250  175.5910  137.0400 C   0  0  0  0  0  3  0  0  0  0  0  0
  188.7560  177.8620  140.9760 C   0  0  0  0  0  2  0  0  0  0  0  0
  188.5120  176.1300  142.6230 O   0  0  0  0  0  1  0  0  0  0  0  0
  189.2720  177.2490  142.2710 C   0  0  2  0  0  3  0  0  0  0  0  0
  191.1170  177.5270  145.5220 C   0  0  1  0  0  3  0  0  0  0  0  0
  190.6570  178.8350  143.4490 C   0  0  0  0  0  2  0  0  0  0  0  0
  187.5240  177.2650  144.5520 O   0  0  0  0  0  1  0  0  0  0  0  0
  191.9940  176.6310  146.1320 O   0  0  0  0  0  1  0  0  0  0  0  0
  191.6370  177.8830  144.1390 C   0  0  0  0  0  2  0  0  0  0  0  0
  188.7930  177.8360  144.6640 C   0  0  2  0  0  3  0  0  0  0  0  0
  189.3090  178.2620  143.3420 N   0  0  0  0  0  0  0  0  0  0  0  0
  189.7410  176.8900  145.4040 C   0  0  0  0  0  2  0  0  0  0  0  0
  1 14  2  0  0  0  0
  1  6  1  0  0  0  0
  2  3  1  1  0  0  0
  2  5  1  0  0  0  0
  2 13  1  0  0  0  0
  3 19  1  0  0  0  0
  4  7  1  0  0  0  0
  4 15  2  0  0  0  0
  5 16  2  0  0  0  0
  6 17  2  0  0  0  0
  7  3  2  0  0  0  0
  8 12  1  0  0  0  0
  8 21  1  1  0  0  0
  9  1  1  0  0  0  0
 10 18  1  0  0  0  0
 11  4  1  0  0  0  0
 13 18  1  6  0  0  0
 13  8  1  0  0  0  0
 14  5  1  0  0  0  0
 15 20  1  0  0  0  0
 16 12  1  0  0  0  0
 17 16  1  0  0  0  0
 19 10  1  0  0  0  0
 20 19  2  0  0  0  0
 21 23  1  0  0  0  0
 23 22  1  1  0  0  0
 23 30  1  0  0  0  0
 24 27  1  6  0  0  0
 25 28  1  0  0  0  0
 28 24  1  0  0  0  0
 29 26  1  6  0  0  0
 29 31  1  0  0  0  0
 30 25  1  0  0  0  0
 30 29  1  0  0  0  0
 31 24  1  0  0  0  0
M  END
>  <MODEL>
2

>  <REMARK>
 VINA RESULT:      -8.2      5.067      8.338
  Name = 
  3 active torsions:
  status: ('A' for Active; 'I' for Inactive)
    1  A    between atoms: C_5  and  C_16
    2  A    between atoms: C_5  and  N_30
    3  A    between atoms: C_10  and  C_16
                            x       y       z     vdW  Elec       q    Type
                         _______ _______ _______ _____ _____    ______ ____

>  <TORSDO>
F 3

$$$$
=
 OpenBabel11122410553D

 31 35  0  0  1  0  0  0  0  0999 V2000
  180.1750  178.3760  142.3220 C   0  0  0  0  0  0  0  0  0  0  0  0
  183.2060  179.0980  140.1560 C   0  0  2  0  0  3  0  0  0  0  0  0
  184.3820  178.7610  141.0630 C   0  0  0  0  0  0  0  0  0  0  0  0
  185.3280  178.2870  143.2540 C   0  0  0  0  0  0  0  0  0  0  0  0
  181.8990  178.4740  140.6050 C   0  0  0  0  0  0  0  0  0  0  0  0
  179.6410  177.2320  141.7300 C   0  0  0  0  0  3  0  0  0  0  0  0
  184.2250  178.5730  142.4450 C   0  0  0  0  0  3  0  0  0  0  0  0
  183.5390  177.2980  138.4190 C   0  0  2  0  0  3  0  0  0  0  0  0
  179.6180  178.8790  143.4500 F   0  0  0  0  0  0  0  0  0  0  0  0
  185.8540  178.9190  139.1140 N   0  0  0  0  0  2  0  0  0  0  0  0
  185.1440  178.0780  144.7140 C   0  0  0  0  0  1  0  0  0  0  0  0
  181.8120  176.7460  138.3510 S   0  0  0  0  0  0  0  0  0  0  0  0
  183.5410  178.8070  138.6810 C   0  0  2  0  0  3  0  0  0  0  0  0
  181.3000  178.9880  141.7660 C   0  0  0  0  0  3  0  0  0  0  0  0
  186.6030  178.1960  142.6910 C   0  0  0  0  0  3  0  0  0  0  0  0
  181.3240  177.3390  139.9810 C   0  0  0  0  0  0  0  0  0  0  0  0
  180.2080  176.7250  140.5600 C   0  0  0  0  0  3  0  0  0  0  0  0
  184.8160  179.4440  138.3170 N   0  0  0  0  0  2  0  0  0  0  0  0
  185.6760  178.7050  140.5140 C   0  0  0  0  0  0  0  0  0  0  0  0
  186.7770  178.4050  141.3210 C   0  0  0  0  0  3  0  0  0  0  0  0
  184.2090  176.9580  137.0930 C   0  0  0  0  0  2  0  0  0  0  0  0
  186.4270  176.1600  137.5550 O   0  0  0  0  0  1  0  0  0  0  0  0
  185.1260  175.7530  137.2450 C   0  0  2  0  0  3  0  0  0  0  0  0
  183.6590  172.3880  136.4860 C   0  0  1  0  0  3  0  0  0  0  0  0
  183.6810  174.7240  135.6100 C   0  0  0  0  0  2  0  0  0  0  0  0
  187.1130  173.7990  136.5410 O   0  0  0  0  0  1  0  0  0  0  0  0
  182.9960  171.4920  137.3230 O   0  0  0  0  0  1  0  0  0  0  0  0
  182.9340  173.7240  136.4960 C   0  0  0  0  0  2  0  0  0  0  0  0
  185.7980  173.6190  136.1070 C   0  0  2  0  0  3  0  0  0  0  0  0
  185.0740  174.9100  136.0370 N   0  0  0  0  0  0  0  0  0  0  0  0
  185.0880  172.5770  136.9720 C   0  0  0  0  0  2  0  0  0  0  0  0
  1  9  1  0  0  0  0
  2  5  1  1  0  0  0
  2  3  1  0  0  0  0
  3  7  1  0  0  0  0
  4 11  1  0  0  0  0
  5 14  2  0  0  0  0
  6  1  2  0  0  0  0
  7  4  2  0  0  0  0
  8 21  1  6  0  0  0
  8 13  1  0  0  0  0
 10 19  1  0  0  0  0
 12  8  1  0  0  0  0
 12 16  1  0  0  0  0
 13 18  1  1  0  0  0
 13  2  1  0  0  0  0
 14  1  1  0  0  0  0
 15  4  1  0  0  0  0
 16 17  2  0  0  0  0
 16  5  1  0  0  0  0
 17  6  1  0  0  0  0
 18 10  1  0  0  0  0
 19  3  2  0  0  0  0
 19 20  1  0  0  0  0
 20 15  2  0  0  0  0
 21 23  1  0  0  0  0
 23 22  1  6  0  0  0
 24 28  1  0  0  0  0
 24 31  1  0  0  0  0
 24 27  1  1  0  0  0
 25 30  1  0  0  0  0
 25 28  1  0  0  0  0
 29 26  1  1  0  0  0
 29 31  1  0  0  0  0
 30 29  1  0  0  0  0
 30 23  1  0  0  0  0
M  END
>  <MODEL>
3

>  <REMARK>
 VINA RESULT:      -7.6      4.184      7.081
  Name = 
  3 active torsions:
  status: ('A' for Active; 'I' for Inactive)
    1  A    between atoms: C_5  and  C_16
    2  A    between atoms: C_5  and  N_30
    3  A    between atoms: C_10  and  C_16
                            x       y       z     vdW  Elec       q    Type
                         _______ _______ _______ _____ _____    ______ ____

>  <TORSDO>
F 3

$$$$
=
 OpenBabel11122410553D

 31 35  0  0  1  0  0  0  0  0999 V2000
  179.8970  178.9070  142.7500 C   0  0  0  0  0  0  0  0  0  0  0  0
  183.0940  179.2510  140.7360 C   0  0  2  0  0  3  0  0  0  0  0  0
  184.1860  178.8830  141.7320 C   0  0  0  0  0  0  0  0  0  0  0  0
  184.9640  178.4800  144.0020 C   0  0  0  0  0  0  0  0  0  0  0  0
  181.7180  178.7610  141.1400 C   0  0  0  0  0  0  0  0  0  0  0  0
  179.3060  177.7720  142.1950 C   0  0  0  0  0  3  0  0  0  0  0  0
  183.9350  178.7980  143.1110 C   0  0  0  0  0  3  0  0  0  0  0  0
  183.3790  177.3230  139.1340 C   0  0  2  0  0  3  0  0  0  0  0  0
  179.3190  179.5230  143.8080 F   0  0  0  0  0  0  0  0  0  0  0  0
  185.7740  178.8010  139.8720 N   0  0  0  0  0  2  0  0  0  0  0  0
  184.6800  178.3800  145.4580 C   0  0  0  0  0  1  0  0  0  0  0  0
  181.6200  176.9030  138.9920 S   0  0  0  0  0  0  0  0  0  0  0  0
  183.4880  178.8410  139.3040 C   0  0  2  0  0  3  0  0  0  0  0  0
  181.0970  179.3930  142.2290 C   0  0  0  0  0  3  0  0  0  0  0  0
  186.2580  178.2550  143.5250 C   0  0  0  0  0  3  0  0  0  0  0  0
  181.0900  177.6360  140.5500 C   0  0  0  0  0  0  0  0  0  0  0  0
  179.8960  177.1480  141.0950 C   0  0  0  0  0  3  0  0  0  0  0  0
  184.8300  179.3520  138.9830 N   0  0  0  0  0  2  0  0  0  0  0  0
  185.5000  178.6920  141.2690 C   0  0  0  0  0  0  0  0  0  0  0  0
  186.5260  178.3610  142.1590 C   0  0  0  0  0  3  0  0  0  0  0  0
  184.0940  176.8470  137.8740 C   0  0  0  0  0  2  0  0  0  0  0  0
  184.0260  174.4460  137.8890 O   0  0  0  0  0  1  0  0  0  0  0  0
  183.4410  175.5850  137.3270 C   0  0  2  0  0  3  0  0  0  0  0  0
  181.2100  176.9430  134.6390 C   0  0  1  0  0  3  0  0  0  0  0  0
  183.6030  176.9480  135.3430 C   0  0  0  0  0  2  0  0  0  0  0  0
  182.3010  173.5280  135.6750 O   0  0  0  0  0  1  0  0  0  0  0  0
  179.9910  177.6120  134.7420 O   0  0  0  0  0  1  0  0  0  0  0  0
  182.2720  177.7000  135.4190 C   0  0  0  0  0  2  0  0  0  0  0  0
  182.4190  174.8230  135.1650 C   0  0  2  0  0  3  0  0  0  0  0  0
  183.4940  175.5760  135.8540 N   0  0  0  0  0  0  0  0  0  0  0  0
  181.0660  175.5370  135.2010 C   0  0  0  0  0  2  0  0  0  0  0  0
  1  9  1  0  0  0  0
  2  5  1  1  0  0  0
  2  3  1  0  0  0  0
  3  7  1  0  0  0  0
  4 11  1  0  0  0  0
  5 14  2  0  0  0  0
  6  1  2  0  0  0  0
  7  4  2  0  0  0  0
  8 21  1  6  0  0  0
  8 13  1  0  0  0  0
 10 19  1  0  0  0  0
 12  8  1  0  0  0  0
 12 16  1  0  0  0  0
 13 18  1  1  0  0  0
 13  2  1  0  0  0  0
 14  1  1  0  0  0  0
 15  4  1  0  0  0  0
 16 17  2  0  0  0  0
 16  5  1  0  0  0  0
 17  6  1  0  0  0  0
 18 10  1  0  0  0  0
 19  3  2  0  0  0  0
 19 20  1  0  0  0  0
 20 15  2  0  0  0  0
 23 21  1  0  0  0  0
 23 22  1  1  0  0  0
 24 27  1  1  0  0  0
 24 31  1  0  0  0  0
 24 28  1  0  0  0  0
 25 28  1  0  0  0  0
 25 30  1  0  0  0  0
 29 31  1  0  0  0  0
 29 26  1  1  0  0  0
 29 30  1  0  0  0  0
 30 23  1  0  0  0  0
M  END
>  <MODEL>
4

>  <REMARK>
 VINA RESULT:      -7.6      4.233      6.922
  Name = 
  3 active torsions:
  status: ('A' for Active; 'I' for Inactive)
    1  A    between atoms: C_5  and  C_16
    2  A    between atoms: C_5  and  N_30
    3  A    between atoms: C_10  and  C_16
                            x       y       z     vdW  Elec       q    Type
                         _______ _______ _______ _____ _____    ______ ____

>  <TORSDO>
F 3

$$$$
=
 OpenBabel11122410553D

 31 35  0  0  1  0  0  0  0  0999 V2000
  187.6490  177.9210  135.9570 C   0  0  0  0  0  0  0  0  0  0  0  0
  185.7470  178.7380  139.1370 C   0  0  2  0  0  3  0  0  0  0  0  0
  184.5750  177.7660  139.1120 C   0  0  0  0  0  0  0  0  0  0  0  0
  183.1350  176.1780  137.9600 C   0  0  0  0  0  0  0  0  0  0  0  0
  186.8940  178.3230  138.2370 C   0  0  0  0  0  0  0  0  0  0  0  0
  188.8080  177.3140  136.4400 C   0  0  0  0  0  3  0  0  0  0  0  0
  184.2310  177.0460  137.9570 C   0  0  0  0  0  3  0  0  0  0  0  0
  186.9390  177.8420  141.1720 C   0  0  2  0  0  3  0  0  0  0  0  0
  187.4370  178.0090  134.6220 F   0  0  0  0  0  0  0  0  0  0  0  0
  184.0910  178.3820  141.4310 N   0  0  0  0  0  2  0  0  0  0  0  0
  182.7910  175.4130  136.7340 C   0  0  0  0  0  1  0  0  0  0  0  0
  188.6030  177.8150  140.4500 S   0  0  0  0  0  0  0  0  0  0  0  0
  186.1880  179.0390  140.5820 C   0  0  2  0  0  3  0  0  0  0  0  0
  186.6980  178.4160  136.8500 C   0  0  0  0  0  3  0  0  0  0  0  0
  182.3640  176.0290  139.1160 C   0  0  0  0  0  3  0  0  0  0  0  0
  188.0950  177.7480  138.7220 C   0  0  0  0  0  0  0  0  0  0  0  0
  189.0310  177.2390  137.8160 C   0  0  0  0  0  3  0  0  0  0  0  0
  185.0270  179.4360  141.3930 N   0  0  0  0  0  2  0  0  0  0  0  0
  183.7680  177.6370  140.2570 C   0  0  0  0  0  0  0  0  0  0  0  0
  182.6810  176.7590  140.2640 C   0  0  0  0  0  3  0  0  0  0  0  0
  187.0700  177.9540  142.6860 C   0  0  0  0  0  2  0  0  0  0  0  0
  188.2520  176.1230  143.6980 O   0  0  0  0  0  1  0  0  0  0  0  0
  188.4090  177.4020  143.1550 C   0  0  2  0  0  3  0  0  0  0  0  0
  191.2380  177.0980  145.5960 C   0  0  1  0  0  3  0  0  0  0  0  0
  190.4550  178.5480  143.7230 C   0  0  0  0  0  2  0  0  0  0  0  0
  187.5810  177.7850  145.8800 O   0  0  0  0  0  1  0  0  0  0  0  0
  192.0150  175.9900  145.9300 O   0  0  0  0  0  1  0  0  0  0  0  0
  191.3390  177.3570  144.1010 C   0  0  0  0  0  2  0  0  0  0  0  0
  188.9150  178.0120  145.5370 C   0  0  2  0  0  3  0  0  0  0  0  0
  189.0510  178.3370  144.0970 N   0  0  0  0  0  0  0  0  0  0  0  0
  189.7880  176.8340  145.9730 C   0  0  0  0  0  2  0  0  0  0  0  0
  1  6  2  0  0  0  0
  1 14  1  0  0  0  0
  2  5  1  6  0  0  0
  2 13  1  0  0  0  0
  3  2  1  0  0  0  0
  3 19  1  0  0  0  0
  4 15  2  0  0  0  0
  5 16  1  0  0  0  0
  6 17  1  0  0  0  0
  7  4  1  0  0  0  0
  7  3  2  0  0  0  0
  8 21  1  1  0  0  0
  9  1  1  0  0  0  0
 11  4  1  0  0  0  0
 12  8  1  0  0  0  0
 13  8  1  0  0  0  0
 13 18  1  1  0  0  0
 14  5  2  0  0  0  0
 15 20  1  0  0  0  0
 16 12  1  0  0  0  0
 17 16  2  0  0  0  0
 18 10  1  0  0  0  0
 19 20  2  0  0  0  0
 19 10  1  0  0  0  0
 21 23  1  0  0  0  0
 23 22  1  1  0  0  0
 23 30  1  0  0  0  0
 24 27  1  6  0  0  0
 24 31  1  0  0  0  0
 25 30  1  0  0  0  0
 25 28  1  0  0  0  0
 28 24  1  0  0  0  0
 29 26  1  6  0  0  0
 29 31  1  0  0  0  0
 30 29  1  0  0  0  0
M  END
>  <MODEL>
5

>  <REMARK>
 VINA RESULT:      -7.6      3.860      7.761
  Name = 
  3 active torsions:
  status: ('A' for Active; 'I' for Inactive)
    1  A    between atoms: C_5  and  C_16
    2  A    between atoms: C_5  and  N_30
    3  A    between atoms: C_10  and  C_16
                            x       y       z     vdW  Elec       q    Type
                         _______ _______ _______ _____ _____    ______ ____

>  <TORSDO>
F 3

$$$$
=
 OpenBabel11122410553D

 31 35  0  0  1  0  0  0  0  0999 V2000
  189.4890  177.8470  143.1450 C   0  0  0  0  0  0  0  0  0  0  0  0
  186.9010  178.9780  140.6100 C   0  0  2  0  0  3  0  0  0  0  0  0
  187.1960  178.1160  139.3900 C   0  0  0  0  0  0  0  0  0  0  0  0
  188.6350  176.6150  138.1260 C   0  0  0  0  0  0  0  0  0  0  0  0
  187.4780  178.4200  141.8960 C   0  0  0  0  0  0  0  0  0  0  0  0
  188.7190  177.1600  144.0830 C   0  0  0  0  0  3  0  0  0  0  0  0
  188.3840  177.3790  139.2700 C   0  0  0  0  0  3  0  0  0  0  0  0
  184.6140  178.0720  141.1710 C   0  0  2  0  0  3  0  0  0  0  0  0
  190.8360  177.8920  143.2760 F   0  0  0  0  0  0  0  0  0  0  0  0
  185.0850  178.8800  138.4150 N   0  0  0  0  0  2  0  0  0  0  0  0
  189.8910  175.8290  138.0200 C   0  0  0  0  0  1  0  0  0  0  0  0
  184.8990  177.8610  142.9500 S   0  0  0  0  0  0  0  0  0  0  0  0
  185.3990  179.3040  140.7110 C   0  0  2  0  0  3  0  0  0  0  0  0
  188.8720  178.4670  142.0570 C   0  0  0  0  0  3  0  0  0  0  0  0
  187.7050  176.5900  137.0850 C   0  0  0  0  0  3  0  0  0  0  0  0
  186.6970  177.7610  142.8770 C   0  0  0  0  0  0  0  0  0  0  0  0
  187.3300  177.1280  143.9530 C   0  0  0  0  0  3  0  0  0  0  0  0
  184.9120  179.8410  139.4310 N   0  0  0  0  0  2  0  0  0  0  0  0
  186.2860  178.1140  138.3180 C   0  0  0  0  0  0  0  0  0  0  0  0
  186.5300  177.3390  137.1800 C   0  0  0  0  0  3  0  0  0  0  0  0
  183.1180  178.2410  140.9360 C   0  0  0  0  0  2  0  0  0  0  0  0
  183.4350  176.4950  139.3160 O   0  0  0  0  0  1  0  0  0  0  0  0
  182.5360  177.0100  140.2560 C   0  0  2  0  0  3  0  0  0  0  0  0
  179.2870  178.2530  141.6520 C   0  0  1  0  0  3  0  0  0  0  0  0
  180.9180  178.7470  139.8300 C   0  0  0  0  0  2  0  0  0  0  0  0
  180.3960  175.1130  139.9680 O   0  0  0  0  0  1  0  0  0  0  0  0
  178.9310  178.5380  142.9700 O   0  0  0  0  0  1  0  0  0  0  0  0
  180.4970  179.0860  141.2630 C   0  0  0  0  0  2  0  0  0  0  0  0
  180.0890  176.4690  140.1010 C   0  0  2  0  0  3  0  0  0  0  0  0
  181.2210  177.3200  139.6650 N   0  0  0  0  0  0  0  0  0  0  0  0
  179.6200  176.7750  141.5240 C   0  0  0  0  0  2  0  0  0  0  0  0
  1  9  1  0  0  0  0
  1  6  1  0  0  0  0
  2  3  1  6  0  0  0
  2 13  1  0  0  0  0
  2  5  1  0  0  0  0
  4  7  2  0  0  0  0
  5 14  1  0  0  0  0
  5 16  2  0  0  0  0
  7  3  1  0  0  0  0
  8 21  1  1  0  0  0
  8 12  1  0  0  0  0
 10 18  1  0  0  0  0
 11  4  1  0  0  0  0
 13 18  1  6  0  0  0
 13  8  1  0  0  0  0
 14  1  2  0  0  0  0
 15 20  2  0  0  0  0
 15  4  1  0  0  0  0
 16 12  1  0  0  0  0
 16 17  1  0  0  0  0
 17  6  2  0  0  0  0
 19 10  1  0  0  0  0
 19  3  2  0  0  0  0
 20 19  1  0  0  0  0
 23 22  1  6  0  0  0
 23 21  1  0  0  0  0
 24 27  1  1  0  0  0
 25 28  1  0  0  0  0
 28 24  1  0  0  0  0
 29 26  1  1  0  0  0
 29 31  1  0  0  0  0
 30 25  1  0  0  0  0
 30 29  1  0  0  0  0
 30 23  1  0  0  0  0
 31 24  1  0  0  0  0
M  END
>  <MODEL>
6

>  <REMARK>
 VINA RESULT:      -7.5      2.922      5.539
  Name = 
  3 active torsions:
  status: ('A' for Active; 'I' for Inactive)
    1  A    between atoms: C_5  and  C_16
    2  A    between atoms: C_5  and  N_30
    3  A    between atoms: C_10  and  C_16
                            x       y       z     vdW  Elec       q    Type
                         _______ _______ _______ _____ _____    ______ ____

>  <TORSDO>
F 3

$$$$
=
 OpenBabel11122410553D

 31 35  0  0  1  0  0  0  0  0999 V2000
  185.0260  179.4560  145.3070 C   0  0  0  0  0  0  0  0  0  0  0  0
  185.5390  179.4940  141.5480 C   0  0  2  0  0  3  0  0  0  0  0  0
  186.7740  178.6260  141.3460 C   0  0  0  0  0  0  0  0  0  0  0  0
  188.7450  177.4780  142.1940 C   0  0  0  0  0  0  0  0  0  0  0  0
  184.8590  179.2760  142.8840 C   0  0  0  0  0  0  0  0  0  0  0  0
  183.8740  178.6840  145.4510 C   0  0  0  0  0  3  0  0  0  0  0  0
  187.6060  178.2570  142.4150 C   0  0  0  0  0  3  0  0  0  0  0  0
  183.8510  178.0290  140.3780 C   0  0  2  0  0  3  0  0  0  0  0  0
  185.6810  179.9060  146.4040 F   0  0  0  0  0  0  0  0  0  0  0  0
  186.3110  178.6280  138.9430 N   0  0  0  0  0  2  0  0  0  0  0  0
  189.6080  177.0850  143.3390 C   0  0  0  0  0  1  0  0  0  0  0  0
  182.5730  178.1100  141.6630 S   0  0  0  0  0  0  0  0  0  0  0  0
  184.5770  179.3780  140.3510 C   0  0  2  0  0  3  0  0  0  0  0  0
  185.5170  179.7440  144.0330 C   0  0  0  0  0  3  0  0  0  0  0  0
  189.0700  177.0670  140.9000 C   0  0  0  0  0  3  0  0  0  0  0  0
  183.6630  178.5310  143.0350 C   0  0  0  0  0  0  0  0  0  0  0  0
  183.1930  178.2340  144.3190 C   0  0  0  0  0  3  0  0  0  0  0  0
  185.3050  179.6040  139.0920 N   0  0  0  0  0  2  0  0  0  0  0  0
  187.1340  178.2390  140.0430 C   0  0  0  0  0  0  0  0  0  0  0  0
  188.2650  177.4470  139.8240 C   0  0  0  0  0  3  0  0  0  0  0  0
  183.1780  177.7280  139.0440 C   0  0  0  0  0  2  0  0  0  0  0  0
  181.8990  175.7000  139.1830 O   0  0  0  0  0  1  0  0  0  0  0  0
  181.8120  177.0930  139.2600 C   0  0  2  0  0  3  0  0  0  0  0  0
  180.0190  180.3740  138.9940 C   0  0  1  0  0  3  0  0  0  0  0  0
  181.3970  178.8140  137.6200 C   0  0  0  0  0  2  0  0  0  0  0  0
  178.9620  176.8360  139.5330 O   0  0  0  0  0  1  0  0  0  0  0  0
  180.0540  181.4840  139.8380 O   0  0  0  0  0  1  0  0  0  0  0  0
  181.4260  180.0560  138.5140 C   0  0  0  0  0  2  0  0  0  0  0  0
  179.4840  177.9400  138.8540 C   0  0  2  0  0  3  0  0  0  0  0  0
  180.8300  177.6480  138.3090 N   0  0  0  0  0  0  0  0  0  0  0  0
  179.4520  179.1810  139.7480 C   0  0  0  0  0  2  0  0  0  0  0  0
  1  6  1  0  0  0  0
  1  9  1  0  0  0  0
  2  3  1  6  0  0  0
  2  5  1  0  0  0  0
  3  7  1  0  0  0  0
  4  7  2  0  0  0  0
  4 11  1  0  0  0  0
  5 16  2  0  0  0  0
  5 14  1  0  0  0  0
  8 21  1  6  0  0  0
  8 12  1  0  0  0  0
 10 18  1  0  0  0  0
 10 19  1  0  0  0  0
 12 16  1  0  0  0  0
 13 18  1  6  0  0  0
 13  8  1  0  0  0  0
 13  2  1  0  0  0  0
 14  1  2  0  0  0  0
 15  4  1  0  0  0  0
 16 17  1  0  0  0  0
 17  6  2  0  0  0  0
 19  3  2  0  0  0  0
 20 19  1  0  0  0  0
 20 15  2  0  0  0  0
 21 23  1  0  0  0  0
 23 22  1  6  0  0  0
 24 31  1  0  0  0  0
 24 27  1  1  0  0  0
 25 30  1  0  0  0  0
 25 28  1  0  0  0  0
 28 24  1  0  0  0  0
 29 26  1  1  0  0  0
 29 31  1  0  0  0  0
 30 29  1  0  0  0  0
 30 23  1  0  0  0  0
M  END
>  <MODEL>
7

>  <REMARK>
 VINA RESULT:      -7.4      3.205      5.502
  Name = 
  3 active torsions:
  status: ('A' for Active; 'I' for Inactive)
    1  A    between atoms: C_5  and  C_16
    2  A    between atoms: C_5  and  N_30
    3  A    between atoms: C_10  and  C_16
                            x       y       z     vdW  Elec       q    Type
                         _______ _______ _______ _____ _____    ______ ____

>  <TORSDO>
F 3

$$$$
=
 OpenBabel11122410553D

 31 35  0  0  1  0  0  0  0  0999 V2000
  193.9710  175.0190  135.9800 C   0  0  0  0  0  0  0  0  0  0  0  0
  190.5510  176.4380  136.8120 C   0  0  2  0  0  3  0  0  0  0  0  0
  189.6180  175.2480  136.6360 C   0  0  0  0  0  0  0  0  0  0  0  0
  189.1390  173.0060  135.8190 C   0  0  0  0  0  0  0  0  0  0  0  0
  192.0050  176.0440  136.9870 C   0  0  0  0  0  0  0  0  0  0  0  0
  194.6030  174.9950  137.2230 C   0  0  0  0  0  3  0  0  0  0  0  0
  190.0270  174.0730  135.9860 C   0  0  0  0  0  3  0  0  0  0  0  0
  190.2780  176.7680  139.2990 C   0  0  2  0  0  3  0  0  0  0  0  0
  194.6010  174.5210  134.8900 F   0  0  0  0  0  0  0  0  0  0  0  0
  187.8480  176.5520  137.7110 N   0  0  0  0  0  2  0  0  0  0  0  0
  189.5900  171.7630  135.1410 C   0  0  0  0  0  1  0  0  0  0  0  0
  192.0420  176.9280  139.6870 S   0  0  0  0  0  0  0  0  0  0  0  0
  190.0420  177.3840  137.9160 C   0  0  2  0  0  3  0  0  0  0  0  0
  192.6790  175.5350  135.8660 C   0  0  0  0  0  3  0  0  0  0  0  0
  187.8280  173.1080  136.2910 C   0  0  0  0  0  3  0  0  0  0  0  0
  192.6690  176.0600  138.2380 C   0  0  0  0  0  0  0  0  0  0  0  0
  193.9570  175.5220  138.3420 C   0  0  0  0  0  3  0  0  0  0  0  0
  188.6310  177.7230  137.6800 N   0  0  0  0  0  2  0  0  0  0  0  0
  188.2850  175.3520  137.0710 C   0  0  0  0  0  0  0  0  0  0  0  0
  187.4010  174.2810  136.9170 C   0  0  0  0  0  3  0  0  0  0  0  0
  189.4770  177.4880  140.3770 C   0  0  0  0  0  2  0  0  0  0  0  0
  190.0540  175.9880  142.1620 O   0  0  0  0  0  1  0  0  0  0  0  0
  190.1320  177.3190  141.7400 C   0  0  2  0  0  3  0  0  0  0  0  0
  190.0570  177.4600  145.4850 C   0  0  1  0  0  3  0  0  0  0  0  0
  190.5990  178.8880  143.5120 C   0  0  0  0  0  2  0  0  0  0  0  0
  187.4780  177.0790  142.8160 O   0  0  0  0  0  1  0  0  0  0  0  0
  190.5770  176.5710  146.4240 O   0  0  0  0  0  1  0  0  0  0  0  0
  191.1720  177.9420  144.5710 C   0  0  0  0  0  2  0  0  0  0  0  0
  188.4660  177.7070  143.5770 C   0  0  2  0  0  3  0  0  0  0  0  0
  189.5410  178.2530  142.7160 N   0  0  0  0  0  0  0  0  0  0  0  0
  188.9860  176.7620  144.6620 C   0  0  0  0  0  2  0  0  0  0  0  0
  1  6  1  0  0  0  0
  2  3  1  1  0  0  0
  2  5  1  0  0  0  0
  2 13  1  0  0  0  0
  3 19  1  0  0  0  0
  4  7  1  0  0  0  0
  4 15  2  0  0  0  0
  5 16  2  0  0  0  0
  6 17  2  0  0  0  0
  7  3  2  0  0  0  0
  8 12  1  0  0  0  0
  8 21  1  1  0  0  0
  9  1  1  0  0  0  0
 11  4  1  0  0  0  0
 13 18  1  6  0  0  0
 13  8  1  0  0  0  0
 14  1  2  0  0  0  0
 14  5  1  0  0  0  0
 15 20  1  0  0  0  0
 16 17  1  0  0  0  0
 16 12  1  0  0  0  0
 18 10  1  0  0  0  0
 19 10  1  0  0  0  0
 20 19  2  0  0  0  0
 21 23  1  0  0  0  0
 23 22  1  1  0  0  0
 23 30  1  0  0  0  0
 24 27  1  1  0  0  0
 25 28  1  0  0  0  0
 28 24  1  0  0  0  0
 29 26  1  6  0  0  0
 29 31  1  0  0  0  0
 30 25  1  0  0  0  0
 30 29  1  0  0  0  0
 31 24  1  0  0  0  0
M  END
>  <MODEL>
8

>  <REMARK>
 VINA RESULT:      -7.3      5.588      8.574
  Name = 
  3 active torsions:
  status: ('A' for Active; 'I' for Inactive)
    1  A    between atoms: C_5  and  C_16
    2  A    between atoms: C_5  and  N_30
    3  A    between atoms: C_10  and  C_16
                            x       y       z     vdW  Elec       q    Type
                         _______ _______ _______ _____ _____    ______ ____

>  <TORSDO>
F 3

$$$$
=
 OpenBabel11122410553D

 31 35  0  0  1  0  0  0  0  0999 V2000
  189.2950  177.8530  143.0880 C   0  0  0  0  0  0  0  0  0  0  0  0
  186.7140  179.0070  140.5570 C   0  0  2  0  0  3  0  0  0  0  0  0
  186.9920  178.1350  139.3400 C   0  0  0  0  0  0  0  0  0  0  0  0
  188.4050  176.6080  138.0790 C   0  0  0  0  0  0  0  0  0  0  0  0
  187.2880  178.4480  141.8440 C   0  0  0  0  0  0  0  0  0  0  0  0
  188.5190  177.1820  144.0320 C   0  0  0  0  0  3  0  0  0  0  0  0
  188.1690  177.3800  139.2200 C   0  0  0  0  0  3  0  0  0  0  0  0
  184.4170  178.1360  141.1310 C   0  0  2  0  0  3  0  0  0  0  0  0
  190.6430  177.8810  143.2140 F   0  0  0  0  0  0  0  0  0  0  0  0
  184.8880  178.9230  138.3690 N   0  0  0  0  0  2  0  0  0  0  0  0
  189.6500  175.8030  137.9720 C   0  0  0  0  0  1  0  0  0  0  0  0
  184.7050  177.9300  142.9100 S   0  0  0  0  0  0  0  0  0  0  0  0
  185.2170  179.3550  140.6610 C   0  0  2  0  0  3  0  0  0  0  0  0
  188.6830  178.4760  141.9990 C   0  0  0  0  0  3  0  0  0  0  0  0
  187.4710  176.5900  137.0410 C   0  0  0  0  0  3  0  0  0  0  0  0
  186.5010  177.8050  142.8310 C   0  0  0  0  0  0  0  0  0  0  0  0
  187.1290  177.1680  143.9070 C   0  0  0  0  0  3  0  0  0  0  0  0
  184.7320  179.8920  139.3810 N   0  0  0  0  0  2  0  0  0  0  0  0
  186.0770  178.1400  138.2710 C   0  0  0  0  0  0  0  0  0  0  0  0
  186.3070  177.3560  137.1370 C   0  0  0  0  0  3  0  0  0  0  0  0
  182.9220  178.3240  140.9010 C   0  0  0  0  0  2  0  0  0  0  0  0
  183.1300  176.4080  139.4670 O   0  0  0  0  0  1  0  0  0  0  0  0
  182.2880  177.0380  140.3890 C   0  0  2  0  0  3  0  0  0  0  0  0
  179.6530  174.8970  138.8010 C   0  0  1  0  0  3  0  0  0  0  0  0
  179.9270  176.5950  140.6080 C   0  0  0  0  0  2  0  0  0  0  0  0
  181.7790  177.7390  137.6480 O   0  0  0  0  0  1  0  0  0  0  0  0
  179.6650  173.5340  138.5080 O   0  0  0  0  0  1  0  0  0  0  0  0
  179.8990  175.0980  140.2880 C   0  0  0  0  0  2  0  0  0  0  0  0
  180.7860  177.0810  138.3780 C   0  0  2  0  0  3  0  0  0  0  0  0
  180.9500  177.3090  139.8330 N   0  0  0  0  0  0  0  0  0  0  0  0
  180.7400  175.5990  138.0030 C   0  0  0  0  0  2  0  0  0  0  0  0
  1  9  1  0  0  0  0
  1  6  1  0  0  0  0
  2  3  1  6  0  0  0
  2 13  1  0  0  0  0
  2  5  1  0  0  0  0
  4  7  2  0  0  0  0
  5 14  1  0  0  0  0
  5 16  2  0  0  0  0
  7  3  1  0  0  0  0
  8 21  1  1  0  0  0
  8 12  1  0  0  0  0
 10 18  1  0  0  0  0
 11  4  1  0  0  0  0
 13 18  1  6  0  0  0
 13  8  1  0  0  0  0
 14  1  2  0  0  0  0
 15 20  2  0  0  0  0
 15  4  1  0  0  0  0
 16 12  1  0  0  0  0
 16 17  1  0  0  0  0
 17  6  2  0  0  0  0
 19 10  1  0  0  0  0
 19  3  2  0  0  0  0
 20 19  1  0  0  0  0
 23 22  1  6  0  0  0
 23 21  1  0  0  0  0
 24 27  1  1  0  0  0
 24 28  1  0  0  0  0
 28 25  1  0  0  0  0
 29 26  1  6  0  0  0
 29 30  1  0  0  0  0
 30 23  1  0  0  0  0
 30 25  1  0  0  0  0
 31 29  1  0  0  0  0
 31 24  1  0  0  0  0
M  END
>  <MODEL>
9

>  <REMARK>
 VINA RESULT:      -7.2      2.719      5.352
  Name = 
  3 active torsions:
  status: ('A' for Active; 'I' for Inactive)
    1  A    between atoms: C_5  and  C_16
    2  A    between atoms: C_5  and  N_30
    3  A    between atoms: C_10  and  C_16
                            x       y       z     vdW  Elec       q    Type
                         _______ _______ _______ _____ _____    ______ ____

>  <TORSDO>
F 3

$$$$
