=
 OpenBabel11122411123D

 31 35  0  0  1  0  0  0  0  0999 V2000
  189.9770  175.9190  142.8220 C   0  0  0  0  0  0  0  0  0  0  0  0
  186.5610  177.0400  144.0710 C   0  0  2  0  0  3  0  0  0  0  0  0
  186.8070  177.7510  145.3940 C   0  0  0  0  0  0  0  0  0  0  0  0
  188.2010  178.1920  147.3400 C   0  0  0  0  0  0  0  0  0  0  0  0
  187.8080  176.9310  143.2290 C   0  0  0  0  0  0  0  0  0  0  0  0
  190.1730  176.7680  141.7300 C   0  0  0  0  0  3  0  0  0  0  0  0
  187.9980  177.5570  146.1130 C   0  0  0  0  0  3  0  0  0  0  0  0
  185.9240  178.9820  142.6870 N   0  0  0  0  0  0  0  0  0  0  0  0
  190.9330  175.0200  143.1600 F   0  0  0  0  0  0  0  0  0  0  0  0
  184.5800  178.7360  145.2940 O   0  0  0  0  0  0  0  0  0  0  0  0
  189.4740  177.9890  148.0800 C   0  0  0  0  0  1  0  0  0  0  0  0
  186.9030  178.6770  141.6390 C   0  0  0  0  0  2  0  0  0  0  0  0
  185.4340  177.7170  143.2580 C   0  0  2  0  0  3  0  0  0  0  0  0
  188.7980  175.9970  143.5670 C   0  0  0  0  0  3  0  0  0  0  0  0
  187.2080  179.0190  147.8720 C   0  0  0  0  0  3  0  0  0  0  0  0
  188.0070  177.7840  142.1260 C   0  0  0  0  0  0  0  0  0  0  0  0
  189.1840  177.6910  141.3760 C   0  0  0  0  0  3  0  0  0  0  0  0
  184.2220  177.9350  144.1710 C   0  0  0  0  0  2  0  0  0  0  0  0
  185.7950  178.5580  145.9590 C   0  0  0  0  0  0  0  0  0  0  0  0
  186.0070  179.1990  147.1830 C   0  0  0  0  0  3  0  0  0  0  0  0
  184.2420  177.7070  140.8520 O   0  0  0  0  0  0  0  0  0  0  0  0
  184.0160  178.9190  141.1190 C   0  0  0  0  0  0  0  0  0  0  0  0
  184.8480  179.6180  142.0440 N   0  0  0  0  0  2  0  0  0  0  0  0
  181.5880  178.0490  138.3440 C   0  0  1  0  0  3  0  0  0  0  0  0
  181.5370  178.9520  140.6860 C   0  0  0  0  0  2  0  0  0  0  0  0
  184.3720  180.5010  138.7540 O   0  0  0  0  0  1  0  0  0  0  0  0
  181.4660  176.9040  137.5820 F   0  0  0  0  0  0  0  0  0  0  0  0
  181.3960  177.7020  139.8180 C   0  0  0  0  0  2  0  0  0  0  0  0
  183.1170  179.9290  138.9640 C   0  0  2  0  0  3  0  0  0  0  0  0
  182.8830  179.6500  140.4590 C   0  0  2  0  0  3  0  0  0  0  0  0
  182.9660  178.6630  138.1230 C   0  0  0  0  0  2  0  0  0  0  0  0
  1  9  1  0  0  0  0
  1 14  1  0  0  0  0
  2  5  1  6  0  0  0
  2  3  1  0  0  0  0
  3 19  2  0  0  0  0
  3  7  1  0  0  0  0
  4 15  1  0  0  0  0
  4 11  1  0  0  0  0
  5 14  2  0  0  0  0
  6  1  2  0  0  0  0
  7  4  2  0  0  0  0
  8 13  1  0  0  0  0
 10 19  1  0  0  0  0
 12 16  1  0  0  0  0
 12  8  1  0  0  0  0
 13  2  1  0  0  0  0
 13 18  1  1  0  0  0
 16  5  1  0  0  0  0
 17  6  1  0  0  0  0
 17 16  2  0  0  0  0
 18 10  1  0  0  0  0
 19 20  1  0  0  0  0
 20 15  2  0  0  0  0
 21 22  2  0  0  0  0
 22 23  1  0  0  0  0
 23  8  1  0  0  0  0
 24 27  1  6  0  0  0
 24 28  1  0  0  0  0
 28 25  1  0  0  0  0
 29 26  1  1  0  0  0
 29 30  1  0  0  0  0
 30 25  1  0  0  0  0
 30 22  1  6  0  0  0
 31 24  1  0  0  0  0
 31 29  1  0  0  0  0
M  END
>  <MODEL>
1

>  <REMARK>
 VINA RESULT:      -9.1      0.000      0.000
  Name = 
  2 active torsions:
  status: ('A' for Active; 'I' for Inactive)
    1  A    between atoms: C_5  and  C_30
    2  A    between atoms: N_10  and  N_16
                            x       y       z     vdW  Elec       q    Type
                         _______ _______ _______ _____ _____    ______ ____

>  <TORSDO>
F 2

$$$$
=
 OpenBabel11122411123D

 31 35  0  0  1  0  0  0  0  0999 V2000
  193.4670  175.0550  135.7070 C   0  0  0  0  0  0  0  0  0  0  0  0
  190.1350  176.5940  136.7170 C   0  0  2  0  0  3  0  0  0  0  0  0
  189.1140  175.4660  136.6620 C   0  0  0  0  0  0  0  0  0  0  0  0
  188.4130  173.2750  135.8690 C   0  0  0  0  0  0  0  0  0  0  0  0
  191.5550  176.0900  136.7890 C   0  0  0  0  0  0  0  0  0  0  0  0
  194.1640  175.0680  136.9170 C   0  0  0  0  0  3  0  0  0  0  0  0
  189.3690  174.2910  135.9360 C   0  0  0  0  0  3  0  0  0  0  0  0
  190.2390  176.9200  139.1620 N   0  0  0  0  0  0  0  0  0  0  0  0
  194.0490  174.5440  134.5950 F   0  0  0  0  0  0  0  0  0  0  0  0
  187.5500  176.8010  137.9710 O   0  0  0  0  0  0  0  0  0  0  0  0
  188.7040  172.0310  135.1100 C   0  0  0  0  0  1  0  0  0  0  0  0
  191.7000  176.8030  139.2110 C   0  0  0  0  0  2  0  0  0  0  0  0
  189.8590  177.5600  137.8920 C   0  0  2  0  0  3  0  0  0  0  0  0
  192.1690  175.5670  135.6420 C   0  0  0  0  0  3  0  0  0  0  0  0
  187.1840  173.4280  136.5150 C   0  0  0  0  0  3  0  0  0  0  0  0
  192.2620  176.1040  138.0070 C   0  0  0  0  0  0  0  0  0  0  0  0
  193.5670  175.6020  138.0620 C   0  0  0  0  0  3  0  0  0  0  0  0
  188.3780  177.9570  137.8750 C   0  0  0  0  0  2  0  0  0  0  0  0
  187.8550  175.6260  137.2790 C   0  0  0  0  0  0  0  0  0  0  0  0
  186.9050  174.6020  137.2170 C   0  0  0  0  0  3  0  0  0  0  0  0
  190.1750  176.1470  141.8490 O   0  0  0  0  0  0  0  0  0  0  0  0
  189.8690  177.3380  141.5680 C   0  0  0  0  0  0  0  0  0  0  0  0
  189.8800  177.7820  140.2120 N   0  0  0  0  0  2  0  0  0  0  0  0
  190.1120  177.2940  145.3480 C   0  0  1  0  0  3  0  0  0  0  0  0
  190.6860  178.8150  143.4350 C   0  0  0  0  0  2  0  0  0  0  0  0
  187.3180  177.2280  142.8740 O   0  0  0  0  0  1  0  0  0  0  0  0
  190.6130  176.3350  146.2060 F   0  0  0  0  0  0  0  0  0  0  0  0
  191.2180  177.7590  144.4040 C   0  0  0  0  0  2  0  0  0  0  0  0
  188.3900  177.7570  143.5950 C   0  0  2  0  0  3  0  0  0  0  0  0
  189.4730  178.3020  142.6490 C   0  0  2  0  0  3  0  0  0  0  0  0
  188.9510  176.7080  144.5520 C   0  0  0  0  0  2  0  0  0  0  0  0
  1  6  1  0  0  0  0
  2  3  1  1  0  0  0
  2  5  1  0  0  0  0
  2 13  1  0  0  0  0
  3 19  1  0  0  0  0
  4  7  1  0  0  0  0
  4 15  2  0  0  0  0
  5 16  2  0  0  0  0
  6 17  2  0  0  0  0
  7  3  2  0  0  0  0
  8 12  1  0  0  0  0
  8 23  1  0  0  0  0
  9  1  1  0  0  0  0
 11  4  1  0  0  0  0
 13 18  1  1  0  0  0
 13  8  1  0  0  0  0
 14  1  2  0  0  0  0
 14  5  1  0  0  0  0
 15 20  1  0  0  0  0
 16 17  1  0  0  0  0
 16 12  1  0  0  0  0
 18 10  1  0  0  0  0
 19 10  1  0  0  0  0
 20 19  2  0  0  0  0
 22 21  2  0  0  0  0
 23 22  1  0  0  0  0
 24 27  1  1  0  0  0
 25 28  1  0  0  0  0
 28 24  1  0  0  0  0
 29 26  1  6  0  0  0
 29 31  1  0  0  0  0
 30 22  1  6  0  0  0
 30 25  1  0  0  0  0
 30 29  1  0  0  0  0
 31 24  1  0  0  0  0
M  END
>  <MODEL>
2

>  <REMARK>
 VINA RESULT:      -8.8      5.083      8.889
  Name = 
  2 active torsions:
  status: ('A' for Active; 'I' for Inactive)
    1  A    between atoms: C_5  and  C_30
    2  A    between atoms: N_10  and  N_16
                            x       y       z     vdW  Elec       q    Type
                         _______ _______ _______ _____ _____    ______ ____

>  <TORSDO>
F 2

$$$$
=
 OpenBabel11122411123D

 31 35  0  0  1  0  0  0  0  0999 V2000
  191.2030  176.3760  144.0540 C   0  0  0  0  0  0  0  0  0  0  0  0
  187.4540  176.9660  143.7550 C   0  0  2  0  0  3  0  0  0  0  0  0
  187.0380  177.6920  145.0260 C   0  0  0  0  0  0  0  0  0  0  0  0
  187.4420  178.3150  147.3440 C   0  0  0  0  0  0  0  0  0  0  0  0
  188.9390  177.0510  143.4960 C   0  0  0  0  0  0  0  0  0  0  0  0
  191.7070  177.2570  143.0920 C   0  0  0  0  0  3  0  0  0  0  0  0
  187.8470  177.6690  146.1740 C   0  0  0  0  0  3  0  0  0  0  0  0
  187.1730  178.8060  142.1330 N   0  0  0  0  0  0  0  0  0  0  0  0
  192.0530  175.6260  144.7950 F   0  0  0  0  0  0  0  0  0  0  0  0
  184.9320  178.3360  143.9830 O   0  0  0  0  0  0  0  0  0  0  0  0
  188.3160  178.2950  148.5450 C   0  0  0  0  0  1  0  0  0  0  0  0
  188.5270  178.6600  141.5880 C   0  0  0  0  0  2  0  0  0  0  0  0
  186.6750  177.4760  142.5210 C   0  0  2  0  0  3  0  0  0  0  0  0
  189.8250  176.2720  144.2530 C   0  0  0  0  0  3  0  0  0  0  0  0
  186.2130  178.9790  147.3850 C   0  0  0  0  0  3  0  0  0  0  0  0
  189.4490  177.9350  142.5250 C   0  0  0  0  0  0  0  0  0  0  0  0
  190.8300  178.0260  142.3220 C   0  0  0  0  0  3  0  0  0  0  0  0
  185.1780  177.5030  142.8530 C   0  0  0  0  0  2  0  0  0  0  0  0
  185.7820  178.3330  145.0910 C   0  0  0  0  0  0  0  0  0  0  0  0
  185.3850  178.9860  146.2610 C   0  0  0  0  0  3  0  0  0  0  0  0
  187.0650  177.6060  139.6090 O   0  0  0  0  0  0  0  0  0  0  0  0
  186.3540  178.6280  139.8100 C   0  0  0  0  0  0  0  0  0  0  0  0
  186.3760  179.2810  141.0790 N   0  0  0  0  0  2  0  0  0  0  0  0
  184.0690  177.0700  137.2210 C   0  0  1  0  0  3  0  0  0  0  0  0
  184.0000  178.8840  138.9550 C   0  0  0  0  0  2  0  0  0  0  0  0
  187.2850  178.9600  137.1180 O   0  0  0  0  0  1  0  0  0  0  0  0
  183.7620  175.7470  136.9710 F   0  0  0  0  0  0  0  0  0  0  0  0
  183.6620  177.4250  138.6490 C   0  0  0  0  0  2  0  0  0  0  0  0
  185.9180  178.7510  137.3070 C   0  0  2  0  0  3  0  0  0  0  0  0
  185.4850  179.1830  138.7180 C   0  0  2  0  0  3  0  0  0  0  0  0
  185.5650  177.2910  137.0280 C   0  0  0  0  0  2  0  0  0  0  0  0
  1 14  1  0  0  0  0
  1  9  1  0  0  0  0
  2  5  1  6  0  0  0
  2  3  1  0  0  0  0
  3 19  2  0  0  0  0
  3  7  1  0  0  0  0
  4 15  1  0  0  0  0
  4 11  1  0  0  0  0
  5 14  2  0  0  0  0
  6  1  2  0  0  0  0
  7  4  2  0  0  0  0
  8 13  1  0  0  0  0
 10 19  1  0  0  0  0
 12  8  1  0  0  0  0
 12 16  1  0  0  0  0
 13 18  1  1  0  0  0
 13  2  1  0  0  0  0
 16  5  1  0  0  0  0
 17 16  2  0  0  0  0
 17  6  1  0  0  0  0
 18 10  1  0  0  0  0
 19 20  1  0  0  0  0
 20 15  2  0  0  0  0
 21 22  2  0  0  0  0
 22 23  1  0  0  0  0
 23  8  1  0  0  0  0
 24 27  1  1  0  0  0
 24 28  1  0  0  0  0
 28 25  1  0  0  0  0
 29 26  1  1  0  0  0
 29 30  1  0  0  0  0
 30 25  1  0  0  0  0
 30 22  1  1  0  0  0
 31 24  1  0  0  0  0
 31 29  1  0  0  0  0
M  END
>  <MODEL>
3

>  <REMARK>
 VINA RESULT:      -8.4      1.804      2.092
  Name = 
  2 active torsions:
  status: ('A' for Active; 'I' for Inactive)
    1  A    between atoms: C_5  and  C_30
    2  A    between atoms: N_10  and  N_16
                            x       y       z     vdW  Elec       q    Type
                         _______ _______ _______ _____ _____    ______ ____

>  <TORSDO>
F 2

$$$$
=
 OpenBabel11122411123D

 31 35  0  0  1  0  0  0  0  0999 V2000
  191.3750  176.5270  144.9490 C   0  0  0  0  0  0  0  0  0  0  0  0
  187.7750  176.9050  143.7730 C   0  0  2  0  0  3  0  0  0  0  0  0
  187.0590  177.7030  144.8540 C   0  0  0  0  0  0  0  0  0  0  0  0
  186.9070  178.5170  147.1420 C   0  0  0  0  0  0  0  0  0  0  0  0
  189.2760  177.0450  143.8460 C   0  0  0  0  0  0  0  0  0  0  0  0
  192.0550  177.3570  144.0530 C   0  0  0  0  0  3  0  0  0  0  0  0
  187.5870  177.8060  146.1510 C   0  0  0  0  0  3  0  0  0  0  0  0
  187.8100  178.6020  141.9810 N   0  0  0  0  0  0  0  0  0  0  0  0
  192.0590  175.8770  145.9220 F   0  0  0  0  0  0  0  0  0  0  0  0
  185.2240  178.1620  143.3160 O   0  0  0  0  0  0  0  0  0  0  0  0
  187.4880  178.6300  148.5050 C   0  0  0  0  0  1  0  0  0  0  0  0
  189.2560  178.4840  141.7650 C   0  0  0  0  0  2  0  0  0  0  0  0
  187.2790  177.2820  142.3580 C   0  0  2  0  0  3  0  0  0  0  0  0
  189.9920  176.3690  144.8430 C   0  0  0  0  0  3  0  0  0  0  0  0
  185.6810  179.1200  146.8530 C   0  0  0  0  0  3  0  0  0  0  0  0
  189.9640  177.8780  142.9420 C   0  0  0  0  0  0  0  0  0  0  0  0
  191.3520  178.0210  143.0450 C   0  0  0  0  0  3  0  0  0  0  0  0
  185.7460  177.2590  142.3450 C   0  0  0  0  0  2  0  0  0  0  0  0
  185.8010  178.2840  144.5820 C   0  0  0  0  0  0  0  0  0  0  0  0
  185.1290  179.0020  145.5760 C   0  0  0  0  0  3  0  0  0  0  0  0
  188.4110  177.2900  139.5850 O   0  0  0  0  0  0  0  0  0  0  0  0
  187.5940  178.2500  139.5460 C   0  0  0  0  0  0  0  0  0  0  0  0
  187.2570  178.9570  140.7390 N   0  0  0  0  0  2  0  0  0  0  0  0
  187.4430  176.7240  136.0820 C   0  0  1  0  0  3  0  0  0  0  0  0
  185.8810  177.7070  137.7830 C   0  0  0  0  0  2  0  0  0  0  0  0
  189.0340  179.7530  137.5720 O   0  0  0  0  0  1  0  0  0  0  0  0
  187.9710  175.5440  135.5950 F   0  0  0  0  0  0  0  0  0  0  0  0
  186.4720  176.4150  137.2190 C   0  0  0  0  0  2  0  0  0  0  0  0
  188.0020  178.9260  137.1270 C   0  0  2  0  0  3  0  0  0  0  0  0
  186.9750  178.6760  138.2450 C   0  0  2  0  0  3  0  0  0  0  0  0
  188.5720  177.6190  136.5810 C   0  0  0  0  0  2  0  0  0  0  0  0
  1  9  1  0  0  0  0
  2  5  1  6  0  0  0
  2  3  1  0  0  0  0
  3  7  1  0  0  0  0
  4 11  1  0  0  0  0
  5 14  2  0  0  0  0
  6  1  2  0  0  0  0
  7  4  2  0  0  0  0
  8 13  1  0  0  0  0
 10 19  1  0  0  0  0
 12  8  1  0  0  0  0
 12 16  1  0  0  0  0
 13 18  1  1  0  0  0
 13  2  1  0  0  0  0
 14  1  1  0  0  0  0
 15  4  1  0  0  0  0
 16 17  2  0  0  0  0
 16  5  1  0  0  0  0
 17  6  1  0  0  0  0
 18 10  1  0  0  0  0
 19  3  2  0  0  0  0
 19 20  1  0  0  0  0
 20 15  2  0  0  0  0
 22 21  2  0  0  0  0
 22 23  1  0  0  0  0
 23  8  1  0  0  0  0
 24 27  1  1  0  0  0
 24 31  1  0  0  0  0
 24 28  1  0  0  0  0
 25 30  1  0  0  0  0
 28 25  1  0  0  0  0
 29 26  1  1  0  0  0
 29 30  1  0  0  0  0
 30 22  1  1  0  0  0
 31 29  1  0  0  0  0
M  END
>  <MODEL>
4

>  <REMARK>
 VINA RESULT:      -8.4      2.932      3.549
  Name = 
  2 active torsions:
  status: ('A' for Active; 'I' for Inactive)
    1  A    between atoms: C_5  and  C_30
    2  A    between atoms: N_10  and  N_16
                            x       y       z     vdW  Elec       q    Type
                         _______ _______ _______ _____ _____    ______ ____

>  <TORSDO>
F 2

$$$$
=
 OpenBabel11122411123D

 31 35  0  0  1  0  0  0  0  0999 V2000
  179.6920  178.6700  142.1060 C   0  0  0  0  0  0  0  0  0  0  0  0
  183.0900  179.1370  140.4530 C   0  0  2  0  0  3  0  0  0  0  0  0
  184.1260  178.8380  141.5270 C   0  0  0  0  0  0  0  0  0  0  0  0
  184.7540  178.6140  143.8680 C   0  0  0  0  0  0  0  0  0  0  0  0
  181.7290  178.5760  140.7870 C   0  0  0  0  0  0  0  0  0  0  0  0
  179.2330  177.5050  141.4860 C   0  0  0  0  0  3  0  0  0  0  0  0
  183.7880  178.8620  142.8900 C   0  0  0  0  0  3  0  0  0  0  0  0
  183.4300  177.1640  139.0090 N   0  0  0  0  0  0  0  0  0  0  0  0
  178.9340  179.2790  143.0480 F   0  0  0  0  0  0  0  0  0  0  0  0
  185.8520  178.6270  139.8190 O   0  0  0  0  0  0  0  0  0  0  0  0
  184.3770  178.6270  145.3050 C   0  0  0  0  0  1  0  0  0  0  0  0
  182.0100  176.7990  139.0100 C   0  0  0  0  0  2  0  0  0  0  0  0
  183.5410  178.6310  139.0640 C   0  0  2  0  0  3  0  0  0  0  0  0
  180.9340  179.2060  141.7550 C   0  0  0  0  0  3  0  0  0  0  0  0
  186.0760  178.3550  143.4950 C   0  0  0  0  0  3  0  0  0  0  0  0
  181.2620  177.4030  140.1620 C   0  0  0  0  0  0  0  0  0  0  0  0
  180.0120  176.8790  140.5090 C   0  0  0  0  0  3  0  0  0  0  0  0
  184.9760  179.1050  138.8030 C   0  0  0  0  0  2  0  0  0  0  0  0
  185.4710  178.6130  141.1630 C   0  0  0  0  0  0  0  0  0  0  0  0
  186.4330  178.3560  142.1450 C   0  0  0  0  0  3  0  0  0  0  0  0
  183.8090  174.4740  138.3430 O   0  0  0  0  0  0  0  0  0  0  0  0
  184.1130  175.3460  137.4830 C   0  0  0  0  0  0  0  0  0  0  0  0
  183.9440  176.7320  137.7750 N   0  0  0  0  0  2  0  0  0  0  0  0
  184.6380  172.0180  135.7510 C   0  0  1  0  0  3  0  0  0  0  0  0
  183.6170  174.2600  135.2670 C   0  0  0  0  0  2  0  0  0  0  0  0
  186.8770  174.6800  137.1030 O   0  0  0  0  0  1  0  0  0  0  0  0
  184.3670  170.7310  136.1730 F   0  0  0  0  0  0  0  0  0  0  0  0
  183.3430  172.8270  135.7220 C   0  0  0  0  0  2  0  0  0  0  0  0
  185.9470  174.0900  136.2450 C   0  0  2  0  0  3  0  0  0  0  0  0
  184.6700  174.9420  136.1480 C   0  0  2  0  0  3  0  0  0  0  0  0
  185.6430  172.6640  136.6980 C   0  0  0  0  0  2  0  0  0  0  0  0
  1  9  1  0  0  0  0
  2  5  1  1  0  0  0
  2  3  1  0  0  0  0
  3  7  1  0  0  0  0
  4 11  1  0  0  0  0
  5 14  2  0  0  0  0
  6  1  2  0  0  0  0
  7  4  2  0  0  0  0
  8 12  1  0  0  0  0
  8 13  1  0  0  0  0
 10 19  1  0  0  0  0
 12 16  1  0  0  0  0
 13 18  1  1  0  0  0
 13  2  1  0  0  0  0
 14  1  1  0  0  0  0
 15  4  1  0  0  0  0
 16 17  2  0  0  0  0
 16  5  1  0  0  0  0
 17  6  1  0  0  0  0
 18 10  1  0  0  0  0
 19  3  2  0  0  0  0
 19 20  1  0  0  0  0
 20 15  2  0  0  0  0
 22 23  1  0  0  0  0
 22 21  2  0  0  0  0
 23  8  1  0  0  0  0
 24 27  1  1  0  0  0
 24 31  1  0  0  0  0
 25 28  1  0  0  0  0
 25 30  1  0  0  0  0
 28 24  1  0  0  0  0
 29 31  1  0  0  0  0
 29 26  1  1  0  0  0
 30 29  1  0  0  0  0
 30 22  1  1  0  0  0
M  END
>  <MODEL>
5

>  <REMARK>
 VINA RESULT:      -8.0      3.814      6.858
  Name = 
  2 active torsions:
  status: ('A' for Active; 'I' for Inactive)
    1  A    between atoms: C_5  and  C_30
    2  A    between atoms: N_10  and  N_16
                            x       y       z     vdW  Elec       q    Type
                         _______ _______ _______ _____ _____    ______ ____

>  <TORSDO>
F 2

$$$$
=
 OpenBabel11122411123D

 31 35  0  0  1  0  0  0  0  0999 V2000
  183.5190  178.9250  144.1130 C   0  0  0  0  0  0  0  0  0  0  0  0
  182.6650  177.9860  140.5250 C   0  0  2  0  0  3  0  0  0  0  0  0
  181.5650  178.9430  140.0880 C   0  0  0  0  0  0  0  0  0  0  0  0
  179.7730  180.5010  140.6190 C   0  0  0  0  0  0  0  0  0  0  0  0
  183.4270  178.4860  141.7270 C   0  0  0  0  0  0  0  0  0  0  0  0
  184.7900  179.4890  143.9650 C   0  0  0  0  0  3  0  0  0  0  0  0
  180.7990  179.6480  141.0300 C   0  0  0  0  0  3  0  0  0  0  0  0
  184.5140  178.8390  139.1300 N   0  0  0  0  0  0  0  0  0  0  0  0
  182.9440  178.8680  145.3390 F   0  0  0  0  0  0  0  0  0  0  0  0
  181.9580  178.3490  137.7570 O   0  0  0  0  0  0  0  0  0  0  0  0
  178.9810  181.2520  141.6280 C   0  0  0  0  0  1  0  0  0  0  0  0
  185.4300  178.9870  140.2660 C   0  0  0  0  0  2  0  0  0  0  0  0
  183.6470  177.6750  139.3720 C   0  0  2  0  0  3  0  0  0  0  0  0
  182.8420  178.4230  143.0000 C   0  0  0  0  0  3  0  0  0  0  0  0
  179.4900  180.6490  139.2590 C   0  0  0  0  0  3  0  0  0  0  0  0
  184.7090  179.0520  141.5810 C   0  0  0  0  0  0  0  0  0  0  0  0
  185.3870  179.5420  142.7030 C   0  0  0  0  0  3  0  0  0  0  0  0
  182.8430  177.2940  138.1220 C   0  0  0  0  0  2  0  0  0  0  0  0
  181.2460  179.0700  138.7190 C   0  0  0  0  0  0  0  0  0  0  0  0
  180.2240  179.9330  138.3110 C   0  0  0  0  0  3  0  0  0  0  0  0
  187.2450  178.2600  139.2930 O   0  0  0  0  0  0  0  0  0  0  0  0
  186.7090  178.2660  138.1520 C   0  0  0  0  0  0  0  0  0  0  0  0
  185.3190  178.5610  138.0130 N   0  0  0  0  0  2  0  0  0  0  0  0
  189.7840  176.1640  137.4640 C   0  0  1  0  0  3  0  0  0  0  0  0
  187.4760  176.4960  136.5340 C   0  0  0  0  0  2  0  0  0  0  0  0
  189.0110  179.8150  137.4300 O   0  0  0  0  0  1  0  0  0  0  0  0
  190.5500  175.3860  138.3100 F   0  0  0  0  0  0  0  0  0  0  0  0
  188.3490  175.6450  137.4570 C   0  0  0  0  0  2  0  0  0  0  0  0
  188.9710  178.4850  137.0090 C   0  0  2  0  0  3  0  0  0  0  0  0
  187.5210  177.9790  136.9220 C   0  0  2  0  0  3  0  0  0  0  0  0
  189.8190  177.6140  137.9340 C   0  0  0  0  0  2  0  0  0  0  0  0
  1  9  1  0  0  0  0
  2  3  1  6  0  0  0
  2  5  1  0  0  0  0
  3  7  1  0  0  0  0
  4  7  2  0  0  0  0
  4 11  1  0  0  0  0
  5 14  1  0  0  0  0
  6  1  1  0  0  0  0
  8 13  1  0  0  0  0
  8 12  1  0  0  0  0
 10 18  1  0  0  0  0
 10 19  1  0  0  0  0
 12 16  1  0  0  0  0
 13 18  1  6  0  0  0
 13  2  1  0  0  0  0
 14  1  2  0  0  0  0
 15  4  1  0  0  0  0
 16  5  2  0  0  0  0
 16 17  1  0  0  0  0
 17  6  2  0  0  0  0
 19  3  2  0  0  0  0
 20 19  1  0  0  0  0
 20 15  2  0  0  0  0
 22 21  2  0  0  0  0
 23 22  1  0  0  0  0
 23  8  1  0  0  0  0
 24 31  1  0  0  0  0
 24 27  1  1  0  0  0
 25 30  1  0  0  0  0
 25 28  1  0  0  0  0
 28 24  1  0  0  0  0
 29 26  1  1  0  0  0
 29 31  1  0  0  0  0
 30 29  1  0  0  0  0
 30 22  1  1  0  0  0
M  END
>  <MODEL>
6

>  <REMARK>
 VINA RESULT:      -7.8      3.796      7.312
  Name = 
  2 active torsions:
  status: ('A' for Active; 'I' for Inactive)
    1  A    between atoms: C_5  and  C_30
    2  A    between atoms: N_10  and  N_16
                            x       y       z     vdW  Elec       q    Type
                         _______ _______ _______ _____ _____    ______ ____

>  <TORSDO>
F 2

$$$$
=
 OpenBabel11122411123D

 31 35  0  0  1  0  0  0  0  0999 V2000
  179.6990  178.6340  142.0140 C   0  0  0  0  0  0  0  0  0  0  0  0
  183.1030  179.1190  140.3810 C   0  0  2  0  0  3  0  0  0  0  0  0
  184.1350  178.8290  141.4610 C   0  0  0  0  0  0  0  0  0  0  0  0
  184.7500  178.6140  143.8060 C   0  0  0  0  0  0  0  0  0  0  0  0
  181.7440  178.5510  140.7080 C   0  0  0  0  0  0  0  0  0  0  0  0
  179.2510  177.4650  141.3940 C   0  0  0  0  0  3  0  0  0  0  0  0
  183.7890  178.8530  142.8220 C   0  0  0  0  0  3  0  0  0  0  0  0
  183.4650  177.1460  138.9420 N   0  0  0  0  0  0  0  0  0  0  0  0
  178.9310  179.2410  142.9500 F   0  0  0  0  0  0  0  0  0  0  0  0
  185.8730  178.6270  139.7650 O   0  0  0  0  0  0  0  0  0  0  0  0
  184.3640  178.6280  145.2410 C   0  0  0  0  0  1  0  0  0  0  0  0
  182.0470  176.7720  138.9360 C   0  0  0  0  0  2  0  0  0  0  0  0
  183.5660  178.6140  138.9950 C   0  0  2  0  0  3  0  0  0  0  0  0
  180.9390  179.1770  141.6690 C   0  0  0  0  0  3  0  0  0  0  0  0
  186.0750  178.3630  143.4420 C   0  0  0  0  0  3  0  0  0  0  0  0
  181.2880  177.3740  140.0820 C   0  0  0  0  0  0  0  0  0  0  0  0
  180.0390  176.8430  140.4220 C   0  0  0  0  0  3  0  0  0  0  0  0
  184.9990  179.0970  138.7420 C   0  0  0  0  0  2  0  0  0  0  0  0
  185.4840  178.6120  141.1060 C   0  0  0  0  0  0  0  0  0  0  0  0
  186.4410  178.3640  142.0940 C   0  0  0  0  0  3  0  0  0  0  0  0
  183.8340  174.4570  138.2710 O   0  0  0  0  0  0  0  0  0  0  0  0
  184.1520  175.3290  137.4180 C   0  0  0  0  0  0  0  0  0  0  0  0
  183.9890  176.7160  137.7120 N   0  0  0  0  0  2  0  0  0  0  0  0
  186.4340  177.0230  134.9130 C   0  0  1  0  0  3  0  0  0  0  0  0
  186.2510  174.8300  136.1200 C   0  0  0  0  0  2  0  0  0  0  0  0
  182.8580  175.9540  134.9360 O   0  0  0  0  0  1  0  0  0  0  0  0
  187.0290  178.2690  134.9370 F   0  0  0  0  0  0  0  0  0  0  0  0
  186.9040  176.2120  136.1180 C   0  0  0  0  0  2  0  0  0  0  0  0
  184.2470  175.8110  134.9210 C   0  0  2  0  0  3  0  0  0  0  0  0
  184.7210  174.9270  136.0870 C   0  0  2  0  0  3  0  0  0  0  0  0
  184.9180  177.1830  134.9430 C   0  0  0  0  0  2  0  0  0  0  0  0
  1  9  1  0  0  0  0
  2  5  1  1  0  0  0
  2  3  1  0  0  0  0
  3  7  1  0  0  0  0
  4 11  1  0  0  0  0
  5 14  2  0  0  0  0
  6  1  2  0  0  0  0
  7  4  2  0  0  0  0
  8 13  1  0  0  0  0
 10 19  1  0  0  0  0
 12  8  1  0  0  0  0
 12 16  1  0  0  0  0
 13 18  1  1  0  0  0
 13  2  1  0  0  0  0
 14  1  1  0  0  0  0
 15  4  1  0  0  0  0
 16 17  2  0  0  0  0
 16  5  1  0  0  0  0
 17  6  1  0  0  0  0
 18 10  1  0  0  0  0
 19  3  2  0  0  0  0
 19 20  1  0  0  0  0
 20 15  2  0  0  0  0
 22 23  1  0  0  0  0
 22 21  2  0  0  0  0
 23  8  1  0  0  0  0
 24 27  1  1  0  0  0
 24 31  1  0  0  0  0
 24 28  1  0  0  0  0
 28 25  1  0  0  0  0
 29 26  1  1  0  0  0
 29 31  1  0  0  0  0
 29 30  1  0  0  0  0
 30 25  1  0  0  0  0
 30 22  1  1  0  0  0
M  END
>  <MODEL>
7

>  <REMARK>
 VINA RESULT:      -7.7      3.533      6.715
  Name = 
  2 active torsions:
  status: ('A' for Active; 'I' for Inactive)
    1  A    between atoms: C_5  and  C_30
    2  A    between atoms: N_10  and  N_16
                            x       y       z     vdW  Elec       q    Type
                         _______ _______ _______ _____ _____    ______ ____

>  <TORSDO>
F 2

$$$$
=
 OpenBabel11122411123D

 31 35  0  0  1  0  0  0  0  0999 V2000
  191.6760  177.3630  140.7610 C   0  0  0  0  0  0  0  0  0  0  0  0
  189.3180  177.9490  137.8310 C   0  0  2  0  0  3  0  0  0  0  0  0
  189.2310  176.6240  137.0870 C   0  0  0  0  0  0  0  0  0  0  0  0
  190.1310  174.4280  136.5500 C   0  0  0  0  0  0  0  0  0  0  0  0
  189.8330  177.7920  139.2410 C   0  0  0  0  0  0  0  0  0  0  0  0
  190.7980  177.4100  141.8460 C   0  0  0  0  0  3  0  0  0  0  0  0
  190.2060  175.6290  137.2590 C   0  0  0  0  0  3  0  0  0  0  0  0
  187.0420  178.0240  138.7820 N   0  0  0  0  0  0  0  0  0  0  0  0
  192.9950  177.1270  140.9670 F   0  0  0  0  0  0  0  0  0  0  0  0
  187.2410  177.4010  135.9130 O   0  0  0  0  0  0  0  0  0  0  0  0
  191.1630  173.3780  136.7550 C   0  0  0  0  0  1  0  0  0  0  0  0
  187.5180  178.2530  140.1510 C   0  0  0  0  0  2  0  0  0  0  0  0
  187.9610  178.6900  137.8450 C   0  0  2  0  0  3  0  0  0  0  0  0
  191.1970  177.5560  139.4640 C   0  0  0  0  0  3  0  0  0  0  0  0
  189.0870  174.2140  135.6460 C   0  0  0  0  0  3  0  0  0  0  0  0
  188.9490  177.8410  140.3370 C   0  0  0  0  0  0  0  0  0  0  0  0
  189.4390  177.6600  141.6350 C   0  0  0  0  0  3  0  0  0  0  0  0
  187.3970  178.7240  136.4200 C   0  0  0  0  0  2  0  0  0  0  0  0
  188.2020  176.4140  136.1440 C   0  0  0  0  0  0  0  0  0  0  0  0
  188.1260  175.2060  135.4420 C   0  0  0  0  0  3  0  0  0  0  0  0
  184.6920  176.7150  138.0180 O   0  0  0  0  0  0  0  0  0  0  0  0
  184.6210  177.9420  138.3020 C   0  0  0  0  0  0  0  0  0  0  0  0
  185.7910  178.6580  138.6930 N   0  0  0  0  0  2  0  0  0  0  0  0
  181.1140  177.1950  139.5260 C   0  0  1  0  0  3  0  0  0  0  0  0
  182.7840  179.0680  139.6050 C   0  0  0  0  0  2  0  0  0  0  0  0
  182.7410  177.5020  136.1810 O   0  0  0  0  0  1  0  0  0  0  0  0
  180.6150  176.1090  140.2180 F   0  0  0  0  0  0  0  0  0  0  0  0
  182.2070  177.8660  140.3540 C   0  0  0  0  0  2  0  0  0  0  0  0
  182.2370  177.9220  137.4130 C   0  0  2  0  0  3  0  0  0  0  0  0
  183.3110  178.6720  138.2200 C   0  0  2  0  0  3  0  0  0  0  0  0
  181.6770  176.7310  138.1870 C   0  0  0  0  0  2  0  0  0  0  0  0
  1  9  1  0  0  0  0
  1  6  1  0  0  0  0
  2  3  1  1  0  0  0
  2 13  1  0  0  0  0
  2  5  1  0  0  0  0
  3  7  1  0  0  0  0
  4 11  1  0  0  0  0
  4  7  2  0  0  0  0
  5 14  1  0  0  0  0
  5 16  2  0  0  0  0
  8 12  1  0  0  0  0
 10 19  1  0  0  0  0
 10 18  1  0  0  0  0
 12 16  1  0  0  0  0
 13 18  1  6  0  0  0
 13  8  1  0  0  0  0
 14  1  2  0  0  0  0
 15  4  1  0  0  0  0
 16 17  1  0  0  0  0
 17  6  2  0  0  0  0
 19  3  2  0  0  0  0
 20 15  2  0  0  0  0
 20 19  1  0  0  0  0
 21 22  2  0  0  0  0
 22 23  1  0  0  0  0
 23  8  1  0  0  0  0
 24 27  1  1  0  0  0
 24 28  1  0  0  0  0
 25 28  1  0  0  0  0
 29 26  1  6  0  0  0
 29 31  1  0  0  0  0
 29 30  1  0  0  0  0
 30 22  1  1  0  0  0
 30 25  1  0  0  0  0
 31 24  1  0  0  0  0
M  END
>  <MODEL>
8

>  <REMARK>
 VINA RESULT:      -7.7      3.826      6.523
  Name = 
  2 active torsions:
  status: ('A' for Active; 'I' for Inactive)
    1  A    between atoms: C_5  and  C_30
    2  A    between atoms: N_10  and  N_16
                            x       y       z     vdW  Elec       q    Type
                         _______ _______ _______ _____ _____    ______ ____

>  <TORSDO>
F 2

$$$$
=
 OpenBabel11122411123D

 31 35  0  0  1  0  0  0  0  0999 V2000
  189.1800  178.0690  143.3060 C   0  0  0  0  0  0  0  0  0  0  0  0
  186.6650  179.0610  140.6270 C   0  0  2  0  0  3  0  0  0  0  0  0
  186.9610  178.1780  139.4220 C   0  0  0  0  0  0  0  0  0  0  0  0
  188.4680  176.7430  138.1610 C   0  0  0  0  0  0  0  0  0  0  0  0
  187.2470  178.5120  141.9060 C   0  0  0  0  0  0  0  0  0  0  0  0
  188.3630  177.4230  144.2370 C   0  0  0  0  0  3  0  0  0  0  0  0
  188.1970  177.5270  139.2850 C   0  0  0  0  0  3  0  0  0  0  0  0
  184.5040  178.0860  141.3150 N   0  0  0  0  0  0  0  0  0  0  0  0
  190.5130  178.1650  143.5270 F   0  0  0  0  0  0  0  0  0  0  0  0
  184.7940  178.7440  138.4600 O   0  0  0  0  0  0  0  0  0  0  0  0
  189.7750  176.0470  138.0390 C   0  0  0  0  0  1  0  0  0  0  0  0
  184.9310  177.8780  142.7030 C   0  0  0  0  0  2  0  0  0  0  0  0
  185.1480  179.3050  140.8000 C   0  0  2  0  0  3  0  0  0  0  0  0
  188.6240  178.6150  142.1470 C   0  0  0  0  0  3  0  0  0  0  0  0
  187.5110  176.6130  137.1520 C   0  0  0  0  0  3  0  0  0  0  0  0
  186.4250  177.8620  142.8480 C   0  0  0  0  0  0  0  0  0  0  0  0
  186.9870  177.3300  144.0140 C   0  0  0  0  0  3  0  0  0  0  0  0
  184.5560  179.7380  139.4530 C   0  0  0  0  0  2  0  0  0  0  0  0
  186.0160  178.0720  138.3790 C   0  0  0  0  0  0  0  0  0  0  0  0
  186.2880  177.2780  137.2610 C   0  0  0  0  0  3  0  0  0  0  0  0
  182.6440  176.6030  139.8440 O   0  0  0  0  0  0  0  0  0  0  0  0
  182.2110  177.5200  140.5940 C   0  0  0  0  0  0  0  0  0  0  0  0
  183.1180  178.3100  141.3620 N   0  0  0  0  0  2  0  0  0  0  0  0
  179.2810  176.9560  138.2600 C   0  0  1  0  0  3  0  0  0  0  0  0
  179.9000  176.5240  140.6540 C   0  0  0  0  0  2  0  0  0  0  0  0
  181.0530  179.9510  139.6080 O   0  0  0  0  0  1  0  0  0  0  0  0
  179.2310  176.3980  136.9970 F   0  0  0  0  0  0  0  0  0  0  0  0
  179.8250  175.9270  139.2480 C   0  0  0  0  0  2  0  0  0  0  0  0
  180.2440  178.8140  139.6280 C   0  0  2  0  0  3  0  0  0  0  0  0
  180.7390  177.8070  140.6800 C   0  0  2  0  0  3  0  0  0  0  0  0
  180.1760  178.1900  138.2360 C   0  0  0  0  0  2  0  0  0  0  0  0
  1  9  1  0  0  0  0
  1  6  1  0  0  0  0
  2  3  1  6  0  0  0
  2 13  1  0  0  0  0
  2  5  1  0  0  0  0
  4  7  2  0  0  0  0
  5 14  1  0  0  0  0
  5 16  2  0  0  0  0
  7  3  1  0  0  0  0
  8 23  1  0  0  0  0
  8 12  1  0  0  0  0
 10 18  1  0  0  0  0
 11  4  1  0  0  0  0
 12 16  1  0  0  0  0
 13 18  1  6  0  0  0
 13  8  1  0  0  0  0
 14  1  2  0  0  0  0
 15 20  2  0  0  0  0
 15  4  1  0  0  0  0
 16 17  1  0  0  0  0
 17  6  2  0  0  0  0
 19 10  1  0  0  0  0
 19  3  2  0  0  0  0
 20 19  1  0  0  0  0
 21 22  2  0  0  0  0
 22 23  1  0  0  0  0
 24 27  1  6  0  0  0
 24 28  1  0  0  0  0
 25 30  1  0  0  0  0
 28 25  1  0  0  0  0
 29 26  1  6  0  0  0
 29 30  1  0  0  0  0
 30 22  1  6  0  0  0
 31 24  1  0  0  0  0
 31 29  1  0  0  0  0
M  END
>  <MODEL>
9

>  <REMARK>
 VINA RESULT:      -7.6      2.409      5.067
  Name = 
  2 active torsions:
  status: ('A' for Active; 'I' for Inactive)
    1  A    between atoms: C_5  and  C_30
    2  A    between atoms: N_10  and  N_16
                            x       y       z     vdW  Elec       q    Type
                         _______ _______ _______ _____ _____    ______ ____

>  <TORSDO>
F 2

$$$$
