=
 OpenBabel11122412273D

 34 40  0  0  1  0  0  0  0  0999 V2000
  189.1500  177.8560  140.0300 N   0  0  1  0  0  0  0  0  0  0  0  0
  191.0290  176.8420  138.6940 C   0  0  0  0  0  2  0  0  0  0  0  0
  182.7220  178.3730  140.7390 C   0  0  1  0  0  3  0  0  0  0  0  0
  187.1680  178.5670  141.3170 C   0  0  2  0  0  3  0  0  0  0  0  0
  185.1110  179.1870  140.0150 C   0  0  2  0  0  3  0  0  0  0  0  0
  183.0340  179.6180  138.5670 C   0  0  0  0  0  1  0  0  0  0  0  0
  183.1640  177.0590  140.5650 O   0  0  0  0  0  1  0  0  0  0  0  0
  183.8710  178.4770  143.0400 C   0  0  0  0  0  2  0  0  0  0  0  0
  189.1260  177.7270  137.6430 C   0  0  2  0  0  3  0  0  0  0  0  0
  187.8430  176.3560  135.0590 C   0  0  0  0  0  2  0  0  0  0  0  0
  185.6590  178.3560  138.8570 C   0  0  0  0  0  2  0  0  0  0  0  0
  185.0740  179.2710  142.5480 C   0  0  0  0  0  2  0  0  0  0  0  0
  187.6000  177.7730  137.6100 C   0  0  1  0  0  3  0  0  0  0  0  0
  191.1450  176.4750  137.2140 C   0  0  0  0  0  2  0  0  0  0  0  0
  185.6400  178.5810  141.3180 C   0  0  2  0  0  3  0  0  0  0  0  0
  182.6100  178.7500  142.2180 C   0  0  0  0  0  2  0  0  0  0  0  0
  189.0710  175.8710  135.8580 C   0  0  1  0  0  3  0  0  0  0  0  0
  187.6710  177.8530  140.0390 C   0  0  1  0  0  3  0  0  0  0  0  0
  183.5780  179.3820  139.9680 C   0  0  1  0  0  3  0  0  0  0  0  0
  187.1190  178.4860  138.8110 N   0  0  2  0  0  0  0  0  0  0  0  0
  189.0350  177.9670  142.4650 C   0  0  0  0  0  2  0  0  0  0  0  0
  187.6690  177.8770  135.0240 C   0  0  0  0  0  2  0  0  0  0  0  0
  187.6300  177.8710  142.4520 O   0  0  0  0  0  0  0  0  0  0  0  0
  187.0890  178.4500  136.3240 C   0  0  0  0  0  2  0  0  0  0  0  0
  189.8790  177.0020  136.5330 C   0  0  1  0  0  3  0  0  0  0  0  0
  189.6130  177.2170  141.2640 C   0  0  0  0  0  2  0  0  0  0  0  0
  189.5410  177.0260  138.8960 C   0  0  2  0  0  3  0  0  0  0  0  0
  188.6690  174.9090  136.7910 O   0  0  0  0  0  0  0  0  0  0  0  0
  187.5600  174.2830  136.2170 C   0  0  0  0  0  2  0  0  0  0  0  0
  184.1830  174.1320  137.3070 C   0  0  0  0  0  2  0  0  0  0  0  0
  185.9890  172.5930  137.1190 C   0  0  0  0  0  2  0  0  0  0  0  0
  186.5240  173.9910  137.2880 C   0  0  2  0  0  3  0  0  0  0  0  0
  184.5670  172.6960  137.5860 C   0  0  0  0  0  2  0  0  0  0  0  0
  185.4050  174.9200  137.1770 N   0  0  0  0  0  2  0  0  0  0  0  0
  1 18  1  0  0  0  0
  1 26  1  1  0  0  0
  2 27  1  0  0  0  0
  3  7  1  1  0  0  0
  3 16  1  0  0  0  0
  4 15  1  0  0  0  0
  4 23  1  1  0  0  0
  5 11  1  6  0  0  0
  5 15  1  0  0  0  0
  6 19  1  0  0  0  0
  9 27  1  0  0  0  0
 10 17  1  0  0  0  0
 12  8  1  0  0  0  0
 13  9  1  0  0  0  0
 13 20  1  0  0  0  0
 14  2  1  0  0  0  0
 15 12  1  0  0  0  0
 16  8  1  0  0  0  0
 17 25  1  0  0  0  0
 17 28  1  0  0  0  0
 18  4  1  0  0  0  0
 19  5  1  0  0  0  0
 19  3  1  0  0  0  0
 20 11  1  0  0  0  0
 20 18  1  0  0  0  0
 22 10  1  0  0  0  0
 22 24  1  0  0  0  0
 23 21  1  0  0  0  0
 24 13  1  0  0  0  0
 25 14  1  0  0  0  0
 25  9  1  0  0  0  0
 26 21  1  0  0  0  0
 27  1  1  0  0  0  0
 29 28  1  0  0  0  0
 29 32  1  0  0  0  0
 30 33  1  0  0  0  0
 31 32  1  0  0  0  0
 31 33  1  0  0  0  0
 34 32  1  0  0  0  0
 34 30  1  0  0  0  0
M  END
>  <MODEL>
1

>  <REMARK>
 VINA RESULT:      -8.2      0.000      0.000
  Name = 
  3 active torsions:
  status: ('A' for Active; 'I' for Inactive)
    1  A    between atoms: C_17  and  O_28
    2  A    between atoms: O_28  and  C_29
    3  A    between atoms: C_29  and  C_32
                            x       y       z     vdW  Elec       q    Type
                         _______ _______ _______ _____ _____    ______ ____

>  <TORSDO>
F 3

$$$$
=
 OpenBabel11122412273D

 34 40  0  0  1  0  0  0  0  0999 V2000
  189.1530  177.9040  140.3610 N   0  0  1  0  0  0  0  0  0  0  0  0
  191.0770  176.8980  139.0840 C   0  0  0  0  0  2  0  0  0  0  0  0
  182.7040  178.3750  140.8830 C   0  0  1  0  0  3  0  0  0  0  0  0
  187.1290  178.6060  141.5860 C   0  0  2  0  0  3  0  0  0  0  0  0
  185.1060  179.2040  140.2230 C   0  0  2  0  0  3  0  0  0  0  0  0
  183.0680  179.6120  138.7150 C   0  0  0  0  0  1  0  0  0  0  0  0
  183.1610  177.0640  140.7290 O   0  0  0  0  0  1  0  0  0  0  0  0
  183.7860  178.5000  143.2150 C   0  0  0  0  0  2  0  0  0  0  0  0
  189.1980  177.7630  137.9740 C   0  0  2  0  0  3  0  0  0  0  0  0
  188.0000  176.3690  135.3610 C   0  0  0  0  0  2  0  0  0  0  0  0
  185.6930  178.3710  139.0850 C   0  0  0  0  0  2  0  0  0  0  0  0
  184.9970  179.3010  142.7540 C   0  0  0  0  0  2  0  0  0  0  0  0
  187.6740  177.7970  137.8970 C   0  0  1  0  0  3  0  0  0  0  0  0
  191.2380  176.5240  137.6100 C   0  0  0  0  0  2  0  0  0  0  0  0
  185.6020  178.6080  141.5440 C   0  0  2  0  0  3  0  0  0  0  0  0
  182.5470  178.7580  142.3560 C   0  0  0  0  0  2  0  0  0  0  0  0
  189.2080  175.8980  136.1980 C   0  0  1  0  0  3  0  0  0  0  0  0
  187.6740  177.8900  140.3270 C   0  0  1  0  0  3  0  0  0  0  0  0
  183.5740  179.3870  140.1310 C   0  0  1  0  0  3  0  0  0  0  0  0
  187.1530  178.5120  139.0810 N   0  0  2  0  0  0  0  0  0  0  0  0
  188.9670  178.0270  142.7900 C   0  0  0  0  0  2  0  0  0  0  0  0
  187.8150  177.8890  135.3140 C   0  0  0  0  0  2  0  0  0  0  0  0
  187.5650  177.9200  142.7380 O   0  0  0  0  0  0  0  0  0  0  0  0
  187.1940  178.4640  136.5940 C   0  0  0  0  0  2  0  0  0  0  0  0
  189.9880  177.0380  136.8900 C   0  0  1  0  0  3  0  0  0  0  0  0
  189.5850  177.2750  141.6100 C   0  0  0  0  0  2  0  0  0  0  0  0
  189.5830  177.0710  139.2420 C   0  0  2  0  0  3  0  0  0  0  0  0
  188.7870  174.9380  137.1240 O   0  0  0  0  0  0  0  0  0  0  0  0
  187.6410  174.3670  136.5650 C   0  0  0  0  0  2  0  0  0  0  0  0
  186.7010  171.1260  135.4590 C   0  0  0  0  0  2  0  0  0  0  0  0
  188.7450  172.3170  135.7180 C   0  0  0  0  0  2  0  0  0  0  0  0
  187.7150  172.8550  136.6770 C   0  0  2  0  0  3  0  0  0  0  0  0
  188.2000  170.9770  135.3220 C   0  0  0  0  0  2  0  0  0  0  0  0
  186.4270  172.2580  136.3380 N   0  0  0  0  0  2  0  0  0  0  0  0
  1 26  1  1  0  0  0
  2 27  1  0  0  0  0
  3  7  1  1  0  0  0
  3 16  1  0  0  0  0
  4 23  1  1  0  0  0
  5 11  1  6  0  0  0
  5 15  1  0  0  0  0
  6 19  1  0  0  0  0
  9 27  1  0  0  0  0
 10 17  1  0  0  0  0
 12  8  1  0  0  0  0
 13  9  1  0  0  0  0
 13 20  1  0  0  0  0
 14  2  1  0  0  0  0
 15  4  1  0  0  0  0
 15 12  1  0  0  0  0
 16  8  1  0  0  0  0
 17 25  1  0  0  0  0
 17 28  1  0  0  0  0
 18  1  1  0  0  0  0
 18  4  1  0  0  0  0
 19  5  1  0  0  0  0
 19  3  1  0  0  0  0
 20 11  1  0  0  0  0
 20 18  1  0  0  0  0
 22 10  1  0  0  0  0
 22 24  1  0  0  0  0
 23 21  1  0  0  0  0
 24 13  1  0  0  0  0
 25 14  1  0  0  0  0
 25  9  1  0  0  0  0
 26 21  1  0  0  0  0
 27  1  1  0  0  0  0
 29 32  1  0  0  0  0
 29 28  1  0  0  0  0
 30 34  1  0  0  0  0
 31 32  1  0  0  0  0
 33 30  1  0  0  0  0
 33 31  1  0  0  0  0
 34 32  1  0  0  0  0
M  END
>  <MODEL>
2

>  <REMARK>
 VINA RESULT:      -7.7      1.083      1.374
  Name = 
  3 active torsions:
  status: ('A' for Active; 'I' for Inactive)
    1  A    between atoms: C_17  and  O_28
    2  A    between atoms: O_28  and  C_29
    3  A    between atoms: C_29  and  C_32
                            x       y       z     vdW  Elec       q    Type
                         _______ _______ _______ _____ _____    ______ ____

>  <TORSDO>
F 3

$$$$
=
 OpenBabel11122412273D

 34 40  0  0  1  0  0  0  0  0999 V2000
  190.9370  177.1420  138.0940 N   0  0  1  0  0  0  0  0  0  0  0  0
  190.9110  176.3800  135.6930 C   0  0  0  0  0  2  0  0  0  0  0  0
  187.8070  177.1230  143.7770 C   0  0  1  0  0  3  0  0  0  0  0  0
  190.8540  177.5990  140.5180 C   0  0  2  0  0  3  0  0  0  0  0  0
  188.6170  178.1670  141.5080 C   0  0  2  0  0  3  0  0  0  0  0  0
  186.2450  178.5570  142.4120 C   0  0  0  0  0  1  0  0  0  0  0  0
  187.8930  175.8630  143.1780 O   0  0  0  0  0  1  0  0  0  0  0  0
  190.3510  177.1280  144.1740 C   0  0  0  0  0  2  0  0  0  0  0  0
  188.9730  177.2020  136.7300 C   0  0  2  0  0  3  0  0  0  0  0  0
  186.0930  175.9500  136.1450 C   0  0  0  0  0  2  0  0  0  0  0  0
  187.9710  177.4730  140.3100 C   0  0  0  0  0  2  0  0  0  0  0  0
  190.6640  178.0460  142.9990 C   0  0  0  0  0  2  0  0  0  0  0  0
  188.0640  177.1370  137.9560 C   0  0  1  0  0  3  0  0  0  0  0  0
  189.7640  176.1410  134.7110 C   0  0  0  0  0  2  0  0  0  0  0  0
  189.9720  177.4990  141.7610 C   0  0  2  0  0  3  0  0  0  0  0  0
  188.9570  177.3710  144.7560 C   0  0  0  0  0  2  0  0  0  0  0  0
  187.4440  175.4960  135.5550 C   0  0  1  0  0  3  0  0  0  0  0  0
  190.0880  177.0290  139.3000 C   0  0  1  0  0  3  0  0  0  0  0  0
  187.6960  178.2510  142.7470 C   0  0  1  0  0  3  0  0  0  0  0  0
  188.7810  177.7150  139.1120 N   0  0  2  0  0  0  0  0  0  0  0  0
  192.8580  177.0500  139.5960 C   0  0  0  0  0  2  0  0  0  0  0  0
  185.9980  177.4520  136.4290 C   0  0  0  0  0  2  0  0  0  0  0  0
  192.0320  176.8510  140.7180 O   0  0  0  0  0  0  0  0  0  0  0  0
  186.7350  177.8750  137.7060 C   0  0  0  0  0  2  0  0  0  0  0  0
  188.4880  176.6260  135.4060 C   0  0  1  0  0  3  0  0  0  0  0  0
  192.1960  176.4430  138.3570 C   0  0  0  0  0  2  0  0  0  0  0  0
  190.2200  176.4360  137.0370 C   0  0  2  0  0  3  0  0  0  0  0  0
  187.9520  174.4350  136.3130 O   0  0  0  0  0  0  0  0  0  0  0  0
  187.6840  173.2880  135.5630 C   0  0  0  0  0  2  0  0  0  0  0  0
  185.0360  172.8210  137.8830 C   0  0  0  0  0  2  0  0  0  0  0  0
  185.4250  172.2720  135.6000 C   0  0  0  0  0  2  0  0  0  0  0  0
  186.7380  172.3820  136.3310 C   0  0  2  0  0  3  0  0  0  0  0  0
  184.4170  172.1110  136.7000 C   0  0  0  0  0  2  0  0  0  0  0  0
  186.4730  172.9310  137.6560 N   0  0  0  0  0  2  0  0  0  0  0  0
  1 26  1  1  0  0  0
  1 18  1  0  0  0  0
  2 27  1  0  0  0  0
  3  7  1  6  0  0  0
  3 16  1  0  0  0  0
  4 23  1  1  0  0  0
  4 15  1  0  0  0  0
  5 11  1  6  0  0  0
  5 15  1  0  0  0  0
  5 19  1  0  0  0  0
  6 19  1  0  0  0  0
  8 16  1  0  0  0  0
  9 27  1  0  0  0  0
  9 13  1  0  0  0  0
 10 22  1  0  0  0  0
 12  8  1  0  0  0  0
 13 20  1  0  0  0  0
 14 25  1  0  0  0  0
 14  2  1  0  0  0  0
 15 12  1  0  0  0  0
 17 10  1  0  0  0  0
 17 28  1  0  0  0  0
 18  4  1  0  0  0  0
 19  3  1  0  0  0  0
 20 18  1  0  0  0  0
 20 11  1  0  0  0  0
 21 23  1  0  0  0  0
 22 24  1  0  0  0  0
 24 13  1  0  0  0  0
 25 17  1  0  0  0  0
 25  9  1  0  0  0  0
 26 21  1  0  0  0  0
 27  1  1  0  0  0  0
 29 28  1  0  0  0  0
 29 32  1  0  0  0  0
 31 32  1  0  0  0  0
 31 33  1  0  0  0  0
 32 34  1  0  0  0  0
 33 30  1  0  0  0  0
 34 30  1  0  0  0  0
M  END
>  <MODEL>
3

>  <REMARK>
 VINA RESULT:      -7.4      2.102      3.620
  Name = 
  3 active torsions:
  status: ('A' for Active; 'I' for Inactive)
    1  A    between atoms: C_17  and  O_28
    2  A    between atoms: O_28  and  C_29
    3  A    between atoms: C_29  and  C_32
                            x       y       z     vdW  Elec       q    Type
                         _______ _______ _______ _____ _____    ______ ____

>  <TORSDO>
F 3

$$$$
=
 OpenBabel11122412273D

 34 40  0  0  1  0  0  0  0  0999 V2000
  190.1760  177.7140  139.3100 N   0  0  1  0  0  0  0  0  0  0  0  0
  190.2610  177.1110  136.8660 C   0  0  0  0  0  2  0  0  0  0  0  0
  186.8140  177.2860  144.8420 C   0  0  1  0  0  3  0  0  0  0  0  0
  189.9870  178.0090  141.7530 C   0  0  2  0  0  3  0  0  0  0  0  0
  187.7030  178.4860  142.6830 C   0  0  2  0  0  3  0  0  0  0  0  0
  185.2900  178.7890  143.5090 C   0  0  0  0  0  1  0  0  0  0  0  0
  186.9420  176.0690  144.1670 O   0  0  0  0  0  1  0  0  0  0  0  0
  189.3390  177.2930  145.3460 C   0  0  0  0  0  2  0  0  0  0  0  0
  188.2700  177.8420  137.8720 C   0  0  2  0  0  3  0  0  0  0  0  0
  185.4350  176.5990  137.0840 C   0  0  0  0  0  2  0  0  0  0  0  0
  187.1170  177.8660  141.4160 C   0  0  0  0  0  2  0  0  0  0  0  0
  189.6870  178.2890  144.2480 C   0  0  0  0  0  2  0  0  0  0  0  0
  187.3120  177.6870  139.0510 C   0  0  1  0  0  3  0  0  0  0  0  0
  189.1580  176.9250  135.8230 C   0  0  0  0  0  2  0  0  0  0  0  0
  189.0550  177.8180  142.9480 C   0  0  2  0  0  3  0  0  0  0  0  0
  187.9190  177.4810  145.8830 C   0  0  0  0  0  2  0  0  0  0  0  0
  186.8150  176.2000  136.5230 C   0  0  1  0  0  3  0  0  0  0  0  0
  189.2800  177.5120  140.4690 C   0  0  1  0  0  3  0  0  0  0  0  0
  186.7300  178.4780  143.8850 C   0  0  1  0  0  3  0  0  0  0  0  0
  187.9730  178.1940  140.2720 N   0  0  2  0  0  0  0  0  0  0  0  0
  192.0340  177.5450  140.8820 C   0  0  0  0  0  2  0  0  0  0  0  0
  185.3070  178.0780  137.4610 C   0  0  0  0  0  2  0  0  0  0  0  0
  191.1660  177.2630  141.9540 O   0  0  0  0  0  0  0  0  0  0  0  0
  185.9850  178.4250  138.7940 C   0  0  0  0  0  2  0  0  0  0  0  0
  187.8480  177.3490  136.4930 C   0  0  1  0  0  3  0  0  0  0  0  0
  191.4330  177.0130  139.5800 C   0  0  0  0  0  2  0  0  0  0  0  0
  189.5130  177.0710  138.1800 C   0  0  2  0  0  3  0  0  0  0  0  0
  187.3050  175.0980  137.2320 O   0  0  0  0  0  0  0  0  0  0  0  0
  186.8850  173.9800  136.5060 C   0  0  0  0  0  2  0  0  0  0  0  0
  189.8990  173.5470  134.6780 C   0  0  0  0  0  2  0  0  0  0  0  0
  189.2720  173.5040  136.9730 C   0  0  0  0  0  2  0  0  0  0  0  0
  188.0890  173.1420  136.1120 C   0  0  2  0  0  3  0  0  0  0  0  0
  190.4490  173.3020  136.0660 C   0  0  0  0  0  2  0  0  0  0  0  0
  188.4490  173.3940  134.7210 N   0  0  0  0  0  2  0  0  0  0  0  0
  1 26  1  1  0  0  0
  1 18  1  0  0  0  0
  2 27  1  0  0  0  0
  3  7  1  6  0  0  0
  3 16  1  0  0  0  0
  4 23  1  1  0  0  0
  4 15  1  0  0  0  0
  5 11  1  6  0  0  0
  5 15  1  0  0  0  0
  5 19  1  0  0  0  0
  6 19  1  0  0  0  0
  8 16  1  0  0  0  0
  9 27  1  0  0  0  0
  9 13  1  0  0  0  0
 10 22  1  0  0  0  0
 12  8  1  0  0  0  0
 13 20  1  0  0  0  0
 14 25  1  0  0  0  0
 14  2  1  0  0  0  0
 15 12  1  0  0  0  0
 17 10  1  0  0  0  0
 17 28  1  0  0  0  0
 18  4  1  0  0  0  0
 19  3  1  0  0  0  0
 20 18  1  0  0  0  0
 20 11  1  0  0  0  0
 21 23  1  0  0  0  0
 22 24  1  0  0  0  0
 24 13  1  0  0  0  0
 25 17  1  0  0  0  0
 25  9  1  0  0  0  0
 26 21  1  0  0  0  0
 27  1  1  0  0  0  0
 29 28  1  0  0  0  0
 30 34  1  0  0  0  0
 30 33  1  0  0  0  0
 32 29  1  0  0  0  0
 32 31  1  0  0  0  0
 33 31  1  0  0  0  0
 34 32  1  0  0  0  0
M  END
>  <MODEL>
4

>  <REMARK>
 VINA RESULT:      -7.3      2.058      3.739
  Name = 
  3 active torsions:
  status: ('A' for Active; 'I' for Inactive)
    1  A    between atoms: C_17  and  O_28
    2  A    between atoms: O_28  and  C_29
    3  A    between atoms: C_29  and  C_32
                            x       y       z     vdW  Elec       q    Type
                         _______ _______ _______ _____ _____    ______ ____

>  <TORSDO>
F 3

$$$$
=
 OpenBabel11122412273D

 34 40  0  0  1  0  0  0  0  0999 V2000
  185.5700  178.8240  138.9260 N   0  0  1  0  0  0  0  0  0  0  0  0
  183.3180  179.0000  137.8120 C   0  0  0  0  0  2  0  0  0  0  0  0
  188.9350  176.3590  143.8950 C   0  0  1  0  0  3  0  0  0  0  0  0
  187.7080  178.3450  140.0630 C   0  0  2  0  0  3  0  0  0  0  0  0
  187.6810  178.2500  142.5730 C   0  0  2  0  0  3  0  0  0  0  0  0
  187.4700  178.0060  145.1210 C   0  0  0  0  0  1  0  0  0  0  0  0
  188.1160  175.4260  143.2530 O   0  0  0  0  0  1  0  0  0  0  0  0
  190.4340  176.5090  141.8070 C   0  0  0  0  0  2  0  0  0  0  0  0
  183.5390  179.1560  140.1440 C   0  0  2  0  0  3  0  0  0  0  0  0
  181.3790  177.8860  142.1250 C   0  0  0  0  0  2  0  0  0  0  0  0
  186.1810  177.9760  142.4930 C   0  0  0  0  0  2  0  0  0  0  0  0
  189.8410  177.8230  141.3160 C   0  0  0  0  0  2  0  0  0  0  0  0
  184.1410  178.5420  141.4050 C   0  0  1  0  0  3  0  0  0  0  0  0
  181.8980  179.0100  138.3800 C   0  0  0  0  0  2  0  0  0  0  0  0
  188.3270  177.6960  141.2990 C   0  0  2  0  0  3  0  0  0  0  0  0
  190.3570  176.3600  143.3270 C   0  0  0  0  0  2  0  0  0  0  0  0
  181.3710  177.8390  140.5830 C   0  0  1  0  0  3  0  0  0  0  0  0
  186.1700  178.1790  140.1150 C   0  0  1  0  0  3  0  0  0  0  0  0
  188.3310  177.7660  143.8900 C   0  0  1  0  0  3  0  0  0  0  0  0
  185.6060  178.7320  141.3760 N   0  0  2  0  0  0  0  0  0  0  0  0
  187.6900  178.4070  137.7920 C   0  0  0  0  0  2  0  0  0  0  0  0
  181.9960  179.1580  142.7170 C   0  0  0  0  0  2  0  0  0  0  0  0
  188.2060  177.7160  138.9040 O   0  0  0  0  0  0  0  0  0  0  0  0
  183.5300  179.1630  142.6760 C   0  0  0  0  0  2  0  0  0  0  0  0
  182.0370  179.0560  139.9040 C   0  0  1  0  0  3  0  0  0  0  0  0
  186.1720  178.2260  137.7320 C   0  0  0  0  0  2  0  0  0  0  0  0
  184.1530  178.4790  138.9610 C   0  0  2  0  0  3  0  0  0  0  0  0
  181.9460  176.6390  140.1510 O   0  0  0  0  0  0  0  0  0  0  0  0
  180.8720  175.8420  139.7500 C   0  0  0  0  0  2  0  0  0  0  0  0
  181.4950  175.9500  136.2540 C   0  0  0  0  0  2  0  0  0  0  0  0
  182.6900  175.2280  138.1820 C   0  0  0  0  0  2  0  0  0  0  0  0
  181.2080  175.1500  138.4400 C   0  0  2  0  0  3  0  0  0  0  0  0
  182.7890  175.2970  136.6870 C   0  0  0  0  0  2  0  0  0  0  0  0
  180.5210  175.8030  137.3310 N   0  0  0  0  0  2  0  0  0  0  0  0
  1 26  1  6  0  0  0
  1 27  1  0  0  0  0
  1 18  1  0  0  0  0
  2 14  1  0  0  0  0
  2 27  1  0  0  0  0
  3  7  1  6  0  0  0
  4 23  1  6  0  0  0
  4 18  1  0  0  0  0
  4 15  1  0  0  0  0
  5 11  1  1  0  0  0
  5 19  1  0  0  0  0
  8 16  1  0  0  0  0
  9 13  1  0  0  0  0
 10 22  1  0  0  0  0
 12  8  1  0  0  0  0
 13 24  1  0  0  0  0
 14 25  1  0  0  0  0
 15 12  1  0  0  0  0
 15  5  1  0  0  0  0
 16  3  1  0  0  0  0
 17 10  1  0  0  0  0
 18 20  1  0  0  0  0
 19  3  1  0  0  0  0
 19  6  1  0  0  0  0
 20 13  1  0  0  0  0
 20 11  1  0  0  0  0
 21 23  1  0  0  0  0
 24 22  1  0  0  0  0
 25  9  1  0  0  0  0
 25 17  1  0  0  0  0
 26 21  1  0  0  0  0
 27  9  1  0  0  0  0
 28 17  1  0  0  0  0
 29 28  1  0  0  0  0
 30 33  1  0  0  0  0
 30 34  1  0  0  0  0
 31 32  1  0  0  0  0
 32 29  1  0  0  0  0
 33 31  1  0  0  0  0
 34 32  1  0  0  0  0
M  END
>  <MODEL>
5

>  <REMARK>
 VINA RESULT:      -7.0      2.534      6.267
  Name = 
  3 active torsions:
  status: ('A' for Active; 'I' for Inactive)
    1  A    between atoms: C_17  and  O_28
    2  A    between atoms: O_28  and  C_29
    3  A    between atoms: C_29  and  C_32
                            x       y       z     vdW  Elec       q    Type
                         _______ _______ _______ _____ _____    ______ ____

>  <TORSDO>
F 3

$$$$
=
 OpenBabel11122412273D

 34 40  0  0  1  0  0  0  0  0999 V2000
  189.6250  177.3680  137.4580 N   0  0  1  0  0  0  0  0  0  0  0  0
  188.5610  177.0410  135.1990 C   0  0  0  0  0  2  0  0  0  0  0  0
  188.9640  176.6450  143.8710 C   0  0  1  0  0  3  0  0  0  0  0  0
  190.5540  177.4030  139.7440 C   0  0  2  0  0  3  0  0  0  0  0  0
  188.9850  177.9900  141.6160 C   0  0  2  0  0  3  0  0  0  0  0  0
  187.2330  178.4290  143.4430 C   0  0  0  0  0  1  0  0  0  0  0  0
  188.6190  175.5050  143.1380 O   0  0  0  0  0  1  0  0  0  0  0  0
  191.4320  176.3510  143.2030 C   0  0  0  0  0  2  0  0  0  0  0  0
  187.3210  177.8420  137.0240 C   0  0  2  0  0  3  0  0  0  0  0  0
  184.2840  176.9760  137.5030 C   0  0  0  0  0  2  0  0  0  0  0  0
  187.8300  177.5760  140.7060 C   0  0  0  0  0  2  0  0  0  0  0  0
  191.4040  177.4270  142.1250 C   0  0  0  0  0  2  0  0  0  0  0  0
  186.9570  177.6480  138.4940 C   0  0  1  0  0  3  0  0  0  0  0  0
  187.1010  177.0810  134.7440 C   0  0  0  0  0  2  0  0  0  0  0  0
  190.2140  177.1690  141.2150 C   0  0  2  0  0  3  0  0  0  0  0  0
  190.4250  176.6140  144.3240 C   0  0  0  0  0  2  0  0  0  0  0  0
  185.2170  176.5110  136.3660 C   0  0  1  0  0  3  0  0  0  0  0  0
  189.3000  177.1240  138.8800 C   0  0  1  0  0  3  0  0  0  0  0  0
  188.6370  177.9400  143.1220 C   0  0  1  0  0  3  0  0  0  0  0  0
  188.1430  177.9480  139.3230 N   0  0  2  0  0  0  0  0  0  0  0  0
  191.9380  176.8440  138.0310 C   0  0  0  0  0  2  0  0  0  0  0  0
  184.5350  178.4080  137.9840 C   0  0  0  0  0  2  0  0  0  0  0  0
  191.5890  176.5280  139.3580 O   0  0  0  0  0  0  0  0  0  0  0  0
  185.7630  178.5350  138.8960 C   0  0  0  0  0  2  0  0  0  0  0  0
  186.2810  177.5510  135.9480 C   0  0  1  0  0  3  0  0  0  0  0  0
  190.7660  176.5230  137.1010 C   0  0  0  0  0  2  0  0  0  0  0  0
  188.4580  176.9250  136.7030 C   0  0  2  0  0  3  0  0  0  0  0  0
  185.8100  175.2940  136.7170 O   0  0  0  0  0  0  0  0  0  0  0  0
  185.1760  174.3350  135.9230 C   0  0  0  0  0  2  0  0  0  0  0  0
  188.3860  172.8940  135.4380 C   0  0  0  0  0  2  0  0  0  0  0  0
  186.6850  172.7590  137.0970 C   0  0  0  0  0  2  0  0  0  0  0  0
  186.0760  173.1220  135.7670 C   0  0  2  0  0  3  0  0  0  0  0  0
  188.0290  172.2000  136.7330 C   0  0  0  0  0  2  0  0  0  0  0  0
  187.1610  173.4110  134.8360 N   0  0  0  0  0  2  0  0  0  0  0  0
  1 26  1  6  0  0  0
  1 18  1  0  0  0  0
  2 27  1  0  0  0  0
  3  7  1  6  0  0  0
  3 16  1  0  0  0  0
  4 23  1  6  0  0  0
  4 15  1  0  0  0  0
  5 11  1  6  0  0  0
  5 19  1  0  0  0  0
  8 16  1  0  0  0  0
  9 13  1  0  0  0  0
 10 22  1  0  0  0  0
 12  8  1  0  0  0  0
 13 24  1  0  0  0  0
 13 20  1  0  0  0  0
 14  2  1  0  0  0  0
 14 25  1  0  0  0  0
 15  5  1  0  0  0  0
 15 12  1  0  0  0  0
 17 28  1  0  0  0  0
 17 10  1  0  0  0  0
 18 20  1  0  0  0  0
 18  4  1  0  0  0  0
 19  6  1  0  0  0  0
 19  3  1  0  0  0  0
 20 11  1  0  0  0  0
 21 23  1  0  0  0  0
 22 24  1  0  0  0  0
 25 17  1  0  0  0  0
 25  9  1  0  0  0  0
 26 21  1  0  0  0  0
 27  9  1  0  0  0  0
 27  1  1  0  0  0  0
 29 28  1  0  0  0  0
 30 33  1  0  0  0  0
 32 29  1  0  0  0  0
 32 31  1  0  0  0  0
 33 31  1  0  0  0  0
 34 30  1  0  0  0  0
 34 32  1  0  0  0  0
M  END
>  <MODEL>
6

>  <REMARK>
 VINA RESULT:      -6.8      2.088      4.514
  Name = 
  3 active torsions:
  status: ('A' for Active; 'I' for Inactive)
    1  A    between atoms: C_17  and  O_28
    2  A    between atoms: O_28  and  C_29
    3  A    between atoms: C_29  and  C_32
                            x       y       z     vdW  Elec       q    Type
                         _______ _______ _______ _____ _____    ______ ____

>  <TORSDO>
F 3

$$$$
=
 OpenBabel11122412273D

 34 40  0  0  1  0  0  0  0  0999 V2000
  188.6870  177.9220  138.6360 N   0  0  1  0  0  0  0  0  0  0  0  0
  188.0870  177.4810  136.2300 C   0  0  0  0  0  2  0  0  0  0  0  0
  186.8520  177.3420  144.8310 C   0  0  1  0  0  3  0  0  0  0  0  0
  189.1630  178.0650  141.0530 C   0  0  2  0  0  3  0  0  0  0  0  0
  187.2430  178.6240  142.5740 C   0  0  2  0  0  3  0  0  0  0  0  0
  185.1590  179.0260  144.0200 C   0  0  0  0  0  1  0  0  0  0  0  0
  186.7030  176.1670  144.0880 O   0  0  0  0  0  1  0  0  0  0  0  0
  189.4130  177.1530  144.6520 C   0  0  0  0  0  2  0  0  0  0  0  0
  186.4900  178.2690  137.7580 C   0  0  2  0  0  3  0  0  0  0  0  0
  183.4580  177.2660  137.6870 C   0  0  0  0  0  2  0  0  0  0  0  0
  186.3010  178.1290  141.4780 C   0  0  0  0  0  2  0  0  0  0  0  0
  189.5430  178.1960  143.5500 C   0  0  0  0  0  2  0  0  0  0  0  0
  185.8620  178.0970  139.1390 C   0  0  1  0  0  3  0  0  0  0  0  0
  186.7410  177.4360  135.5070 C   0  0  0  0  0  2  0  0  0  0  0  0
  188.5610  177.8550  142.4410 C   0  0  2  0  0  3  0  0  0  0  0  0
  188.2010  177.3960  145.5520 C   0  0  0  0  0  2  0  0  0  0  0  0
  184.6090  176.8180  136.7640 C   0  0  1  0  0  3  0  0  0  0  0  0
  188.1090  177.7010  139.9790 C   0  0  1  0  0  3  0  0  0  0  0  0
  186.6180  178.5980  143.9880 C   0  0  1  0  0  3  0  0  0  0  0  0
  186.8540  178.4780  140.1660 N   0  0  2  0  0  0  0  0  0  0  0  0
  190.8700  177.5290  139.6530 C   0  0  0  0  0  2  0  0  0  0  0  0
  183.5500  178.7220  138.1550 C   0  0  0  0  0  2  0  0  0  0  0  0
  190.2900  177.2330  140.9010 O   0  0  0  0  0  0  0  0  0  0  0  0
  184.5760  178.9340  139.2770 C   0  0  0  0  0  2  0  0  0  0  0  0
  185.6870  177.8970  136.5170 C   0  0  1  0  0  3  0  0  0  0  0  0
  189.9120  177.1250  138.5310 C   0  0  0  0  0  2  0  0  0  0  0  0
  187.7060  177.4010  137.6910 C   0  0  2  0  0  3  0  0  0  0  0  0
  185.1770  175.6410  137.2650 O   0  0  0  0  0  0  0  0  0  0  0  0
  184.0980  174.7880  137.5070 C   0  0  0  0  0  2  0  0  0  0  0  0
  185.5380  171.9510  135.9300 C   0  0  0  0  0  2  0  0  0  0  0  0
  183.4910  172.4310  137.0450 C   0  0  0  0  0  2  0  0  0  0  0  0
  184.0610  173.6950  136.4540 C   0  0  2  0  0  3  0  0  0  0  0  0
  184.2080  171.3380  136.3090 C   0  0  0  0  0  2  0  0  0  0  0  0
  185.4090  173.4040  135.9780 N   0  0  0  0  0  2  0  0  0  0  0  0
  1 26  1  1  0  0  0
  1 18  1  0  0  0  0
  2 27  1  0  0  0  0
  3  7  1  6  0  0  0
  3 16  1  0  0  0  0
  4 23  1  6  0  0  0
  4 15  1  0  0  0  0
  5 11  1  6  0  0  0
  5 19  1  0  0  0  0
  8 16  1  0  0  0  0
  9 13  1  0  0  0  0
 10 22  1  0  0  0  0
 12  8  1  0  0  0  0
 13 24  1  0  0  0  0
 13 20  1  0  0  0  0
 14  2  1  0  0  0  0
 14 25  1  0  0  0  0
 15  5  1  0  0  0  0
 15 12  1  0  0  0  0
 17 28  1  0  0  0  0
 17 10  1  0  0  0  0
 18 20  1  0  0  0  0
 18  4  1  0  0  0  0
 19  6  1  0  0  0  0
 19  3  1  0  0  0  0
 20 11  1  0  0  0  0
 21 23  1  0  0  0  0
 22 24  1  0  0  0  0
 25 17  1  0  0  0  0
 25  9  1  0  0  0  0
 26 21  1  0  0  0  0
 27  9  1  0  0  0  0
 27  1  1  0  0  0  0
 28 29  1  0  0  0  0
 30 34  1  0  0  0  0
 30 33  1  0  0  0  0
 32 31  1  0  0  0  0
 32 29  1  0  0  0  0
 33 31  1  0  0  0  0
 34 32  1  0  0  0  0
M  END
>  <MODEL>
7

>  <REMARK>
 VINA RESULT:      -6.6      1.818      3.876
  Name = 
  3 active torsions:
  status: ('A' for Active; 'I' for Inactive)
    1  A    between atoms: C_17  and  O_28
    2  A    between atoms: O_28  and  C_29
    3  A    between atoms: C_29  and  C_32
                            x       y       z     vdW  Elec       q    Type
                         _______ _______ _______ _____ _____    ______ ____

>  <TORSDO>
F 3

$$$$
=
 OpenBabel11122412273D

 34 40  0  0  1  0  0  0  0  0999 V2000
  186.0240  178.4430  138.6890 N   0  0  1  0  0  0  0  0  0  0  0  0
  184.4760  178.0240  136.7460 C   0  0  0  0  0  2  0  0  0  0  0  0
  187.1520  177.3920  144.9900 C   0  0  1  0  0  3  0  0  0  0  0  0
  187.4930  178.5480  140.6680 C   0  0  2  0  0  3  0  0  0  0  0  0
  186.3900  178.8010  142.9110 C   0  0  2  0  0  3  0  0  0  0  0  0
  185.1210  178.8800  145.1430 C   0  0  0  0  0  1  0  0  0  0  0  0
  186.8060  176.2380  144.2810 O   0  0  0  0  0  1  0  0  0  0  0  0
  189.3810  177.5340  143.7100 C   0  0  0  0  0  2  0  0  0  0  0  0
  183.6420  178.5440  138.8770 C   0  0  2  0  0  3  0  0  0  0  0  0
  180.9970  177.1710  140.0280 C   0  0  0  0  0  2  0  0  0  0  0  0
  185.1160  178.2350  142.2870 C   0  0  0  0  0  2  0  0  0  0  0  0
  188.9140  178.6280  142.7590 C   0  0  0  0  0  2  0  0  0  0  0  0
  183.7020  178.2400  140.3730 C   0  0  1  0  0  3  0  0  0  0  0  0
  182.9600  177.8390  136.6720 C   0  0  0  0  0  2  0  0  0  0  0  0
  187.5830  178.2100  142.1550 C   0  0  2  0  0  3  0  0  0  0  0  0
  188.6690  177.5870  145.0630 C   0  0  0  0  0  2  0  0  0  0  0  0
  181.6650  176.9080  138.6630 C   0  0  1  0  0  3  0  0  0  0  0  0
  186.1160  178.0980  140.1240 C   0  0  1  0  0  3  0  0  0  0  0  0
  186.4530  178.6410  144.4470 C   0  0  1  0  0  3  0  0  0  0  0  0
  185.0020  178.7020  140.9020 N   0  0  2  0  0  0  0  0  0  0  0  0
  188.4580  178.2870  138.6280 C   0  0  0  0  0  2  0  0  0  0  0  0
  181.1450  178.6070  140.5400 C   0  0  0  0  0  2  0  0  0  0  0  0
  188.5140  177.8710  139.9710 O   0  0  0  0  0  0  0  0  0  0  0  0
  182.5320  178.9030  141.1250 C   0  0  0  0  0  2  0  0  0  0  0  0
  182.4160  178.1240  138.0750 C   0  0  1  0  0  3  0  0  0  0  0  0
  187.1490  177.8110  137.9960 C   0  0  0  0  0  2  0  0  0  0  0  0
  184.7830  177.8390  138.2160 C   0  0  2  0  0  3  0  0  0  0  0  0
  182.5050  175.7930  138.7620 O   0  0  0  0  0  0  0  0  0  0  0  0
  181.9060  174.8120  137.9680 C   0  0  0  0  0  2  0  0  0  0  0  0
  184.9340  172.9940  137.5930 C   0  0  0  0  0  2  0  0  0  0  0  0
  182.6610  172.6770  136.9630 C   0  0  0  0  0  2  0  0  0  0  0  0
  182.9550  174.1490  137.0940 C   0  0  2  0  0  3  0  0  0  0  0  0
  184.0190  172.0510  136.8450 C   0  0  0  0  0  2  0  0  0  0  0  0
  184.2790  174.2940  137.6900 N   0  0  0  0  0  2  0  0  0  0  0  0
  1 26  1  6  0  0  0
  1 18  1  0  0  0  0
  2 27  1  0  0  0  0
  3  7  1  6  0  0  0
  3 16  1  0  0  0  0
  4 23  1  6  0  0  0
  4 15  1  0  0  0  0
  5 11  1  6  0  0  0
  5 19  1  0  0  0  0
  8 16  1  0  0  0  0
  9 13  1  0  0  0  0
 10 22  1  0  0  0  0
 12  8  1  0  0  0  0
 13 20  1  0  0  0  0
 13 24  1  0  0  0  0
 14  2  1  0  0  0  0
 14 25  1  0  0  0  0
 15 12  1  0  0  0  0
 15  5  1  0  0  0  0
 17 28  1  0  0  0  0
 17 10  1  0  0  0  0
 18  4  1  0  0  0  0
 18 20  1  0  0  0  0
 19  3  1  0  0  0  0
 19  6  1  0  0  0  0
 20 11  1  0  0  0  0
 21 23  1  0  0  0  0
 22 24  1  0  0  0  0
 25 17  1  0  0  0  0
 25  9  1  0  0  0  0
 26 21  1  0  0  0  0
 27  1  1  0  0  0  0
 27  9  1  0  0  0  0
 29 28  1  0  0  0  0
 30 34  1  0  0  0  0
 31 32  1  0  0  0  0
 32 34  1  0  0  0  0
 32 29  1  0  0  0  0
 33 31  1  0  0  0  0
 33 30  1  0  0  0  0
M  END
>  <MODEL>
8

>  <REMARK>
 VINA RESULT:      -6.6      2.120      5.265
  Name = 
  3 active torsions:
  status: ('A' for Active; 'I' for Inactive)
    1  A    between atoms: C_17  and  O_28
    2  A    between atoms: O_28  and  C_29
    3  A    between atoms: C_29  and  C_32
                            x       y       z     vdW  Elec       q    Type
                         _______ _______ _______ _____ _____    ______ ____

>  <TORSDO>
F 3

$$$$
=
 OpenBabel11122412273D

 34 40  0  0  1  0  0  0  0  0999 V2000
  187.0580  178.6280  139.8470 N   0  0  1  0  0  0  0  0  0  0  0  0
  189.4660  178.0630  139.3650 C   0  0  0  0  0  2  0  0  0  0  0  0
  180.8520  177.3720  138.4350 C   0  0  1  0  0  3  0  0  0  0  0  0
  184.6460  178.8690  140.3060 C   0  0  2  0  0  3  0  0  0  0  0  0
  183.0820  178.7550  138.3440 C   0  0  2  0  0  3  0  0  0  0  0  0
  181.5950  178.4400  136.2740 C   0  0  0  0  0  1  0  0  0  0  0  0
  181.6220  176.2260  138.6530 O   0  0  0  0  0  1  0  0  0  0  0  0
  181.0760  178.0170  140.9170 C   0  0  0  0  0  2  0  0  0  0  0  0
  187.8930  178.2690  137.6350 C   0  0  2  0  0  3  0  0  0  0  0  0
  187.9430  176.3490  135.0820 C   0  0  0  0  0  2  0  0  0  0  0  0
  184.1760  178.0050  137.5850 C   0  0  0  0  0  2  0  0  0  0  0  0
  182.1530  179.0680  140.6810 C   0  0  0  0  0  2  0  0  0  0  0  0
  186.5070  177.8780  137.1260 C   0  0  1  0  0  3  0  0  0  0  0  0
  190.1690  177.6030  138.0880 C   0  0  0  0  0  2  0  0  0  0  0  0
  183.2540  178.4510  139.8350 C   0  0  2  0  0  3  0  0  0  0  0  0
  180.1510  177.8420  139.7120 C   0  0  0  0  0  2  0  0  0  0  0  0
  188.8950  176.3110  136.2960 C   0  0  1  0  0  3  0  0  0  0  0  0
  185.7120  178.2080  139.4000 C   0  0  1  0  0  3  0  0  0  0  0  0
  181.6600  178.5030  137.7920 C   0  0  1  0  0  3  0  0  0  0  0  0
  185.4870  178.5380  137.9680 N   0  0  2  0  0  0  0  0  0  0  0  0
  186.0850  178.9350  142.0630 C   0  0  0  0  0  2  0  0  0  0  0  0
  187.4400  177.7480  134.7150 C   0  0  0  0  0  2  0  0  0  0  0  0
  184.8370  178.4450  141.6370 O   0  0  0  0  0  0  0  0  0  0  0  0
  186.3290  178.2570  135.6430 C   0  0  0  0  0  2  0  0  0  0  0  0
  189.1310  177.6830  136.9650 C   0  0  1  0  0  3  0  0  0  0  0  0
  187.2020  178.2670  141.2590 C   0  0  0  0  0  2  0  0  0  0  0  0
  188.0010  177.8370  139.0620 C   0  0  2  0  0  3  0  0  0  0  0  0
  188.4330  175.3690  137.2210 O   0  0  0  0  0  0  0  0  0  0  0  0
  187.6140  174.5070  136.4880 C   0  0  0  0  0  2  0  0  0  0  0  0
  184.1730  173.6260  136.4950 C   0  0  0  0  0  2  0  0  0  0  0  0
  186.1370  172.8520  137.5940 C   0  0  0  0  0  2  0  0  0  0  0  0
  186.2980  174.3030  137.2190 C   0  0  2  0  0  3  0  0  0  0  0  0
  184.6560  172.6280  137.5240 C   0  0  0  0  0  2  0  0  0  0  0  0
  185.1790  174.6750  136.3610 N   0  0  0  0  0  2  0  0  0  0  0  0
  1 26  1  1  0  0  0
  3  7  1  1  0  0  0
  3 16  1  0  0  0  0
  4 23  1  1  0  0  0
  5 11  1  6  0  0  0
  5 15  1  0  0  0  0
  6 19  1  0  0  0  0
  9 27  1  0  0  0  0
 10 17  1  0  0  0  0
 11 20  1  0  0  0  0
 12  8  1  0  0  0  0
 13  9  1  0  0  0  0
 13 20  1  0  0  0  0
 14  2  1  0  0  0  0
 15  4  1  0  0  0  0
 15 12  1  0  0  0  0
 16  8  1  0  0  0  0
 17 25  1  0  0  0  0
 17 28  1  0  0  0  0
 18  1  1  0  0  0  0
 18  4  1  0  0  0  0
 19  5  1  0  0  0  0
 19  3  1  0  0  0  0
 20 18  1  0  0  0  0
 22 10  1  0  0  0  0
 22 24  1  0  0  0  0
 23 21  1  0  0  0  0
 24 13  1  0  0  0  0
 25  9  1  0  0  0  0
 25 14  1  0  0  0  0
 26 21  1  0  0  0  0
 27  2  1  0  0  0  0
 27  1  1  0  0  0  0
 29 32  1  0  0  0  0
 29 28  1  0  0  0  0
 30 33  1  0  0  0  0
 32 31  1  0  0  0  0
 33 31  1  0  0  0  0
 34 30  1  0  0  0  0
 34 32  1  0  0  0  0
M  END
>  <MODEL>
9

>  <REMARK>
 VINA RESULT:      -6.6      1.420      2.143
  Name = 
  3 active torsions:
  status: ('A' for Active; 'I' for Inactive)
    1  A    between atoms: C_17  and  O_28
    2  A    between atoms: O_28  and  C_29
    3  A    between atoms: C_29  and  C_32
                            x       y       z     vdW  Elec       q    Type
                         _______ _______ _______ _____ _____    ______ ____

>  <TORSDO>
F 3

$$$$
