=
 OpenBabel11122410233D

 30 35  0  0  1  0  0  0  0  0999 V2000
  189.0970  177.4090  143.4920 C   0  0  1  0  0  3  0  0  0  0  0  0
  191.1760  176.8620  144.8790 C   0  0  0  0  0  0  0  0  0  0  0  0
  186.8590  177.8870  146.9440 C   0  0  0  0  0  3  0  0  0  0  0  0
  187.7770  178.1950  143.6450 C   0  0  1  0  0  3  0  0  0  0  0  0
  189.9240  178.0660  142.5590 O   0  0  0  0  0  0  0  0  0  0  0  0
  187.4670  178.4990  140.0090 O   0  0  0  0  0  0  0  0  0  0  0  0
  184.6690  178.1130  142.5840 C   0  0  1  0  0  3  0  0  0  0  0  0
  187.9540  178.2640  141.1470 C   0  0  0  0  0  0  0  0  0  0  0  0
  184.4450  177.8760  144.0890 C   0  0  2  0  0  3  0  0  0  0  0  0
  185.6060  178.2720  146.3300 C   0  0  0  0  0  0  0  0  0  0  0  0
  189.3970  177.8430  141.2620 C   0  0  2  0  0  3  0  0  0  0  0  0
  187.1420  178.3790  142.3320 N   0  0  0  0  0  0  0  0  0  0  0  0
  191.7900  176.6070  146.1090 C   0  0  0  0  0  3  0  0  0  0  0  0
  183.3160  178.7980  144.3960 C   0  0  0  0  0  2  0  0  0  0  0  0
  183.3570  178.7520  142.1340 C   0  0  0  0  0  2  0  0  0  0  0  0
  191.9270  176.8000  143.7520 F   0  0  0  0  0  0  0  0  0  0  0  0
  187.6010  177.4200  145.9480 C   0  0  0  0  0  0  0  0  0  0  0  0
  191.0450  176.6330  147.2890 C   0  0  0  0  0  3  0  0  0  0  0  0
  189.8010  177.1690  144.8230 C   0  0  0  0  0  0  0  0  0  0  0  0
  186.8890  177.4380  144.6280 C   0  0  1  0  0  3  0  0  0  0  0  0
  184.6100  178.6940  146.9740 O   0  0  0  0  0  0  0  0  0  0  0  0
  185.6330  178.1210  144.9100 N   0  0  0  0  0  0  0  0  0  0  0  0
  182.7490  179.2410  143.3410 N   0  0  0  0  0  2  0  0  0  0  0  0
  185.8320  180.4080  142.8870 C   0  0  0  0  0  1  0  0  0  0  0  0
  189.6760  176.8970  147.2460 C   0  0  0  0  0  3  0  0  0  0  0  0
  189.0450  177.1430  146.0200 C   0  0  0  0  0  0  0  0  0  0  0  0
  185.8410  179.0400  142.2090 C   0  0  2  0  0  3  0  0  0  0  0  0
  189.5980  176.4040  140.7960 C   0  0  0  0  0  2  0  0  0  0  0  0
  189.9570  176.4010  138.4940 C   0  0  0  0  0  1  0  0  0  0  0  0
  190.6310  176.3540  139.7770 N   0  0  0  0  0  2  0  0  0  0  0  0
  1  5  1  6  0  0  0
  1  4  1  0  0  0  0
  1 19  1  0  0  0  0
  2 13  1  0  0  0  0
  4 12  1  6  0  0  0
  4 20  1  0  0  0  0
  6  8  2  0  0  0  0
  7 15  1  1  0  0  0
  7  9  1  0  0  0  0
  8 11  1  0  0  0  0
  8 12  1  0  0  0  0
  9 14  1  1  0  0  0
  9 22  1  0  0  0  0
 10  3  1  0  0  0  0
 10 21  2  0  0  0  0
 11 28  1  1  0  0  0
 11  5  1  0  0  0  0
 13 18  2  0  0  0  0
 15 23  1  0  0  0  0
 16  2  1  0  0  0  0
 17 26  1  0  0  0  0
 17  3  2  0  0  0  0
 19  2  2  0  0  0  0
 19 26  1  0  0  0  0
 20 22  1  0  0  0  0
 20 17  1  1  0  0  0
 22 10  1  0  0  0  0
 23 14  1  0  0  0  0
 25 18  1  0  0  0  0
 26 25  2  0  0  0  0
 27 12  1  0  0  0  0
 27  7  1  0  0  0  0
 27 24  1  1  0  0  0
 29 30  1  0  0  0  0
 30 28  1  0  0  0  0
M  END
>  <MODEL>
1

>  <REMARK>
 VINA RESULT:      -9.3      0.000      0.000
  Name = 
  2 active torsions:
  status: ('A' for Active; 'I' for Inactive)
    1  A    between atoms: C_11  and  C_28
    2  A    between atoms: C_28  and  N_30
                            x       y       z     vdW  Elec       q    Type
                         _______ _______ _______ _____ _____    ______ ____

>  <TORSDO>
F 2

$$$$
=
 OpenBabel11122410233D

 30 35  0  0  1  0  0  0  0  0999 V2000
  187.3240  178.2420  140.5140 C   0  0  1  0  0  3  0  0  0  0  0  0
  184.9720  178.5950  139.5740 C   0  0  0  0  0  0  0  0  0  0  0  0
  185.8010  177.9610  144.3550 C   0  0  0  0  0  3  0  0  0  0  0  0
  187.9950  177.5790  141.7360 C   0  0  1  0  0  3  0  0  0  0  0  0
  187.6520  177.5150  139.3530 O   0  0  0  0  0  0  0  0  0  0  0  0
  191.1670  177.3120  139.9260 O   0  0  0  0  0  0  0  0  0  0  0  0
  190.6350  177.9450  143.6580 C   0  0  1  0  0  3  0  0  0  0  0  0
  189.9440  177.4990  140.1640 C   0  0  0  0  0  0  0  0  0  0  0  0
  189.5170  178.1980  144.6870 C   0  0  2  0  0  3  0  0  0  0  0  0
  187.0400  177.6930  145.0530 C   0  0  0  0  0  0  0  0  0  0  0  0
  189.0040  177.7880  139.0220 C   0  0  2  0  0  3  0  0  0  0  0  0
  189.4440  177.4560  141.5150 N   0  0  0  0  0  0  0  0  0  0  0  0
  183.6000  178.7910  139.7590 C   0  0  0  0  0  3  0  0  0  0  0  0
  189.9600  177.3810  145.8510 C   0  0  0  0  0  2  0  0  0  0  0  0
  191.7870  177.4280  144.5160 C   0  0  0  0  0  2  0  0  0  0  0  0
  185.4630  178.5920  138.3100 F   0  0  0  0  0  0  0  0  0  0  0  0
  186.1680  178.3610  143.1440 C   0  0  0  0  0  0  0  0  0  0  0  0
  183.0600  178.8300  141.0460 C   0  0  0  0  0  3  0  0  0  0  0  0
  185.8200  178.4150  140.6850 C   0  0  0  0  0  0  0  0  0  0  0  0
  187.6560  178.4110  142.9690 C   0  0  1  0  0  3  0  0  0  0  0  0
  187.1040  177.3610  146.2660 O   0  0  0  0  0  0  0  0  0  0  0  0
  188.1790  177.8440  144.2060 N   0  0  0  0  0  0  0  0  0  0  0  0
  191.1720  176.9940  145.7410 N   0  0  0  0  0  2  0  0  0  0  0  0
  189.8460  175.5530  143.0510 C   0  0  0  0  0  1  0  0  0  0  0  0
  183.8910  178.6910  142.1570 C   0  0  0  0  0  3  0  0  0  0  0  0
  185.2690  178.5060  141.9870 C   0  0  0  0  0  0  0  0  0  0  0  0
  190.3230  176.9160  142.5540 C   0  0  2  0  0  3  0  0  0  0  0  0
  189.1930  179.2040  138.4860 C   0  0  0  0  0  2  0  0  0  0  0  0
  189.1170  178.1760  136.3970 C   0  0  0  0  0  1  0  0  0  0  0  0
  188.6220  179.3090  137.1550 N   0  0  0  0  0  2  0  0  0  0  0  0
  1  5  1  6  0  0  0
  1 19  1  0  0  0  0
  1  4  1  0  0  0  0
  2 13  2  0  0  0  0
  2 19  1  0  0  0  0
  3 10  1  0  0  0  0
  4 12  1  6  0  0  0
  4 20  1  0  0  0  0
  6  8  2  0  0  0  0
  7 15  1  1  0  0  0
  7  9  1  0  0  0  0
  8 12  1  0  0  0  0
  9 14  1  1  0  0  0
 10 21  2  0  0  0  0
 11 28  1  1  0  0  0
 11  5  1  0  0  0  0
 11  8  1  0  0  0  0
 12 27  1  0  0  0  0
 13 18  1  0  0  0  0
 15 23  1  0  0  0  0
 16  2  1  0  0  0  0
 17  3  2  0  0  0  0
 18 25  2  0  0  0  0
 19 26  2  0  0  0  0
 20 17  1  1  0  0  0
 20 22  1  0  0  0  0
 22  9  1  0  0  0  0
 22 10  1  0  0  0  0
 23 14  1  0  0  0  0
 26 25  1  0  0  0  0
 26 17  1  0  0  0  0
 27 24  1  1  0  0  0
 27  7  1  0  0  0  0
 29 30  1  0  0  0  0
 30 28  1  0  0  0  0
M  END
>  <MODEL>
2

>  <REMARK>
 VINA RESULT:      -8.8      2.654      5.710
  Name = 
  2 active torsions:
  status: ('A' for Active; 'I' for Inactive)
    1  A    between atoms: C_11  and  C_28
    2  A    between atoms: C_28  and  N_30
                            x       y       z     vdW  Elec       q    Type
                         _______ _______ _______ _____ _____    ______ ____

>  <TORSDO>
F 2

$$$$
=
 OpenBabel11122410233D

 30 35  0  0  1  0  0  0  0  0999 V2000
  187.2640  177.9150  145.2870 C   0  0  1  0  0  3  0  0  0  0  0  0
  184.8490  178.5320  145.8600 C   0  0  0  0  0  0  0  0  0  0  0  0
  186.5470  178.6280  141.2710 C   0  0  0  0  0  3  0  0  0  0  0  0
  188.3100  178.2240  144.1940 C   0  0  1  0  0  3  0  0  0  0  0  0
  187.6750  178.4990  146.5020 O   0  0  0  0  0  0  0  0  0  0  0  0
  191.0370  177.3070  146.4600 O   0  0  0  0  0  0  0  0  0  0  0  0
  190.8520  176.7990  142.6770 C   0  0  1  0  0  3  0  0  0  0  0  0
  189.8860  177.5990  146.0390 C   0  0  0  0  0  0  0  0  0  0  0  0
  189.8860  176.9620  141.4870 C   0  0  2  0  0  3  0  0  0  0  0  0
  187.8810  178.3720  140.7710 C   0  0  0  0  0  0  0  0  0  0  0  0
  188.7510  177.7370  147.0220 C   0  0  2  0  0  3  0  0  0  0  0  0
  189.6440  177.7850  144.6310 N   0  0  0  0  0  0  0  0  0  0  0  0
  183.5520  178.8750  145.4690 C   0  0  0  0  0  3  0  0  0  0  0  0
  190.7760  177.5030  140.4220 C   0  0  0  0  0  2  0  0  0  0  0  0
  192.2260  176.8000  142.0110 C   0  0  0  0  0  2  0  0  0  0  0  0
  185.1130  178.3900  147.1820 F   0  0  0  0  0  0  0  0  0  0  0  0
  186.5490  178.1600  142.5130 C   0  0  0  0  0  0  0  0  0  0  0  0
  183.2320  179.0030  144.1150 C   0  0  0  0  0  3  0  0  0  0  0  0
  185.8530  178.3320  144.8910 C   0  0  0  0  0  0  0  0  0  0  0  0
  187.8590  177.5450  142.9050 C   0  0  1  0  0  3  0  0  0  0  0  0
  188.2450  178.6100  139.5890 O   0  0  0  0  0  0  0  0  0  0  0  0
  188.7350  177.8220  141.7730 N   0  0  0  0  0  0  0  0  0  0  0  0
  192.0130  177.3950  140.7200 N   0  0  0  0  0  2  0  0  0  0  0  0
  190.9720  179.3300  143.2180 C   0  0  0  0  0  1  0  0  0  0  0  0
  184.2050  178.7710  143.1430 C   0  0  0  0  0  3  0  0  0  0  0  0
  185.5060  178.4140  143.5200 C   0  0  0  0  0  0  0  0  0  0  0  0
  190.8050  177.9070  143.7460 C   0  0  2  0  0  3  0  0  0  0  0  0
  188.2970  176.3780  147.5450 C   0  0  0  0  0  2  0  0  0  0  0  0
  187.9300  177.8780  149.2890 C   0  0  0  0  0  1  0  0  0  0  0  0
  187.6270  176.5390  148.8240 N   0  0  0  0  0  2  0  0  0  0  0  0
  1 19  1  6  0  0  0
  1  5  1  0  0  0  0
  2 16  1  0  0  0  0
  3 17  2  0  0  0  0
  4 12  1  1  0  0  0
  4  1  1  0  0  0  0
  5 11  1  0  0  0  0
  7 15  1  6  0  0  0
  7 27  1  0  0  0  0
  8  6  2  0  0  0  0
  8 11  1  0  0  0  0
  9 14  1  6  0  0  0
  9 22  1  0  0  0  0
  9  7  1  0  0  0  0
 10  3  1  0  0  0  0
 10 22  1  0  0  0  0
 11 28  1  6  0  0  0
 12  8  1  0  0  0  0
 13  2  1  0  0  0  0
 14 23  1  0  0  0  0
 17 26  1  0  0  0  0
 18 13  2  0  0  0  0
 19  2  2  0  0  0  0
 20 17  1  6  0  0  0
 20  4  1  0  0  0  0
 21 10  2  0  0  0  0
 22 20  1  0  0  0  0
 23 15  1  0  0  0  0
 25 26  2  0  0  0  0
 25 18  1  0  0  0  0
 26 19  1  0  0  0  0
 27 24  1  6  0  0  0
 27 12  1  0  0  0  0
 28 30  1  0  0  0  0
 30 29  1  0  0  0  0
M  END
>  <MODEL>
3

>  <REMARK>
 VINA RESULT:      -8.6      2.502      6.631
  Name = 
  2 active torsions:
  status: ('A' for Active; 'I' for Inactive)
    1  A    between atoms: C_11  and  C_28
    2  A    between atoms: C_28  and  N_30
                            x       y       z     vdW  Elec       q    Type
                         _______ _______ _______ _____ _____    ______ ____

>  <TORSDO>
F 2

$$$$
=
 OpenBabel11122410233D

 30 35  0  0  1  0  0  0  0  0999 V2000
  186.3930  178.2410  142.4490 C   0  0  1  0  0  3  0  0  0  0  0  0
  187.0100  178.4310  144.9240 C   0  0  0  0  0  0  0  0  0  0  0  0
  182.3930  178.8270  143.3500 C   0  0  0  0  0  3  0  0  0  0  0  0
  185.2840  178.7280  141.4920 C   0  0  1  0  0  3  0  0  0  0  0  0
  187.6030  178.8840  142.1240 O   0  0  0  0  0  0  0  0  0  0  0  0
  187.4970  178.2890  138.6080 O   0  0  0  0  0  0  0  0  0  0  0  0
  183.7150  177.7640  138.7700 C   0  0  1  0  0  3  0  0  0  0  0  0
  187.0980  178.3800  139.8000 C   0  0  0  0  0  0  0  0  0  0  0  0
  182.5440  177.7610  139.7710 C   0  0  2  0  0  3  0  0  0  0  0  0
  181.8690  178.8060  142.0020 C   0  0  0  0  0  0  0  0  0  0  0  0
  188.1010  178.3180  140.9230 C   0  0  2  0  0  3  0  0  0  0  0  0
  185.6950  178.5240  140.0950 N   0  0  0  0  0  0  0  0  0  0  0  0
  186.6430  178.5470  146.2680 C   0  0  0  0  0  3  0  0  0  0  0  0
  181.4660  178.4490  139.0060 C   0  0  0  0  0  2  0  0  0  0  0  0
  183.0260  178.0030  137.4290 C   0  0  0  0  0  2  0  0  0  0  0  0
  188.3270  178.3340  144.6160 F   0  0  0  0  0  0  0  0  0  0  0  0
  183.6320  178.3650  143.2450 C   0  0  0  0  0  0  0  0  0  0  0  0
  185.2960  178.6200  146.6290 C   0  0  0  0  0  3  0  0  0  0  0  0
  186.0230  178.4090  143.9190 C   0  0  0  0  0  0  0  0  0  0  0  0
  183.9990  177.9840  141.8420 C   0  0  1  0  0  3  0  0  0  0  0  0
  180.6820  179.1060  141.7050 O   0  0  0  0  0  0  0  0  0  0  0  0
  182.8540  178.4090  141.0470 N   0  0  0  0  0  0  0  0  0  0  0  0
  181.7420  178.5550  137.7640 N   0  0  0  0  0  2  0  0  0  0  0  0
  184.2680  180.2770  139.0780 C   0  0  0  0  0  1  0  0  0  0  0  0
  184.3060  178.5610  145.6490 C   0  0  0  0  0  3  0  0  0  0  0  0
  184.6590  178.4330  144.2990 C   0  0  0  0  0  0  0  0  0  0  0  0
  184.7910  178.8450  138.9880 C   0  0  2  0  0  3  0  0  0  0  0  0
  188.6250  176.9000  141.1270 C   0  0  0  0  0  2  0  0  0  0  0  0
  190.0440  176.0710  142.7790 C   0  0  0  0  0  1  0  0  0  0  0  0
  189.9900  176.9430  141.6210 N   0  0  0  0  0  2  0  0  0  0  0  0
  1  5  1  6  0  0  0
  1 19  1  0  0  0  0
  2 13  1  0  0  0  0
  4 12  1  6  0  0  0
  4 20  1  0  0  0  0
  4  1  1  0  0  0  0
  6  8  2  0  0  0  0
  7 15  1  6  0  0  0
  7 27  1  0  0  0  0
  7  9  1  0  0  0  0
  8 12  1  0  0  0  0
  8 11  1  0  0  0  0
  9 14  1  6  0  0  0
  9 22  1  0  0  0  0
 10  3  1  0  0  0  0
 11 28  1  1  0  0  0
 11  5  1  0  0  0  0
 13 18  2  0  0  0  0
 15 23  1  0  0  0  0
 16  2  1  0  0  0  0
 17  3  2  0  0  0  0
 17 26  1  0  0  0  0
 19 26  1  0  0  0  0
 19  2  2  0  0  0  0
 20 17  1  1  0  0  0
 21 10  2  0  0  0  0
 22 20  1  0  0  0  0
 22 10  1  0  0  0  0
 23 14  1  0  0  0  0
 25 18  1  0  0  0  0
 26 25  2  0  0  0  0
 27 24  1  1  0  0  0
 27 12  1  0  0  0  0
 28 30  1  0  0  0  0
 30 29  1  0  0  0  0
M  END
>  <MODEL>
4

>  <REMARK>
 VINA RESULT:      -8.0      2.700      4.358
  Name = 
  2 active torsions:
  status: ('A' for Active; 'I' for Inactive)
    1  A    between atoms: C_11  and  C_28
    2  A    between atoms: C_28  and  N_30
                            x       y       z     vdW  Elec       q    Type
                         _______ _______ _______ _____ _____    ______ ____

>  <TORSDO>
F 2

$$$$
=
 OpenBabel11122410233D

 30 35  0  0  1  0  0  0  0  0999 V2000
  188.3360  177.5920  144.4100 C   0  0  1  0  0  3  0  0  0  0  0  0
  189.6150  177.5580  146.6250 C   0  0  0  0  0  0  0  0  0  0  0  0
  184.8810  178.7700  146.3650 C   0  0  0  0  0  3  0  0  0  0  0  0
  187.1110  178.2970  143.7910 C   0  0  1  0  0  3  0  0  0  0  0  0
  189.5060  178.0470  143.7700 O   0  0  0  0  0  0  0  0  0  0  0  0
  188.3670  177.6500  140.4130 O   0  0  0  0  0  0  0  0  0  0  0  0
  184.7330  177.7340  141.5940 C   0  0  1  0  0  3  0  0  0  0  0  0
  188.3220  177.7450  141.6690 C   0  0  0  0  0  0  0  0  0  0  0  0
  183.8880  177.8710  142.8750 C   0  0  2  0  0  3  0  0  0  0  0  0
  184.0190  178.9000  145.2090 C   0  0  0  0  0  0  0  0  0  0  0  0
  189.5620  177.4670  142.4780 C   0  0  2  0  0  3  0  0  0  0  0  0
  187.0930  178.0990  142.3340 N   0  0  0  0  0  0  0  0  0  0  0  0
  189.6450  177.6650  148.0180 C   0  0  0  0  0  3  0  0  0  0  0  0
  182.7780  178.7610  142.4340 C   0  0  0  0  0  2  0  0  0  0  0  0
  183.7620  178.1470  140.4910 C   0  0  0  0  0  2  0  0  0  0  0  0
  190.7660  177.2650  145.9710 F   0  0  0  0  0  0  0  0  0  0  0  0
  185.9500  178.1200  145.9250 C   0  0  0  0  0  0  0  0  0  0  0  0
  188.4750  177.9370  148.7310 C   0  0  0  0  0  3  0  0  0  0  0  0
  188.4060  177.7450  145.9250 C   0  0  0  0  0  0  0  0  0  0  0  0
  185.8590  177.7540  144.4740 C   0  0  1  0  0  3  0  0  0  0  0  0
  182.8650  179.4020  145.2470 O   0  0  0  0  0  0  0  0  0  0  0  0
  184.6320  178.3970  144.0210 N   0  0  0  0  0  0  0  0  0  0  0  0
  182.7260  178.8820  141.1640 N   0  0  0  0  0  2  0  0  0  0  0  0
  185.7630  180.1070  141.7490 C   0  0  0  0  0  1  0  0  0  0  0  0
  187.2640  178.0860  148.0560 C   0  0  0  0  0  3  0  0  0  0  0  0
  187.2180  177.9700  146.6610 C   0  0  0  0  0  0  0  0  0  0  0  0
  185.9950  178.6160  141.5150 C   0  0  2  0  0  3  0  0  0  0  0  0
  189.8760  175.9750  142.5270 C   0  0  0  0  0  2  0  0  0  0  0  0
  192.0390  176.8210  142.7000 C   0  0  0  0  0  1  0  0  0  0  0  0
  191.1640  175.7600  143.1610 N   0  0  0  0  0  2  0  0  0  0  0  0
  1  5  1  6  0  0  0
  1 19  1  0  0  0  0
  2 13  1  0  0  0  0
  4 12  1  6  0  0  0
  4  1  1  0  0  0  0
  4 20  1  0  0  0  0
  6  8  2  0  0  0  0
  7 15  1  6  0  0  0
  7  9  1  0  0  0  0
  8 12  1  0  0  0  0
  8 11  1  0  0  0  0
  9 14  1  6  0  0  0
  9 22  1  0  0  0  0
 10 21  2  0  0  0  0
 10  3  1  0  0  0  0
 11 28  1  1  0  0  0
 11  5  1  0  0  0  0
 13 18  2  0  0  0  0
 15 23  1  0  0  0  0
 16  2  1  0  0  0  0
 17  3  2  0  0  0  0
 17 26  1  0  0  0  0
 19  2  2  0  0  0  0
 19 26  1  0  0  0  0
 20 17  1  1  0  0  0
 22 20  1  0  0  0  0
 22 10  1  0  0  0  0
 23 14  1  0  0  0  0
 25 18  1  0  0  0  0
 26 25  2  0  0  0  0
 27  7  1  0  0  0  0
 27 24  1  1  0  0  0
 27 12  1  0  0  0  0
 28 30  1  0  0  0  0
 29 30  1  0  0  0  0
M  END
>  <MODEL>
5

>  <REMARK>
 VINA RESULT:      -7.8      1.675      2.101
  Name = 
  2 active torsions:
  status: ('A' for Active; 'I' for Inactive)
    1  A    between atoms: C_11  and  C_28
    2  A    between atoms: C_28  and  N_30
                            x       y       z     vdW  Elec       q    Type
                         _______ _______ _______ _____ _____    ______ ____

>  <TORSDO>
F 2

$$$$
=
 OpenBabel11122410233D

 30 35  0  0  1  0  0  0  0  0999 V2000
  188.2120  177.7020  142.8470 C   0  0  1  0  0  3  0  0  0  0  0  0
  187.2200  178.1120  145.1690 C   0  0  0  0  0  0  0  0  0  0  0  0
  184.7210  179.0370  141.0640 C   0  0  0  0  0  3  0  0  0  0  0  0
  188.0460  178.2310  141.4070 C   0  0  1  0  0  3  0  0  0  0  0  0
  189.4710  178.0940  143.3440 O   0  0  0  0  0  0  0  0  0  0  0  0
  191.4050  177.0700  140.5270 O   0  0  0  0  0  0  0  0  0  0  0  0
  188.2990  177.1860  138.3020 C   0  0  1  0  0  3  0  0  0  0  0  0
  190.3930  177.3780  141.2110 C   0  0  0  0  0  0  0  0  0  0  0  0
  186.7920  177.5020  138.3570 C   0  0  2  0  0  3  0  0  0  0  0  0
  185.1350  178.9240  139.6820 C   0  0  0  0  0  0  0  0  0  0  0  0
  190.4650  177.3030  142.7150 C   0  0  2  0  0  3  0  0  0  0  0  0
  189.1680  177.7830  140.5690 N   0  0  0  0  0  0  0  0  0  0  0  0
  186.1450  178.4590  145.9930 C   0  0  0  0  0  3  0  0  0  0  0  0
  186.5740  178.2490  137.0870 C   0  0  0  0  0  2  0  0  0  0  0  0
  188.6360  177.3550  136.8230 C   0  0  0  0  0  2  0  0  0  0  0  0
  188.3960  177.7640  145.7470 F   0  0  0  0  0  0  0  0  0  0  0  0
  185.6390  178.3710  141.7540 C   0  0  0  0  0  0  0  0  0  0  0  0
  184.9090  178.7950  145.4370 C   0  0  0  0  0  3  0  0  0  0  0  0
  187.0700  178.1170  143.7680 C   0  0  0  0  0  0  0  0  0  0  0  0
  186.6930  177.7560  140.8840 C   0  0  1  0  0  3  0  0  0  0  0  0
  184.4680  179.3700  138.7110 O   0  0  0  0  0  0  0  0  0  0  0  0
  186.3880  178.2530  139.5480 N   0  0  0  0  0  0  0  0  0  0  0  0
  187.5620  178.1460  136.2860 N   0  0  0  0  0  2  0  0  0  0  0  0
  189.0560  179.5950  138.8820 C   0  0  0  0  0  1  0  0  0  0  0  0
  184.7340  178.7680  144.0540 C   0  0  0  0  0  3  0  0  0  0  0  0
  185.7990  178.4100  143.2170 C   0  0  0  0  0  0  0  0  0  0  0  0
  189.2150  178.0990  139.1400 C   0  0  2  0  0  3  0  0  0  0  0  0
  190.4490  175.8580  143.2040 C   0  0  0  0  0  2  0  0  0  0  0  0
  191.6760  176.3770  145.1150 C   0  0  0  0  0  1  0  0  0  0  0  0
  191.6800  175.5620  143.9150 N   0  0  0  0  0  2  0  0  0  0  0  0
  1  5  1  1  0  0  0
  1 19  1  0  0  0  0
  2 16  1  0  0  0  0
  2 13  1  0  0  0  0
  3 17  2  0  0  0  0
  4 12  1  6  0  0  0
  4  1  1  0  0  0  0
  6  8  2  0  0  0  0
  7 15  1  6  0  0  0
  7  9  1  0  0  0  0
  7 27  1  0  0  0  0
  8 11  1  0  0  0  0
  9 14  1  6  0  0  0
  9 22  1  0  0  0  0
 10  3  1  0  0  0  0
 11 28  1  6  0  0  0
 11  5  1  0  0  0  0
 12  8  1  0  0  0  0
 17 26  1  0  0  0  0
 18 13  2  0  0  0  0
 19  2  2  0  0  0  0
 20  4  1  0  0  0  0
 20 17  1  1  0  0  0
 21 10  2  0  0  0  0
 22 10  1  0  0  0  0
 22 20  1  0  0  0  0
 23 15  1  0  0  0  0
 23 14  1  0  0  0  0
 25 18  1  0  0  0  0
 26 19  1  0  0  0  0
 26 25  2  0  0  0  0
 27 24  1  1  0  0  0
 27 12  1  0  0  0  0
 28 30  1  0  0  0  0
 30 29  1  0  0  0  0
M  END
>  <MODEL>
6

>  <REMARK>
 VINA RESULT:      -7.5      2.497      5.275
  Name = 
  2 active torsions:
  status: ('A' for Active; 'I' for Inactive)
    1  A    between atoms: C_11  and  C_28
    2  A    between atoms: C_28  and  N_30
                            x       y       z     vdW  Elec       q    Type
                         _______ _______ _______ _____ _____    ______ ____

>  <TORSDO>
F 2

$$$$
=
 OpenBabel11122410233D

 30 35  0  0  1  0  0  0  0  0999 V2000
  187.0050  177.9980  140.9980 C   0  0  1  0  0  3  0  0  0  0  0  0
  188.6390  177.8780  142.9630 C   0  0  0  0  0  0  0  0  0  0  0  0
  183.8410  178.5980  143.6020 C   0  0  0  0  0  3  0  0  0  0  0  0
  185.6350  178.6280  140.6690 C   0  0  1  0  0  3  0  0  0  0  0  0
  188.0050  178.6380  140.2390 O   0  0  0  0  0  0  0  0  0  0  0  0
  186.3530  178.4620  137.0820 O   0  0  0  0  0  0  0  0  0  0  0  0
  182.9790  178.0380  138.8270 C   0  0  1  0  0  3  0  0  0  0  0  0
  186.5120  178.4250  138.3320 C   0  0  0  0  0  0  0  0  0  0  0  0
  182.3540  177.9540  140.2330 C   0  0  2  0  0  3  0  0  0  0  0  0
  182.7880  178.7500  142.6210 C   0  0  0  0  0  0  0  0  0  0  0  0
  187.8920  178.2010  138.8950 C   0  0  2  0  0  3  0  0  0  0  0  0
  185.3880  178.5760  139.2200 N   0  0  0  0  0  0  0  0  0  0  0  0
  188.8960  177.8470  144.3370 C   0  0  0  0  0  3  0  0  0  0  0  0
  181.1110  178.7600  140.0810 C   0  0  0  0  0  2  0  0  0  0  0  0
  181.8010  178.4540  137.9490 C   0  0  0  0  0  2  0  0  0  0  0  0
  189.6840  177.7780  142.1040 F   0  0  0  0  0  0  0  0  0  0  0  0
  184.8740  178.1130  142.9250 C   0  0  0  0  0  0  0  0  0  0  0  0
  187.8450  177.9190  145.2530 C   0  0  0  0  0  3  0  0  0  0  0  0
  187.3180  178.0040  142.4900 C   0  0  0  0  0  0  0  0  0  0  0  0
  184.5710  177.8870  141.4740 C   0  0  1  0  0  3  0  0  0  0  0  0
  181.6170  179.1200  142.9000 O   0  0  0  0  0  0  0  0  0  0  0  0
  183.2330  178.4380  141.3000 N   0  0  0  0  0  0  0  0  0  0  0  0
  180.8340  179.0020  138.8590 N   0  0  0  0  0  2  0  0  0  0  0  0
  183.8060  180.4790  139.0940 C   0  0  0  0  0  1  0  0  0  0  0  0
  186.5280  178.0050  144.8010 C   0  0  0  0  0  3  0  0  0  0  0  0
  186.2560  178.0260  143.4270 C   0  0  0  0  0  0  0  0  0  0  0  0
  184.1250  179.0530  138.6530 C   0  0  2  0  0  3  0  0  0  0  0  0
  188.3400  176.7530  138.7180 C   0  0  0  0  0  2  0  0  0  0  0  0
  190.6150  176.4280  139.0990 C   0  0  0  0  0  1  0  0  0  0  0  0
  189.6370  176.7120  138.0660 N   0  0  0  0  0  2  0  0  0  0  0  0
  1  5  1  6  0  0  0
  1 19  1  0  0  0  0
  2 13  1  0  0  0  0
  4 12  1  6  0  0  0
  4  1  1  0  0  0  0
  4 20  1  0  0  0  0
  6  8  2  0  0  0  0
  7 15  1  6  0  0  0
  7  9  1  0  0  0  0
  8 11  1  0  0  0  0
  8 12  1  0  0  0  0
  9 14  1  6  0  0  0
  9 22  1  0  0  0  0
 10 21  2  0  0  0  0
 10  3  1  0  0  0  0
 11 28  1  1  0  0  0
 11  5  1  0  0  0  0
 13 18  2  0  0  0  0
 15 23  1  0  0  0  0
 16  2  1  0  0  0  0
 17 26  1  0  0  0  0
 17  3  2  0  0  0  0
 19  2  2  0  0  0  0
 19 26  1  0  0  0  0
 20 17  1  1  0  0  0
 22 20  1  0  0  0  0
 22 10  1  0  0  0  0
 23 14  1  0  0  0  0
 25 18  1  0  0  0  0
 26 25  2  0  0  0  0
 27  7  1  0  0  0  0
 27 24  1  1  0  0  0
 27 12  1  0  0  0  0
 30 28  1  0  0  0  0
 30 29  1  0  0  0  0
M  END
>  <MODEL>
7

>  <REMARK>
 VINA RESULT:      -7.5      2.540      3.815
  Name = 
  2 active torsions:
  status: ('A' for Active; 'I' for Inactive)
    1  A    between atoms: C_11  and  C_28
    2  A    between atoms: C_28  and  N_30
                            x       y       z     vdW  Elec       q    Type
                         _______ _______ _______ _____ _____    ______ ____

>  <TORSDO>
F 2

$$$$
=
 OpenBabel11122410233D

 30 35  0  0  1  0  0  0  0  0999 V2000
  186.5590  178.1860  142.9600 C   0  0  1  0  0  3  0  0  0  0  0  0
  188.9530  177.5260  143.5720 C   0  0  0  0  0  0  0  0  0  0  0  0
  187.4620  177.9170  138.9270 C   0  0  0  0  0  3  0  0  0  0  0  0
  185.5660  177.9900  141.7950 C   0  0  1  0  0  3  0  0  0  0  0  0
  186.1010  177.4710  144.0850 O   0  0  0  0  0  0  0  0  0  0  0  0
  182.7310  178.6400  144.0200 O   0  0  0  0  0  0  0  0  0  0  0  0
  183.0780  179.5560  140.3250 C   0  0  1  0  0  3  0  0  0  0  0  0
  183.9030  178.4020  143.6220 C   0  0  0  0  0  0  0  0  0  0  0  0
  184.0980  179.5290  139.1710 C   0  0  2  0  0  3  0  0  0  0  0  0
  186.1490  178.2170  138.3980 C   0  0  0  0  0  0  0  0  0  0  0  0
  184.9940  178.1660  144.6350 C   0  0  2  0  0  3  0  0  0  0  0  0
  184.2090  178.3720  142.2150 N   0  0  0  0  0  0  0  0  0  0  0  0
  190.2700  177.2350  143.2060 C   0  0  0  0  0  3  0  0  0  0  0  0
  183.2620  179.1010  138.0140 C   0  0  0  0  0  2  0  0  0  0  0  0
  181.7360  179.6190  139.6020 C   0  0  0  0  0  2  0  0  0  0  0  0
  188.6290  177.5220  144.8890 F   0  0  0  0  0  0  0  0  0  0  0  0
  187.3990  178.2470  140.2110 C   0  0  0  0  0  0  0  0  0  0  0  0
  190.6510  177.2570  141.8630 C   0  0  0  0  0  3  0  0  0  0  0  0
  187.9910  177.8230  142.5860 C   0  0  0  0  0  0  0  0  0  0  0  0
  186.0660  178.8080  140.6070 C   0  0  1  0  0  3  0  0  0  0  0  0
  185.8410  178.1060  137.1820 O   0  0  0  0  0  0  0  0  0  0  0  0
  185.2450  178.6500  139.4140 N   0  0  0  0  0  0  0  0  0  0  0  0
  182.0130  179.1680  138.2650 N   0  0  0  0  0  2  0  0  0  0  0  0
  182.9630  176.9810  140.5850 C   0  0  0  0  0  1  0  0  0  0  0  0
  189.7200  177.5870  140.8780 C   0  0  0  0  0  3  0  0  0  0  0  0
  188.3990  177.8920  141.2320 C   0  0  0  0  0  0  0  0  0  0  0  0
  183.0900  178.3390  141.2700 C   0  0  2  0  0  3  0  0  0  0  0  0
  185.4100  179.4630  145.3220 C   0  0  0  0  0  2  0  0  0  0  0  0
  186.4030  178.5290  147.2110 C   0  0  0  0  0  1  0  0  0  0  0  0
  185.2760  179.3250  146.7620 N   0  0  0  0  0  2  0  0  0  0  0  0
  1 19  1  6  0  0  0
  1  5  1  0  0  0  0
  2 16  1  0  0  0  0
  3 17  2  0  0  0  0
  4 12  1  1  0  0  0
  4  1  1  0  0  0  0
  5 11  1  0  0  0  0
  7 15  1  6  0  0  0
  7 27  1  0  0  0  0
  8  6  2  0  0  0  0
  8 11  1  0  0  0  0
  9 14  1  6  0  0  0
  9 22  1  0  0  0  0
  9  7  1  0  0  0  0
 10  3  1  0  0  0  0
 10 22  1  0  0  0  0
 11 28  1  6  0  0  0
 12  8  1  0  0  0  0
 13  2  1  0  0  0  0
 14 23  1  0  0  0  0
 17 26  1  0  0  0  0
 18 13  2  0  0  0  0
 19  2  2  0  0  0  0
 20 17  1  6  0  0  0
 20  4  1  0  0  0  0
 21 10  2  0  0  0  0
 22 20  1  0  0  0  0
 23 15  1  0  0  0  0
 25 26  2  0  0  0  0
 25 18  1  0  0  0  0
 26 19  1  0  0  0  0
 27 24  1  6  0  0  0
 27 12  1  0  0  0  0
 28 30  1  0  0  0  0
 30 29  1  0  0  0  0
M  END
>  <MODEL>
8

>  <REMARK>
 VINA RESULT:      -7.3      2.523      5.631
  Name = 
  2 active torsions:
  status: ('A' for Active; 'I' for Inactive)
    1  A    between atoms: C_11  and  C_28
    2  A    between atoms: C_28  and  N_30
                            x       y       z     vdW  Elec       q    Type
                         _______ _______ _______ _____ _____    ______ ____

>  <TORSDO>
F 2

$$$$
=
 OpenBabel11122410233D

 30 35  0  0  1  0  0  0  0  0999 V2000
  186.6900  178.1020  140.3820 C   0  0  1  0  0  3  0  0  0  0  0  0
  188.5570  177.7880  138.6610 C   0  0  0  0  0  0  0  0  0  0  0  0
  189.4160  177.7400  143.4790 C   0  0  0  0  0  3  0  0  0  0  0  0
  186.5250  178.6050  141.8320 C   0  0  1  0  0  3  0  0  0  0  0  0
  186.0650  179.0070  139.5020 O   0  0  0  0  0  0  0  0  0  0  0  0
  182.9720  179.2790  141.2570 O   0  0  0  0  0  0  0  0  0  0  0  0
  184.6460  178.0750  144.4750 C   0  0  1  0  0  3  0  0  0  0  0  0
  184.1820  179.0040  141.0400 C   0  0  0  0  0  0  0  0  0  0  0  0
  186.0140  177.6230  145.0220 C   0  0  2  0  0  3  0  0  0  0  0  0
  188.5080  177.9560  144.5840 C   0  0  0  0  0  0  0  0  0  0  0  0
  184.6620  178.8470  139.6190 C   0  0  2  0  0  3  0  0  0  0  0  0
  185.1020  178.8240  142.1340 N   0  0  0  0  0  0  0  0  0  0  0  0
  189.8880  177.5060  138.3430 C   0  0  0  0  0  3  0  0  0  0  0  0
  186.0570  178.2770  146.3600 C   0  0  0  0  0  2  0  0  0  0  0  0
  183.8960  178.5090  145.7320 C   0  0  0  0  0  2  0  0  0  0  0  0
  187.6780  178.0010  137.6510 F   0  0  0  0  0  0  0  0  0  0  0  0
  188.6350  177.5420  142.4250 C   0  0  0  0  0  0  0  0  0  0  0  0
  190.8170  177.2520  139.3540 C   0  0  0  0  0  3  0  0  0  0  0  0
  188.1440  177.8390  140.0080 C   0  0  0  0  0  0  0  0  0  0  0  0
  187.1740  177.5850  142.7620 C   0  0  1  0  0  3  0  0  0  0  0  0
  188.8790  178.1070  145.7780 O   0  0  0  0  0  0  0  0  0  0  0  0
  187.1440  177.9840  144.1630 N   0  0  0  0  0  0  0  0  0  0  0  0
  184.9180  178.7290  146.7180 N   0  0  0  0  0  2  0  0  0  0  0  0
  185.4070  180.4930  143.9400 C   0  0  0  0  0  1  0  0  0  0  0  0
  190.4170  177.2610  140.6890 C   0  0  0  0  0  3  0  0  0  0  0  0
  189.0830  177.5300  141.0220 C   0  0  0  0  0  0  0  0  0  0  0  0
  184.6700  179.2420  143.4690 C   0  0  2  0  0  3  0  0  0  0  0  0
  184.1760  177.5360  139.0070 C   0  0  0  0  0  2  0  0  0  0  0  0
  184.8610  176.2380  137.1980 C   0  0  0  0  0  1  0  0  0  0  0  0
  184.3810  177.5560  137.5700 N   0  0  0  0  0  2  0  0  0  0  0  0
  1  5  1  6  0  0  0
  1  4  1  0  0  0  0
  2 19  1  0  0  0  0
  3 10  1  0  0  0  0
  4 12  1  1  0  0  0
  4 20  1  0  0  0  0
  5 11  1  0  0  0  0
  7  9  1  0  0  0  0
  7 15  1  1  0  0  0
  8  6  2  0  0  0  0
  8 12  1  0  0  0  0
  9 14  1  1  0  0  0
 10 21  2  0  0  0  0
 11 28  1  1  0  0  0
 11  8  1  0  0  0  0
 12 27  1  0  0  0  0
 13  2  2  0  0  0  0
 13 18  1  0  0  0  0
 14 23  1  0  0  0  0
 15 23  1  0  0  0  0
 16  2  1  0  0  0  0
 17  3  2  0  0  0  0
 18 25  2  0  0  0  0
 19  1  1  0  0  0  0
 19 26  2  0  0  0  0
 20 17  1  6  0  0  0
 20 22  1  0  0  0  0
 22 10  1  0  0  0  0
 22  9  1  0  0  0  0
 25 26  1  0  0  0  0
 26 17  1  0  0  0  0
 27 24  1  1  0  0  0
 27  7  1  0  0  0  0
 29 30  1  0  0  0  0
 30 28  1  0  0  0  0
M  END
>  <MODEL>
9

>  <REMARK>
 VINA RESULT:      -7.3      2.646      4.725
  Name = 
  2 active torsions:
  status: ('A' for Active; 'I' for Inactive)
    1  A    between atoms: C_11  and  C_28
    2  A    between atoms: C_28  and  N_30
                            x       y       z     vdW  Elec       q    Type
                         _______ _______ _______ _____ _____    ______ ____

>  <TORSDO>
F 2

$$$$
