=
 OpenBabel11122411593D

 28 32  0  0  1  0  0  0  0  0999 V2000
  189.4480  178.0300  138.1700 C   0  0  0  0  0  0  0  0  0  0  0  0
  193.0520  176.1800  135.0530 O   0  0  0  0  0  0  0  0  0  0  0  0
  187.2060  173.4370  137.2180 C   0  0  0  0  0  1  0  0  0  0  0  0
  189.8430  176.7980  140.6560 C   0  0  0  0  0  3  0  0  0  0  0  0
  189.3750  173.2030  136.1380 N   0  0  0  0  0  0  0  0  0  0  0  0
  189.1500  178.6640  136.8430 C   0  0  0  0  0  2  0  0  0  0  0  0
  193.9310  177.1280  137.1420 O   0  0  0  0  0  0  0  0  0  0  0  0
  193.3820  175.8900  136.4910 S   0  0  0  0  0  0  0  0  0  0  0  0
  193.9700  173.3390  137.1570 C   0  0  2  0  0  3  0  0  0  0  0  0
  191.9640  175.3510  137.3490 N   0  0  2  0  0  0  0  0  0  0  0  0
  185.5550  177.3190  136.3490 C   0  0  0  0  0  1  0  0  0  0  0  0
  189.9310  175.5500  136.0180 C   0  0  1  0  0  3  0  0  0  0  0  0
  192.6440  173.0470  136.4680 C   0  0  0  0  0  2  0  0  0  0  0  0
  194.5970  174.5910  136.5630 C   0  0  0  0  0  2  0  0  0  0  0  0
  187.0410  177.2350  136.6250 C   0  0  1  0  0  3  0  0  0  0  0  0
  190.2200  176.8510  138.2520 C   0  0  0  0  0  0  0  0  0  0  0  0
  188.1390  173.9760  136.1520 C   0  0  2  0  0  3  0  0  0  0  0  0
  194.9110  172.1700  136.9640 C   0  0  0  0  0  1  0  0  0  0  0  0
  187.6560  176.3100  135.6840 N   0  0  0  0  0  2  0  0  0  0  0  0
  190.3980  176.2380  139.5030 C   0  0  0  0  0  3  0  0  0  0  0  0
  188.9040  178.5890  139.3340 C   0  0  0  0  0  3  0  0  0  0  0  0
  189.1030  177.9770  140.5730 C   0  0  0  0  0  3  0  0  0  0  0  0
  187.6570  178.6280  136.5030 C   0  0  0  0  0  2  0  0  0  0  0  0
  190.4570  174.1450  135.8710 C   0  0  1  0  0  3  0  0  0  0  0  0
  188.4940  175.4090  136.4610 C   0  0  2  0  0  3  0  0  0  0  0  0
  191.5330  174.0050  136.9270 C   0  0  2  0  0  3  0  0  0  0  0  0
  189.3060  172.3730  135.0710 O   0  0  0  0  0  1  0  0  0  0  0  0
  190.8660  176.2570  137.0130 C   0  0  1  0  0  3  0  0  0  0  0  0
  1 16  2  0  0  0  0
  1 21  1  0  0  0  0
  2  8  2  0  0  0  0
  5 17  1  0  0  0  0
  6  1  1  0  0  0  0
  8 14  1  0  0  0  0
  8  7  2  0  0  0  0
  9 18  1  6  0  0  0
 10  8  1  6  0  0  0
 11 15  1  0  0  0  0
 12 25  1  0  0  0  0
 12 28  1  0  0  0  0
 13 26  1  0  0  0  0
 13  9  1  0  0  0  0
 14  9  1  0  0  0  0
 16 20  1  0  0  0  0
 17 25  1  0  0  0  0
 17  3  1  0  0  0  0
 19 25  1  0  0  0  0
 19 15  1  0  0  0  0
 20  4  2  0  0  0  0
 21 22  2  0  0  0  0
 22  4  1  0  0  0  0
 23 15  1  0  0  0  0
 23  6  1  0  0  0  0
 24 12  1  0  0  0  0
 24  5  1  0  0  0  0
 24 26  1  0  0  0  0
 26 10  1  0  0  0  0
 27  5  1  0  0  0  0
 28 10  1  0  0  0  0
 28 16  1  0  0  0  0
M  END
>  <MODEL>
1

>  <REMARK>
 VINA RESULT:      -6.6      0.000      0.000
  Name = 
  0 active torsions:
  status: ('A' for Active; 'I' for Inactive)
                            x       y       z     vdW  Elec       q    Type
                         _______ _______ _______ _____ _____    ______ ____

>  <TORSDO>
F 0

$$$$
=
 OpenBabel11122411593D

 28 32  0  0  1  0  0  0  0  0999 V2000
  185.3890  176.1890  135.8560 C   0  0  0  0  0  0  0  0  0  0  0  0
  181.8600  179.4840  137.5350 O   0  0  0  0  0  0  0  0  0  0  0  0
  187.7640  177.5010  140.2910 C   0  0  0  0  0  1  0  0  0  0  0  0
  185.0110  173.8190  137.3030 C   0  0  0  0  0  3  0  0  0  0  0  0
  185.6110  178.6170  140.4920 N   0  0  0  0  0  0  0  0  0  0  0  0
  185.6790  177.4550  135.1050 C   0  0  0  0  0  2  0  0  0  0  0  0
  180.9410  177.3310  136.7900 O   0  0  0  0  0  0  0  0  0  0  0  0
  181.5280  178.0780  137.9530 S   0  0  0  0  0  0  0  0  0  0  0  0
  181.0060  177.6330  140.5660 C   0  0  2  0  0  3  0  0  0  0  0  0
  182.9540  177.2550  138.5240 N   0  0  2  0  0  0  0  0  0  0  0  0
  189.3130  178.0270  136.3070 C   0  0  0  0  0  1  0  0  0  0  0  0
  184.9900  178.5460  138.1590 C   0  0  1  0  0  3  0  0  0  0  0  0
  182.3440  178.3320  140.7640 C   0  0  0  0  0  2  0  0  0  0  0  0
  180.3490  178.1270  139.2860 C   0  0  0  0  0  2  0  0  0  0  0  0
  187.8280  177.7730  136.4540 C   0  0  1  0  0  3  0  0  0  0  0  0
  184.6490  176.2130  137.0580 C   0  0  0  0  0  0  0  0  0  0  0  0
  186.8250  178.5270  139.6900 C   0  0  2  0  0  3  0  0  0  0  0  0
  180.0990  177.9320  141.7400 C   0  0  0  0  0  1  0  0  0  0  0  0
  187.2460  178.7930  137.3130 N   0  0  0  0  0  2  0  0  0  0  0  0
  184.4800  175.0200  137.7790 C   0  0  0  0  0  3  0  0  0  0  0  0
  185.9090  174.9780  135.3820 C   0  0  0  0  0  3  0  0  0  0  0  0
  185.7190  173.7960  136.1010 C   0  0  0  0  0  3  0  0  0  0  0  0
  187.1740  177.7830  135.0730 C   0  0  0  0  0  2  0  0  0  0  0  0
  184.5040  178.8150  139.5610 C   0  0  1  0  0  3  0  0  0  0  0  0
  186.4280  178.1030  138.2980 C   0  0  2  0  0  3  0  0  0  0  0  0
  183.4260  177.7840  139.8180 C   0  0  2  0  0  3  0  0  0  0  0  0
  185.7090  179.7490  141.2280 O   0  0  0  0  0  1  0  0  0  0  0  0
  184.0300  177.5040  137.5640 C   0  0  1  0  0  3  0  0  0  0  0  0
  1 16  1  0  0  0  0
  2  8  2  0  0  0  0
  4 20  1  0  0  0  0
  5 27  1  0  0  0  0
  6  1  1  0  0  0  0
  7  8  2  0  0  0  0
  8 14  1  0  0  0  0
  9 13  1  0  0  0  0
  9 18  1  1  0  0  0
 10  8  1  6  0  0  0
 10 26  1  0  0  0  0
 11 15  1  0  0  0  0
 12 25  1  0  0  0  0
 12 24  1  0  0  0  0
 14  9  1  0  0  0  0
 15 19  1  0  0  0  0
 16 28  1  0  0  0  0
 16 20  2  0  0  0  0
 17  3  1  0  0  0  0
 17  5  1  0  0  0  0
 19 25  1  0  0  0  0
 21  1  2  0  0  0  0
 21 22  1  0  0  0  0
 22  4  2  0  0  0  0
 23  6  1  0  0  0  0
 23 15  1  0  0  0  0
 24 26  1  0  0  0  0
 24  5  1  0  0  0  0
 25 17  1  0  0  0  0
 26 13  1  0  0  0  0
 28 12  1  0  0  0  0
 28 10  1  0  0  0  0
M  END
>  <MODEL>
2

>  <REMARK>
 VINA RESULT:      -5.5      5.367      8.773
  Name = 
  0 active torsions:
  status: ('A' for Active; 'I' for Inactive)
                            x       y       z     vdW  Elec       q    Type
                         _______ _______ _______ _____ _____    ______ ____

>  <TORSDO>
F 0

$$$$
=
 OpenBabel11122411593D

 28 32  0  0  1  0  0  0  0  0999 V2000
  185.6340  175.1280  135.6620 C   0  0  0  0  0  0  0  0  0  0  0  0
  181.4340  177.9110  136.5210 O   0  0  0  0  0  0  0  0  0  0  0  0
  187.4220  177.7760  139.7630 C   0  0  0  0  0  1  0  0  0  0  0  0
  185.6310  173.0780  137.5730 C   0  0  0  0  0  3  0  0  0  0  0  0
  185.0850  178.4490  139.6740 N   0  0  0  0  0  0  0  0  0  0  0  0
  185.7210  176.2450  134.6640 C   0  0  0  0  0  2  0  0  0  0  0  0
  180.9990  175.5110  136.2340 O   0  0  0  0  0  0  0  0  0  0  0  0
  181.3540  176.5840  137.2230 S   0  0  0  0  0  0  0  0  0  0  0  0
  180.7630  176.5880  139.8590 C   0  0  2  0  0  3  0  0  0  0  0  0
  182.8730  176.2020  137.9870 N   0  0  2  0  0  0  0  0  0  0  0  0
  189.0910  177.7760  135.7920 C   0  0  0  0  0  1  0  0  0  0  0  0
  184.6400  177.7760  137.3980 C   0  0  1  0  0  3  0  0  0  0  0  0
  181.9250  177.5690  139.9310 C   0  0  0  0  0  2  0  0  0  0  0  0
  180.1060  176.6650  138.4890 C   0  0  0  0  0  2  0  0  0  0  0  0
  187.6770  177.2620  135.9590 C   0  0  1  0  0  3  0  0  0  0  0  0
  184.8290  175.2480  136.8150 C   0  0  0  0  0  0  0  0  0  0  0  0
  186.3420  178.4440  138.9370 C   0  0  2  0  0  3  0  0  0  0  0  0
  179.7420  176.9320  140.9220 C   0  0  0  0  0  1  0  0  0  0  0  0
  186.8540  178.2970  136.5670 N   0  0  0  0  0  2  0  0  0  0  0  0
  184.8480  174.2190  137.7700 C   0  0  0  0  0  3  0  0  0  0  0  0
  186.4080  173.9760  135.4690 C   0  0  0  0  0  3  0  0  0  0  0  0
  186.4050  172.9540  136.4200 C   0  0  0  0  0  3  0  0  0  0  0  0
  187.1230  176.8550  134.5940 C   0  0  0  0  0  2  0  0  0  0  0  0
  184.0230  178.2230  138.6990 C   0  0  1  0  0  3  0  0  0  0  0  0
  186.1250  177.6720  137.6590 C   0  0  2  0  0  3  0  0  0  0  0  0
  183.1500  177.0700  139.1480 C   0  0  2  0  0  3  0  0  0  0  0  0
  184.9150  179.7040  140.1530 O   0  0  0  0  0  1  0  0  0  0  0  0
  183.9400  176.4610  137.0190 C   0  0  1  0  0  3  0  0  0  0  0  0
  1 16  1  0  0  0  0
  2  8  2  0  0  0  0
  4 20  1  0  0  0  0
  5 27  1  0  0  0  0
  6  1  1  0  0  0  0
  7  8  2  0  0  0  0
  8 14  1  0  0  0  0
  9 13  1  0  0  0  0
  9 18  1  1  0  0  0
 10  8  1  6  0  0  0
 10 26  1  0  0  0  0
 11 15  1  0  0  0  0
 12 25  1  0  0  0  0
 12 24  1  0  0  0  0
 14  9  1  0  0  0  0
 15 19  1  0  0  0  0
 16 28  1  0  0  0  0
 16 20  2  0  0  0  0
 17  5  1  0  0  0  0
 17  3  1  0  0  0  0
 19 25  1  0  0  0  0
 21  1  2  0  0  0  0
 21 22  1  0  0  0  0
 22  4  2  0  0  0  0
 23  6  1  0  0  0  0
 23 15  1  0  0  0  0
 24 26  1  0  0  0  0
 24  5  1  0  0  0  0
 25 17  1  0  0  0  0
 26 13  1  0  0  0  0
 28 12  1  0  0  0  0
 28 10  1  0  0  0  0
M  END
>  <MODEL>
3

>  <REMARK>
 VINA RESULT:      -5.2      5.326      8.678
  Name = 
  0 active torsions:
  status: ('A' for Active; 'I' for Inactive)
                            x       y       z     vdW  Elec       q    Type
                         _______ _______ _______ _____ _____    ______ ____

>  <TORSDO>
F 0

$$$$
=
 OpenBabel11122411593D

 28 32  0  0  1  0  0  0  0  0999 V2000
  183.0800  177.5050  136.5540 C   0  0  0  0  0  0  0  0  0  0  0  0
  187.9620  177.9800  135.1180 O   0  0  0  0  0  0  0  0  0  0  0  0
  184.5530  172.6290  137.5940 C   0  0  0  0  0  1  0  0  0  0  0  0
  183.0640  177.6040  139.3540 C   0  0  0  0  0  3  0  0  0  0  0  0
  186.6580  173.7080  137.0170 N   0  0  0  0  0  0  0  0  0  0  0  0
  183.0390  177.3750  135.0590 C   0  0  0  0  0  2  0  0  0  0  0  0
  187.1830  179.7680  136.6120 O   0  0  0  0  0  0  0  0  0  0  0  0
  187.7800  178.3910  136.5530 S   0  0  0  0  0  0  0  0  0  0  0  0
  189.4060  177.2740  138.3980 C   0  0  2  0  0  3  0  0  0  0  0  0
  186.7440  177.2630  137.3870 N   0  0  2  0  0  0  0  0  0  0  0  0
  181.4870  173.8380  134.8220 C   0  0  0  0  0  1  0  0  0  0  0  0
  185.7350  175.6310  135.8830 C   0  0  1  0  0  3  0  0  0  0  0  0
  188.9200  175.9740  137.7720 C   0  0  0  0  0  2  0  0  0  0  0  0
  189.3620  178.3920  137.3690 C   0  0  0  0  0  2  0  0  0  0  0  0
  182.4720  174.8920  135.2810 C   0  0  1  0  0  3  0  0  0  0  0  0
  184.2760  177.2790  137.2680 C   0  0  0  0  0  0  0  0  0  0  0  0
  185.3310  173.3630  136.5200 C   0  0  2  0  0  3  0  0  0  0  0  0
  190.8270  177.1010  138.8880 C   0  0  0  0  0  1  0  0  0  0  0  0
  183.8250  174.4610  134.9630 N   0  0  0  0  0  2  0  0  0  0  0  0
  184.2490  177.3190  138.6720 C   0  0  0  0  0  3  0  0  0  0  0  0
  181.8980  177.7990  137.2470 C   0  0  0  0  0  3  0  0  0  0  0  0
  181.8910  177.8510  138.6420 C   0  0  0  0  0  3  0  0  0  0  0  0
  182.1460  176.2200  134.5990 C   0  0  0  0  0  2  0  0  0  0  0  0
  186.9830  175.0230  136.4730 C   0  0  1  0  0  3  0  0  0  0  0  0
  184.6240  174.6470  136.1640 C   0  0  2  0  0  3  0  0  0  0  0  0
  187.3940  175.9540  137.5930 C   0  0  2  0  0  3  0  0  0  0  0  0
  187.5250  172.8300  136.4610 O   0  0  0  0  0  1  0  0  0  0  0  0
  185.5800  177.0120  136.5380 C   0  0  1  0  0  3  0  0  0  0  0  0
  1 21  2  0  0  0  0
  1 16  1  0  0  0  0
  2  8  2  0  0  0  0
  6  1  1  0  0  0  0
  8  7  2  0  0  0  0
  8 14  1  0  0  0  0
  9 18  1  6  0  0  0
 10  8  1  6  0  0  0
 10 26  1  0  0  0  0
 11 15  1  0  0  0  0
 12 25  1  0  0  0  0
 12 24  1  0  0  0  0
 12 28  1  0  0  0  0
 13  9  1  0  0  0  0
 14  9  1  0  0  0  0
 16 20  2  0  0  0  0
 17  5  1  0  0  0  0
 17  3  1  0  0  0  0
 19 15  1  0  0  0  0
 19 25  1  0  0  0  0
 20  4  1  0  0  0  0
 21 22  1  0  0  0  0
 22  4  2  0  0  0  0
 23  6  1  0  0  0  0
 23 15  1  0  0  0  0
 24  5  1  0  0  0  0
 24 26  1  0  0  0  0
 25 17  1  0  0  0  0
 26 13  1  0  0  0  0
 27  5  1  0  0  0  0
 28 16  1  0  0  0  0
 28 10  1  0  0  0  0
M  END
>  <MODEL>
4

>  <REMARK>
 VINA RESULT:      -5.2      3.469      5.554
  Name = 
  0 active torsions:
  status: ('A' for Active; 'I' for Inactive)
                            x       y       z     vdW  Elec       q    Type
                         _______ _______ _______ _____ _____    ______ ____

>  <TORSDO>
F 0

$$$$
=
 OpenBabel11122411593D

 28 32  0  0  1  0  0  0  0  0999 V2000
  181.4550  175.8190  136.6850 C   0  0  0  0  0  0  0  0  0  0  0  0
  186.3390  174.3430  136.9920 O   0  0  0  0  0  0  0  0  0  0  0  0
  183.2590  180.0150  139.1670 C   0  0  0  0  0  1  0  0  0  0  0  0
  181.3200  177.6840  134.5980 C   0  0  0  0  0  3  0  0  0  0  0  0
  185.2950  178.7780  138.6680 N   0  0  0  0  0  0  0  0  0  0  0  0
  181.4840  174.8800  137.8560 C   0  0  0  0  0  2  0  0  0  0  0  0
  185.3650  174.1080  134.7500 O   0  0  0  0  0  0  0  0  0  0  0  0
  186.0680  175.0450  135.6900 S   0  0  0  0  0  0  0  0  0  0  0  0
  187.7010  177.0800  134.9940 C   0  0  2  0  0  3  0  0  0  0  0  0
  185.0910  176.4640  135.9490 N   0  0  2  0  0  0  0  0  0  0  0  0
  180.2200  177.3140  140.5870 C   0  0  0  0  0  1  0  0  0  0  0  0
  184.2720  176.6320  138.2400 C   0  0  1  0  0  3  0  0  0  0  0  0
  187.3430  177.6000  136.3790 C   0  0  0  0  0  2  0  0  0  0  0  0
  187.6120  175.5620  134.9710 C   0  0  0  0  0  2  0  0  0  0  0  0
  181.1020  176.8430  139.4500 C   0  0  1  0  0  3  0  0  0  0  0  0
  182.6350  176.4410  136.2270 C   0  0  0  0  0  0  0  0  0  0  0  0
  184.0200  178.7210  139.3730 C   0  0  2  0  0  3  0  0  0  0  0  0
  189.1120  177.5030  134.6430 C   0  0  0  0  0  1  0  0  0  0  0  0
  182.4950  176.8950  139.8650 N   0  0  0  0  0  2  0  0  0  0  0  0
  182.5500  177.3840  135.1890 C   0  0  0  0  0  3  0  0  0  0  0  0
  180.2280  176.1190  136.0800 C   0  0  0  0  0  3  0  0  0  0  0  0
  180.1610  177.0470  135.0380 C   0  0  0  0  0  3  0  0  0  0  0  0
  180.7020  175.4220  139.0550 C   0  0  0  0  0  2  0  0  0  0  0  0
  185.5380  177.4430  138.1290 C   0  0  1  0  0  3  0  0  0  0  0  0
  183.2300  177.5690  138.8050 C   0  0  2  0  0  3  0  0  0  0  0  0
  185.8310  177.5330  136.6470 C   0  0  2  0  0  3  0  0  0  0  0  0
  186.2490  179.0030  139.6020 O   0  0  0  0  0  1  0  0  0  0  0  0
  183.9840  176.0920  136.8300 C   0  0  1  0  0  3  0  0  0  0  0  0
  1  6  1  0  0  0  0
  3 17  1  0  0  0  0
  4 22  2  0  0  0  0
  4 20  1  0  0  0  0
  5 17  1  0  0  0  0
  5 27  1  0  0  0  0
  6 23  1  0  0  0  0
  7  8  2  0  0  0  0
  8  2  2  0  0  0  0
  9 18  1  1  0  0  0
  9 13  1  0  0  0  0
 10  8  1  1  0  0  0
 10 26  1  0  0  0  0
 10 28  1  0  0  0  0
 12 25  1  0  0  0  0
 13 26  1  0  0  0  0
 14  9  1  0  0  0  0
 14  8  1  0  0  0  0
 15 19  1  0  0  0  0
 15 11  1  0  0  0  0
 16  1  1  0  0  0  0
 16 28  1  0  0  0  0
 20 16  2  0  0  0  0
 21  1  2  0  0  0  0
 22 21  1  0  0  0  0
 23 15  1  0  0  0  0
 24 12  1  0  0  0  0
 24  5  1  0  0  0  0
 25 17  1  0  0  0  0
 25 19  1  0  0  0  0
 26 24  1  0  0  0  0
 28 12  1  0  0  0  0
M  END
>  <MODEL>
5

>  <REMARK>
 VINA RESULT:      -4.7      4.765      7.844
  Name = 
  0 active torsions:
  status: ('A' for Active; 'I' for Inactive)
                            x       y       z     vdW  Elec       q    Type
                         _______ _______ _______ _____ _____    ______ ____

>  <TORSDO>
F 0

$$$$
=
 OpenBabel11122411593D

 28 32  0  0  1  0  0  0  0  0999 V2000
  180.2880  179.3770  139.4150 C   0  0  0  0  0  0  0  0  0  0  0  0
  183.8260  175.9800  137.9770 O   0  0  0  0  0  0  0  0  0  0  0  0
  183.5730  180.1260  143.3740 C   0  0  0  0  0  1  0  0  0  0  0  0
  181.2850  181.9020  138.7190 C   0  0  0  0  0  3  0  0  0  0  0  0
  184.8230  178.6220  141.9250 N   0  0  0  0  0  0  0  0  0  0  0  0
  179.7400  178.0570  139.8720 C   0  0  0  0  0  2  0  0  0  0  0  0
  183.1130  177.4980  136.1820 O   0  0  0  0  0  0  0  0  0  0  0  0
  184.0660  177.3160  137.3290 S   0  0  0  0  0  0  0  0  0  0  0  0
  186.5340  178.3940  137.5430 C   0  0  2  0  0  3  0  0  0  0  0  0
  183.8540  178.6050  138.4830 N   0  0  2  0  0  0  0  0  0  0  0  0
  179.4820  178.8110  143.6590 C   0  0  0  0  0  1  0  0  0  0  0  0
  182.9630  177.8180  140.6120 C   0  0  1  0  0  3  0  0  0  0  0  0
  186.3120  178.1490  139.0290 C   0  0  0  0  0  2  0  0  0  0  0  0
  185.7410  177.3840  136.7280 C   0  0  0  0  0  2  0  0  0  0  0  0
  180.1570  178.7170  142.3070 C   0  0  1  0  0  3  0  0  0  0  0  0
  181.6660  179.5370  139.1530 C   0  0  0  0  0  0  0  0  0  0  0  0
  183.6040  178.7640  142.7110 C   0  0  2  0  0  3  0  0  0  0  0  0
  188.0050  178.2510  137.2200 C   0  0  0  0  0  1  0  0  0  0  0  0
  181.3530  177.8970  142.4200 N   0  0  0  0  0  2  0  0  0  0  0  0
  182.1520  180.8110  138.8180 C   0  0  0  0  0  3  0  0  0  0  0  0
  179.4250  180.4750  139.3040 C   0  0  0  0  0  3  0  0  0  0  0  0
  179.9210  181.7320  138.9540 C   0  0  0  0  0  3  0  0  0  0  0  0
  179.1790  178.1210  141.2950 C   0  0  0  0  0  2  0  0  0  0  0  0
  184.4650  177.8780  140.7210 C   0  0  1  0  0  3  0  0  0  0  0  0
  182.4320  178.6280  141.7710 C   0  0  2  0  0  3  0  0  0  0  0  0
  184.9290  178.6330  139.4940 C   0  0  2  0  0  3  0  0  0  0  0  0
  185.6600  177.8330  142.6380 O   0  0  0  0  0  1  0  0  0  0  0  0
  182.6120  178.3520  139.2140 C   0  0  1  0  0  3  0  0  0  0  0  0
  1  6  1  0  0  0  0
  4 20  2  0  0  0  0
  4 22  1  0  0  0  0
  5 27  1  0  0  0  0
  5 17  1  0  0  0  0
  6 23  1  0  0  0  0
  7  8  2  0  0  0  0
  8  2  2  0  0  0  0
  9 18  1  1  0  0  0
  9 13  1  0  0  0  0
 10  8  1  6  0  0  0
 10 28  1  0  0  0  0
 10 26  1  0  0  0  0
 12 24  1  0  0  0  0
 12 25  1  0  0  0  0
 13 26  1  0  0  0  0
 14  8  1  0  0  0  0
 14  9  1  0  0  0  0
 15 19  1  0  0  0  0
 15 11  1  0  0  0  0
 16 28  1  0  0  0  0
 16  1  2  0  0  0  0
 17  3  1  0  0  0  0
 20 16  1  0  0  0  0
 21  1  1  0  0  0  0
 22 21  2  0  0  0  0
 23 15  1  0  0  0  0
 24  5  1  0  0  0  0
 25 19  1  0  0  0  0
 25 17  1  0  0  0  0
 26 24  1  0  0  0  0
 28 12  1  0  0  0  0
M  END
>  <MODEL>
6

>  <REMARK>
 VINA RESULT:      -4.6      6.571      9.360
  Name = 
  0 active torsions:
  status: ('A' for Active; 'I' for Inactive)
                            x       y       z     vdW  Elec       q    Type
                         _______ _______ _______ _____ _____    ______ ____

>  <TORSDO>
F 0

$$$$
=
 OpenBabel11122411593D

 28 32  0  0  1  0  0  0  0  0999 V2000
  185.5350  176.6540  135.7830 C   0  0  0  0  0  0  0  0  0  0  0  0
  183.9370  180.4700  138.7850 O   0  0  0  0  0  0  0  0  0  0  0  0
  189.3610  176.3820  139.2930 C   0  0  0  0  0  1  0  0  0  0  0  0
  184.8110  174.2740  137.0740 C   0  0  0  0  0  3  0  0  0  0  0  0
  187.8540  178.0210  140.2760 N   0  0  0  0  0  0  0  0  0  0  0  0
  186.0080  177.8950  135.0850 C   0  0  0  0  0  2  0  0  0  0  0  0
  182.1810  178.8530  138.2060 O   0  0  0  0  0  0  0  0  0  0  0  0
  183.2870  179.1700  139.1720 S   0  0  0  0  0  0  0  0  0  0  0  0
  183.4050  178.4270  141.7660 C   0  0  2  0  0  3  0  0  0  0  0  0
  184.4550  177.8770  139.1770 N   0  0  2  0  0  0  0  0  0  0  0  0
  189.8060  177.1530  135.0790 C   0  0  0  0  0  1  0  0  0  0  0  0
  186.6140  178.5620  138.2750 C   0  0  1  0  0  3  0  0  0  0  0  0
  184.8980  178.6560  141.5730 C   0  0  0  0  0  2  0  0  0  0  0  0
  182.6180  179.3160  140.8150 C   0  0  0  0  0  2  0  0  0  0  0  0
  188.4270  177.3200  135.6810 C   0  0  1  0  0  3  0  0  0  0  0  0
  185.2180  176.6730  137.1580 C   0  0  0  0  0  0  0  0  0  0  0  0
  188.6900  177.7290  139.1180 C   0  0  2  0  0  3  0  0  0  0  0  0
  183.0210  178.7570  143.1920 C   0  0  0  0  0  1  0  0  0  0  0  0
  188.4870  178.2910  136.7630 N   0  0  0  0  0  2  0  0  0  0  0  0
  184.8700  175.4700  137.7940 C   0  0  0  0  0  3  0  0  0  0  0  0
  185.4650  175.4520  135.0670 C   0  0  0  0  0  3  0  0  0  0  0  0
  185.1010  174.2670  135.7090 C   0  0  0  0  0  3  0  0  0  0  0  0
  187.4530  177.7730  134.5940 C   0  0  0  0  0  2  0  0  0  0  0  0
  186.6620  178.7000  139.7760 C   0  0  1  0  0  3  0  0  0  0  0  0
  187.7980  177.7010  137.9010 C   0  0  2  0  0  3  0  0  0  0  0  0
  185.4210  178.0000  140.2850 C   0  0  2  0  0  3  0  0  0  0  0  0
  188.5290  178.9200  141.0300 O   0  0  0  0  0  1  0  0  0  0  0  0
  185.2340  177.9720  137.9430 C   0  0  1  0  0  3  0  0  0  0  0  0
  1 16  1  0  0  0  0
  2  8  2  0  0  0  0
  4 20  1  0  0  0  0
  5 27  1  0  0  0  0
  6  1  1  0  0  0  0
  7  8  2  0  0  0  0
  8 14  1  0  0  0  0
  9 18  1  1  0  0  0
 10  8  1  6  0  0  0
 10 26  1  0  0  0  0
 11 15  1  0  0  0  0
 12 24  1  0  0  0  0
 13  9  1  0  0  0  0
 14  9  1  0  0  0  0
 15 19  1  0  0  0  0
 16 20  2  0  0  0  0
 16 28  1  0  0  0  0
 17  3  1  0  0  0  0
 17  5  1  0  0  0  0
 19 25  1  0  0  0  0
 21 22  1  0  0  0  0
 21  1  2  0  0  0  0
 22  4  2  0  0  0  0
 23  6  1  0  0  0  0
 23 15  1  0  0  0  0
 24  5  1  0  0  0  0
 24 26  1  0  0  0  0
 25 12  1  0  0  0  0
 25 17  1  0  0  0  0
 26 13  1  0  0  0  0
 28 12  1  0  0  0  0
 28 10  1  0  0  0  0
M  END
>  <MODEL>
7

>  <REMARK>
 VINA RESULT:      -4.5      4.756      7.884
  Name = 
  0 active torsions:
  status: ('A' for Active; 'I' for Inactive)
                            x       y       z     vdW  Elec       q    Type
                         _______ _______ _______ _____ _____    ______ ____

>  <TORSDO>
F 0

$$$$
=
 OpenBabel11122411593D

 28 32  0  0  1  0  0  0  0  0999 V2000
  188.7530  173.9490  135.5750 C   0  0  0  0  0  0  0  0  0  0  0  0
  185.9360  178.1540  134.8610 O   0  0  0  0  0  0  0  0  0  0  0  0
  190.2390  176.4780  139.8670 C   0  0  0  0  0  1  0  0  0  0  0  0
  187.4140  172.4170  137.5020 C   0  0  0  0  0  3  0  0  0  0  0  0
  188.4810  177.9140  138.9870 N   0  0  0  0  0  0  0  0  0  0  0  0
  189.5450  174.7620  134.5940 C   0  0  0  0  0  2  0  0  0  0  0  0
  184.6840  176.0580  134.5940 O   0  0  0  0  0  0  0  0  0  0  0  0
  185.1490  177.0930  135.5780 S   0  0  0  0  0  0  0  0  0  0  0  0
  183.9070  177.7840  137.8750 C   0  0  2  0  0  3  0  0  0  0  0  0
  186.1190  176.3390  136.8140 N   0  0  2  0  0  0  0  0  0  0  0  0
  192.7940  175.1660  136.6570 C   0  0  0  0  0  1  0  0  0  0  0  0
  188.4510  177.0440  136.7340 C   0  0  1  0  0  3  0  0  0  0  0  0
  185.2940  178.2810  138.2610 C   0  0  0  0  0  2  0  0  0  0  0  0
  183.7380  177.8410  136.3650 C   0  0  0  0  0  2  0  0  0  0  0  0
  191.3050  175.2300  136.3880 C   0  0  1  0  0  3  0  0  0  0  0  0
  187.7770  174.5550  136.3960 C   0  0  0  0  0  0  0  0  0  0  0  0
  189.7840  177.3270  138.6970 C   0  0  2  0  0  3  0  0  0  0  0  0
  182.8560  178.6550  138.5290 C   0  0  0  0  0  1  0  0  0  0  0  0
  190.8270  176.5810  136.6340 N   0  0  0  0  0  2  0  0  0  0  0  0
  187.1250  173.7770  137.3660 C   0  0  0  0  0  3  0  0  0  0  0  0
  189.0290  172.5830  135.7130 C   0  0  0  0  0  3  0  0  0  0  0  0
  188.3600  171.8190  136.6710 C   0  0  0  0  0  3  0  0  0  0  0  0
  191.0350  174.8080  134.9440 C   0  0  0  0  0  2  0  0  0  0  0  0
  187.7290  177.9090  137.7360 C   0  0  1  0  0  3  0  0  0  0  0  0
  189.6390  176.4670  137.4670 C   0  0  2  0  0  3  0  0  0  0  0  0
  186.3860  177.2450  137.9470 C   0  0  2  0  0  3  0  0  0  0  0  0
  188.6970  179.2110  139.3090 O   0  0  0  0  0  1  0  0  0  0  0  0
  187.4220  176.0210  136.2290 C   0  0  1  0  0  3  0  0  0  0  0  0
  1 21  2  0  0  0  0
  1 16  1  0  0  0  0
  2  8  2  0  0  0  0
  5 27  1  0  0  0  0
  6 23  1  0  0  0  0
  6  1  1  0  0  0  0
  7  8  2  0  0  0  0
  8 14  1  0  0  0  0
  9 13  1  0  0  0  0
  9 18  1  1  0  0  0
 10  8  1  6  0  0  0
 10 26  1  0  0  0  0
 12 25  1  0  0  0  0
 12 24  1  0  0  0  0
 14  9  1  0  0  0  0
 15 19  1  0  0  0  0
 15 11  1  0  0  0  0
 16 20  2  0  0  0  0
 17  5  1  0  0  0  0
 17  3  1  0  0  0  0
 19 25  1  0  0  0  0
 20  4  1  0  0  0  0
 21 22  1  0  0  0  0
 22  4  2  0  0  0  0
 23 15  1  0  0  0  0
 24 26  1  0  0  0  0
 24  5  1  0  0  0  0
 25 17  1  0  0  0  0
 26 13  1  0  0  0  0
 28 16  1  0  0  0  0
 28 12  1  0  0  0  0
 28 10  1  0  0  0  0
M  END
>  <MODEL>
8

>  <REMARK>
 VINA RESULT:      -4.5      3.071      6.920
  Name = 
  0 active torsions:
  status: ('A' for Active; 'I' for Inactive)
                            x       y       z     vdW  Elec       q    Type
                         _______ _______ _______ _____ _____    ______ ____

>  <TORSDO>
F 0

$$$$
=
 OpenBabel11122411593D

 28 32  0  0  1  0  0  0  0  0999 V2000
  185.4590  174.7200  136.6950 C   0  0  0  0  0  0  0  0  0  0  0  0
  183.0540  177.2630  140.4200 O   0  0  0  0  0  0  0  0  0  0  0  0
  180.6930  174.5770  134.6240 C   0  0  0  0  0  1  0  0  0  0  0  0
  185.8130  176.5400  134.5940 C   0  0  0  0  0  3  0  0  0  0  0  0
  180.3880  176.0230  136.5580 N   0  0  0  0  0  0  0  0  0  0  0  0
  185.2320  173.6870  137.7610 C   0  0  0  0  0  2  0  0  0  0  0  0
  185.1080  178.3550  139.6310 O   0  0  0  0  0  0  0  0  0  0  0  0
  183.6300  178.2110  139.4050 S   0  0  0  0  0  0  0  0  0  0  0  0
  181.9860  180.0750  138.3480 C   0  0  2  0  0  3  0  0  0  0  0  0
  183.3350  177.6310  137.7880 N   0  0  2  0  0  0  0  0  0  0  0  0
  183.1130  171.1840  135.7070 C   0  0  0  0  0  1  0  0  0  0  0  0
  182.3860  175.3860  137.7560 C   0  0  1  0  0  3  0  0  0  0  0  0
  181.1090  178.8670  138.0460 C   0  0  0  0  0  2  0  0  0  0  0  0
  182.8440  179.7990  139.5730 C   0  0  0  0  0  2  0  0  0  0  0  0
  183.4960  172.5310  136.2830 C   0  0  1  0  0  3  0  0  0  0  0  0
  184.6850  175.8990  136.6540 C   0  0  0  0  0  0  0  0  0  0  0  0
  180.7780  174.6840  136.1330 C   0  0  2  0  0  3  0  0  0  0  0  0
  181.1120  181.2820  138.6120 C   0  0  0  0  0  1  0  0  0  0  0  0
  182.3690  173.0780  137.0220 N   0  0  0  0  0  2  0  0  0  0  0  0
  184.8640  176.7950  135.5880 C   0  0  0  0  0  3  0  0  0  0  0  0
  186.4140  174.4770  135.7000 C   0  0  0  0  0  3  0  0  0  0  0  0
  186.5920  175.3850  134.6540 C   0  0  0  0  0  3  0  0  0  0  0  0
  184.7150  172.3640  137.1890 C   0  0  0  0  0  2  0  0  0  0  0  0
  181.2540  176.3790  137.6780 C   0  0  1  0  0  3  0  0  0  0  0  0
  182.2000  174.4540  136.5810 C   0  0  2  0  0  3  0  0  0  0  0  0
  181.9100  177.7170  137.4140 C   0  0  2  0  0  3  0  0  0  0  0  0
  179.1310  175.9270  137.0510 O   0  0  0  0  0  1  0  0  0  0  0  0
  183.6820  176.2110  137.7510 C   0  0  1  0  0  3  0  0  0  0  0  0
  1  6  1  0  0  0  0
  3 17  1  0  0  0  0
  4 22  2  0  0  0  0
  4 20  1  0  0  0  0
  5 27  1  0  0  0  0
  5 24  1  0  0  0  0
  8 14  1  0  0  0  0
  8  7  2  0  0  0  0
  8  2  2  0  0  0  0
  9 18  1  1  0  0  0
  9 14  1  0  0  0  0
 10  8  1  1  0  0  0
 11 15  1  0  0  0  0
 13  9  1  0  0  0  0
 15 19  1  0  0  0  0
 15 23  1  0  0  0  0
 16  1  1  0  0  0  0
 16 28  1  0  0  0  0
 17  5  1  0  0  0  0
 17 25  1  0  0  0  0
 20 16  2  0  0  0  0
 21  1  2  0  0  0  0
 22 21  1  0  0  0  0
 23  6  1  0  0  0  0
 24 12  1  0  0  0  0
 25 19  1  0  0  0  0
 25 12  1  0  0  0  0
 26 24  1  0  0  0  0
 26 10  1  0  0  0  0
 26 13  1  0  0  0  0
 28 12  1  0  0  0  0
 28 10  1  0  0  0  0
M  END
>  <MODEL>
9

>  <REMARK>
 VINA RESULT:      -4.5      6.250      9.134
  Name = 
  0 active torsions:
  status: ('A' for Active; 'I' for Inactive)
                            x       y       z     vdW  Elec       q    Type
                         _______ _______ _______ _____ _____    ______ ____

>  <TORSDO>
F 0

$$$$
