=
 OpenBabel11122410483D

 32 38  0  0  1  0  0  0  0  0999 V2000
  188.4580  178.7420  136.8810 C   0  0  0  0  0  2  0  0  0  0  0  0
  187.4910  178.0030  142.3180 C   0  0  0  0  0  0  0  0  0  0  0  0
  182.8770  179.0700  143.5190 C   0  0  0  0  0  3  0  0  0  0  0  0
  183.1960  178.9420  144.8690 C   0  0  0  0  0  3  0  0  0  0  0  0
  189.1450  177.5350  144.1360 C   0  0  0  0  0  0  0  0  0  0  0  0
  189.3570  177.4320  145.5050 C   0  0  0  0  0  0  0  0  0  0  0  0
  188.1620  177.9380  140.0200 C   0  0  0  0  0  0  0  0  0  0  0  0
  185.8730  178.4540  140.5740 C   0  0  0  0  0  3  0  0  0  0  0  0
  188.8200  177.4800  147.6300 N   0  0  0  0  0  0  0  0  0  0  0  0
  186.4720  178.3800  138.2560 O   0  0  0  0  0  0  0  0  0  0  0  0
  183.8600  178.8690  142.5470 C   0  0  0  0  0  3  0  0  0  0  0  0
  186.1700  178.3350  141.9390 C   0  0  0  0  0  0  0  0  0  0  0  0
  185.1770  178.5380  142.9140 C   0  0  0  0  0  0  0  0  0  0  0  0
  186.8060  178.0780  144.6800 C   0  0  0  0  0  0  0  0  0  0  0  0
  190.1300  177.1700  147.4720 C   0  0  0  0  0  3  0  0  0  0  0  0
  189.3620  178.9360  138.0980 C   0  0  0  0  0  2  0  0  0  0  0  0
  186.8490  178.2490  139.6010 C   0  0  0  0  0  0  0  0  0  0  0  0
  190.4970  177.1320  146.1610 N   0  0  0  0  0  0  0  0  0  0  0  0
  189.2950  177.7570  139.0600 C   0  0  0  0  0  2  0  0  0  0  0  0
  187.2250  177.8780  137.1570 C   0  0  1  0  0  3  0  0  0  0  0  0
  184.4970  178.6140  145.2510 C   0  0  0  0  0  3  0  0  0  0  0  0
  185.4980  178.4090  144.2860 C   0  0  0  0  0  0  0  0  0  0  0  0
  187.0990  177.9570  146.0130 N   0  0  0  0  0  0  0  0  0  0  0  0
  188.4300  177.8230  141.3480 N   0  0  0  0  0  0  0  0  0  0  0  0
  190.2330  177.3050  143.2420 N   0  0  0  0  0  1  0  0  0  0  0  0
  188.0940  177.6080  148.8800 C   0  0  0  0  0  1  0  0  0  0  0  0
  187.8290  177.8690  143.6890 C   0  0  0  0  0  0  0  0  0  0  0  0
  188.3580  177.6390  146.3880 C   0  0  0  0  0  0  0  0  0  0  0  0
  186.3410  177.8310  135.9240 C   0  0  0  0  0  2  0  0  0  0  0  0
  185.1240  177.0920  136.2100 N   0  0  0  0  0  0  0  0  0  0  0  0
  184.4260  176.9250  134.9260 C   0  0  0  0  0  2  0  0  0  0  0  0
  185.2180  175.8280  135.4640 C   0  0  0  0  0  2  0  0  0  0  0  0
  1 20  1  0  0  0  0
  1 16  1  0  0  0  0
  2 27  1  0  0  0  0
  3  4  1  0  0  0  0
  4 21  2  0  0  0  0
  5  6  1  0  0  0  0
  6 18  1  0  0  0  0
  6 28  2  0  0  0  0
  7 24  1  0  0  0  0
  8 12  2  0  0  0  0
  9 26  1  0  0  0  0
 10 17  1  0  0  0  0
 11 13  1  0  0  0  0
 11  3  2  0  0  0  0
 12  2  1  0  0  0  0
 12 13  1  0  0  0  0
 13 22  2  0  0  0  0
 14 23  2  0  0  0  0
 15  9  1  0  0  0  0
 16 19  1  0  0  0  0
 17  7  2  0  0  0  0
 17  8  1  0  0  0  0
 18 15  2  0  0  0  0
 19  7  1  0  0  0  0
 20 29  1  6  0  0  0
 20 10  1  0  0  0  0
 22 14  1  0  0  0  0
 22 21  1  0  0  0  0
 23 28  1  0  0  0  0
 24  2  2  0  0  0  0
 25  5  1  0  0  0  0
 27  5  2  0  0  0  0
 27 14  1  0  0  0  0
 28  9  1  0  0  0  0
 29 30  1  0  0  0  0
 31 32  1  0  0  0  0
 31 30  1  0  0  0  0
 32 30  1  0  0  0  0
M  END
>  <MODEL>
1

>  <REMARK>
 VINA RESULT:     -10.7      0.000      0.000
  Name = 
  2 active torsions:
  status: ('A' for Active; 'I' for Inactive)
    1  A    between atoms: C_20  and  C_29
    2  A    between atoms: C_29  and  N_30
                            x       y       z     vdW  Elec       q    Type
                         _______ _______ _______ _____ _____    ______ ____

>  <TORSDO>
F 2

$$$$
=
 OpenBabel11122410483D

 32 38  0  0  1  0  0  0  0  0999 V2000
  179.7660  178.7460  142.3350 C   0  0  0  0  0  2  0  0  0  0  0  0
  185.1120  178.4070  143.8700 C   0  0  0  0  0  0  0  0  0  0  0  0
  188.1010  178.0370  140.0230 C   0  0  0  0  0  3  0  0  0  0  0  0
  189.1740  177.7890  140.8770 C   0  0  0  0  0  3  0  0  0  0  0  0
  186.0460  178.1090  146.1710 C   0  0  0  0  0  0  0  0  0  0  0  0
  187.1810  177.8540  146.9320 C   0  0  0  0  0  0  0  0  0  0  0  0
  182.7810  178.8570  143.5550 C   0  0  0  0  0  0  0  0  0  0  0  0
  184.2280  178.6960  141.6340 C   0  0  0  0  0  3  0  0  0  0  0  0
  189.3000  177.4320  147.3000 N   0  0  0  0  0  0  0  0  0  0  0  0
  181.9130  179.1740  141.2510 O   0  0  0  0  0  0  0  0  0  0  0  0
  186.8260  178.2530  140.5490 C   0  0  0  0  0  3  0  0  0  0  0  0
  185.3230  178.4400  142.4720 C   0  0  0  0  0  0  0  0  0  0  0  0
  186.6060  178.2230  141.9380 C   0  0  0  0  0  0  0  0  0  0  0  0
  187.5040  177.9350  144.1950 C   0  0  0  0  0  0  0  0  0  0  0  0
  188.6150  177.5020  148.4670 C   0  0  0  0  0  3  0  0  0  0  0  0
  180.4220  178.1040  143.5570 C   0  0  0  0  0  2  0  0  0  0  0  0
  182.9550  178.9180  142.1540 C   0  0  0  0  0  0  0  0  0  0  0  0
  187.2920  177.7630  148.2730 N   0  0  0  0  0  0  0  0  0  0  0  0
  181.4460  179.0220  144.2110 C   0  0  0  0  0  2  0  0  0  0  0  0
  180.6620  179.7530  141.6090 C   0  0  1  0  0  3  0  0  0  0  0  0
  188.9740  177.7550  142.2580 C   0  0  0  0  0  3  0  0  0  0  0  0
  187.6960  177.9700  142.8030 C   0  0  0  0  0  0  0  0  0  0  0  0
  188.5720  177.6890  145.0170 N   0  0  0  0  0  0  0  0  0  0  0  0
  183.8540  178.6120  144.3520 N   0  0  0  0  0  0  0  0  0  0  0  0
  184.7970  178.3150  146.8280 N   0  0  0  0  0  1  0  0  0  0  0  0
  190.7170  177.1710  147.1300 C   0  0  0  0  0  1  0  0  0  0  0  0
  186.1950  178.1550  144.7500 C   0  0  0  0  0  0  0  0  0  0  0  0
  188.3830  177.6550  146.3550 C   0  0  0  0  0  0  0  0  0  0  0  0
  179.9650  180.2540  140.3570 C   0  0  0  0  0  2  0  0  0  0  0  0
  180.8900  180.2520  139.2370 N   0  0  0  0  0  0  0  0  0  0  0  0
  180.1070  180.6230  138.0490 C   0  0  0  0  0  2  0  0  0  0  0  0
  180.9210  181.6270  138.7180 C   0  0  0  0  0  2  0  0  0  0  0  0
  1 16  1  0  0  0  0
  2 24  1  0  0  0  0
  2 27  1  0  0  0  0
  3 11  2  0  0  0  0
  3  4  1  0  0  0  0
  4 21  2  0  0  0  0
  5 25  1  0  0  0  0
  5  6  1  0  0  0  0
  6 18  1  0  0  0  0
  7 19  1  0  0  0  0
  7 24  2  0  0  0  0
  8 17  2  0  0  0  0
  8 12  1  0  0  0  0
  9 15  1  0  0  0  0
 10 20  1  0  0  0  0
 10 17  1  0  0  0  0
 11 13  1  0  0  0  0
 12  2  2  0  0  0  0
 13 12  1  0  0  0  0
 13 22  2  0  0  0  0
 14 27  1  0  0  0  0
 14 23  2  0  0  0  0
 16 19  1  0  0  0  0
 17  7  1  0  0  0  0
 18 15  2  0  0  0  0
 20 29  1  6  0  0  0
 20  1  1  0  0  0  0
 21 22  1  0  0  0  0
 22 14  1  0  0  0  0
 23 28  1  0  0  0  0
 26  9  1  0  0  0  0
 27  5  2  0  0  0  0
 28  6  2  0  0  0  0
 28  9  1  0  0  0  0
 30 29  1  0  0  0  0
 31 32  1  0  0  0  0
 31 30  1  0  0  0  0
 32 30  1  0  0  0  0
M  END
>  <MODEL>
2

>  <REMARK>
 VINA RESULT:     -10.0      2.674      5.496
  Name = 
  2 active torsions:
  status: ('A' for Active; 'I' for Inactive)
    1  A    between atoms: C_20  and  C_29
    2  A    between atoms: C_29  and  N_30
                            x       y       z     vdW  Elec       q    Type
                         _______ _______ _______ _____ _____    ______ ____

>  <TORSDO>
F 2

$$$$
=
 OpenBabel11122410483D

 32 38  0  0  1  0  0  0  0  0999 V2000
  190.8100  175.9310  137.0410 C   0  0  0  0  0  2  0  0  0  0  0  0
  188.6600  177.3920  141.9700 C   0  0  0  0  0  0  0  0  0  0  0  0
  191.6940  176.3780  145.6630 C   0  0  0  0  0  3  0  0  0  0  0  0
  190.6930  176.7010  146.5770 C   0  0  0  0  0  3  0  0  0  0  0  0
  186.3320  178.1520  142.4800 C   0  0  0  0  0  0  0  0  0  0  0  0
  185.4060  178.4490  143.4730 C   0  0  0  0  0  0  0  0  0  0  0  0
  189.3900  177.1550  139.7010 C   0  0  0  0  0  0  0  0  0  0  0  0
  190.9190  176.6590  141.4980 C   0  0  0  0  0  3  0  0  0  0  0  0
  184.6630  178.6830  145.5210 N   0  0  0  0  0  0  0  0  0  0  0  0
  191.7210  176.4270  139.2530 O   0  0  0  0  0  0  0  0  0  0  0  0
  191.4430  176.4680  144.2920 C   0  0  0  0  0  3  0  0  0  0  0  0
  189.9280  176.9750  142.4370 C   0  0  0  0  0  0  0  0  0  0  0  0
  190.1850  176.8820  143.8170 C   0  0  0  0  0  0  0  0  0  0  0  0
  187.9060  177.6270  144.2990 C   0  0  0  0  0  0  0  0  0  0  0  0
  183.7020  179.0030  144.6230 C   0  0  0  0  0  3  0  0  0  0  0  0
  189.3680  175.9330  137.5480 C   0  0  0  0  0  2  0  0  0  0  0  0
  190.6750  176.7530  140.1290 C   0  0  0  0  0  0  0  0  0  0  0  0
  184.1320  178.8680  143.3370 N   0  0  0  0  0  0  0  0  0  0  0  0
  189.0070  177.2310  138.2570 C   0  0  0  0  0  2  0  0  0  0  0  0
  191.7600  176.7920  137.8770 C   0  0  1  0  0  3  0  0  0  0  0  0
  189.4390  177.1140  146.1240 C   0  0  0  0  0  3  0  0  0  0  0  0
  189.1700  177.2090  144.7480 C   0  0  0  0  0  0  0  0  0  0  0  0
  186.9350  177.9400  145.2150 N   0  0  0  0  0  0  0  0  0  0  0  0
  188.4430  177.4610  140.6270 N   0  0  0  0  0  0  0  0  0  0  0  0
  185.9540  178.2850  141.1110 N   0  0  0  0  0  1  0  0  0  0  0  0
  184.5550  178.7100  146.9680 C   0  0  0  0  0  1  0  0  0  0  0  0
  187.6330  177.7240  142.8900 C   0  0  0  0  0  0  0  0  0  0  0  0
  185.7200  178.3400  144.7800 C   0  0  0  0  0  0  0  0  0  0  0  0
  193.1800  176.6430  137.3600 C   0  0  0  0  0  2  0  0  0  0  0  0
  193.4250  175.2670  136.9630 N   0  0  0  0  0  0  0  0  0  0  0  0
  194.8050  175.2170  136.4590 C   0  0  0  0  0  2  0  0  0  0  0  0
  194.5160  174.7740  137.8150 C   0  0  0  0  0  2  0  0  0  0  0  0
  1 16  1  0  0  0  0
  1 20  1  0  0  0  0
  2 12  1  0  0  0  0
  2 27  1  0  0  0  0
  3  4  1  0  0  0  0
  5 27  2  0  0  0  0
  5  6  1  0  0  0  0
  6 28  2  0  0  0  0
  7 17  2  0  0  0  0
  7 24  1  0  0  0  0
  8 12  2  0  0  0  0
  9 26  1  0  0  0  0
 10 17  1  0  0  0  0
 11  3  2  0  0  0  0
 12 13  1  0  0  0  0
 13 11  1  0  0  0  0
 13 22  2  0  0  0  0
 14 22  1  0  0  0  0
 14 23  2  0  0  0  0
 15  9  1  0  0  0  0
 16 19  1  0  0  0  0
 17  8  1  0  0  0  0
 18  6  1  0  0  0  0
 18 15  2  0  0  0  0
 19  7  1  0  0  0  0
 20 29  1  6  0  0  0
 20 10  1  0  0  0  0
 21  4  2  0  0  0  0
 22 21  1  0  0  0  0
 24  2  2  0  0  0  0
 25  5  1  0  0  0  0
 27 14  1  0  0  0  0
 28 23  1  0  0  0  0
 28  9  1  0  0  0  0
 30 29  1  0  0  0  0
 30 32  1  0  0  0  0
 31 30  1  0  0  0  0
 31 32  1  0  0  0  0
M  END
>  <MODEL>
3

>  <REMARK>
 VINA RESULT:      -9.8      2.967      5.534
  Name = 
  2 active torsions:
  status: ('A' for Active; 'I' for Inactive)
    1  A    between atoms: C_20  and  C_29
    2  A    between atoms: C_29  and  N_30
                            x       y       z     vdW  Elec       q    Type
                         _______ _______ _______ _____ _____    ______ ____

>  <TORSDO>
F 2

$$$$
=
 OpenBabel11122410483D

 32 38  0  0  1  0  0  0  0  0999 V2000
  192.2380  175.5210  146.4880 C   0  0  0  0  0  2  0  0  0  0  0  0
  188.0860  177.7090  143.4860 C   0  0  0  0  0  0  0  0  0  0  0  0
  184.1440  178.6400  146.2190 C   0  0  0  0  0  3  0  0  0  0  0  0
  183.4130  178.9340  145.0690 C   0  0  0  0  0  3  0  0  0  0  0  0
  187.9260  177.9370  141.0000 C   0  0  0  0  0  0  0  0  0  0  0  0
  187.1090  178.2510  139.9200 C   0  0  0  0  0  0  0  0  0  0  0  0
  190.1410  177.0340  144.5130 C   0  0  0  0  0  0  0  0  0  0  0  0
  188.2210  177.4990  145.8940 C   0  0  0  0  0  3  0  0  0  0  0  0
  185.2630  178.8560  138.9070 N   0  0  0  0  0  0  0  0  0  0  0  0
  190.2520  176.8540  146.9870 O   0  0  0  0  0  0  0  0  0  0  0  0
  185.4850  178.2630  146.1160 C   0  0  0  0  0  3  0  0  0  0  0  0
  187.4640  177.7960  144.7520 C   0  0  0  0  0  0  0  0  0  0  0  0
  186.1130  178.1750  144.8600 C   0  0  0  0  0  0  0  0  0  0  0  0
  185.9730  178.3940  142.4280 C   0  0  0  0  0  0  0  0  0  0  0  0
  186.2530  178.6380  138.0090 C   0  0  0  0  0  3  0  0  0  0  0  0
  191.8130  175.2860  145.0390 C   0  0  0  0  0  2  0  0  0  0  0  0
  189.5600  177.1280  145.7980 C   0  0  0  0  0  0  0  0  0  0  0  0
  187.4170  178.2590  138.6070 N   0  0  0  0  0  0  0  0  0  0  0  0
  191.5530  176.5880  144.2950 C   0  0  0  0  0  2  0  0  0  0  0  0
  191.6710  176.8050  147.0980 C   0  0  1  0  0  3  0  0  0  0  0  0
  184.0210  178.8510  143.8150 C   0  0  0  0  0  3  0  0  0  0  0  0
  185.3690  178.4730  143.6950 C   0  0  0  0  0  0  0  0  0  0  0  0
  185.2370  178.6870  141.3100 N   0  0  0  0  0  0  0  0  0  0  0  0
  189.3930  177.3300  143.4180 N   0  0  0  0  0  0  0  0  0  0  0  0
  189.2830  177.5670  140.7650 N   0  0  0  0  0  1  0  0  0  0  0  0
  183.9000  179.2680  138.6260 C   0  0  0  0  0  1  0  0  0  0  0  0
  187.3530  178.0060  142.3080 C   0  0  0  0  0  0  0  0  0  0  0  0
  185.8210  178.6080  140.0940 C   0  0  0  0  0  0  0  0  0  0  0  0
  192.0610  176.8960  148.5630 C   0  0  0  0  0  2  0  0  0  0  0  0
  193.4050  176.3780  148.7540 N   0  0  0  0  0  0  0  0  0  0  0  0
  193.9310  177.0190  149.9690 C   0  0  0  0  0  2  0  0  0  0  0  0
  193.3990  175.6660  150.0400 C   0  0  0  0  0  2  0  0  0  0  0  0
  1 20  1  0  0  0  0
  2 12  1  0  0  0  0
  4  3  2  0  0  0  0
  5 27  1  0  0  0  0
  6 28  1  0  0  0  0
  6  5  2  0  0  0  0
  7 17  2  0  0  0  0
  9 28  1  0  0  0  0
 10 20  1  0  0  0  0
 11  3  1  0  0  0  0
 12 13  1  0  0  0  0
 12  8  2  0  0  0  0
 13 11  2  0  0  0  0
 14 22  1  0  0  0  0
 15 18  2  0  0  0  0
 15  9  1  0  0  0  0
 16  1  1  0  0  0  0
 17  8  1  0  0  0  0
 17 10  1  0  0  0  0
 18  6  1  0  0  0  0
 19  7  1  0  0  0  0
 19 16  1  0  0  0  0
 20 29  1  1  0  0  0
 21  4  1  0  0  0  0
 22 21  2  0  0  0  0
 22 13  1  0  0  0  0
 23 14  1  0  0  0  0
 24  2  2  0  0  0  0
 24  7  1  0  0  0  0
 25  5  1  0  0  0  0
 26  9  1  0  0  0  0
 27 14  2  0  0  0  0
 27  2  1  0  0  0  0
 28 23  2  0  0  0  0
 29 30  1  0  0  0  0
 30 31  1  0  0  0  0
 30 32  1  0  0  0  0
 31 32  1  0  0  0  0
M  END
>  <MODEL>
4

>  <REMARK>
 VINA RESULT:      -9.7      2.706      8.159
  Name = 
  2 active torsions:
  status: ('A' for Active; 'I' for Inactive)
    1  A    between atoms: C_20  and  C_29
    2  A    between atoms: C_29  and  N_30
                            x       y       z     vdW  Elec       q    Type
                         _______ _______ _______ _____ _____    ______ ____

>  <TORSDO>
F 2

$$$$
=
 OpenBabel11122410483D

 32 38  0  0  1  0  0  0  0  0999 V2000
  188.5560  177.8950  148.1700 C   0  0  0  0  0  2  0  0  0  0  0  0
  186.2450  178.1080  143.1040 C   0  0  0  0  0  0  0  0  0  0  0  0
  189.5880  177.8100  139.5530 C   0  0  0  0  0  3  0  0  0  0  0  0
  188.6090  178.1010  138.6040 C   0  0  0  0  0  3  0  0  0  0  0  0
  183.8750  178.6380  142.5040 C   0  0  0  0  0  0  0  0  0  0  0  0
  182.9790  178.9200  141.4800 C   0  0  0  0  0  0  0  0  0  0  0  0
  186.8700  177.7600  145.3890 C   0  0  0  0  0  0  0  0  0  0  0  0
  188.5430  177.5910  143.6630 C   0  0  0  0  0  3  0  0  0  0  0  0
  182.3320  179.2590  139.4130 N   0  0  0  0  0  0  0  0  0  0  0  0
  189.2300  177.2060  145.9240 O   0  0  0  0  0  0  0  0  0  0  0  0
  189.2490  177.7380  140.9060 C   0  0  0  0  0  3  0  0  0  0  0  0
  187.5780  177.8860  142.6890 C   0  0  0  0  0  0  0  0  0  0  0  0
  187.9250  177.9570  141.3280 C   0  0  0  0  0  0  0  0  0  0  0  0
  185.6030  178.4750  140.7580 C   0  0  0  0  0  0  0  0  0  0  0  0
  181.2880  179.3780  140.2690 C   0  0  0  0  0  3  0  0  0  0  0  0
  187.3280  178.6460  147.6560 C   0  0  0  0  0  2  0  0  0  0  0  0
  188.2090  177.5130  145.0130 C   0  0  0  0  0  0  0  0  0  0  0  0
  181.6570  179.1730  141.5640 N   0  0  0  0  0  0  0  0  0  0  0  0
  186.4180  177.7590  146.8160 C   0  0  0  0  0  2  0  0  0  0  0  0
  189.0090  176.7530  147.2560 C   0  0  1  0  0  3  0  0  0  0  0  0
  187.2910  178.3210  139.0050 C   0  0  0  0  0  3  0  0  0  0  0  0
  186.9340  178.2530  140.3630 C   0  0  0  0  0  0  0  0  0  0  0  0
  184.6560  178.7590  139.8090 N   0  0  0  0  0  0  0  0  0  0  0  0
  185.9470  178.0400  144.4320 N   0  0  0  0  0  0  0  0  0  0  0  0
  183.4050  178.5920  143.8500 N   0  0  0  0  0  1  0  0  0  0  0  0
  182.3060  179.4120  137.9700 C   0  0  0  0  0  1  0  0  0  0  0  0
  185.2400  178.4040  142.1480 C   0  0  0  0  0  0  0  0  0  0  0  0
  183.3780  178.9730  140.1930 C   0  0  0  0  0  0  0  0  0  0  0  0
  190.2900  176.1390  147.7950 C   0  0  0  0  0  2  0  0  0  0  0  0
  191.4400  176.7130  147.1200 N   0  0  0  0  0  0  0  0  0  0  0  0
  192.6220  176.0030  147.6320 C   0  0  0  0  0  2  0  0  0  0  0  0
  192.0550  175.6270  146.3450 C   0  0  0  0  0  2  0  0  0  0  0  0
  2 24  1  0  0  0  0
  3 11  1  0  0  0  0
  4 21  1  0  0  0  0
  4  3  2  0  0  0  0
  5 25  1  0  0  0  0
  6 18  1  0  0  0  0
  6  5  2  0  0  0  0
  7 19  1  0  0  0  0
  8 17  2  0  0  0  0
  9 28  1  0  0  0  0
  9 15  1  0  0  0  0
 10 20  1  0  0  0  0
 11 13  2  0  0  0  0
 12  2  2  0  0  0  0
 12  8  1  0  0  0  0
 13 12  1  0  0  0  0
 14 27  2  0  0  0  0
 15 18  2  0  0  0  0
 16  1  1  0  0  0  0
 17  7  1  0  0  0  0
 17 10  1  0  0  0  0
 19 16  1  0  0  0  0
 20 29  1  1  0  0  0
 20  1  1  0  0  0  0
 21 22  2  0  0  0  0
 22 14  1  0  0  0  0
 22 13  1  0  0  0  0
 23 28  2  0  0  0  0
 23 14  1  0  0  0  0
 24  7  2  0  0  0  0
 26  9  1  0  0  0  0
 27  5  1  0  0  0  0
 27  2  1  0  0  0  0
 28  6  1  0  0  0  0
 30 31  1  0  0  0  0
 30 29  1  0  0  0  0
 32 30  1  0  0  0  0
 32 31  1  0  0  0  0
M  END
>  <MODEL>
5

>  <REMARK>
 VINA RESULT:      -9.5      2.805      8.481
  Name = 
  2 active torsions:
  status: ('A' for Active; 'I' for Inactive)
    1  A    between atoms: C_20  and  C_29
    2  A    between atoms: C_29  and  N_30
                            x       y       z     vdW  Elec       q    Type
                         _______ _______ _______ _____ _____    ______ ____

>  <TORSDO>
F 2

$$$$
=
 OpenBabel11122410483D

 32 38  0  0  1  0  0  0  0  0999 V2000
  182.0380  179.9230  138.9070 C   0  0  0  0  0  2  0  0  0  0  0  0
  186.1530  178.2480  142.2690 C   0  0  0  0  0  0  0  0  0  0  0  0
  184.8290  178.3460  146.9720 C   0  0  0  0  0  3  0  0  0  0  0  0
  186.1430  178.0760  147.3500 C   0  0  0  0  0  3  0  0  0  0  0  0
  188.5440  177.8010  141.6870 C   0  0  0  0  0  0  0  0  0  0  0  0
  189.8200  177.5350  142.1700 C   0  0  0  0  0  0  0  0  0  0  0  0
  184.5350  178.6310  140.5470 C   0  0  0  0  0  0  0  0  0  0  0  0
  183.8430  178.6730  142.8550 C   0  0  0  0  0  3  0  0  0  0  0  0
  191.3590  177.1820  143.6900 N   0  0  0  0  0  0  0  0  0  0  0  0
  182.1700  179.0390  141.1810 O   0  0  0  0  0  0  0  0  0  0  0  0
  184.5010  178.4550  145.6190 C   0  0  0  0  0  3  0  0  0  0  0  0
  185.1580  178.4070  143.2610 C   0  0  0  0  0  0  0  0  0  0  0  0
  185.4840  178.2970  144.6250 C   0  0  0  0  0  0  0  0  0  0  0  0
  187.8180  177.8620  144.0390 C   0  0  0  0  0  0  0  0  0  0  0  0
  191.8900  177.1210  142.4460 C   0  0  0  0  0  3  0  0  0  0  0  0
  183.5540  180.0850  138.7980 C   0  0  0  0  0  2  0  0  0  0  0  0
  183.5090  178.7780  141.5060 C   0  0  0  0  0  0  0  0  0  0  0  0
  190.9590  177.3360  141.4750 N   0  0  0  0  0  0  0  0  0  0  0  0
  184.2950  178.7840  139.0770 C   0  0  0  0  0  2  0  0  0  0  0  0
  181.6010  178.8350  139.8910 C   0  0  1  0  0  3  0  0  0  0  0  0
  187.1310  177.9170  146.3770 C   0  0  0  0  0  3  0  0  0  0  0  0
  186.8170  178.0250  145.0120 C   0  0  0  0  0  0  0  0  0  0  0  0
  189.1040  177.5970  144.4310 N   0  0  0  0  0  0  0  0  0  0  0  0
  185.8030  178.3690  140.9580 N   0  0  0  0  0  0  0  0  0  0  0  0
  188.3350  177.8870  140.2780 N   0  0  0  0  0  1  0  0  0  0  0  0
  192.0550  177.0030  144.9510 C   0  0  0  0  0  1  0  0  0  0  0  0
  187.4940  177.9720  142.6410 C   0  0  0  0  0  0  0  0  0  0  0  0
  190.0640  177.4420  143.4930 C   0  0  0  0  0  0  0  0  0  0  0  0
  180.0870  178.8230  140.0070 C   0  0  0  0  0  2  0  0  0  0  0  0
  179.6390  177.5550  140.5550 N   0  0  0  0  0  0  0  0  0  0  0  0
  178.9390  176.8540  139.4680 C   0  0  0  0  0  2  0  0  0  0  0  0
  180.3160  176.5030  139.7830 C   0  0  0  0  0  2  0  0  0  0  0  0
  1 20  1  0  0  0  0
  2 27  2  0  0  0  0
  2 12  1  0  0  0  0
  3  4  1  0  0  0  0
  5  6  2  0  0  0  0
  5 27  1  0  0  0  0
  6 28  1  0  0  0  0
  7 24  2  0  0  0  0
  7 17  1  0  0  0  0
  8 12  1  0  0  0  0
  9 26  1  0  0  0  0
 10 17  1  0  0  0  0
 11  3  2  0  0  0  0
 12 13  2  0  0  0  0
 13 22  1  0  0  0  0
 13 11  1  0  0  0  0
 14 23  1  0  0  0  0
 14 22  2  0  0  0  0
 15  9  1  0  0  0  0
 16  1  1  0  0  0  0
 16 19  1  0  0  0  0
 17  8  2  0  0  0  0
 18  6  1  0  0  0  0
 18 15  2  0  0  0  0
 19  7  1  0  0  0  0
 20 29  1  1  0  0  0
 20 10  1  0  0  0  0
 21  4  2  0  0  0  0
 22 21  1  0  0  0  0
 24  2  1  0  0  0  0
 25  5  1  0  0  0  0
 27 14  1  0  0  0  0
 28  9  1  0  0  0  0
 28 23  2  0  0  0  0
 29 30  1  0  0  0  0
 31 32  1  0  0  0  0
 31 30  1  0  0  0  0
 32 30  1  0  0  0  0
M  END
>  <MODEL>
6

>  <REMARK>
 VINA RESULT:      -9.5      2.861      4.463
  Name = 
  2 active torsions:
  status: ('A' for Active; 'I' for Inactive)
    1  A    between atoms: C_20  and  C_29
    2  A    between atoms: C_29  and  N_30
                            x       y       z     vdW  Elec       q    Type
                         _______ _______ _______ _____ _____    ______ ____

>  <TORSDO>
F 2

$$$$
=
 OpenBabel11122410483D

 32 38  0  0  1  0  0  0  0  0999 V2000
  187.2390  178.5030  147.6090 C   0  0  0  0  0  2  0  0  0  0  0  0
  184.2760  178.5250  142.8900 C   0  0  0  0  0  0  0  0  0  0  0  0
  187.1330  178.2730  138.9340 C   0  0  0  0  0  3  0  0  0  0  0  0
  186.0280  178.5080  138.1180 C   0  0  0  0  0  3  0  0  0  0  0  0
  181.8300  178.9560  142.5990 C   0  0  0  0  0  0  0  0  0  0  0  0
  180.7970  179.1840  141.6980 C   0  0  0  0  0  0  0  0  0  0  0  0
  185.2090  178.2480  145.0780 C   0  0  0  0  0  0  0  0  0  0  0  0
  186.6470  178.1030  143.1490 C   0  0  0  0  0  3  0  0  0  0  0  0
  179.8720  179.4550  139.7290 N   0  0  0  0  0  0  0  0  0  0  0  0
  187.6390  177.7910  145.3060 O   0  0  0  0  0  0  0  0  0  0  0  0
  186.9780  178.2170  140.3210 C   0  0  0  0  0  3  0  0  0  0  0  0
  185.5520  178.3420  142.3070 C   0  0  0  0  0  0  0  0  0  0  0  0
  185.7130  178.3970  140.9100 C   0  0  0  0  0  0  0  0  0  0  0  0
  183.3190  178.8180  140.6430 C   0  0  0  0  0  0  0  0  0  0  0  0
  178.9450  179.5540  140.7130 C   0  0  0  0  0  3  0  0  0  0  0  0
  185.9260  179.1980  147.2500 C   0  0  0  0  0  2  0  0  0  0  0  0
  186.4960  178.0410  144.5320 C   0  0  0  0  0  0  0  0  0  0  0  0
  179.4880  179.3900  141.9520 N   0  0  0  0  0  0  0  0  0  0  0  0
  184.9490  178.2610  146.5520 C   0  0  0  0  0  2  0  0  0  0  0  0
  187.6120  177.3590  146.6630 C   0  0  1  0  0  3  0  0  0  0  0  0
  184.7660  178.6880  138.6860 C   0  0  0  0  0  3  0  0  0  0  0  0
  184.5930  178.6360  140.0800 C   0  0  0  0  0  0  0  0  0  0  0  0
  182.2450  179.0480  139.8230 N   0  0  0  0  0  0  0  0  0  0  0  0
  184.1580  178.4740  144.2460 N   0  0  0  0  0  0  0  0  0  0  0  0
  181.5420  178.9210  143.9960 N   0  0  0  0  0  1  0  0  0  0  0  0
  179.6500  179.5760  138.3000 C   0  0  0  0  0  1  0  0  0  0  0  0
  183.1440  178.7640  142.0700 C   0  0  0  0  0  0  0  0  0  0  0  0
  181.0210  179.2230  140.3680 C   0  0  0  0  0  0  0  0  0  0  0  0
  188.9750  176.8040  147.0380 C   0  0  0  0  0  2  0  0  0  0  0  0
  190.0210  177.5490  146.3600 N   0  0  0  0  0  0  0  0  0  0  0  0
  191.2830  176.8490  146.6420 C   0  0  0  0  0  2  0  0  0  0  0  0
  190.6100  176.6370  145.3690 C   0  0  0  0  0  2  0  0  0  0  0  0
  2 24  1  0  0  0  0
  3 11  1  0  0  0  0
  4 21  1  0  0  0  0
  4  3  2  0  0  0  0
  5 25  1  0  0  0  0
  6 18  1  0  0  0  0
  6  5  2  0  0  0  0
  7 19  1  0  0  0  0
  8 17  2  0  0  0  0
  9 28  1  0  0  0  0
  9 15  1  0  0  0  0
 10 20  1  0  0  0  0
 11 13  2  0  0  0  0
 12  2  2  0  0  0  0
 12  8  1  0  0  0  0
 13 12  1  0  0  0  0
 14 27  2  0  0  0  0
 15 18  2  0  0  0  0
 16  1  1  0  0  0  0
 17  7  1  0  0  0  0
 17 10  1  0  0  0  0
 19 16  1  0  0  0  0
 20 29  1  1  0  0  0
 20  1  1  0  0  0  0
 21 22  2  0  0  0  0
 22 14  1  0  0  0  0
 22 13  1  0  0  0  0
 23 28  2  0  0  0  0
 23 14  1  0  0  0  0
 24  7  2  0  0  0  0
 26  9  1  0  0  0  0
 27  5  1  0  0  0  0
 27  2  1  0  0  0  0
 28  6  1  0  0  0  0
 30 31  1  0  0  0  0
 30 29  1  0  0  0  0
 32 30  1  0  0  0  0
 32 31  1  0  0  0  0
M  END
>  <MODEL>
7

>  <REMARK>
 VINA RESULT:      -9.1      3.352      8.609
  Name = 
  2 active torsions:
  status: ('A' for Active; 'I' for Inactive)
    1  A    between atoms: C_20  and  C_29
    2  A    between atoms: C_29  and  N_30
                            x       y       z     vdW  Elec       q    Type
                         _______ _______ _______ _____ _____    ______ ____

>  <TORSDO>
F 2

$$$$
=
 OpenBabel11122410483D

 32 38  0  0  1  0  0  0  0  0999 V2000
  190.9370  176.8880  136.9800 C   0  0  0  0  0  2  0  0  0  0  0  0
  189.2100  177.2350  142.2660 C   0  0  0  0  0  0  0  0  0  0  0  0
  184.6690  179.0090  142.5960 C   0  0  0  0  0  3  0  0  0  0  0  0
  184.7970  179.0860  143.9810 C   0  0  0  0  0  3  0  0  0  0  0  0
  190.5460  176.9130  144.3560 C   0  0  0  0  0  0  0  0  0  0  0  0
  190.5690  177.0310  145.7410 C   0  0  0  0  0  0  0  0  0  0  0  0
  190.1460  176.6900  140.1310 C   0  0  0  0  0  0  0  0  0  0  0  0
  187.8970  177.5500  140.2560 C   0  0  0  0  0  3  0  0  0  0  0  0
  189.7840  177.5130  147.7300 N   0  0  0  0  0  0  0  0  0  0  0  0
  188.7640  177.0010  138.0920 O   0  0  0  0  0  0  0  0  0  0  0  0
  185.7290  178.5310  141.8230 C   0  0  0  0  0  3  0  0  0  0  0  0
  188.0030  177.6410  141.6510 C   0  0  0  0  0  0  0  0  0  0  0  0
  186.9330  178.1240  142.4260 C   0  0  0  0  0  0  0  0  0  0  0  0
  188.2520  177.8030  144.4600 C   0  0  0  0  0  0  0  0  0  0  0  0
  191.0490  177.0350  147.8160 C   0  0  0  0  0  3  0  0  0  0  0  0
  191.7000  177.1910  138.2690 C   0  0  0  0  0  2  0  0  0  0  0  0
  188.9500  177.0680  139.4810 C   0  0  0  0  0  0  0  0  0  0  0  0
  191.5670  176.7250  146.5950 N   0  0  0  0  0  0  0  0  0  0  0  0
  191.3550  176.2160  139.3870 C   0  0  0  0  0  2  0  0  0  0  0  0
  189.5730  176.2300  137.2090 C   0  0  1  0  0  3  0  0  0  0  0  0
  185.9840  178.6870  144.5960 C   0  0  0  0  0  3  0  0  0  0  0  0
  187.0600  178.2040  143.8320 C   0  0  0  0  0  0  0  0  0  0  0  0
  188.3580  177.8870  145.8240 N   0  0  0  0  0  0  0  0  0  0  0  0
  190.2290  176.7820  141.4840 N   0  0  0  0  0  0  0  0  0  0  0  0
  191.6950  176.4080  143.6790 N   0  0  0  0  0  1  0  0  0  0  0  0
  188.9320  177.9410  148.8240 C   0  0  0  0  0  1  0  0  0  0  0  0
  189.3520  177.3090  143.6760 C   0  0  0  0  0  0  0  0  0  0  0  0
  189.5050  177.5010  146.4240 C   0  0  0  0  0  0  0  0  0  0  0  0
  188.8520  176.0660  135.8830 C   0  0  0  0  0  2  0  0  0  0  0  0
  187.9240  174.9510  135.9550 N   0  0  0  0  0  0  0  0  0  0  0  0
  186.5990  175.4880  135.6130 C   0  0  0  0  0  2  0  0  0  0  0  0
  187.3710  174.7790  134.6040 C   0  0  0  0  0  2  0  0  0  0  0  0
  1 20  1  0  0  0  0
  1 16  1  0  0  0  0
  2 27  1  0  0  0  0
  3  4  1  0  0  0  0
  4 21  2  0  0  0  0
  5  6  1  0  0  0  0
  6 28  2  0  0  0  0
  6 18  1  0  0  0  0
  7 24  1  0  0  0  0
  8 12  2  0  0  0  0
  9 15  1  0  0  0  0
  9 26  1  0  0  0  0
 10 17  1  0  0  0  0
 11 13  1  0  0  0  0
 11  3  2  0  0  0  0
 12  2  1  0  0  0  0
 12 13  1  0  0  0  0
 13 22  2  0  0  0  0
 14 23  2  0  0  0  0
 16 19  1  0  0  0  0
 17  7  2  0  0  0  0
 17  8  1  0  0  0  0
 18 15  2  0  0  0  0
 19  7  1  0  0  0  0
 20 29  1  6  0  0  0
 20 10  1  0  0  0  0
 22 14  1  0  0  0  0
 22 21  1  0  0  0  0
 23 28  1  0  0  0  0
 24  2  2  0  0  0  0
 25  5  1  0  0  0  0
 27  5  2  0  0  0  0
 27 14  1  0  0  0  0
 28  9  1  0  0  0  0
 29 30  1  0  0  0  0
 31 30  1  0  0  0  0
 32 31  1  0  0  0  0
 32 30  1  0  0  0  0
M  END
>  <MODEL>
8

>  <REMARK>
 VINA RESULT:      -8.6      1.705      2.119
  Name = 
  2 active torsions:
  status: ('A' for Active; 'I' for Inactive)
    1  A    between atoms: C_20  and  C_29
    2  A    between atoms: C_29  and  N_30
                            x       y       z     vdW  Elec       q    Type
                         _______ _______ _______ _____ _____    ______ ____

>  <TORSDO>
F 2

$$$$
=
 OpenBabel11122410483D

 32 38  0  0  1  0  0  0  0  0999 V2000
  181.3580  180.0550  139.9990 C   0  0  0  0  0  2  0  0  0  0  0  0
  186.5210  178.2060  140.9840 C   0  0  0  0  0  0  0  0  0  0  0  0
  187.4670  177.8770  145.7660 C   0  0  0  0  0  3  0  0  0  0  0  0
  188.8050  177.6090  145.4860 C   0  0  0  0  0  3  0  0  0  0  0  0
  188.3830  177.8690  139.3480 C   0  0  0  0  0  0  0  0  0  0  0  0
  189.7360  177.5960  139.1790 C   0  0  0  0  0  0  0  0  0  0  0  0
  184.3050  178.6920  140.2180 C   0  0  0  0  0  0  0  0  0  0  0  0
  184.7310  178.5240  142.5840 C   0  0  0  0  0  3  0  0  0  0  0  0
  191.7900  177.1550  139.8040 N   0  0  0  0  0  0  0  0  0  0  0  0
  182.4890  178.9870  141.8840 O   0  0  0  0  0  0  0  0  0  0  0  0
  186.5640  178.0910  144.7230 C   0  0  0  0  0  3  0  0  0  0  0  0
  186.0840  178.2570  142.3280 C   0  0  0  0  0  0  0  0  0  0  0  0
  186.9890  178.0420  143.3820 C   0  0  0  0  0  0  0  0  0  0  0  0
  188.8000  177.7150  141.7710 C   0  0  0  0  0  0  0  0  0  0  0  0
  191.7000  177.2110  138.4530 C   0  0  0  0  0  3  0  0  0  0  0  0
  182.6630  180.2620  139.2320 C   0  0  0  0  0  2  0  0  0  0  0  0
  183.8260  178.7320  141.5460 C   0  0  0  0  0  0  0  0  0  0  0  0
  190.4340  177.4840  138.0310 N   0  0  0  0  0  0  0  0  0  0  0  0
  183.4300  178.9610  139.0340 C   0  0  0  0  0  2  0  0  0  0  0  0
  181.3960  178.8770  140.9770 C   0  0  1  0  0  3  0  0  0  0  0  0
  189.2440  177.5560  144.1620 C   0  0  0  0  0  3  0  0  0  0  0  0
  188.3490  177.7710  143.1010 C   0  0  0  0  0  0  0  0  0  0  0  0
  190.1200  177.4510  141.5160 N   0  0  0  0  0  0  0  0  0  0  0  0
  185.6190  178.4280  139.9880 N   0  0  0  0  0  0  0  0  0  0  0  0
  187.5620  178.0680  138.1990 N   0  0  0  0  0  1  0  0  0  0  0  0
  192.9770  176.8890  140.5940 C   0  0  0  0  0  1  0  0  0  0  0  0
  187.8810  177.9340  140.6850 C   0  0  0  0  0  0  0  0  0  0  0  0
  190.5500  177.3980  140.2360 C   0  0  0  0  0  0  0  0  0  0  0  0
  180.0970  178.8180  141.7630 C   0  0  0  0  0  2  0  0  0  0  0  0
  180.2720  179.4440  143.0620 N   0  0  0  0  0  0  0  0  0  0  0  0
  178.9310  179.8360  143.5190 C   0  0  0  0  0  2  0  0  0  0  0  0
  179.5360  178.6140  144.0280 C   0  0  0  0  0  2  0  0  0  0  0  0
  1 20  1  0  0  0  0
  2 12  1  0  0  0  0
  4  3  1  0  0  0  0
  5 27  1  0  0  0  0
  6  5  2  0  0  0  0
  6 28  1  0  0  0  0
  7 17  1  0  0  0  0
  9 28  1  0  0  0  0
  9 26  1  0  0  0  0
 11  3  2  0  0  0  0
 12  8  1  0  0  0  0
 12 13  2  0  0  0  0
 13 11  1  0  0  0  0
 14 22  2  0  0  0  0
 15  9  1  0  0  0  0
 16  1  1  0  0  0  0
 17 10  1  0  0  0  0
 17  8  2  0  0  0  0
 18 15  2  0  0  0  0
 18  6  1  0  0  0  0
 19 16  1  0  0  0  0
 19  7  1  0  0  0  0
 20 29  1  1  0  0  0
 20 10  1  0  0  0  0
 21  4  2  0  0  0  0
 22 13  1  0  0  0  0
 22 21  1  0  0  0  0
 23 14  1  0  0  0  0
 24  7  2  0  0  0  0
 24  2  1  0  0  0  0
 25  5  1  0  0  0  0
 27  2  2  0  0  0  0
 27 14  1  0  0  0  0
 28 23  2  0  0  0  0
 29 30  1  0  0  0  0
 30 31  1  0  0  0  0
 30 32  1  0  0  0  0
 31 32  1  0  0  0  0
M  END
>  <MODEL>
9

>  <REMARK>
 VINA RESULT:      -8.5      2.860      6.285
  Name = 
  2 active torsions:
  status: ('A' for Active; 'I' for Inactive)
    1  A    between atoms: C_20  and  C_29
    2  A    between atoms: C_29  and  N_30
                            x       y       z     vdW  Elec       q    Type
                         _______ _______ _______ _____ _____    ______ ____

>  <TORSDO>
F 2

$$$$
