=
 OpenBabel11122410333D

 30 35  0  0  1  0  0  0  0  0999 V2000
  186.1770  178.1220  142.1250 C   0  0  2  0  0  3  0  0  0  0  0  0
  184.0000  178.6420  140.8130 C   0  0  0  0  0  0  0  0  0  0  0  0
  184.5720  179.3150  145.4740 N   0  0  0  0  0  2  0  0  0  0  0  0
  186.8090  178.3450  143.5080 C   0  0  2  0  0  3  0  0  0  0  0  0
  186.8720  178.9040  141.1870 O   0  0  0  0  0  0  0  0  0  0  0  0
  190.1820  178.3260  142.0110 O   0  0  0  0  0  0  0  0  0  0  0  0
  188.5640  176.8650  145.7290 C   0  0  2  0  0  3  0  0  0  0  0  0
  188.9660  178.2500  142.1240 C   0  0  0  0  0  0  0  0  0  0  0  0
  187.9170  178.1040  146.1660 N   0  0  2  0  0  0  0  0  0  0  0  0
  185.6770  179.1490  146.3400 C   0  0  0  0  0  0  0  0  0  0  0  0
  188.0710  178.2240  140.9080 C   0  0  2  0  0  3  0  0  0  0  0  0
  188.3480  178.1040  143.4920 C   0  0  2  0  0  3  0  0  0  0  0  0
  182.5810  178.7980  140.7870 N   0  0  0  0  0  0  0  0  0  0  0  0
  188.2590  178.1890  147.5820 C   0  0  0  0  0  2  0  0  0  0  0  0
  189.8400  176.7160  146.5220 C   0  0  0  0  0  2  0  0  0  0  0  0
  184.6330  178.6050  139.7250 O   0  0  0  0  0  0  0  0  0  0  0  0
  184.5610  178.1600  144.5910 C   0  0  2  0  0  3  0  0  0  0  0  0
  181.8780  178.8810  141.8720 C   0  0  0  0  0  3  0  0  0  0  0  0
  184.7030  178.4710  142.1070 C   0  0  0  0  0  0  0  0  0  0  0  0
  185.9960  177.6070  144.5970 C   0  0  2  0  0  3  0  0  0  0  0  0
  185.9130  179.9400  147.2920 O   0  0  0  0  0  0  0  0  0  0  0  0
  186.4660  177.9210  146.0410 C   0  0  1  0  0  3  0  0  0  0  0  0
  189.6100  177.5280  147.7730 C   0  0  0  0  0  2  0  0  0  0  0  0
  188.3310  175.5670  143.5990 C   0  0  0  0  0  1  0  0  0  0  0  0
  182.5080  178.8710  143.2360 C   0  0  0  0  0  2  0  0  0  0  0  0
  183.9680  178.4820  143.2420 C   0  0  0  0  0  0  0  0  0  0  0  0
  188.8540  176.8500  144.2250 C   0  0  2  0  0  3  0  0  0  0  0  0
  188.7440  178.8570  139.6980 C   0  0  0  0  0  2  0  0  0  0  0  0
  188.9870  178.7900  137.2370 C   0  0  0  0  0  1  0  0  0  0  0  0
  188.3480  178.1190  138.4340 C   0  0  0  0  0  2  0  0  0  0  0  0
  1  5  1  6  0  0  0
  1  4  1  0  0  0  0
  2 19  1  0  0  0  0
  3 10  1  0  0  0  0
  4 20  1  0  0  0  0
  6  8  2  0  0  0  0
  7  9  1  0  0  0  0
  7 15  1  0  0  0  0
  8 12  1  0  0  0  0
  9 14  1  0  0  0  0
 10 21  2  0  0  0  0
 11  5  1  0  0  0  0
 11  8  1  0  0  0  0
 12  4  1  0  0  0  0
 12 27  1  0  0  0  0
 13  2  1  0  0  0  0
 13 18  2  0  0  0  0
 14 23  1  0  0  0  0
 15 23  1  0  0  0  0
 16  2  2  0  0  0  0
 17 20  1  0  0  0  0
 17  3  1  0  0  0  0
 18 25  1  0  0  0  0
 19  1  1  0  0  0  0
 19 26  2  0  0  0  0
 20 22  1  0  0  0  0
 22  9  1  0  0  0  0
 22 10  1  0  0  0  0
 24 27  1  0  0  0  0
 25 26  1  0  0  0  0
 26 17  1  0  0  0  0
 27  7  1  0  0  0  0
 28 11  1  0  0  0  0
 29 30  1  0  0  0  0
 30 28  1  0  0  0  0
M  END
>  <MODEL>
1

>  <REMARK>
 VINA RESULT:      -9.0      0.000      0.000
  Name = 
  2 active torsions:
  status: ('A' for Active; 'I' for Inactive)
    1  A    between atoms: C_11  and  C_28
    2  A    between atoms: C_28  and  C_30
                            x       y       z     vdW  Elec       q    Type
                         _______ _______ _______ _____ _____    ______ ____

>  <TORSDO>
F 2

$$$$
=
 OpenBabel11122410333D

 30 35  0  0  1  0  0  0  0  0999 V2000
  187.3330  177.8560  142.5160 C   0  0  2  0  0  3  0  0  0  0  0  0
  184.9390  178.6080  141.8590 C   0  0  0  0  0  0  0  0  0  0  0  0
  186.6560  178.6190  146.2810 N   0  0  0  0  0  2  0  0  0  0  0  0
  188.2920  177.8710  143.7170 C   0  0  2  0  0  3  0  0  0  0  0  0
  187.8260  178.7410  141.5420 O   0  0  0  0  0  0  0  0  0  0  0  0
  191.1970  177.9690  141.4440 O   0  0  0  0  0  0  0  0  0  0  0  0
  190.4400  176.0540  145.2300 C   0  0  2  0  0  3  0  0  0  0  0  0
  190.0420  177.9100  141.8430 C   0  0  0  0  0  0  0  0  0  0  0  0
  189.9920  177.2360  145.9670 N   0  0  2  0  0  0  0  0  0  0  0  0
  187.9250  178.3070  146.8200 C   0  0  0  0  0  0  0  0  0  0  0  0
  188.8800  178.0750  140.8920 C   0  0  2  0  0  3  0  0  0  0  0  0
  189.7640  177.5940  143.2910 C   0  0  2  0  0  3  0  0  0  0  0  0
  183.5660  178.8030  142.2040 N   0  0  0  0  0  0  0  0  0  0  0  0
  190.6700  177.1180  147.2530 C   0  0  0  0  0  2  0  0  0  0  0  0
  191.8590  175.7630  145.6570 C   0  0  0  0  0  2  0  0  0  0  0  0
  185.2870  178.7050  140.6530 O   0  0  0  0  0  0  0  0  0  0  0  0
  186.3640  177.5970  145.2890 C   0  0  2  0  0  3  0  0  0  0  0  0
  183.1520  178.7540  143.4310 C   0  0  0  0  0  3  0  0  0  0  0  0
  185.9210  178.2430  142.9070 C   0  0  0  0  0  0  0  0  0  0  0  0
  187.7240  177.0100  144.8700 C   0  0  2  0  0  3  0  0  0  0  0  0
  188.4300  178.9530  147.7760 O   0  0  0  0  0  0  0  0  0  0  0  0
  188.5450  177.1110  146.1810 C   0  0  1  0  0  3  0  0  0  0  0  0
  191.9850  176.4010  147.0190 C   0  0  0  0  0  2  0  0  0  0  0  0
  189.6240  175.0670  143.0760 C   0  0  0  0  0  1  0  0  0  0  0  0
  184.0910  178.5410  144.5840 C   0  0  0  0  0  2  0  0  0  0  0  0
  185.4830  178.1170  144.1810 C   0  0  0  0  0  0  0  0  0  0  0  0
  190.3580  176.2380  143.7110 C   0  0  2  0  0  3  0  0  0  0  0  0
  189.2770  178.8500  139.6440 C   0  0  0  0  0  2  0  0  0  0  0  0
  187.6320  177.6530  138.2360 C   0  0  0  0  0  1  0  0  0  0  0  0
  189.0990  177.9850  138.4120 C   0  0  0  0  0  2  0  0  0  0  0  0
  1  5  1  6  0  0  0
  1 19  1  0  0  0  0
  1  4  1  0  0  0  0
  2 13  1  0  0  0  0
  2 19  1  0  0  0  0
  3 10  1  0  0  0  0
  4 20  1  0  0  0  0
  6  8  2  0  0  0  0
  7 15  1  0  0  0  0
  7  9  1  0  0  0  0
  8 12  1  0  0  0  0
  9 22  1  0  0  0  0
  9 14  1  0  0  0  0
 10 21  2  0  0  0  0
 11  5  1  0  0  0  0
 11  8  1  0  0  0  0
 12 27  1  0  0  0  0
 12  4  1  0  0  0  0
 13 18  2  0  0  0  0
 15 23  1  0  0  0  0
 16  2  2  0  0  0  0
 17  3  1  0  0  0  0
 18 25  1  0  0  0  0
 19 26  2  0  0  0  0
 20 17  1  0  0  0  0
 20 22  1  0  0  0  0
 22 10  1  0  0  0  0
 23 14  1  0  0  0  0
 24 27  1  0  0  0  0
 26 25  1  0  0  0  0
 26 17  1  0  0  0  0
 27  7  1  0  0  0  0
 28 11  1  0  0  0  0
 29 30  1  0  0  0  0
 30 28  1  0  0  0  0
M  END
>  <MODEL>
2

>  <REMARK>
 VINA RESULT:      -8.2      1.340      1.849
  Name = 
  2 active torsions:
  status: ('A' for Active; 'I' for Inactive)
    1  A    between atoms: C_11  and  C_28
    2  A    between atoms: C_28  and  C_30
                            x       y       z     vdW  Elec       q    Type
                         _______ _______ _______ _____ _____    ______ ____

>  <TORSDO>
F 2

$$$$
=
 OpenBabel11122410333D

 30 35  0  0  1  0  0  0  0  0999 V2000
  188.0100  178.0260  144.1780 C   0  0  2  0  0  3  0  0  0  0  0  0
  185.5470  178.5010  144.8380 C   0  0  0  0  0  0  0  0  0  0  0  0
  187.0350  177.5900  140.4270 N   0  0  0  0  0  2  0  0  0  0  0  0
  188.8440  177.5370  142.9840 C   0  0  2  0  0  3  0  0  0  0  0  0
  188.0350  177.0350  145.1740 O   0  0  0  0  0  0  0  0  0  0  0  0
  191.3740  176.1350  145.2740 O   0  0  0  0  0  0  0  0  0  0  0  0
  191.5860  178.0990  141.4440 C   0  0  2  0  0  3  0  0  0  0  0  0
  190.3800  176.7210  144.8680 C   0  0  0  0  0  0  0  0  0  0  0  0
  190.6310  177.2500  140.7300 N   0  0  2  0  0  0  0  0  0  0  0  0
  188.3000  177.2570  139.8890 C   0  0  0  0  0  0  0  0  0  0  0  0
  189.2810  177.1420  145.8150 C   0  0  2  0  0  3  0  0  0  0  0  0
  190.2760  177.0990  143.4120 C   0  0  2  0  0  3  0  0  0  0  0  0
  184.2420  178.9670  144.4890 N   0  0  0  0  0  0  0  0  0  0  0  0
  191.2790  177.0080  139.4460 C   0  0  0  0  0  2  0  0  0  0  0  0
  192.9730  177.6800  141.0190 C   0  0  0  0  0  2  0  0  0  0  0  0
  185.8150  178.2790  146.0480 O   0  0  0  0  0  0  0  0  0  0  0  0
  187.2630  178.6500  141.3950 C   0  0  2  0  0  3  0  0  0  0  0  0
  183.8930  179.1780  143.2590 C   0  0  0  0  0  3  0  0  0  0  0  0
  186.5800  178.3400  143.7880 C   0  0  0  0  0  0  0  0  0  0  0  0
  188.7400  178.5380  141.8090 C   0  0  2  0  0  3  0  0  0  0  0  0
  188.4370  176.4290  138.9500 O   0  0  0  0  0  0  0  0  0  0  0  0
  189.4120  178.0360  140.5050 C   0  0  1  0  0  3  0  0  0  0  0  0
  192.7780  177.0280  139.6720 C   0  0  0  0  0  2  0  0  0  0  0  0
  191.3400  179.4000  143.5720 C   0  0  0  0  0  1  0  0  0  0  0  0
  184.8160  178.9000  142.1070 C   0  0  0  0  0  2  0  0  0  0  0  0
  186.2470  178.6290  142.5090 C   0  0  0  0  0  0  0  0  0  0  0  0
  191.4340  178.0080  142.9660 C   0  0  2  0  0  3  0  0  0  0  0  0
  189.2740  176.2980  147.0820 C   0  0  0  0  0  2  0  0  0  0  0  0
  188.7490  178.2870  148.4580 C   0  0  0  0  0  1  0  0  0  0  0  0
  188.3100  176.8840  148.0950 C   0  0  0  0  0  2  0  0  0  0  0  0
  1 19  1  6  0  0  0
  1  5  1  0  0  0  0
  2 16  2  0  0  0  0
  3 17  1  0  0  0  0
  4 12  1  0  0  0  0
  4  1  1  0  0  0  0
  5 11  1  0  0  0  0
  7 27  1  0  0  0  0
  8  6  2  0  0  0  0
  8 11  1  0  0  0  0
  9  7  1  0  0  0  0
 10  3  1  0  0  0  0
 10 22  1  0  0  0  0
 11 28  1  0  0  0  0
 12  8  1  0  0  0  0
 13  2  1  0  0  0  0
 14 23  1  0  0  0  0
 14  9  1  0  0  0  0
 15  7  1  0  0  0  0
 17 20  1  0  0  0  0
 17 26  1  0  0  0  0
 18 13  2  0  0  0  0
 19  2  1  0  0  0  0
 20  4  1  0  0  0  0
 21 10  2  0  0  0  0
 22  9  1  0  0  0  0
 22 20  1  0  0  0  0
 23 15  1  0  0  0  0
 25 26  1  0  0  0  0
 25 18  1  0  0  0  0
 26 19  2  0  0  0  0
 27 12  1  0  0  0  0
 27 24  1  0  0  0  0
 28 30  1  0  0  0  0
 30 29  1  0  0  0  0
M  END
>  <MODEL>
3

>  <REMARK>
 VINA RESULT:      -7.2      2.585      5.829
  Name = 
  2 active torsions:
  status: ('A' for Active; 'I' for Inactive)
    1  A    between atoms: C_11  and  C_28
    2  A    between atoms: C_28  and  C_30
                            x       y       z     vdW  Elec       q    Type
                         _______ _______ _______ _____ _____    ______ ____

>  <TORSDO>
F 2

$$$$
=
 OpenBabel11122410333D

 30 35  0  0  1  0  0  0  0  0999 V2000
  187.8190  178.1080  143.7190 C   0  0  2  0  0  3  0  0  0  0  0  0
  186.8670  178.5460  141.3460 C   0  0  0  0  0  0  0  0  0  0  0  0
  190.5880  175.7590  142.2940 N   0  0  0  0  0  2  0  0  0  0  0  0
  188.8220  177.1970  144.4450 C   0  0  2  0  0  3  0  0  0  0  0  0
  186.5210  177.7500  144.1220 O   0  0  0  0  0  0  0  0  0  0  0  0
  186.8440  177.4290  147.5510 O   0  0  0  0  0  0  0  0  0  0  0  0
  191.0680  177.2510  146.7150 C   0  0  2  0  0  3  0  0  0  0  0  0
  187.2150  177.6130  146.4000 C   0  0  0  0  0  0  0  0  0  0  0  0
  191.0560  176.0510  145.8770 N   0  0  2  0  0  0  0  0  0  0  0  0
  191.2060  175.3600  143.5010 C   0  0  0  0  0  0  0  0  0  0  0  0
  186.3280  178.3110  145.3960 C   0  0  2  0  0  3  0  0  0  0  0  0
  188.6070  177.2050  145.9870 C   0  0  2  0  0  3  0  0  0  0  0  0
  187.0580  178.6160  139.9320 N   0  0  0  0  0  0  0  0  0  0  0  0
  192.2030  175.2870  146.3530 C   0  0  0  0  0  2  0  0  0  0  0  0
  191.5800  176.8470  148.0770 C   0  0  0  0  0  2  0  0  0  0  0  0
  185.7970  178.9850  141.8430 O   0  0  0  0  0  0  0  0  0  0  0  0
  190.3000  177.1780  142.4250 C   0  0  2  0  0  3  0  0  0  0  0  0
  188.1200  178.1470  139.3570 C   0  0  0  0  0  3  0  0  0  0  0  0
  187.9450  178.0120  142.2120 C   0  0  0  0  0  0  0  0  0  0  0  0
  190.2580  177.4650  143.9370 C   0  0  2  0  0  3  0  0  0  0  0  0
  191.6650  174.1990  143.6730 O   0  0  0  0  0  0  0  0  0  0  0  0
  191.3080  176.4690  144.4920 C   0  0  1  0  0  3  0  0  0  0  0  0
  192.3870  175.5970  147.8260 C   0  0  0  0  0  2  0  0  0  0  0  0
  189.7820  179.3930  146.5180 C   0  0  0  0  0  1  0  0  0  0  0  0
  189.2050  177.4500  140.1280 C   0  0  0  0  0  2  0  0  0  0  0  0
  189.0880  177.5890  141.6270 C   0  0  0  0  0  0  0  0  0  0  0  0
  189.6880  177.9070  146.8280 C   0  0  2  0  0  3  0  0  0  0  0  0
  184.8580  178.2100  145.7770 C   0  0  0  0  0  2  0  0  0  0  0  0
  182.9230  178.6790  144.3080 C   0  0  0  0  0  1  0  0  0  0  0  0
  184.0620  179.3010  145.0860 C   0  0  0  0  0  2  0  0  0  0  0  0
  1 19  1  6  0  0  0
  1  5  1  0  0  0  0
  1  4  1  0  0  0  0
  2 16  2  0  0  0  0
  2 19  1  0  0  0  0
  3 17  1  0  0  0  0
  3 10  1  0  0  0  0
  4 12  1  0  0  0  0
  5 11  1  0  0  0  0
  7 27  1  0  0  0  0
  7 15  1  0  0  0  0
  8  6  2  0  0  0  0
  9 14  1  0  0  0  0
  9  7  1  0  0  0  0
 10 21  2  0  0  0  0
 10 22  1  0  0  0  0
 11 28  1  0  0  0  0
 11  8  1  0  0  0  0
 12  8  1  0  0  0  0
 12 27  1  0  0  0  0
 13  2  1  0  0  0  0
 14 23  1  0  0  0  0
 17 20  1  0  0  0  0
 18 13  2  0  0  0  0
 18 25  1  0  0  0  0
 20  4  1  0  0  0  0
 20 22  1  0  0  0  0
 22  9  1  0  0  0  0
 23 15  1  0  0  0  0
 24 27  1  0  0  0  0
 25 26  1  0  0  0  0
 26 19  2  0  0  0  0
 26 17  1  0  0  0  0
 29 30  1  0  0  0  0
 30 28  1  0  0  0  0
M  END
>  <MODEL>
4

>  <REMARK>
 VINA RESULT:      -7.1      2.351      5.390
  Name = 
  2 active torsions:
  status: ('A' for Active; 'I' for Inactive)
    1  A    between atoms: C_11  and  C_28
    2  A    between atoms: C_28  and  C_30
                            x       y       z     vdW  Elec       q    Type
                         _______ _______ _______ _____ _____    ______ ____

>  <TORSDO>
F 2

$$$$
=
 OpenBabel11122410333D

 30 35  0  0  1  0  0  0  0  0999 V2000
  184.9200  178.7300  141.1610 C   0  0  2  0  0  3  0  0  0  0  0  0
  185.3120  178.6890  138.5960 C   0  0  0  0  0  0  0  0  0  0  0  0
  188.3440  176.9830  141.8210 N   0  0  0  0  0  2  0  0  0  0  0  0
  185.5140  178.1620  142.4590 C   0  0  2  0  0  3  0  0  0  0  0  0
  183.6780  178.1130  140.9320 O   0  0  0  0  0  0  0  0  0  0  0  0
  182.1850  178.2200  144.0510 O   0  0  0  0  0  0  0  0  0  0  0  0
  186.1820  178.9770  145.4750 C   0  0  2  0  0  3  0  0  0  0  0  0
  183.0750  178.3720  143.2260 C   0  0  0  0  0  0  0  0  0  0  0  0
  186.7980  177.7330  145.0130 N   0  0  2  0  0  0  0  0  0  0  0  0
  188.2850  176.8650  143.2290 C   0  0  0  0  0  0  0  0  0  0  0  0
  182.7580  178.7340  141.7940 C   0  0  2  0  0  3  0  0  0  0  0  0
  184.5180  178.2710  143.6520 C   0  0  2  0  0  3  0  0  0  0  0  0
  186.2070  178.6620  137.4840 N   0  0  0  0  0  0  0  0  0  0  0  0
  187.6210  177.3160  146.1430 C   0  0  0  0  0  2  0  0  0  0  0  0
  185.9520  178.8450  146.9610 C   0  0  0  0  0  2  0  0  0  0  0  0
  184.0880  178.9060  138.3940 O   0  0  0  0  0  0  0  0  0  0  0  0
  187.8180  178.2980  141.4920 C   0  0  2  0  0  3  0  0  0  0  0  0
  187.4700  178.4070  137.6230 C   0  0  0  0  0  3  0  0  0  0  0  0
  185.8360  178.5180  139.9730 C   0  0  0  0  0  0  0  0  0  0  0  0
  186.9410  178.7150  142.6860 C   0  0  2  0  0  3  0  0  0  0  0  0
  188.7540  175.8710  143.8440 O   0  0  0  0  0  0  0  0  0  0  0  0
  187.6770  178.0590  143.8820 C   0  0  1  0  0  3  0  0  0  0  0  0
  186.9500  177.8060  147.4100 C   0  0  0  0  0  2  0  0  0  0  0  0
  184.8850  180.7180  144.2240 C   0  0  0  0  0  1  0  0  0  0  0  0
  188.0750  178.0700  138.9560 C   0  0  0  0  0  2  0  0  0  0  0  0
  187.1650  178.3250  140.1340 C   0  0  0  0  0  0  0  0  0  0  0  0
  184.8700  179.2910  144.7490 C   0  0  2  0  0  3  0  0  0  0  0  0
  181.3440  178.3230  141.4090 C   0  0  0  0  0  2  0  0  0  0  0  0
  180.2330  176.4380  140.2530 C   0  0  0  0  0  1  0  0  0  0  0  0
  181.3750  177.4290  140.1840 C   0  0  0  0  0  2  0  0  0  0  0  0
  1 19  1  6  0  0  0
  1  4  1  0  0  0  0
  2 19  1  0  0  0  0
  3 10  1  0  0  0  0
  4 20  1  0  0  0  0
  4 12  1  0  0  0  0
  5  1  1  0  0  0  0
  5 11  1  0  0  0  0
  7 15  1  0  0  0  0
  8 12  1  0  0  0  0
  8  6  2  0  0  0  0
  9  7  1  0  0  0  0
  9 14  1  0  0  0  0
 10 21  2  0  0  0  0
 10 22  1  0  0  0  0
 11  8  1  0  0  0  0
 12 27  1  0  0  0  0
 13 18  2  0  0  0  0
 13  2  1  0  0  0  0
 14 23  1  0  0  0  0
 15 23  1  0  0  0  0
 16  2  2  0  0  0  0
 17  3  1  0  0  0  0
 17 20  1  0  0  0  0
 18 25  1  0  0  0  0
 19 26  2  0  0  0  0
 20 22  1  0  0  0  0
 22  9  1  0  0  0  0
 24 27  1  0  0  0  0
 25 26  1  0  0  0  0
 26 17  1  0  0  0  0
 27  7  1  0  0  0  0
 28 11  1  0  0  0  0
 30 29  1  0  0  0  0
 30 28  1  0  0  0  0
M  END
>  <MODEL>
5

>  <REMARK>
 VINA RESULT:      -6.8      2.153      5.006
  Name = 
  2 active torsions:
  status: ('A' for Active; 'I' for Inactive)
    1  A    between atoms: C_11  and  C_28
    2  A    between atoms: C_28  and  C_30
                            x       y       z     vdW  Elec       q    Type
                         _______ _______ _______ _____ _____    ______ ____

>  <TORSDO>
F 2

$$$$
=
 OpenBabel11122410333D

 30 35  0  0  1  0  0  0  0  0999 V2000
  188.3440  177.4110  139.9950 C   0  0  2  0  0  3  0  0  0  0  0  0
  187.4780  177.9200  142.3870 C   0  0  0  0  0  0  0  0  0  0  0  0
  192.0550  177.6010  141.1810 N   0  0  0  0  0  2  0  0  0  0  0  0
  189.6500  177.4010  139.1850 C   0  0  2  0  0  3  0  0  0  0  0  0
  187.5420  178.4680  139.5320 O   0  0  0  0  0  0  0  0  0  0  0  0
  187.7820  178.1620  136.0950 O   0  0  0  0  0  0  0  0  0  0  0  0
  191.2120  175.7060  136.9740 C   0  0  2  0  0  3  0  0  0  0  0  0
  188.0250  177.9030  137.2650 C   0  0  0  0  0  0  0  0  0  0  0  0
  192.0120  176.7180  137.6650 N   0  0  2  0  0  0  0  0  0  0  0  0
  192.7110  177.3930  139.9460 C   0  0  0  0  0  0  0  0  0  0  0  0
  186.9600  178.0320  138.3290 C   0  0  2  0  0  3  0  0  0  0  0  0
  189.3830  177.3750  137.6500 C   0  0  2  0  0  3  0  0  0  0  0  0
  187.6680  177.8880  143.8030 N   0  0  0  0  0  0  0  0  0  0  0  0
  193.3520  176.5290  137.1210 C   0  0  0  0  0  2  0  0  0  0  0  0
  191.7790  175.5520  135.5830 C   0  0  0  0  0  2  0  0  0  0  0  0
  186.3430  178.2110  141.9280 O   0  0  0  0  0  0  0  0  0  0  0  0
  190.9290  176.6820  141.2120 C   0  0  2  0  0  3  0  0  0  0  0  0
  188.8210  177.6320  144.3360 C   0  0  0  0  0  3  0  0  0  0  0  0
  188.5950  177.5580  141.4820 C   0  0  0  0  0  0  0  0  0  0  0  0
  190.6220  176.3360  139.7440 C   0  0  2  0  0  3  0  0  0  0  0  0
  193.7870  177.9750  139.6470 O   0  0  0  0  0  0  0  0  0  0  0  0
  192.0280  176.3780  139.0940 C   0  0  1  0  0  3  0  0  0  0  0  0
  193.2080  176.0260  135.6990 C   0  0  0  0  0  2  0  0  0  0  0  0
  188.8790  174.8980  137.3990 C   0  0  0  0  0  1  0  0  0  0  0  0
  190.0530  177.4010  143.5070 C   0  0  0  0  0  2  0  0  0  0  0  0
  189.7820  177.2170  142.0330 C   0  0  0  0  0  0  0  0  0  0  0  0
  189.7250  176.0670  136.9160 C   0  0  2  0  0  3  0  0  0  0  0  0
  185.8630  179.0030  137.9150 C   0  0  0  0  0  2  0  0  0  0  0  0
  183.9750  179.3780  139.4690 C   0  0  0  0  0  1  0  0  0  0  0  0
  184.5110  178.4880  138.3670 C   0  0  0  0  0  2  0  0  0  0  0  0
  1  5  1  6  0  0  0
  1 19  1  0  0  0  0
  2 13  1  0  0  0  0
  3 17  1  0  0  0  0
  4 20  1  0  0  0  0
  4  1  1  0  0  0  0
  6  8  2  0  0  0  0
  7  9  1  0  0  0  0
  8 12  1  0  0  0  0
  8 11  1  0  0  0  0
  9 22  1  0  0  0  0
 10  3  1  0  0  0  0
 11  5  1  0  0  0  0
 12  4  1  0  0  0  0
 13 18  2  0  0  0  0
 14  9  1  0  0  0  0
 15 23  1  0  0  0  0
 15  7  1  0  0  0  0
 16  2  2  0  0  0  0
 17 26  1  0  0  0  0
 19 26  2  0  0  0  0
 19  2  1  0  0  0  0
 20 17  1  0  0  0  0
 21 10  2  0  0  0  0
 22 20  1  0  0  0  0
 22 10  1  0  0  0  0
 23 14  1  0  0  0  0
 25 18  1  0  0  0  0
 26 25  1  0  0  0  0
 27  7  1  0  0  0  0
 27 24  1  0  0  0  0
 27 12  1  0  0  0  0
 28 11  1  0  0  0  0
 28 30  1  0  0  0  0
 30 29  1  0  0  0  0
M  END
>  <MODEL>
6

>  <REMARK>
 VINA RESULT:      -6.8      3.551      7.314
  Name = 
  2 active torsions:
  status: ('A' for Active; 'I' for Inactive)
    1  A    between atoms: C_11  and  C_28
    2  A    between atoms: C_28  and  C_30
                            x       y       z     vdW  Elec       q    Type
                         _______ _______ _______ _____ _____    ______ ____

>  <TORSDO>
F 2

$$$$
=
 OpenBabel11122410333D

 30 35  0  0  1  0  0  0  0  0999 V2000
  183.7040  176.9940  137.7510 C   0  0  2  0  0  3  0  0  0  0  0  0
  185.2170  176.7980  135.6530 C   0  0  0  0  0  0  0  0  0  0  0  0
  186.6260  178.4970  139.8520 N   0  0  0  0  0  2  0  0  0  0  0  0
  183.7970  177.2930  139.2550 C   0  0  2  0  0  3  0  0  0  0  0  0
  183.3820  175.6360  137.5870 O   0  0  0  0  0  0  0  0  0  0  0  0
  180.8550  175.1620  139.9000 O   0  0  0  0  0  0  0  0  0  0  0  0
  182.2870  178.8550  141.5970 C   0  0  2  0  0  3  0  0  0  0  0  0
  181.7340  175.7700  139.3070 C   0  0  0  0  0  0  0  0  0  0  0  0
  183.6470  178.4160  141.9150 N   0  0  2  0  0  0  0  0  0  0  0  0
  185.9790  178.6280  141.1020 C   0  0  0  0  0  0  0  0  0  0  0  0
  182.0050  175.5160  137.8420 C   0  0  2  0  0  3  0  0  0  0  0  0
  182.5170  176.8430  140.0200 C   0  0  2  0  0  3  0  0  0  0  0  0
  186.3450  177.2430  134.8970 N   0  0  0  0  0  0  0  0  0  0  0  0
  183.8790  178.9530  143.2510 C   0  0  0  0  0  2  0  0  0  0  0  0
  181.5010  178.8650  142.8870 C   0  0  0  0  0  2  0  0  0  0  0  0
  184.3990  176.0020  135.1220 O   0  0  0  0  0  0  0  0  0  0  0  0
  185.6640  178.9080  138.8420 C   0  0  2  0  0  3  0  0  0  0  0  0
  187.2420  178.0320  135.3990 C   0  0  0  0  0  3  0  0  0  0  0  0
  184.9920  177.3190  137.0230 C   0  0  0  0  0  0  0  0  0  0  0  0
  184.2760  178.7460  139.4870 C   0  0  2  0  0  3  0  0  0  0  0  0
  186.5760  178.4360  142.1940 O   0  0  0  0  0  0  0  0  0  0  0  0
  184.5620  179.0740  140.9740 C   0  0  1  0  0  3  0  0  0  0  0  0
  182.5450  179.0030  143.9680 C   0  0  0  0  0  2  0  0  0  0  0  0
  181.0200  178.8110  139.4360 C   0  0  0  0  0  1  0  0  0  0  0  0
  187.1890  178.4960  136.8270 C   0  0  0  0  0  2  0  0  0  0  0  0
  185.8840  178.2010  137.5280 C   0  0  0  0  0  0  0  0  0  0  0  0
  181.6070  177.9630  140.5540 C   0  0  2  0  0  3  0  0  0  0  0  0
  181.5270  174.1370  137.4110 C   0  0  0  0  0  2  0  0  0  0  0  0
  182.3270  171.8650  136.8440 C   0  0  0  0  0  1  0  0  0  0  0  0
  182.6830  173.3360  136.8430 C   0  0  0  0  0  2  0  0  0  0  0  0
  1 19  1  6  0  0  0
  1  4  1  0  0  0  0
  2 19  1  0  0  0  0
  3 10  1  0  0  0  0
  4 20  1  0  0  0  0
  4 12  1  0  0  0  0
  5  1  1  0  0  0  0
  5 11  1  0  0  0  0
  7  9  1  0  0  0  0
  7 15  1  0  0  0  0
  8  6  2  0  0  0  0
  8 12  1  0  0  0  0
  9 14  1  0  0  0  0
 10 21  2  0  0  0  0
 11  8  1  0  0  0  0
 12 27  1  0  0  0  0
 13 18  2  0  0  0  0
 13  2  1  0  0  0  0
 14 23  1  0  0  0  0
 15 23  1  0  0  0  0
 16  2  2  0  0  0  0
 17 20  1  0  0  0  0
 17  3  1  0  0  0  0
 18 25  1  0  0  0  0
 19 26  2  0  0  0  0
 20 22  1  0  0  0  0
 22 10  1  0  0  0  0
 22  9  1  0  0  0  0
 24 27  1  0  0  0  0
 25 26  1  0  0  0  0
 26 17  1  0  0  0  0
 27  7  1  0  0  0  0
 28 11  1  0  0  0  0
 30 29  1  0  0  0  0
 30 28  1  0  0  0  0
M  END
>  <MODEL>
7

>  <REMARK>
 VINA RESULT:      -6.8      3.755      7.129
  Name = 
  2 active torsions:
  status: ('A' for Active; 'I' for Inactive)
    1  A    between atoms: C_11  and  C_28
    2  A    between atoms: C_28  and  C_30
                            x       y       z     vdW  Elec       q    Type
                         _______ _______ _______ _____ _____    ______ ____

>  <TORSDO>
F 2

$$$$
=
 OpenBabel11122410333D

 30 35  0  0  1  0  0  0  0  0999 V2000
  186.5050  178.0920  138.5700 C   0  0  2  0  0  3  0  0  0  0  0  0
  184.2670  179.1740  139.3130 C   0  0  0  0  0  0  0  0  0  0  0  0
  184.6340  175.4880  136.3490 N   0  0  0  0  0  2  0  0  0  0  0  0
  187.0340  176.8570  137.8250 C   0  0  2  0  0  3  0  0  0  0  0  0
  186.8400  177.9680  139.9300 O   0  0  0  0  0  0  0  0  0  0  0  0
  190.1410  176.9400  139.8130 O   0  0  0  0  0  0  0  0  0  0  0  0
  189.2560  175.9690  135.7090 C   0  0  2  0  0  3  0  0  0  0  0  0
  189.0440  177.2490  139.3680 C   0  0  0  0  0  0  0  0  0  0  0  0
  188.2020  174.9840  135.9590 N   0  0  2  0  0  0  0  0  0  0  0  0
  185.7370  174.7380  135.8800 C   0  0  0  0  0  0  0  0  0  0  0  0
  188.2000  178.3070  140.0390 C   0  0  2  0  0  3  0  0  0  0  0  0
  188.5510  176.6210  138.0890 C   0  0  2  0  0  3  0  0  0  0  0  0
  182.8910  179.4650  139.0590 N   0  0  0  0  0  0  0  0  0  0  0  0
  188.5140  173.9030  135.0310 C   0  0  0  0  0  2  0  0  0  0  0  0
  190.5110  175.2090  135.3500 C   0  0  0  0  0  2  0  0  0  0  0  0
  184.8460  179.7430  140.2750 O   0  0  0  0  0  0  0  0  0  0  0  0
  185.0380  176.8840  136.3160 C   0  0  2  0  0  3  0  0  0  0  0  0
  182.2290  178.8850  138.1090 C   0  0  0  0  0  3  0  0  0  0  0  0
  185.0060  178.2560  138.4140 C   0  0  0  0  0  0  0  0  0  0  0  0
  186.5760  176.8820  136.3480 C   0  0  2  0  0  3  0  0  0  0  0  0
  185.6790  173.4930  135.7010 O   0  0  0  0  0  0  0  0  0  0  0  0
  186.9220  175.5870  135.5690 C   0  0  1  0  0  3  0  0  0  0  0  0
  190.0170  173.8790  134.8370 C   0  0  0  0  0  2  0  0  0  0  0  0
  189.4840  178.3440  136.4730 C   0  0  0  0  0  1  0  0  0  0  0  0
  182.8430  177.8270  137.2370 C   0  0  0  0  0  2  0  0  0  0  0  0
  184.3420  177.7020  137.3740 C   0  0  0  0  0  0  0  0  0  0  0  0
  189.5020  176.8870  136.9100 C   0  0  2  0  0  3  0  0  0  0  0  0
  188.5650  178.4730  141.5070 C   0  0  0  0  0  2  0  0  0  0  0  0
  187.9810  176.6640  143.0920 C   0  0  0  0  0  1  0  0  0  0  0  0
  187.4700  177.9020  142.3870 C   0  0  0  0  0  2  0  0  0  0  0  0
  1 19  1  1  0  0  0
  1  5  1  0  0  0  0
  2 16  2  0  0  0  0
  4 12  1  0  0  0  0
  4  1  1  0  0  0  0
  5 11  1  0  0  0  0
  7  9  1  0  0  0  0
  7 27  1  0  0  0  0
  8  6  2  0  0  0  0
  8 11  1  0  0  0  0
 10  3  1  0  0  0  0
 11 28  1  0  0  0  0
 12  8  1  0  0  0  0
 13  2  1  0  0  0  0
 14  9  1  0  0  0  0
 15  7  1  0  0  0  0
 17 20  1  0  0  0  0
 17  3  1  0  0  0  0
 17 26  1  0  0  0  0
 18 13  2  0  0  0  0
 19  2  1  0  0  0  0
 20  4  1  0  0  0  0
 21 10  2  0  0  0  0
 22 10  1  0  0  0  0
 22  9  1  0  0  0  0
 22 20  1  0  0  0  0
 23 14  1  0  0  0  0
 23 15  1  0  0  0  0
 24 27  1  0  0  0  0
 25 26  1  0  0  0  0
 25 18  1  0  0  0  0
 26 19  2  0  0  0  0
 27 12  1  0  0  0  0
 28 30  1  0  0  0  0
 30 29  1  0  0  0  0
M  END
>  <MODEL>
8

>  <REMARK>
 VINA RESULT:      -6.7      3.594      7.608
  Name = 
  2 active torsions:
  status: ('A' for Active; 'I' for Inactive)
    1  A    between atoms: C_11  and  C_28
    2  A    between atoms: C_28  and  C_30
                            x       y       z     vdW  Elec       q    Type
                         _______ _______ _______ _____ _____    ______ ____

>  <TORSDO>
F 2

$$$$
=
 OpenBabel11122410333D

 30 35  0  0  1  0  0  0  0  0999 V2000
  186.6580  178.4180  140.1140 C   0  0  2  0  0  3  0  0  0  0  0  0
  184.6220  178.9820  141.6200 C   0  0  0  0  0  0  0  0  0  0  0  0
  184.4150  176.3870  137.6540 N   0  0  0  0  0  2  0  0  0  0  0  0
  187.0420  177.5210  138.9270 C   0  0  2  0  0  3  0  0  0  0  0  0
  187.3140  177.9410  141.2630 O   0  0  0  0  0  0  0  0  0  0  0  0
  190.5290  177.3650  140.1240 O   0  0  0  0  0  0  0  0  0  0  0  0
  188.7270  177.5420  136.2130 C   0  0  2  0  0  3  0  0  0  0  0  0
  189.3460  177.6660  140.0440 C   0  0  0  0  0  0  0  0  0  0  0  0
  187.8030  176.4170  136.3670 N   0  0  2  0  0  0  0  0  0  0  0  0
  185.4030  175.9330  136.7500 C   0  0  0  0  0  0  0  0  0  0  0  0
  188.6460  178.3820  141.1750 C   0  0  2  0  0  3  0  0  0  0  0  0
  188.5860  177.3890  138.7720 C   0  0  2  0  0  3  0  0  0  0  0  0
  183.2150  179.1800  141.7720 N   0  0  0  0  0  0  0  0  0  0  0  0
  187.9270  175.6950  135.1050 C   0  0  0  0  0  2  0  0  0  0  0  0
  189.8880  177.0640  135.3750 C   0  0  0  0  0  2  0  0  0  0  0  0
  185.3920  179.3060  142.5620 O   0  0  0  0  0  0  0  0  0  0  0  0
  184.7440  177.7680  137.9690 C   0  0  2  0  0  3  0  0  0  0  0  0
  182.3690  178.8330  140.8550 C   0  0  0  0  0  3  0  0  0  0  0  0
  185.1610  178.4540  140.3440 C   0  0  0  0  0  0  0  0  0  0  0  0
  186.2440  177.9270  137.6660 C   0  0  2  0  0  3  0  0  0  0  0  0
  185.3520  174.7960  136.2100 O   0  0  0  0  0  0  0  0  0  0  0  0
  186.4440  176.9620  136.4690 C   0  0  1  0  0  3  0  0  0  0  0  0
  189.3390  175.8960  134.5940 C   0  0  0  0  0  2  0  0  0  0  0  0
  189.0370  179.6010  137.6080 C   0  0  0  0  0  1  0  0  0  0  0  0
  182.7980  178.1500  139.5870 C   0  0  0  0  0  2  0  0  0  0  0  0
  184.2900  178.1580  139.3530 C   0  0  0  0  0  0  0  0  0  0  0  0
  189.2170  178.0910  137.5570 C   0  0  2  0  0  3  0  0  0  0  0  0
  189.3450  178.1510  142.5070 C   0  0  0  0  0  2  0  0  0  0  0  0
  188.5260  177.6670  144.7910 C   0  0  0  0  0  1  0  0  0  0  0  0
  188.5450  177.1830  143.3570 C   0  0  0  0  0  2  0  0  0  0  0  0
  1 19  1  1  0  0  0
  1  5  1  0  0  0  0
  2 13  1  0  0  0  0
  2 16  2  0  0  0  0
  3 17  1  0  0  0  0
  4  1  1  0  0  0  0
  7  9  1  0  0  0  0
  7 27  1  0  0  0  0
  8  6  2  0  0  0  0
  8 11  1  0  0  0  0
  9 22  1  0  0  0  0
 10  3  1  0  0  0  0
 11  5  1  0  0  0  0
 11 28  1  0  0  0  0
 12  4  1  0  0  0  0
 12  8  1  0  0  0  0
 14  9  1  0  0  0  0
 15  7  1  0  0  0  0
 17 26  1  0  0  0  0
 18 13  2  0  0  0  0
 19  2  1  0  0  0  0
 20 17  1  0  0  0  0
 20  4  1  0  0  0  0
 21 10  2  0  0  0  0
 22 10  1  0  0  0  0
 22 20  1  0  0  0  0
 23 14  1  0  0  0  0
 23 15  1  0  0  0  0
 25 18  1  0  0  0  0
 26 25  1  0  0  0  0
 26 19  2  0  0  0  0
 27 24  1  0  0  0  0
 27 12  1  0  0  0  0
 28 30  1  0  0  0  0
 30 29  1  0  0  0  0
M  END
>  <MODEL>
9

>  <REMARK>
 VINA RESULT:      -6.4      2.654      6.967
  Name = 
  2 active torsions:
  status: ('A' for Active; 'I' for Inactive)
    1  A    between atoms: C_11  and  C_28
    2  A    between atoms: C_28  and  C_30
                            x       y       z     vdW  Elec       q    Type
                         _______ _______ _______ _____ _____    ______ ____

>  <TORSDO>
F 2

$$$$
