=
 OpenBabel11122412293D

 34 41  0  0  1  0  0  0  0  0999 V2000
  185.4800  178.6210  144.8550 C   0  0  2  0  0  3  0  0  0  0  0  0
  183.5310  179.1610  143.3710 C   0  0  0  0  0  2  0  0  0  0  0  0
  192.1010  176.8730  145.6560 C   0  0  2  0  0  3  0  0  0  0  0  0
  187.6450  178.1810  146.0820 C   0  0  1  0  0  3  0  0  0  0  0  0
  189.5940  177.0730  144.8540 C   0  0  2  0  0  3  0  0  0  0  0  0
  191.2520  178.7270  144.4960 O   0  0  0  0  0  0  0  0  0  0  0  0
  191.7560  175.5370  145.9270 O   0  0  0  0  0  0  0  0  0  0  0  0
  190.3680  176.4650  147.6170 C   0  0  0  0  0  2  0  0  0  0  0  0
  185.1270  177.6230  142.5230 C   0  0  2  0  0  3  0  0  0  0  0  0
  186.0660  178.7010  139.6570 C   0  0  0  0  0  2  0  0  0  0  0  0
  188.8400  177.6460  143.6450 C   0  0  0  0  0  2  0  0  0  0  0  0
  189.7000  177.6330  147.2340 O   0  0  0  0  0  0  0  0  0  0  0  0
  186.6450  177.8620  142.4530 C   0  0  1  0  0  3  0  0  0  0  0  0
  183.1740  178.9060  142.0360 O   0  0  0  0  0  0  0  0  0  0  0  0
  188.8370  177.2310  146.1990 C   0  0  1  0  0  3  0  0  0  0  0  0
  191.7950  176.3920  147.0500 C   0  0  2  0  0  3  0  0  0  0  0  0
  185.0600  179.3700  140.5890 C   0  0  2  0  0  3  0  0  0  0  0  0
  186.6690  177.6570  145.0160 C   0  0  2  0  0  3  0  0  0  0  0  0
  191.0000  177.6170  144.9420 C   0  0  0  0  0  0  0  0  0  0  0  0
  187.3560  177.2730  143.6750 C   0  0  2  0  0  3  0  0  0  0  0  0
  185.7500  179.3010  147.2620 C   0  0  0  0  0  2  0  0  0  0  0  0
  187.3520  178.3680  140.4040 C   0  0  0  0  0  2  0  0  0  0  0  0
  186.9140  178.3260  147.4150 C   0  0  0  0  0  2  0  0  0  0  0  0
  187.1480  177.2930  141.2770 O   0  0  0  0  0  0  0  0  0  0  0  0
  184.3050  178.3230  141.4320 C   0  0  1  0  0  3  0  0  0  0  0  0
  184.7740  178.7970  146.2020 C   0  0  0  0  0  2  0  0  0  0  0  0
  184.4890  178.0820  143.8180 C   0  0  1  0  0  3  0  0  0  0  0  0
  184.1530  180.1060  139.8210 O   0  0  0  0  0  0  0  0  0  0  0  0
  183.9260  179.3200  138.6850 C   0  0  0  0  0  2  0  0  0  0  0  0
  180.7130  180.3020  139.5740 C   0  0  0  0  0  3  0  0  0  0  0  0
  181.7010  178.4080  138.9500 O   0  0  0  0  0  0  0  0  0  0  0  0
  182.4630  179.3860  138.2650 C   0  0  1  0  0  3  0  0  0  0  0  0
  180.6900  178.9880  139.6920 C   0  0  0  0  0  3  0  0  0  0  0  0
  181.8310  180.7150  138.6770 C   0  0  0  0  0  2  0  0  0  0  0  0
  1 18  1  0  0  0  0
  1 26  1  1  0  0  0
  2 27  1  0  0  0  0
  3 19  1  6  0  0  0
  3  7  1  0  0  0  0
  3 16  1  0  0  0  0
  4 15  1  0  0  0  0
  4 23  1  1  0  0  0
  5 11  1  6  0  0  0
  5 19  1  0  0  0  0
  5 15  1  0  0  0  0
  6 19  2  0  0  0  0
  7 16  1  0  0  0  0
  9 27  1  0  0  0  0
 10 22  1  0  0  0  0
 10 17  1  0  0  0  0
 11 20  1  0  0  0  0
 12  8  1  0  0  0  0
 13  9  1  0  0  0  0
 13 20  1  0  0  0  0
 14  2  1  0  0  0  0
 15 12  1  0  0  0  0
 16  8  1  0  0  0  0
 17 25  1  0  0  0  0
 18  4  1  0  0  0  0
 20 18  1  0  0  0  0
 21 23  1  0  0  0  0
 22 24  1  0  0  0  0
 24 13  1  0  0  0  0
 25 14  1  0  0  0  0
 25  9  1  0  0  0  0
 26 21  1  0  0  0  0
 27  1  1  0  0  0  0
 28 17  1  0  0  0  0
 29 28  1  0  0  0  0
 30 33  2  0  0  0  0
 31 33  1  0  0  0  0
 32 34  1  0  0  0  0
 32 29  1  0  0  0  0
 32 31  1  0  0  0  0
 34 30  1  0  0  0  0
M  END
>  <MODEL>
1

>  <REMARK>
 VINA RESULT:      -8.6      0.000      0.000
  Name = 
  3 active torsions:
  status: ('A' for Active; 'I' for Inactive)
    1  A    between atoms: C_17  and  O_28
    2  A    between atoms: O_28  and  C_29
    3  A    between atoms: C_29  and  C_32
                            x       y       z     vdW  Elec       q    Type
                         _______ _______ _______ _____ _____    ______ ____

>  <TORSDO>
F 3

$$$$
=
 OpenBabel11122412293D

 34 41  0  0  1  0  0  0  0  0999 V2000
  187.6910  177.7010  142.5350 C   0  0  2  0  0  3  0  0  0  0  0  0
  190.0570  177.2930  141.8080 C   0  0  0  0  0  2  0  0  0  0  0  0
  181.0410  178.7030  141.0140 C   0  0  2  0  0  3  0  0  0  0  0  0
  185.2140  177.9640  142.9620 C   0  0  1  0  0  3  0  0  0  0  0  0
  183.6790  178.7460  141.0710 C   0  0  2  0  0  3  0  0  0  0  0  0
  182.3840  176.8850  140.3830 O   0  0  0  0  0  0  0  0  0  0  0  0
  181.1580  180.0860  141.2390 O   0  0  0  0  0  0  0  0  0  0  0  0
  181.9970  179.4480  143.3690 C   0  0  0  0  0  2  0  0  0  0  0  0
  188.6920  178.5680  140.3440 C   0  0  2  0  0  3  0  0  0  0  0  0
  188.8380  177.1890  137.4570 C   0  0  0  0  0  2  0  0  0  0  0  0
  184.8350  178.1830  140.2300 C   0  0  0  0  0  2  0  0  0  0  0  0
  182.8560  178.3440  143.3410 O   0  0  0  0  0  0  0  0  0  0  0  0
  187.3080  178.1460  139.8220 C   0  0  1  0  0  3  0  0  0  0  0  0
  190.8040  177.4950  140.6360 O   0  0  0  0  0  0  0  0  0  0  0  0
  183.9680  178.7720  142.5960 C   0  0  1  0  0  3  0  0  0  0  0  0
  180.8320  179.3120  142.3750 C   0  0  2  0  0  3  0  0  0  0  0  0
  189.5420  176.7100  138.7230 C   0  0  2  0  0  3  0  0  0  0  0  0
  186.4320  178.5260  142.2100 C   0  0  2  0  0  3  0  0  0  0  0  0
  182.3760  178.0460  140.7670 C   0  0  0  0  0  0  0  0  0  0  0  0
  186.1880  178.7300  140.6880 C   0  0  2  0  0  3  0  0  0  0  0  0
  186.7140  177.1620  144.7900 C   0  0  0  0  0  2  0  0  0  0  0  0
  187.3550  177.4180  137.7200 C   0  0  0  0  0  2  0  0  0  0  0  0
  185.4810  178.0010  144.4640 C   0  0  0  0  0  2  0  0  0  0  0  0
  187.1660  178.5680  138.4950 O   0  0  0  0  0  0  0  0  0  0  0  0
  189.8840  177.8960  139.6480 C   0  0  1  0  0  3  0  0  0  0  0  0
  187.9320  177.7030  144.0470 C   0  0  0  0  0  2  0  0  0  0  0  0
  188.9130  178.2790  141.8140 C   0  0  1  0  0  3  0  0  0  0  0  0
  190.7110  176.0360  138.3620 O   0  0  0  0  0  0  0  0  0  0  0  0
  191.1350  176.6590  137.1830 C   0  0  0  0  0  2  0  0  0  0  0  0
  193.4850  174.1390  137.6310 C   0  0  0  0  0  3  0  0  0  0  0  0
  193.5210  176.3560  137.4410 O   0  0  0  0  0  0  0  0  0  0  0  0
  192.4020  176.0030  136.6480 C   0  0  1  0  0  3  0  0  0  0  0  0
  194.1230  175.2380  137.9860 C   0  0  0  0  0  3  0  0  0  0  0  0
  192.3230  174.4810  136.7600 C   0  0  0  0  0  2  0  0  0  0  0  0
  1 26  1  1  0  0  0
  2 27  1  0  0  0  0
  3 19  1  1  0  0  0
  3  7  1  0  0  0  0
  3 16  1  0  0  0  0
  4 23  1  1  0  0  0
  5 11  1  6  0  0  0
  5 15  1  0  0  0  0
  6 19  2  0  0  0  0
  7 16  1  0  0  0  0
  9 27  1  0  0  0  0
 10 22  1  0  0  0  0
 10 17  1  0  0  0  0
 11 20  1  0  0  0  0
 12  8  1  0  0  0  0
 13  9  1  0  0  0  0
 13 20  1  0  0  0  0
 14  2  1  0  0  0  0
 15  4  1  0  0  0  0
 15 12  1  0  0  0  0
 16  8  1  0  0  0  0
 17 25  1  0  0  0  0
 18  1  1  0  0  0  0
 18  4  1  0  0  0  0
 19  5  1  0  0  0  0
 20 18  1  0  0  0  0
 22 24  1  0  0  0  0
 23 21  1  0  0  0  0
 24 13  1  0  0  0  0
 25  9  1  0  0  0  0
 25 14  1  0  0  0  0
 26 21  1  0  0  0  0
 27  1  1  0  0  0  0
 28 17  1  0  0  0  0
 29 28  1  0  0  0  0
 30 33  2  0  0  0  0
 31 33  1  0  0  0  0
 32 34  1  0  0  0  0
 32 29  1  0  0  0  0
 32 31  1  0  0  0  0
 34 30  1  0  0  0  0
M  END
>  <MODEL>
2

>  <REMARK>
 VINA RESULT:      -8.4      3.587      8.050
  Name = 
  3 active torsions:
  status: ('A' for Active; 'I' for Inactive)
    1  A    between atoms: C_17  and  O_28
    2  A    between atoms: O_28  and  C_29
    3  A    between atoms: C_29  and  C_32
                            x       y       z     vdW  Elec       q    Type
                         _______ _______ _______ _____ _____    ______ ____

>  <TORSDO>
F 3

$$$$
=
 OpenBabel11122412293D

 34 41  0  0  1  0  0  0  0  0999 V2000
  182.2680  178.5400  143.5710 C   0  0  2  0  0  3  0  0  0  0  0  0
  183.6620  178.7360  145.6470 C   0  0  0  0  0  2  0  0  0  0  0  0
  181.7620  177.6280  136.7550 C   0  0  2  0  0  3  0  0  0  0  0  0
  181.1320  178.1570  141.3460 C   0  0  1  0  0  3  0  0  0  0  0  0
  182.4770  178.3790  139.1820 C   0  0  2  0  0  3  0  0  0  0  0  0
  182.7930  176.2010  138.3070 O   0  0  0  0  0  0  0  0  0  0  0  0
  181.5550  179.0030  136.5470 O   0  0  0  0  0  0  0  0  0  0  0  0
  179.7750  178.7480  138.1010 C   0  0  0  0  0  2  0  0  0  0  0  0
  184.6390  179.5050  143.6260 C   0  0  2  0  0  3  0  0  0  0  0  0
  187.4690  178.0370  143.3130 C   0  0  0  0  0  2  0  0  0  0  0  0
  183.6300  178.0950  140.1570 C   0  0  0  0  0  2  0  0  0  0  0  0
  180.0740  177.9150  139.1850 O   0  0  0  0  0  0  0  0  0  0  0  0
  184.7420  178.6960  142.3220 C   0  0  1  0  0  3  0  0  0  0  0  0
  184.9970  179.0570  145.9430 O   0  0  0  0  0  0  0  0  0  0  0  0
  181.1030  178.5780  139.8760 C   0  0  1  0  0  3  0  0  0  0  0  0
  180.3880  178.2430  136.7850 C   0  0  2  0  0  3  0  0  0  0  0  0
  186.4720  177.8450  144.4520 C   0  0  2  0  0  3  0  0  0  0  0  0
  182.1960  178.9760  142.0960 C   0  0  2  0  0  3  0  0  0  0  0  0
  182.4010  177.3380  138.0910 C   0  0  0  0  0  0  0  0  0  0  0  0
  183.5760  179.0120  141.3800 C   0  0  2  0  0  3  0  0  0  0  0  0
  179.8370  177.9010  143.4650 C   0  0  0  0  0  2  0  0  0  0  0  0
  186.7800  177.8780  141.9630 C   0  0  0  0  0  2  0  0  0  0  0  0
  179.7720  178.3570  142.0110 C   0  0  0  0  0  2  0  0  0  0  0  0
  185.9610  178.9810  141.6960 O   0  0  0  0  0  0  0  0  0  0  0  0
  185.6650  179.1340  144.7060 C   0  0  1  0  0  3  0  0  0  0  0  0
  180.8930  178.7010  144.2230 C   0  0  0  0  0  2  0  0  0  0  0  0
  183.3030  179.3780  144.3280 C   0  0  1  0  0  3  0  0  0  0  0  0
  187.1720  177.4870  145.6080 O   0  0  0  0  0  0  0  0  0  0  0  0
  188.4240  177.0600  145.1520 C   0  0  0  0  0  2  0  0  0  0  0  0
  191.6830  176.6700  146.2930 C   0  0  0  0  0  3  0  0  0  0  0  0
  189.6740  176.9200  147.2180 O   0  0  0  0  0  0  0  0  0  0  0  0
  189.5410  177.6430  146.0070 C   0  0  1  0  0  3  0  0  0  0  0  0
  190.9390  176.3780  147.3430 C   0  0  0  0  0  3  0  0  0  0  0  0
  190.8980  177.4870  145.3220 C   0  0  0  0  0  2  0  0  0  0  0  0
  1 26  1  1  0  0  0
  1 27  1  0  0  0  0
  2 14  1  0  0  0  0
  3  7  1  1  0  0  0
  3 16  1  0  0  0  0
  3 19  1  0  0  0  0
  4 23  1  1  0  0  0
  4 18  1  0  0  0  0
  5 15  1  0  0  0  0
  5 11  1  1  0  0  0
  7 16  1  0  0  0  0
  8 12  1  0  0  0  0
  9 27  1  0  0  0  0
  9 25  1  0  0  0  0
 10 17  1  0  0  0  0
 11 20  1  0  0  0  0
 12 15  1  0  0  0  0
 13  9  1  0  0  0  0
 15  4  1  0  0  0  0
 16  8  1  0  0  0  0
 17 25  1  0  0  0  0
 17 28  1  0  0  0  0
 18  1  1  0  0  0  0
 19  6  2  0  0  0  0
 19  5  1  0  0  0  0
 20 18  1  0  0  0  0
 20 13  1  0  0  0  0
 21 26  1  0  0  0  0
 22 10  1  0  0  0  0
 23 21  1  0  0  0  0
 24 22  1  0  0  0  0
 24 13  1  0  0  0  0
 25 14  1  0  0  0  0
 27  2  1  0  0  0  0
 29 28  1  0  0  0  0
 29 32  1  0  0  0  0
 30 33  2  0  0  0  0
 31 33  1  0  0  0  0
 32 31  1  0  0  0  0
 34 32  1  0  0  0  0
 34 30  1  0  0  0  0
M  END
>  <MODEL>
3

>  <REMARK>
 VINA RESULT:      -8.3      1.907      8.879
  Name = 
  3 active torsions:
  status: ('A' for Active; 'I' for Inactive)
    1  A    between atoms: C_17  and  O_28
    2  A    between atoms: O_28  and  C_29
    3  A    between atoms: C_29  and  C_32
                            x       y       z     vdW  Elec       q    Type
                         _______ _______ _______ _____ _____    ______ ____

>  <TORSDO>
F 3

$$$$
=
 OpenBabel11122412293D

 34 41  0  0  1  0  0  0  0  0999 V2000
  187.3990  177.7280  138.9930 C   0  0  2  0  0  3  0  0  0  0  0  0
  186.1780  178.4190  141.0720 C   0  0  0  0  0  2  0  0  0  0  0  0
  192.7930  174.7170  135.9290 C   0  0  2  0  0  3  0  0  0  0  0  0
  188.7770  176.7820  137.0970 C   0  0  1  0  0  3  0  0  0  0  0  0
  191.2140  176.1240  137.5080 C   0  0  2  0  0  3  0  0  0  0  0  0
  191.3310  173.7580  137.4950 O   0  0  0  0  0  0  0  0  0  0  0  0
  193.3730  175.9640  135.6390 O   0  0  0  0  0  0  0  0  0  0  0  0
  191.2940  176.4450  134.5940 C   0  0  0  0  0  2  0  0  0  0  0  0
  188.5470  178.3640  141.1910 C   0  0  2  0  0  3  0  0  0  0  0  0
  189.3370  176.5440  143.7050 C   0  0  0  0  0  2  0  0  0  0  0  0
  190.6920  176.0350  138.9500 C   0  0  0  0  0  2  0  0  0  0  0  0
  190.1770  175.9800  135.2960 O   0  0  0  0  0  0  0  0  0  0  0  0
  189.4320  177.1690  140.7980 C   0  0  1  0  0  3  0  0  0  0  0  0
  186.5180  178.6540  142.4150 O   0  0  0  0  0  0  0  0  0  0  0  0
  190.1840  176.7020  136.5020 C   0  0  1  0  0  3  0  0  0  0  0  0
  192.4800  175.4700  134.6630 C   0  0  2  0  0  3  0  0  0  0  0  0
  187.9230  176.8540  143.2240 C   0  0  2  0  0  3  0  0  0  0  0  0
  188.7990  177.6660  138.3560 C   0  0  2  0  0  3  0  0  0  0  0  0
  191.7690  174.8020  137.0350 C   0  0  0  0  0  0  0  0  0  0  0  0
  189.9320  177.3000  139.3560 C   0  0  2  0  0  3  0  0  0  0  0  0
  186.3850  177.3890  136.7160 C   0  0  0  0  0  2  0  0  0  0  0  0
  190.1990  176.0380  142.5550 C   0  0  0  0  0  2  0  0  0  0  0  0
  187.7780  177.3510  136.0930 C   0  0  0  0  0  2  0  0  0  0  0  0
  190.5150  177.0850  141.6810 O   0  0  0  0  0  0  0  0  0  0  0  0
  187.8580  178.2430  142.5580 C   0  0  1  0  0  3  0  0  0  0  0  0
  186.3910  178.2580  137.9700 C   0  0  0  0  0  2  0  0  0  0  0  0
  187.4110  178.6350  140.2270 C   0  0  1  0  0  3  0  0  0  0  0  0
  187.0540  176.8100  144.3170 O   0  0  0  0  0  0  0  0  0  0  0  0
  187.5460  177.7720  145.2060 C   0  0  0  0  0  2  0  0  0  0  0  0
  188.3980  178.4110  148.5140 C   0  0  0  0  0  3  0  0  0  0  0  0
  188.9180  176.8790  146.9860 O   0  0  0  0  0  0  0  0  0  0  0  0
  187.5930  177.2250  146.6270 C   0  0  1  0  0  3  0  0  0  0  0  0
  189.3400  177.5890  148.0940 C   0  0  0  0  0  3  0  0  0  0  0  0
  187.1920  178.2940  147.6420 C   0  0  0  0  0  2  0  0  0  0  0  0
  1 26  1  6  0  0  0
  1 27  1  0  0  0  0
  2 14  1  0  0  0  0
  3  7  1  1  0  0  0
  3 19  1  0  0  0  0
  4 23  1  6  0  0  0
  4 18  1  0  0  0  0
  5 11  1  1  0  0  0
  8 16  1  0  0  0  0
  8 12  1  0  0  0  0
  9 25  1  0  0  0  0
 11 20  1  0  0  0  0
 12 15  1  0  0  0  0
 13  9  1  0  0  0  0
 13 24  1  0  0  0  0
 14 25  1  0  0  0  0
 15  4  1  0  0  0  0
 15  5  1  0  0  0  0
 16  7  1  0  0  0  0
 16  3  1  0  0  0  0
 17 10  1  0  0  0  0
 17 28  1  0  0  0  0
 18  1  1  0  0  0  0
 18 20  1  0  0  0  0
 19  6  2  0  0  0  0
 19  5  1  0  0  0  0
 20 13  1  0  0  0  0
 21 26  1  0  0  0  0
 22 10  1  0  0  0  0
 23 21  1  0  0  0  0
 24 22  1  0  0  0  0
 25 17  1  0  0  0  0
 27  2  1  0  0  0  0
 27  9  1  0  0  0  0
 28 29  1  0  0  0  0
 29 32  1  0  0  0  0
 31 33  1  0  0  0  0
 32 31  1  0  0  0  0
 32 34  1  0  0  0  0
 33 30  2  0  0  0  0
 34 30  1  0  0  0  0
M  END
>  <MODEL>
4

>  <REMARK>
 VINA RESULT:      -8.2      4.134      8.417
  Name = 
  3 active torsions:
  status: ('A' for Active; 'I' for Inactive)
    1  A    between atoms: C_17  and  O_28
    2  A    between atoms: O_28  and  C_29
    3  A    between atoms: C_29  and  C_32
                            x       y       z     vdW  Elec       q    Type
                         _______ _______ _______ _____ _____    ______ ____

>  <TORSDO>
F 3

$$$$
=
 OpenBabel11122412293D

 34 41  0  0  1  0  0  0  0  0999 V2000
  189.3270  176.8840  141.0180 C   0  0  2  0  0  3  0  0  0  0  0  0
  190.8320  176.4250  139.0640 C   0  0  0  0  0  2  0  0  0  0  0  0
  183.3460  179.1790  143.5680 C   0  0  2  0  0  3  0  0  0  0  0  0
  187.5460  177.3190  142.7570 C   0  0  1  0  0  3  0  0  0  0  0  0
  185.5790  178.8560  142.1990 C   0  0  2  0  0  3  0  0  0  0  0  0
  183.6530  177.4990  141.9580 O   0  0  0  0  0  0  0  0  0  0  0  0
  183.9370  180.3900  143.9680 O   0  0  0  0  0  0  0  0  0  0  0  0
  185.4800  179.0030  145.1270 C   0  0  0  0  0  2  0  0  0  0  0  0
  189.3490  178.2670  138.8620 C   0  0  2  0  0  3  0  0  0  0  0  0
  187.6990  177.8730  136.1450 C   0  0  0  0  0  2  0  0  0  0  0  0
  185.9790  178.4460  140.7730 C   0  0  0  0  0  2  0  0  0  0  0  0
  185.8730  177.8630  144.4160 O   0  0  0  0  0  0  0  0  0  0  0  0
  187.8300  178.2180  139.0980 C   0  0  1  0  0  3  0  0  0  0  0  0
  190.9460  176.8900  137.7430 O   0  0  0  0  0  0  0  0  0  0  0  0
  186.5590  178.3580  143.2940 C   0  0  1  0  0  3  0  0  0  0  0  0
  183.9970  179.3440  144.9160 C   0  0  2  0  0  3  0  0  0  0  0  0
  188.7590  176.9290  136.7030 C   0  0  2  0  0  3  0  0  0  0  0  0
  188.3550  177.9270  141.5980 C   0  0  2  0  0  3  0  0  0  0  0  0
  184.1540  178.4670  142.5110 C   0  0  0  0  0  0  0  0  0  0  0  0
  187.4770  178.6360  140.5280 C   0  0  2  0  0  3  0  0  0  0  0  0
  189.4470  175.7870  143.2780 C   0  0  0  0  0  2  0  0  0  0  0  0
  186.6560  178.1990  137.2070 C   0  0  0  0  0  2  0  0  0  0  0  0
  188.5000  176.8390  143.8480 C   0  0  0  0  0  2  0  0  0  0  0  0
  187.1920  179.0560  138.1760 O   0  0  0  0  0  0  0  0  0  0  0  0
  189.8190  177.7010  137.5140 C   0  0  1  0  0  3  0  0  0  0  0  0
  190.2540  176.3730  142.1230 C   0  0  0  0  0  2  0  0  0  0  0  0
  190.1580  177.4970  139.8860 C   0  0  1  0  0  3  0  0  0  0  0  0
  189.3700  176.2580  135.6410 O   0  0  0  0  0  0  0  0  0  0  0  0
  188.6020  175.1020  135.4570 C   0  0  0  0  0  2  0  0  0  0  0  0
  187.5550  172.2080  137.0720 C   0  0  0  0  0  3  0  0  0  0  0  0
  186.8780  174.3250  136.9650 O   0  0  0  0  0  0  0  0  0  0  0  0
  188.2790  174.4480  136.7950 C   0  0  1  0  0  3  0  0  0  0  0  0
  186.5060  173.0050  137.1310 C   0  0  0  0  0  3  0  0  0  0  0  0
  188.7930  173.0100  136.8440 C   0  0  0  0  0  2  0  0  0  0  0  0
  1 18  1  0  0  0  0
  1 26  1  1  0  0  0
  2 27  1  0  0  0  0
  3 19  1  6  0  0  0
  3  7  1  0  0  0  0
  3 16  1  0  0  0  0
  4 15  1  0  0  0  0
  4 23  1  1  0  0  0
  5 11  1  6  0  0  0
  5 19  1  0  0  0  0
  5 15  1  0  0  0  0
  6 19  2  0  0  0  0
  7 16  1  0  0  0  0
  9 13  1  0  0  0  0
  9 27  1  0  0  0  0
 10 17  1  0  0  0  0
 10 22  1  0  0  0  0
 12  8  1  0  0  0  0
 13 20  1  0  0  0  0
 14  2  1  0  0  0  0
 15 12  1  0  0  0  0
 16  8  1  0  0  0  0
 17 25  1  0  0  0  0
 18  4  1  0  0  0  0
 20 11  1  0  0  0  0
 20 18  1  0  0  0  0
 21 23  1  0  0  0  0
 22 24  1  0  0  0  0
 24 13  1  0  0  0  0
 25 14  1  0  0  0  0
 25  9  1  0  0  0  0
 26 21  1  0  0  0  0
 27  1  1  0  0  0  0
 28 17  1  0  0  0  0
 29 28  1  0  0  0  0
 29 32  1  0  0  0  0
 30 33  2  0  0  0  0
 31 33  1  0  0  0  0
 32 34  1  0  0  0  0
 32 31  1  0  0  0  0
 34 30  1  0  0  0  0
M  END
>  <MODEL>
5

>  <REMARK>
 VINA RESULT:      -8.2      3.605      6.787
  Name = 
  3 active torsions:
  status: ('A' for Active; 'I' for Inactive)
    1  A    between atoms: C_17  and  O_28
    2  A    between atoms: O_28  and  C_29
    3  A    between atoms: C_29  and  C_32
                            x       y       z     vdW  Elec       q    Type
                         _______ _______ _______ _____ _____    ______ ____

>  <TORSDO>
F 3

$$$$
=
 OpenBabel11122412293D

 34 41  0  0  1  0  0  0  0  0999 V2000
  189.3750  176.8540  140.9480 C   0  0  2  0  0  3  0  0  0  0  0  0
  190.8950  176.4470  138.9950 C   0  0  0  0  0  2  0  0  0  0  0  0
  183.3520  179.0280  143.5060 C   0  0  2  0  0  3  0  0  0  0  0  0
  187.5800  177.2370  142.6850 C   0  0  1  0  0  3  0  0  0  0  0  0
  185.5960  178.7580  142.1430 C   0  0  2  0  0  3  0  0  0  0  0  0
  183.6890  177.3800  141.8700 O   0  0  0  0  0  0  0  0  0  0  0  0
  183.9260  180.2400  143.9300 O   0  0  0  0  0  0  0  0  0  0  0  0
  185.4810  178.8530  145.0730 C   0  0  0  0  0  2  0  0  0  0  0  0
  189.3900  178.2730  138.8160 C   0  0  2  0  0  3  0  0  0  0  0  0
  187.7590  177.9050  136.0850 C   0  0  0  0  0  2  0  0  0  0  0  0
  186.0090  178.3760  140.7130 C   0  0  0  0  0  2  0  0  0  0  0  0
  185.8920  177.7310  144.3450 O   0  0  0  0  0  0  0  0  0  0  0  0
  187.8700  178.2010  139.0440 C   0  0  1  0  0  3  0  0  0  0  0  0
  191.0100  176.9360  137.6830 O   0  0  0  0  0  0  0  0  0  0  0  0
  186.5770  178.2530  143.2350 C   0  0  1  0  0  3  0  0  0  0  0  0
  183.9940  179.1790  144.8600 C   0  0  2  0  0  3  0  0  0  0  0  0
  188.8280  176.9640  136.6320 C   0  0  2  0  0  3  0  0  0  0  0  0
  188.3860  177.8740  141.5420 C   0  0  2  0  0  3  0  0  0  0  0  0
  184.1750  178.3440  142.4420 C   0  0  0  0  0  0  0  0  0  0  0  0
  187.5050  178.5900  140.4790 C   0  0  2  0  0  3  0  0  0  0  0  0
  189.4980  175.7210  143.1910 C   0  0  0  0  0  2  0  0  0  0  0  0
  186.7060  178.1990  137.1470 C   0  0  0  0  0  2  0  0  0  0  0  0
  188.5340  176.7500  143.7730 C   0  0  0  0  0  2  0  0  0  0  0  0
  187.2260  179.0460  138.1330 O   0  0  0  0  0  0  0  0  0  0  0  0
  189.8730  177.7370  137.4610 C   0  0  1  0  0  3  0  0  0  0  0  0
  190.3030  176.3360  142.0490 C   0  0  0  0  0  2  0  0  0  0  0  0
  190.2040  177.4970  139.8310 C   0  0  1  0  0  3  0  0  0  0  0  0
  189.4530  176.3190  135.5620 O   0  0  0  0  0  0  0  0  0  0  0  0
  189.0400  174.9850  135.6560 C   0  0  0  0  0  2  0  0  0  0  0  0
  192.1760  173.8260  136.6040 C   0  0  0  0  0  3  0  0  0  0  0  0
  191.2840  174.7500  134.7860 O   0  0  0  0  0  0  0  0  0  0  0  0
  190.1880  174.0380  135.3310 C   0  0  1  0  0  3  0  0  0  0  0  0
  192.4200  174.5900  135.5570 C   0  0  0  0  0  3  0  0  0  0  0  0
  190.7470  173.3950  136.6000 C   0  0  0  0  0  2  0  0  0  0  0  0
  1 18  1  0  0  0  0
  1 26  1  1  0  0  0
  2 27  1  0  0  0  0
  3 19  1  6  0  0  0
  3  7  1  0  0  0  0
  3 16  1  0  0  0  0
  4 15  1  0  0  0  0
  4 23  1  1  0  0  0
  5 11  1  6  0  0  0
  5 19  1  0  0  0  0
  5 15  1  0  0  0  0
  6 19  2  0  0  0  0
  7 16  1  0  0  0  0
  9 13  1  0  0  0  0
  9 27  1  0  0  0  0
 10 17  1  0  0  0  0
 10 22  1  0  0  0  0
 12  8  1  0  0  0  0
 13 20  1  0  0  0  0
 14  2  1  0  0  0  0
 15 12  1  0  0  0  0
 16  8  1  0  0  0  0
 17 25  1  0  0  0  0
 18  4  1  0  0  0  0
 20 11  1  0  0  0  0
 20 18  1  0  0  0  0
 21 23  1  0  0  0  0
 22 24  1  0  0  0  0
 24 13  1  0  0  0  0
 25 14  1  0  0  0  0
 25  9  1  0  0  0  0
 26 21  1  0  0  0  0
 27  1  1  0  0  0  0
 28 29  1  0  0  0  0
 28 17  1  0  0  0  0
 31 32  1  0  0  0  0
 31 33  1  0  0  0  0
 32 29  1  0  0  0  0
 32 34  1  0  0  0  0
 33 30  2  0  0  0  0
 34 30  1  0  0  0  0
M  END
>  <MODEL>
6

>  <REMARK>
 VINA RESULT:      -8.1      4.021      7.440
  Name = 
  3 active torsions:
  status: ('A' for Active; 'I' for Inactive)
    1  A    between atoms: C_17  and  O_28
    2  A    between atoms: O_28  and  C_29
    3  A    between atoms: C_29  and  C_32
                            x       y       z     vdW  Elec       q    Type
                         _______ _______ _______ _____ _____    ______ ____

>  <TORSDO>
F 3

$$$$
=
 OpenBabel11122412293D

 34 41  0  0  1  0  0  0  0  0999 V2000
  187.2050  177.8520  143.1950 C   0  0  2  0  0  3  0  0  0  0  0  0
  189.6170  177.3720  142.7020 C   0  0  0  0  0  2  0  0  0  0  0  0
  180.7520  178.9680  141.0380 C   0  0  2  0  0  3  0  0  0  0  0  0
  184.7070  178.1840  143.3830 C   0  0  1  0  0  3  0  0  0  0  0  0
  183.3740  178.9520  141.3400 C   0  0  2  0  0  3  0  0  0  0  0  0
  182.1020  177.1050  140.5770 O   0  0  0  0  0  0  0  0  0  0  0  0
  180.8820  180.3530  141.2410 O   0  0  0  0  0  0  0  0  0  0  0  0
  181.5040  179.7510  143.4540 C   0  0  0  0  0  2  0  0  0  0  0  0
  188.4270  178.6400  141.0870 C   0  0  2  0  0  3  0  0  0  0  0  0
  188.8040  177.1840  138.2600 C   0  0  0  0  0  2  0  0  0  0  0  0
  184.5880  178.3410  140.6230 C   0  0  0  0  0  2  0  0  0  0  0  0
  182.3340  178.6280  143.5320 O   0  0  0  0  0  0  0  0  0  0  0  0
  187.0860  178.2370  140.4490 C   0  0  1  0  0  3  0  0  0  0  0  0
  190.4750  177.5260  141.6000 O   0  0  0  0  0  0  0  0  0  0  0  0
  183.5210  179.0110  142.8840 C   0  0  1  0  0  3  0  0  0  0  0  0
  180.4340  179.6170  142.3590 C   0  0  2  0  0  3  0  0  0  0  0  0
  189.3750  176.7220  139.5970 C   0  0  2  0  0  3  0  0  0  0  0  0
  186.0030  178.6970  142.7350 C   0  0  2  0  0  3  0  0  0  0  0  0
  182.0870  178.2740  140.9320 C   0  0  0  0  0  0  0  0  0  0  0  0
  185.9060  178.8680  141.1930 C   0  0  2  0  0  3  0  0  0  0  0  0
  186.0100  177.3940  145.3610 C   0  0  0  0  0  2  0  0  0  0  0  0
  187.3090  177.4540  138.3780 C   0  0  0  0  0  2  0  0  0  0  0  0
  184.8340  178.2520  144.9030 C   0  0  0  0  0  2  0  0  0  0  0  0
  187.0780  178.6280  139.1050 O   0  0  0  0  0  0  0  0  0  0  0  0
  189.6610  177.9220  140.5210 C   0  0  1  0  0  3  0  0  0  0  0  0
  187.3050  177.8880  144.7220 C   0  0  0  0  0  2  0  0  0  0  0  0
  188.5030  178.3830  142.5780 C   0  0  1  0  0  3  0  0  0  0  0  0
  190.5560  176.0120  139.3620 O   0  0  0  0  0  0  0  0  0  0  0  0
  191.0200  176.4850  138.1300 C   0  0  0  0  0  2  0  0  0  0  0  0
  190.5770  174.3620  135.4150 C   0  0  0  0  0  3  0  0  0  0  0  0
  190.9640  174.1270  137.5940 O   0  0  0  0  0  0  0  0  0  0  0  0
  191.6130  175.3510  137.3020 C   0  0  1  0  0  3  0  0  0  0  0  0
  190.3820  173.5850  136.4630 C   0  0  0  0  0  3  0  0  0  0  0  0
  191.3610  175.5680  135.8110 C   0  0  0  0  0  2  0  0  0  0  0  0
  1 26  1  1  0  0  0
  3 19  1  1  0  0  0
  3  7  1  0  0  0  0
  3 16  1  0  0  0  0
  4 23  1  1  0  0  0
  5 11  1  6  0  0  0
  5 15  1  0  0  0  0
  6 19  2  0  0  0  0
  7 16  1  0  0  0  0
  8 12  1  0  0  0  0
  9 27  1  0  0  0  0
 10 22  1  0  0  0  0
 10 17  1  0  0  0  0
 11 20  1  0  0  0  0
 13  9  1  0  0  0  0
 13 20  1  0  0  0  0
 14  2  1  0  0  0  0
 15  4  1  0  0  0  0
 15 12  1  0  0  0  0
 16  8  1  0  0  0  0
 17 25  1  0  0  0  0
 18  1  1  0  0  0  0
 18  4  1  0  0  0  0
 19  5  1  0  0  0  0
 20 18  1  0  0  0  0
 22 24  1  0  0  0  0
 23 21  1  0  0  0  0
 24 13  1  0  0  0  0
 25  9  1  0  0  0  0
 25 14  1  0  0  0  0
 26 21  1  0  0  0  0
 27  2  1  0  0  0  0
 27  1  1  0  0  0  0
 28 17  1  0  0  0  0
 29 28  1  0  0  0  0
 30 34  1  0  0  0  0
 30 33  2  0  0  0  0
 32 31  1  0  0  0  0
 32 29  1  0  0  0  0
 33 31  1  0  0  0  0
 34 32  1  0  0  0  0
M  END
>  <MODEL>
7

>  <REMARK>
 VINA RESULT:      -8.0      3.193      7.648
  Name = 
  3 active torsions:
  status: ('A' for Active; 'I' for Inactive)
    1  A    between atoms: C_17  and  O_28
    2  A    between atoms: O_28  and  C_29
    3  A    between atoms: C_29  and  C_32
                            x       y       z     vdW  Elec       q    Type
                         _______ _______ _______ _____ _____    ______ ____

>  <TORSDO>
F 3

$$$$
=
 OpenBabel11122412293D

 34 41  0  0  1  0  0  0  0  0999 V2000
  183.5700  178.9890  143.5130 C   0  0  2  0  0  3  0  0  0  0  0  0
  181.2980  179.6260  142.6600 C   0  0  0  0  0  2  0  0  0  0  0  0
  190.1870  177.4330  142.3600 C   0  0  2  0  0  3  0  0  0  0  0  0
  185.9820  178.4920  144.0780 C   0  0  1  0  0  3  0  0  0  0  0  0
  187.5570  177.6260  142.2580 C   0  0  2  0  0  3  0  0  0  0  0  0
  189.0510  179.3800  141.7070 O   0  0  0  0  0  0  0  0  0  0  0  0
  189.9350  176.0610  142.5330 O   0  0  0  0  0  0  0  0  0  0  0  0
  189.0240  176.7150  144.6290 C   0  0  0  0  0  2  0  0  0  0  0  0
  182.6340  178.2730  141.2390 C   0  0  2  0  0  3  0  0  0  0  0  0
  182.7900  179.7360  138.3940 C   0  0  0  0  0  2  0  0  0  0  0  0
  186.5100  178.3120  141.3670 C   0  0  0  0  0  2  0  0  0  0  0  0
  188.2700  177.8920  144.5840 O   0  0  0  0  0  0  0  0  0  0  0  0
  184.0800  178.5820  140.8150 C   0  0  1  0  0  3  0  0  0  0  0  0
  180.6100  179.5240  141.4390 O   0  0  0  0  0  0  0  0  0  0  0  0
  187.1720  177.5850  143.7610 C   0  0  1  0  0  3  0  0  0  0  0  0
  190.2560  176.7720  143.7110 C   0  0  2  0  0  3  0  0  0  0  0  0
  182.0540  180.2420  139.6310 C   0  0  2  0  0  3  0  0  0  0  0  0
  184.7680  178.0630  143.2370 C   0  0  2  0  0  3  0  0  0  0  0  0
  188.9330  178.2140  142.0540 C   0  0  0  0  0  0  0  0  0  0  0  0
  185.0880  177.8770  141.7270 C   0  0  2  0  0  3  0  0  0  0  0  0
  184.4480  179.3770  145.8380 C   0  0  0  0  0  2  0  0  0  0  0  0
  184.2280  179.3670  138.7370 C   0  0  0  0  0  2  0  0  0  0  0  0
  185.6200  178.4400  145.5600 C   0  0  0  0  0  2  0  0  0  0  0  0
  184.2660  178.1850  139.4860 O   0  0  0  0  0  0  0  0  0  0  0  0
  181.5510  179.0690  140.4950 C   0  0  1  0  0  3  0  0  0  0  0  0
  183.2350  178.9680  145.0060 C   0  0  0  0  0  2  0  0  0  0  0  0
  182.3480  178.5420  142.7020 C   0  0  1  0  0  3  0  0  0  0  0  0
  180.9730  181.0280  139.2230 O   0  0  0  0  0  0  0  0  0  0  0  0
  181.5310  181.9920  138.3750 C   0  0  0  0  0  2  0  0  0  0  0  0
  180.8040  183.5480  135.3540 C   0  0  0  0  0  3  0  0  0  0  0  0
  180.6120  184.0570  137.5120 O   0  0  0  0  0  0  0  0  0  0  0  0
  180.4550  182.6490  137.5190 C   0  0  1  0  0  3  0  0  0  0  0  0
  180.8040  184.5350  136.2300 C   0  0  0  0  0  3  0  0  0  0  0  0
  180.5960  182.2450  136.0520 C   0  0  0  0  0  2  0  0  0  0  0  0
  1 26  1  1  0  0  0
  2 27  1  0  0  0  0
  3 19  1  1  0  0  0
  3  7  1  0  0  0  0
  3 16  1  0  0  0  0
  4 23  1  1  0  0  0
  5 11  1  6  0  0  0
  5 15  1  0  0  0  0
  6 19  2  0  0  0  0
  7 16  1  0  0  0  0
  9 27  1  0  0  0  0
 10 22  1  0  0  0  0
 10 17  1  0  0  0  0
 11 20  1  0  0  0  0
 12  8  1  0  0  0  0
 13  9  1  0  0  0  0
 13 20  1  0  0  0  0
 14  2  1  0  0  0  0
 15  4  1  0  0  0  0
 15 12  1  0  0  0  0
 16  8  1  0  0  0  0
 17 25  1  0  0  0  0
 18  1  1  0  0  0  0
 18  4  1  0  0  0  0
 19  5  1  0  0  0  0
 20 18  1  0  0  0  0
 22 24  1  0  0  0  0
 23 21  1  0  0  0  0
 24 13  1  0  0  0  0
 25  9  1  0  0  0  0
 25 14  1  0  0  0  0
 26 21  1  0  0  0  0
 27  1  1  0  0  0  0
 28 17  1  0  0  0  0
 29 28  1  0  0  0  0
 30 34  1  0  0  0  0
 30 33  2  0  0  0  0
 31 32  1  0  0  0  0
 32 29  1  0  0  0  0
 33 31  1  0  0  0  0
 34 32  1  0  0  0  0
M  END
>  <MODEL>
8

>  <REMARK>
 VINA RESULT:      -7.9      2.255      3.493
  Name = 
  3 active torsions:
  status: ('A' for Active; 'I' for Inactive)
    1  A    between atoms: C_17  and  O_28
    2  A    between atoms: O_28  and  C_29
    3  A    between atoms: C_29  and  C_32
                            x       y       z     vdW  Elec       q    Type
                         _______ _______ _______ _____ _____    ______ ____

>  <TORSDO>
F 3

$$$$
=
 OpenBabel11122412293D

 34 41  0  0  1  0  0  0  0  0999 V2000
  189.7580  177.0540  137.8010 C   0  0  2  0  0  3  0  0  0  0  0  0
  188.6710  177.1870  135.5440 C   0  0  0  0  0  2  0  0  0  0  0  0
  189.3490  177.3460  144.6780 C   0  0  2  0  0  3  0  0  0  0  0  0
  190.5340  176.8340  140.1960 C   0  0  1  0  0  3  0  0  0  0  0  0
  189.0930  177.7770  142.0860 C   0  0  2  0  0  3  0  0  0  0  0  0
  188.1340  175.9450  143.2410 O   0  0  0  0  0  0  0  0  0  0  0  0
  189.8890  178.6440  144.6940 O   0  0  0  0  0  0  0  0  0  0  0  0
  191.6800  177.6790  143.4660 C   0  0  0  0  0  2  0  0  0  0  0  0
  187.7400  178.5350  137.2610 C   0  0  2  0  0  3  0  0  0  0  0  0
  184.6080  177.8800  137.3990 C   0  0  0  0  0  2  0  0  0  0  0  0
  188.0060  177.6020  141.0160 C   0  0  0  0  0  2  0  0  0  0  0  0
  191.2790  176.7540  142.4960 O   0  0  0  0  0  0  0  0  0  0  0  0
  187.3040  178.0350  138.6490 C   0  0  1  0  0  3  0  0  0  0  0  0
  187.5020  177.7580  135.0160 O   0  0  0  0  0  0  0  0  0  0  0  0
  190.5310  177.5040  141.5710 C   0  0  1  0  0  3  0  0  0  0  0  0
  190.8330  177.5940  144.7450 C   0  0  2  0  0  3  0  0  0  0  0  0
  185.6240  177.2420  136.4560 C   0  0  2  0  0  3  0  0  0  0  0  0
  189.8000  177.7290  139.1840 C   0  0  2  0  0  3  0  0  0  0  0  0
  188.7880  176.9730  143.3280 C   0  0  0  0  0  0  0  0  0  0  0  0
  188.4160  178.2310  139.6840 C   0  0  2  0  0  3  0  0  0  0  0  0
  191.9150  175.8790  138.3470 C   0  0  0  0  0  2  0  0  0  0  0  0
  185.0980  177.8150  138.8400 C   0  0  0  0  0  2  0  0  0  0  0  0
  191.9560  176.5710  139.7060 C   0  0  0  0  0  2  0  0  0  0  0  0
  186.1480  178.7180  139.0430 O   0  0  0  0  0  0  0  0  0  0  0  0
  186.7610  178.2260  136.1190 C   0  0  1  0  0  3  0  0  0  0  0  0
  191.1840  176.7530  137.3310 C   0  0  0  0  0  2  0  0  0  0  0  0
  189.0570  177.9590  136.7830 C   0  0  1  0  0  3  0  0  0  0  0  0
  184.9700  176.8520  135.2840 O   0  0  0  0  0  0  0  0  0  0  0  0
  184.4510  175.5840  135.5680 C   0  0  0  0  0  2  0  0  0  0  0  0
  185.4760  172.3830  136.4530 C   0  0  0  0  0  3  0  0  0  0  0  0
  184.8580  174.2300  137.5300 O   0  0  0  0  0  0  0  0  0  0  0  0
  185.4540  174.7510  136.3560 C   0  0  1  0  0  3  0  0  0  0  0  0
  184.9010  172.8480  137.5450 C   0  0  0  0  0  3  0  0  0  0  0  0
  185.8830  173.5140  135.5680 C   0  0  0  0  0  2  0  0  0  0  0  0
  1 26  1  6  0  0  0
  1 18  1  0  0  0  0
  2 27  1  0  0  0  0
  3 19  1  6  0  0  0
  3  7  1  0  0  0  0
  3 16  1  0  0  0  0
  4 23  1  6  0  0  0
  4 15  1  0  0  0  0
  5 11  1  6  0  0  0
  5 19  1  0  0  0  0
  6 19  2  0  0  0  0
  7 16  1  0  0  0  0
  8 16  1  0  0  0  0
  9 13  1  0  0  0  0
 10 22  1  0  0  0  0
 12  8  1  0  0  0  0
 13 24  1  0  0  0  0
 13 20  1  0  0  0  0
 14  2  1  0  0  0  0
 14 25  1  0  0  0  0
 15  5  1  0  0  0  0
 15 12  1  0  0  0  0
 17 10  1  0  0  0  0
 18 20  1  0  0  0  0
 18  4  1  0  0  0  0
 20 11  1  0  0  0  0
 21 23  1  0  0  0  0
 22 24  1  0  0  0  0
 25 17  1  0  0  0  0
 25  9  1  0  0  0  0
 26 21  1  0  0  0  0
 27  9  1  0  0  0  0
 27  1  1  0  0  0  0
 28 29  1  0  0  0  0
 28 17  1  0  0  0  0
 29 32  1  0  0  0  0
 30 33  2  0  0  0  0
 31 33  1  0  0  0  0
 32 31  1  0  0  0  0
 34 32  1  0  0  0  0
 34 30  1  0  0  0  0
M  END
>  <MODEL>
9

>  <REMARK>
 VINA RESULT:      -7.8      3.920      6.363
  Name = 
  3 active torsions:
  status: ('A' for Active; 'I' for Inactive)
    1  A    between atoms: C_17  and  O_28
    2  A    between atoms: O_28  and  C_29
    3  A    between atoms: C_29  and  C_32
                            x       y       z     vdW  Elec       q    Type
                         _______ _______ _______ _____ _____    ______ ____

>  <TORSDO>
F 3

$$$$
