=
 OpenBabel11122411593D

 28 32  0  0  1  0  0  0  0  0999 V2000
  190.3770  176.7460  139.2220 C   0  0  1  0  0  3  0  0  0  0  0  0
  189.6010  175.3970  143.0460 F   0  0  0  0  0  0  0  0  0  0  0  0
  185.6980  179.7260  140.4470 O   0  0  0  0  0  0  0  0  0  0  0  0
  193.0280  177.5640  139.8690 C   0  0  0  0  0  3  0  0  0  0  0  0
  186.3340  178.5160  142.4400 C   0  0  2  0  0  3  0  0  0  0  0  0
  189.2990  175.7700  139.1260 N   0  0  0  0  0  2  0  0  0  0  0  0
  191.7980  176.1580  143.4450 C   0  0  0  0  0  1  0  0  0  0  0  0
  190.3180  176.4210  143.6410 C   0  0  1  0  0  0  0  0  0  0  0  0
  188.9710  177.1170  145.6550 C   0  0  0  0  0  0  0  0  0  0  0  0
  189.9230  177.8020  143.0340 C   0  0  2  0  0  3  0  0  0  0  0  0
  186.4290  177.2050  137.1400 C   0  0  0  0  0  1  0  0  0  0  0  0
  188.2340  177.3920  141.2950 C   0  0  1  0  0  3  0  0  0  0  0  0
  188.3050  177.9840  144.9590 N   0  0  0  0  0  0  0  0  0  0  0  0
  190.0560  176.4000  145.0730 N   0  0  0  0  0  2  0  0  0  0  0  0
  187.2890  176.9610  138.3620 C   0  0  2  0  0  3  0  0  0  0  0  0
  190.7550  177.0120  140.6980 C   0  0  1  0  0  3  0  0  0  0  0  0
  186.4730  178.9180  141.0260 C   0  0  0  0  0  0  0  0  0  0  0  0
  188.6540  176.9300  147.0950 C   0  0  0  0  0  1  0  0  0  0  0  0
  187.7370  178.2980  138.9320 C   0  0  0  0  0  2  0  0  0  0  0  0
  192.0660  177.7580  140.7740 C   0  0  0  0  0  3  0  0  0  0  0  0
  191.5650  176.2530  138.4330 C   0  0  0  0  0  3  0  0  0  0  0  0
  192.7990  176.6720  138.7210 C   0  0  0  0  0  3  0  0  0  0  0  0
  188.4950  176.1210  137.9600 C   0  0  0  0  0  2  0  0  0  0  0  0
  187.5310  177.5850  142.6550 C   0  0  1  0  0  3  0  0  0  0  0  0
  187.5710  178.3070  140.3790 N   0  0  0  0  0  0  0  0  0  0  0  0
  188.5550  178.2610  143.5440 C   0  0  2  0  0  3  0  0  0  0  0  0
  185.0510  177.7290  142.6290 C   0  0  0  0  0  1  0  0  0  0  0  0
  189.6990  177.7950  141.5080 C   0  0  2  0  0  3  0  0  0  0  0  0
  1 21  1  6  0  0  0
  1 16  1  0  0  0  0
  2  8  1  0  0  0  0
  3 17  2  0  0  0  0
  4 20  2  0  0  0  0
  5 27  1  6  0  0  0
  5 24  1  0  0  0  0
  6  1  1  0  0  0  0
  8  7  1  6  0  0  0
  8 14  1  0  0  0  0
  9 18  1  0  0  0  0
 10 26  1  0  0  0  0
 10  8  1  0  0  0  0
 11 15  1  0  0  0  0
 12 28  1  0  0  0  0
 12 24  1  0  0  0  0
 13  9  2  0  0  0  0
 14  9  1  0  0  0  0
 15 19  1  0  0  0  0
 16 20  1  0  0  0  0
 16 28  1  0  0  0  0
 17  5  1  0  0  0  0
 19 25  1  0  0  0  0
 21 22  2  0  0  0  0
 22  4  1  0  0  0  0
 23 15  1  0  0  0  0
 23  6  1  0  0  0  0
 24 26  1  0  0  0  0
 25 17  1  0  0  0  0
 25 12  1  0  0  0  0
 26 13  1  0  0  0  0
 28 10  1  0  0  0  0
M  END
>  <MODEL>
1

>  <REMARK>
 VINA RESULT:      -7.8      0.000      0.000
  Name = 
  0 active torsions:
  status: ('A' for Active; 'I' for Inactive)
                            x       y       z     vdW  Elec       q    Type
                         _______ _______ _______ _____ _____    ______ ____

>  <TORSDO>
F 0

$$$$
=
 OpenBabel11122411593D

 28 32  0  0  1  0  0  0  0  0999 V2000
  186.6500  177.8630  144.0280 C   0  0  1  0  0  3  0  0  0  0  0  0
  183.7030  177.0050  141.2670 F   0  0  0  0  0  0  0  0  0  0  0  0
  189.4540  178.8180  139.1810 O   0  0  0  0  0  0  0  0  0  0  0  0
  185.0540  179.7980  145.3790 C   0  0  0  0  0  3  0  0  0  0  0  0
  187.1540  178.3450  138.6110 C   0  0  2  0  0  3  0  0  0  0  0  0
  186.9210  176.5290  143.5070 N   0  0  0  0  0  2  0  0  0  0  0  0
  182.5140  178.6580  142.4580 C   0  0  0  0  0  1  0  0  0  0  0  0
  183.2760  178.3200  141.1920 C   0  0  1  0  0  0  0  0  0  0  0  0
  182.7870  178.7400  138.7540 C   0  0  0  0  0  0  0  0  0  0  0  0
  184.4840  179.2870  141.0050 C   0  0  2  0  0  3  0  0  0  0  0  0
  190.5170  176.2860  142.3880 C   0  0  0  0  0  1  0  0  0  0  0  0
  186.5290  177.9210  140.9810 C   0  0  1  0  0  3  0  0  0  0  0  0
  184.0060  179.1200  138.5350 N   0  0  0  0  0  0  0  0  0  0  0  0
  182.3470  178.4430  140.0770 N   0  0  0  0  0  2  0  0  0  0  0  0
  189.0480  176.6350  142.2790 C   0  0  2  0  0  3  0  0  0  0  0  0
  185.4550  178.5140  143.2930 C   0  0  1  0  0  3  0  0  0  0  0  0
  188.2860  178.5150  139.5440 C   0  0  0  0  0  0  0  0  0  0  0  0
  181.8170  178.6940  137.6300 C   0  0  0  0  0  1  0  0  0  0  0  0
  188.9090  178.1150  141.9560 C   0  0  0  0  0  2  0  0  0  0  0  0
  184.9810  179.7340  144.0480 C   0  0  0  0  0  3  0  0  0  0  0  0
  186.3960  177.7730  145.5130 C   0  0  0  0  0  3  0  0  0  0  0  0
  185.6780  178.7060  146.1420 C   0  0  0  0  0  3  0  0  0  0  0  0
  188.3600  176.3100  143.5990 C   0  0  0  0  0  2  0  0  0  0  0  0
  185.9780  178.0420  139.5450 C   0  0  1  0  0  3  0  0  0  0  0  0
  187.9300  178.3070  140.8950 N   0  0  0  0  0  0  0  0  0  0  0  0
  185.0300  179.2230  139.5770 C   0  0  2  0  0  3  0  0  0  0  0  0
  187.4000  177.1460  137.7140 C   0  0  0  0  0  1  0  0  0  0  0  0
  185.7360  178.9220  141.8310 C   0  0  2  0  0  3  0  0  0  0  0  0
  1 21  1  1  0  0  0
  3 17  2  0  0  0  0
  4 22  1  0  0  0  0
  5 27  1  6  0  0  0
  5 17  1  0  0  0  0
  5 24  1  0  0  0  0
  6 23  1  0  0  0  0
  6  1  1  0  0  0  0
  8  2  1  0  0  0  0
  8  7  1  1  0  0  0
  9 14  1  0  0  0  0
 10  8  1  0  0  0  0
 10 28  1  0  0  0  0
 12 28  1  0  0  0  0
 13  9  2  0  0  0  0
 13 26  1  0  0  0  0
 14  8  1  0  0  0  0
 15 11  1  0  0  0  0
 15 23  1  0  0  0  0
 16  1  1  0  0  0  0
 16 20  1  0  0  0  0
 17 25  1  0  0  0  0
 18  9  1  0  0  0  0
 19 15  1  0  0  0  0
 20  4  2  0  0  0  0
 21 22  2  0  0  0  0
 24 26  1  0  0  0  0
 24 12  1  0  0  0  0
 25 12  1  0  0  0  0
 25 19  1  0  0  0  0
 26 10  1  0  0  0  0
 28 16  1  0  0  0  0
M  END
>  <MODEL>
2

>  <REMARK>
 VINA RESULT:      -7.4      2.849      6.803
  Name = 
  0 active torsions:
  status: ('A' for Active; 'I' for Inactive)
                            x       y       z     vdW  Elec       q    Type
                         _______ _______ _______ _____ _____    ______ ____

>  <TORSDO>
F 0

$$$$
=
 OpenBabel11122411593D

 28 32  0  0  1  0  0  0  0  0999 V2000
  190.0210  177.0280  145.0120 C   0  0  1  0  0  3  0  0  0  0  0  0
  188.3450  179.2940  141.9950 F   0  0  0  0  0  0  0  0  0  0  0  0
  184.6870  177.5030  146.9070 O   0  0  0  0  0  0  0  0  0  0  0  0
  190.9250  175.0060  143.2180 C   0  0  0  0  0  3  0  0  0  0  0  0
  184.7720  178.5070  144.7100 C   0  0  2  0  0  3  0  0  0  0  0  0
  189.9380  178.4000  145.4960 N   0  0  0  0  0  2  0  0  0  0  0  0
  189.1160  177.5260  140.6360 C   0  0  0  0  0  1  0  0  0  0  0  0
  187.9160  178.1840  141.2880 C   0  0  1  0  0  0  0  0  0  0  0  0
  185.6250  178.7750  140.4150 C   0  0  0  0  0  0  0  0  0  0  0  0
  187.1810  177.1780  142.2250 C   0  0  2  0  0  3  0  0  0  0  0  0
  188.2860  178.4730  148.8890 C   0  0  0  0  0  1  0  0  0  0  0  0
  187.2190  178.1180  144.4960 C   0  0  1  0  0  3  0  0  0  0  0  0
  185.0560  178.3180  141.4860 N   0  0  0  0  0  0  0  0  0  0  0  0
  187.0290  178.6280  140.2210 N   0  0  0  0  0  2  0  0  0  0  0  0
  188.3560  178.4240  147.3770 C   0  0  2  0  0  3  0  0  0  0  0  0
  189.3580  176.8900  143.6210 C   0  0  1  0  0  3  0  0  0  0  0  0
  185.3520  177.8300  145.8870 C   0  0  0  0  0  0  0  0  0  0  0  0
  184.7950  179.3840  139.3440 C   0  0  0  0  0  1  0  0  0  0  0  0
  187.5860  177.2090  146.8820 C   0  0  0  0  0  2  0  0  0  0  0  0
  189.7340  175.5680  142.9940 C   0  0  0  0  0  3  0  0  0  0  0  0
  191.4680  176.6020  144.9730 C   0  0  0  0  0  3  0  0  0  0  0  0
  191.8730  175.6280  144.1560 C   0  0  0  0  0  3  0  0  0  0  0  0
  189.8150  178.3420  146.9490 C   0  0  0  0  0  2  0  0  0  0  0  0
  185.9640  178.6240  143.7550 C   0  0  1  0  0  3  0  0  0  0  0  0
  186.7360  177.5770  145.7580 N   0  0  0  0  0  0  0  0  0  0  0  0
  185.7800  177.6780  142.5860 C   0  0  2  0  0  3  0  0  0  0  0  0
  184.3020  179.8970  145.0940 C   0  0  0  0  0  1  0  0  0  0  0  0
  187.8190  177.0120  143.6190 C   0  0  2  0  0  3  0  0  0  0  0  0
  1 21  1  6  0  0  0
  1  6  1  0  0  0  0
  4 22  1  0  0  0  0
  5 27  1  1  0  0  0
  5 17  1  0  0  0  0
  6 23  1  0  0  0  0
  8  7  1  6  0  0  0
  8  2  1  0  0  0  0
  8 10  1  0  0  0  0
  9 13  2  0  0  0  0
 10 26  1  0  0  0  0
 10 28  1  0  0  0  0
 12 25  1  0  0  0  0
 13 26  1  0  0  0  0
 14  9  1  0  0  0  0
 14  8  1  0  0  0  0
 15 11  1  0  0  0  0
 16  1  1  0  0  0  0
 17  3  2  0  0  0  0
 18  9  1  0  0  0  0
 19 15  1  0  0  0  0
 20  4  2  0  0  0  0
 20 16  1  0  0  0  0
 22 21  2  0  0  0  0
 23 15  1  0  0  0  0
 24 12  1  0  0  0  0
 24  5  1  0  0  0  0
 25 17  1  0  0  0  0
 25 19  1  0  0  0  0
 26 24  1  0  0  0  0
 28 16  1  0  0  0  0
 28 12  1  0  0  0  0
M  END
>  <MODEL>
3

>  <REMARK>
 VINA RESULT:      -6.6      2.669      5.919
  Name = 
  0 active torsions:
  status: ('A' for Active; 'I' for Inactive)
                            x       y       z     vdW  Elec       q    Type
                         _______ _______ _______ _____ _____    ______ ____

>  <TORSDO>
F 0

$$$$
=
 OpenBabel11122411593D

 28 32  0  0  1  0  0  0  0  0999 V2000
  190.5760  177.4130  141.6780 C   0  0  1  0  0  3  0  0  0  0  0  0
  186.7130  176.6430  142.9140 F   0  0  0  0  0  0  0  0  0  0  0  0
  187.6550  179.2370  137.1610 O   0  0  0  0  0  0  0  0  0  0  0  0
  191.1690  179.0030  143.9680 C   0  0  0  0  0  3  0  0  0  0  0  0
  186.0550  178.6280  138.8650 C   0  0  2  0  0  3  0  0  0  0  0  0
  190.1460  176.1890  141.0160 N   0  0  0  0  0  2  0  0  0  0  0  0
  187.3330  178.0130  144.7330 C   0  0  0  0  0  1  0  0  0  0  0  0
  186.5420  177.9110  143.4430 C   0  0  1  0  0  0  0  0  0  0  0  0
  184.1910  178.5910  142.8370 C   0  0  0  0  0  0  0  0  0  0  0  0
  187.0030  179.0030  142.4300 C   0  0  2  0  0  3  0  0  0  0  0  0
  190.8030  176.4270  137.3070 C   0  0  0  0  0  1  0  0  0  0  0  0
  187.8300  177.8490  140.4230 C   0  0  1  0  0  3  0  0  0  0  0  0
  184.5870  179.1080  141.7170 N   0  0  0  0  0  0  0  0  0  0  0  0
  185.1360  178.0880  143.7780 N   0  0  0  0  0  2  0  0  0  0  0  0
  190.0520  176.6480  138.6030 C   0  0  2  0  0  3  0  0  0  0  0  0
  189.4200  178.0390  142.4940 C   0  0  1  0  0  3  0  0  0  0  0  0
  187.4140  178.7820  138.3110 C   0  0  0  0  0  0  0  0  0  0  0  0
  182.7450  178.5990  143.1800 C   0  0  0  0  0  1  0  0  0  0  0  0
  189.8060  178.1380  138.7900 C   0  0  0  0  0  2  0  0  0  0  0  0
  189.9540  179.1030  143.4240 C   0  0  0  0  0  3  0  0  0  0  0  0
  191.7650  177.1120  142.5570 C   0  0  0  0  0  3  0  0  0  0  0  0
  192.0550  177.8850  143.6060 C   0  0  0  0  0  3  0  0  0  0  0  0
  190.8770  176.0950  139.7570 C   0  0  0  0  0  2  0  0  0  0  0  0
  186.3150  178.1000  140.2800 C   0  0  1  0  0  3  0  0  0  0  0  0
  188.4300  178.3720  139.2040 N   0  0  0  0  0  0  0  0  0  0  0  0
  185.9880  179.1730  141.2980 C   0  0  2  0  0  3  0  0  0  0  0  0
  185.2910  177.5820  138.0760 C   0  0  0  0  0  1  0  0  0  0  0  0
  188.2860  178.6540  141.6460 C   0  0  2  0  0  3  0  0  0  0  0  0
  1 16  1  0  0  0  0
  1 21  1  1  0  0  0
  2  8  1  0  0  0  0
  3 17  2  0  0  0  0
  5 27  1  6  0  0  0
  5 24  1  0  0  0  0
  6  1  1  0  0  0  0
  8 14  1  0  0  0  0
  8  7  1  1  0  0  0
  9 18  1  0  0  0  0
  9 14  1  0  0  0  0
 10  8  1  0  0  0  0
 11 15  1  0  0  0  0
 12 28  1  0  0  0  0
 13  9  2  0  0  0  0
 15 19  1  0  0  0  0
 15 23  1  0  0  0  0
 16 20  1  0  0  0  0
 17  5  1  0  0  0  0
 17 25  1  0  0  0  0
 19 25  1  0  0  0  0
 20  4  2  0  0  0  0
 21 22  2  0  0  0  0
 22  4  1  0  0  0  0
 23  6  1  0  0  0  0
 24 12  1  0  0  0  0
 24 26  1  0  0  0  0
 25 12  1  0  0  0  0
 26 13  1  0  0  0  0
 26 10  1  0  0  0  0
 28 10  1  0  0  0  0
 28 16  1  0  0  0  0
M  END
>  <MODEL>
4

>  <REMARK>
 VINA RESULT:      -6.5      2.023      3.882
  Name = 
  0 active torsions:
  status: ('A' for Active; 'I' for Inactive)
                            x       y       z     vdW  Elec       q    Type
                         _______ _______ _______ _____ _____    ______ ____

>  <TORSDO>
F 0

$$$$
=
 OpenBabel11122411593D

 28 32  0  0  1  0  0  0  0  0999 V2000
  187.7930  177.4870  142.6490 C   0  0  1  0  0  3  0  0  0  0  0  0
  187.1490  176.3000  138.7470 F   0  0  0  0  0  0  0  0  0  0  0  0
  193.0840  177.7390  140.5950 O   0  0  0  0  0  0  0  0  0  0  0  0
  185.8970  179.6080  142.4920 C   0  0  0  0  0  3  0  0  0  0  0  0
  191.6110  177.2220  138.7510 C   0  0  2  0  0  3  0  0  0  0  0  0
  188.2020  176.0920  142.5480 N   0  0  0  0  0  2  0  0  0  0  0  0
  185.6410  178.1150  138.7520 C   0  0  0  0  0  1  0  0  0  0  0  0
  186.9900  177.5980  138.2920 C   0  0  1  0  0  0  0  0  0  0  0  0
  188.1720  177.6890  136.0670 C   0  0  0  0  0  0  0  0  0  0  0  0
  188.1360  178.5150  138.8160 C   0  0  2  0  0  3  0  0  0  0  0  0
  191.6650  175.6530  143.9810 C   0  0  0  0  0  1  0  0  0  0  0  0
  189.6070  177.1320  140.2210 C   0  0  1  0  0  3  0  0  0  0  0  0
  189.2910  178.0190  136.6300 N   0  0  0  0  0  0  0  0  0  0  0  0
  186.9770  177.5800  136.8360 N   0  0  0  0  0  2  0  0  0  0  0  0
  190.6270  176.0020  142.9350 C   0  0  2  0  0  3  0  0  0  0  0  0
  187.3870  178.0480  141.2650 C   0  0  1  0  0  3  0  0  0  0  0  0
  191.9230  177.5030  140.1660 C   0  0  0  0  0  0  0  0  0  0  0  0
  188.1170  177.5020  134.5940 C   0  0  0  0  0  1  0  0  0  0  0  0
  190.8630  177.4260  142.4550 C   0  0  0  0  0  2  0  0  0  0  0  0
  186.6660  179.3650  141.4280 C   0  0  0  0  0  3  0  0  0  0  0  0
  186.6610  177.6030  143.6400 C   0  0  0  0  0  3  0  0  0  0  0  0
  185.8010  178.6220  143.5800 C   0  0  0  0  0  3  0  0  0  0  0  0
  189.2390  175.8680  143.5480 C   0  0  0  0  0  2  0  0  0  0  0  0
  190.0870  177.0640  138.7570 C   0  0  1  0  0  3  0  0  0  0  0  0
  190.7830  177.4850  141.0020 N   0  0  0  0  0  0  0  0  0  0  0  0
  189.4450  178.2500  138.0680 C   0  0  2  0  0  3  0  0  0  0  0  0
  192.2460  175.9100  138.3330 C   0  0  0  0  0  1  0  0  0  0  0  0
  188.5570  178.2490  140.2770 C   0  0  2  0  0  3  0  0  0  0  0  0
  1 21  1  1  0  0  0
  4 22  1  0  0  0  0
  5 27  1  1  0  0  0
  5 24  1  0  0  0  0
  5 17  1  0  0  0  0
  6  1  1  0  0  0  0
  6 23  1  0  0  0  0
  8  2  1  0  0  0  0
  8  7  1  1  0  0  0
  8 10  1  0  0  0  0
  9 13  2  0  0  0  0
  9 14  1  0  0  0  0
 10 28  1  0  0  0  0
 12 28  1  0  0  0  0
 12 25  1  0  0  0  0
 13 26  1  0  0  0  0
 14  8  1  0  0  0  0
 15 23  1  0  0  0  0
 15 11  1  0  0  0  0
 16 20  1  0  0  0  0
 16  1  1  0  0  0  0
 17  3  2  0  0  0  0
 17 25  1  0  0  0  0
 18  9  1  0  0  0  0
 19 15  1  0  0  0  0
 20  4  2  0  0  0  0
 22 21  2  0  0  0  0
 24 12  1  0  0  0  0
 25 19  1  0  0  0  0
 26 24  1  0  0  0  0
 26 10  1  0  0  0  0
 28 16  1  0  0  0  0
M  END
>  <MODEL>
5

>  <REMARK>
 VINA RESULT:      -6.4      2.434      6.711
  Name = 
  0 active torsions:
  status: ('A' for Active; 'I' for Inactive)
                            x       y       z     vdW  Elec       q    Type
                         _______ _______ _______ _____ _____    ______ ____

>  <TORSDO>
F 0

$$$$
=
 OpenBabel11122411593D

 28 32  0  0  1  0  0  0  0  0999 V2000
  180.2700  178.5050  139.8900 C   0  0  1  0  0  3  0  0  0  0  0  0
  183.8050  176.6410  138.8560 F   0  0  0  0  0  0  0  0  0  0  0  0
  183.5920  180.1030  144.2110 O   0  0  0  0  0  0  0  0  0  0  0  0
  180.0760  179.8860  137.4050 C   0  0  0  0  0  3  0  0  0  0  0  0
  184.9740  178.8990  142.6370 C   0  0  2  0  0  3  0  0  0  0  0  0
  180.3830  177.3070  140.7120 N   0  0  0  0  0  2  0  0  0  0  0  0
  183.5350  177.8780  136.8650 C   0  0  0  0  0  1  0  0  0  0  0  0
  184.2850  177.7470  138.1760 C   0  0  1  0  0  0  0  0  0  0  0  0
  186.7370  177.8890  138.7480 C   0  0  0  0  0  0  0  0  0  0  0  0
  184.1210  179.0400  139.0310 C   0  0  2  0  0  3  0  0  0  0  0  0
  179.8380  178.1760  144.3430 C   0  0  0  0  0  1  0  0  0  0  0  0
  183.0470  178.3970  141.1470 C   0  0  1  0  0  3  0  0  0  0  0  0
  186.4920  178.6280  139.7840 N   0  0  0  0  0  0  0  0  0  0  0  0
  185.6880  177.5230  137.8550 N   0  0  0  0  0  2  0  0  0  0  0  0
  180.6100  178.0340  143.0490 C   0  0  2  0  0  3  0  0  0  0  0  0
  181.5390  178.7110  139.0300 C   0  0  1  0  0  3  0  0  0  0  0  0
  183.7020  179.4590  143.1340 C   0  0  0  0  0  0  0  0  0  0  0  0
  188.1350  177.4900  138.4420 C   0  0  0  0  0  1  0  0  0  0  0  0
  181.2200  179.3780  142.6820 C   0  0  0  0  0  2  0  0  0  0  0  0
  181.2820  179.7470  137.9610 C   0  0  0  0  0  3  0  0  0  0  0  0
  179.0360  178.4010  139.0270 C   0  0  0  0  0  3  0  0  0  0  0  0
  178.9410  179.0820  137.8830 C   0  0  0  0  0  3  0  0  0  0  0  0
  179.6620  177.5610  141.9540 C   0  0  0  0  0  2  0  0  0  0  0  0
  184.5780  178.2770  141.2940 C   0  0  1  0  0  3  0  0  0  0  0  0
  182.6080  179.2050  142.2760 N   0  0  0  0  0  0  0  0  0  0  0  0
  185.1560  179.0940  140.1570 C   0  0  2  0  0  3  0  0  0  0  0  0
  185.4570  177.8050  143.5700 C   0  0  0  0  0  1  0  0  0  0  0  0
  182.7990  179.1270  139.8210 C   0  0  2  0  0  3  0  0  0  0  0  0
  1 21  1  6  0  0  0
  1  6  1  0  0  0  0
  4 22  1  0  0  0  0
  4 20  2  0  0  0  0
  5 17  1  0  0  0  0
  5 27  1  1  0  0  0
  6 23  1  0  0  0  0
  8  7  1  6  0  0  0
  8  2  1  0  0  0  0
  8 10  1  0  0  0  0
  9 13  2  0  0  0  0
 10 28  1  0  0  0  0
 10 26  1  0  0  0  0
 12 24  1  0  0  0  0
 12 25  1  0  0  0  0
 13 26  1  0  0  0  0
 14  8  1  0  0  0  0
 14  9  1  0  0  0  0
 15 11  1  0  0  0  0
 16 28  1  0  0  0  0
 16  1  1  0  0  0  0
 17  3  2  0  0  0  0
 18  9  1  0  0  0  0
 19 15  1  0  0  0  0
 20 16  1  0  0  0  0
 22 21  2  0  0  0  0
 23 15  1  0  0  0  0
 24  5  1  0  0  0  0
 25 19  1  0  0  0  0
 25 17  1  0  0  0  0
 26 24  1  0  0  0  0
 28 12  1  0  0  0  0
M  END
>  <MODEL>
6

>  <REMARK>
 VINA RESULT:      -6.2      4.517      8.372
  Name = 
  0 active torsions:
  status: ('A' for Active; 'I' for Inactive)
                            x       y       z     vdW  Elec       q    Type
                         _______ _______ _______ _____ _____    ______ ____

>  <TORSDO>
F 0

$$$$
=
 OpenBabel11122411593D

 28 32  0  0  1  0  0  0  0  0999 V2000
  186.2210  178.4760  141.0290 C   0  0  1  0  0  3  0  0  0  0  0  0
  186.7230  179.9120  144.8670 F   0  0  0  0  0  0  0  0  0  0  0  0
  190.5560  175.2530  142.7880 O   0  0  0  0  0  0  0  0  0  0  0  0
  183.4720  177.8520  141.4430 C   0  0  0  0  0  3  0  0  0  0  0  0
  189.8180  176.5730  144.6730 C   0  0  2  0  0  3  0  0  0  0  0  0
  187.3650  179.3780  141.0070 N   0  0  0  0  0  2  0  0  0  0  0  0
  184.4520  179.3070  145.0770 C   0  0  0  0  0  1  0  0  0  0  0  0
  185.8860  178.9580  145.4210 C   0  0  1  0  0  0  0  0  0  0  0  0
  186.9890  178.2520  147.5760 C   0  0  0  0  0  0  0  0  0  0  0  0
  186.2440  177.5340  144.8980 C   0  0  2  0  0  3  0  0  0  0  0  0
  190.3080  177.6930  139.3510 C   0  0  0  0  0  1  0  0  0  0  0  0
  188.1120  177.7730  143.3170 C   0  0  1  0  0  3  0  0  0  0  0  0
  187.6590  177.3210  146.9740 N   0  0  0  0  0  0  0  0  0  0  0  0
  186.0130  179.0150  146.8710 N   0  0  0  0  0  2  0  0  0  0  0  0
  189.3550  178.0350  140.4760 C   0  0  2  0  0  3  0  0  0  0  0  0
  185.6890  178.2890  142.4690 C   0  0  1  0  0  3  0  0  0  0  0  0
  189.7850  176.1300  143.2650 C   0  0  0  0  0  0  0  0  0  0  0  0
  187.1810  178.4710  149.0330 C   0  0  0  0  0  1  0  0  0  0  0  0
  188.7680  176.7510  141.0410 C   0  0  0  0  0  2  0  0  0  0  0  0
  184.3300  177.6300  142.4420 C   0  0  0  0  0  3  0  0  0  0  0  0
  185.1480  179.0140  140.1150 C   0  0  0  0  0  3  0  0  0  0  0  0
  183.8670  178.6840  140.2950 C   0  0  0  0  0  3  0  0  0  0  0  0
  188.2500  178.9340  139.9360 C   0  0  0  0  0  2  0  0  0  0  0  0
  188.6700  177.5850  144.7430 C   0  0  1  0  0  3  0  0  0  0  0  0
  188.7960  176.7840  142.4970 N   0  0  0  0  0  0  0  0  0  0  0  0
  187.5240  177.0090  145.5500 C   0  0  2  0  0  3  0  0  0  0  0  0
  191.1270  177.2840  144.9610 C   0  0  0  0  0  1  0  0  0  0  0  0
  186.6100  177.4710  143.4000 C   0  0  2  0  0  3  0  0  0  0  0  0
  1 21  1  6  0  0  0
  1 16  1  0  0  0  0
  2  8  1  0  0  0  0
  3 17  2  0  0  0  0
  4 20  2  0  0  0  0
  5 24  1  0  0  0  0
  5 27  1  6  0  0  0
  6  1  1  0  0  0  0
  8  7  1  6  0  0  0
  8 14  1  0  0  0  0
  9 18  1  0  0  0  0
 10  8  1  0  0  0  0
 10 26  1  0  0  0  0
 11 15  1  0  0  0  0
 12 28  1  0  0  0  0
 12 24  1  0  0  0  0
 13  9  2  0  0  0  0
 14  9  1  0  0  0  0
 15 19  1  0  0  0  0
 16 28  1  0  0  0  0
 17  5  1  0  0  0  0
 19 25  1  0  0  0  0
 20 16  1  0  0  0  0
 21 22  2  0  0  0  0
 22  4  1  0  0  0  0
 23 15  1  0  0  0  0
 23  6  1  0  0  0  0
 24 26  1  0  0  0  0
 25 17  1  0  0  0  0
 25 12  1  0  0  0  0
 26 13  1  0  0  0  0
 28 10  1  0  0  0  0
M  END
>  <MODEL>
7

>  <REMARK>
 VINA RESULT:      -6.1      2.564      5.299
  Name = 
  0 active torsions:
  status: ('A' for Active; 'I' for Inactive)
                            x       y       z     vdW  Elec       q    Type
                         _______ _______ _______ _____ _____    ______ ____

>  <TORSDO>
F 0

$$$$
=
 OpenBabel11122411593D

 28 32  0  0  1  0  0  0  0  0999 V2000
  190.4810  176.7400  145.7040 C   0  0  1  0  0  3  0  0  0  0  0  0
  190.8870  178.7040  142.0960 F   0  0  0  0  0  0  0  0  0  0  0  0
  185.0260  177.5030  144.3150 O   0  0  0  0  0  0  0  0  0  0  0  0
  192.0670  174.5250  144.8670 C   0  0  0  0  0  3  0  0  0  0  0  0
  186.3650  178.2680  142.4550 C   0  0  2  0  0  3  0  0  0  0  0  0
  190.2460  178.1560  145.9540 N   0  0  0  0  0  2  0  0  0  0  0  0
  192.1430  176.7900  141.5280 C   0  0  0  0  0  1  0  0  0  0  0  0
  190.8330  177.5340  141.3590 C   0  0  1  0  0  0  0  0  0  0  0  0
  189.4370  178.0690  139.3290 C   0  0  0  0  0  0  0  0  0  0  0  0
  189.6360  176.6450  141.8140 C   0  0  2  0  0  3  0  0  0  0  0  0
  187.0240  178.6140  147.8640 C   0  0  0  0  0  1  0  0  0  0  0  0
  188.4990  177.8180  143.6510 C   0  0  1  0  0  3  0  0  0  0  0  0
  188.3460  177.7360  139.9430 N   0  0  0  0  0  0  0  0  0  0  0  0
  190.7050  177.8780  139.9490 N   0  0  0  0  0  2  0  0  0  0  0  0
  187.9010  178.4050  146.6480 C   0  0  2  0  0  3  0  0  0  0  0  0
  190.6750  176.4670  144.1940 C   0  0  1  0  0  3  0  0  0  0  0  0
  186.1610  177.7090  143.8050 C   0  0  0  0  0  0  0  0  0  0  0  0
  189.3710  178.5760  137.9340 C   0  0  0  0  0  1  0  0  0  0  0  0
  187.4400  177.1580  145.9090 C   0  0  0  0  0  2  0  0  0  0  0  0
  191.2350  175.0800  143.9820 C   0  0  0  0  0  3  0  0  0  0  0  0
  191.6810  176.2870  146.5000 C   0  0  0  0  0  3  0  0  0  0  0  0
  192.3940  175.2250  146.1190 C   0  0  0  0  0  3  0  0  0  0  0  0
  189.3480  178.2540  147.1000 C   0  0  0  0  0  2  0  0  0  0  0  0
  187.8900  178.2640  142.3060 C   0  0  1  0  0  3  0  0  0  0  0  0
  187.3690  177.4200  144.4780 N   0  0  0  0  0  0  0  0  0  0  0  0
  188.3050  177.2040  141.3060 C   0  0  2  0  0  3  0  0  0  0  0  0
  185.8650  179.7000  142.4070 C   0  0  0  0  0  1  0  0  0  0  0  0
  189.3980  176.6150  143.3380 C   0  0  2  0  0  3  0  0  0  0  0  0
  1  6  1  0  0  0  0
  1 21  1  1  0  0  0
  4 22  1  0  0  0  0
  5 27  1  1  0  0  0
  5 17  1  0  0  0  0
  6 23  1  0  0  0  0
  8  7  1  1  0  0  0
  8 10  1  0  0  0  0
  8  2  1  0  0  0  0
  9 13  2  0  0  0  0
  9 14  1  0  0  0  0
 10 28  1  0  0  0  0
 12 25  1  0  0  0  0
 13 26  1  0  0  0  0
 14  8  1  0  0  0  0
 15 23  1  0  0  0  0
 15 11  1  0  0  0  0
 16  1  1  0  0  0  0
 17  3  2  0  0  0  0
 17 25  1  0  0  0  0
 18  9  1  0  0  0  0
 19 15  1  0  0  0  0
 20 16  1  0  0  0  0
 20  4  2  0  0  0  0
 22 21  2  0  0  0  0
 24  5  1  0  0  0  0
 24 12  1  0  0  0  0
 25 19  1  0  0  0  0
 26 10  1  0  0  0  0
 26 24  1  0  0  0  0
 28 12  1  0  0  0  0
 28 16  1  0  0  0  0
M  END
>  <MODEL>
8

>  <REMARK>
 VINA RESULT:      -6.1      2.025      5.637
  Name = 
  0 active torsions:
  status: ('A' for Active; 'I' for Inactive)
                            x       y       z     vdW  Elec       q    Type
                         _______ _______ _______ _____ _____    ______ ____

>  <TORSDO>
F 0

$$$$
=
 OpenBabel11122411593D

 28 32  0  0  1  0  0  0  0  0999 V2000
  190.0570  177.4890  141.6300 C   0  0  1  0  0  3  0  0  0  0  0  0
  187.4560  176.2320  144.5800 F   0  0  0  0  0  0  0  0  0  0  0  0
  185.1800  179.6980  139.7300 O   0  0  0  0  0  0  0  0  0  0  0  0
  191.8000  178.7750  143.4810 C   0  0  0  0  0  3  0  0  0  0  0  0
  184.7420  178.7190  141.8950 C   0  0  2  0  0  3  0  0  0  0  0  0
  189.3280  176.3410  141.1050 N   0  0  0  0  0  2  0  0  0  0  0  0
  188.9670  177.3720  145.9900 C   0  0  0  0  0  1  0  0  0  0  0  0
  187.6070  177.3920  145.3210 C   0  0  1  0  0  0  0  0  0  0  0  0
  185.3030  177.9570  146.1790 C   0  0  0  0  0  0  0  0  0  0  0  0
  187.4600  178.6530  144.4160 C   0  0  2  0  0  3  0  0  0  0  0  0
  187.8910  177.1660  137.7140 C   0  0  0  0  0  1  0  0  0  0  0  0
  187.0700  177.8730  142.1170 C   0  0  1  0  0  3  0  0  0  0  0  0
  185.0400  178.6600  145.1240 N   0  0  0  0  0  0  0  0  0  0  0  0
  186.6020  177.4030  146.3760 N   0  0  0  0  0  2  0  0  0  0  0  0
  187.9560  177.1350  139.2270 C   0  0  2  0  0  3  0  0  0  0  0  0
  189.5250  177.8920  143.0260 C   0  0  1  0  0  3  0  0  0  0  0  0
  185.5920  179.0640  140.7390 C   0  0  0  0  0  0  0  0  0  0  0  0
  184.2690  177.7950  147.2330 C   0  0  0  0  0  1  0  0  0  0  0  0
  187.8610  178.5560  139.7590 C   0  0  0  0  0  2  0  0  0  0  0  0
  190.4830  178.8520  143.6910 C   0  0  0  0  0  3  0  0  0  0  0  0
  191.5290  177.1630  141.6790 C   0  0  0  0  0  3  0  0  0  0  0  0
  192.3430  177.7990  142.5240 C   0  0  0  0  0  3  0  0  0  0  0  0
  189.2680  176.4900  139.6550 C   0  0  0  0  0  2  0  0  0  0  0  0
  185.7170  178.0160  142.8450 C   0  0  1  0  0  3  0  0  0  0  0  0
  186.9240  178.6140  140.8730 N   0  0  0  0  0  0  0  0  0  0  0  0
  185.9970  178.9000  144.0420 C   0  0  2  0  0  3  0  0  0  0  0  0
  183.6650  177.7380  141.4710 C   0  0  0  0  0  1  0  0  0  0  0  0
  188.1180  178.5280  143.0260 C   0  0  2  0  0  3  0  0  0  0  0  0
  1 21  1  1  0  0  0
  1 16  1  0  0  0  0
  2  8  1  0  0  0  0
  3 17  2  0  0  0  0
  4 20  2  0  0  0  0
  5 27  1  6  0  0  0
  5 24  1  0  0  0  0
  6  1  1  0  0  0  0
  8  7  1  1  0  0  0
  8 14  1  0  0  0  0
  9 14  1  0  0  0  0
  9 18  1  0  0  0  0
 10  8  1  0  0  0  0
 11 15  1  0  0  0  0
 12 24  1  0  0  0  0
 12 28  1  0  0  0  0
 13  9  2  0  0  0  0
 15 23  1  0  0  0  0
 15 19  1  0  0  0  0
 16 20  1  0  0  0  0
 17 25  1  0  0  0  0
 17  5  1  0  0  0  0
 19 25  1  0  0  0  0
 21 22  2  0  0  0  0
 22  4  1  0  0  0  0
 23  6  1  0  0  0  0
 24 26  1  0  0  0  0
 25 12  1  0  0  0  0
 26 10  1  0  0  0  0
 26 13  1  0  0  0  0
 28 16  1  0  0  0  0
 28 10  1  0  0  0  0
M  END
>  <MODEL>
9

>  <REMARK>
 VINA RESULT:      -5.7      1.822      2.755
  Name = 
  0 active torsions:
  status: ('A' for Active; 'I' for Inactive)
                            x       y       z     vdW  Elec       q    Type
                         _______ _______ _______ _____ _____    ______ ____

>  <TORSDO>
F 0

$$$$
