=
 OpenBabel11122410493D

 32 37  0  0  1  0  0  0  0  0999 V2000
  184.8080  177.9270  137.7350 C   0  0  1  0  0  3  0  0  0  0  0  0
  182.6230  175.2230  135.1450 C   0  0  0  0  0  2  0  0  0  0  0  0
  183.9690  174.5900  134.8650 C   0  0  0  0  0  2  0  0  0  0  0  0
  187.0960  177.8830  136.5110 C   0  0  0  0  0  0  0  0  0  0  0  0
  188.1660  177.0300  135.9120 C   0  0  1  0  0  3  0  0  0  0  0  0
  184.5360  179.1720  139.6990 C   0  0  2  0  0  3  0  0  0  0  0  0
  182.6720  177.6430  138.8820 O   0  0  0  0  0  0  0  0  0  0  0  0
  189.4780  175.1420  136.1430 C   0  0  1  0  0  3  0  0  0  0  0  0
  182.8080  176.3260  136.1700 C   0  0  0  0  0  2  0  0  0  0  0  0
  183.8040  176.9600  138.3880 C   0  0  1  0  0  3  0  0  0  0  0  0
  183.4460  175.7910  137.4650 C   0  0  2  0  0  3  0  0  0  0  0  0
  185.9420  175.7000  137.1860 C   0  0  1  0  0  3  0  0  0  0  0  0
  190.3570  176.3700  135.8860 C   0  0  0  0  0  2  0  0  0  0  0  0
  183.0160  178.9250  139.4050 C   0  0  2  0  0  3  0  0  0  0  0  0
  189.5110  177.5690  135.9590 N   0  0  0  0  0  2  0  0  0  0  0  0
  184.4840  173.9610  136.1510 C   0  0  0  0  0  2  0  0  0  0  0  0
  184.6560  174.9540  137.2250 N   0  0  2  0  0  0  0  0  0  0  0  0
  187.0040  174.9980  136.4420 N   0  0  0  0  0  2  0  0  0  0  0  0
  185.4650  178.6520  138.7490 O   0  0  0  0  0  0  0  0  0  0  0  0
  187.2260  179.0940  136.6070 O   0  0  0  0  0  0  0  0  0  0  0  0
  190.1180  174.2590  137.1940 C   0  0  0  0  0  1  0  0  0  0  0  0
  185.7720  177.1940  136.7810 C   0  0  1  0  0  3  0  0  0  0  0  0
  188.2240  175.7560  136.6830 C   0  0  2  0  0  3  0  0  0  0  0  0
  181.1230  179.6090  137.9480 C   0  0  0  0  0  2  0  0  0  0  0  0
  182.4750  180.0170  138.4960 C   0  0  1  0  0  3  0  0  0  0  0  0
  181.2080  180.5870  139.1000 C   0  0  1  0  0  3  0  0  0  0  0  0
  181.0080  181.9980  138.5830 C   0  0  0  0  0  2  0  0  0  0  0  0
  179.5840  182.3990  138.7450 C   0  0  0  0  0  0  0  0  0  0  0  0
  178.9450  183.1140  137.7410 O   0  0  0  0  0  0  0  0  0  0  0  0
  178.9670  182.1180  139.8050 O   0  0  0  0  0  1  0  0  0  0  0  0
  185.5340  179.6670  141.8120 O   0  0  0  0  0  1  0  0  0  0  0  0
  184.8950  178.6610  141.0850 C   0  0  0  0  0  2  0  0  0  0  0  0
  1 10  1  0  0  0  0
  1 19  1  1  0  0  0
  2  9  1  0  0  0  0
  3  2  1  0  0  0  0
  3 16  1  0  0  0  0
  4 20  2  0  0  0  0
  5 15  1  1  0  0  0
  5  4  1  0  0  0  0
  5 23  1  0  0  0  0
  6 32  1  1  0  0  0
  8 23  1  0  0  0  0
  8 21  1  1  0  0  0
 10  7  1  6  0  0  0
 11  9  1  6  0  0  0
 11 10  1  0  0  0  0
 12 18  1  6  0  0  0
 12 17  1  0  0  0  0
 13 15  1  0  0  0  0
 13  8  1  0  0  0  0
 14  7  1  6  0  0  0
 14  6  1  0  0  0  0
 17 16  1  6  0  0  0
 17 11  1  0  0  0  0
 19  6  1  0  0  0  0
 22  4  1  1  0  0  0
 22 12  1  0  0  0  0
 22  1  1  0  0  0  0
 23 18  1  6  0  0  0
 24 26  1  0  0  0  0
 25 24  1  6  0  0  0
 25 26  1  0  0  0  0
 25 14  1  0  0  0  0
 26 27  1  6  0  0  0
 27 28  1  0  0  0  0
 28 30  1  0  0  0  0
 29 28  2  0  0  0  0
 32 31  1  0  0  0  0
M  END
>  <MODEL>
1

>  <REMARK>
 VINA RESULT:      -5.7      0.000      0.000
  Name = 
  4 active torsions:
  status: ('A' for Active; 'I' for Inactive)
    1  A    between atoms: C_7  and  C_19
    2  A    between atoms: C_10  and  C_17
    3  A    between atoms: C_20  and  C_29
    4  A    between atoms: C_29  and  C_30
                            x       y       z     vdW  Elec       q    Type
                         _______ _______ _______ _____ _____    ______ ____

>  <TORSDO>
F 4

$$$$
=
 OpenBabel11122410493D

 32 37  0  0  1  0  0  0  0  0999 V2000
  193.1010  175.6820  136.8640 C   0  0  1  0  0  3  0  0  0  0  0  0
  191.6570  172.1360  134.8310 C   0  0  0  0  0  2  0  0  0  0  0  0
  193.1190  171.8160  134.5990 C   0  0  0  0  0  2  0  0  0  0  0  0
  195.3260  176.0010  135.5660 C   0  0  0  0  0  0  0  0  0  0  0  0
  196.5750  175.3510  135.0660 C   0  0  1  0  0  3  0  0  0  0  0  0
  192.5290  177.1270  138.6140 C   0  0  2  0  0  3  0  0  0  0  0  0
  191.1050  175.0740  138.1300 O   0  0  0  0  0  0  0  0  0  0  0  0
  198.3170  173.9090  135.5390 C   0  0  1  0  0  3  0  0  0  0  0  0
  191.5630  173.4030  135.6590 C   0  0  0  0  0  2  0  0  0  0  0  0
  192.3710  174.6190  137.7040 C   0  0  1  0  0  3  0  0  0  0  0  0
  192.3150  173.2620  136.9940 C   0  0  2  0  0  3  0  0  0  0  0  0
  194.7550  173.7440  136.6290 C   0  0  1  0  0  3  0  0  0  0  0  0
  198.8610  175.2560  135.0530 C   0  0  0  0  0  2  0  0  0  0  0  0
  191.1190  176.4700  138.4270 C   0  0  2  0  0  3  0  0  0  0  0  0
  197.7430  176.2050  134.9700 N   0  0  0  0  0  2  0  0  0  0  0  0
  193.7760  171.5540  135.9450 C   0  0  0  0  0  2  0  0  0  0  0  0
  193.6950  172.7210  136.8400 N   0  0  2  0  0  0  0  0  0  0  0  0
  195.9570  173.2120  135.9610 N   0  0  0  0  0  2  0  0  0  0  0  0
  193.5580  176.7030  137.7200 O   0  0  0  0  0  0  0  0  0  0  0  0
  195.1500  177.2060  135.4630 O   0  0  0  0  0  0  0  0  0  0  0  0
  199.1580  173.3960  136.6900 C   0  0  0  0  0  1  0  0  0  0  0  0
  194.2170  175.0630  135.9980 C   0  0  1  0  0  3  0  0  0  0  0  0
  196.9500  174.2750  136.0270 C   0  0  2  0  0  3  0  0  0  0  0  0
  189.2950  176.3120  136.7470 C   0  0  0  0  0  2  0  0  0  0  0  0
  190.3220  177.2300  137.3790 C   0  0  1  0  0  3  0  0  0  0  0  0
  188.8710  177.3010  137.8110 C   0  0  1  0  0  3  0  0  0  0  0  0
  188.2220  178.5040  137.1570 C   0  0  0  0  0  2  0  0  0  0  0  0
  186.7410  178.3480  137.1660 C   0  0  0  0  0  0  0  0  0  0  0  0
  186.0010  178.7980  138.2510 O   0  0  0  0  0  1  0  0  0  0  0  0
  186.1620  177.7780  136.2050 O   0  0  0  0  0  0  0  0  0  0  0  0
  194.3970  176.8430  140.0760 O   0  0  0  0  0  1  0  0  0  0  0  0
  193.0060  176.9560  140.0470 C   0  0  0  0  0  2  0  0  0  0  0  0
  1 10  1  0  0  0  0
  1 19  1  1  0  0  0
  2  9  1  0  0  0  0
  3  2  1  0  0  0  0
  3 16  1  0  0  0  0
  5 15  1  1  0  0  0
  5  4  1  0  0  0  0
  5 23  1  0  0  0  0
  6 32  1  1  0  0  0
  8 23  1  0  0  0  0
  8 21  1  1  0  0  0
 10  7  1  6  0  0  0
 11  9  1  6  0  0  0
 11 10  1  0  0  0  0
 12 18  1  6  0  0  0
 12 17  1  0  0  0  0
 13  8  1  0  0  0  0
 14  7  1  6  0  0  0
 14  6  1  0  0  0  0
 15 13  1  0  0  0  0
 17 16  1  6  0  0  0
 17 11  1  0  0  0  0
 19  6  1  0  0  0  0
 20  4  2  0  0  0  0
 22  4  1  1  0  0  0
 22 12  1  0  0  0  0
 22  1  1  0  0  0  0
 23 18  1  6  0  0  0
 24 26  1  0  0  0  0
 25 24  1  6  0  0  0
 25 26  1  0  0  0  0
 25 14  1  0  0  0  0
 26 27  1  6  0  0  0
 27 28  1  0  0  0  0
 28 29  1  0  0  0  0
 30 28  2  0  0  0  0
 32 31  1  0  0  0  0
M  END
>  <MODEL>
2

>  <REMARK>
 VINA RESULT:      -5.6      5.328      8.818
  Name = 
  4 active torsions:
  status: ('A' for Active; 'I' for Inactive)
    1  A    between atoms: C_7  and  C_19
    2  A    between atoms: C_10  and  C_17
    3  A    between atoms: C_20  and  C_29
    4  A    between atoms: C_29  and  C_30
                            x       y       z     vdW  Elec       q    Type
                         _______ _______ _______ _____ _____    ______ ____

>  <TORSDO>
F 4

$$$$
=
 OpenBabel11122410493D

 32 37  0  0  1  0  0  0  0  0999 V2000
  182.9330  177.1710  139.5070 C   0  0  1  0  0  3  0  0  0  0  0  0
  186.3480  176.7660  136.8670 C   0  0  0  0  0  2  0  0  0  0  0  0
  185.3740  176.1340  135.8950 C   0  0  0  0  0  2  0  0  0  0  0  0
  181.5420  175.1480  138.6640 C   0  0  0  0  0  0  0  0  0  0  0  0
  180.9830  174.4350  137.4760 C   0  0  1  0  0  3  0  0  0  0  0  0
  182.0980  178.5680  141.1890 C   0  0  2  0  0  3  0  0  0  0  0  0
  184.2610  179.1610  139.9860 O   0  0  0  0  0  0  0  0  0  0  0  0
  179.9120  174.6360  135.4380 C   0  0  1  0  0  3  0  0  0  0  0  0
  185.5840  177.2130  138.0990 C   0  0  0  0  0  2  0  0  0  0  0  0
  183.5820  178.4580  138.9690 C   0  0  1  0  0  3  0  0  0  0  0  0
  184.4530  178.1930  137.7370 C   0  0  2  0  0  3  0  0  0  0  0  0
  182.4270  176.8930  137.0140 C   0  0  1  0  0  3  0  0  0  0  0  0
  179.1550  173.6570  136.3420 C   0  0  0  0  0  2  0  0  0  0  0  0
  183.5850  179.0590  141.2390 C   0  0  2  0  0  3  0  0  0  0  0  0
  179.7390  173.7210  137.6880 N   0  0  0  0  0  2  0  0  0  0  0  0
  184.3630  177.1890  135.4700 C   0  0  0  0  0  2  0  0  0  0  0  0
  183.5980  177.7180  136.6120 N   0  0  2  0  0  0  0  0  0  0  0  0
  181.9320  176.0140  135.9380 N   0  0  0  0  0  2  0  0  0  0  0  0
  181.8000  177.5170  140.2700 O   0  0  0  0  0  0  0  0  0  0  0  0
  181.2650  174.8010  139.8030 O   0  0  0  0  0  0  0  0  0  0  0  0
  178.9310  175.5150  134.6910 C   0  0  0  0  0  1  0  0  0  0  0  0
  182.6270  176.1670  138.3770 C   0  0  1  0  0  3  0  0  0  0  0  0
  180.6820  175.4530  136.4290 C   0  0  2  0  0  3  0  0  0  0  0  0
  185.8680  178.4990  142.0450 C   0  0  0  0  0  2  0  0  0  0  0  0
  184.3910  178.1930  142.1930 C   0  0  1  0  0  3  0  0  0  0  0  0
  185.0880  179.0800  143.2050 C   0  0  1  0  0  3  0  0  0  0  0  0
  185.3640  178.2720  144.4580 C   0  0  0  0  0  2  0  0  0  0  0  0
  184.6130  178.8480  145.6070 C   0  0  0  0  0  0  0  0  0  0  0  0
  185.2300  178.9820  146.8440 O   0  0  0  0  0  1  0  0  0  0  0  0
  183.4080  179.1830  145.4670 O   0  0  0  0  0  0  0  0  0  0  0  0
  180.1410  179.7470  141.8850 O   0  0  0  0  0  1  0  0  0  0  0  0
  181.1630  179.7390  140.9340 C   0  0  0  0  0  2  0  0  0  0  0  0
  1 19  1  6  0  0  0
  2  9  1  0  0  0  0
  3  2  1  0  0  0  0
  4 20  2  0  0  0  0
  5 15  1  1  0  0  0
  5  4  1  0  0  0  0
  6 32  1  6  0  0  0
  6 14  1  0  0  0  0
  8 21  1  1  0  0  0
  8 13  1  0  0  0  0
  8 23  1  0  0  0  0
 10  1  1  0  0  0  0
 10  7  1  1  0  0  0
 11  9  1  1  0  0  0
 11 10  1  0  0  0  0
 12 18  1  6  0  0  0
 12 22  1  0  0  0  0
 13 15  1  0  0  0  0
 14  7  1  6  0  0  0
 14 25  1  0  0  0  0
 16  3  1  0  0  0  0
 17 16  1  6  0  0  0
 17 12  1  0  0  0  0
 17 11  1  0  0  0  0
 19  6  1  0  0  0  0
 22  4  1  1  0  0  0
 22  1  1  0  0  0  0
 23 18  1  6  0  0  0
 23  5  1  0  0  0  0
 24 26  1  0  0  0  0
 25 24  1  6  0  0  0
 25 26  1  0  0  0  0
 26 27  1  1  0  0  0
 27 28  1  0  0  0  0
 28 29  1  0  0  0  0
 30 28  2  0  0  0  0
 32 31  1  0  0  0  0
M  END
>  <MODEL>
3

>  <REMARK>
 VINA RESULT:      -5.6      2.888      6.499
  Name = 
  4 active torsions:
  status: ('A' for Active; 'I' for Inactive)
    1  A    between atoms: C_7  and  C_19
    2  A    between atoms: C_10  and  C_17
    3  A    between atoms: C_20  and  C_29
    4  A    between atoms: C_29  and  C_30
                            x       y       z     vdW  Elec       q    Type
                         _______ _______ _______ _____ _____    ______ ____

>  <TORSDO>
F 4

$$$$
=
 OpenBabel11122410493D

 32 37  0  0  1  0  0  0  0  0999 V2000
  187.9930  176.5590  137.6930 C   0  0  1  0  0  3  0  0  0  0  0  0
  189.3460  177.4290  141.7180 C   0  0  0  0  0  2  0  0  0  0  0  0
  190.6670  176.8360  141.2770 C   0  0  0  0  0  2  0  0  0  0  0  0
  189.5260  174.5250  137.1930 C   0  0  0  0  0  0  0  0  0  0  0  0
  190.9180  173.9850  137.2190 C   0  0  1  0  0  3  0  0  0  0  0  0
  186.5200  177.3660  136.0620 C   0  0  2  0  0  3  0  0  0  0  0  0
  186.8250  178.6280  138.2510 O   0  0  0  0  0  0  0  0  0  0  0  0
  193.1510  174.3950  136.7870 C   0  0  1  0  0  3  0  0  0  0  0  0
  188.3980  177.4380  140.5350 C   0  0  0  0  0  2  0  0  0  0  0  0
  188.0980  178.0360  138.1120 C   0  0  1  0  0  3  0  0  0  0  0  0
  188.9850  178.2230  139.3470 C   0  0  2  0  0  3  0  0  0  0  0  0
  190.5220  176.7250  138.0400 C   0  0  1  0  0  3  0  0  0  0  0  0
  192.7010  173.1140  136.0790 C   0  0  0  0  0  2  0  0  0  0  0  0
  185.9020  178.1250  137.2850 C   0  0  2  0  0  3  0  0  0  0  0  0
  191.2410  173.0050  136.2000 N   0  0  0  0  0  2  0  0  0  0  0  0
  191.2620  177.7300  140.1990 C   0  0  0  0  0  2  0  0  0  0  0  0
  190.3870  177.8360  139.0200 N   0  0  2  0  0  0  0  0  0  0  0  0
  191.8120  176.0150  138.1340 N   0  0  0  0  0  2  0  0  0  0  0  0
  187.6200  176.4980  136.3350 O   0  0  0  0  0  0  0  0  0  0  0  0
  188.6070  173.8930  136.6920 O   0  0  0  0  0  0  0  0  0  0  0  0
  194.0590  175.1970  135.8780 C   0  0  0  0  0  1  0  0  0  0  0  0
  189.2850  175.7800  138.0090 C   0  0  1  0  0  3  0  0  0  0  0  0
  191.8560  175.1200  136.9870 C   0  0  2  0  0  3  0  0  0  0  0  0
  184.2400  178.0100  139.1280 C   0  0  0  0  0  2  0  0  0  0  0  0
  184.8590  177.2560  137.9680 C   0  0  1  0  0  3  0  0  0  0  0  0
  183.4950  177.9000  137.8150 C   0  0  1  0  0  3  0  0  0  0  0  0
  182.4300  176.8260  137.9230 C   0  0  0  0  0  2  0  0  0  0  0  0
  181.3580  177.2700  138.8560 C   0  0  0  0  0  0  0  0  0  0  0  0
  180.7280  178.4920  138.6590 O   0  0  0  0  0  0  0  0  0  0  0  0
  181.0440  176.5540  139.8410 O   0  0  0  0  0  1  0  0  0  0  0  0
  188.2410  178.1340  134.5940 O   0  0  0  0  0  1  0  0  0  0  0  0
  186.9150  178.3490  134.9730 C   0  0  0  0  0  2  0  0  0  0  0  0
  1 19  1  6  0  0  0
  1 22  1  0  0  0  0
  1 10  1  0  0  0  0
  3  2  1  0  0  0  0
  4  5  1  0  0  0  0
  5 15  1  6  0  0  0
  6 32  1  6  0  0  0
  6 19  1  0  0  0  0
  6 14  1  0  0  0  0
  8 21  1  6  0  0  0
  8 23  1  0  0  0  0
  9  2  1  0  0  0  0
 10  7  1  1  0  0  0
 10 11  1  0  0  0  0
 11  9  1  1  0  0  0
 12 18  1  1  0  0  0
 12 17  1  0  0  0  0
 13 15  1  0  0  0  0
 13  8  1  0  0  0  0
 14 25  1  0  0  0  0
 14  7  1  1  0  0  0
 16  3  1  0  0  0  0
 17 11  1  0  0  0  0
 17 16  1  1  0  0  0
 20  4  2  0  0  0  0
 22  4  1  6  0  0  0
 22 12  1  0  0  0  0
 23  5  1  0  0  0  0
 23 18  1  1  0  0  0
 25 24  1  1  0  0  0
 26 27  1  1  0  0  0
 26 25  1  0  0  0  0
 26 24  1  0  0  0  0
 27 28  1  0  0  0  0
 28 30  1  0  0  0  0
 29 28  2  0  0  0  0
 31 32  1  0  0  0  0
M  END
>  <MODEL>
4

>  <REMARK>
 VINA RESULT:      -5.4      3.032      5.526
  Name = 
  4 active torsions:
  status: ('A' for Active; 'I' for Inactive)
    1  A    between atoms: C_7  and  C_19
    2  A    between atoms: C_10  and  C_17
    3  A    between atoms: C_20  and  C_29
    4  A    between atoms: C_29  and  C_30
                            x       y       z     vdW  Elec       q    Type
                         _______ _______ _______ _____ _____    ______ ____

>  <TORSDO>
F 4

$$$$
=
 OpenBabel11122410493D

 32 37  0  0  1  0  0  0  0  0999 V2000
  186.4920  176.5920  137.2490 C   0  0  1  0  0  3  0  0  0  0  0  0
  184.5290  172.7420  137.5880 C   0  0  0  0  0  2  0  0  0  0  0  0
  183.2380  173.5330  137.6140 C   0  0  0  0  0  2  0  0  0  0  0  0
  184.7310  178.0430  138.4880 C   0  0  0  0  0  0  0  0  0  0  0  0
  183.2860  178.3970  138.6190 C   0  0  1  0  0  3  0  0  0  0  0  0
  188.3990  177.5790  136.3170 C   0  0  2  0  0  3  0  0  0  0  0  0
  187.8980  175.1170  135.9070 O   0  0  0  0  0  0  0  0  0  0  0  0
  181.3150  178.8790  137.5140 C   0  0  1  0  0  3  0  0  0  0  0  0
  185.6850  173.7040  137.3950 C   0  0  0  0  0  2  0  0  0  0  0  0
  186.5910  175.6280  136.0540 C   0  0  1  0  0  3  0  0  0  0  0  0
  185.5210  174.5330  136.1070 C   0  0  2  0  0  3  0  0  0  0  0  0
  184.0270  176.5000  136.5710 C   0  0  1  0  0  3  0  0  0  0  0  0
  181.6440  179.9870  138.5190 C   0  0  0  0  0  2  0  0  0  0  0  0
  188.8860  176.0910  136.2440 C   0  0  2  0  0  3  0  0  0  0  0  0
  182.9980  179.7540  139.0400 N   0  0  0  0  0  2  0  0  0  0  0  0
  183.0650  174.2190  136.2670 C   0  0  0  0  0  2  0  0  0  0  0  0
  184.1700  175.1470  135.9700 N   0  0  2  0  0  0  0  0  0  0  0  0
  182.6330  176.8480  136.9050 N   0  0  0  0  0  2  0  0  0  0  0  0
  187.1190  177.8070  136.9070 O   0  0  0  0  0  0  0  0  0  0  0  0
  185.5930  178.6470  139.1090 O   0  0  0  0  0  0  0  0  0  0  0  0
  180.7880  179.4850  136.2300 C   0  0  0  0  0  1  0  0  0  0  0  0
  185.0360  176.7680  137.7270 C   0  0  1  0  0  3  0  0  0  0  0  0
  182.6560  178.2570  137.2750 C   0  0  2  0  0  3  0  0  0  0  0  0
  190.4600  174.4930  137.3120 C   0  0  0  0  0  2  0  0  0  0  0  0
  189.5760  175.7010  137.5410 C   0  0  1  0  0  3  0  0  0  0  0  0
  191.0730  175.8750  137.3820 C   0  0  1  0  0  3  0  0  0  0  0  0
  191.6910  176.0880  138.7500 C   0  0  0  0  0  2  0  0  0  0  0  0
  193.0430  176.6950  138.6050 C   0  0  0  0  0  0  0  0  0  0  0  0
  193.7220  176.5980  137.3970 O   0  0  0  0  0  0  0  0  0  0  0  0
  193.5840  177.2680  139.5850 O   0  0  0  0  0  1  0  0  0  0  0  0
  187.1690  178.6860  134.5950 O   0  0  0  0  0  1  0  0  0  0  0  0
  188.4370  178.2160  134.9380 C   0  0  0  0  0  2  0  0  0  0  0  0
  1 19  1  6  0  0  0
  1 22  1  0  0  0  0
  2  3  1  0  0  0  0
  4 20  2  0  0  0  0
  5  4  1  6  0  0  0
  5 15  1  0  0  0  0
  6 32  1  6  0  0  0
  6 19  1  0  0  0  0
  8 21  1  6  0  0  0
  8 13  1  0  0  0  0
  9  2  1  0  0  0  0
 10  7  1  1  0  0  0
 10 11  1  0  0  0  0
 10  1  1  0  0  0  0
 11  9  1  1  0  0  0
 12 18  1  1  0  0  0
 12 22  1  0  0  0  0
 13 15  1  0  0  0  0
 14  7  1  1  0  0  0
 14  6  1  0  0  0  0
 14 25  1  0  0  0  0
 16  3  1  0  0  0  0
 17 11  1  0  0  0  0
 17 16  1  1  0  0  0
 17 12  1  0  0  0  0
 22  4  1  6  0  0  0
 23 18  1  1  0  0  0
 23  8  1  0  0  0  0
 23  5  1  0  0  0  0
 24 26  1  0  0  0  0
 25 24  1  6  0  0  0
 26 25  1  0  0  0  0
 26 27  1  1  0  0  0
 28 27  1  0  0  0  0
 28 30  1  0  0  0  0
 29 28  2  0  0  0  0
 31 32  1  0  0  0  0
M  END
>  <MODEL>
5

>  <REMARK>
 VINA RESULT:      -5.0      2.718      7.798
  Name = 
  4 active torsions:
  status: ('A' for Active; 'I' for Inactive)
    1  A    between atoms: C_7  and  C_19
    2  A    between atoms: C_10  and  C_17
    3  A    between atoms: C_20  and  C_29
    4  A    between atoms: C_29  and  C_30
                            x       y       z     vdW  Elec       q    Type
                         _______ _______ _______ _____ _____    ______ ____

>  <TORSDO>
F 4

$$$$
=
 OpenBabel11122410493D

 32 37  0  0  1  0  0  0  0  0999 V2000
  188.1160  176.4970  137.7480 C   0  0  1  0  0  3  0  0  0  0  0  0
  189.4880  177.3940  141.7610 C   0  0  0  0  0  2  0  0  0  0  0  0
  190.8160  176.8260  141.3080 C   0  0  0  0  0  2  0  0  0  0  0  0
  189.6820  174.4920  137.2350 C   0  0  0  0  0  0  0  0  0  0  0  0
  191.0850  173.9780  137.2480 C   0  0  1  0  0  3  0  0  0  0  0  0
  186.6130  177.2740  136.1300 C   0  0  2  0  0  3  0  0  0  0  0  0
  186.9130  178.5430  138.3160 O   0  0  0  0  0  0  0  0  0  0  0  0
  193.3050  174.4310  136.7960 C   0  0  1  0  0  3  0  0  0  0  0  0
  188.5290  177.3840  140.5860 C   0  0  0  0  0  2  0  0  0  0  0  0
  188.1960  177.9750  138.1660 C   0  0  1  0  0  3  0  0  0  0  0  0
  189.0900  178.1800  139.3930 C   0  0  2  0  0  3  0  0  0  0  0  0
  190.6440  176.7110  138.0720 C   0  0  1  0  0  3  0  0  0  0  0  0
  192.8730  173.1410  136.0920 C   0  0  0  0  0  2  0  0  0  0  0  0
  185.9910  178.0220  137.3590 C   0  0  2  0  0  3  0  0  0  0  0  0
  191.4170  173.0050  136.2260 N   0  0  0  0  0  2  0  0  0  0  0  0
  191.3840  177.7310  140.2250 C   0  0  0  0  0  2  0  0  0  0  0  0
  190.4960  177.8200  139.0530 N   0  0  2  0  0  0  0  0  0  0  0  0
  191.9480  176.0260  138.1550 N   0  0  0  0  0  2  0  0  0  0  0  0
  187.7310  176.4280  136.3940 O   0  0  0  0  0  0  0  0  0  0  0  0
  188.7720  173.8430  136.7420 O   0  0  0  0  0  0  0  0  0  0  0  0
  194.1900  175.2500  135.8790 C   0  0  0  0  0  1  0  0  0  0  0  0
  189.4250  175.7420  138.0530 C   0  0  1  0  0  3  0  0  0  0  0  0
  191.9980  175.1310  137.0070 C   0  0  2  0  0  3  0  0  0  0  0  0
  184.1050  177.9660  138.9750 C   0  0  0  0  0  2  0  0  0  0  0  0
  184.9710  177.1340  138.0520 C   0  0  1  0  0  3  0  0  0  0  0  0
  183.5770  177.5440  137.6200 C   0  0  1  0  0  3  0  0  0  0  0  0
  182.6440  176.3610  137.7860 C   0  0  0  0  0  2  0  0  0  0  0  0
  182.6500  175.5350  136.5470 C   0  0  0  0  0  0  0  0  0  0  0  0
  182.2730  176.0970  135.3340 O   0  0  0  0  0  0  0  0  0  0  0  0
  182.9660  174.3180  136.6030 O   0  0  0  0  0  1  0  0  0  0  0  0
  188.2800  178.0250  134.5940 O   0  0  0  0  0  1  0  0  0  0  0  0
  186.9790  178.2650  135.0370 C   0  0  0  0  0  2  0  0  0  0  0  0
  1 19  1  6  0  0  0
  1 22  1  0  0  0  0
  1 10  1  0  0  0  0
  3  2  1  0  0  0  0
  4  5  1  0  0  0  0
  5 15  1  6  0  0  0
  6 32  1  6  0  0  0
  6 19  1  0  0  0  0
  6 14  1  0  0  0  0
  8 21  1  6  0  0  0
  8 23  1  0  0  0  0
  9  2  1  0  0  0  0
 10  7  1  1  0  0  0
 10 11  1  0  0  0  0
 11  9  1  1  0  0  0
 12 18  1  1  0  0  0
 12 17  1  0  0  0  0
 13 15  1  0  0  0  0
 13  8  1  0  0  0  0
 14 25  1  0  0  0  0
 14  7  1  1  0  0  0
 16  3  1  0  0  0  0
 17 11  1  0  0  0  0
 17 16  1  1  0  0  0
 20  4  2  0  0  0  0
 22  4  1  6  0  0  0
 22 12  1  0  0  0  0
 23  5  1  0  0  0  0
 23 18  1  1  0  0  0
 25 24  1  1  0  0  0
 26 27  1  1  0  0  0
 26 25  1  0  0  0  0
 26 24  1  0  0  0  0
 28 30  1  0  0  0  0
 28 27  1  0  0  0  0
 29 28  2  0  0  0  0
 31 32  1  0  0  0  0
M  END
>  <MODEL>
6

>  <REMARK>
 VINA RESULT:      -5.0      3.499      5.960
  Name = 
  4 active torsions:
  status: ('A' for Active; 'I' for Inactive)
    1  A    between atoms: C_7  and  C_19
    2  A    between atoms: C_10  and  C_17
    3  A    between atoms: C_20  and  C_29
    4  A    between atoms: C_29  and  C_30
                            x       y       z     vdW  Elec       q    Type
                         _______ _______ _______ _____ _____    ______ ____

>  <TORSDO>
F 4

$$$$
=
 OpenBabel11122410493D

 32 37  0  0  1  0  0  0  0  0999 V2000
  186.5260  176.5090  137.2580 C   0  0  1  0  0  3  0  0  0  0  0  0
  184.7400  172.5620  137.4150 C   0  0  0  0  0  2  0  0  0  0  0  0
  183.4220  173.2770  137.2020 C   0  0  0  0  0  2  0  0  0  0  0  0
  184.5120  177.8880  138.1420 C   0  0  0  0  0  0  0  0  0  0  0  0
  183.0480  178.1610  138.0240 C   0  0  1  0  0  3  0  0  0  0  0  0
  188.5050  177.5790  136.6110 C   0  0  2  0  0  3  0  0  0  0  0  0
  188.2080  175.0820  136.2160 O   0  0  0  0  0  0  0  0  0  0  0  0
  181.2620  178.4980  136.5980 C   0  0  1  0  0  3  0  0  0  0  0  0
  185.8590  173.5840  137.3760 C   0  0  0  0  0  2  0  0  0  0  0  0
  186.8700  175.5200  136.1310 C   0  0  1  0  0  3  0  0  0  0  0  0
  185.8650  174.3660  136.0500 C   0  0  2  0  0  3  0  0  0  0  0  0
  184.2130  176.2560  136.1930 C   0  0  1  0  0  3  0  0  0  0  0  0
  181.3640  179.6510  137.6020 C   0  0  0  0  0  2  0  0  0  0  0  0
  189.0750  176.1200  136.6720 C   0  0  2  0  0  3  0  0  0  0  0  0
  182.6240  179.5110  138.3430 N   0  0  0  0  0  2  0  0  0  0  0  0
  183.4360  173.9150  135.8210 C   0  0  0  0  0  2  0  0  0  0  0  0
  184.5230  174.8970  135.6730 N   0  0  2  0  0  0  0  0  0  0  0  0
  182.7670  176.5320  136.2840 N   0  0  0  0  0  2  0  0  0  0  0  0
  187.1360  177.7480  136.9770 O   0  0  0  0  0  0  0  0  0  0  0  0
  185.2280  178.5580  138.8720 O   0  0  0  0  0  0  0  0  0  0  0  0
  180.9210  179.0370  135.2240 C   0  0  0  0  0  1  0  0  0  0  0  0
  185.0040  176.6130  137.4870 C   0  0  1  0  0  3  0  0  0  0  0  0
  182.6540  177.9480  136.6020 C   0  0  2  0  0  3  0  0  0  0  0  0
  191.0690  175.9580  138.1460 C   0  0  0  0  0  2  0  0  0  0  0  0
  189.5630  175.8070  138.0770 C   0  0  1  0  0  3  0  0  0  0  0  0
  190.1740  177.0540  138.6830 C   0  0  1  0  0  3  0  0  0  0  0  0
  190.0990  176.9540  140.1940 C   0  0  0  0  0  2  0  0  0  0  0  0
  189.1000  177.9260  140.7160 C   0  0  0  0  0  0  0  0  0  0  0  0
  188.9000  178.0490  142.0850 O   0  0  0  0  0  1  0  0  0  0  0  0
  188.4130  178.6130  139.9180 O   0  0  0  0  0  0  0  0  0  0  0  0
  189.7820  177.5150  134.5940 O   0  0  0  0  0  1  0  0  0  0  0  0
  188.7350  178.1790  135.2340 C   0  0  0  0  0  2  0  0  0  0  0  0
  1 19  1  6  0  0  0
  1 22  1  0  0  0  0
  3  2  1  0  0  0  0
  4 20  2  0  0  0  0
  5  4  1  6  0  0  0
  5 15  1  0  0  0  0
  6 32  1  6  0  0  0
  6 14  1  0  0  0  0
  6 19  1  0  0  0  0
  8 21  1  6  0  0  0
  8 23  1  0  0  0  0
  8 13  1  0  0  0  0
  9  2  1  0  0  0  0
 10  7  1  1  0  0  0
 10  1  1  0  0  0  0
 11 10  1  0  0  0  0
 11  9  1  1  0  0  0
 12 18  1  1  0  0  0
 12 22  1  0  0  0  0
 13 15  1  0  0  0  0
 14  7  1  1  0  0  0
 14 25  1  0  0  0  0
 16  3  1  0  0  0  0
 17 16  1  1  0  0  0
 17 11  1  0  0  0  0
 17 12  1  0  0  0  0
 22  4  1  6  0  0  0
 23 18  1  1  0  0  0
 23  5  1  0  0  0  0
 24 26  1  0  0  0  0
 25 24  1  6  0  0  0
 25 26  1  0  0  0  0
 26 27  1  1  0  0  0
 27 28  1  0  0  0  0
 28 29  1  0  0  0  0
 30 28  2  0  0  0  0
 31 32  1  0  0  0  0
M  END
>  <MODEL>
7

>  <REMARK>
 VINA RESULT:      -4.9      2.739      6.916
  Name = 
  4 active torsions:
  status: ('A' for Active; 'I' for Inactive)
    1  A    between atoms: C_7  and  C_19
    2  A    between atoms: C_10  and  C_17
    3  A    between atoms: C_20  and  C_29
    4  A    between atoms: C_29  and  C_30
                            x       y       z     vdW  Elec       q    Type
                         _______ _______ _______ _____ _____    ______ ____

>  <TORSDO>
F 4

$$$$
=
 OpenBabel11122410493D

 32 37  0  0  1  0  0  0  0  0999 V2000
  182.6580  177.5910  137.3550 C   0  0  1  0  0  3  0  0  0  0  0  0
  179.3240  174.9140  136.6420 C   0  0  0  0  0  2  0  0  0  0  0  0
  180.3770  173.8630  136.3650 C   0  0  0  0  0  2  0  0  0  0  0  0
  184.4040  176.4690  135.7950 C   0  0  0  0  0  0  0  0  0  0  0  0
  185.0610  175.1920  135.3850 C   0  0  1  0  0  3  0  0  0  0  0  0
  183.2400  179.4580  138.6410 C   0  0  2  0  0  3  0  0  0  0  0  0
  180.9710  178.3480  138.9470 O   0  0  0  0  0  0  0  0  0  0  0  0
  186.0150  173.2070  136.0840 C   0  0  1  0  0  3  0  0  0  0  0  0
  180.0150  176.1980  137.0570 C   0  0  0  0  0  2  0  0  0  0  0  0
  181.7490  177.2410  138.5470 C   0  0  1  0  0  3  0  0  0  0  0  0
  180.9150  175.9830  138.2870 C   0  0  2  0  0  3  0  0  0  0  0  0
  183.1410  175.0850  137.5400 C   0  0  1  0  0  3  0  0  0  0  0  0
  186.9770  173.9620  135.1620 C   0  0  0  0  0  2  0  0  0  0  0  0
  181.6870  179.5750  138.8080 C   0  0  2  0  0  3  0  0  0  0  0  0
  186.4290  175.3020  134.9150 N   0  0  0  0  0  2  0  0  0  0  0  0
  181.1440  173.5950  137.6510 C   0  0  0  0  0  2  0  0  0  0  0  0
  181.8180  174.8030  138.1580 N   0  0  2  0  0  0  0  0  0  0  0  0
  183.7730  173.8950  136.9400 N   0  0  0  0  0  2  0  0  0  0  0  0
  183.7180  178.3980  137.8130 O   0  0  0  0  0  0  0  0  0  0  0  0
  184.7750  177.5470  135.3540 O   0  0  0  0  0  0  0  0  0  0  0  0
  186.7790  172.5950  137.2400 C   0  0  0  0  0  1  0  0  0  0  0  0
  183.1280  176.3290  136.6030 C   0  0  1  0  0  3  0  0  0  0  0  0
  185.1240  174.3030  136.5800 C   0  0  2  0  0  3  0  0  0  0  0  0
  179.7090  180.8700  138.0450 C   0  0  0  0  0  2  0  0  0  0  0  0
  181.0980  180.3930  137.6710 C   0  0  1  0  0  3  0  0  0  0  0  0
  180.8850  181.8180  138.1390 C   0  0  1  0  0  3  0  0  0  0  0  0
  180.8940  182.7380  136.9340 C   0  0  0  0  0  2  0  0  0  0  0  0
  180.8880  184.1580  137.3820 C   0  0  0  0  0  0  0  0  0  0  0  0
  179.7490  184.6980  137.9630 O   0  0  0  0  0  1  0  0  0  0  0  0
  181.9040  184.8790  137.2050 O   0  0  0  0  0  0  0  0  0  0  0  0
  185.3010  179.3800  139.8460 O   0  0  0  0  0  1  0  0  0  0  0  0
  183.9140  179.3750  140.0010 C   0  0  0  0  0  2  0  0  0  0  0  0
  1 19  1  1  0  0  0
  1 10  1  0  0  0  0
  2  9  1  0  0  0  0
  3  2  1  0  0  0  0
  3 16  1  0  0  0  0
  5 15  1  1  0  0  0
  5  4  1  0  0  0  0
  5 23  1  0  0  0  0
  6 14  1  0  0  0  0
  6 32  1  1  0  0  0
  8 23  1  0  0  0  0
  8 21  1  1  0  0  0
 10  7  1  6  0  0  0
 11  9  1  6  0  0  0
 11 10  1  0  0  0  0
 12 18  1  6  0  0  0
 12 17  1  0  0  0  0
 13  8  1  0  0  0  0
 14  7  1  6  0  0  0
 15 13  1  0  0  0  0
 17 16  1  6  0  0  0
 17 11  1  0  0  0  0
 19  6  1  0  0  0  0
 20  4  2  0  0  0  0
 22  4  1  1  0  0  0
 22  1  1  0  0  0  0
 22 12  1  0  0  0  0
 23 18  1  6  0  0  0
 24 26  1  0  0  0  0
 25 24  1  1  0  0  0
 25 26  1  0  0  0  0
 25 14  1  0  0  0  0
 26 27  1  6  0  0  0
 27 28  1  0  0  0  0
 28 29  1  0  0  0  0
 30 28  2  0  0  0  0
 31 32  1  0  0  0  0
M  END
>  <MODEL>
8

>  <REMARK>
 VINA RESULT:      -4.9      2.180      2.941
  Name = 
  4 active torsions:
  status: ('A' for Active; 'I' for Inactive)
    1  A    between atoms: C_7  and  C_19
    2  A    between atoms: C_10  and  C_17
    3  A    between atoms: C_20  and  C_29
    4  A    between atoms: C_29  and  C_30
                            x       y       z     vdW  Elec       q    Type
                         _______ _______ _______ _____ _____    ______ ____

>  <TORSDO>
F 4

$$$$
=
 OpenBabel11122410493D

 32 37  0  0  1  0  0  0  0  0999 V2000
  184.4160  176.9180  137.5400 C   0  0  1  0  0  3  0  0  0  0  0  0
  181.4200  174.8780  135.1630 C   0  0  0  0  0  2  0  0  0  0  0  0
  180.4250  175.8010  135.8350 C   0  0  0  0  0  2  0  0  0  0  0  0
  182.9290  177.5850  139.5600 C   0  0  0  0  0  0  0  0  0  0  0  0
  181.6460  178.2090  140.0040 C   0  0  1  0  0  3  0  0  0  0  0  0
  186.6680  177.5510  137.4630 C   0  0  2  0  0  3  0  0  0  0  0  0
  185.5830  176.4250  135.4550 O   0  0  0  0  0  0  0  0  0  0  0  0
  180.1480  179.9440  139.7140 C   0  0  1  0  0  3  0  0  0  0  0  0
  182.8140  175.2390  135.6360 C   0  0  0  0  0  2  0  0  0  0  0  0
  184.4710  177.0910  136.0120 C   0  0  1  0  0  3  0  0  0  0  0  0
  183.1470  176.7130  135.3410 C   0  0  2  0  0  3  0  0  0  0  0  0
  182.2080  178.1570  137.1720 C   0  0  1  0  0  3  0  0  0  0  0  0
  180.5730  179.8500  141.1830 C   0  0  0  0  0  2  0  0  0  0  0  0
  186.7200  176.4840  136.3160 C   0  0  2  0  0  3  0  0  0  0  0  0
  181.6760  178.8850  141.2860 N   0  0  0  0  0  2  0  0  0  0  0  0
  180.7210  177.2290  135.3980 C   0  0  0  0  0  2  0  0  0  0  0  0
  182.0780  177.6560  135.7770 N   0  0  2  0  0  0  0  0  0  0  0  0
  180.9320  178.6190  137.7490 N   0  0  0  0  0  2  0  0  0  0  0  0
  185.4150  177.7210  138.1250 O   0  0  0  0  0  0  0  0  0  0  0  0
  183.7870  177.2540  140.3650 O   0  0  0  0  0  0  0  0  0  0  0  0
  180.0760  181.3960  139.2890 C   0  0  0  0  0  1  0  0  0  0  0  0
  183.0050  177.1910  138.0980 C   0  0  1  0  0  3  0  0  0  0  0  0
  181.2780  179.2580  139.0110 C   0  0  2  0  0  3  0  0  0  0  0  0
  186.6420  174.0390  135.8830 C   0  0  0  0  0  2  0  0  0  0  0  0
  187.0030  175.1070  136.8950 C   0  0  1  0  0  3  0  0  0  0  0  0
  188.0890  174.4370  136.0780 C   0  0  1  0  0  3  0  0  0  0  0  0
  188.7880  173.4050  136.9420 C   0  0  0  0  0  2  0  0  0  0  0  0
  190.2550  173.6550  136.9420 C   0  0  0  0  0  0  0  0  0  0  0  0
  190.8280  174.4340  137.9390 O   0  0  0  0  0  1  0  0  0  0  0  0
  190.9740  173.1890  136.0200 O   0  0  0  0  0  0  0  0  0  0  0  0
  188.4140  179.1810  137.4840 O   0  0  0  0  0  1  0  0  0  0  0  0
  187.1550  178.8980  136.9540 C   0  0  0  0  0  2  0  0  0  0  0  0
  1 22  1  0  0  0  0
  1 19  1  1  0  0  0
  2  9  1  0  0  0  0
  2  3  1  0  0  0  0
  4 20  2  0  0  0  0
  5  4  1  6  0  0  0
  5 15  1  0  0  0  0
  6 32  1  6  0  0  0
  6 19  1  0  0  0  0
  8 21  1  6  0  0  0
  8 13  1  0  0  0  0
 10  7  1  6  0  0  0
 10  1  1  0  0  0  0
 11  9  1  1  0  0  0
 11 17  1  0  0  0  0
 11 10  1  0  0  0  0
 12 18  1  1  0  0  0
 12 22  1  0  0  0  0
 13 15  1  0  0  0  0
 14  7  1  1  0  0  0
 14 25  1  0  0  0  0
 14  6  1  0  0  0  0
 16  3  1  0  0  0  0
 17 16  1  1  0  0  0
 17 12  1  0  0  0  0
 22  4  1  1  0  0  0
 23 18  1  6  0  0  0
 23  8  1  0  0  0  0
 23  5  1  0  0  0  0
 24 26  1  0  0  0  0
 25 24  1  6  0  0  0
 26 25  1  0  0  0  0
 26 27  1  1  0  0  0
 28 27  1  0  0  0  0
 28 29  1  0  0  0  0
 30 28  2  0  0  0  0
 32 31  1  0  0  0  0
M  END
>  <MODEL>
9

>  <REMARK>
 VINA RESULT:      -4.7      3.002      7.804
  Name = 
  4 active torsions:
  status: ('A' for Active; 'I' for Inactive)
    1  A    between atoms: C_7  and  C_19
    2  A    between atoms: C_10  and  C_17
    3  A    between atoms: C_20  and  C_29
    4  A    between atoms: C_29  and  C_30
                            x       y       z     vdW  Elec       q    Type
                         _______ _______ _______ _____ _____    ______ ____

>  <TORSDO>
F 4

$$$$
