=
 OpenBabel11122411113D

 31 35  0  0  1  0  0  0  0  0999 V2000
  191.3370  176.4320  144.6500 C   0  0  0  0  0  0  0  0  0  0  0  0
  187.6710  177.0110  143.7970 C   0  0  2  0  0  3  0  0  0  0  0  0
  187.0410  177.7980  144.9290 C   0  0  0  0  0  0  0  0  0  0  0  0
  186.9360  178.4460  147.2860 C   0  0  0  0  0  0  0  0  0  0  0  0
  189.1800  177.1000  143.7590 C   0  0  0  0  0  0  0  0  0  0  0  0
  191.9800  177.2460  143.7130 C   0  0  0  0  0  3  0  0  0  0  0  0
  187.5780  177.7670  146.1540 C   0  0  0  0  0  3  0  0  0  0  0  0
  187.6220  178.6670  141.8530 C   0  0  2  0  0  3  0  0  0  0  0  0
  192.0660  175.7170  145.5390 F   0  0  0  0  0  0  0  0  0  0  0  0
  185.1330  178.5160  143.3410 C   0  0  0  0  0  2  0  0  0  0  0  0
  187.4810  178.4120  148.4190 O   0  0  0  0  0  0  0  0  0  0  0  0
  189.0800  178.6170  141.8220 N   0  0  0  0  0  2  0  0  0  0  0  0
  187.0490  177.3590  142.4280 C   0  0  2  0  0  3  0  0  0  0  0  0
  189.9420  176.3570  144.6700 C   0  0  0  0  0  3  0  0  0  0  0  0
  185.6350  179.1760  147.1120 C   0  0  0  0  0  2  0  0  0  0  0  0
  189.8320  177.9150  142.8130 C   0  0  0  0  0  0  0  0  0  0  0  0
  191.2290  177.9800  142.7920 C   0  0  0  0  0  3  0  0  0  0  0  0
  185.5830  177.3920  142.5170 N   0  0  0  0  0  2  0  0  0  0  0  0
  185.7310  178.4670  144.7140 C   0  0  0  0  0  0  0  0  0  0  0  0
  185.1050  179.1080  145.7050 C   0  0  0  0  0  3  0  0  0  0  0  0
  188.4530  177.2530  139.5240 O   0  0  0  0  0  0  0  0  0  0  0  0
  187.5660  178.1390  139.3830 C   0  0  0  0  0  0  0  0  0  0  0  0
  187.1110  178.8900  140.5080 N   0  0  0  0  0  2  0  0  0  0  0  0
  187.7000  176.4330  136.0630 C   0  0  1  0  0  3  0  0  0  0  0  0
  186.0610  177.2910  137.5610 C   0  0  0  0  0  2  0  0  0  0  0  0
  188.9660  179.6660  137.4160 O   0  0  0  0  0  1  0  0  0  0  0  0
  188.4010  175.1800  135.5840 C   0  0  0  0  0  1  0  0  0  0  0  0
  186.8370  176.1040  137.1970 N   0  0  0  0  0  2  0  0  0  0  0  0
  188.0340  178.7340  136.9560 C   0  0  2  0  0  3  0  0  0  0  0  0
  186.9800  178.4250  138.0300 C   0  0  2  0  0  3  0  0  0  0  0  0
  188.7410  177.4670  136.4800 C   0  0  0  0  0  2  0  0  0  0  0  0
  1 14  1  0  0  0  0
  1  9  1  0  0  0  0
  2  5  1  6  0  0  0
  2  3  1  0  0  0  0
  3  7  2  0  0  0  0
  4 11  2  0  0  0  0
  5 14  2  0  0  0  0
  6  1  2  0  0  0  0
  7  4  1  0  0  0  0
  8 23  1  6  0  0  0
  8 13  1  0  0  0  0
 10 19  1  0  0  0  0
 12  8  1  0  0  0  0
 12 16  1  0  0  0  0
 13 18  1  1  0  0  0
 13  2  1  0  0  0  0
 15  4  1  0  0  0  0
 16  5  1  0  0  0  0
 17 16  2  0  0  0  0
 17  6  1  0  0  0  0
 18 10  1  0  0  0  0
 19  3  1  0  0  0  0
 19 20  2  0  0  0  0
 20 15  1  0  0  0  0
 22 21  2  0  0  0  0
 22 23  1  0  0  0  0
 24 27  1  1  0  0  0
 24 31  1  0  0  0  0
 24 28  1  0  0  0  0
 25 30  1  0  0  0  0
 28 25  1  0  0  0  0
 29 26  1  1  0  0  0
 29 30  1  0  0  0  0
 30 22  1  1  0  0  0
 31 29  1  0  0  0  0
M  END
>  <MODEL>
1

>  <REMARK>
 VINA RESULT:      -9.4      0.000      0.000
  Name = 
  2 active torsions:
  status: ('A' for Active; 'I' for Inactive)
    1  A    between atoms: C_5  and  C_30
    2  A    between atoms: C_10  and  N_16
                            x       y       z     vdW  Elec       q    Type
                         _______ _______ _______ _____ _____    ______ ____

>  <TORSDO>
F 2

$$$$
=
 OpenBabel11122411113D

 31 35  0  0  1  0  0  0  0  0999 V2000
  189.9200  176.0090  142.6120 C   0  0  0  0  0  0  0  0  0  0  0  0
  186.6310  177.1450  144.1610 C   0  0  2  0  0  3  0  0  0  0  0  0
  186.9390  177.8100  145.4880 C   0  0  0  0  0  0  0  0  0  0  0  0
  188.3480  178.0810  147.4710 C   0  0  0  0  0  0  0  0  0  0  0  0
  187.8220  177.0600  143.2320 C   0  0  0  0  0  0  0  0  0  0  0  0
  190.0390  176.8800  141.5250 C   0  0  0  0  0  3  0  0  0  0  0  0
  188.0700  177.5210  146.1430 C   0  0  0  0  0  3  0  0  0  0  0  0
  185.7790  179.0840  142.7340 C   0  0  2  0  0  3  0  0  0  0  0  0
  190.8780  175.0800  142.8440 F   0  0  0  0  0  0  0  0  0  0  0  0
  184.6440  178.9920  145.4050 C   0  0  0  0  0  2  0  0  0  0  0  0
  189.4300  177.8030  148.0460 O   0  0  0  0  0  0  0  0  0  0  0  0
  186.9060  178.8680  141.8330 N   0  0  0  0  0  2  0  0  0  0  0  0
  185.4110  177.7780  143.4610 C   0  0  2  0  0  3  0  0  0  0  0  0
  188.8120  176.0960  143.4600 C   0  0  0  0  0  3  0  0  0  0  0  0
  187.3560  178.9780  148.1530 C   0  0  0  0  0  2  0  0  0  0  0  0
  187.9440  177.9320  142.1320 C   0  0  0  0  0  0  0  0  0  0  0  0
  189.0490  177.8350  141.2830 C   0  0  0  0  0  3  0  0  0  0  0  0
  184.3070  177.9690  144.4120 N   0  0  0  0  0  2  0  0  0  0  0  0
  185.9040  178.6540  146.1400 C   0  0  0  0  0  0  0  0  0  0  0  0
  186.1050  179.1990  147.3430 C   0  0  0  0  0  3  0  0  0  0  0  0
  184.1220  177.5040  141.0400 O   0  0  0  0  0  0  0  0  0  0  0  0
  183.8410  178.7290  141.1530 C   0  0  0  0  0  0  0  0  0  0  0  0
  184.6360  179.5780  141.9800 N   0  0  0  0  0  2  0  0  0  0  0  0
  181.8380  177.6870  138.1770 C   0  0  1  0  0  3  0  0  0  0  0  0
  181.4640  178.3710  140.4260 C   0  0  0  0  0  2  0  0  0  0  0  0
  184.1810  180.4860  138.9270 O   0  0  0  0  0  1  0  0  0  0  0  0
  181.9320  176.4970  137.2470 C   0  0  0  0  0  1  0  0  0  0  0  0
  181.6940  177.2170  139.5540 N   0  0  0  0  0  2  0  0  0  0  0  0
  183.0030  179.7380  138.9750 C   0  0  2  0  0  3  0  0  0  0  0  0
  182.6720  179.3150  140.4150 C   0  0  2  0  0  3  0  0  0  0  0  0
  183.1000  178.5340  138.0430 C   0  0  0  0  0  2  0  0  0  0  0  0
  1  9  1  0  0  0  0
  1 14  1  0  0  0  0
  2  5  1  6  0  0  0
  2  3  1  0  0  0  0
  3 19  1  0  0  0  0
  3  7  2  0  0  0  0
  4 11  2  0  0  0  0
  4 15  1  0  0  0  0
  5 14  2  0  0  0  0
  6  1  2  0  0  0  0
  7  4  1  0  0  0  0
  8 23  1  6  0  0  0
  8 13  1  0  0  0  0
 10 19  1  0  0  0  0
 12 16  1  0  0  0  0
 12  8  1  0  0  0  0
 13  2  1  0  0  0  0
 13 18  1  1  0  0  0
 16  5  1  0  0  0  0
 17  6  1  0  0  0  0
 17 16  2  0  0  0  0
 18 10  1  0  0  0  0
 19 20  2  0  0  0  0
 20 15  1  0  0  0  0
 21 22  2  0  0  0  0
 22 23  1  0  0  0  0
 24 27  1  6  0  0  0
 24 28  1  0  0  0  0
 28 25  1  0  0  0  0
 29 26  1  1  0  0  0
 29 30  1  0  0  0  0
 30 25  1  0  0  0  0
 30 22  1  6  0  0  0
 31 24  1  0  0  0  0
 31 29  1  0  0  0  0
M  END
>  <MODEL>
2

>  <REMARK>
 VINA RESULT:      -9.3      2.989      3.575
  Name = 
  2 active torsions:
  status: ('A' for Active; 'I' for Inactive)
    1  A    between atoms: C_5  and  C_30
    2  A    between atoms: C_10  and  N_16
                            x       y       z     vdW  Elec       q    Type
                         _______ _______ _______ _____ _____    ______ ____

>  <TORSDO>
F 2

$$$$
=
 OpenBabel11122411113D

 31 35  0  0  1  0  0  0  0  0999 V2000
  190.1460  175.9870  142.7280 C   0  0  0  0  0  0  0  0  0  0  0  0
  186.5960  177.1520  143.4710 C   0  0  2  0  0  3  0  0  0  0  0  0
  186.6020  177.8600  144.8110 C   0  0  0  0  0  0  0  0  0  0  0  0
  187.5350  178.2010  147.0480 C   0  0  0  0  0  0  0  0  0  0  0  0
  187.9640  177.0450  142.8320 C   0  0  0  0  0  0  0  0  0  0  0  0
  190.5050  176.8240  141.6680 C   0  0  0  0  0  3  0  0  0  0  0  0
  187.5590  177.5980  145.7100 C   0  0  0  0  0  3  0  0  0  0  0  0
  186.0850  179.0410  141.8290 C   0  0  2  0  0  3  0  0  0  0  0  0
  191.0270  175.0720  143.1960 F   0  0  0  0  0  0  0  0  0  0  0  0
  184.3840  179.0260  144.1820 C   0  0  0  0  0  2  0  0  0  0  0  0
  188.4630  177.9480  147.8580 O   0  0  0  0  0  0  0  0  0  0  0  0
  187.3840  178.8030  141.2080 N   0  0  0  0  0  2  0  0  0  0  0  0
  185.5630  177.7560  142.4970 C   0  0  2  0  0  3  0  0  0  0  0  0
  188.8770  176.0950  143.3050 C   0  0  0  0  0  3  0  0  0  0  0  0
  186.4170  179.1130  147.4630 C   0  0  0  0  0  2  0  0  0  0  0  0
  188.3280  177.8830  141.7600 C   0  0  0  0  0  0  0  0  0  0  0  0
  189.5940  177.7660  141.1810 C   0  0  0  0  0  3  0  0  0  0  0  0
  184.2760  177.9700  143.1730 N   0  0  0  0  0  2  0  0  0  0  0  0
  185.4500  178.7180  145.1890 C   0  0  0  0  0  0  0  0  0  0  0  0
  185.3790  179.3020  146.3890 C   0  0  0  0  0  3  0  0  0  0  0  0
  185.6680  177.8310  139.2840 O   0  0  0  0  0  0  0  0  0  0  0  0
  184.9740  178.8450  139.5680 C   0  0  0  0  0  0  0  0  0  0  0  0
  185.1390  179.5040  140.8240 N   0  0  0  0  0  2  0  0  0  0  0  0
  181.2890  178.4270  139.1140 C   0  0  1  0  0  3  0  0  0  0  0  0
  182.8740  180.1950  139.2920 C   0  0  0  0  0  2  0  0  0  0  0  0
  184.3110  177.4580  137.1610 O   0  0  0  0  0  1  0  0  0  0  0  0
  180.2520  177.6180  139.8610 C   0  0  0  0  0  1  0  0  0  0  0  0
  181.9740  179.3210  140.0470 N   0  0  0  0  0  2  0  0  0  0  0  0
  183.3370  178.2980  137.7010 C   0  0  2  0  0  3  0  0  0  0  0  0
  183.9680  179.3810  138.5900 C   0  0  2  0  0  3  0  0  0  0  0  0
  182.2940  177.4830  138.4610 C   0  0  0  0  0  2  0  0  0  0  0  0
  1  9  1  0  0  0  0
  1 14  1  0  0  0  0
  2  5  1  6  0  0  0
  2  3  1  0  0  0  0
  3 19  1  0  0  0  0
  3  7  2  0  0  0  0
  4 15  1  0  0  0  0
  4 11  2  0  0  0  0
  5 14  2  0  0  0  0
  6  1  2  0  0  0  0
  7  4  1  0  0  0  0
  8 23  1  6  0  0  0
  8 13  1  0  0  0  0
 10 19  1  0  0  0  0
 12 16  1  0  0  0  0
 12  8  1  0  0  0  0
 13 18  1  1  0  0  0
 13  2  1  0  0  0  0
 16  5  1  0  0  0  0
 17  6  1  0  0  0  0
 17 16  2  0  0  0  0
 18 10  1  0  0  0  0
 19 20  2  0  0  0  0
 20 15  1  0  0  0  0
 21 22  2  0  0  0  0
 22 23  1  0  0  0  0
 24 27  1  1  0  0  0
 24 28  1  0  0  0  0
 25 28  1  0  0  0  0
 29 26  1  1  0  0  0
 29 31  1  0  0  0  0
 29 30  1  0  0  0  0
 30 25  1  0  0  0  0
 30 22  1  1  0  0  0
 31 24  1  0  0  0  0
M  END
>  <MODEL>
3

>  <REMARK>
 VINA RESULT:      -9.1      2.647      3.520
  Name = 
  2 active torsions:
  status: ('A' for Active; 'I' for Inactive)
    1  A    between atoms: C_5  and  C_30
    2  A    between atoms: C_10  and  N_16
                            x       y       z     vdW  Elec       q    Type
                         _______ _______ _______ _____ _____    ______ ____

>  <TORSDO>
F 2

$$$$
=
 OpenBabel11122411113D

 31 35  0  0  1  0  0  0  0  0999 V2000
  190.6620  176.7530  146.5110 C   0  0  0  0  0  0  0  0  0  0  0  0
  187.8740  177.0190  143.9300 C   0  0  2  0  0  3  0  0  0  0  0  0
  186.7690  177.8760  144.5150 C   0  0  0  0  0  0  0  0  0  0  0  0
  185.5260  178.7490  146.4330 C   0  0  0  0  0  0  0  0  0  0  0  0
  189.2100  177.1960  144.6170 C   0  0  0  0  0  0  0  0  0  0  0  0
  191.6770  177.5060  145.9140 C   0  0  0  0  0  3  0  0  0  0  0  0
  186.6410  178.0000  145.8410 C   0  0  0  0  0  3  0  0  0  0  0  0
  188.7720  178.4660  142.0260 C   0  0  2  0  0  3  0  0  0  0  0  0
  190.8680  176.1760  147.7190 F   0  0  0  0  0  0  0  0  0  0  0  0
  185.8750  178.3140  142.1310 C   0  0  0  0  0  2  0  0  0  0  0  0
  185.4500  178.8620  147.6830 O   0  0  0  0  0  0  0  0  0  0  0  0
  190.0600  178.5020  142.7100 N   0  0  0  0  0  2  0  0  0  0  0  0
  187.9970  177.1900  142.4010 C   0  0  2  0  0  3  0  0  0  0  0  0
  189.4340  176.5950  145.8620 C   0  0  0  0  0  3  0  0  0  0  0  0
  184.4720  179.3780  145.5680 C   0  0  0  0  0  2  0  0  0  0  0  0
  190.2380  177.9490  144.0160 C   0  0  0  0  0  0  0  0  0  0  0  0
  191.4670  178.0960  144.6650 C   0  0  0  0  0  3  0  0  0  0  0  0
  186.6740  177.1420  141.7650 N   0  0  0  0  0  2  0  0  0  0  0  0
  185.7280  178.4390  143.6160 C   0  0  0  0  0  0  0  0  0  0  0  0
  184.6950  179.1370  144.0980 C   0  0  0  0  0  3  0  0  0  0  0  0
  190.2270  176.5500  140.5010 O   0  0  0  0  0  0  0  0  0  0  0  0
  189.7150  177.5220  139.8810 C   0  0  0  0  0  0  0  0  0  0  0  0
  188.9810  178.5220  140.5860 N   0  0  0  0  0  2  0  0  0  0  0  0
  187.3710  177.3690  136.9770 C   0  0  1  0  0  3  0  0  0  0  0  0
  189.0550  178.8170  137.8330 C   0  0  0  0  0  2  0  0  0  0  0  0
  190.1810  175.2540  138.2080 O   0  0  0  0  0  1  0  0  0  0  0  0
  185.8790  177.1320  136.8770 C   0  0  0  0  0  1  0  0  0  0  0  0
  187.6240  178.5100  137.8560 N   0  0  0  0  0  2  0  0  0  0  0  0
  189.5510  176.3560  137.6270 C   0  0  2  0  0  3  0  0  0  0  0  0
  189.8750  177.6490  138.3930 C   0  0  2  0  0  3  0  0  0  0  0  0
  188.0460  176.1200  137.5340 C   0  0  0  0  0  2  0  0  0  0  0  0
  1  9  1  0  0  0  0
  2  3  1  1  0  0  0
  2  5  1  0  0  0  0
  3  7  2  0  0  0  0
  4 11  2  0  0  0  0
  5 14  1  0  0  0  0
  6  1  1  0  0  0  0
  7  4  1  0  0  0  0
  8 23  1  6  0  0  0
  8 13  1  0  0  0  0
  8 12  1  0  0  0  0
 10 19  1  0  0  0  0
 12 16  1  0  0  0  0
 13 18  1  6  0  0  0
 13  2  1  0  0  0  0
 14  1  2  0  0  0  0
 15  4  1  0  0  0  0
 16  5  2  0  0  0  0
 16 17  1  0  0  0  0
 17  6  2  0  0  0  0
 18 10  1  0  0  0  0
 19 20  2  0  0  0  0
 19  3  1  0  0  0  0
 20 15  1  0  0  0  0
 22 21  2  0  0  0  0
 22 23  1  0  0  0  0
 24 27  1  1  0  0  0
 24 31  1  0  0  0  0
 24 28  1  0  0  0  0
 25 28  1  0  0  0  0
 25 30  1  0  0  0  0
 29 26  1  1  0  0  0
 29 30  1  0  0  0  0
 30 22  1  1  0  0  0
 31 29  1  0  0  0  0
M  END
>  <MODEL>
4

>  <REMARK>
 VINA RESULT:      -8.7      1.691      2.092
  Name = 
  2 active torsions:
  status: ('A' for Active; 'I' for Inactive)
    1  A    between atoms: C_5  and  C_30
    2  A    between atoms: C_10  and  N_16
                            x       y       z     vdW  Elec       q    Type
                         _______ _______ _______ _____ _____    ______ ____

>  <TORSDO>
F 2

$$$$
=
 OpenBabel11122411113D

 31 35  0  0  1  0  0  0  0  0999 V2000
  189.1240  177.8750  144.3980 C   0  0  0  0  0  0  0  0  0  0  0  0
  187.1200  178.9290  141.3360 C   0  0  2  0  0  3  0  0  0  0  0  0
  187.5750  178.0870  140.1610 C   0  0  0  0  0  0  0  0  0  0  0  0
  189.2890  176.7810  138.9990 C   0  0  0  0  0  0  0  0  0  0  0  0
  187.4700  178.3350  142.6820 C   0  0  0  0  0  0  0  0  0  0  0  0
  188.1480  177.2450  145.1750 C   0  0  0  0  0  3  0  0  0  0  0  0
  188.7890  177.5240  140.1620 C   0  0  0  0  0  3  0  0  0  0  0  0
  184.7240  178.1310  141.7160 C   0  0  2  0  0  3  0  0  0  0  0  0
  190.3990  177.9560  144.8480 F   0  0  0  0  0  0  0  0  0  0  0  0
  185.3720  178.6440  138.9330 C   0  0  0  0  0  2  0  0  0  0  0  0
  190.4260  176.2480  139.0460 O   0  0  0  0  0  0  0  0  0  0  0  0
  185.1250  177.6750  143.0430 N   0  0  0  0  0  2  0  0  0  0  0  0
  185.6220  179.2900  141.2490 C   0  0  2  0  0  3  0  0  0  0  0  0
  188.7850  178.4230  143.1580 C   0  0  0  0  0  3  0  0  0  0  0  0
  188.4610  176.6520  137.7530 C   0  0  0  0  0  2  0  0  0  0  0  0
  186.4890  177.7040  143.4710 C   0  0  0  0  0  0  0  0  0  0  0  0
  186.8320  177.1650  144.7140 C   0  0  0  0  0  3  0  0  0  0  0  0
  185.2750  179.7450  139.8950 N   0  0  0  0  0  2  0  0  0  0  0  0
  186.7370  178.0280  138.9350 C   0  0  0  0  0  0  0  0  0  0  0  0
  187.1350  177.3590  137.8490 C   0  0  0  0  0  3  0  0  0  0  0  0
  182.6330  177.0150  140.1360 O   0  0  0  0  0  0  0  0  0  0  0  0
  182.3300  177.9460  140.9300 C   0  0  0  0  0  0  0  0  0  0  0  0
  183.3310  178.5550  141.7450 N   0  0  0  0  0  2  0  0  0  0  0  0
  179.2170  177.3550  138.9520 C   0  0  1  0  0  3  0  0  0  0  0  0
  179.9270  177.2800  141.2230 C   0  0  0  0  0  2  0  0  0  0  0  0
  181.4380  180.2850  139.5550 O   0  0  0  0  0  1  0  0  0  0  0  0
  178.9310  176.5250  137.7190 C   0  0  0  0  0  1  0  0  0  0  0  0
  179.7850  176.4990  139.9930 N   0  0  0  0  0  2  0  0  0  0  0  0
  180.4820  179.3090  139.8380 C   0  0  2  0  0  3  0  0  0  0  0  0
  180.9140  178.4370  141.0280 C   0  0  2  0  0  3  0  0  0  0  0  0
  180.1980  178.4670  138.5960 C   0  0  0  0  0  2  0  0  0  0  0  0
  1  9  1  0  0  0  0
  1  6  1  0  0  0  0
  2  3  1  6  0  0  0
  2  5  1  0  0  0  0
  3  7  2  0  0  0  0
  4 11  2  0  0  0  0
  4  7  1  0  0  0  0
  5 14  1  0  0  0  0
  5 16  2  0  0  0  0
  8 23  1  1  0  0  0
  8 12  1  0  0  0  0
 10 19  1  0  0  0  0
 10 18  1  0  0  0  0
 12 16  1  0  0  0  0
 13 18  1  6  0  0  0
 13  2  1  0  0  0  0
 13  8  1  0  0  0  0
 14  1  2  0  0  0  0
 15 20  1  0  0  0  0
 15  4  1  0  0  0  0
 16 17  1  0  0  0  0
 17  6  2  0  0  0  0
 19  3  1  0  0  0  0
 20 19  2  0  0  0  0
 21 22  2  0  0  0  0
 22 23  1  0  0  0  0
 24 27  1  6  0  0  0
 24 28  1  0  0  0  0
 28 25  1  0  0  0  0
 29 26  1  6  0  0  0
 29 30  1  0  0  0  0
 30 22  1  6  0  0  0
 30 25  1  0  0  0  0
 31 24  1  0  0  0  0
 31 29  1  0  0  0  0
M  END
>  <MODEL>
5

>  <REMARK>
 VINA RESULT:      -7.8      3.733      6.270
  Name = 
  2 active torsions:
  status: ('A' for Active; 'I' for Inactive)
    1  A    between atoms: C_5  and  C_30
    2  A    between atoms: C_10  and  N_16
                            x       y       z     vdW  Elec       q    Type
                         _______ _______ _______ _____ _____    ______ ____

>  <TORSDO>
F 2

$$$$
=
 OpenBabel11122411113D

 31 35  0  0  1  0  0  0  0  0999 V2000
  184.9480  178.6280  138.9210 C   0  0  0  0  0  0  0  0  0  0  0  0
  188.6560  178.2170  139.6880 C   0  0  2  0  0  3  0  0  0  0  0  0
  188.7870  177.4790  141.0060 C   0  0  0  0  0  0  0  0  0  0  0  0
  187.9250  176.8750  143.2150 C   0  0  0  0  0  0  0  0  0  0  0  0
  187.3040  178.0530  139.0300 C   0  0  0  0  0  0  0  0  0  0  0  0
  184.7850  177.7690  137.8300 C   0  0  0  0  0  3  0  0  0  0  0  0
  187.7880  177.5030  141.8960 C   0  0  0  0  0  3  0  0  0  0  0  0
  189.5730  176.5340  137.9990 C   0  0  2  0  0  3  0  0  0  0  0  0
  183.8880  179.3200  139.4020 F   0  0  0  0  0  0  0  0  0  0  0  0
  191.2080  176.8310  140.3800 C   0  0  0  0  0  2  0  0  0  0  0  0
  186.9580  176.8990  144.0170 O   0  0  0  0  0  0  0  0  0  0  0  0
  188.2600  176.5120  137.3640 N   0  0  0  0  0  2  0  0  0  0  0  0
  189.8040  177.8780  138.7140 C   0  0  2  0  0  3  0  0  0  0  0  0
  186.2050  178.7720  139.5160 C   0  0  0  0  0  3  0  0  0  0  0  0
  189.2070  176.2060  143.6220 C   0  0  0  0  0  2  0  0  0  0  0  0
  187.1370  177.1920  137.9270 C   0  0  0  0  0  0  0  0  0  0  0  0
  185.8800  177.0590  137.3310 C   0  0  0  0  0  3  0  0  0  0  0  0
  191.1000  177.9190  139.4040 N   0  0  0  0  0  2  0  0  0  0  0  0
  190.0920  176.8720  141.3770 C   0  0  0  0  0  0  0  0  0  0  0  0
  190.2730  176.2780  142.5600 C   0  0  0  0  0  3  0  0  0  0  0  0
  191.3980  174.3470  137.9690 O   0  0  0  0  0  0  0  0  0  0  0  0
  191.4840  175.1920  137.0360 C   0  0  0  0  0  0  0  0  0  0  0  0
  190.6060  176.3160  136.9960 N   0  0  0  0  0  2  0  0  0  0  0  0
  194.5360  173.0770  136.6250 C   0  0  1  0  0  3  0  0  0  0  0  0
  192.5540  173.6010  135.4140 C   0  0  0  0  0  2  0  0  0  0  0  0
  193.8930  176.7270  137.0060 O   0  0  0  0  0  1  0  0  0  0  0  0
  195.2020  172.0570  137.5230 C   0  0  0  0  0  1  0  0  0  0  0  0
  193.1460  172.6860  136.3930 N   0  0  0  0  0  2  0  0  0  0  0  0
  193.9250  175.4790  136.3820 C   0  0  2  0  0  3  0  0  0  0  0  0
  192.5170  175.0340  135.9560 C   0  0  2  0  0  3  0  0  0  0  0  0
  194.5900  174.4480  137.2910 C   0  0  0  0  0  2  0  0  0  0  0  0
  1  9  1  0  0  0  0
  1 14  1  0  0  0  0
  2  5  1  6  0  0  0
  2  3  1  0  0  0  0
  3 19  1  0  0  0  0
  3  7  2  0  0  0  0
  4 15  1  0  0  0  0
  4 11  2  0  0  0  0
  5 14  2  0  0  0  0
  6  1  2  0  0  0  0
  7  4  1  0  0  0  0
  8 23  1  6  0  0  0
  8 13  1  0  0  0  0
 10 19  1  0  0  0  0
 12 16  1  0  0  0  0
 12  8  1  0  0  0  0
 13 18  1  1  0  0  0
 13  2  1  0  0  0  0
 16  5  1  0  0  0  0
 17  6  1  0  0  0  0
 17 16  2  0  0  0  0
 18 10  1  0  0  0  0
 19 20  2  0  0  0  0
 20 15  1  0  0  0  0
 22 21  2  0  0  0  0
 23 22  1  0  0  0  0
 24 31  1  0  0  0  0
 24 27  1  1  0  0  0
 25 30  1  0  0  0  0
 25 28  1  0  0  0  0
 28 24  1  0  0  0  0
 29 26  1  1  0  0  0
 29 31  1  0  0  0  0
 30 29  1  0  0  0  0
 30 22  1  1  0  0  0
M  END
>  <MODEL>
6

>  <REMARK>
 VINA RESULT:      -7.7      4.156      6.462
  Name = 
  2 active torsions:
  status: ('A' for Active; 'I' for Inactive)
    1  A    between atoms: C_5  and  C_30
    2  A    between atoms: C_10  and  N_16
                            x       y       z     vdW  Elec       q    Type
                         _______ _______ _______ _____ _____    ______ ____

>  <TORSDO>
F 2

$$$$
=
 OpenBabel11122411113D

 31 35  0  0  1  0  0  0  0  0999 V2000
  179.7110  179.2350  143.3230 C   0  0  0  0  0  0  0  0  0  0  0  0
  183.2780  179.3850  141.9950 C   0  0  2  0  0  3  0  0  0  0  0  0
  184.1990  178.8070  143.0510 C   0  0  0  0  0  0  0  0  0  0  0  0
  184.7380  178.3220  145.3880 C   0  0  0  0  0  0  0  0  0  0  0  0
  181.8290  178.9820  142.1650 C   0  0  0  0  0  0  0  0  0  0  0  0
  179.1420  178.2570  142.5020 C   0  0  0  0  0  3  0  0  0  0  0  0
  183.8280  178.7910  144.3370 C   0  0  0  0  0  3  0  0  0  0  0  0
  183.4300  177.6730  140.1050 C   0  0  2  0  0  3  0  0  0  0  0  0
  178.9650  179.8290  144.2840 F   0  0  0  0  0  0  0  0  0  0  0  0
  185.9980  178.4170  141.2390 C   0  0  0  0  0  2  0  0  0  0  0  0
  184.3470  178.3020  146.5830 O   0  0  0  0  0  0  0  0  0  0  0  0
  182.0040  177.4180  140.2710 N   0  0  0  0  0  2  0  0  0  0  0  0
  183.7800  179.1000  140.5640 C   0  0  2  0  0  3  0  0  0  0  0  0
  181.0490  179.5990  143.1510 C   0  0  0  0  0  3  0  0  0  0  0  0
  186.1310  177.8690  145.0580 C   0  0  0  0  0  2  0  0  0  0  0  0
  181.2510  178.0010  141.3360 C   0  0  0  0  0  0  0  0  0  0  0  0
  179.9090  177.6470  141.5070 C   0  0  0  0  0  3  0  0  0  0  0  0
  185.2190  179.3780  140.4540 N   0  0  0  0  0  2  0  0  0  0  0  0
  185.5830  178.4140  142.6770 C   0  0  0  0  0  0  0  0  0  0  0  0
  186.4520  177.9700  143.5900 C   0  0  0  0  0  3  0  0  0  0  0  0
  183.4310  175.1850  138.7180 O   0  0  0  0  0  0  0  0  0  0  0  0
  183.7730  176.2130  138.0720 C   0  0  0  0  0  0  0  0  0  0  0  0
  183.8020  177.4900  138.7100 N   0  0  0  0  0  2  0  0  0  0  0  0
  184.7490  173.3980  135.8200 C   0  0  1  0  0  3  0  0  0  0  0  0
  183.2020  175.2070  135.8440 C   0  0  0  0  0  2  0  0  0  0  0  0
  186.4930  176.3790  137.2190 O   0  0  0  0  0  1  0  0  0  0  0  0
  184.9160  171.9120  136.0530 C   0  0  0  0  0  1  0  0  0  0  0  0
  183.3970  173.8010  136.2040 N   0  0  0  0  0  2  0  0  0  0  0  0
  185.6140  175.6580  136.4090 C   0  0  2  0  0  3  0  0  0  0  0  0
  184.1620  176.1110  136.6250 C   0  0  2  0  0  3  0  0  0  0  0  0
  185.7780  174.1590  136.6500 C   0  0  0  0  0  2  0  0  0  0  0  0
  1  9  1  0  0  0  0
  2  5  1  6  0  0  0
  2  3  1  0  0  0  0
  3  7  2  0  0  0  0
  4 11  2  0  0  0  0
  5 14  2  0  0  0  0
  6  1  2  0  0  0  0
  7  4  1  0  0  0  0
  8 23  1  6  0  0  0
  8 12  1  0  0  0  0
  8 13  1  0  0  0  0
 10 19  1  0  0  0  0
 12 16  1  0  0  0  0
 13 18  1  1  0  0  0
 13  2  1  0  0  0  0
 14  1  1  0  0  0  0
 15  4  1  0  0  0  0
 16 17  2  0  0  0  0
 16  5  1  0  0  0  0
 17  6  1  0  0  0  0
 18 10  1  0  0  0  0
 19  3  1  0  0  0  0
 19 20  2  0  0  0  0
 20 15  1  0  0  0  0
 22 23  1  0  0  0  0
 22 21  2  0  0  0  0
 24 27  1  1  0  0  0
 24 28  1  0  0  0  0
 24 31  1  0  0  0  0
 25 28  1  0  0  0  0
 25 30  1  0  0  0  0
 29 30  1  0  0  0  0
 29 31  1  0  0  0  0
 29 26  1  1  0  0  0
 30 22  1  1  0  0  0
M  END
>  <MODEL>
7

>  <REMARK>
 VINA RESULT:      -7.7      4.272      6.409
  Name = 
  2 active torsions:
  status: ('A' for Active; 'I' for Inactive)
    1  A    between atoms: C_5  and  C_30
    2  A    between atoms: C_10  and  N_16
                            x       y       z     vdW  Elec       q    Type
                         _______ _______ _______ _____ _____    ______ ____

>  <TORSDO>
F 2

$$$$
=
 OpenBabel11122411113D

 31 35  0  0  1  0  0  0  0  0999 V2000
  184.1110  178.7730  144.3270 C   0  0  0  0  0  0  0  0  0  0  0  0
  182.7640  178.0450  140.8390 C   0  0  2  0  0  3  0  0  0  0  0  0
  181.5410  178.9120  140.6150 C   0  0  0  0  0  0  0  0  0  0  0  0
  179.6050  180.1430  141.4660 C   0  0  0  0  0  0  0  0  0  0  0  0
  183.6620  178.5360  141.9530 C   0  0  0  0  0  0  0  0  0  0  0  0
  185.3090  179.4340  144.0380 C   0  0  0  0  0  3  0  0  0  0  0  0
  180.8430  179.3780  141.6570 C   0  0  0  0  0  3  0  0  0  0  0  0
  184.4560  179.0040  139.1840 C   0  0  2  0  0  3  0  0  0  0  0  0
  183.7440  178.5700  145.6140 F   0  0  0  0  0  0  0  0  0  0  0  0
  181.8080  178.5940  138.0660 C   0  0  0  0  0  2  0  0  0  0  0  0
  178.9870  180.5830  142.4680 O   0  0  0  0  0  0  0  0  0  0  0  0
  185.3090  179.3540  140.3150 N   0  0  0  0  0  2  0  0  0  0  0  0
  183.5560  177.8060  139.5370 C   0  0  2  0  0  3  0  0  0  0  0  0
  183.2940  178.3220  143.2870 C   0  0  0  0  0  3  0  0  0  0  0  0
  179.0630  180.4030  140.0890 C   0  0  0  0  0  2  0  0  0  0  0  0
  184.8730  179.1980  141.6660 C   0  0  0  0  0  0  0  0  0  0  0  0
  185.6910  179.6400  142.7100 C   0  0  0  0  0  3  0  0  0  0  0  0
  182.6500  177.4530  138.4350 N   0  0  0  0  0  2  0  0  0  0  0  0
  181.0230  179.1010  139.2350 C   0  0  0  0  0  0  0  0  0  0  0  0
  179.9060  179.7960  138.9990 C   0  0  0  0  0  3  0  0  0  0  0  0
  187.1710  178.1450  139.2880 O   0  0  0  0  0  0  0  0  0  0  0  0
  186.6360  178.2540  138.1510 C   0  0  0  0  0  0  0  0  0  0  0  0
  185.2820  178.6870  138.0280 N   0  0  0  0  0  2  0  0  0  0  0  0
  189.7760  176.3560  137.4470 C   0  0  1  0  0  3  0  0  0  0  0  0
  187.5240  176.4250  136.6760 C   0  0  0  0  0  2  0  0  0  0  0  0
  188.7530  179.9320  137.2210 O   0  0  0  0  0  1  0  0  0  0  0  0
  190.7530  175.6260  138.3440 C   0  0  0  0  0  1  0  0  0  0  0  0
  188.4330  175.8110  137.6460 N   0  0  0  0  0  2  0  0  0  0  0  0
  188.8120  178.5800  136.8770 C   0  0  2  0  0  3  0  0  0  0  0  0
  187.4170  177.9370  136.9070 C   0  0  2  0  0  3  0  0  0  0  0  0
  189.7920  177.8430  137.7860 C   0  0  0  0  0  2  0  0  0  0  0  0
  1  9  1  0  0  0  0
  2  3  1  6  0  0  0
  2  5  1  0  0  0  0
  3  7  2  0  0  0  0
  4  7  1  0  0  0  0
  4 11  2  0  0  0  0
  5 14  1  0  0  0  0
  6  1  1  0  0  0  0
  8 23  1  6  0  0  0
  8 13  1  0  0  0  0
  8 12  1  0  0  0  0
 10 18  1  0  0  0  0
 10 19  1  0  0  0  0
 12 16  1  0  0  0  0
 13 18  1  6  0  0  0
 13  2  1  0  0  0  0
 14  1  2  0  0  0  0
 15  4  1  0  0  0  0
 16  5  2  0  0  0  0
 16 17  1  0  0  0  0
 17  6  2  0  0  0  0
 19  3  1  0  0  0  0
 20 19  2  0  0  0  0
 20 15  1  0  0  0  0
 22 21  2  0  0  0  0
 23 22  1  0  0  0  0
 24 28  1  0  0  0  0
 24 31  1  0  0  0  0
 24 27  1  1  0  0  0
 25 30  1  0  0  0  0
 25 28  1  0  0  0  0
 29 30  1  0  0  0  0
 29 26  1  1  0  0  0
 29 31  1  0  0  0  0
 30 22  1  1  0  0  0
M  END
>  <MODEL>
8

>  <REMARK>
 VINA RESULT:      -7.6      4.097      5.876
  Name = 
  2 active torsions:
  status: ('A' for Active; 'I' for Inactive)
    1  A    between atoms: C_5  and  C_30
    2  A    between atoms: C_10  and  N_16
                            x       y       z     vdW  Elec       q    Type
                         _______ _______ _______ _____ _____    ______ ____

>  <TORSDO>
F 2

$$$$
=
 OpenBabel11122411113D

 31 35  0  0  1  0  0  0  0  0999 V2000
  183.7420  179.0030  143.2560 C   0  0  0  0  0  0  0  0  0  0  0  0
  182.9760  177.9490  139.6770 C   0  0  2  0  0  3  0  0  0  0  0  0
  182.0510  178.9840  139.0680 C   0  0  0  0  0  0  0  0  0  0  0  0
  180.3160  180.6970  139.2850 C   0  0  0  0  0  0  0  0  0  0  0  0
  183.7260  178.4450  140.8940 C   0  0  0  0  0  0  0  0  0  0  0  0
  185.0910  179.3580  143.1660 C   0  0  0  0  0  3  0  0  0  0  0  0
  181.2860  179.7530  139.8520 C   0  0  0  0  0  3  0  0  0  0  0  0
  185.1330  178.2570  138.3430 C   0  0  2  0  0  3  0  0  0  0  0  0
  183.0930  179.1040  144.4400 F   0  0  0  0  0  0  0  0  0  0  0  0
  182.7330  178.1780  136.7110 C   0  0  0  0  0  2  0  0  0  0  0  0
  179.6310  181.4180  140.0540 O   0  0  0  0  0  0  0  0  0  0  0  0
  185.8040  178.6280  139.5850 N   0  0  0  0  0  2  0  0  0  0  0  0
  183.9330  177.3370  138.6330 C   0  0  2  0  0  3  0  0  0  0  0  0
  183.0630  178.5430  142.1240 C   0  0  0  0  0  3  0  0  0  0  0  0
  180.1290  180.8120  137.8000 C   0  0  0  0  0  2  0  0  0  0  0  0
  185.0870  178.7980  140.8090 C   0  0  0  0  0  0  0  0  0  0  0  0
  185.7630  179.2490  141.9460 C   0  0  0  0  0  3  0  0  0  0  0  0
  183.2050  176.9790  137.4080 N   0  0  0  0  0  2  0  0  0  0  0  0
  181.8700  179.0260  137.5930 C   0  0  0  0  0  0  0  0  0  0  0  0
  181.0090  179.8720  137.0200 C   0  0  0  0  0  3  0  0  0  0  0  0
  187.1800  179.5510  136.8440 O   0  0  0  0  0  0  0  0  0  0  0  0
  187.0850  178.2970  136.7400 C   0  0  0  0  0  0  0  0  0  0  0  0
  186.0750  177.5880  137.4580 N   0  0  0  0  0  2  0  0  0  0  0  0
  187.8020  174.6700  136.2100 C   0  0  1  0  0  3  0  0  0  0  0  0
  187.2700  176.5900  134.9080 C   0  0  0  0  0  2  0  0  0  0  0  0
  189.7080  177.5570  137.5950 O   0  0  0  0  0  1  0  0  0  0  0  0
  187.2450  173.4130  136.8440 C   0  0  0  0  0  1  0  0  0  0  0  0
  186.7080  175.4520  135.6380 N   0  0  0  0  0  2  0  0  0  0  0  0
  189.1020  176.7530  136.6280 C   0  0  2  0  0  3  0  0  0  0  0  0
  188.0250  177.5300  135.8550 C   0  0  2  0  0  3  0  0  0  0  0  0
  188.5330  175.4890  137.2690 C   0  0  0  0  0  2  0  0  0  0  0  0
  1  9  1  0  0  0  0
  2  3  1  6  0  0  0
  2  5  1  0  0  0  0
  3  7  2  0  0  0  0
  4  7  1  0  0  0  0
  4 11  2  0  0  0  0
  5 14  1  0  0  0  0
  6  1  1  0  0  0  0
  8 23  1  6  0  0  0
  8 13  1  0  0  0  0
  8 12  1  0  0  0  0
 10 18  1  0  0  0  0
 10 19  1  0  0  0  0
 12 16  1  0  0  0  0
 13 18  1  6  0  0  0
 13  2  1  0  0  0  0
 14  1  2  0  0  0  0
 15  4  1  0  0  0  0
 16  5  2  0  0  0  0
 16 17  1  0  0  0  0
 17  6  2  0  0  0  0
 19  3  1  0  0  0  0
 20 19  2  0  0  0  0
 20 15  1  0  0  0  0
 22 21  2  0  0  0  0
 22 23  1  0  0  0  0
 24 27  1  1  0  0  0
 24 31  1  0  0  0  0
 25 28  1  0  0  0  0
 25 30  1  0  0  0  0
 28 24  1  0  0  0  0
 29 31  1  0  0  0  0
 29 26  1  1  0  0  0
 30 29  1  0  0  0  0
 30 22  1  1  0  0  0
M  END
>  <MODEL>
9

>  <REMARK>
 VINA RESULT:      -7.5      4.266      6.479
  Name = 
  2 active torsions:
  status: ('A' for Active; 'I' for Inactive)
    1  A    between atoms: C_5  and  C_30
    2  A    between atoms: C_10  and  N_16
                            x       y       z     vdW  Elec       q    Type
                         _______ _______ _______ _____ _____    ______ ____

>  <TORSDO>
F 2

$$$$
