=
 OpenBabel11122411453D

 37 42  0  0  1  0  0  0  0  0999 V2000
  186.9460  177.3350  144.5270 C   0  0  1  0  0  3  0  0  0  0  0  0
  184.9040  177.7150  141.7460 O   0  0  0  0  0  0  0  0  0  0  0  0
  189.4170  177.5930  145.0940 C   0  0  2  0  0  3  0  0  0  0  0  0
  186.7310  178.1210  143.2480 C   0  0  2  0  0  3  0  0  0  0  0  0
  188.3490  176.7740  144.3350 C   0  0  2  0  0  3  0  0  0  0  0  0
  185.2640  178.4370  142.8950 C   0  0  2  0  0  3  0  0  0  0  0  0
  188.9230  177.9780  146.4990 C   0  0  0  0  0  2  0  0  0  0  0  0
  188.5800  176.7970  142.8290 C   0  0  0  0  0  2  0  0  0  0  0  0
  185.4770  178.2090  146.1710 C   0  0  0  0  0  2  0  0  0  0  0  0
  187.5780  177.6180  146.7080 O   0  0  0  0  0  0  0  0  0  0  0  0
  185.8520  179.6750  140.7350 O   0  0  0  0  0  0  0  0  0  0  0  0
  185.0890  178.4950  140.5730 C   0  0  1  0  0  3  0  0  0  0  0  0
  186.8600  178.2050  145.7100 N   0  0  1  0  0  0  0  0  0  0  0  0
  187.3780  177.3430  142.1860 N   0  0  2  0  0  0  0  0  0  0  0  0
  184.2300  178.2440  144.0140 C   0  0  1  0  0  3  0  0  0  0  0  0
  186.5300  178.5900  140.1450 C   0  0  2  0  0  3  0  0  0  0  0  0
  187.7290  178.2390  141.0660 C   0  0  2  0  0  3  0  0  0  0  0  0
  184.5900  179.0430  145.2610 C   0  0  0  0  0  2  0  0  0  0  0  0
  181.8020  178.6220  144.4720 C   0  0  0  0  0  3  0  0  0  0  0  0
  182.8540  178.6150  143.5500 C   0  0  0  0  0  0  0  0  0  0  0  0
  182.6020  178.9480  142.2090 C   0  0  0  0  0  3  0  0  0  0  0  0
  181.0640  179.6130  140.4740 O   0  0  0  0  0  1  0  0  0  0  0  0
  180.2620  179.2890  142.7270 C   0  0  0  0  0  3  0  0  0  0  0  0
  181.3090  179.2850  141.8010 C   0  0  0  0  0  0  0  0  0  0  0  0
  180.5090  178.9590  144.0620 C   0  0  0  0  0  3  0  0  0  0  0  0
  188.8130  177.6200  140.1590 C   0  0  0  0  0  2  0  0  0  0  0  0
  188.4610  177.5840  138.7320 N   0  0  0  0  0  0  0  0  0  0  0  0
  188.3560  179.0200  136.7700 C   0  0  0  0  0  1  0  0  0  0  0  0
  189.1510  178.6410  138.0030 C   0  0  0  0  0  2  0  0  0  0  0  0
  188.8580  176.3030  138.1620 C   0  0  0  0  0  2  0  0  0  0  0  0
  190.3720  176.1980  138.1200 C   0  0  0  0  0  2  0  0  0  0  0  0
  190.7600  174.8640  138.2420 O   0  0  0  0  0  1  0  0  0  0  0  0
  189.7530  178.7690  144.3980 O   0  0  0  0  0  0  0  0  0  0  0  0
  191.1390  178.7510  144.1450 C   0  0  0  0  0  0  0  0  0  0  0  0
  191.7980  177.9150  145.0350 F   0  0  0  0  0  0  0  0  0  0  0  0
  191.3960  178.3450  142.8450 F   0  0  0  0  0  0  0  0  0  0  0  0
  191.6330  180.0300  144.3100 F   0  0  0  0  0  0  0  0  0  0  0  0
  1 13  1  0  0  0  0
  2  6  1  0  0  0  0
  3  7  1  0  0  0  0
  4  1  1  0  0  0  0
  5  1  1  0  0  0  0
  5  3  1  0  0  0  0
  6  4  1  0  0  0  0
  6 15  1  0  0  0  0
  7 10  1  0  0  0  0
  8  5  1  0  0  0  0
 12 11  1  0  0  0  0
 12  2  1  0  0  0  0
 13  9  1  0  0  0  0
 13 10  1  0  0  0  0
 14  8  1  0  0  0  0
 14  4  1  0  0  0  0
 15 18  1  0  0  0  0
 16 12  1  0  0  0  0
 16 11  1  0  0  0  0
 16 17  1  0  0  0  0
 17 14  1  0  0  0  0
 18  9  1  0  0  0  0
 20 15  1  0  0  0  0
 20 19  2  0  0  0  0
 21 20  1  0  0  0  0
 22 24  1  0  0  0  0
 23 25  2  0  0  0  0
 24 21  2  0  0  0  0
 24 23  1  0  0  0  0
 25 19  1  0  0  0  0
 26 17  1  0  0  0  0
 27 26  1  0  0  0  0
 28 29  1  0  0  0  0
 29 27  1  0  0  0  0
 30 27  1  0  0  0  0
 31 30  1  0  0  0  0
 31 32  1  0  0  0  0
 33  3  1  0  0  0  0
 34 37  1  0  0  0  0
 34 33  1  0  0  0  0
 34 35  1  0  0  0  0
 36 34  1  0  0  0  0
M  END
>  <MODEL>
1

>  <REMARK>
 VINA RESULT:      -8.9      0.000      0.000
  Name = 
  8 active torsions:
  status: ('A' for Active; 'I' for Inactive)
    1  A    between atoms: C_1  and  N_4
    2  A    between atoms: C_1  and  C_27
    3  A    between atoms: C_2  and  O_22
    4  A    between atoms: N_4  and  C_12
    5  A    between atoms: N_4  and  C_37
    6  A    between atoms: C_6  and  O_22
    7  A    between atoms: C_8  and  C_12
    8  A    between atoms: C_23  and  C_30
                            x       y       z     vdW  Elec       q    Type
                         _______ _______ _______ _____ _____    ______ ____

>  <TORSDO>
F 8

$$$$
=
 OpenBabel11122411453D

 37 42  0  0  1  0  0  0  0  0999 V2000
  185.6940  178.9370  143.3060 C   0  0  1  0  0  3  0  0  0  0  0  0
  189.1040  178.2870  143.3500 O   0  0  0  0  0  0  0  0  0  0  0  0
  183.7480  178.6560  141.6840 C   0  0  2  0  0  3  0  0  0  0  0  0
  186.7830  178.0030  142.8100 C   0  0  2  0  0  3  0  0  0  0  0  0
  185.0560  179.4130  142.0070 C   0  0  2  0  0  3  0  0  0  0  0  0
  187.9140  177.7030  143.8140 C   0  0  2  0  0  3  0  0  0  0  0  0
  182.8890  178.4720  142.9480 C   0  0  0  0  0  2  0  0  0  0  0  0
  186.1200  179.1890  140.9400 C   0  0  0  0  0  2  0  0  0  0  0  0
  185.1870  178.3380  145.5440 C   0  0  0  0  0  2  0  0  0  0  0  0
  183.5520  178.9090  144.1100 O   0  0  0  0  0  0  0  0  0  0  0  0
  189.1920  176.1770  142.2070 O   0  0  0  0  0  0  0  0  0  0  0  0
  189.8690  177.3570  142.5970 C   0  0  1  0  0  3  0  0  0  0  0  0
  184.7310  178.2280  144.1630 N   0  0  1  0  0  0  0  0  0  0  0  0
  187.3070  178.6130  141.5840 N   0  0  2  0  0  0  0  0  0  0  0  0
  187.6510  178.0780  145.2800 C   0  0  1  0  0  3  0  0  0  0  0  0
  189.3450  177.1520  141.2000 C   0  0  2  0  0  3  0  0  0  0  0  0
  187.9220  177.5690  140.7420 C   0  0  2  0  0  3  0  0  0  0  0  0
  186.3770  177.4300  145.8100 C   0  0  0  0  0  2  0  0  0  0  0  0
  188.8080  178.0900  147.4960 C   0  0  0  0  0  3  0  0  0  0  0  0
  188.8130  177.7040  146.1520 C   0  0  0  0  0  0  0  0  0  0  0  0
  189.9040  176.9840  145.6400 C   0  0  0  0  0  3  0  0  0  0  0  0
  192.0560  175.9430  145.9630 O   0  0  0  0  0  1  0  0  0  0  0  0
  190.9670  177.0430  147.8150 C   0  0  0  0  0  3  0  0  0  0  0  0
  190.9780  176.6540  146.4720 C   0  0  0  0  0  0  0  0  0  0  0  0
  189.8820  177.7590  148.3270 C   0  0  0  0  0  3  0  0  0  0  0  0
  188.0500  178.0250  139.2720 C   0  0  0  0  0  2  0  0  0  0  0  0
  188.4960  176.9710  138.3480 N   0  0  0  0  0  0  0  0  0  0  0  0
  186.7720  177.8100  136.8480 C   0  0  0  0  0  1  0  0  0  0  0  0
  187.4150  176.5780  137.4540 C   0  0  0  0  0  2  0  0  0  0  0  0
  189.6020  177.4660  137.5390 C   0  0  0  0  0  2  0  0  0  0  0  0
  190.8630  176.6760  137.8420 C   0  0  0  0  0  2  0  0  0  0  0  0
  190.5310  175.4530  138.4230 O   0  0  0  0  0  1  0  0  0  0  0  0
  184.0110  177.3880  141.1320 O   0  0  0  0  0  0  0  0  0  0  0  0
  183.2360  177.2470  139.9640 C   0  0  0  0  0  0  0  0  0  0  0  0
  182.6280  176.0010  139.9170 F   0  0  0  0  0  0  0  0  0  0  0  0
  182.2720  178.2410  139.8910 F   0  0  0  0  0  0  0  0  0  0  0  0
  184.0680  177.3610  138.8670 F   0  0  0  0  0  0  0  0  0  0  0  0
  1 13  1  0  0  0  0
  2  6  1  0  0  0  0
  3  5  1  0  0  0  0
  3  7  1  0  0  0  0
  4  1  1  0  0  0  0
  4  6  1  0  0  0  0
  5  1  1  0  0  0  0
  6 15  1  0  0  0  0
  7 10  1  0  0  0  0
  8 14  1  0  0  0  0
  8  5  1  0  0  0  0
  9 18  1  0  0  0  0
 10 13  1  0  0  0  0
 11 12  1  0  0  0  0
 12  2  1  0  0  0  0
 13  9  1  0  0  0  0
 14  4  1  0  0  0  0
 15 18  1  0  0  0  0
 15 20  1  0  0  0  0
 16 11  1  0  0  0  0
 16 12  1  0  0  0  0
 17 16  1  0  0  0  0
 17 14  1  0  0  0  0
 19 25  1  0  0  0  0
 20 19  2  0  0  0  0
 21 20  1  0  0  0  0
 21 24  2  0  0  0  0
 22 24  1  0  0  0  0
 23 25  2  0  0  0  0
 24 23  1  0  0  0  0
 26 17  1  0  0  0  0
 27 26  1  0  0  0  0
 28 29  1  0  0  0  0
 29 27  1  0  0  0  0
 30 31  1  0  0  0  0
 30 27  1  0  0  0  0
 31 32  1  0  0  0  0
 33  3  1  0  0  0  0
 34 33  1  0  0  0  0
 35 34  1  0  0  0  0
 36 34  1  0  0  0  0
 37 34  1  0  0  0  0
M  END
>  <MODEL>
2

>  <REMARK>
 VINA RESULT:      -8.6      3.148      6.241
  Name = 
  8 active torsions:
  status: ('A' for Active; 'I' for Inactive)
    1  A    between atoms: C_1  and  N_4
    2  A    between atoms: C_1  and  C_27
    3  A    between atoms: C_2  and  O_22
    4  A    between atoms: N_4  and  C_12
    5  A    between atoms: N_4  and  C_37
    6  A    between atoms: C_6  and  O_22
    7  A    between atoms: C_8  and  C_12
    8  A    between atoms: C_23  and  C_30
                            x       y       z     vdW  Elec       q    Type
                         _______ _______ _______ _____ _____    ______ ____

>  <TORSDO>
F 8

$$$$
=
 OpenBabel11122411453D

 37 42  0  0  1  0  0  0  0  0999 V2000
  187.2640  178.6290  140.8890 C   0  0  1  0  0  3  0  0  0  0  0  0
  189.8050  177.8650  143.1260 O   0  0  0  0  0  0  0  0  0  0  0  0
  186.6870  178.1300  138.4570 C   0  0  2  0  0  3  0  0  0  0  0  0
  188.2790  177.5780  141.2970 C   0  0  2  0  0  3  0  0  0  0  0  0
  187.6230  178.8820  139.4310 C   0  0  2  0  0  3  0  0  0  0  0  0
  188.5090  177.4240  142.8140 C   0  0  2  0  0  3  0  0  0  0  0  0
  185.2220  178.2170  138.9210 C   0  0  0  0  0  2  0  0  0  0  0  0
  189.0700  178.4230  139.2960 C   0  0  0  0  0  2  0  0  0  0  0  0
  185.4210  178.4740  142.3750 C   0  0  0  0  0  2  0  0  0  0  0  0
  185.0980  178.8350  140.1800 O   0  0  0  0  0  0  0  0  0  0  0  0
  190.2620  175.5790  142.5520 O   0  0  0  0  0  0  0  0  0  0  0  0
  190.7250  176.7830  143.1330 C   0  0  1  0  0  3  0  0  0  0  0  0
  185.8880  178.1290  141.0370 N   0  0  1  0  0  0  0  0  0  0  0  0
  189.5210  177.9300  140.6030 N   0  0  2  0  0  0  0  0  0  0  0  0
  187.4690  178.0730  143.7380 C   0  0  1  0  0  3  0  0  0  0  0  0
  191.1340  176.3440  141.7510 C   0  0  2  0  0  3  0  0  0  0  0  0
  190.3620  176.7250  140.4610 C   0  0  2  0  0  3  0  0  0  0  0  0
  186.0570  177.5860  143.4310 C   0  0  0  0  0  2  0  0  0  0  0  0
  186.8750  178.2100  146.1620 C   0  0  0  0  0  3  0  0  0  0  0  0
  187.7930  177.8220  145.1800 C   0  0  0  0  0  0  0  0  0  0  0  0
  189.0000  177.2140  145.5590 C   0  0  0  0  0  3  0  0  0  0  0  0
  190.4760  176.3960  147.2830 O   0  0  0  0  0  1  0  0  0  0  0  0
  188.3610  177.3870  147.8880 C   0  0  0  0  0  3  0  0  0  0  0  0
  189.2810  176.9970  146.9110 C   0  0  0  0  0  0  0  0  0  0  0  0
  187.1580  177.9920  147.5140 C   0  0  0  0  0  3  0  0  0  0  0  0
  191.4200  176.8950  139.3500 C   0  0  0  0  0  2  0  0  0  0  0  0
  191.6890  175.6740  138.5770 N   0  0  0  0  0  0  0  0  0  0  0  0
  190.6200  176.2680  136.4720 C   0  0  0  0  0  1  0  0  0  0  0  0
  190.5740  175.3670  137.6910 C   0  0  0  0  0  2  0  0  0  0  0  0
  192.8820  175.8630  137.7610 C   0  0  0  0  0  2  0  0  0  0  0  0
  193.8020  174.6630  137.8970 C   0  0  0  0  0  2  0  0  0  0  0  0
  194.9960  175.0450  138.5080 O   0  0  0  0  0  1  0  0  0  0  0  0
  187.0430  176.7730  138.3470 O   0  0  0  0  0  0  0  0  0  0  0  0
  186.8660  176.3780  137.0060 C   0  0  0  0  0  0  0  0  0  0  0  0
  185.5200  176.2380  136.7010 F   0  0  0  0  0  0  0  0  0  0  0  0
  187.4490  177.2940  136.1440 F   0  0  0  0  0  0  0  0  0  0  0  0
  187.4790  175.1530  136.8240 F   0  0  0  0  0  0  0  0  0  0  0  0
  1 13  1  0  0  0  0
  1  4  1  0  0  0  0
  2 12  1  0  0  0  0
  3  7  1  0  0  0  0
  3  5  1  0  0  0  0
  4  6  1  0  0  0  0
  5  1  1  0  0  0  0
  6  2  1  0  0  0  0
  6 15  1  0  0  0  0
  7 10  1  0  0  0  0
  8  5  1  0  0  0  0
  8 14  1  0  0  0  0
  9 18  1  0  0  0  0
 10 13  1  0  0  0  0
 11 12  1  0  0  0  0
 13  9  1  0  0  0  0
 14  4  1  0  0  0  0
 15 20  1  0  0  0  0
 16 11  1  0  0  0  0
 16 12  1  0  0  0  0
 17 14  1  0  0  0  0
 17 16  1  0  0  0  0
 18 15  1  0  0  0  0
 19 25  1  0  0  0  0
 20 21  1  0  0  0  0
 20 19  2  0  0  0  0
 21 24  2  0  0  0  0
 24 22  1  0  0  0  0
 24 23  1  0  0  0  0
 25 23  2  0  0  0  0
 26 17  1  0  0  0  0
 27 26  1  0  0  0  0
 28 29  1  0  0  0  0
 29 27  1  0  0  0  0
 30 31  1  0  0  0  0
 30 27  1  0  0  0  0
 31 32  1  0  0  0  0
 33  3  1  0  0  0  0
 34 33  1  0  0  0  0
 35 34  1  0  0  0  0
 36 34  1  0  0  0  0
 37 34  1  0  0  0  0
M  END
>  <MODEL>
3

>  <REMARK>
 VINA RESULT:      -7.7      3.605      6.267
  Name = 
  8 active torsions:
  status: ('A' for Active; 'I' for Inactive)
    1  A    between atoms: C_1  and  N_4
    2  A    between atoms: C_1  and  C_27
    3  A    between atoms: C_2  and  O_22
    4  A    between atoms: N_4  and  C_12
    5  A    between atoms: N_4  and  C_37
    6  A    between atoms: C_6  and  O_22
    7  A    between atoms: C_8  and  C_12
    8  A    between atoms: C_23  and  C_30
                            x       y       z     vdW  Elec       q    Type
                         _______ _______ _______ _____ _____    ______ ____

>  <TORSDO>
F 8

$$$$
=
 OpenBabel11122411453D

 37 42  0  0  1  0  0  0  0  0999 V2000
  186.7990  178.2440  137.4950 C   0  0  1  0  0  3  0  0  0  0  0  0
  185.3480  179.4680  140.4010 O   0  0  0  0  0  0  0  0  0  0  0  0
  188.8820  176.9270  136.8440 C   0  0  2  0  0  3  0  0  0  0  0  0
  186.5990  177.9950  138.9780 C   0  0  2  0  0  3  0  0  0  0  0  0
  188.3160  178.2670  137.3680 C   0  0  2  0  0  3  0  0  0  0  0  0
  185.2120  178.3680  139.5380 C   0  0  2  0  0  3  0  0  0  0  0  0
  188.0170  176.3720  135.6990 C   0  0  0  0  0  2  0  0  0  0  0  0
  188.8240  178.5880  138.7680 C   0  0  0  0  0  2  0  0  0  0  0  0
  184.8260  177.5560  136.3720 C   0  0  0  0  0  2  0  0  0  0  0  0
  186.8520  177.1360  135.4930 O   0  0  0  0  0  0  0  0  0  0  0  0
  185.7820  177.6710  141.9320 O   0  0  0  0  0  0  0  0  0  0  0  0
  185.4970  179.0450  141.7480 C   0  0  1  0  0  3  0  0  0  0  0  0
  186.1970  177.1710  136.6870 N   0  0  1  0  0  0  0  0  0  0  0  0
  187.6650  178.7410  139.6560 N   0  0  2  0  0  0  0  0  0  0  0  0
  184.0970  178.6080  138.5100 C   0  0  1  0  0  3  0  0  0  0  0  0
  186.8820  178.5410  142.0610 C   0  0  2  0  0  3  0  0  0  0  0  0
  187.9190  178.1380  140.9790 C   0  0  2  0  0  3  0  0  0  0  0  0
  183.9160  177.4130  137.5810 C   0  0  0  0  0  2  0  0  0  0  0  0
  182.2590  178.0150  140.0970 C   0  0  0  0  0  3  0  0  0  0  0  0
  182.7970  178.9290  139.1850 C   0  0  0  0  0  0  0  0  0  0  0  0
  182.1110  180.1230  138.9120 C   0  0  0  0  0  3  0  0  0  0  0  0
  180.2210  181.5780  139.2780 O   0  0  0  0  0  1  0  0  0  0  0  0
  180.3640  179.4790  140.4600 C   0  0  0  0  0  3  0  0  0  0  0  0
  180.8980  180.3960  139.5500 C   0  0  0  0  0  0  0  0  0  0  0  0
  181.0450  178.2900  140.7350 C   0  0  0  0  0  3  0  0  0  0  0  0
  189.3050  178.5350  141.5300 C   0  0  0  0  0  2  0  0  0  0  0  0
  189.7470  177.7440  142.6880 N   0  0  0  0  0  0  0  0  0  0  0  0
  191.9130  177.5030  141.6050 C   0  0  0  0  0  1  0  0  0  0  0  0
  190.7720  176.7850  142.2980 C   0  0  0  0  0  2  0  0  0  0  0  0
  190.3100  178.6290  143.7000 C   0  0  0  0  0  2  0  0  0  0  0  0
  189.9080  178.1590  145.0860 C   0  0  0  0  0  2  0  0  0  0  0  0
  188.5420  177.8780  145.1160 O   0  0  0  0  0  1  0  0  0  0  0  0
  188.9450  175.9610  137.8670 O   0  0  0  0  0  0  0  0  0  0  0  0
  190.2480  175.4250  137.8860 C   0  0  0  0  0  0  0  0  0  0  0  0
  190.8530  175.6290  139.1170 F   0  0  0  0  0  0  0  0  0  0  0  0
  190.2260  174.0700  137.5930 F   0  0  0  0  0  0  0  0  0  0  0  0
  191.0030  176.0690  136.9240 F   0  0  0  0  0  0  0  0  0  0  0  0
  1  4  1  0  0  0  0
  2 12  1  0  0  0  0
  3  5  1  0  0  0  0
  3 33  1  0  0  0  0
  4  6  1  0  0  0  0
  4 14  1  0  0  0  0
  5  1  1  0  0  0  0
  5  8  1  0  0  0  0
  6  2  1  0  0  0  0
  7  3  1  0  0  0  0
  8 14  1  0  0  0  0
  9 13  1  0  0  0  0
  9 18  1  0  0  0  0
 10  7  1  0  0  0  0
 10 13  1  0  0  0  0
 11 16  1  0  0  0  0
 12 11  1  0  0  0  0
 12 16  1  0  0  0  0
 13  1  1  0  0  0  0
 14 17  1  0  0  0  0
 15 20  1  0  0  0  0
 15  6  1  0  0  0  0
 17 26  1  0  0  0  0
 17 16  1  0  0  0  0
 18 15  1  0  0  0  0
 19 25  1  0  0  0  0
 20 19  2  0  0  0  0
 21 20  1  0  0  0  0
 21 24  2  0  0  0  0
 22 24  1  0  0  0  0
 23 25  2  0  0  0  0
 24 23  1  0  0  0  0
 26 27  1  0  0  0  0
 27 30  1  0  0  0  0
 28 29  1  0  0  0  0
 29 27  1  0  0  0  0
 30 31  1  0  0  0  0
 31 32  1  0  0  0  0
 33 34  1  0  0  0  0
 34 35  1  0  0  0  0
 36 34  1  0  0  0  0
 37 34  1  0  0  0  0
M  END
>  <MODEL>
4

>  <REMARK>
 VINA RESULT:      -7.6      2.739      6.018
  Name = 
  8 active torsions:
  status: ('A' for Active; 'I' for Inactive)
    1  A    between atoms: C_1  and  N_4
    2  A    between atoms: C_1  and  C_27
    3  A    between atoms: C_2  and  O_22
    4  A    between atoms: N_4  and  C_12
    5  A    between atoms: N_4  and  C_37
    6  A    between atoms: C_6  and  O_22
    7  A    between atoms: C_8  and  C_12
    8  A    between atoms: C_23  and  C_30
                            x       y       z     vdW  Elec       q    Type
                         _______ _______ _______ _____ _____    ______ ____

>  <TORSDO>
F 8

$$$$
=
 OpenBabel11122411453D

 37 42  0  0  1  0  0  0  0  0999 V2000
  185.6230  177.9190  136.9800 C   0  0  1  0  0  3  0  0  0  0  0  0
  184.9010  179.6300  139.9120 O   0  0  0  0  0  0  0  0  0  0  0  0
  187.4430  176.3610  136.1110 C   0  0  2  0  0  3  0  0  0  0  0  0
  185.7360  177.8850  138.4920 C   0  0  2  0  0  3  0  0  0  0  0  0
  187.0760  177.8000  136.5400 C   0  0  2  0  0  3  0  0  0  0  0  0
  184.5250  178.4420  139.2660 C   0  0  2  0  0  3  0  0  0  0  0  0
  186.3230  175.7330  135.2640 C   0  0  0  0  0  2  0  0  0  0  0  0
  187.8910  178.2600  137.7410 C   0  0  0  0  0  2  0  0  0  0  0  0
  183.4200  177.2540  136.4030 C   0  0  0  0  0  2  0  0  0  0  0  0
  185.1830  176.5560  135.1950 O   0  0  0  0  0  0  0  0  0  0  0  0
  185.5620  178.0210  141.5670 O   0  0  0  0  0  0  0  0  0  0  0  0
  185.3170  179.3780  141.2460 C   0  0  1  0  0  3  0  0  0  0  0  0
  184.8040  176.8030  136.4800 N   0  0  1  0  0  0  0  0  0  0  0  0
  186.9610  178.6240  138.8180 N   0  0  2  0  0  0  0  0  0  0  0  0
  183.2270  178.6350  138.4680 C   0  0  1  0  0  3  0  0  0  0  0  0
  186.7090  178.8080  141.3360 C   0  0  2  0  0  3  0  0  0  0  0  0
  187.4640  178.1820  140.1340 C   0  0  2  0  0  3  0  0  0  0  0  0
  182.7880  177.3470  137.7820 C   0  0  0  0  0  2  0  0  0  0  0  0
  181.4470  180.3150  138.9730 C   0  0  0  0  0  3  0  0  0  0  0  0
  182.1240  179.1480  139.3440 C   0  0  0  0  0  0  0  0  0  0  0  0
  181.7650  178.4840  140.5280 C   0  0  0  0  0  3  0  0  0  0  0  0
  180.3860  178.3280  142.5000 O   0  0  0  0  0  1  0  0  0  0  0  0
  180.0650  180.1530  140.9550 C   0  0  0  0  0  3  0  0  0  0  0  0
  180.7370  178.9870  141.3300 C   0  0  0  0  0  0  0  0  0  0  0  0
  180.4180  180.8170  139.7770 C   0  0  0  0  0  3  0  0  0  0  0  0
  188.9550  178.5320  140.3210 C   0  0  0  0  0  2  0  0  0  0  0  0
  189.8070  177.3870  140.6750 N   0  0  0  0  0  0  0  0  0  0  0  0
  192.2380  177.5030  140.6840 C   0  0  0  0  0  1  0  0  0  0  0  0
  190.9950  177.3470  139.8320 C   0  0  0  0  0  2  0  0  0  0  0  0
  190.2360  177.5060  142.0620 C   0  0  0  0  0  2  0  0  0  0  0  0
  189.5290  176.4680  142.9160 C   0  0  0  0  0  2  0  0  0  0  0  0
  190.2040  175.2510  142.8430 O   0  0  0  0  0  1  0  0  0  0  0  0
  187.6760  175.5370  137.2280 O   0  0  0  0  0  0  0  0  0  0  0  0
  188.8450  174.7870  136.9870 C   0  0  0  0  0  0  0  0  0  0  0  0
  188.5840  173.4260  137.0400 F   0  0  0  0  0  0  0  0  0  0  0  0
  189.3900  175.1120  135.7540 F   0  0  0  0  0  0  0  0  0  0  0  0
  189.7700  175.0870  137.9680 F   0  0  0  0  0  0  0  0  0  0  0  0
  1  4  1  0  0  0  0
  2 12  1  0  0  0  0
  3  5  1  0  0  0  0
  3 33  1  0  0  0  0
  4 14  1  0  0  0  0
  4  6  1  0  0  0  0
  5  1  1  0  0  0  0
  5  8  1  0  0  0  0
  6  2  1  0  0  0  0
  7  3  1  0  0  0  0
  8 14  1  0  0  0  0
  9 13  1  0  0  0  0
  9 18  1  0  0  0  0
 10  7  1  0  0  0  0
 10 13  1  0  0  0  0
 12 16  1  0  0  0  0
 12 11  1  0  0  0  0
 13  1  1  0  0  0  0
 14 17  1  0  0  0  0
 15  6  1  0  0  0  0
 15 20  1  0  0  0  0
 16 11  1  0  0  0  0
 17 26  1  0  0  0  0
 17 16  1  0  0  0  0
 18 15  1  0  0  0  0
 19 20  2  0  0  0  0
 19 25  1  0  0  0  0
 20 21  1  0  0  0  0
 21 24  2  0  0  0  0
 23 24  1  0  0  0  0
 24 22  1  0  0  0  0
 25 23  2  0  0  0  0
 26 27  1  0  0  0  0
 27 30  1  0  0  0  0
 29 27  1  0  0  0  0
 29 28  1  0  0  0  0
 30 31  1  0  0  0  0
 32 31  1  0  0  0  0
 34 35  1  0  0  0  0
 34 33  1  0  0  0  0
 34 37  1  0  0  0  0
 36 34  1  0  0  0  0
M  END
>  <MODEL>
5

>  <REMARK>
 VINA RESULT:      -7.5      3.404      6.218
  Name = 
  8 active torsions:
  status: ('A' for Active; 'I' for Inactive)
    1  A    between atoms: C_1  and  N_4
    2  A    between atoms: C_1  and  C_27
    3  A    between atoms: C_2  and  O_22
    4  A    between atoms: N_4  and  C_12
    5  A    between atoms: N_4  and  C_37
    6  A    between atoms: C_6  and  O_22
    7  A    between atoms: C_8  and  C_12
    8  A    between atoms: C_23  and  C_30
                            x       y       z     vdW  Elec       q    Type
                         _______ _______ _______ _____ _____    ______ ____

>  <TORSDO>
F 8

$$$$
=
 OpenBabel11122411453D

 37 42  0  0  1  0  0  0  0  0999 V2000
  187.6330  177.1770  142.8570 C   0  0  1  0  0  3  0  0  0  0  0  0
  186.9330  177.4570  139.4680 O   0  0  0  0  0  0  0  0  0  0  0  0
  189.6620  177.4050  144.3820 C   0  0  2  0  0  3  0  0  0  0  0  0
  187.9980  177.8990  141.5730 C   0  0  2  0  0  3  0  0  0  0  0  0
  188.9650  176.5730  143.2820 C   0  0  2  0  0  3  0  0  0  0  0  0
  186.8210  178.2310  140.6350 C   0  0  2  0  0  3  0  0  0  0  0  0
  188.6520  177.8780  145.4420 C   0  0  0  0  0  2  0  0  0  0  0  0
  189.7950  176.5100  142.0060 C   0  0  0  0  0  2  0  0  0  0  0  0
  185.6590  178.1740  143.7130 C   0  0  0  0  0  2  0  0  0  0  0  0
  187.3260  177.5620  145.0910 O   0  0  0  0  0  0  0  0  0  0  0  0
  188.2980  179.3360  138.8630 O   0  0  0  0  0  0  0  0  0  0  0  0
  187.6180  178.1670  138.4470 C   0  0  1  0  0  3  0  0  0  0  0  0
  187.1080  178.1120  143.8640 N   0  0  1  0  0  0  0  0  0  0  0  0
  188.9890  177.0490  140.9040 N   0  0  2  0  0  0  0  0  0  0  0  0
  185.4110  178.1230  141.2340 C   0  0  1  0  0  3  0  0  0  0  0  0
  189.1100  178.2040  138.6480 C   0  0  2  0  0  3  0  0  0  0  0  0
  189.8080  177.8750  139.9940 C   0  0  2  0  0  3  0  0  0  0  0  0
  185.2620  178.9790  142.4860 C   0  0  0  0  0  2  0  0  0  0  0  0
  184.4100  179.7720  139.6440 C   0  0  0  0  0  3  0  0  0  0  0  0
  184.3650  178.5020  140.2300 C   0  0  0  0  0  0  0  0  0  0  0  0
  183.3390  177.6110  139.8750 C   0  0  0  0  0  3  0  0  0  0  0  0
  181.3580  177.1080  138.5930 O   0  0  0  0  0  1  0  0  0  0  0  0
  182.4220  179.2610  138.3590 C   0  0  0  0  0  3  0  0  0  0  0  0
  182.3720  177.9910  138.9410 C   0  0  0  0  0  0  0  0  0  0  0  0
  183.4420  180.1500  138.7100 C   0  0  0  0  0  3  0  0  0  0  0  0
  191.1410  177.1820  139.6400 C   0  0  0  0  0  2  0  0  0  0  0  0
  191.1830  176.6050  138.2880 N   0  0  0  0  0  0  0  0  0  0  0  0
  193.4080  175.6370  138.1000 C   0  0  0  0  0  1  0  0  0  0  0  0
  192.5020  176.7810  137.6930 C   0  0  0  0  0  2  0  0  0  0  0  0
  190.8990  175.1780  138.3550 C   0  0  0  0  0  2  0  0  0  0  0  0
  189.9870  174.7740  137.2110 C   0  0  0  0  0  2  0  0  0  0  0  0
  189.8490  173.3860  137.1780 O   0  0  0  0  0  1  0  0  0  0  0  0
  190.3060  178.5340  143.8410 O   0  0  0  0  0  0  0  0  0  0  0  0
  191.6840  178.4300  144.1170 C   0  0  0  0  0  0  0  0  0  0  0  0
  192.3550  177.8070  143.0760 F   0  0  0  0  0  0  0  0  0  0  0  0
  192.2350  179.6810  144.3470 F   0  0  0  0  0  0  0  0  0  0  0  0
  191.8480  177.6630  145.2550 F   0  0  0  0  0  0  0  0  0  0  0  0
  1  5  1  0  0  0  0
  1 13  1  0  0  0  0
  2  6  1  0  0  0  0
  3  7  1  0  0  0  0
  4  1  1  0  0  0  0
  5  3  1  0  0  0  0
  6 15  1  0  0  0  0
  6  4  1  0  0  0  0
  8  5  1  0  0  0  0
  9 13  1  0  0  0  0
 10  7  1  0  0  0  0
 12 16  1  0  0  0  0
 12 11  1  0  0  0  0
 12  2  1  0  0  0  0
 13 10  1  0  0  0  0
 14  4  1  0  0  0  0
 14  8  1  0  0  0  0
 15 18  1  0  0  0  0
 16 11  1  0  0  0  0
 16 17  1  0  0  0  0
 17 14  1  0  0  0  0
 18  9  1  0  0  0  0
 19 20  1  0  0  0  0
 20 15  1  0  0  0  0
 21 20  2  0  0  0  0
 22 24  1  0  0  0  0
 23 25  1  0  0  0  0
 23 24  2  0  0  0  0
 24 21  1  0  0  0  0
 25 19  2  0  0  0  0
 26 17  1  0  0  0  0
 27 30  1  0  0  0  0
 27 26  1  0  0  0  0
 29 28  1  0  0  0  0
 29 27  1  0  0  0  0
 31 30  1  0  0  0  0
 32 31  1  0  0  0  0
 33 34  1  0  0  0  0
 33  3  1  0  0  0  0
 34 36  1  0  0  0  0
 34 37  1  0  0  0  0
 35 34  1  0  0  0  0
M  END
>  <MODEL>
6

>  <REMARK>
 VINA RESULT:      -7.5      2.135      2.997
  Name = 
  8 active torsions:
  status: ('A' for Active; 'I' for Inactive)
    1  A    between atoms: C_1  and  N_4
    2  A    between atoms: C_1  and  C_27
    3  A    between atoms: C_2  and  O_22
    4  A    between atoms: N_4  and  C_12
    5  A    between atoms: N_4  and  C_37
    6  A    between atoms: C_6  and  O_22
    7  A    between atoms: C_8  and  C_12
    8  A    between atoms: C_23  and  C_30
                            x       y       z     vdW  Elec       q    Type
                         _______ _______ _______ _____ _____    ______ ____

>  <TORSDO>
F 8

$$$$
=
 OpenBabel11122411453D

 37 42  0  0  1  0  0  0  0  0999 V2000
  185.4990  178.9450  142.8110 C   0  0  1  0  0  3  0  0  0  0  0  0
  188.9030  178.3220  143.0820 O   0  0  0  0  0  0  0  0  0  0  0  0
  183.6580  178.6040  141.0820 C   0  0  2  0  0  3  0  0  0  0  0  0
  186.6210  178.0060  142.4090 C   0  0  2  0  0  3  0  0  0  0  0  0
  184.9390  179.3800  141.4630 C   0  0  2  0  0  3  0  0  0  0  0  0
  187.6900  177.7430  143.4890 C   0  0  2  0  0  3  0  0  0  0  0  0
  182.7240  178.4490  142.2940 C   0  0  0  0  0  2  0  0  0  0  0  0
  186.0680  179.1350  140.4690 C   0  0  0  0  0  2  0  0  0  0  0  0
  184.8580  178.4040  145.0290 C   0  0  0  0  0  2  0  0  0  0  0  0
  183.3120  178.9230  143.4830 O   0  0  0  0  0  0  0  0  0  0  0  0
  189.0740  176.1830  142.0060 O   0  0  0  0  0  0  0  0  0  0  0  0
  189.7190  177.3790  142.4040 C   0  0  1  0  0  3  0  0  0  0  0  0
  184.4890  178.2530  143.6270 N   0  0  1  0  0  0  0  0  0  0  0  0
  187.2160  178.5860  141.2010 N   0  0  2  0  0  0  0  0  0  0  0  0
  187.3360  178.1560  144.9240 C   0  0  1  0  0  3  0  0  0  0  0  0
  189.2830  177.1310  140.9830 C   0  0  2  0  0  3  0  0  0  0  0  0
  187.8880  177.5240  140.4280 C   0  0  2  0  0  3  0  0  0  0  0  0
  186.0350  177.5130  145.3930 C   0  0  0  0  0  2  0  0  0  0  0  0
  189.5450  177.0910  145.4080 C   0  0  0  0  0  3  0  0  0  0  0  0
  188.4440  177.8150  145.8760 C   0  0  0  0  0  0  0  0  0  0  0  0
  188.3900  178.2040  147.2240 C   0  0  0  0  0  3  0  0  0  0  0  0
  189.3760  178.2530  149.4250 O   0  0  0  0  0  1  0  0  0  0  0  0
  190.5300  177.1440  147.6200 C   0  0  0  0  0  3  0  0  0  0  0  0
  189.4320  177.8690  148.0920 C   0  0  0  0  0  0  0  0  0  0  0  0
  190.5870  176.7570  146.2780 C   0  0  0  0  0  3  0  0  0  0  0  0
  188.1030  177.9400  138.9560 C   0  0  0  0  0  2  0  0  0  0  0  0
  187.5290  177.0090  137.9740 N   0  0  0  0  0  0  0  0  0  0  0  0
  185.5390  177.1550  136.5800 C   0  0  0  0  0  1  0  0  0  0  0  0
  186.9070  177.7370  136.8750 C   0  0  0  0  0  2  0  0  0  0  0  0
  188.5820  176.1650  137.4250 C   0  0  0  0  0  2  0  0  0  0  0  0
  189.8460  176.9800  137.2150 C   0  0  0  0  0  2  0  0  0  0  0  0
  190.4770  176.5860  136.0350 O   0  0  0  0  0  1  0  0  0  0  0  0
  183.9620  177.3240  140.5820 O   0  0  0  0  0  0  0  0  0  0  0  0
  183.0580  177.0310  139.5420 C   0  0  0  0  0  0  0  0  0  0  0  0
  181.8040  176.7170  140.0440 F   0  0  0  0  0  0  0  0  0  0  0  0
  182.9570  178.0990  138.6640 F   0  0  0  0  0  0  0  0  0  0  0  0
  183.5300  175.9340  138.8460 F   0  0  0  0  0  0  0  0  0  0  0  0
  1 13  1  0  0  0  0
  2  6  1  0  0  0  0
  3  5  1  0  0  0  0
  3  7  1  0  0  0  0
  4  1  1  0  0  0  0
  4  6  1  0  0  0  0
  5  1  1  0  0  0  0
  6 15  1  0  0  0  0
  7 10  1  0  0  0  0
  8 14  1  0  0  0  0
  8  5  1  0  0  0  0
  9 18  1  0  0  0  0
 10 13  1  0  0  0  0
 11 12  1  0  0  0  0
 12  2  1  0  0  0  0
 13  9  1  0  0  0  0
 14  4  1  0  0  0  0
 15 18  1  0  0  0  0
 15 20  1  0  0  0  0
 16 11  1  0  0  0  0
 16 12  1  0  0  0  0
 17 16  1  0  0  0  0
 17 14  1  0  0  0  0
 19 20  2  0  0  0  0
 19 25  1  0  0  0  0
 20 21  1  0  0  0  0
 21 24  2  0  0  0  0
 23 24  1  0  0  0  0
 24 22  1  0  0  0  0
 25 23  2  0  0  0  0
 26 17  1  0  0  0  0
 27 26  1  0  0  0  0
 28 29  1  0  0  0  0
 29 27  1  0  0  0  0
 30 27  1  0  0  0  0
 31 30  1  0  0  0  0
 32 31  1  0  0  0  0
 33  3  1  0  0  0  0
 34 35  1  0  0  0  0
 34 33  1  0  0  0  0
 36 34  1  0  0  0  0
 37 34  1  0  0  0  0
M  END
>  <MODEL>
7

>  <REMARK>
 VINA RESULT:      -7.3      3.376      6.299
  Name = 
  8 active torsions:
  status: ('A' for Active; 'I' for Inactive)
    1  A    between atoms: C_1  and  N_4
    2  A    between atoms: C_1  and  C_27
    3  A    between atoms: C_2  and  O_22
    4  A    between atoms: N_4  and  C_12
    5  A    between atoms: N_4  and  C_37
    6  A    between atoms: C_6  and  O_22
    7  A    between atoms: C_8  and  C_12
    8  A    between atoms: C_23  and  C_30
                            x       y       z     vdW  Elec       q    Type
                         _______ _______ _______ _____ _____    ______ ____

>  <TORSDO>
F 8

$$$$
=
 OpenBabel11122411453D

 37 42  0  0  1  0  0  0  0  0999 V2000
  185.5790  177.8560  142.9970 C   0  0  1  0  0  3  0  0  0  0  0  0
  188.5510  176.8960  141.4830 O   0  0  0  0  0  0  0  0  0  0  0  0
  184.8080  178.6410  145.2960 C   0  0  2  0  0  3  0  0  0  0  0  0
  187.0800  178.0750  142.9670 C   0  0  2  0  0  3  0  0  0  0  0  0
  185.3340  177.4610  144.4470 C   0  0  2  0  0  3  0  0  0  0  0  0
  187.7340  178.0340  141.5720 C   0  0  2  0  0  3  0  0  0  0  0  0
  183.7500  179.4490  144.5250 C   0  0  0  0  0  2  0  0  0  0  0  0
  186.6810  176.9550  144.9510 C   0  0  0  0  0  2  0  0  0  0  0  0
  184.6330  179.0690  141.1910 C   0  0  0  0  0  2  0  0  0  0  0  0
  183.6130  179.0110  143.1930 O   0  0  0  0  0  0  0  0  0  0  0  0
  190.0970  178.4510  142.4600 O   0  0  0  0  0  0  0  0  0  0  0  0
  189.8940  177.2020  141.8260 C   0  0  1  0  0  3  0  0  0  0  0  0
  184.8520  179.0830  142.6320 N   0  0  1  0  0  0  0  0  0  0  0  0
  187.6510  177.0550  143.8530 N   0  0  2  0  0  0  0  0  0  0  0  0
  186.7890  178.1300  140.3650 C   0  0  1  0  0  3  0  0  0  0  0  0
  190.1140  177.3270  143.3110 C   0  0  2  0  0  3  0  0  0  0  0  0
  188.9670  177.5100  144.3400 C   0  0  2  0  0  3  0  0  0  0  0  0
  185.9130  179.3760  140.4310 C   0  0  0  0  0  2  0  0  0  0  0  0
  188.7050  178.8970  138.9540 C   0  0  0  0  0  3  0  0  0  0  0  0
  187.5530  178.1120  139.0760 C   0  0  0  0  0  0  0  0  0  0  0  0
  187.1290  177.3300  137.9890 C   0  0  0  0  0  3  0  0  0  0  0  0
  187.4330  176.5620  135.7230 O   0  0  0  0  0  1  0  0  0  0  0  0
  189.0050  178.1220  136.6800 C   0  0  0  0  0  3  0  0  0  0  0  0
  187.8550  177.3360  136.7960 C   0  0  0  0  0  0  0  0  0  0  0  0
  189.4300  178.9010  137.7590 C   0  0  0  0  0  3  0  0  0  0  0  0
  189.3970  176.7530  145.6150 C   0  0  0  0  0  2  0  0  0  0  0  0
  190.4480  177.4250  146.3940 N   0  0  0  0  0  0  0  0  0  0  0  0
  188.7280  176.8470  148.0160 C   0  0  0  0  0  1  0  0  0  0  0  0
  190.0790  177.4980  147.8020 C   0  0  0  0  0  2  0  0  0  0  0  0
  191.6930  176.6760  146.2850 C   0  0  0  0  0  2  0  0  0  0  0  0
  191.8730  175.7870  147.5030 C   0  0  0  0  0  2  0  0  0  0  0  0
  193.1290  176.0030  148.0690 O   0  0  0  0  0  1  0  0  0  0  0  0
  185.8500  179.5090  145.6710 O   0  0  0  0  0  0  0  0  0  0  0  0
  186.0560  179.3780  147.0590 C   0  0  0  0  0  0  0  0  0  0  0  0
  185.8840  180.5930  147.7050 F   0  0  0  0  0  0  0  0  0  0  0  0
  185.1920  178.4360  147.5960 F   0  0  0  0  0  0  0  0  0  0  0  0
  187.3530  178.9550  147.2730 F   0  0  0  0  0  0  0  0  0  0  0  0
  1  5  1  0  0  0  0
  2  6  1  0  0  0  0
  2 12  1  0  0  0  0
  3 33  1  0  0  0  0
  4  1  1  0  0  0  0
  4 14  1  0  0  0  0
  5  8  1  0  0  0  0
  5  3  1  0  0  0  0
  6  4  1  0  0  0  0
  7  3  1  0  0  0  0
  9 13  1  0  0  0  0
 10  7  1  0  0  0  0
 11 16  1  0  0  0  0
 12 11  1  0  0  0  0
 12 16  1  0  0  0  0
 13  1  1  0  0  0  0
 13 10  1  0  0  0  0
 14 17  1  0  0  0  0
 14  8  1  0  0  0  0
 15 18  1  0  0  0  0
 15  6  1  0  0  0  0
 16 17  1  0  0  0  0
 17 26  1  0  0  0  0
 18  9  1  0  0  0  0
 19 20  1  0  0  0  0
 20 15  1  0  0  0  0
 21 20  2  0  0  0  0
 22 24  1  0  0  0  0
 23 24  2  0  0  0  0
 23 25  1  0  0  0  0
 24 21  1  0  0  0  0
 25 19  2  0  0  0  0
 26 27  1  0  0  0  0
 27 29  1  0  0  0  0
 29 28  1  0  0  0  0
 30 27  1  0  0  0  0
 30 31  1  0  0  0  0
 31 32  1  0  0  0  0
 33 34  1  0  0  0  0
 34 37  1  0  0  0  0
 34 36  1  0  0  0  0
 34 35  1  0  0  0  0
M  END
>  <MODEL>
8

>  <REMARK>
 VINA RESULT:      -7.2      2.797      6.628
  Name = 
  8 active torsions:
  status: ('A' for Active; 'I' for Inactive)
    1  A    between atoms: C_1  and  N_4
    2  A    between atoms: C_1  and  C_27
    3  A    between atoms: C_2  and  O_22
    4  A    between atoms: N_4  and  C_12
    5  A    between atoms: N_4  and  C_37
    6  A    between atoms: C_6  and  O_22
    7  A    between atoms: C_8  and  C_12
    8  A    between atoms: C_23  and  C_30
                            x       y       z     vdW  Elec       q    Type
                         _______ _______ _______ _____ _____    ______ ____

>  <TORSDO>
F 8

$$$$
=
 OpenBabel11122411453D

 37 42  0  0  1  0  0  0  0  0999 V2000
  188.3350  178.2880  140.0340 C   0  0  1  0  0  3  0  0  0  0  0  0
  185.2490  179.4000  141.1700 O   0  0  0  0  0  0  0  0  0  0  0  0
  190.3360  177.0170  140.9700 C   0  0  2  0  0  3  0  0  0  0  0  0
  187.1800  177.9890  140.9720 C   0  0  2  0  0  3  0  0  0  0  0  0
  189.5240  178.3330  140.9840 C   0  0  2  0  0  3  0  0  0  0  0  0
  185.7760  178.3270  140.4320 C   0  0  2  0  0  3  0  0  0  0  0  0
  190.5100  176.4900  139.5360 C   0  0  0  0  0  2  0  0  0  0  0  0
  188.9230  178.6150  142.3560 C   0  0  0  0  0  2  0  0  0  0  0  0
  187.6920  177.6150  137.8530 C   0  0  0  0  0  2  0  0  0  0  0  0
  189.7800  177.2470  138.5980 O   0  0  0  0  0  0  0  0  0  0  0  0
  184.5690  177.5590  142.5530 O   0  0  0  0  0  0  0  0  0  0  0  0
  184.4470  178.9350  142.2450 C   0  0  1  0  0  3  0  0  0  0  0  0
  188.4840  177.2350  139.0170 N   0  0  1  0  0  0  0  0  0  0  0  0
  187.4670  178.7250  142.2080 N   0  0  2  0  0  0  0  0  0  0  0  0
  185.6630  178.5880  138.9230 C   0  0  1  0  0  3  0  0  0  0  0  0
  185.2540  178.4380  143.4160 C   0  0  2  0  0  3  0  0  0  0  0  0
  186.7620  178.0820  143.3350 C   0  0  2  0  0  3  0  0  0  0  0  0
  186.2050  177.4220  138.1050 C   0  0  0  0  0  2  0  0  0  0  0  0
  183.5010  177.8710  137.8920 C   0  0  0  0  0  3  0  0  0  0  0  0
  184.2450  178.8720  138.5270 C   0  0  0  0  0  0  0  0  0  0  0  0
  183.6560  180.1220  138.7750 C   0  0  0  0  0  3  0  0  0  0  0  0
  181.7560  181.6020  138.6360 O   0  0  0  0  0  1  0  0  0  0  0  0
  181.5970  179.3610  137.7550 C   0  0  0  0  0  3  0  0  0  0  0  0
  182.3350  180.3640  138.3900 C   0  0  0  0  0  0  0  0  0  0  0  0
  182.1790  178.1150  137.5070 C   0  0  0  0  0  3  0  0  0  0  0  0
  187.3810  178.4770  144.6930 C   0  0  0  0  0  2  0  0  0  0  0  0
  186.8100  177.7690  145.8480 N   0  0  0  0  0  0  0  0  0  0  0  0
  188.1980  177.9630  147.8370 C   0  0  0  0  0  1  0  0  0  0  0  0
  187.8570  177.1190  146.6250 C   0  0  0  0  0  2  0  0  0  0  0  0
  186.1210  178.7170  146.7130 C   0  0  0  0  0  2  0  0  0  0  0  0
  184.6990  178.2500  146.9700 C   0  0  0  0  0  2  0  0  0  0  0  0
  183.8050  179.0030  146.2090 O   0  0  0  0  0  1  0  0  0  0  0  0
  189.7110  176.0200  141.7420 O   0  0  0  0  0  0  0  0  0  0  0  0
  190.4260  175.8840  142.9490 C   0  0  0  0  0  0  0  0  0  0  0  0
  189.6920  176.3670  144.0210 F   0  0  0  0  0  0  0  0  0  0  0  0
  190.7630  174.5580  143.1720 F   0  0  0  0  0  0  0  0  0  0  0  0
  191.5900  176.6220  142.8560 F   0  0  0  0  0  0  0  0  0  0  0  0
  1  4  1  0  0  0  0
  1  5  1  0  0  0  0
  2 12  1  0  0  0  0
  3  5  1  0  0  0  0
  3 33  1  0  0  0  0
  4 14  1  0  0  0  0
  5  8  1  0  0  0  0
  6  4  1  0  0  0  0
  6  2  1  0  0  0  0
  7  3  1  0  0  0  0
  9 18  1  0  0  0  0
  9 13  1  0  0  0  0
 10 13  1  0  0  0  0
 10  7  1  0  0  0  0
 11 16  1  0  0  0  0
 12 11  1  0  0  0  0
 12 16  1  0  0  0  0
 13  1  1  0  0  0  0
 14  8  1  0  0  0  0
 14 17  1  0  0  0  0
 15  6  1  0  0  0  0
 17 16  1  0  0  0  0
 17 26  1  0  0  0  0
 18 15  1  0  0  0  0
 19 20  1  0  0  0  0
 20 21  2  0  0  0  0
 20 15  1  0  0  0  0
 23 24  2  0  0  0  0
 24 22  1  0  0  0  0
 24 21  1  0  0  0  0
 25 23  1  0  0  0  0
 25 19  2  0  0  0  0
 26 27  1  0  0  0  0
 27 29  1  0  0  0  0
 27 30  1  0  0  0  0
 29 28  1  0  0  0  0
 30 31  1  0  0  0  0
 32 31  1  0  0  0  0
 33 34  1  0  0  0  0
 34 36  1  0  0  0  0
 34 35  1  0  0  0  0
 37 34  1  0  0  0  0
M  END
>  <MODEL>
9

>  <REMARK>
 VINA RESULT:      -7.0      2.230      5.910
  Name = 
  8 active torsions:
  status: ('A' for Active; 'I' for Inactive)
    1  A    between atoms: C_1  and  N_4
    2  A    between atoms: C_1  and  C_27
    3  A    between atoms: C_2  and  O_22
    4  A    between atoms: N_4  and  C_12
    5  A    between atoms: N_4  and  C_37
    6  A    between atoms: C_6  and  O_22
    7  A    between atoms: C_8  and  C_12
    8  A    between atoms: C_23  and  C_30
                            x       y       z     vdW  Elec       q    Type
                         _______ _______ _______ _____ _____    ______ ____

>  <TORSDO>
F 8

$$$$
