=
 OpenBabel11122411233D

 37 43  0  0  1  0  0  0  0  0999 V2000
  189.0420  176.3750  139.1970 C   0  0  0  0  0  2  0  0  0  0  0  0
  190.8820  177.7630  143.6270 C   0  0  1  0  0  0  0  0  0  0  0  0
  186.8220  178.2870  142.5540 C   0  0  0  0  0  0  0  0  0  0  0  0
  189.4640  176.1320  137.8170 N   0  0  0  0  0  0  0  0  0  0  0  0
  186.1300  178.9930  138.7450 C   0  0  0  0  0  2  0  0  0  0  0  0
  188.4820  178.0080  144.4610 C   0  0  1  0  0  3  0  0  0  0  0  0
  186.8980  178.3590  141.0850 C   0  0  0  0  0  0  0  0  0  0  0  0
  188.1140  177.0860  136.0030 C   0  0  2  0  0  3  0  0  0  0  0  0
  188.1090  178.1730  143.0220 C   0  0  0  0  0  0  0  0  0  0  0  0
  185.8310  178.5800  140.1700 C   0  0  0  0  0  0  0  0  0  0  0  0
  187.3440  177.2960  145.1920 C   0  0  0  0  0  2  0  0  0  0  0  0
  188.4510  175.8300  136.8120 C   0  0  0  0  0  2  0  0  0  0  0  0
  188.9880  178.1210  141.9810 C   0  0  0  0  0  0  0  0  0  0  0  0
  192.0070  176.9710  143.7570 F   0  0  0  0  0  0  0  0  0  0  0  0
  184.4210  178.1240  143.0230 C   0  0  0  0  0  3  0  0  0  0  0  0
  186.0030  177.9910  144.9020 C   0  0  0  0  0  2  0  0  0  0  0  0
  190.4280  177.7200  142.1550 C   0  0  0  0  0  2  0  0  0  0  0  0
  186.9770  177.9110  136.6210 C   0  0  0  0  0  2  0  0  0  0  0  0
  187.1650  178.1080  138.1170 C   0  0  1  0  0  3  0  0  0  0  0  0
  185.7410  178.1350  143.4180 C   0  0  0  0  0  0  0  0  0  0  0  0
  188.2810  178.2050  140.7930 C   0  0  0  0  0  0  0  0  0  0  0  0
  189.7930  177.2230  144.5780 C   0  0  0  0  0  2  0  0  0  0  0  0
  184.4510  178.5290  140.5070 C   0  0  0  0  0  0  0  0  0  0  0  0
  191.2570  179.1860  144.0080 C   0  0  0  0  0  1  0  0  0  0  0  0
  188.4270  178.6350  138.3990 O   0  0  0  0  0  0  0  0  0  0  0  0
  187.7290  176.6900  134.5940 C   0  0  0  0  0  1  0  0  0  0  0  0
  188.9450  177.8900  139.4730 C   0  0  2  0  0  3  0  0  0  0  0  0
  183.8810  178.2940  141.7590 C   0  0  0  0  0  3  0  0  0  0  0  0
  183.0280  177.6320  138.6640 C   0  0  0  0  0  3  0  0  0  0  0  0
  183.4340  178.7190  139.4510 C   0  0  0  0  0  0  0  0  0  0  0  0
  182.8570  179.9800  139.2410 C   0  0  0  0  0  3  0  0  0  0  0  0
  181.3260  181.4040  138.0390 O   0  0  0  0  0  1  0  0  0  0  0  0
  181.4940  179.0680  137.4600 C   0  0  0  0  0  3  0  0  0  0  0  0
  181.8910  180.1540  138.2460 C   0  0  0  0  0  0  0  0  0  0  0  0
  182.0620  177.8070  137.6690 C   0  0  0  0  0  3  0  0  0  0  0  0
  191.8360  176.1090  138.2900 C   0  0  0  0  0  2  0  0  0  0  0  0
  190.8390  176.1980  137.4180 C   0  0  0  0  0  3  0  0  0  0  0  0
  2 14  1  0  0  0  0
  2 24  1  1  0  0  0
  2 22  1  0  0  0  0
  3  9  1  0  0  0  0
  3 20  2  0  0  0  0
  4  1  1  0  0  0  0
  5 10  1  0  0  0  0
  6 22  1  6  0  0  0
  6 11  1  0  0  0  0
  7  3  1  0  0  0  0
  8 26  1  6  0  0  0
  8 18  1  0  0  0  0
  8 12  1  0  0  0  0
  9  6  1  0  0  0  0
 10 23  2  0  0  0  0
 10  7  1  0  0  0  0
 12  4  1  0  0  0  0
 13 17  1  0  0  0  0
 13  9  2  0  0  0  0
 15 20  1  0  0  0  0
 16 11  1  0  0  0  0
 17  2  1  0  0  0  0
 19 18  1  6  0  0  0
 19 25  1  0  0  0  0
 19  5  1  0  0  0  0
 20 16  1  0  0  0  0
 21  7  2  0  0  0  0
 21 13  1  0  0  0  0
 23 28  1  0  0  0  0
 25 27  1  0  0  0  0
 27  1  1  6  0  0  0
 27 21  1  0  0  0  0
 28 15  2  0  0  0  0
 29 30  1  0  0  0  0
 30 23  1  0  0  0  0
 31 30  2  0  0  0  0
 32 34  1  0  0  0  0
 33 35  1  0  0  0  0
 33 34  2  0  0  0  0
 34 31  1  0  0  0  0
 35 29  2  0  0  0  0
 37  4  1  0  0  0  0
 37 36  2  0  0  0  0
M  END
>  <MODEL>
1

>  <REMARK>
 VINA RESULT:     -10.1      0.000      0.000
  Name = 
  2 active torsions:
  status: ('A' for Active; 'I' for Inactive)
    1  A    between atoms: N_4  and  C_37
    2  A    between atoms: C_23  and  C_30
                            x       y       z     vdW  Elec       q    Type
                         _______ _______ _______ _____ _____    ______ ____

>  <TORSDO>
F 2

$$$$
=
 OpenBabel11122411233D

 37 43  0  0  1  0  0  0  0  0999 V2000
  188.3160  176.6120  139.7300 C   0  0  0  0  0  2  0  0  0  0  0  0
  191.2690  177.8830  143.5520 C   0  0  1  0  0  0  0  0  0  0  0  0
  187.0540  178.2240  143.6870 C   0  0  0  0  0  0  0  0  0  0  0  0
  188.3430  176.4630  138.2750 N   0  0  0  0  0  0  0  0  0  0  0  0
  185.2890  179.0770  140.2750 C   0  0  0  0  0  2  0  0  0  0  0  0
  189.1930  177.9480  145.0350 C   0  0  1  0  0  3  0  0  0  0  0  0
  186.7100  178.3730  142.2630 C   0  0  0  0  0  0  0  0  0  0  0  0
  186.4990  177.4260  136.9730 C   0  0  2  0  0  3  0  0  0  0  0  0
  188.4230  178.1620  143.7700 C   0  0  0  0  0  0  0  0  0  0  0  0
  185.4200  178.5770  141.6980 C   0  0  0  0  0  0  0  0  0  0  0  0
  188.3360  177.1350  146.0070 C   0  0  0  0  0  2  0  0  0  0  0  0
  187.1020  176.1530  137.5740 C   0  0  0  0  0  2  0  0  0  0  0  0
  188.9750  178.2120  142.5250 C   0  0  0  0  0  0  0  0  0  0  0  0
  192.4170  177.1520  143.3130 F   0  0  0  0  0  0  0  0  0  0  0  0
  184.8900  177.8990  144.7940 C   0  0  0  0  0  3  0  0  0  0  0  0
  186.9410  177.7650  146.1460 C   0  0  0  0  0  2  0  0  0  0  0  0
  190.4220  177.8870  142.2640 C   0  0  0  0  0  2  0  0  0  0  0  0
  185.5480  178.1530  137.9350 C   0  0  0  0  0  2  0  0  0  0  0  0
  186.1410  178.2860  139.3290 C   0  0  1  0  0  3  0  0  0  0  0  0
  186.2670  177.9670  144.8060 C   0  0  0  0  0  0  0  0  0  0  0  0
  187.9610  178.3140  141.5880 C   0  0  0  0  0  0  0  0  0  0  0  0
  190.5160  177.2340  144.7320 C   0  0  0  0  0  2  0  0  0  0  0  0
  184.1940  178.4300  142.4010 C   0  0  0  0  0  0  0  0  0  0  0  0
  191.6770  179.3050  143.9030 C   0  0  0  0  0  1  0  0  0  0  0  0
  187.4090  178.8700  139.2810 O   0  0  0  0  0  0  0  0  0  0  0  0
  185.7500  177.0790  135.7040 C   0  0  0  0  0  1  0  0  0  0  0  0
  188.2380  178.1040  140.1180 C   0  0  2  0  0  3  0  0  0  0  0  0
  184.0100  178.1000  143.7450 C   0  0  0  0  0  3  0  0  0  0  0  0
  182.6970  177.9680  140.4590 C   0  0  0  0  0  3  0  0  0  0  0  0
  182.9140  178.6130  141.6850 C   0  0  0  0  0  0  0  0  0  0  0  0
  181.9040  179.4170  142.2320 C   0  0  0  0  0  3  0  0  0  0  0  0
  179.6980  180.3820  142.0980 O   0  0  0  0  0  1  0  0  0  0  0  0
  180.4840  178.9410  140.3310 C   0  0  0  0  0  3  0  0  0  0  0  0
  180.6930  179.5820  141.5540 C   0  0  0  0  0  0  0  0  0  0  0  0
  181.4850  178.1330  139.7830 C   0  0  0  0  0  3  0  0  0  0  0  0
  189.7980  177.7300  136.8150 C   0  0  0  0  0  2  0  0  0  0  0  0
  189.5460  176.6280  137.5130 C   0  0  0  0  0  3  0  0  0  0  0  0
  2 24  1  1  0  0  0
  2 22  1  0  0  0  0
  3  9  1  0  0  0  0
  3 20  2  0  0  0  0
  4  1  1  0  0  0  0
  5 10  1  0  0  0  0
  6 22  1  6  0  0  0
  6 11  1  0  0  0  0
  7  3  1  0  0  0  0
  8 26  1  6  0  0  0
  8 12  1  0  0  0  0
  8 18  1  0  0  0  0
  9  6  1  0  0  0  0
 10  7  1  0  0  0  0
 10 23  2  0  0  0  0
 11 16  1  0  0  0  0
 12  4  1  0  0  0  0
 13  9  2  0  0  0  0
 14  2  1  0  0  0  0
 15 20  1  0  0  0  0
 17 13  1  0  0  0  0
 17  2  1  0  0  0  0
 19 18  1  6  0  0  0
 19  5  1  0  0  0  0
 20 16  1  0  0  0  0
 21  7  2  0  0  0  0
 21 13  1  0  0  0  0
 23 28  1  0  0  0  0
 25 19  1  0  0  0  0
 25 27  1  0  0  0  0
 27  1  1  6  0  0  0
 27 21  1  0  0  0  0
 28 15  2  0  0  0  0
 29 30  1  0  0  0  0
 30 31  2  0  0  0  0
 30 23  1  0  0  0  0
 33 34  2  0  0  0  0
 34 32  1  0  0  0  0
 34 31  1  0  0  0  0
 35 33  1  0  0  0  0
 35 29  2  0  0  0  0
 36 37  2  0  0  0  0
 37  4  1  0  0  0  0
M  END
>  <MODEL>
2

>  <REMARK>
 VINA RESULT:      -8.8      1.541      1.871
  Name = 
  2 active torsions:
  status: ('A' for Active; 'I' for Inactive)
    1  A    between atoms: N_4  and  C_37
    2  A    between atoms: C_23  and  C_30
                            x       y       z     vdW  Elec       q    Type
                         _______ _______ _______ _____ _____    ______ ____

>  <TORSDO>
F 2

$$$$
=
 OpenBabel11122411233D

 37 43  0  0  1  0  0  0  0  0999 V2000
  190.2080  178.1800  143.2000 C   0  0  0  0  0  2  0  0  0  0  0  0
  191.5420  176.5160  138.6850 C   0  0  1  0  0  0  0  0  0  0  0  0
  187.6110  177.7840  139.6020 C   0  0  0  0  0  0  0  0  0  0  0  0
  190.5970  178.0810  144.6070 N   0  0  0  0  0  0  0  0  0  0  0  0
  186.4110  177.1270  143.2910 C   0  0  0  0  0  2  0  0  0  0  0  0
  189.3500  177.4550  137.7750 C   0  0  1  0  0  3  0  0  0  0  0  0
  187.5430  177.5540  141.0540 C   0  0  0  0  0  0  0  0  0  0  0  0
  188.8390  177.6790  146.2730 C   0  0  2  0  0  3  0  0  0  0  0  0
  188.8430  177.3470  139.1780 C   0  0  0  0  0  0  0  0  0  0  0  0
  186.4280  177.7570  141.9140 C   0  0  0  0  0  0  0  0  0  0  0  0
  188.7030  178.6660  137.1030 C   0  0  0  0  0  2  0  0  0  0  0  0
  189.7560  178.7160  145.6170 C   0  0  0  0  0  2  0  0  0  0  0  0
  189.5770  176.9040  140.2370 C   0  0  0  0  0  0  0  0  0  0  0  0
  192.9080  176.7240  138.6690 F   0  0  0  0  0  0  0  0  0  0  0  0
  185.5740  179.0540  139.1010 C   0  0  0  0  0  3  0  0  0  0  0  0
  187.1770  178.6280  137.2840 C   0  0  0  0  0  2  0  0  0  0  0  0
  191.0530  176.6260  140.1420 C   0  0  0  0  0  2  0  0  0  0  0  0
  187.5000  177.5150  145.5410 C   0  0  0  0  0  2  0  0  0  0  0  0
  187.6850  177.3900  144.0370 C   0  0  1  0  0  3  0  0  0  0  0  0
  186.7750  178.4850  138.7360 C   0  0  0  0  0  0  0  0  0  0  0  0
  188.8260  177.0410  141.3920 C   0  0  0  0  0  0  0  0  0  0  0  0
  190.8790  177.5720  137.7760 C   0  0  0  0  0  2  0  0  0  0  0  0
  185.2430  178.4540  141.5550 C   0  0  0  0  0  0  0  0  0  0  0  0
  191.2690  175.1170  138.1550 C   0  0  0  0  0  1  0  0  0  0  0  0
  188.5960  176.3780  143.7260 O   0  0  0  0  0  0  0  0  0  0  0  0
  188.5730  178.0780  147.7090 C   0  0  0  0  0  1  0  0  0  0  0  0
  189.4660  176.9030  142.7540 C   0  0  2  0  0  3  0  0  0  0  0  0
  184.9270  179.0330  140.3250 C   0  0  0  0  0  3  0  0  0  0  0  0
  182.8380  178.7340  142.1560 C   0  0  0  0  0  3  0  0  0  0  0  0
  184.1770  178.6500  142.5600 C   0  0  0  0  0  0  0  0  0  0  0  0
  184.4960  178.7360  143.9230 C   0  0  0  0  0  3  0  0  0  0  0  0
  183.8060  179.0030  146.2180 O   0  0  0  0  0  1  0  0  0  0  0  0
  182.1510  179.0030  144.4630 C   0  0  0  0  0  3  0  0  0  0  0  0
  183.4850  178.9150  144.8710 C   0  0  0  0  0  0  0  0  0  0  0  0
  181.8270  178.9120  143.1050 C   0  0  0  0  0  3  0  0  0  0  0  0
  191.7030  176.3300  145.8550 C   0  0  0  0  0  2  0  0  0  0  0  0
  191.7660  177.3670  145.0270 C   0  0  0  0  0  3  0  0  0  0  0  0
  1  4  1  0  0  0  0
  2 24  1  6  0  0  0
  2 17  1  0  0  0  0
  3  7  1  0  0  0  0
  4 37  1  0  0  0  0
  4 12  1  0  0  0  0
  6 11  1  1  0  0  0
  6 22  1  0  0  0  0
  6  9  1  0  0  0  0
  7 21  1  0  0  0  0
  7 10  2  0  0  0  0
  8 26  1  1  0  0  0
  9  3  2  0  0  0  0
  9 13  1  0  0  0  0
 10  5  1  0  0  0  0
 11 16  1  0  0  0  0
 12  8  1  0  0  0  0
 13 21  2  0  0  0  0
 14  2  1  0  0  0  0
 15 28  1  0  0  0  0
 16 20  1  0  0  0  0
 17 13  1  0  0  0  0
 18  8  1  0  0  0  0
 19  5  1  6  0  0  0
 19 18  1  0  0  0  0
 20 15  2  0  0  0  0
 20  3  1  0  0  0  0
 21 27  1  0  0  0  0
 22  2  1  0  0  0  0
 23 10  1  0  0  0  0
 23 30  1  0  0  0  0
 25 19  1  0  0  0  0
 27  1  1  1  0  0  0
 27 25  1  0  0  0  0
 28 23  2  0  0  0  0
 29 30  2  0  0  0  0
 29 35  1  0  0  0  0
 30 31  1  0  0  0  0
 31 34  2  0  0  0  0
 33 34  1  0  0  0  0
 34 32  1  0  0  0  0
 35 33  2  0  0  0  0
 37 36  2  0  0  0  0
M  END
>  <MODEL>
3

>  <REMARK>
 VINA RESULT:      -8.5      2.878      6.186
  Name = 
  2 active torsions:
  status: ('A' for Active; 'I' for Inactive)
    1  A    between atoms: N_4  and  C_37
    2  A    between atoms: C_23  and  C_30
                            x       y       z     vdW  Elec       q    Type
                         _______ _______ _______ _____ _____    ______ ____

>  <TORSDO>
F 2

$$$$
=
 OpenBabel11122411233D

 37 43  0  0  1  0  0  0  0  0999 V2000
  185.1860  177.5990  143.1920 C   0  0  0  0  0  2  0  0  0  0  0  0
  180.4050  179.0410  143.2560 C   0  0  1  0  0  0  0  0  0  0  0  0
  182.4020  177.8470  139.7220 C   0  0  0  0  0  0  0  0  0  0  0  0
  186.4310  177.7610  143.9430 N   0  0  0  0  0  0  0  0  0  0  0  0
  186.2430  178.6840  139.5530 C   0  0  0  0  0  2  0  0  0  0  0  0
  180.1630  178.0780  140.9050 C   0  0  1  0  0  3  0  0  0  0  0  0
  183.8070  178.1450  140.0450 C   0  0  0  0  0  0  0  0  0  0  0  0
  188.4860  178.2530  142.6950 C   0  0  2  0  0  3  0  0  0  0  0  0
  181.6430  178.2540  140.7920 C   0  0  0  0  0  0  0  0  0  0  0  0
  184.9440  177.9910  139.2030 C   0  0  0  0  0  0  0  0  0  0  0  0
  179.7460  176.8410  140.1080 C   0  0  0  0  0  2  0  0  0  0  0  0
  187.6570  177.1800  143.4080 C   0  0  0  0  0  2  0  0  0  0  0  0
  182.4450  178.7410  141.7820 C   0  0  0  0  0  0  0  0  0  0  0  0
  180.0330  178.8220  144.5690 F   0  0  0  0  0  0  0  0  0  0  0  0
  182.5260  176.5710  137.6320 C   0  0  0  0  0  3  0  0  0  0  0  0
  180.3280  176.9000  138.6860 C   0  0  0  0  0  2  0  0  0  0  0  0
  181.9440  179.0030  143.1760 C   0  0  0  0  0  2  0  0  0  0  0  0
  188.1340  178.3930  141.2080 C   0  0  0  0  0  2  0  0  0  0  0  0
  186.6310  178.4470  140.9810 C   0  0  1  0  0  3  0  0  0  0  0  0
  181.8260  177.1130  138.6880 C   0  0  0  0  0  0  0  0  0  0  0  0
  183.7640  178.6640  141.3690 C   0  0  0  0  0  0  0  0  0  0  0  0
  179.7580  177.9490  142.3780 C   0  0  0  0  0  2  0  0  0  0  0  0
  184.9480  177.2870  137.9680 C   0  0  0  0  0  0  0  0  0  0  0  0
  179.9030  180.4160  142.8430 C   0  0  0  0  0  1  0  0  0  0  0  0
  186.0400  179.4360  141.7710 O   0  0  0  0  0  0  0  0  0  0  0  0
  189.9580  177.9240  142.8270 C   0  0  0  0  0  1  0  0  0  0  0  0
  184.8960  178.8600  142.3500 C   0  0  2  0  0  3  0  0  0  0  0  0
  183.8760  176.6540  137.3370 C   0  0  0  0  0  3  0  0  0  0  0  0
  186.4860  178.0040  136.1390 C   0  0  0  0  0  3  0  0  0  0  0  0
  186.2110  177.1460  137.2130 C   0  0  0  0  0  0  0  0  0  0  0  0
  187.1470  176.1660  137.5730 C   0  0  0  0  0  3  0  0  0  0  0  0
  189.2640  175.0670  137.2190 O   0  0  0  0  0  1  0  0  0  0  0  0
  188.6100  176.8950  135.7880 C   0  0  0  0  0  3  0  0  0  0  0  0
  188.3430  176.0400  136.8600 C   0  0  0  0  0  0  0  0  0  0  0  0
  187.6820  177.8780  135.4270 C   0  0  0  0  0  3  0  0  0  0  0  0
  185.4280  178.6270  145.9660 C   0  0  0  0  0  2  0  0  0  0  0  0
  186.4880  178.4850  145.1780 C   0  0  0  0  0  3  0  0  0  0  0  0
  1  4  1  0  0  0  0
  2 24  1  6  0  0  0
  2 14  1  0  0  0  0
  3  7  1  0  0  0  0
  3  9  2  0  0  0  0
  4 37  1  0  0  0  0
  6 11  1  6  0  0  0
  6 22  1  0  0  0  0
  7 21  1  0  0  0  0
  8 26  1  6  0  0  0
  8 12  1  0  0  0  0
  9  6  1  0  0  0  0
  9 13  1  0  0  0  0
 10  5  1  0  0  0  0
 10  7  2  0  0  0  0
 12  4  1  0  0  0  0
 13 17  1  0  0  0  0
 15 20  2  0  0  0  0
 16 20  1  0  0  0  0
 16 11  1  0  0  0  0
 17  2  1  0  0  0  0
 18  8  1  0  0  0  0
 19  5  1  6  0  0  0
 19 18  1  0  0  0  0
 19 25  1  0  0  0  0
 20  3  1  0  0  0  0
 21 13  2  0  0  0  0
 21 27  1  0  0  0  0
 22  2  1  0  0  0  0
 23 10  1  0  0  0  0
 25 27  1  0  0  0  0
 27  1  1  6  0  0  0
 28 15  1  0  0  0  0
 28 23  2  0  0  0  0
 29 30  1  0  0  0  0
 30 31  2  0  0  0  0
 30 23  1  0  0  0  0
 33 34  2  0  0  0  0
 34 32  1  0  0  0  0
 34 31  1  0  0  0  0
 35 33  1  0  0  0  0
 35 29  2  0  0  0  0
 37 36  2  0  0  0  0
M  END
>  <MODEL>
4

>  <REMARK>
 VINA RESULT:      -8.5      3.104      7.180
  Name = 
  2 active torsions:
  status: ('A' for Active; 'I' for Inactive)
    1  A    between atoms: N_4  and  C_37
    2  A    between atoms: C_23  and  C_30
                            x       y       z     vdW  Elec       q    Type
                         _______ _______ _______ _____ _____    ______ ____

>  <TORSDO>
F 2

$$$$
=
 OpenBabel11122411233D

 37 43  0  0  1  0  0  0  0  0999 V2000
  184.4680  177.2720  138.9590 C   0  0  0  0  0  2  0  0  0  0  0  0
  188.5810  177.7110  136.1610 C   0  0  1  0  0  0  0  0  0  0  0  0
  188.6810  177.5330  140.3870 C   0  0  0  0  0  0  0  0  0  0  0  0
  183.0320  177.5500  138.9190 N   0  0  0  0  0  0  0  0  0  0  0  0
  185.6010  179.1280  142.2460 C   0  0  0  0  0  2  0  0  0  0  0  0
  189.9570  177.1190  138.2270 C   0  0  1  0  0  3  0  0  0  0  0  0
  187.3490  178.0450  140.7500 C   0  0  0  0  0  0  0  0  0  0  0  0
  182.0040  178.6370  140.8650 C   0  0  2  0  0  3  0  0  0  0  0  0
  188.7840  177.6000  139.0190 C   0  0  0  0  0  0  0  0  0  0  0  0
  186.8260  178.2590  142.0560 C   0  0  0  0  0  0  0  0  0  0  0  0
  190.6310  175.9730  138.9820 C   0  0  0  0  0  2  0  0  0  0  0  0
  182.2360  177.3190  140.1190 C   0  0  0  0  0  2  0  0  0  0  0  0
  187.6220  178.0660  138.4800 C   0  0  0  0  0  0  0  0  0  0  0  0
  188.1780  177.2100  134.9370 F   0  0  0  0  0  0  0  0  0  0  0  0
  189.5840  176.6680  142.4960 C   0  0  0  0  0  3  0  0  0  0  0  0
  190.9020  176.3780  140.4400 C   0  0  0  0  0  2  0  0  0  0  0  0
  187.3230  177.9910  137.0060 C   0  0  0  0  0  2  0  0  0  0  0  0
  183.1040  178.9480  141.8900 C   0  0  0  0  0  2  0  0  0  0  0  0
  184.4950  178.7400  141.3120 C   0  0  1  0  0  3  0  0  0  0  0  0
  189.6560  176.8800  141.1370 C   0  0  0  0  0  0  0  0  0  0  0  0
  186.7230  178.3200  139.5020 C   0  0  0  0  0  0  0  0  0  0  0  0
  189.5040  176.6720  136.8320 C   0  0  0  0  0  2  0  0  0  0  0  0
  187.4220  177.7830  143.2550 C   0  0  0  0  0  0  0  0  0  0  0  0
  189.3350  179.0080  135.9170 C   0  0  0  0  0  1  0  0  0  0  0  0
  184.6540  179.4500  140.1190 O   0  0  0  0  0  0  0  0  0  0  0  0
  180.6670  178.5880  141.5730 C   0  0  0  0  0  1  0  0  0  0  0  0
  185.2630  178.5710  139.2060 C   0  0  2  0  0  3  0  0  0  0  0  0
  188.6090  177.0630  143.3970 C   0  0  0  0  0  3  0  0  0  0  0  0
  187.4620  177.8840  145.7470 C   0  0  0  0  0  3  0  0  0  0  0  0
  186.7480  178.0210  144.5490 C   0  0  0  0  0  0  0  0  0  0  0  0
  185.3990  178.4000  144.5860 C   0  0  0  0  0  3  0  0  0  0  0  0
  183.4300  179.0020  145.8430 O   0  0  0  0  0  1  0  0  0  0  0  0
  185.4820  178.4870  147.0040 C   0  0  0  0  0  3  0  0  0  0  0  0
  184.7670  178.6300  145.8120 C   0  0  0  0  0  0  0  0  0  0  0  0
  186.8290  178.1150  146.9730 C   0  0  0  0  0  3  0  0  0  0  0  0
  182.6230  177.5640  136.5350 C   0  0  0  0  0  2  0  0  0  0  0  0
  182.3860  178.0580  137.7450 C   0  0  0  0  0  3  0  0  0  0  0  0
  2 24  1  6  0  0  0
  2 22  1  0  0  0  0
  2 17  1  0  0  0  0
  3  7  1  0  0  0  0
  3 20  2  0  0  0  0
  4  1  1  0  0  0  0
  4 12  1  0  0  0  0
  6 22  1  6  0  0  0
  6 11  1  0  0  0  0
  6  9  1  0  0  0  0
  7 10  1  0  0  0  0
  8 26  1  1  0  0  0
  8 18  1  0  0  0  0
  9  3  1  0  0  0  0
 10  5  1  0  0  0  0
 10 23  2  0  0  0  0
 11 16  1  0  0  0  0
 12  8  1  0  0  0  0
 13  9  2  0  0  0  0
 13 21  1  0  0  0  0
 14  2  1  0  0  0  0
 15 28  2  0  0  0  0
 16 20  1  0  0  0  0
 17 13  1  0  0  0  0
 19 18  1  1  0  0  0
 19  5  1  0  0  0  0
 20 15  1  0  0  0  0
 21  7  2  0  0  0  0
 23 28  1  0  0  0  0
 23 30  1  0  0  0  0
 25 19  1  0  0  0  0
 27  1  1  1  0  0  0
 27 21  1  0  0  0  0
 27 25  1  0  0  0  0
 29 35  1  0  0  0  0
 30 31  1  0  0  0  0
 30 29  2  0  0  0  0
 31 34  2  0  0  0  0
 34 32  1  0  0  0  0
 34 33  1  0  0  0  0
 35 33  2  0  0  0  0
 36 37  2  0  0  0  0
 37  4  1  0  0  0  0
M  END
>  <MODEL>
5

>  <REMARK>
 VINA RESULT:      -8.4      2.817      6.693
  Name = 
  2 active torsions:
  status: ('A' for Active; 'I' for Inactive)
    1  A    between atoms: N_4  and  C_37
    2  A    between atoms: C_23  and  C_30
                            x       y       z     vdW  Elec       q    Type
                         _______ _______ _______ _____ _____    ______ ____

>  <TORSDO>
F 2

$$$$
=
 OpenBabel11122411233D

 37 43  0  0  1  0  0  0  0  0999 V2000
  184.2980  177.6770  140.2600 C   0  0  0  0  0  2  0  0  0  0  0  0
  187.6960  178.1260  136.6280 C   0  0  1  0  0  0  0  0  0  0  0  0
  188.7310  177.5370  140.6890 C   0  0  0  0  0  0  0  0  0  0  0  0
  182.9180  178.0460  140.5760 N   0  0  0  0  0  0  0  0  0  0  0  0
  186.2920  179.1350  143.3310 C   0  0  0  0  0  2  0  0  0  0  0  0
  189.4490  177.2540  138.2650 C   0  0  1  0  0  3  0  0  0  0  0  0
  187.5620  178.0940  141.3890 C   0  0  0  0  0  0  0  0  0  0  0  0
  182.4480  179.0030  142.7880 C   0  0  2  0  0  3  0  0  0  0  0  0
  188.5280  177.7290  139.3430 C   0  0  0  0  0  0  0  0  0  0  0  0
  187.3670  178.2140  142.7940 C   0  0  0  0  0  0  0  0  0  0  0  0
  190.1790  176.0010  138.7510 C   0  0  0  0  0  2  0  0  0  0  0  0
  182.3960  177.7510  141.9070 C   0  0  0  0  0  2  0  0  0  0  0  0
  187.3170  178.3150  139.1270 C   0  0  0  0  0  0  0  0  0  0  0  0
  186.9880  177.7700  135.4960 F   0  0  0  0  0  0  0  0  0  0  0  0
  190.0120  176.4200  142.4560 C   0  0  0  0  0  3  0  0  0  0  0  0
  190.8040  176.2470  140.1330 C   0  0  0  0  0  2  0  0  0  0  0  0
  186.6890  178.4010  137.7620 C   0  0  0  0  0  2  0  0  0  0  0  0
  183.7730  179.1450  143.5500 C   0  0  0  0  0  2  0  0  0  0  0  0
  184.9760  178.9080  142.6510 C   0  0  1  0  0  3  0  0  0  0  0  0
  189.7930  176.7570  141.1370 C   0  0  0  0  0  0  0  0  0  0  0  0
  186.6960  178.5260  140.3470 C   0  0  0  0  0  0  0  0  0  0  0  0
  188.6580  176.9720  136.9830 C   0  0  0  0  0  2  0  0  0  0  0  0
  188.1760  177.5890  143.7810 C   0  0  0  0  0  0  0  0  0  0  0  0
  188.4800  179.3910  136.3200 C   0  0  0  0  0  1  0  0  0  0  0  0
  184.9200  179.7170  141.5140 O   0  0  0  0  0  0  0  0  0  0  0  0
  181.3060  178.9690  143.7800 C   0  0  0  0  0  1  0  0  0  0  0  0
  185.2330  178.8940  140.4180 C   0  0  2  0  0  3  0  0  0  0  0  0
  189.3010  176.7860  143.5860 C   0  0  0  0  0  3  0  0  0  0  0  0
  186.4920  177.7380  145.6160 C   0  0  0  0  0  3  0  0  0  0  0  0
  187.8330  177.7430  145.2100 C   0  0  0  0  0  0  0  0  0  0  0  0
  188.8470  177.8780  146.1710 C   0  0  0  0  0  3  0  0  0  0  0  0
  189.5260  178.1540  148.4680 O   0  0  0  0  0  1  0  0  0  0  0  0
  187.1800  178.0170  147.9210 C   0  0  0  0  0  3  0  0  0  0  0  0
  188.5200  178.0170  147.5230 C   0  0  0  0  0  0  0  0  0  0  0  0
  186.1660  177.8770  146.9680 C   0  0  0  0  0  3  0  0  0  0  0  0
  182.2640  178.6110  138.3180 C   0  0  0  0  0  2  0  0  0  0  0  0
  182.0680  178.7030  139.6280 C   0  0  0  0  0  3  0  0  0  0  0  0
  1  4  1  0  0  0  0
  2 24  1  6  0  0  0
  2 22  1  0  0  0  0
  2 17  1  0  0  0  0
  3 20  2  0  0  0  0
  3  7  1  0  0  0  0
  4 12  1  0  0  0  0
  6 22  1  6  0  0  0
  6 11  1  0  0  0  0
  6  9  1  0  0  0  0
  7 10  1  0  0  0  0
  8 18  1  0  0  0  0
  8 26  1  1  0  0  0
  9  3  1  0  0  0  0
 10  5  1  0  0  0  0
 10 23  2  0  0  0  0
 11 16  1  0  0  0  0
 12  8  1  0  0  0  0
 13  9  2  0  0  0  0
 13 21  1  0  0  0  0
 14  2  1  0  0  0  0
 15 28  2  0  0  0  0
 16 20  1  0  0  0  0
 17 13  1  0  0  0  0
 19  5  1  1  0  0  0
 19 18  1  0  0  0  0
 20 15  1  0  0  0  0
 21 27  1  0  0  0  0
 21  7  2  0  0  0  0
 23 30  1  0  0  0  0
 25 19  1  0  0  0  0
 27  1  1  1  0  0  0
 27 25  1  0  0  0  0
 28 23  1  0  0  0  0
 29 35  1  0  0  0  0
 30 29  2  0  0  0  0
 30 31  1  0  0  0  0
 31 34  2  0  0  0  0
 34 33  1  0  0  0  0
 34 32  1  0  0  0  0
 35 33  2  0  0  0  0
 36 37  2  0  0  0  0
 37  4  1  0  0  0  0
M  END
>  <MODEL>
6

>  <REMARK>
 VINA RESULT:      -8.1      3.067      7.491
  Name = 
  2 active torsions:
  status: ('A' for Active; 'I' for Inactive)
    1  A    between atoms: N_4  and  C_37
    2  A    between atoms: C_23  and  C_30
                            x       y       z     vdW  Elec       q    Type
                         _______ _______ _______ _____ _____    ______ ____

>  <TORSDO>
F 2

$$$$
=
 OpenBabel11122411233D

 37 43  0  0  1  0  0  0  0  0999 V2000
  185.1050  177.8130  142.3300 C   0  0  0  0  0  2  0  0  0  0  0  0
  181.3170  179.5030  139.5490 C   0  0  1  0  0  0  0  0  0  0  0  0
  184.8710  177.9250  137.8820 C   0  0  0  0  0  0  0  0  0  0  0  0
  185.6960  177.9690  143.6590 N   0  0  0  0  0  0  0  0  0  0  0  0
  188.1610  178.5450  139.9500 C   0  0  0  0  0  2  0  0  0  0  0  0
  182.3910  178.3670  137.5320 C   0  0  1  0  0  3  0  0  0  0  0  0
  185.8520  178.1750  138.9510 C   0  0  0  0  0  0  0  0  0  0  0  0
  188.1290  178.2520  143.8240 C   0  0  2  0  0  3  0  0  0  0  0  0
  183.6740  178.4560  138.2960 C   0  0  0  0  0  0  0  0  0  0  0  0
  187.2470  177.8940  138.9340 C   0  0  0  0  0  0  0  0  0  0  0  0
  182.4040  177.0930  136.6860 C   0  0  0  0  0  2  0  0  0  0  0  0
  186.9490  177.2840  143.9590 C   0  0  0  0  0  2  0  0  0  0  0  0
  183.7960  178.9780  139.5490 C   0  0  0  0  0  0  0  0  0  0  0  0
  180.2370  179.4100  140.4070 F   0  0  0  0  0  0  0  0  0  0  0  0
  186.0650  176.4800  136.3010 C   0  0  0  0  0  3  0  0  0  0  0  0
  183.7020  177.0070  135.8670 C   0  0  0  0  0  2  0  0  0  0  0  0
  182.6080  179.3780  140.3810 C   0  0  0  0  0  2  0  0  0  0  0  0
  188.7140  178.2900  142.4050 C   0  0  0  0  0  2  0  0  0  0  0  0
  187.6300  178.4030  141.3450 C   0  0  1  0  0  3  0  0  0  0  0  0
  184.9360  177.1420  136.7330 C   0  0  0  0  0  0  0  0  0  0  0  0
  185.0990  178.8000  139.9840 C   0  0  0  0  0  0  0  0  0  0  0  0
  181.2010  178.3790  138.4980 C   0  0  0  0  0  2  0  0  0  0  0  0
  187.9000  177.0940  137.9590 C   0  0  0  0  0  0  0  0  0  0  0  0
  181.2700  180.8640  138.8730 C   0  0  0  0  0  1  0  0  0  0  0  0
  186.7830  179.4830  141.6070 O   0  0  0  0  0  0  0  0  0  0  0  0
  189.2180  177.8580  144.7990 C   0  0  0  0  0  1  0  0  0  0  0  0
  185.4680  179.0150  141.4330 C   0  0  2  0  0  3  0  0  0  0  0  0
  187.3390  176.4680  136.8450 C   0  0  0  0  0  3  0  0  0  0  0  0
  189.9410  176.7490  139.3520 C   0  0  0  0  0  3  0  0  0  0  0  0
  189.3490  176.8270  138.0840 C   0  0  0  0  0  0  0  0  0  0  0  0
  190.1360  176.6350  136.9390 C   0  0  0  0  0  3  0  0  0  0  0  0
  192.2790  176.1920  135.9260 O   0  0  0  0  0  1  0  0  0  0  0  0
  192.0910  176.3050  138.3280 C   0  0  0  0  0  3  0  0  0  0  0  0
  191.5040  176.3780  137.0620 C   0  0  0  0  0  0  0  0  0  0  0  0
  191.3100  176.4900  139.4730 C   0  0  0  0  0  3  0  0  0  0  0  0
  183.7840  179.0020  144.7210 C   0  0  0  0  0  2  0  0  0  0  0  0
  185.0940  178.7870  144.6700 C   0  0  0  0  0  3  0  0  0  0  0  0
  1  4  1  0  0  0  0
  2 24  1  6  0  0  0
  2 17  1  0  0  0  0
  2 14  1  0  0  0  0
  3  9  2  0  0  0  0
  3  7  1  0  0  0  0
  4 12  1  0  0  0  0
  4 37  1  0  0  0  0
  6 11  1  1  0  0  0
  6  9  1  0  0  0  0
  6 22  1  0  0  0  0
  7 21  1  0  0  0  0
  8 12  1  0  0  0  0
  8 26  1  1  0  0  0
  9 13  1  0  0  0  0
 10  7  2  0  0  0  0
 10  5  1  0  0  0  0
 13 21  2  0  0  0  0
 13 17  1  0  0  0  0
 15 20  2  0  0  0  0
 15 28  1  0  0  0  0
 16 11  1  0  0  0  0
 16 20  1  0  0  0  0
 18  8  1  0  0  0  0
 19  5  1  6  0  0  0
 19 25  1  0  0  0  0
 19 18  1  0  0  0  0
 20  3  1  0  0  0  0
 21 27  1  0  0  0  0
 22  2  1  0  0  0  0
 23 30  1  0  0  0  0
 23 10  1  0  0  0  0
 27 25  1  0  0  0  0
 27  1  1  1  0  0  0
 28 23  2  0  0  0  0
 29 35  1  0  0  0  0
 30 29  2  0  0  0  0
 31 34  2  0  0  0  0
 31 30  1  0  0  0  0
 32 34  1  0  0  0  0
 33 35  2  0  0  0  0
 34 33  1  0  0  0  0
 37 36  2  0  0  0  0
M  END
>  <MODEL>
7

>  <REMARK>
 VINA RESULT:      -7.8      2.932      7.968
  Name = 
  2 active torsions:
  status: ('A' for Active; 'I' for Inactive)
    1  A    between atoms: N_4  and  C_37
    2  A    between atoms: C_23  and  C_30
                            x       y       z     vdW  Elec       q    Type
                         _______ _______ _______ _____ _____    ______ ____

>  <TORSDO>
F 2

$$$$
=
 OpenBabel11122411233D

 37 43  0  0  1  0  0  0  0  0999 V2000
  185.3220  177.7760  142.4000 C   0  0  0  0  0  2  0  0  0  0  0  0
  181.5390  179.4570  139.6070 C   0  0  1  0  0  0  0  0  0  0  0  0
  185.1160  177.9190  137.9520 C   0  0  0  0  0  0  0  0  0  0  0  0
  185.9030  177.9270  143.7340 N   0  0  0  0  0  0  0  0  0  0  0  0
  188.3870  178.5490  140.0460 C   0  0  0  0  0  2  0  0  0  0  0  0
  182.6350  178.3450  137.5890 C   0  0  1  0  0  3  0  0  0  0  0  0
  186.0880  178.1680  139.0300 C   0  0  0  0  0  0  0  0  0  0  0  0
  188.3320  178.2260  143.9170 C   0  0  2  0  0  3  0  0  0  0  0  0
  183.9120  178.4380  138.3620 C   0  0  0  0  0  0  0  0  0  0  0  0
  187.4850  177.8990  139.0190 C   0  0  0  0  0  0  0  0  0  0  0  0
  182.6630  177.0780  136.7330 C   0  0  0  0  0  2  0  0  0  0  0  0
  187.1590  177.2490  144.0370 C   0  0  0  0  0  2  0  0  0  0  0  0
  184.0220  178.9520  139.6190 C   0  0  0  0  0  0  0  0  0  0  0  0
  180.4540  179.3500  140.4570 F   0  0  0  0  0  0  0  0  0  0  0  0
  186.3310  176.4950  136.3680 C   0  0  0  0  0  3  0  0  0  0  0  0
  183.9670  177.0070  135.9220 C   0  0  0  0  0  2  0  0  0  0  0  0
  182.8250  179.3360  140.4470 C   0  0  0  0  0  2  0  0  0  0  0  0
  188.9260  178.2800  142.5030 C   0  0  0  0  0  2  0  0  0  0  0  0
  187.8480  178.3930  141.4360 C   0  0  1  0  0  3  0  0  0  0  0  0
  185.1940  177.1450  136.7970 C   0  0  0  0  0  0  0  0  0  0  0  0
  185.3230  178.7800  140.0610 C   0  0  0  0  0  0  0  0  0  0  0  0
  181.4380  178.3400  138.5470 C   0  0  0  0  0  2  0  0  0  0  0  0
  188.1510  177.1100  138.0420 C   0  0  0  0  0  0  0  0  0  0  0  0
  181.4860  180.8230  138.9420 C   0  0  0  0  0  1  0  0  0  0  0  0
  186.9910  179.4640  141.7010 O   0  0  0  0  0  0  0  0  0  0  0  0
  189.4180  177.8340  144.8960 C   0  0  0  0  0  1  0  0  0  0  0  0
  185.6810  178.9870  141.5140 C   0  0  2  0  0  3  0  0  0  0  0  0
  187.6010  176.4890  136.9200 C   0  0  0  0  0  3  0  0  0  0  0  0
  190.2900  176.1770  137.1600 C   0  0  0  0  0  3  0  0  0  0  0  0
  189.6000  176.8540  138.1750 C   0  0  0  0  0  0  0  0  0  0  0  0
  190.2980  177.2990  139.3080 C   0  0  0  0  0  3  0  0  0  0  0  0
  192.3540  177.5000  140.5520 O   0  0  0  0  0  1  0  0  0  0  0  0
  192.3510  176.3810  138.4150 C   0  0  0  0  0  3  0  0  0  0  0  0
  191.6700  177.0610  139.4280 C   0  0  0  0  0  0  0  0  0  0  0  0
  191.6630  175.9400  137.2810 C   0  0  0  0  0  3  0  0  0  0  0  0
  185.2690  178.3710  146.0260 C   0  0  0  0  0  2  0  0  0  0  0  0
  185.2880  178.7320  144.7480 C   0  0  0  0  0  3  0  0  0  0  0  0
  1  4  1  0  0  0  0
  2 24  1  6  0  0  0
  2 17  1  0  0  0  0
  2 14  1  0  0  0  0
  3  9  2  0  0  0  0
  3  7  1  0  0  0  0
  4 12  1  0  0  0  0
  4 37  1  0  0  0  0
  6 11  1  1  0  0  0
  6  9  1  0  0  0  0
  6 22  1  0  0  0  0
  7 21  1  0  0  0  0
  8 12  1  0  0  0  0
  8 26  1  1  0  0  0
  9 13  1  0  0  0  0
 10  7  2  0  0  0  0
 10  5  1  0  0  0  0
 13 21  2  0  0  0  0
 13 17  1  0  0  0  0
 15 20  2  0  0  0  0
 15 28  1  0  0  0  0
 16 11  1  0  0  0  0
 16 20  1  0  0  0  0
 18  8  1  0  0  0  0
 19  5  1  6  0  0  0
 19 25  1  0  0  0  0
 19 18  1  0  0  0  0
 20  3  1  0  0  0  0
 21 27  1  0  0  0  0
 22  2  1  0  0  0  0
 23 30  1  0  0  0  0
 23 10  1  0  0  0  0
 27 25  1  0  0  0  0
 27  1  1  1  0  0  0
 28 23  2  0  0  0  0
 29 35  2  0  0  0  0
 29 30  1  0  0  0  0
 30 31  2  0  0  0  0
 31 34  1  0  0  0  0
 33 34  2  0  0  0  0
 34 32  1  0  0  0  0
 35 33  1  0  0  0  0
 37 36  2  0  0  0  0
M  END
>  <MODEL>
8

>  <REMARK>
 VINA RESULT:      -7.7      2.914      7.902
  Name = 
  2 active torsions:
  status: ('A' for Active; 'I' for Inactive)
    1  A    between atoms: N_4  and  C_37
    2  A    between atoms: C_23  and  C_30
                            x       y       z     vdW  Elec       q    Type
                         _______ _______ _______ _____ _____    ______ ____

>  <TORSDO>
F 2

$$$$
=
 OpenBabel11122411233D

 37 43  0  0  1  0  0  0  0  0999 V2000
  184.4210  177.5220  140.0220 C   0  0  0  0  0  2  0  0  0  0  0  0
  186.0690  177.5020  135.3090 C   0  0  1  0  0  0  0  0  0  0  0  0
  188.6460  177.1870  138.6500 C   0  0  0  0  0  0  0  0  0  0  0  0
  183.2920  177.9860  140.8280 N   0  0  0  0  0  0  0  0  0  0  0  0
  187.5070  179.1160  141.8850 C   0  0  0  0  0  2  0  0  0  0  0  0
  188.3210  176.6740  136.1800 C   0  0  1  0  0  3  0  0  0  0  0  0
  187.8680  177.8590  139.7040 C   0  0  0  0  0  0  0  0  0  0  0  0
  183.7690  179.1410  142.9420 C   0  0  2  0  0  3  0  0  0  0  0  0
  187.9210  177.2810  137.4870 C   0  0  0  0  0  0  0  0  0  0  0  0
  188.2590  178.1010  141.0510 C   0  0  0  0  0  0  0  0  0  0  0  0
  189.1650  175.4280  136.4480 C   0  0  0  0  0  2  0  0  0  0  0  0
  183.3470  177.8270  142.2780 C   0  0  0  0  0  2  0  0  0  0  0  0
  186.7340  177.9100  137.7200 C   0  0  0  0  0  0  0  0  0  0  0  0
  184.9590  177.0940  134.5940 F   0  0  0  0  0  0  0  0  0  0  0  0
  190.5140  176.1500  139.8530 C   0  0  0  0  0  3  0  0  0  0  0  0
  190.2990  175.7510  137.4350 C   0  0  0  0  0  2  0  0  0  0  0  0
  185.6100  177.9180  136.7190 C   0  0  0  0  0  2  0  0  0  0  0  0
  185.2910  179.2750  143.0930 C   0  0  0  0  0  2  0  0  0  0  0  0
  186.0250  178.9040  141.8140 C   0  0  1  0  0  3  0  0  0  0  0  0
  189.7870  176.3910  138.7070 C   0  0  0  0  0  0  0  0  0  0  0  0
  186.6620  178.2500  139.0600 C   0  0  0  0  0  0  0  0  0  0  0  0
  187.0750  176.3320  135.3550 C   0  0  0  0  0  2  0  0  0  0  0  0
  189.3880  177.5150  141.6860 C   0  0  0  0  0  0  0  0  0  0  0  0
  186.6810  178.6960  134.5940 C   0  0  0  0  0  1  0  0  0  0  0  0
  185.5270  179.6220  140.7240 O   0  0  0  0  0  0  0  0  0  0  0  0
  183.1240  179.2460  144.3070 C   0  0  0  0  0  1  0  0  0  0  0  0
  185.3580  178.6980  139.6770 C   0  0  2  0  0  3  0  0  0  0  0  0
  190.3260  176.6430  141.1330 C   0  0  0  0  0  3  0  0  0  0  0  0
  190.7710  178.5640  143.4780 C   0  0  0  0  0  3  0  0  0  0  0  0
  189.6540  177.8010  143.1110 C   0  0  0  0  0  0  0  0  0  0  0  0
  188.7840  177.3260  144.1040 C   0  0  0  0  0  3  0  0  0  0  0  0
  188.1750  177.1280  146.4290 O   0  0  0  0  0  1  0  0  0  0  0  0
  190.1540  178.3600  145.8100 C   0  0  0  0  0  3  0  0  0  0  0  0
  189.0360  177.6030  145.4500 C   0  0  0  0  0  0  0  0  0  0  0  0
  191.0210  178.8420  144.8250 C   0  0  0  0  0  3  0  0  0  0  0  0
  180.9330  178.5220  140.7880 C   0  0  0  0  0  2  0  0  0  0  0  0
  182.1410  178.6090  140.2430 C   0  0  0  0  0  3  0  0  0  0  0  0
  1  4  1  0  0  0  0
  2 24  1  6  0  0  0
  2 22  1  0  0  0  0
  2 17  1  0  0  0  0
  3 20  2  0  0  0  0
  3  7  1  0  0  0  0
  4 12  1  0  0  0  0
  6 22  1  1  0  0  0
  6 11  1  0  0  0  0
  6  9  1  0  0  0  0
  7 10  1  0  0  0  0
  8 18  1  0  0  0  0
  8 26  1  1  0  0  0
  9 13  2  0  0  0  0
  9  3  1  0  0  0  0
 10 23  2  0  0  0  0
 10  5  1  0  0  0  0
 11 16  1  0  0  0  0
 12  8  1  0  0  0  0
 13 21  1  0  0  0  0
 14  2  1  0  0  0  0
 15 28  2  0  0  0  0
 16 20  1  0  0  0  0
 17 13  1  0  0  0  0
 19  5  1  1  0  0  0
 19 18  1  0  0  0  0
 20 15  1  0  0  0  0
 21 27  1  0  0  0  0
 21  7  2  0  0  0  0
 23 30  1  0  0  0  0
 25 19  1  0  0  0  0
 27  1  1  1  0  0  0
 27 25  1  0  0  0  0
 28 23  1  0  0  0  0
 29 35  1  0  0  0  0
 30 29  2  0  0  0  0
 30 31  1  0  0  0  0
 31 34  2  0  0  0  0
 34 33  1  0  0  0  0
 34 32  1  0  0  0  0
 35 33  2  0  0  0  0
 37 36  2  0  0  0  0
 37  4  1  0  0  0  0
M  END
>  <MODEL>
9

>  <REMARK>
 VINA RESULT:      -7.6      2.947      7.960
  Name = 
  2 active torsions:
  status: ('A' for Active; 'I' for Inactive)
    1  A    between atoms: N_4  and  C_37
    2  A    between atoms: C_23  and  C_30
                            x       y       z     vdW  Elec       q    Type
                         _______ _______ _______ _____ _____    ______ ____

>  <TORSDO>
F 2

$$$$
