=
 OpenBabel11122410373D

 32 37  0  0  1  0  0  0  0  0999 V2000
  191.4520  173.9300  136.7450 C   0  0  0  0  0  2  0  0  0  0  0  0
  188.6990  178.0160  139.3970 C   0  0  1  0  0  3  0  0  0  0  0  0
  191.3810  176.5800  143.3130 C   0  0  0  0  0  3  0  0  0  0  0  0
  190.1080  176.2980  144.0550 C   0  0  0  0  0  2  0  0  0  0  0  0
  186.2290  178.6730  139.7800 C   0  0  0  0  0  0  0  0  0  0  0  0
  185.1330  178.8830  140.7240 C   0  0  1  0  0  3  0  0  0  0  0  0
  189.6240  176.5550  137.5930 C   0  0  1  0  0  3  0  0  0  0  0  0
  191.1550  177.6950  139.2290 C   0  0  0  0  0  2  0  0  0  0  0  0
  184.1460  178.7480  142.7710 C   0  0  2  0  0  3  0  0  0  0  0  0
  192.1120  176.2610  137.4570 C   0  0  0  0  0  3  0  0  0  0  0  0
  191.3440  177.1200  142.0930 C   0  0  0  0  0  3  0  0  0  0  0  0
  189.9880  177.8780  140.0880 N   0  0  0  0  0  0  0  0  0  0  0  0
  190.0570  177.5340  141.4840 C   0  0  0  0  0  0  0  0  0  0  0  0
  187.6700  178.0610  141.6750 C   0  0  0  0  0  0  0  0  0  0  0  0
  183.2390  178.4460  141.8510 C   0  0  0  0  0  3  0  0  0  0  0  0
  190.0040  174.0780  137.2260 C   0  0  0  0  0  2  0  0  0  0  0  0
  190.9490  176.4470  138.3770 C   0  0  2  0  0  3  0  0  0  0  0  0
  183.8820  178.4890  140.5400 C   0  0  0  0  0  3  0  0  0  0  0  0
  189.3490  175.3470  136.6910 C   0  0  0  0  0  2  0  0  0  0  0  0
  192.3320  175.1700  136.7100 C   0  0  0  0  0  0  0  0  0  0  0  0
  189.0500  177.3580  143.7370 C   0  0  0  0  0  2  0  0  0  0  0  0
  188.9500  177.6020  142.2500 C   0  0  0  0  0  0  0  0  0  0  0  0
  186.5470  178.2790  142.5540 N   0  0  0  0  0  2  0  0  0  0  0  0
  188.4500  176.7670  138.5510 C   0  0  0  0  0  2  0  0  0  0  0  0
  186.0430  178.7720  138.5380 O   0  0  0  0  0  0  0  0  0  0  0  0
  183.8470  178.8370  144.2250 C   0  0  0  0  0  1  0  0  0  0  0  0
  187.5460  178.2750  140.3390 C   0  0  0  0  0  0  0  0  0  0  0  0
  185.4380  179.1390  142.1490 C   0  0  1  0  0  3  0  0  0  0  0  0
  193.5130  175.1820  135.8960 N   0  0  0  0  0  2  0  0  0  0  0  0
  194.8730  175.2080  136.3480 C   0  0  0  0  0  0  0  0  0  0  0  0
  195.1590  175.1830  137.5740 O   0  0  0  0  0  0  0  0  0  0  0  0
  195.9690  175.2560  135.3460 C   0  0  0  0  0  1  0  0  0  0  0  0
  1 16  1  0  0  0  0
  2 24  1  1  0  0  0
  2 12  1  0  0  0  0
  2 27  1  0  0  0  0
  3  4  1  0  0  0  0
  5 27  1  0  0  0  0
  5  6  1  0  0  0  0
  6 18  1  1  0  0  0
  6 28  1  0  0  0  0
  7 19  1  1  0  0  0
  7 17  1  0  0  0  0
  7 24  1  0  0  0  0
  8 12  1  0  0  0  0
  9 26  1  6  0  0  0
 11  3  2  0  0  0  0
 12 13  1  0  0  0  0
 13 11  1  0  0  0  0
 13 22  2  0  0  0  0
 14 22  1  0  0  0  0
 14 23  1  0  0  0  0
 15  9  1  0  0  0  0
 17 10  1  6  0  0  0
 17  8  1  0  0  0  0
 18 15  2  0  0  0  0
 19 16  1  0  0  0  0
 20  1  1  0  0  0  0
 20 10  2  0  0  0  0
 21  4  1  0  0  0  0
 22 21  1  0  0  0  0
 25  5  2  0  0  0  0
 27 14  2  0  0  0  0
 28 23  1  1  0  0  0
 28  9  1  0  0  0  0
 29 30  1  0  0  0  0
 29 20  1  0  0  0  0
 30 31  2  0  0  0  0
 32 30  1  0  0  0  0
M  END
>  <MODEL>
1

>  <REMARK>
 VINA RESULT:      -9.5      0.000      0.000
  Name = 
  1 active torsions:
  status: ('A' for Active; 'I' for Inactive)
    1  A    between atoms: C_20  and  N_29
                            x       y       z     vdW  Elec       q    Type
                         _______ _______ _______ _____ _____    ______ ____

>  <TORSDO>
F 1

$$$$
=
 OpenBabel11122410373D

 32 37  0  0  1  0  0  0  0  0999 V2000
  181.8410  176.4090  138.0640 C   0  0  0  0  0  2  0  0  0  0  0  0
  185.2910  178.7860  141.7740 C   0  0  1  0  0  3  0  0  0  0  0  0
  188.8280  177.4510  138.5650 C   0  0  0  0  0  3  0  0  0  0  0  0
  189.4750  176.6400  139.6490 C   0  0  0  0  0  2  0  0  0  0  0  0
  185.7790  178.5530  144.3000 C   0  0  0  0  0  0  0  0  0  0  0  0
  186.7320  178.2090  145.3530 C   0  0  1  0  0  3  0  0  0  0  0  0
  183.2220  178.0990  140.5520 C   0  0  1  0  0  3  0  0  0  0  0  0
  185.0860  179.2820  139.3500 C   0  0  0  0  0  2  0  0  0  0  0  0
  188.6880  177.3450  146.1360 C   0  0  2  0  0  3  0  0  0  0  0  0
  183.0540  178.6240  138.1030 C   0  0  0  0  0  3  0  0  0  0  0  0
  187.7560  178.2000  138.8330 C   0  0  0  0  0  3  0  0  0  0  0  0
  185.9500  178.9090  140.4660 N   0  0  0  0  0  0  0  0  0  0  0  0
  187.2370  178.3150  140.2180 C   0  0  0  0  0  0  0  0  0  0  0  0
  187.5100  178.0270  142.6370 C   0  0  0  0  0  0  0  0  0  0  0  0
  187.7130  176.9800  146.9590 C   0  0  0  0  0  3  0  0  0  0  0  0
  182.3260  175.9980  139.4600 C   0  0  0  0  0  2  0  0  0  0  0  0
  183.9790  178.2420  139.2140 C   0  0  2  0  0  3  0  0  0  0  0  0
  186.4510  177.4960  146.4340 C   0  0  0  0  0  3  0  0  0  0  0  0
  182.0730  177.0860  140.4980 C   0  0  0  0  0  2  0  0  0  0  0  0
  182.0890  177.8380  137.6050 C   0  0  0  0  0  0  0  0  0  0  0  0
  189.3850  177.3640  140.9940 C   0  0  0  0  0  2  0  0  0  0  0  0
  187.9860  177.8740  141.2470 C   0  0  0  0  0  0  0  0  0  0  0  0
  188.4020  177.6970  143.7220 N   0  0  0  0  0  2  0  0  0  0  0  0
  184.1880  177.7300  141.6780 C   0  0  0  0  0  2  0  0  0  0  0  0
  184.5860  178.8500  144.5780 O   0  0  0  0  0  0  0  0  0  0  0  0
  190.1220  177.0260  146.3650 C   0  0  0  0  0  1  0  0  0  0  0  0
  186.2530  178.4710  142.8950 C   0  0  0  0  0  0  0  0  0  0  0  0
  188.1820  178.2380  145.0600 C   0  0  1  0  0  3  0  0  0  0  0  0
  181.3120  178.3860  136.5320 N   0  0  0  0  0  2  0  0  0  0  0  0
  180.1610  179.2320  136.6440 C   0  0  0  0  0  0  0  0  0  0  0  0
  179.7340  179.6170  137.7650 O   0  0  0  0  0  0  0  0  0  0  0  0
  179.4600  179.6720  135.4090 C   0  0  0  0  0  1  0  0  0  0  0  0
  1 16  1  0  0  0  0
  2 24  1  6  0  0  0
  2 27  1  0  0  0  0
  3 11  2  0  0  0  0
  3  4  1  0  0  0  0
  4 21  1  0  0  0  0
  5 25  2  0  0  0  0
  5  6  1  0  0  0  0
  6 18  1  6  0  0  0
  7 19  1  6  0  0  0
  7 24  1  0  0  0  0
  8 12  1  0  0  0  0
  9 26  1  1  0  0  0
  9 15  1  0  0  0  0
 11 13  1  0  0  0  0
 12  2  1  0  0  0  0
 13 12  1  0  0  0  0
 13 22  2  0  0  0  0
 14 27  2  0  0  0  0
 14 23  1  0  0  0  0
 16 19  1  0  0  0  0
 17 10  1  6  0  0  0
 17  8  1  0  0  0  0
 17  7  1  0  0  0  0
 18 15  2  0  0  0  0
 20  1  1  0  0  0  0
 20 10  2  0  0  0  0
 21 22  1  0  0  0  0
 22 14  1  0  0  0  0
 27  5  1  0  0  0  0
 28 23  1  6  0  0  0
 28  6  1  0  0  0  0
 28  9  1  0  0  0  0
 29 30  1  0  0  0  0
 29 20  1  0  0  0  0
 30 31  2  0  0  0  0
 32 30  1  0  0  0  0
M  END
>  <MODEL>
2

>  <REMARK>
 VINA RESULT:      -8.4      4.153      7.847
  Name = 
  1 active torsions:
  status: ('A' for Active; 'I' for Inactive)
    1  A    between atoms: C_20  and  N_29
                            x       y       z     vdW  Elec       q    Type
                         _______ _______ _______ _____ _____    ______ ____

>  <TORSDO>
F 1

$$$$
=
 OpenBabel11122410373D

 32 37  0  0  1  0  0  0  0  0999 V2000
  187.4240  176.7490  143.6820 C   0  0  0  0  0  2  0  0  0  0  0  0
  190.6770  177.1760  139.1490 C   0  0  1  0  0  3  0  0  0  0  0  0
  186.8210  175.1010  136.8210 C   0  0  0  0  0  3  0  0  0  0  0  0
  187.7120  173.9690  136.4000 C   0  0  0  0  0  2  0  0  0  0  0  0
  193.0580  176.4360  138.4720 C   0  0  0  0  0  0  0  0  0  0  0  0
  193.9040  175.6280  137.5960 C   0  0  1  0  0  3  0  0  0  0  0  0
  189.7700  177.4630  141.4600 C   0  0  1  0  0  3  0  0  0  0  0  0
  188.3700  178.0400  139.4550 C   0  0  0  0  0  2  0  0  0  0  0  0
  194.2740  174.0140  136.0340 C   0  0  2  0  0  3  0  0  0  0  0  0
  187.4350  178.3440  141.7240 C   0  0  0  0  0  3  0  0  0  0  0  0
  187.3250  176.1430  137.4850 C   0  0  0  0  0  3  0  0  0  0  0  0
  189.2910  177.2290  138.6640 N   0  0  0  0  0  0  0  0  0  0  0  0
  188.7820  176.2480  137.7420 C   0  0  0  0  0  0  0  0  0  0  0  0
  191.0900  175.5510  137.2950 C   0  0  0  0  0  0  0  0  0  0  0  0
  195.2180  173.9190  136.9610 C   0  0  0  0  0  3  0  0  0  0  0  0
  188.6810  176.0030  143.2190 C   0  0  0  0  0  2  0  0  0  0  0  0
  188.3400  177.5030  140.8810 C   0  0  2  0  0  3  0  0  0  0  0  0
  194.9570  174.9250  137.9880 C   0  0  0  0  0  3  0  0  0  0  0  0
  189.8300  176.9540  142.9050 C   0  0  0  0  0  2  0  0  0  0  0  0
  187.0460  178.0390  142.9690 C   0  0  0  0  0  0  0  0  0  0  0  0
  189.1070  174.4840  136.0380 C   0  0  0  0  0  2  0  0  0  0  0  0
  189.6320  175.4280  137.0930 C   0  0  0  0  0  0  0  0  0  0  0  0
  191.9790  174.7730  136.4670 N   0  0  0  0  0  2  0  0  0  0  0  0
  190.6850  176.6170  140.5730 C   0  0  0  0  0  2  0  0  0  0  0  0
  193.5550  177.1050  139.4170 O   0  0  0  0  0  0  0  0  0  0  0  0
  194.2310  173.1670  134.8120 C   0  0  0  0  0  1  0  0  0  0  0  0
  191.5910  176.3820  138.2460 C   0  0  0  0  0  0  0  0  0  0  0  0
  193.3740  175.1680  136.2930 C   0  0  1  0  0  3  0  0  0  0  0  0
  186.1660  178.9740  143.6090 N   0  0  0  0  0  2  0  0  0  0  0  0
  184.7390  179.0350  143.4930 C   0  0  0  0  0  0  0  0  0  0  0  0
  184.0990  178.1960  142.8060 O   0  0  0  0  0  0  0  0  0  0  0  0
  183.9980  180.1070  144.2060 C   0  0  0  0  0  1  0  0  0  0  0  0
  2 24  1  1  0  0  0
  3 11  2  0  0  0  0
  4  3  1  0  0  0  0
  5 25  2  0  0  0  0
  6 18  1  1  0  0  0
  6  5  1  0  0  0  0
  7 24  1  6  0  0  0
  7 19  1  0  0  0  0
  9 26  1  6  0  0  0
  9 28  1  0  0  0  0
  9 15  1  0  0  0  0
 10 20  2  0  0  0  0
 11 13  1  0  0  0  0
 12  2  1  0  0  0  0
 12  8  1  0  0  0  0
 13 12  1  0  0  0  0
 14 27  2  0  0  0  0
 15 18  2  0  0  0  0
 16  1  1  0  0  0  0
 17  8  1  6  0  0  0
 17  7  1  0  0  0  0
 17 10  1  0  0  0  0
 19 16  1  0  0  0  0
 20 29  1  0  0  0  0
 20  1  1  0  0  0  0
 21  4  1  0  0  0  0
 21 22  1  0  0  0  0
 22 14  1  0  0  0  0
 22 13  2  0  0  0  0
 23 14  1  0  0  0  0
 27  5  1  0  0  0  0
 27  2  1  0  0  0  0
 28 23  1  1  0  0  0
 28  6  1  0  0  0  0
 30 29  1  0  0  0  0
 30 32  1  0  0  0  0
 31 30  2  0  0  0  0
M  END
>  <MODEL>
3

>  <REMARK>
 VINA RESULT:      -8.3      1.768      8.861
  Name = 
  1 active torsions:
  status: ('A' for Active; 'I' for Inactive)
    1  A    between atoms: C_20  and  N_29
                            x       y       z     vdW  Elec       q    Type
                         _______ _______ _______ _____ _____    ______ ____

>  <TORSDO>
F 1

$$$$
=
 OpenBabel11122410373D

 32 37  0  0  1  0  0  0  0  0999 V2000
  182.3900  178.6290  141.1950 C   0  0  0  0  0  2  0  0  0  0  0  0
  186.3930  177.5360  137.4410 C   0  0  1  0  0  3  0  0  0  0  0  0
  183.9150  173.2880  136.8010 C   0  0  0  0  0  3  0  0  0  0  0  0
  185.1530  172.5330  137.1880 C   0  0  0  0  0  2  0  0  0  0  0  0
  188.9760  177.4610  137.4200 C   0  0  0  0  0  0  0  0  0  0  0  0
  190.1930  176.6700  137.2490 C   0  0  0  0  0  0  0  0  0  0  0  0
  184.9170  178.7370  139.0610 C   0  0  1  0  0  3  0  0  0  0  0  0
  183.9350  177.5180  137.0950 C   0  0  0  0  0  2  0  0  0  0  0  0
  191.3480  174.7210  137.0250 C   0  0  0  0  0  0  0  0  0  0  0  0
  182.4380  178.6960  138.6710 C   0  0  0  0  0  3  0  0  0  0  0  0
  183.9450  174.6180  136.6910 C   0  0  0  0  0  3  0  0  0  0  0  0
  185.2030  176.8000  136.9950 N   0  0  0  0  0  0  0  0  0  0  0  0
  185.2140  175.3660  136.8620 C   0  0  0  0  0  0  0  0  0  0  0  0
  187.6610  175.4290  136.9950 C   0  0  0  0  0  0  0  0  0  0  0  0
  192.0320  175.5190  137.8350 C   0  0  0  0  0  3  0  0  0  0  0  0
  183.8740  178.2650  141.3200 C   0  0  0  0  0  2  0  0  0  0  0  0
  183.7110  177.9220  138.5480 C   0  0  2  0  0  3  0  0  0  0  0  0
  191.2700  176.7530  138.0160 C   0  0  0  0  0  3  0  0  0  0  0  0
  184.7640  179.2040  140.5130 C   0  0  0  0  0  2  0  0  0  0  0  0
  181.8590  179.0400  139.8300 C   0  0  0  0  0  0  0  0  0  0  0  0
  186.4010  173.2100  136.6180 C   0  0  0  0  0  2  0  0  0  0  0  0
  186.3830  174.6970  136.8780 C   0  0  0  0  0  0  0  0  0  0  0  0
  188.8990  174.7020  136.8440 N   0  0  0  0  0  2  0  0  0  0  0  0
  186.2110  177.9360  138.9060 C   0  0  0  0  0  2  0  0  0  0  0  0
  189.0330  178.6730  137.7620 O   0  0  0  0  0  0  0  0  0  0  0  0
  191.8300  173.3850  136.5850 C   0  0  0  0  0  1  0  0  0  0  0  0
  187.6760  176.7640  137.2420 C   0  0  0  0  0  0  0  0  0  0  0  0
  190.1350  175.3980  136.4960 C   0  0  1  0  0  3  0  0  0  0  0  0
  180.6330  179.7780  139.7350 N   0  0  0  0  0  2  0  0  0  0  0  0
  180.4590  181.0990  139.2080 C   0  0  0  0  0  0  0  0  0  0  0  0
  181.4240  181.7440  138.7190 O   0  0  0  0  0  0  0  0  0  0  0  0
  179.1080  181.7170  139.2300 C   0  0  0  0  0  1  0  0  0  0  0  0
  1 16  1  0  0  0  0
  2 24  1  1  0  0  0
  3  4  1  0  0  0  0
  5 25  2  0  0  0  0
  6  5  1  0  0  0  0
  6 18  2  0  0  0  0
  7 24  1  1  0  0  0
  7 19  1  0  0  0  0
  9 15  2  0  0  0  0
 10 20  2  0  0  0  0
 11  3  2  0  0  0  0
 11 13  1  0  0  0  0
 12  8  1  0  0  0  0
 12  2  1  0  0  0  0
 13 22  2  0  0  0  0
 13 12  1  0  0  0  0
 14 27  2  0  0  0  0
 15 18  1  0  0  0  0
 17  8  1  6  0  0  0
 17 10  1  0  0  0  0
 17  7  1  0  0  0  0
 19 16  1  0  0  0  0
 20  1  1  0  0  0  0
 21 22  1  0  0  0  0
 21  4  1  0  0  0  0
 22 14  1  0  0  0  0
 23 14  1  0  0  0  0
 26  9  1  0  0  0  0
 27  5  1  0  0  0  0
 27  2  1  0  0  0  0
 28 23  1  1  0  0  0
 28  9  1  0  0  0  0
 28  6  1  0  0  0  0
 29 20  1  0  0  0  0
 30 32  1  0  0  0  0
 30 29  1  0  0  0  0
 31 30  2  0  0  0  0
M  END
>  <MODEL>
4

>  <REMARK>
 VINA RESULT:      -7.0      3.401      9.349
  Name = 
  1 active torsions:
  status: ('A' for Active; 'I' for Inactive)
    1  A    between atoms: C_20  and  N_29
                            x       y       z     vdW  Elec       q    Type
                         _______ _______ _______ _____ _____    ______ ____

>  <TORSDO>
F 1

$$$$
=
 OpenBabel11122410373D

 32 37  0  0  1  0  0  0  0  0999 V2000
  188.4650  174.0670  136.7410 C   0  0  0  0  0  2  0  0  0  0  0  0
  184.9210  178.1730  138.1170 C   0  0  1  0  0  3  0  0  0  0  0  0
  187.4650  178.2430  142.3730 C   0  0  0  0  0  3  0  0  0  0  0  0
  186.1930  177.9500  143.1130 C   0  0  0  0  0  2  0  0  0  0  0  0
  182.3580  178.4840  138.2190 C   0  0  0  0  0  0  0  0  0  0  0  0
  181.1700  178.7400  139.0310 C   0  0  1  0  0  3  0  0  0  0  0  0
  186.1980  176.4780  136.7980 C   0  0  1  0  0  3  0  0  0  0  0  0
  187.4020  178.2340  138.1340 C   0  0  0  0  0  2  0  0  0  0  0  0
  180.0530  178.9650  141.0010 C   0  0  2  0  0  3  0  0  0  0  0  0
  188.7060  176.5790  136.8400 C   0  0  0  0  0  3  0  0  0  0  0  0
  187.4450  178.4430  141.0540 C   0  0  0  0  0  3  0  0  0  0  0  0
  186.1560  178.4310  138.8690 N   0  0  0  0  0  0  0  0  0  0  0  0
  186.1630  178.4680  140.3080 C   0  0  0  0  0  0  0  0  0  0  0  0
  183.7170  178.6210  140.2610 C   0  0  0  0  0  0  0  0  0  0  0  0
  179.2790  178.2930  140.1590 C   0  0  0  0  0  3  0  0  0  0  0  0
  186.9770  174.0890  137.1100 C   0  0  0  0  0  2  0  0  0  0  0  0
  187.4580  176.7950  137.6340 C   0  0  2  0  0  3  0  0  0  0  0  0
  180.0110  178.1090  138.9090 C   0  0  0  0  0  3  0  0  0  0  0  0
  186.1830  175.0520  136.2350 C   0  0  0  0  0  2  0  0  0  0  0  0
  189.1470  175.3870  136.4160 C   0  0  0  0  0  0  0  0  0  0  0  0
  185.0170  178.7030  142.4880 C   0  0  0  0  0  2  0  0  0  0  0  0
  185.0010  178.5420  140.9870 C   0  0  0  0  0  0  0  0  0  0  0  0
  182.5060  178.8640  141.0080 N   0  0  0  0  0  2  0  0  0  0  0  0
  184.9330  176.7260  137.6200 C   0  0  0  0  0  2  0  0  0  0  0  0
  182.2590  178.2320  136.9880 O   0  0  0  0  0  0  0  0  0  0  0  0
  179.6270  179.3670  142.3690 C   0  0  0  0  0  1  0  0  0  0  0  0
  183.6700  178.4660  138.9130 C   0  0  0  0  0  0  0  0  0  0  0  0
  181.3170  179.3950  140.3490 C   0  0  1  0  0  3  0  0  0  0  0  0
  190.3750  175.3890  135.6730 N   0  0  0  0  0  2  0  0  0  0  0  0
  191.6860  175.0940  136.1710 C   0  0  0  0  0  0  0  0  0  0  0  0
  191.8720  174.7520  137.3690 O   0  0  0  0  0  0  0  0  0  0  0  0
  192.8490  175.1870  135.2520 C   0  0  0  0  0  1  0  0  0  0  0  0
  1 16  1  0  0  0  0
  2 24  1  1  0  0  0
  2 12  1  0  0  0  0
  2 27  1  0  0  0  0
  3  4  1  0  0  0  0
  5 27  1  0  0  0  0
  5  6  1  0  0  0  0
  6 18  1  1  0  0  0
  6 28  1  0  0  0  0
  7 19  1  1  0  0  0
  7 24  1  0  0  0  0
  7 17  1  0  0  0  0
  8 12  1  0  0  0  0
  9 26  1  6  0  0  0
 11  3  2  0  0  0  0
 12 13  1  0  0  0  0
 13 22  2  0  0  0  0
 13 11  1  0  0  0  0
 14 22  1  0  0  0  0
 14 23  1  0  0  0  0
 15  9  1  0  0  0  0
 17 10  1  6  0  0  0
 17  8  1  0  0  0  0
 18 15  2  0  0  0  0
 19 16  1  0  0  0  0
 20  1  1  0  0  0  0
 20 10  2  0  0  0  0
 21  4  1  0  0  0  0
 22 21  1  0  0  0  0
 25  5  2  0  0  0  0
 27 14  2  0  0  0  0
 28  9  1  0  0  0  0
 28 23  1  1  0  0  0
 29 30  1  0  0  0  0
 29 20  1  0  0  0  0
 30 31  2  0  0  0  0
 32 30  1  0  0  0  0
M  END
>  <MODEL>
5

>  <REMARK>
 VINA RESULT:      -6.8      2.607      3.931
  Name = 
  1 active torsions:
  status: ('A' for Active; 'I' for Inactive)
    1  A    between atoms: C_20  and  N_29
                            x       y       z     vdW  Elec       q    Type
                         _______ _______ _______ _____ _____    ______ ____

>  <TORSDO>
F 1

$$$$
