=
 OpenBabel11122412073D

 34 40  0  0  1  0  0  0  0  0999 V2000
  182.7500  178.9470  143.4990 C   0  0  0  0  0  0  0  0  0  0  0  0
  184.2620  177.8280  145.1250 C   0  0  0  0  0  2  0  0  0  0  0  0
  181.7150  176.0080  138.0180 C   0  0  1  0  0  3  0  0  0  0  0  0
  181.3080  178.9210  141.4820 C   0  0  2  0  0  3  0  0  0  0  0  0
  182.4090  178.1920  139.3330 C   0  0  2  0  0  3  0  0  0  0  0  0
  181.8780  178.2610  136.8650 C   0  0  0  0  0  1  0  0  0  0  0  0
  182.6380  174.9790  138.6380 C   0  0  0  0  0  1  0  0  0  0  0  0
  179.4950  177.1780  138.5020 C   0  0  0  0  0  2  0  0  0  0  0  0
  185.3330  179.1070  143.3660 C   0  0  2  0  0  3  0  0  0  0  0  0
  188.1490  178.2550  142.6350 C   0  0  0  0  0  2  0  0  0  0  0  0
  183.6840  177.8550  140.0930 C   0  0  0  0  0  2  0  0  0  0  0  0
  179.8630  178.2540  139.5340 C   0  0  0  0  0  2  0  0  0  0  0  0
  185.1940  178.4420  141.9810 C   0  0  1  0  0  3  0  0  0  0  0  0
  185.7310  177.8600  145.4610 C   0  0  0  0  0  2  0  0  0  0  0  0
  181.1930  178.0080  140.2580 C   0  0  2  0  0  3  0  0  0  0  0  0
  180.3190  175.9010  138.6490 C   0  0  0  0  0  2  0  0  0  0  0  0
  187.3160  177.5280  143.5790 N   0  0  0  0  0  0  0  0  0  0  0  0
  182.6600  178.7930  142.1620 C   0  0  0  0  0  0  0  0  0  0  0  0
  182.3780  177.4020  138.0130 C   0  0  2  0  0  3  0  0  0  0  0  0
  183.8840  178.8030  141.2760 C   0  0  2  0  0  3  0  0  0  0  0  0
  180.3740  178.8710  143.8110 C   0  0  0  0  0  3  0  0  0  0  0  0
  187.5840  178.0930  141.2390 C   0  0  0  0  0  2  0  0  0  0  0  0
  180.2100  178.6580  142.4110 N   0  0  0  0  0  2  0  0  0  0  0  0
  186.3280  178.9290  141.0800 C   0  0  0  0  0  2  0  0  0  0  0  0
  186.4460  178.5000  144.2670 C   0  0  1  0  0  3  0  0  0  0  0  0
  181.5630  179.0230  144.3050 N   0  0  0  0  0  0  0  0  0  0  0  0
  184.0670  179.0110  144.2150 C   0  0  1  0  0  3  0  0  0  0  0  0
  188.2560  176.9440  144.5320 C   0  0  0  0  0  2  0  0  0  0  0  0
  189.6650  177.4650  144.2750 C   0  0  0  0  0  2  0  0  0  0  0  0
  190.1400  176.4150  147.3660 O   0  0  0  0  0  0  0  0  0  0  0  0
  191.5980  177.2090  145.7270 N   0  0  0  0  0  2  0  0  0  0  0  0
  190.3390  177.9020  145.5660 C   0  0  2  0  0  3  0  0  0  0  0  0
  191.4910  176.5640  147.0250 C   0  0  0  0  0  2  0  0  0  0  0  0
  189.4940  177.4830  146.7390 C   0  0  0  0  0  2  0  0  0  0  0  0
  1 27  1  0  0  0  0
  1 26  1  0  0  0  0
  2 14  1  0  0  0  0
  3  7  1  1  0  0  0
  3 16  1  0  0  0  0
  4 18  1  1  0  0  0
  4 23  1  0  0  0  0
  5 11  1  1  0  0  0
  5 15  1  0  0  0  0
  6 19  1  0  0  0  0
  8 16  1  0  0  0  0
  8 12  1  0  0  0  0
  9 27  1  0  0  0  0
  9 25  1  0  0  0  0
 10 17  1  0  0  0  0
 11 20  1  0  0  0  0
 12 15  1  0  0  0  0
 13  9  1  0  0  0  0
 15  4  1  0  0  0  0
 17 25  1  0  0  0  0
 17 28  1  0  0  0  0
 18  1  2  0  0  0  0
 19  3  1  0  0  0  0
 19  5  1  0  0  0  0
 20 13  1  0  0  0  0
 20 18  1  0  0  0  0
 21 26  2  0  0  0  0
 22 10  1  0  0  0  0
 23 21  1  0  0  0  0
 24 22  1  0  0  0  0
 24 13  1  0  0  0  0
 25 14  1  0  0  0  0
 27  2  1  0  0  0  0
 29 28  1  0  0  0  0
 29 32  1  0  0  0  0
 31 33  1  0  0  0  0
 32 31  1  0  0  0  0
 32 34  1  0  0  0  0
 33 30  1  0  0  0  0
 34 30  1  0  0  0  0
M  END
>  <MODEL>
1

>  <REMARK>
 VINA RESULT:      -8.3      0.000      0.000
  Name = 
  3 active torsions:
  status: ('A' for Active; 'I' for Inactive)
    1  A    between atoms: N_17  and  C_28
    2  A    between atoms: C_28  and  C_29
    3  A    between atoms: C_29  and  C_32
                            x       y       z     vdW  Elec       q    Type
                         _______ _______ _______ _____ _____    ______ ____

>  <TORSDO>
F 3

$$$$
=
 OpenBabel11122412073D

 34 40  0  0  1  0  0  0  0  0999 V2000
  184.3930  178.7000  143.6040 C   0  0  0  0  0  0  0  0  0  0  0  0
  186.1870  177.2560  144.5410 C   0  0  0  0  0  2  0  0  0  0  0  0
  181.3780  176.6090  138.4770 C   0  0  1  0  0  3  0  0  0  0  0  0
  182.4070  179.0590  142.1630 C   0  0  2  0  0  3  0  0  0  0  0  0
  182.6990  178.5340  139.7130 C   0  0  2  0  0  3  0  0  0  0  0  0
  181.4460  178.9740  137.5640 C   0  0  0  0  0  1  0  0  0  0  0  0
  182.3170  175.4340  138.6630 C   0  0  0  0  0  1  0  0  0  0  0  0
  179.5710  177.8810  139.7610 C   0  0  0  0  0  2  0  0  0  0  0  0
  186.8090  178.6660  142.6690 C   0  0  2  0  0  3  0  0  0  0  0  0
  189.1410  177.6910  140.9930 C   0  0  0  0  0  2  0  0  0  0  0  0
  184.0950  177.9970  139.9870 C   0  0  0  0  0  2  0  0  0  0  0  0
  180.3640  178.7770  140.7230 C   0  0  0  0  0  2  0  0  0  0  0  0
  186.1720  178.2030  141.3420 C   0  0  1  0  0  3  0  0  0  0  0  0
  187.6810  177.1240  144.3910 C   0  0  0  0  0  2  0  0  0  0  0  0
  181.8130  178.3290  140.9550 C   0  0  2  0  0  3  0  0  0  0  0  0
  180.2420  176.5320  139.5070 C   0  0  0  0  0  2  0  0  0  0  0  0
  188.5580  176.9160  142.0770 N   0  0  0  0  0  0  0  0  0  0  0  0
  183.8780  178.7330  142.3580 C   0  0  0  0  0  0  0  0  0  0  0  0
  182.1680  177.9320  138.4000 C   0  0  2  0  0  3  0  0  0  0  0  0
  184.7610  178.7610  141.1330 C   0  0  2  0  0  3  0  0  0  0  0  0
  182.2370  178.7770  144.6510 C   0  0  0  0  0  3  0  0  0  0  0  0
  188.1580  177.7620  139.8430 C   0  0  0  0  0  2  0  0  0  0  0  0
  181.6260  178.7660  143.3640 N   0  0  0  0  0  2  0  0  0  0  0  0
  187.0230  178.7120  140.1790 C   0  0  0  0  0  2  0  0  0  0  0  0
  188.0640  177.8550  143.1010 C   0  0  1  0  0  3  0  0  0  0  0  0
  183.5290  178.7650  144.7510 N   0  0  0  0  0  0  0  0  0  0  0  0
  185.8640  178.5610  143.8640 C   0  0  1  0  0  3  0  0  0  0  0  0
  189.6690  176.1360  142.6160 C   0  0  0  0  0  2  0  0  0  0  0  0
  191.0000  176.7420  142.1870 C   0  0  0  0  0  2  0  0  0  0  0  0
  190.9340  178.2830  145.1040 O   0  0  0  0  0  0  0  0  0  0  0  0
  191.5550  176.1240  144.4720 N   0  0  0  0  0  2  0  0  0  0  0  0
  191.8970  177.0140  143.3850 C   0  0  2  0  0  3  0  0  0  0  0  0
  191.2710  177.0110  145.5880 C   0  0  0  0  0  2  0  0  0  0  0  0
  191.6350  178.4030  143.9010 C   0  0  0  0  0  2  0  0  0  0  0  0
  1 27  1  0  0  0  0
  1 26  1  0  0  0  0
  3  7  1  1  0  0  0
  3 16  1  0  0  0  0
  4 18  1  1  0  0  0
  4 23  1  0  0  0  0
  5 11  1  1  0  0  0
  5 15  1  0  0  0  0
  6 19  1  0  0  0  0
  8 12  1  0  0  0  0
  9 25  1  0  0  0  0
  9 27  1  0  0  0  0
 10 17  1  0  0  0  0
 11 20  1  0  0  0  0
 12 15  1  0  0  0  0
 13  9  1  0  0  0  0
 14  2  1  0  0  0  0
 15  4  1  0  0  0  0
 16  8  1  0  0  0  0
 17 28  1  0  0  0  0
 17 25  1  0  0  0  0
 18  1  2  0  0  0  0
 19  3  1  0  0  0  0
 19  5  1  0  0  0  0
 20 13  1  0  0  0  0
 20 18  1  0  0  0  0
 21 26  2  0  0  0  0
 22 24  1  0  0  0  0
 22 10  1  0  0  0  0
 23 21  1  0  0  0  0
 24 13  1  0  0  0  0
 25 14  1  0  0  0  0
 27  2  1  0  0  0  0
 29 28  1  0  0  0  0
 29 32  1  0  0  0  0
 30 33  1  0  0  0  0
 31 33  1  0  0  0  0
 32 34  1  0  0  0  0
 32 31  1  0  0  0  0
 34 30  1  0  0  0  0
M  END
>  <MODEL>
2

>  <REMARK>
 VINA RESULT:      -8.2      1.411      1.800
  Name = 
  3 active torsions:
  status: ('A' for Active; 'I' for Inactive)
    1  A    between atoms: N_17  and  C_28
    2  A    between atoms: C_28  and  C_29
    3  A    between atoms: C_29  and  C_32
                            x       y       z     vdW  Elec       q    Type
                         _______ _______ _______ _____ _____    ______ ____

>  <TORSDO>
F 3

$$$$
=
 OpenBabel11122412073D

 34 40  0  0  1  0  0  0  0  0999 V2000
  186.7370  178.5870  141.4660 C   0  0  0  0  0  0  0  0  0  0  0  0
  188.7530  177.1380  141.5920 C   0  0  0  0  0  2  0  0  0  0  0  0
  181.8070  176.4050  138.1970 C   0  0  1  0  0  3  0  0  0  0  0  0
  184.3270  178.9410  141.0030 C   0  0  2  0  0  3  0  0  0  0  0  0
  183.5380  178.3410  138.6830 C   0  0  2  0  0  3  0  0  0  0  0  0
  181.4870  178.7410  137.2650 C   0  0  0  0  0  1  0  0  0  0  0  0
  182.7310  175.2190  138.0020 C   0  0  0  0  0  1  0  0  0  0  0  0
  180.7300  177.7450  140.0870 C   0  0  0  0  0  2  0  0  0  0  0  0
  188.5190  178.4830  139.5880 C   0  0  2  0  0  3  0  0  0  0  0  0
  189.9040  177.4190  137.1100 C   0  0  0  0  0  2  0  0  0  0  0  0
  184.9150  177.7860  138.3510 C   0  0  0  0  0  2  0  0  0  0  0  0
  181.8620  178.6540  140.5870 C   0  0  0  0  0  2  0  0  0  0  0  0
  187.3730  177.9940  138.6780 C   0  0  1  0  0  3  0  0  0  0  0  0
  190.0390  176.9750  140.8210 C   0  0  0  0  0  2  0  0  0  0  0  0
  183.2690  178.1870  140.1910 C   0  0  2  0  0  3  0  0  0  0  0  0
  181.2220  176.3780  139.6170 C   0  0  0  0  0  2  0  0  0  0  0  0
  189.8390  176.6850  138.3630 N   0  0  0  0  0  0  0  0  0  0  0  0
  185.7380  178.5930  140.5600 C   0  0  0  0  0  0  0  0  0  0  0  0
  182.4940  177.7110  137.7450 C   0  0  2  0  0  3  0  0  0  0  0  0
  186.0110  178.5710  139.0750 C   0  0  2  0  0  3  0  0  0  0  0  0
  185.2380  178.7330  143.3320 C   0  0  0  0  0  3  0  0  0  0  0  0
  188.5240  177.4750  136.4890 C   0  0  0  0  0  2  0  0  0  0  0  0
  184.1340  178.6960  142.4320 N   0  0  0  0  0  2  0  0  0  0  0  0
  187.6460  178.4540  137.2460 C   0  0  0  0  0  2  0  0  0  0  0  0
  189.8350  177.6630  139.4680 C   0  0  1  0  0  3  0  0  0  0  0  0
  186.4480  178.7000  142.8700 N   0  0  0  0  0  0  0  0  0  0  0  0
  188.1770  178.4290  141.0750 C   0  0  1  0  0  3  0  0  0  0  0  0
  191.0700  175.9020  138.4000 C   0  0  0  0  0  2  0  0  0  0  0  0
  192.0190  176.3520  137.2960 C   0  0  0  0  0  2  0  0  0  0  0  0
  194.3240  174.1270  136.5090 O   0  0  0  0  0  0  0  0  0  0  0  0
  194.3370  176.4600  136.5710 N   0  0  0  0  0  2  0  0  0  0  0  0
  193.4610  175.9970  137.6250 C   0  0  2  0  0  3  0  0  0  0  0  0
  195.0570  175.2680  136.1530 C   0  0  0  0  0  2  0  0  0  0  0  0
  193.6150  174.5010  137.6530 C   0  0  0  0  0  2  0  0  0  0  0  0
  1 26  1  0  0  0  0
  3  7  1  1  0  0  0
  3 16  1  0  0  0  0
  4 18  1  6  0  0  0
  4 23  1  0  0  0  0
  5 11  1  1  0  0  0
  5 15  1  0  0  0  0
  6 19  1  0  0  0  0
  8 12  1  0  0  0  0
  9 27  1  0  0  0  0
 10 17  1  0  0  0  0
 11 20  1  0  0  0  0
 13 20  1  0  0  0  0
 13  9  1  0  0  0  0
 14  2  1  0  0  0  0
 15 12  1  0  0  0  0
 15  4  1  0  0  0  0
 16  8  1  0  0  0  0
 17 28  1  0  0  0  0
 17 25  1  0  0  0  0
 18  1  2  0  0  0  0
 19  3  1  0  0  0  0
 19  5  1  0  0  0  0
 20 18  1  0  0  0  0
 22 10  1  0  0  0  0
 22 24  1  0  0  0  0
 23 21  1  0  0  0  0
 24 13  1  0  0  0  0
 25  9  1  0  0  0  0
 25 14  1  0  0  0  0
 26 21  2  0  0  0  0
 27  1  1  0  0  0  0
 27  2  1  0  0  0  0
 29 32  1  0  0  0  0
 29 28  1  0  0  0  0
 30 34  1  0  0  0  0
 31 32  1  0  0  0  0
 32 34  1  0  0  0  0
 33 30  1  0  0  0  0
 33 31  1  0  0  0  0
M  END
>  <MODEL>
3

>  <REMARK>
 VINA RESULT:      -7.8      4.391      5.631
  Name = 
  3 active torsions:
  status: ('A' for Active; 'I' for Inactive)
    1  A    between atoms: N_17  and  C_28
    2  A    between atoms: C_28  and  C_29
    3  A    between atoms: C_29  and  C_32
                            x       y       z     vdW  Elec       q    Type
                         _______ _______ _______ _____ _____    ______ ____

>  <TORSDO>
F 3

$$$$
=
 OpenBabel11122412073D

 34 40  0  0  1  0  0  0  0  0999 V2000
  184.0110  178.8990  141.0940 C   0  0  0  0  0  0  0  0  0  0  0  0
  184.8820  177.9050  143.2000 C   0  0  0  0  0  2  0  0  0  0  0  0
  184.3660  175.3810  135.8740 C   0  0  1  0  0  3  0  0  0  0  0  0
  183.2210  178.7060  138.7520 C   0  0  2  0  0  3  0  0  0  0  0  0
  184.8330  177.6670  137.1130 C   0  0  2  0  0  3  0  0  0  0  0  0
  185.0510  177.4670  134.6050 C   0  0  0  0  0  1  0  0  0  0  0  0
  184.9770  174.3860  136.8410 C   0  0  0  0  0  1  0  0  0  0  0  0
  182.2110  176.7160  135.5550 C   0  0  0  0  0  2  0  0  0  0  0  0
  186.5240  178.9050  141.7240 C   0  0  2  0  0  3  0  0  0  0  0  0
  189.3470  177.8240  141.9550 C   0  0  0  0  0  2  0  0  0  0  0  0
  185.7980  177.3570  138.2480 C   0  0  0  0  0  2  0  0  0  0  0  0
  182.3530  177.8870  136.5370 C   0  0  0  0  0  2  0  0  0  0  0  0
  186.7380  178.0860  140.4330 C   0  0  1  0  0  3  0  0  0  0  0  0
  186.1870  177.9000  143.9550 C   0  0  0  0  0  2  0  0  0  0  0  0
  183.3890  177.6600  137.6450 C   0  0  2  0  0  3  0  0  0  0  0  0
  182.8430  175.4230  136.0660 C   0  0  0  0  0  2  0  0  0  0  0  0
  188.2160  177.2610  142.6750 N   0  0  0  0  0  0  0  0  0  0  0  0
  184.3010  178.5900  139.8130 C   0  0  0  0  0  0  0  0  0  0  0  0
  185.1190  176.7270  135.9290 C   0  0  2  0  0  3  0  0  0  0  0  0
  185.7250  178.4290  139.3370 C   0  0  2  0  0  3  0  0  0  0  0  0
  181.6490  178.9860  140.6880 C   0  0  0  0  0  3  0  0  0  0  0  0
  189.2010  177.5250  140.4780 C   0  0  0  0  0  2  0  0  0  0  0  0
  181.8820  178.6150  139.3320 N   0  0  0  0  0  2  0  0  0  0  0  0
  188.1220  178.4010  139.8690 C   0  0  0  0  0  2  0  0  0  0  0  0
  187.2700  178.3530  142.9710 C   0  0  1  0  0  3  0  0  0  0  0  0
  182.6510  179.1330  141.4960 N   0  0  0  0  0  0  0  0  0  0  0  0
  185.0630  178.9790  142.1600 C   0  0  1  0  0  3  0  0  0  0  0  0
  188.7850  176.7470  143.9180 C   0  0  0  0  0  2  0  0  0  0  0  0
  190.2720  177.0660  143.9930 C   0  0  0  0  0  2  0  0  0  0  0  0
  189.7110  176.7070  147.2240 O   0  0  0  0  0  0  0  0  0  0  0  0
  191.6700  176.9480  145.9790 N   0  0  0  0  0  2  0  0  0  0  0  0
  190.6350  177.7140  145.3210 C   0  0  2  0  0  3  0  0  0  0  0  0
  191.1100  176.6310  147.2830 C   0  0  0  0  0  2  0  0  0  0  0  0
  189.4460  177.6650  146.2420 C   0  0  0  0  0  2  0  0  0  0  0  0
  1 26  1  0  0  0  0
  1 27  1  0  0  0  0
  2 14  1  0  0  0  0
  3 19  1  0  0  0  0
  3 16  1  0  0  0  0
  3  7  1  1  0  0  0
  4 23  1  1  0  0  0
  4 18  1  0  0  0  0
  5 15  1  0  0  0  0
  5 11  1  1  0  0  0
  6 19  1  0  0  0  0
  8 16  1  0  0  0  0
  8 12  1  0  0  0  0
  9 27  1  0  0  0  0
  9 25  1  0  0  0  0
 10 17  1  0  0  0  0
 11 20  1  0  0  0  0
 12 15  1  0  0  0  0
 13  9  1  0  0  0  0
 15  4  1  0  0  0  0
 17 25  1  0  0  0  0
 17 28  1  0  0  0  0
 18  1  2  0  0  0  0
 19  5  1  0  0  0  0
 20 18  1  0  0  0  0
 20 13  1  0  0  0  0
 21 26  2  0  0  0  0
 22 10  1  0  0  0  0
 23 21  1  0  0  0  0
 24 13  1  0  0  0  0
 24 22  1  0  0  0  0
 25 14  1  0  0  0  0
 27  2  1  0  0  0  0
 28 29  1  0  0  0  0
 29 32  1  0  0  0  0
 30 33  1  0  0  0  0
 31 33  1  0  0  0  0
 32 31  1  0  0  0  0
 32 34  1  0  0  0  0
 34 30  1  0  0  0  0
M  END
>  <MODEL>
4

>  <REMARK>
 VINA RESULT:      -7.6      1.859      2.599
  Name = 
  3 active torsions:
  status: ('A' for Active; 'I' for Inactive)
    1  A    between atoms: N_17  and  C_28
    2  A    between atoms: C_28  and  C_29
    3  A    between atoms: C_29  and  C_32
                            x       y       z     vdW  Elec       q    Type
                         _______ _______ _______ _____ _____    ______ ____

>  <TORSDO>
F 3

$$$$
=
 OpenBabel11122412073D

 34 40  0  0  1  0  0  0  0  0999 V2000
  183.9040  178.8010  141.6270 C   0  0  0  0  0  0  0  0  0  0  0  0
  185.6220  177.7950  143.1170 C   0  0  0  0  0  2  0  0  0  0  0  0
  182.0960  175.4340  136.6120 C   0  0  1  0  0  3  0  0  0  0  0  0
  182.1930  178.6320  139.8400 C   0  0  2  0  0  3  0  0  0  0  0  0
  182.9800  177.7070  137.6280 C   0  0  2  0  0  3  0  0  0  0  0  0
  182.1090  177.5800  135.2610 C   0  0  0  0  0  1  0  0  0  0  0  0
  183.0910  174.4440  137.1840 C   0  0  0  0  0  1  0  0  0  0  0  0
  179.9730  176.6790  137.2990 C   0  0  0  0  0  2  0  0  0  0  0  0
  186.4440  178.9040  141.1240 C   0  0  2  0  0  3  0  0  0  0  0  0
  189.1250  177.9450  140.0830 C   0  0  0  0  0  2  0  0  0  0  0  0
  184.3460  177.4120  138.2290 C   0  0  0  0  0  2  0  0  0  0  0  0
  180.4870  177.8310  138.1740 C   0  0  0  0  0  2  0  0  0  0  0  0
  186.1090  178.1280  139.8330 C   0  0  1  0  0  3  0  0  0  0  0  0
  187.1240  177.8290  143.2420 C   0  0  0  0  0  2  0  0  0  0  0  0
  181.9030  177.6220  138.7250 C   0  0  2  0  0  3  0  0  0  0  0  0
  180.8010  175.4040  137.4380 C   0  0  0  0  0  2  0  0  0  0  0  0
  188.4280  177.3130  141.1930 N   0  0  0  0  0  0  0  0  0  0  0  0
  183.6270  178.5370  140.3330 C   0  0  0  0  0  0  0  0  0  0  0  0
  182.7590  176.8110  136.3970 C   0  0  2  0  0  3  0  0  0  0  0  0
  184.7150  178.4520  139.2880 C   0  0  2  0  0  3  0  0  0  0  0  0
  181.5950  178.7920  142.2720 C   0  0  0  0  0  3  0  0  0  0  0  0
  188.3700  177.6770  138.7990 C   0  0  0  0  0  2  0  0  0  0  0  0
  181.2350  178.4660  140.9310 N   0  0  0  0  0  2  0  0  0  0  0  0
  187.1090  178.5190  138.7450 C   0  0  0  0  0  2  0  0  0  0  0  0
  187.6680  178.3540  141.9100 C   0  0  1  0  0  3  0  0  0  0  0  0
  182.8410  178.9640  142.5800 N   0  0  0  0  0  0  0  0  0  0  0  0
  185.3090  178.9010  142.1450 C   0  0  1  0  0  3  0  0  0  0  0  0
  189.4890  176.7950  142.0520 C   0  0  0  0  0  2  0  0  0  0  0  0
  190.7610  177.6160  141.8800 C   0  0  0  0  0  2  0  0  0  0  0  0
  191.1430  177.7480  145.1540 O   0  0  0  0  0  0  0  0  0  0  0  0
  191.4390  176.0350  143.5980 N   0  0  0  0  0  2  0  0  0  0  0  0
  191.7880  177.2800  142.9500 C   0  0  2  0  0  3  0  0  0  0  0  0
  191.3640  176.3720  145.0100 C   0  0  0  0  0  2  0  0  0  0  0  0
  191.7430  178.3260  144.0320 C   0  0  0  0  0  2  0  0  0  0  0  0
  1 27  1  0  0  0  0
  1 26  1  0  0  0  0
  2 14  1  0  0  0  0
  3  7  1  1  0  0  0
  3 16  1  0  0  0  0
  4 18  1  1  0  0  0
  4 23  1  0  0  0  0
  5 11  1  1  0  0  0
  5 15  1  0  0  0  0
  6 19  1  0  0  0  0
  8 16  1  0  0  0  0
  8 12  1  0  0  0  0
  9 25  1  0  0  0  0
  9 27  1  0  0  0  0
 10 17  1  0  0  0  0
 11 20  1  0  0  0  0
 12 15  1  0  0  0  0
 13  9  1  0  0  0  0
 15  4  1  0  0  0  0
 17 25  1  0  0  0  0
 17 28  1  0  0  0  0
 18  1  2  0  0  0  0
 19  3  1  0  0  0  0
 19  5  1  0  0  0  0
 20 13  1  0  0  0  0
 20 18  1  0  0  0  0
 21 26  2  0  0  0  0
 22 10  1  0  0  0  0
 23 21  1  0  0  0  0
 24 22  1  0  0  0  0
 24 13  1  0  0  0  0
 25 14  1  0  0  0  0
 27  2  1  0  0  0  0
 29 28  1  0  0  0  0
 29 32  1  0  0  0  0
 31 33  1  0  0  0  0
 32 31  1  0  0  0  0
 32 34  1  0  0  0  0
 33 30  1  0  0  0  0
 34 30  1  0  0  0  0
M  END
>  <MODEL>
5

>  <REMARK>
 VINA RESULT:      -7.4      1.740      2.283
  Name = 
  3 active torsions:
  status: ('A' for Active; 'I' for Inactive)
    1  A    between atoms: N_17  and  C_28
    2  A    between atoms: C_28  and  C_29
    3  A    between atoms: C_29  and  C_32
                            x       y       z     vdW  Elec       q    Type
                         _______ _______ _______ _____ _____    ______ ____

>  <TORSDO>
F 3

$$$$
=
 OpenBabel11122412073D

 34 40  0  0  1  0  0  0  0  0999 V2000
  186.6880  178.5830  141.5810 C   0  0  0  0  0  0  0  0  0  0  0  0
  188.7000  177.1300  141.7250 C   0  0  0  0  0  2  0  0  0  0  0  0
  181.8430  176.4800  138.1370 C   0  0  1  0  0  3  0  0  0  0  0  0
  184.2900  178.9480  141.0650 C   0  0  2  0  0  3  0  0  0  0  0  0
  183.5610  178.4030  138.7130 C   0  0  2  0  0  3  0  0  0  0  0  0
  181.5470  178.8380  137.2520 C   0  0  0  0  0  1  0  0  0  0  0  0
  182.7720  175.2990  137.9380 C   0  0  0  0  0  1  0  0  0  0  0  0
  180.7180  177.7770  140.0300 C   0  0  0  0  0  2  0  0  0  0  0  0
  188.5170  178.5210  139.7470 C   0  0  2  0  0  3  0  0  0  0  0  0
  189.9650  177.5150  137.2800 C   0  0  0  0  0  2  0  0  0  0  0  0
  184.9460  177.8560  138.4020 C   0  0  0  0  0  2  0  0  0  0  0  0
  181.8370  178.6730  140.5800 C   0  0  0  0  0  2  0  0  0  0  0  0
  187.3950  178.0540  138.7970 C   0  0  1  0  0  3  0  0  0  0  0  0
  190.0050  176.9840  140.9830 C   0  0  0  0  0  2  0  0  0  0  0  0
  183.2530  178.2150  140.2090 C   0  0  2  0  0  3  0  0  0  0  0  0
  181.2220  176.4210  139.5400 C   0  0  0  0  0  2  0  0  0  0  0  0
  189.8680  176.7520  138.5150 N   0  0  0  0  0  0  0  0  0  0  0  0
  185.7120  178.6110  140.6500 C   0  0  0  0  0  0  0  0  0  0  0  0
  182.5410  177.7960  137.7330 C   0  0  2  0  0  3  0  0  0  0  0  0
  186.0230  178.6220  139.1720 C   0  0  2  0  0  3  0  0  0  0  0  0
  185.1420  178.6850  143.4110 C   0  0  0  0  0  3  0  0  0  0  0  0
  188.6010  177.5860  136.6260 C   0  0  0  0  0  2  0  0  0  0  0  0
  184.0610  178.6700  142.4820 N   0  0  0  0  0  2  0  0  0  0  0  0
  187.7040  178.5470  137.3840 C   0  0  0  0  0  2  0  0  0  0  0  0
  189.8360  177.7030  139.6420 C   0  0  1  0  0  3  0  0  0  0  0  0
  186.3630  178.6630  142.9790 N   0  0  0  0  0  0  0  0  0  0  0  0
  188.1370  178.4330  141.2230 C   0  0  1  0  0  3  0  0  0  0  0  0
  191.0980  175.9670  138.5640 C   0  0  0  0  0  2  0  0  0  0  0  0
  192.0360  176.3780  137.4360 C   0  0  0  0  0  2  0  0  0  0  0  0
  191.0930  173.8760  135.5050 O   0  0  0  0  0  0  0  0  0  0  0  0
  192.8050  175.4520  135.3240 N   0  0  0  0  0  2  0  0  0  0  0  0
  192.6200  175.1650  136.7290 C   0  0  2  0  0  3  0  0  0  0  0  0
  192.0640  174.4040  134.6420 C   0  0  0  0  0  2  0  0  0  0  0  0
  191.6320  174.0300  136.7850 C   0  0  0  0  0  2  0  0  0  0  0  0
  1 26  1  0  0  0  0
  3  7  1  1  0  0  0
  3 16  1  0  0  0  0
  4 18  1  6  0  0  0
  4 23  1  0  0  0  0
  5 11  1  6  0  0  0
  5 15  1  0  0  0  0
  6 19  1  0  0  0  0
  8 12  1  0  0  0  0
  9 27  1  0  0  0  0
 10 17  1  0  0  0  0
 11 20  1  0  0  0  0
 13 20  1  0  0  0  0
 13  9  1  0  0  0  0
 14  2  1  0  0  0  0
 15 12  1  0  0  0  0
 15  4  1  0  0  0  0
 16  8  1  0  0  0  0
 17 28  1  0  0  0  0
 17 25  1  0  0  0  0
 18  1  2  0  0  0  0
 19  3  1  0  0  0  0
 19  5  1  0  0  0  0
 20 18  1  0  0  0  0
 22 10  1  0  0  0  0
 22 24  1  0  0  0  0
 23 21  1  0  0  0  0
 24 13  1  0  0  0  0
 25  9  1  0  0  0  0
 25 14  1  0  0  0  0
 26 21  2  0  0  0  0
 27  1  1  0  0  0  0
 27  2  1  0  0  0  0
 29 28  1  0  0  0  0
 30 34  1  0  0  0  0
 31 32  1  0  0  0  0
 32 34  1  0  0  0  0
 32 29  1  0  0  0  0
 33 31  1  0  0  0  0
 33 30  1  0  0  0  0
M  END
>  <MODEL>
6

>  <REMARK>
 VINA RESULT:      -7.3      4.353      5.768
  Name = 
  3 active torsions:
  status: ('A' for Active; 'I' for Inactive)
    1  A    between atoms: N_17  and  C_28
    2  A    between atoms: C_28  and  C_29
    3  A    between atoms: C_29  and  C_32
                            x       y       z     vdW  Elec       q    Type
                         _______ _______ _______ _____ _____    ______ ____

>  <TORSDO>
F 3

$$$$
=
 OpenBabel11122412073D

 34 40  0  0  1  0  0  0  0  0999 V2000
  188.8800  177.8800  140.3930 C   0  0  0  0  0  0  0  0  0  0  0  0
  190.3790  176.0990  139.5190 C   0  0  0  0  0  2  0  0  0  0  0  0
  182.7210  177.3430  139.1540 C   0  0  1  0  0  3  0  0  0  0  0  0
  186.6350  178.7480  140.9880 C   0  0  2  0  0  3  0  0  0  0  0  0
  184.9290  178.7940  139.1290 C   0  0  2  0  0  3  0  0  0  0  0  0
  182.6680  179.8410  138.7180 C   0  0  0  0  0  1  0  0  0  0  0  0
  183.1870  176.0780  138.4610 C   0  0  0  0  0  1  0  0  0  0  0  0
  182.7780  178.4330  141.4640 C   0  0  0  0  0  2  0  0  0  0  0  0
  189.7650  177.8490  137.9580 C   0  0  2  0  0  3  0  0  0  0  0  0
  189.8380  177.0930  135.0230 C   0  0  0  0  0  2  0  0  0  0  0  0
  185.9070  178.0830  138.2050 C   0  0  0  0  0  2  0  0  0  0  0  0
  184.2000  179.0010  141.5700 C   0  0  0  0  0  2  0  0  0  0  0  0
  188.2830  177.7740  137.5360 C   0  0  1  0  0  3  0  0  0  0  0  0
  191.2090  175.8710  138.2820 C   0  0  0  0  0  2  0  0  0  0  0  0
  185.2020  178.3820  140.5870 C   0  0  2  0  0  3  0  0  0  0  0  0
  182.7100  177.1280  140.6740 C   0  0  0  0  0  2  0  0  0  0  0  0
  190.0580  176.1380  136.0980 N   0  0  0  0  0  0  0  0  0  0  0  0
  187.6530  178.2530  139.9750 C   0  0  0  0  0  0  0  0  0  0  0  0
  183.4930  178.5700  138.6240 C   0  0  2  0  0  3  0  0  0  0  0  0
  187.3480  178.4900  138.5150 C   0  0  2  0  0  3  0  0  0  0  0  0
  188.2540  177.9010  142.7070 C   0  0  0  0  0  3  0  0  0  0  0  0
  188.3850  177.5220  135.0230 C   0  0  0  0  0  2  0  0  0  0  0  0
  186.9250  178.2500  142.3320 N   0  0  0  0  0  2  0  0  0  0  0  0
  188.1160  178.4640  136.1820 C   0  0  0  0  0  2  0  0  0  0  0  0
  190.7000  176.8500  137.2190 C   0  0  1  0  0  3  0  0  0  0  0  0
  189.1630  177.7490  141.7960 N   0  0  0  0  0  0  0  0  0  0  0  0
  189.9900  177.5510  139.4380 C   0  0  1  0  0  3  0  0  0  0  0  0
  190.9840  175.1560  135.5400 C   0  0  0  0  0  2  0  0  0  0  0  0
  192.0180  175.8430  134.6570 C   0  0  0  0  0  2  0  0  0  0  0  0
  194.4770  176.0760  136.8440 O   0  0  0  0  0  0  0  0  0  0  0  0
  193.3640  174.2510  135.9080 N   0  0  0  0  0  2  0  0  0  0  0  0
  193.4140  175.2940  134.9080 C   0  0  2  0  0  3  0  0  0  0  0  0
  194.2990  174.6880  136.9310 C   0  0  0  0  0  2  0  0  0  0  0  0
  194.2800  176.3770  135.4940 C   0  0  0  0  0  2  0  0  0  0  0  0
  1 26  1  0  0  0  0
  3  7  1  6  0  0  0
  3 16  1  0  0  0  0
  4 18  1  6  0  0  0
  4 23  1  0  0  0  0
  5 11  1  6  0  0  0
  5 15  1  0  0  0  0
  8 12  1  0  0  0  0
  9 27  1  0  0  0  0
 10 17  1  0  0  0  0
 11 20  1  0  0  0  0
 13  9  1  0  0  0  0
 13 20  1  0  0  0  0
 14  2  1  0  0  0  0
 15  4  1  0  0  0  0
 15 12  1  0  0  0  0
 16  8  1  0  0  0  0
 17 25  1  0  0  0  0
 18  1  2  0  0  0  0
 19  6  1  0  0  0  0
 19  5  1  0  0  0  0
 19  3  1  0  0  0  0
 20 18  1  0  0  0  0
 22 10  1  0  0  0  0
 22 24  1  0  0  0  0
 23 21  1  0  0  0  0
 24 13  1  0  0  0  0
 25  9  1  0  0  0  0
 25 14  1  0  0  0  0
 26 21  2  0  0  0  0
 27  2  1  0  0  0  0
 27  1  1  0  0  0  0
 28 17  1  0  0  0  0
 29 32  1  0  0  0  0
 29 28  1  0  0  0  0
 30 33  1  0  0  0  0
 31 33  1  0  0  0  0
 32 34  1  0  0  0  0
 32 31  1  0  0  0  0
 34 30  1  0  0  0  0
M  END
>  <MODEL>
7

>  <REMARK>
 VINA RESULT:      -7.1      5.210      7.258
  Name = 
  3 active torsions:
  status: ('A' for Active; 'I' for Inactive)
    1  A    between atoms: N_17  and  C_28
    2  A    between atoms: C_28  and  C_29
    3  A    between atoms: C_29  and  C_32
                            x       y       z     vdW  Elec       q    Type
                         _______ _______ _______ _____ _____    ______ ____

>  <TORSDO>
F 3

$$$$
=
 OpenBabel11122412073D

 34 40  0  0  1  0  0  0  0  0999 V2000
  187.3870  177.8970  137.9300 C   0  0  0  0  0  0  0  0  0  0  0  0
  185.3340  176.6490  137.2880 C   0  0  0  0  0  2  0  0  0  0  0  0
  189.9470  176.5620  143.5350 C   0  0  1  0  0  3  0  0  0  0  0  0
  189.4120  178.1980  139.3290 C   0  0  2  0  0  3  0  0  0  0  0  0
  189.0340  178.3510  141.8180 C   0  0  2  0  0  3  0  0  0  0  0  0
  190.3610  179.0430  143.8530 C   0  0  0  0  0  1  0  0  0  0  0  0
  188.7900  175.5850  143.5940 C   0  0  0  0  0  1  0  0  0  0  0  0
  191.9660  177.1040  142.0650 C   0  0  0  0  0  2  0  0  0  0  0  0
  185.0180  178.5650  138.7400 C   0  0  2  0  0  3  0  0  0  0  0  0
  182.5470  178.5030  140.4960 C   0  0  0  0  0  2  0  0  0  0  0  0
  187.5560  178.0480  141.6200 C   0  0  0  0  0  2  0  0  0  0  0  0
  191.3640  177.8780  140.8830 C   0  0  0  0  0  2  0  0  0  0  0  0
  185.5560  178.3230  140.1660 C   0  0  1  0  0  3  0  0  0  0  0  0
  183.8450  176.8540  137.4000 C   0  0  0  0  0  2  0  0  0  0  0  0
  189.8540  177.6810  140.7010 C   0  0  2  0  0  3  0  0  0  0  0  0
  191.0390  176.0160  142.6030 C   0  0  0  0  0  2  0  0  0  0  0  0
  182.9560  177.3890  139.6550 N   0  0  0  0  0  0  0  0  0  0  0  0
  187.9040  178.1290  139.1540 C   0  0  0  0  0  0  0  0  0  0  0  0
  189.4400  177.9930  143.2590 C   0  0  2  0  0  3  0  0  0  0  0  0
  187.0520  178.6260  140.2970 C   0  0  2  0  0  3  0  0  0  0  0  0
  189.5080  177.2920  136.9900 C   0  0  0  0  0  3  0  0  0  0  0  0
  183.5300  178.6570  141.6380 C   0  0  0  0  0  2  0  0  0  0  0  0
  190.1120  177.4740  138.2690 N   0  0  0  0  0  2  0  0  0  0  0  0
  184.8310  179.2550  141.1350 C   0  0  0  0  0  2  0  0  0  0  0  0
  183.6230  177.9370  138.4590 C   0  0  1  0  0  3  0  0  0  0  0  0
  188.2400  177.5100  136.8400 N   0  0  0  0  0  0  0  0  0  0  0  0
  185.9160  177.9900  137.6470 C   0  0  1  0  0  3  0  0  0  0  0  0
  181.7080  176.7360  139.2700 C   0  0  0  0  0  2  0  0  0  0  0  0
  180.6020  177.0800  140.2600 C   0  0  0  0  0  2  0  0  0  0  0  0
  179.8150  173.8810  140.0940 O   0  0  0  0  0  0  0  0  0  0  0  0
  178.9570  175.6550  141.3430 N   0  0  0  0  0  2  0  0  0  0  0  0
  179.3870  176.1850  140.0680 C   0  0  2  0  0  3  0  0  0  0  0  0
  178.9610  174.2140  141.1550 C   0  0  0  0  0  2  0  0  0  0  0  0
  179.7740  174.9880  139.2420 C   0  0  0  0  0  2  0  0  0  0  0  0
  1 18  2  0  0  0  0
  2 14  1  0  0  0  0
  2 27  1  0  0  0  0
  3  7  1  6  0  0  0
  4 23  1  6  0  0  0
  4 15  1  0  0  0  0
  5 11  1  6  0  0  0
  5 19  1  0  0  0  0
  8 16  1  0  0  0  0
  9 13  1  0  0  0  0
 10 22  1  0  0  0  0
 12  8  1  0  0  0  0
 13 20  1  0  0  0  0
 13 24  1  0  0  0  0
 14 25  1  0  0  0  0
 15 12  1  0  0  0  0
 15  5  1  0  0  0  0
 16  3  1  0  0  0  0
 17 10  1  0  0  0  0
 18  4  1  0  0  0  0
 18 20  1  0  0  0  0
 19  3  1  0  0  0  0
 19  6  1  0  0  0  0
 20 11  1  0  0  0  0
 21 23  1  0  0  0  0
 24 22  1  0  0  0  0
 25  9  1  0  0  0  0
 25 17  1  0  0  0  0
 26 21  2  0  0  0  0
 26  1  1  0  0  0  0
 27  1  1  0  0  0  0
 27  9  1  0  0  0  0
 28 17  1  0  0  0  0
 28 29  1  0  0  0  0
 30 33  1  0  0  0  0
 32 29  1  0  0  0  0
 32 31  1  0  0  0  0
 33 31  1  0  0  0  0
 34 32  1  0  0  0  0
 34 30  1  0  0  0  0
M  END
>  <MODEL>
8

>  <REMARK>
 VINA RESULT:      -7.0      3.582      9.110
  Name = 
  3 active torsions:
  status: ('A' for Active; 'I' for Inactive)
    1  A    between atoms: N_17  and  C_28
    2  A    between atoms: C_28  and  C_29
    3  A    between atoms: C_29  and  C_32
                            x       y       z     vdW  Elec       q    Type
                         _______ _______ _______ _____ _____    ______ ____

>  <TORSDO>
F 3

$$$$
=
 OpenBabel11122412073D

 34 40  0  0  1  0  0  0  0  0999 V2000
  187.2420  178.4540  139.9270 C   0  0  0  0  0  0  0  0  0  0  0  0
  189.2690  177.0950  140.4000 C   0  0  0  0  0  2  0  0  0  0  0  0
  182.3650  175.5220  137.2110 C   0  0  1  0  0  3  0  0  0  0  0  0
  184.8330  178.6650  139.3760 C   0  0  2  0  0  3  0  0  0  0  0  0
  184.0740  177.5370  137.2500 C   0  0  2  0  0  3  0  0  0  0  0  0
  182.0340  177.5770  135.7610 C   0  0  0  0  0  1  0  0  0  0  0  0
  183.3020  174.3340  137.3020 C   0  0  0  0  0  1  0  0  0  0  0  0
  181.2570  177.2510  138.7320 C   0  0  0  0  0  2  0  0  0  0  0  0
  189.0440  177.9380  138.1380 C   0  0  2  0  0  3  0  0  0  0  0  0
  190.4630  176.3470  135.9830 C   0  0  0  0  0  2  0  0  0  0  0  0
  185.4590  176.9360  137.0660 C   0  0  0  0  0  2  0  0  0  0  0  0
  182.3760  178.2630  139.0170 C   0  0  0  0  0  2  0  0  0  0  0  0
  187.9110  177.2400  137.3560 C   0  0  1  0  0  3  0  0  0  0  0  0
  190.5640  176.7730  139.6980 C   0  0  0  0  0  2  0  0  0  0  0  0
  183.7900  177.7330  138.7510 C   0  0  2  0  0  3  0  0  0  0  0  0
  181.7660  175.8170  138.5930 C   0  0  0  0  0  2  0  0  0  0  0  0
  190.3920  175.9210  137.3710 N   0  0  0  0  0  0  0  0  0  0  0  0
  186.2520  178.2400  139.0360 C   0  0  0  0  0  0  0  0  0  0  0  0
  183.0440  176.6960  136.4740 C   0  0  2  0  0  3  0  0  0  0  0  0
  186.5400  177.8780  137.5980 C   0  0  2  0  0  3  0  0  0  0  0  0
  185.7220  179.0090  141.6970 C   0  0  0  0  0  3  0  0  0  0  0  0
  189.0890  176.2430  135.3550 C   0  0  0  0  0  2  0  0  0  0  0  0
  184.6280  178.7540  140.8200 N   0  0  0  0  0  2  0  0  0  0  0  0
  188.1950  177.3600  135.8590 C   0  0  0  0  0  2  0  0  0  0  0  0
  190.3680  177.1270  138.2210 C   0  0  1  0  0  3  0  0  0  0  0  0
  186.9370  178.8850  141.2640 N   0  0  0  0  0  0  0  0  0  0  0  0
  188.6870  178.2260  139.5940 C   0  0  1  0  0  3  0  0  0  0  0  0
  191.6300  175.1810  137.5980 C   0  0  0  0  0  2  0  0  0  0  0  0
  192.7400  175.7150  136.7010 C   0  0  0  0  0  2  0  0  0  0  0  0
  195.3490  173.7070  136.9060 O   0  0  0  0  0  0  0  0  0  0  0  0
  195.1430  175.9870  136.4540 N   0  0  0  0  0  2  0  0  0  0  0  0
  194.0960  175.6290  137.3850 C   0  0  2  0  0  3  0  0  0  0  0  0
  196.0400  174.8440  136.4630 C   0  0  0  0  0  2  0  0  0  0  0  0
  194.3690  174.2000  137.7730 C   0  0  0  0  0  2  0  0  0  0  0  0
  1 26  1  0  0  0  0
  3  7  1  1  0  0  0
  3 16  1  0  0  0  0
  4 18  1  1  0  0  0
  4 23  1  0  0  0  0
  5 11  1  1  0  0  0
  5 15  1  0  0  0  0
  6 19  1  0  0  0  0
  8 12  1  0  0  0  0
  9 25  1  0  0  0  0
  9 27  1  0  0  0  0
 10 17  1  0  0  0  0
 11 20  1  0  0  0  0
 13 20  1  0  0  0  0
 13  9  1  0  0  0  0
 14  2  1  0  0  0  0
 15 12  1  0  0  0  0
 15  4  1  0  0  0  0
 16  8  1  0  0  0  0
 17 28  1  0  0  0  0
 17 25  1  0  0  0  0
 18  1  2  0  0  0  0
 19  3  1  0  0  0  0
 19  5  1  0  0  0  0
 20 18  1  0  0  0  0
 22 24  1  0  0  0  0
 22 10  1  0  0  0  0
 23 21  1  0  0  0  0
 24 13  1  0  0  0  0
 25 14  1  0  0  0  0
 26 21  2  0  0  0  0
 27  1  1  0  0  0  0
 27  2  1  0  0  0  0
 29 32  1  0  0  0  0
 29 28  1  0  0  0  0
 30 34  1  0  0  0  0
 31 33  1  0  0  0  0
 31 32  1  0  0  0  0
 32 34  1  0  0  0  0
 33 30  1  0  0  0  0
M  END
>  <MODEL>
9

>  <REMARK>
 VINA RESULT:      -6.9      5.078      6.426
  Name = 
  3 active torsions:
  status: ('A' for Active; 'I' for Inactive)
    1  A    between atoms: N_17  and  C_28
    2  A    between atoms: C_28  and  C_29
    3  A    between atoms: C_29  and  C_32
                            x       y       z     vdW  Elec       q    Type
                         _______ _______ _______ _____ _____    ______ ____

>  <TORSDO>
F 3

$$$$
