=
 OpenBabel11122412253D

 34 40  0  0  1  0  0  0  0  0999 V2000
  189.4390  177.5580  139.5550 C   0  0  1  0  0  3  0  0  0  0  0  0
  191.1120  176.5600  138.1000 C   0  0  0  0  0  2  0  0  0  0  0  0
  183.2210  178.1680  140.8510 C   0  0  0  0  0  0  0  0  0  0  0  0
  187.5900  178.4100  141.0280 C   0  0  2  0  0  3  0  0  0  0  0  0
  185.3990  179.1220  139.9360 C   0  0  2  0  0  3  0  0  0  0  0  0
  183.1520  179.6690  138.7990 C   0  0  0  0  0  1  0  0  0  0  0  0
  182.5870  177.3040  140.2650 O   0  0  0  0  0  0  0  0  0  0  0  0
  184.2330  179.2340  142.8960 C   0  0  0  0  0  2  0  0  0  0  0  0
  189.2130  177.4340  137.2230 C   0  0  2  0  0  3  0  0  0  0  0  0
  187.8100  176.2180  134.6050 C   0  0  0  0  0  2  0  0  0  0  0  0
  185.7500  178.2810  138.7030 C   0  0  0  0  0  2  0  0  0  0  0  0
  185.7220  179.2340  142.5070 C   0  0  0  0  0  2  0  0  0  0  0  0
  187.6770  177.5320  137.2250 C   0  0  1  0  0  3  0  0  0  0  0  0
  191.2060  176.2770  136.6030 C   0  0  0  0  0  2  0  0  0  0  0  0
  186.0670  178.5090  141.1960 C   0  0  2  0  0  3  0  0  0  0  0  0
  183.4270  178.0550  142.3380 C   0  0  0  0  0  2  0  0  0  0  0  0
  189.0670  175.6920  135.3220 C   0  0  1  0  0  3  0  0  0  0  0  0
  187.9190  177.6450  139.7380 C   0  0  1  0  0  3  0  0  0  0  0  0
  183.8740  179.2940  140.0870 C   0  0  1  0  0  3  0  0  0  0  0  0
  187.2610  178.2800  138.5050 C   0  0  2  0  0  3  0  0  0  0  0  0
  189.5500  177.8140  142.0190 C   0  0  0  0  0  2  0  0  0  0  0  0
  187.6520  177.7410  134.6420 C   0  0  0  0  0  2  0  0  0  0  0  0
  188.1480  177.7190  142.1250 O   0  0  0  0  0  0  0  0  0  0  0  0
  187.1300  178.2610  135.9880 C   0  0  0  0  0  2  0  0  0  0  0  0
  189.8980  176.7960  136.0230 C   0  0  1  0  0  3  0  0  0  0  0  0
  190.0500  176.9840  140.8340 C   0  0  0  0  0  2  0  0  0  0  0  0
  189.6930  176.7100  138.3910 N   0  0  2  0  0  0  0  0  0  0  0  0
  188.6580  174.5440  136.2430 C   0  0  0  0  0  2  0  0  0  0  0  0
  187.3650  174.1110  135.9410 O   0  0  0  0  0  0  0  0  0  0  0  0
  184.3740  173.8850  136.7850 O   0  0  0  0  0  0  0  0  0  0  0  0
  186.2910  172.7100  137.5160 C   0  0  0  0  0  2  0  0  0  0  0  0
  186.6960  174.1130  137.1660 C   0  0  2  0  0  3  0  0  0  0  0  0
  184.7820  172.7450  137.4930 C   0  0  0  0  0  2  0  0  0  0  0  0
  185.3770  174.8360  137.0160 C   0  0  0  0  0  2  0  0  0  0  0  0
  1 18  1  0  0  0  0
  1 26  1  1  0  0  0
  2 27  1  0  0  0  0
  3 16  1  0  0  0  0
  4 15  1  0  0  0  0
  4 23  1  1  0  0  0
  5 11  1  6  0  0  0
  5 19  1  0  0  0  0
  5 15  1  0  0  0  0
  6 19  1  0  0  0  0
  7  3  2  0  0  0  0
  9 13  1  0  0  0  0
  9 27  1  0  0  0  0
 10 22  1  0  0  0  0
 10 17  1  0  0  0  0
 12  8  1  0  0  0  0
 13 20  1  0  0  0  0
 14  2  1  0  0  0  0
 15 12  1  0  0  0  0
 16  8  1  0  0  0  0
 17 25  1  0  0  0  0
 17 28  1  0  0  0  0
 18  4  1  0  0  0  0
 19  3  1  0  0  0  0
 20 11  1  0  0  0  0
 20 18  1  0  0  0  0
 21 23  1  0  0  0  0
 22 24  1  0  0  0  0
 24 13  1  0  0  0  0
 25 14  1  0  0  0  0
 25  9  1  0  0  0  0
 26 21  1  0  0  0  0
 27  1  1  0  0  0  0
 29 28  1  0  0  0  0
 29 32  1  0  0  0  0
 30 34  1  0  0  0  0
 30 33  1  0  0  0  0
 32 31  1  0  0  0  0
 33 31  1  0  0  0  0
 34 32  1  0  0  0  0
M  END
>  <MODEL>
1

>  <REMARK>
 VINA RESULT:      -7.2      0.000      0.000
  Name = 
  3 active torsions:
  status: ('A' for Active; 'I' for Inactive)
    1  A    between atoms: C_17  and  C_28
    2  A    between atoms: C_28  and  O_29
    3  A    between atoms: O_29  and  C_32
                            x       y       z     vdW  Elec       q    Type
                         _______ _______ _______ _____ _____    ______ ____

>  <TORSDO>
F 3

$$$$
=
 OpenBabel11122412253D

 34 40  0  0  1  0  0  0  0  0999 V2000
  179.2360  178.7060  137.8810 C   0  0  1  0  0  3  0  0  0  0  0  0
  179.5230  176.7910  139.3510 C   0  0  0  0  0  2  0  0  0  0  0  0
  180.7010  184.8200  136.7890 C   0  0  0  0  0  0  0  0  0  0  0  0
  179.1440  180.7440  136.4140 C   0  0  2  0  0  3  0  0  0  0  0  0
  179.0370  183.0360  137.5250 C   0  0  2  0  0  3  0  0  0  0  0  0
  179.1000  185.3290  138.6980 C   0  0  0  0  0  1  0  0  0  0  0  0
  181.6560  185.1480  137.4750 O   0  0  0  0  0  0  0  0  0  0  0  0
  179.5820  184.2100  134.6170 C   0  0  0  0  0  2  0  0  0  0  0  0
  179.1940  178.8570  140.2220 C   0  0  2  0  0  3  0  0  0  0  0  0
  180.5190  179.7860  142.9940 C   0  0  0  0  0  2  0  0  0  0  0  0
  179.6040  182.4280  138.8130 C   0  0  0  0  0  2  0  0  0  0  0  0
  179.0850  182.7900  134.9430 C   0  0  0  0  0  2  0  0  0  0  0  0
  179.5740  180.3480  140.2730 C   0  0  1  0  0  3  0  0  0  0  0  0
  179.6140  176.5980  140.8620 C   0  0  0  0  0  2  0  0  0  0  0  0
  179.5360  182.2230  136.2990 C   0  0  2  0  0  3  0  0  0  0  0  0
  180.8910  184.6050  135.3110 C   0  0  0  0  0  2  0  0  0  0  0  0
  180.7000  178.4350  142.2760 C   0  0  1  0  0  3  0  0  0  0  0  0
  179.6390  180.1800  137.7520 C   0  0  1  0  0  3  0  0  0  0  0  0
  179.3590  184.5400  137.4210 C   0  0  1  0  0  3  0  0  0  0  0  0
  179.1210  180.9890  138.9490 C   0  0  2  0  0  3  0  0  0  0  0  0
  179.2020  178.7060  135.4010 C   0  0  0  0  0  2  0  0  0  0  0  0
  179.1300  180.4090  142.8260 C   0  0  0  0  0  2  0  0  0  0  0  0
  179.7340  180.0100  135.3610 O   0  0  0  0  0  0  0  0  0  0  0  0
  178.9310  181.0810  141.4610 C   0  0  0  0  0  2  0  0  0  0  0  0
  179.4690  177.9960  141.4450 C   0  0  1  0  0  3  0  0  0  0  0  0
  179.7170  177.9600  136.6360 C   0  0  0  0  0  2  0  0  0  0  0  0
  179.8460  178.1890  139.1050 N   0  0  2  0  0  0  0  0  0  0  0  0
  182.0030  178.4780  141.4800 C   0  0  0  0  0  2  0  0  0  0  0  0
  183.0830  178.7490  142.3230 O   0  0  0  0  0  0  0  0  0  0  0  0
  185.5890  179.4870  140.6260 O   0  0  0  0  0  0  0  0  0  0  0  0
  185.3730  178.2340  142.6190 C   0  0  0  0  0  2  0  0  0  0  0  0
  184.1440  178.0190  141.7840 C   0  0  2  0  0  3  0  0  0  0  0  0
  186.3250  178.9550  141.6950 C   0  0  0  0  0  2  0  0  0  0  0  0
  184.5210  178.6000  140.4410 C   0  0  0  0  0  2  0  0  0  0  0  0
  1 26  1  6  0  0  0
  1 27  1  0  0  0  0
  2 14  1  0  0  0  0
  3 19  1  0  0  0  0
  3  7  2  0  0  0  0
  4 23  1  6  0  0  0
  4 18  1  0  0  0  0
  5 11  1  1  0  0  0
  8 12  1  0  0  0  0
  8 16  1  0  0  0  0
  9 13  1  0  0  0  0
  9 25  1  0  0  0  0
 11 20  1  0  0  0  0
 12 15  1  0  0  0  0
 13 24  1  0  0  0  0
 14 25  1  0  0  0  0
 15  4  1  0  0  0  0
 15  5  1  0  0  0  0
 16  3  1  0  0  0  0
 17 10  1  0  0  0  0
 18  1  1  0  0  0  0
 18 20  1  0  0  0  0
 19  5  1  0  0  0  0
 19  6  1  0  0  0  0
 20 13  1  0  0  0  0
 21 26  1  0  0  0  0
 22 10  1  0  0  0  0
 23 21  1  0  0  0  0
 24 22  1  0  0  0  0
 25 17  1  0  0  0  0
 27  2  1  0  0  0  0
 27  9  1  0  0  0  0
 28 17  1  0  0  0  0
 28 29  1  0  0  0  0
 30 33  1  0  0  0  0
 32 29  1  0  0  0  0
 32 31  1  0  0  0  0
 33 31  1  0  0  0  0
 34 30  1  0  0  0  0
 34 32  1  0  0  0  0
M  END
>  <MODEL>
2

>  <REMARK>
 VINA RESULT:      -7.0      5.108      9.641
  Name = 
  3 active torsions:
  status: ('A' for Active; 'I' for Inactive)
    1  A    between atoms: C_17  and  C_28
    2  A    between atoms: C_28  and  O_29
    3  A    between atoms: O_29  and  C_32
                            x       y       z     vdW  Elec       q    Type
                         _______ _______ _______ _____ _____    ______ ____

>  <TORSDO>
F 3

$$$$
=
 OpenBabel11122412253D

 34 40  0  0  1  0  0  0  0  0999 V2000
  189.6740  177.6750  140.6270 C   0  0  1  0  0  3  0  0  0  0  0  0
  191.5990  176.7450  139.4700 C   0  0  0  0  0  2  0  0  0  0  0  0
  183.3090  178.0420  140.8870 C   0  0  0  0  0  0  0  0  0  0  0  0
  187.5780  178.4520  141.7750 C   0  0  2  0  0  3  0  0  0  0  0  0
  185.5690  179.0810  140.3360 C   0  0  2  0  0  3  0  0  0  0  0  0
  183.5190  179.5430  138.8450 C   0  0  0  0  0  1  0  0  0  0  0  0
  182.8120  177.1550  140.2100 O   0  0  0  0  0  0  0  0  0  0  0  0
  183.9320  179.1420  143.0650 C   0  0  0  0  0  2  0  0  0  0  0  0
  189.8370  177.5460  138.2900 C   0  0  2  0  0  3  0  0  0  0  0  0
  188.9280  176.2820  135.4840 C   0  0  0  0  0  2  0  0  0  0  0  0
  186.1490  178.2560  139.1810 C   0  0  0  0  0  2  0  0  0  0  0  0
  185.4630  179.2010  142.9250 C   0  0  0  0  0  2  0  0  0  0  0  0
  188.3190  177.5850  138.0410 C   0  0  1  0  0  3  0  0  0  0  0  0
  191.9470  176.4680  138.0100 C   0  0  0  0  0  2  0  0  0  0  0  0
  186.0450  178.4920  141.6910 C   0  0  2  0  0  3  0  0  0  0  0  0
  183.2730  177.9340  142.3890 C   0  0  0  0  0  2  0  0  0  0  0  0
  190.0710  175.8030  136.4000 C   0  0  1  0  0  3  0  0  0  0  0  0
  188.1420  177.7030  140.5600 C   0  0  1  0  0  3  0  0  0  0  0  0
  184.0350  179.1930  140.2350 C   0  0  1  0  0  3  0  0  0  0  0  0
  187.6700  178.3140  139.2330 C   0  0  2  0  0  3  0  0  0  0  0  0
  189.3710  177.9310  143.0760 C   0  0  0  0  0  2  0  0  0  0  0  0
  188.7080  177.7970  135.4880 C   0  0  0  0  0  2  0  0  0  0  0  0
  187.9750  177.7810  142.9510 O   0  0  0  0  0  0  0  0  0  0  0  0
  187.9540  178.2940  136.7280 C   0  0  0  0  0  2  0  0  0  0  0  0
  190.7330  176.9370  137.2220 C   0  0  1  0  0  3  0  0  0  0  0  0
  190.0900  177.1230  141.9910 C   0  0  0  0  0  2  0  0  0  0  0  0
  190.1470  176.8390  139.5250 N   0  0  2  0  0  0  0  0  0  0  0  0
  189.5610  174.6390  137.2470 C   0  0  0  0  0  2  0  0  0  0  0  0
  190.4820  173.5890  137.2400 O   0  0  0  0  0  0  0  0  0  0  0  0
  192.4480  171.7260  135.6980 O   0  0  0  0  0  0  0  0  0  0  0  0
  190.2780  172.4910  135.1540 C   0  0  0  0  0  2  0  0  0  0  0  0
  190.9790  173.5640  135.9350 C   0  0  2  0  0  3  0  0  0  0  0  0
  191.3660  171.4940  134.8360 C   0  0  0  0  0  2  0  0  0  0  0  0
  192.4190  173.1030  135.9570 C   0  0  0  0  0  2  0  0  0  0  0  0
  1 26  1  1  0  0  0
  2 27  1  0  0  0  0
  3 16  1  0  0  0  0
  4 23  1  1  0  0  0
  5 11  1  6  0  0  0
  5 15  1  0  0  0  0
  6 19  1  0  0  0  0
  7  3  2  0  0  0  0
  9 27  1  0  0  0  0
 10 22  1  0  0  0  0
 10 17  1  0  0  0  0
 11 20  1  0  0  0  0
 12  8  1  0  0  0  0
 13  9  1  0  0  0  0
 13 20  1  0  0  0  0
 14  2  1  0  0  0  0
 15  4  1  0  0  0  0
 15 12  1  0  0  0  0
 16  8  1  0  0  0  0
 17 25  1  0  0  0  0
 17 28  1  0  0  0  0
 18  1  1  0  0  0  0
 18  4  1  0  0  0  0
 19  5  1  0  0  0  0
 19  3  1  0  0  0  0
 20 18  1  0  0  0  0
 22 24  1  0  0  0  0
 23 21  1  0  0  0  0
 24 13  1  0  0  0  0
 25 14  1  0  0  0  0
 25  9  1  0  0  0  0
 26 21  1  0  0  0  0
 27  1  1  0  0  0  0
 29 28  1  0  0  0  0
 30 34  1  0  0  0  0
 31 32  1  0  0  0  0
 32 34  1  0  0  0  0
 32 29  1  0  0  0  0
 33 31  1  0  0  0  0
 33 30  1  0  0  0  0
M  END
>  <MODEL>
3

>  <REMARK>
 VINA RESULT:      -6.8      1.910      2.756
  Name = 
  3 active torsions:
  status: ('A' for Active; 'I' for Inactive)
    1  A    between atoms: C_17  and  C_28
    2  A    between atoms: C_28  and  O_29
    3  A    between atoms: O_29  and  C_32
                            x       y       z     vdW  Elec       q    Type
                         _______ _______ _______ _____ _____    ______ ____

>  <TORSDO>
F 3

$$$$
=
 OpenBabel11122412253D

 34 40  0  0  1  0  0  0  0  0999 V2000
  190.9160  177.0190  137.8780 C   0  0  1  0  0  3  0  0  0  0  0  0
  190.6390  176.3610  135.5540 C   0  0  0  0  0  2  0  0  0  0  0  0
  188.4370  176.8990  143.7570 C   0  0  0  0  0  0  0  0  0  0  0  0
  191.1010  177.5130  140.3350 C   0  0  2  0  0  3  0  0  0  0  0  0
  188.9860  178.1520  141.6070 C   0  0  2  0  0  3  0  0  0  0  0  0
  186.7930  178.6280  142.8740 C   0  0  0  0  0  1  0  0  0  0  0  0
  187.5520  176.0600  143.8190 O   0  0  0  0  0  0  0  0  0  0  0  0
  190.7420  177.7940  144.2380 C   0  0  0  0  0  2  0  0  0  0  0  0
  188.8750  177.1610  136.7320 C   0  0  2  0  0  3  0  0  0  0  0  0
  185.8700  176.1530  136.2250 C   0  0  0  0  0  2  0  0  0  0  0  0
  188.1380  177.5030  140.5060 C   0  0  0  0  0  2  0  0  0  0  0  0
  191.2780  177.9770  142.8070 C   0  0  0  0  0  2  0  0  0  0  0  0
  188.0000  177.1180  137.9980 C   0  0  1  0  0  3  0  0  0  0  0  0
  189.4550  176.2740  134.5950 C   0  0  0  0  0  2  0  0  0  0  0  0
  190.3690  177.4520  141.6830 C   0  0  2  0  0  3  0  0  0  0  0  0
  189.7660  176.6240  144.4100 C   0  0  0  0  0  2  0  0  0  0  0  0
  187.1520  175.6580  135.5300 C   0  0  1  0  0  3  0  0  0  0  0  0
  190.1980  176.9450  139.2310 C   0  0  1  0  0  3  0  0  0  0  0  0
  188.2420  178.1650  142.9570 C   0  0  1  0  0  3  0  0  0  0  0  0
  188.8430  177.6630  139.1650 C   0  0  2  0  0  3  0  0  0  0  0  0
  193.0080  176.9800  139.2120 C   0  0  0  0  0  2  0  0  0  0  0  0
  185.8840  177.6390  136.5950 C   0  0  0  0  0  2  0  0  0  0  0  0
  192.2850  176.7450  140.3990 O   0  0  0  0  0  0  0  0  0  0  0  0
  186.7100  177.9410  137.8510 C   0  0  0  0  0  2  0  0  0  0  0  0
  188.2560  176.7390  135.4070 C   0  0  1  0  0  3  0  0  0  0  0  0
  192.2850  176.3500  138.0180 C   0  0  0  0  0  2  0  0  0  0  0  0
  190.0700  176.3450  136.8940 N   0  0  2  0  0  0  0  0  0  0  0  0
  187.6140  174.3740  136.2160 C   0  0  0  0  0  2  0  0  0  0  0  0
  186.8360  174.1170  137.3470 O   0  0  0  0  0  0  0  0  0  0  0  0
  184.2550  172.6590  136.3870 O   0  0  0  0  0  0  0  0  0  0  0  0
  186.5220  172.3760  135.7760 C   0  0  0  0  0  2  0  0  0  0  0  0
  186.4640  172.7770  137.2220 C   0  0  2  0  0  3  0  0  0  0  0  0
  185.0860  172.0760  135.4190 C   0  0  0  0  0  2  0  0  0  0  0  0
  185.0010  172.6290  137.5730 C   0  0  0  0  0  2  0  0  0  0  0  0
  1 26  1  1  0  0  0
  1 18  1  0  0  0  0
  2 27  1  0  0  0  0
  3  7  2  0  0  0  0
  3 16  1  0  0  0  0
  4 23  1  1  0  0  0
  4 15  1  0  0  0  0
  5 11  1  6  0  0  0
  5 15  1  0  0  0  0
  5 19  1  0  0  0  0
  6 19  1  0  0  0  0
  8 16  1  0  0  0  0
  9 27  1  0  0  0  0
  9 13  1  0  0  0  0
 10 22  1  0  0  0  0
 12  8  1  0  0  0  0
 13 20  1  0  0  0  0
 14 25  1  0  0  0  0
 14  2  1  0  0  0  0
 15 12  1  0  0  0  0
 17 28  1  0  0  0  0
 17 10  1  0  0  0  0
 18  4  1  0  0  0  0
 19  3  1  0  0  0  0
 20 18  1  0  0  0  0
 20 11  1  0  0  0  0
 21 23  1  0  0  0  0
 22 24  1  0  0  0  0
 24 13  1  0  0  0  0
 25 17  1  0  0  0  0
 25  9  1  0  0  0  0
 26 21  1  0  0  0  0
 27  1  1  0  0  0  0
 28 29  1  0  0  0  0
 30 34  1  0  0  0  0
 31 32  1  0  0  0  0
 32 29  1  0  0  0  0
 32 34  1  0  0  0  0
 33 31  1  0  0  0  0
 33 30  1  0  0  0  0
M  END
>  <MODEL>
4

>  <REMARK>
 VINA RESULT:      -6.7      2.113      3.645
  Name = 
  3 active torsions:
  status: ('A' for Active; 'I' for Inactive)
    1  A    between atoms: C_17  and  C_28
    2  A    between atoms: C_28  and  O_29
    3  A    between atoms: O_29  and  C_32
                            x       y       z     vdW  Elec       q    Type
                         _______ _______ _______ _____ _____    ______ ____

>  <TORSDO>
F 3

$$$$
=
 OpenBabel11122412253D

 34 40  0  0  1  0  0  0  0  0999 V2000
  183.4600  178.8100  139.4790 C   0  0  1  0  0  3  0  0  0  0  0  0
  181.2770  178.6790  138.4180 C   0  0  0  0  0  2  0  0  0  0  0  0
  187.0110  177.1850  144.5260 C   0  0  0  0  0  0  0  0  0  0  0  0
  185.6790  178.7450  140.6570 C   0  0  2  0  0  3  0  0  0  0  0  0
  185.7090  178.9280  143.2000 C   0  0  2  0  0  3  0  0  0  0  0  0
  185.6690  178.9470  145.7760 C   0  0  0  0  0  1  0  0  0  0  0  0
  186.4610  176.2920  145.1520 O   0  0  0  0  0  0  0  0  0  0  0  0
  188.7780  178.1080  142.9870 C   0  0  0  0  0  2  0  0  0  0  0  0
  181.4410  179.0630  140.6460 C   0  0  2  0  0  3  0  0  0  0  0  0
  179.2620  177.9850  142.7420 C   0  0  0  0  0  2  0  0  0  0  0  0
  184.2410  178.4870  143.2400 C   0  0  0  0  0  2  0  0  0  0  0  0
  187.9020  178.6480  141.8430 C   0  0  0  0  0  2  0  0  0  0  0  0
  182.0210  178.6720  142.0170 C   0  0  1  0  0  3  0  0  0  0  0  0
  179.8350  178.7270  138.9140 C   0  0  0  0  0  2  0  0  0  0  0  0
  186.4020  178.3290  141.9460 C   0  0  2  0  0  3  0  0  0  0  0  0
  188.2200  176.8630  143.6870 C   0  0  0  0  0  2  0  0  0  0  0  0
  179.2900  177.7540  141.2190 C   0  0  1  0  0  3  0  0  0  0  0  0
  184.1920  178.3800  140.7570 C   0  0  1  0  0  3  0  0  0  0  0  0
  186.4390  178.5810  144.5130 C   0  0  1  0  0  3  0  0  0  0  0  0
  183.5260  178.9970  141.9950 C   0  0  2  0  0  3  0  0  0  0  0  0
  185.6780  178.6180  138.3840 C   0  0  0  0  0  2  0  0  0  0  0  0
  179.8070  179.3460  143.1850 C   0  0  0  0  0  2  0  0  0  0  0  0
  186.2440  178.0700  139.5530 O   0  0  0  0  0  0  0  0  0  0  0  0
  181.3400  179.4130  143.1790 C   0  0  0  0  0  2  0  0  0  0  0  0
  179.9440  178.9100  140.4210 C   0  0  1  0  0  3  0  0  0  0  0  0
  184.2020  178.2260  138.2760 C   0  0  0  0  0  2  0  0  0  0  0  0
  182.0860  178.3190  139.5740 N   0  0  2  0  0  0  0  0  0  0  0  0
  179.9080  176.3840  140.9460 C   0  0  0  0  0  2  0  0  0  0  0  0
  178.9470  175.5070  140.4370 O   0  0  0  0  0  0  0  0  0  0  0  0
  179.4200  174.6670  137.4740 O   0  0  0  0  0  0  0  0  0  0  0  0
  180.9400  175.0780  139.2380 C   0  0  0  0  0  2  0  0  0  0  0  0
  179.6840  174.4960  139.8170 C   0  0  2  0  0  3  0  0  0  0  0  0
  180.7760  174.9020  137.7470 C   0  0  0  0  0  2  0  0  0  0  0  0
  178.9310  174.0000  138.6040 C   0  0  0  0  0  2  0  0  0  0  0  0
  1 26  1  6  0  0  0
  1 27  1  0  0  0  0
  1 18  1  0  0  0  0
  2 14  1  0  0  0  0
  2 27  1  0  0  0  0
  3  7  2  0  0  0  0
  4 23  1  6  0  0  0
  4 18  1  0  0  0  0
  4 15  1  0  0  0  0
  5 11  1  1  0  0  0
  5 19  1  0  0  0  0
  8 16  1  0  0  0  0
  9 13  1  0  0  0  0
 10 22  1  0  0  0  0
 12 15  1  0  0  0  0
 12  8  1  0  0  0  0
 13 24  1  0  0  0  0
 14 25  1  0  0  0  0
 15  5  1  0  0  0  0
 16  3  1  0  0  0  0
 17 10  1  0  0  0  0
 18 20  1  0  0  0  0
 19  3  1  0  0  0  0
 19  6  1  0  0  0  0
 20 13  1  0  0  0  0
 20 11  1  0  0  0  0
 21 23  1  0  0  0  0
 24 22  1  0  0  0  0
 25  9  1  0  0  0  0
 25 17  1  0  0  0  0
 26 21  1  0  0  0  0
 27  9  1  0  0  0  0
 28 17  1  0  0  0  0
 29 28  1  0  0  0  0
 30 33  1  0  0  0  0
 30 34  1  0  0  0  0
 31 32  1  0  0  0  0
 32 29  1  0  0  0  0
 33 31  1  0  0  0  0
 34 32  1  0  0  0  0
M  END
>  <MODEL>
5

>  <REMARK>
 VINA RESULT:      -6.6      3.821      7.361
  Name = 
  3 active torsions:
  status: ('A' for Active; 'I' for Inactive)
    1  A    between atoms: C_17  and  C_28
    2  A    between atoms: C_28  and  O_29
    3  A    between atoms: O_29  and  C_32
                            x       y       z     vdW  Elec       q    Type
                         _______ _______ _______ _____ _____    ______ ____

>  <TORSDO>
F 3

$$$$
=
 OpenBabel11122412253D

 34 40  0  0  1  0  0  0  0  0999 V2000
  190.8580  177.1900  138.2350 C   0  0  1  0  0  3  0  0  0  0  0  0
  190.7410  176.5240  135.9000 C   0  0  0  0  0  2  0  0  0  0  0  0
  188.0410  176.9810  143.9570 C   0  0  0  0  0  0  0  0  0  0  0  0
  190.8800  177.6890  140.6980 C   0  0  2  0  0  3  0  0  0  0  0  0
  188.6720  178.2530  141.8410 C   0  0  2  0  0  3  0  0  0  0  0  0
  186.3930  178.6510  142.9760 C   0  0  0  0  0  1  0  0  0  0  0  0
  187.1850  176.1110  143.9680 O   0  0  0  0  0  0  0  0  0  0  0  0
  190.2810  177.9560  144.5710 C   0  0  0  0  0  2  0  0  0  0  0  0
  188.8840  177.2600  136.9690 C   0  0  2  0  0  3  0  0  0  0  0  0
  185.9510  176.1470  136.2890 C   0  0  0  0  0  2  0  0  0  0  0  0
  187.9140  177.5750  140.6930 C   0  0  0  0  0  2  0  0  0  0  0  0
  190.8940  178.1580  143.1740 C   0  0  0  0  0  2  0  0  0  0  0  0
  187.9370  177.1860  138.1820 C   0  0  1  0  0  3  0  0  0  0  0  0
  189.6200  176.3950  134.8720 C   0  0  0  0  0  2  0  0  0  0  0  0
  190.0720  177.6020  142.0000 C   0  0  2  0  0  3  0  0  0  0  0  0
  189.3380  176.7530  144.6880 C   0  0  0  0  0  2  0  0  0  0  0  0
  187.2890  175.6990  135.6710 C   0  0  1  0  0  3  0  0  0  0  0  0
  190.0640  177.0900  139.5430 C   0  0  1  0  0  3  0  0  0  0  0  0
  187.8500  178.2390  143.1450 C   0  0  1  0  0  3  0  0  0  0  0  0
  188.6910  177.7600  139.3960 C   0  0  2  0  0  3  0  0  0  0  0  0
  192.8670  177.2240  139.6890 C   0  0  0  0  0  2  0  0  0  0  0  0
  185.8910  177.6330  136.6550 C   0  0  0  0  0  2  0  0  0  0  0  0
  192.0840  176.9640  140.8320 O   0  0  0  0  0  0  0  0  0  0  0  0
  186.6300  177.9630  137.9580 C   0  0  0  0  0  2  0  0  0  0  0  0
  188.3590  176.8180  135.6120 C   0  0  1  0  0  3  0  0  0  0  0  0
  192.2380  176.5700  138.4560 C   0  0  0  0  0  2  0  0  0  0  0  0
  190.0950  176.4880  137.2040 N   0  0  2  0  0  0  0  0  0  0  0  0
  187.7550  174.4310  136.3850 C   0  0  0  0  0  2  0  0  0  0  0  0
  187.5960  173.3170  135.5580 O   0  0  0  0  0  0  0  0  0  0  0  0
  190.5210  172.6560  134.7100 O   0  0  0  0  0  0  0  0  0  0  0  0
  189.5830  173.1280  136.8280 C   0  0  0  0  0  2  0  0  0  0  0  0
  188.5570  172.4070  136.0020 C   0  0  2  0  0  3  0  0  0  0  0  0
  190.8560  173.0030  136.0270 C   0  0  0  0  0  2  0  0  0  0  0  0
  189.3480  171.8970  134.8200 C   0  0  0  0  0  2  0  0  0  0  0  0
  1 26  1  1  0  0  0
  1 18  1  0  0  0  0
  2 27  1  0  0  0  0
  3  7  2  0  0  0  0
  3 16  1  0  0  0  0
  4 23  1  1  0  0  0
  4 15  1  0  0  0  0
  5 11  1  6  0  0  0
  5 15  1  0  0  0  0
  5 19  1  0  0  0  0
  6 19  1  0  0  0  0
  8 16  1  0  0  0  0
  9 27  1  0  0  0  0
  9 13  1  0  0  0  0
 10 22  1  0  0  0  0
 12  8  1  0  0  0  0
 13 20  1  0  0  0  0
 14 25  1  0  0  0  0
 14  2  1  0  0  0  0
 15 12  1  0  0  0  0
 17 10  1  0  0  0  0
 17 28  1  0  0  0  0
 18  4  1  0  0  0  0
 19  3  1  0  0  0  0
 20 18  1  0  0  0  0
 20 11  1  0  0  0  0
 21 23  1  0  0  0  0
 22 24  1  0  0  0  0
 24 13  1  0  0  0  0
 25 17  1  0  0  0  0
 25  9  1  0  0  0  0
 26 21  1  0  0  0  0
 27  1  1  0  0  0  0
 29 32  1  0  0  0  0
 29 28  1  0  0  0  0
 30 34  1  0  0  0  0
 30 33  1  0  0  0  0
 32 31  1  0  0  0  0
 33 31  1  0  0  0  0
 34 32  1  0  0  0  0
M  END
>  <MODEL>
6

>  <REMARK>
 VINA RESULT:      -6.4      2.231      3.901
  Name = 
  3 active torsions:
  status: ('A' for Active; 'I' for Inactive)
    1  A    between atoms: C_17  and  C_28
    2  A    between atoms: C_28  and  O_29
    3  A    between atoms: O_29  and  C_32
                            x       y       z     vdW  Elec       q    Type
                         _______ _______ _______ _____ _____    ______ ____

>  <TORSDO>
F 3

$$$$
=
 OpenBabel11122412253D

 34 40  0  0  1  0  0  0  0  0999 V2000
  190.0070  177.6040  139.1290 C   0  0  1  0  0  3  0  0  0  0  0  0
  189.7840  177.0680  136.7680 C   0  0  0  0  0  2  0  0  0  0  0  0
  187.3760  177.2100  144.9290 C   0  0  0  0  0  0  0  0  0  0  0  0
  190.1320  177.9710  141.6120 C   0  0  2  0  0  3  0  0  0  0  0  0
  187.9900  178.5650  142.8600 C   0  0  2  0  0  3  0  0  0  0  0  0
  185.7690  178.9960  144.0940 C   0  0  0  0  0  1  0  0  0  0  0  0
  186.4840  176.3770  144.9260 O   0  0  0  0  0  0  0  0  0  0  0  0
  189.6750  178.0580  145.5130 C   0  0  0  0  0  2  0  0  0  0  0  0
  187.9970  177.8230  137.9400 C   0  0  2  0  0  3  0  0  0  0  0  0
  184.9980  176.8700  137.3070 C   0  0  0  0  0  2  0  0  0  0  0  0
  187.1660  177.9800  141.7070 C   0  0  0  0  0  2  0  0  0  0  0  0
  190.2490  178.3080  144.1070 C   0  0  0  0  0  2  0  0  0  0  0  0
  187.0890  177.7240  139.1800 C   0  0  1  0  0  3  0  0  0  0  0  0
  188.6250  177.0400  135.7760 C   0  0  0  0  0  2  0  0  0  0  0  0
  189.3650  177.8490  142.9360 C   0  0  2  0  0  3  0  0  0  0  0  0
  188.6850  176.8900  145.6010 C   0  0  0  0  0  2  0  0  0  0  0  0
  186.2940  176.3990  136.6200 C   0  0  1  0  0  3  0  0  0  0  0  0
  189.2540  177.4680  140.4580 C   0  0  1  0  0  3  0  0  0  0  0  0
  187.2120  178.5160  144.1910 C   0  0  1  0  0  3  0  0  0  0  0  0
  187.9070  178.2020  140.3940 C   0  0  2  0  0  3  0  0  0  0  0  0
  192.0630  177.4790  140.5110 C   0  0  0  0  0  2  0  0  0  0  0  0
  185.0140  178.3350  137.7520 C   0  0  0  0  0  2  0  0  0  0  0  0
  191.3080  177.1910  141.6660 O   0  0  0  0  0  0  0  0  0  0  0  0
  185.8100  178.5650  139.0420 C   0  0  0  0  0  2  0  0  0  0  0  0
  187.4090  177.4750  136.5810 C   0  0  1  0  0  3  0  0  0  0  0  0
  191.3660  176.9170  139.2690 C   0  0  0  0  0  2  0  0  0  0  0  0
  189.1810  176.9900  138.0910 N   0  0  2  0  0  0  0  0  0  0  0  0
  186.7280  175.0780  137.2510 C   0  0  0  0  0  2  0  0  0  0  0  0
  186.7200  174.0560  136.2990 O   0  0  0  0  0  0  0  0  0  0  0  0
  183.9810  172.7540  137.0140 O   0  0  0  0  0  0  0  0  0  0  0  0
  185.9330  171.8390  136.0440 C   0  0  0  0  0  2  0  0  0  0  0  0
  186.3390  172.9150  137.0090 C   0  0  2  0  0  3  0  0  0  0  0  0
  184.4610  171.6380  136.3130 C   0  0  0  0  0  2  0  0  0  0  0  0
  185.0680  173.2030  137.7750 C   0  0  0  0  0  2  0  0  0  0  0  0
  1 26  1  1  0  0  0
  1 18  1  0  0  0  0
  2 27  1  0  0  0  0
  3 16  1  0  0  0  0
  4 23  1  1  0  0  0
  4 15  1  0  0  0  0
  5 11  1  6  0  0  0
  5 15  1  0  0  0  0
  5 19  1  0  0  0  0
  6 19  1  0  0  0  0
  7  3  2  0  0  0  0
  8 16  1  0  0  0  0
  9 27  1  0  0  0  0
  9 13  1  0  0  0  0
 10 22  1  0  0  0  0
 12  8  1  0  0  0  0
 13 20  1  0  0  0  0
 14 25  1  0  0  0  0
 14  2  1  0  0  0  0
 15 12  1  0  0  0  0
 17 28  1  0  0  0  0
 17 10  1  0  0  0  0
 18  4  1  0  0  0  0
 19  3  1  0  0  0  0
 20 18  1  0  0  0  0
 20 11  1  0  0  0  0
 21 23  1  0  0  0  0
 22 24  1  0  0  0  0
 24 13  1  0  0  0  0
 25 17  1  0  0  0  0
 25  9  1  0  0  0  0
 26 21  1  0  0  0  0
 27  1  1  0  0  0  0
 29 32  1  0  0  0  0
 29 28  1  0  0  0  0
 30 34  1  0  0  0  0
 31 33  1  0  0  0  0
 31 32  1  0  0  0  0
 32 34  1  0  0  0  0
 33 30  1  0  0  0  0
M  END
>  <MODEL>
7

>  <REMARK>
 VINA RESULT:      -6.3      1.835      3.485
  Name = 
  3 active torsions:
  status: ('A' for Active; 'I' for Inactive)
    1  A    between atoms: C_17  and  C_28
    2  A    between atoms: C_28  and  O_29
    3  A    between atoms: O_29  and  C_32
                            x       y       z     vdW  Elec       q    Type
                         _______ _______ _______ _____ _____    ______ ____

>  <TORSDO>
F 3

$$$$
=
 OpenBabel11122412253D

 34 40  0  0  1  0  0  0  0  0999 V2000
  180.3840  176.1230  139.7160 C   0  0  1  0  0  3  0  0  0  0  0  0
  180.2130  177.9320  141.3320 C   0  0  0  0  0  2  0  0  0  0  0  0
  184.2920  172.2470  136.4880 C   0  0  0  0  0  0  0  0  0  0  0  0
  180.7370  174.1850  138.1560 C   0  0  2  0  0  3  0  0  0  0  0  0
  182.7250  174.2550  136.5630 C   0  0  2  0  0  3  0  0  0  0  0  0
  184.8430  174.3020  135.0950 C   0  0  0  0  0  1  0  0  0  0  0  0
  185.4050  172.2650  136.9900 O   0  0  0  0  0  0  0  0  0  0  0  0
  182.0610  171.1990  135.9730 C   0  0  0  0  0  2  0  0  0  0  0  0
  181.8050  177.9900  139.7200 C   0  0  2  0  0  3  0  0  0  0  0  0
  184.6890  179.3150  140.1970 C   0  0  0  0  0  2  0  0  0  0  0  0
  183.4020  175.2920  137.4670 C   0  0  0  0  0  2  0  0  0  0  0  0
  181.1110  172.2260  136.6140 C   0  0  0  0  0  2  0  0  0  0  0  0
  182.9540  177.2930  138.9680 C   0  0  1  0  0  3  0  0  0  0  0  0
  181.0160  179.1970  141.6200 C   0  0  0  0  0  2  0  0  0  0  0  0
  181.7890  173.3520  137.4110 C   0  0  2  0  0  3  0  0  0  0  0  0
  183.4090  171.0430  136.6860 C   0  0  0  0  0  2  0  0  0  0  0  0
  183.5450  179.1700  141.2190 C   0  0  1  0  0  3  0  0  0  0  0  0
  181.4310  175.2760  138.9820 C   0  0  1  0  0  3  0  0  0  0  0  0
  183.7610  173.4520  135.7510 C   0  0  1  0  0  3  0  0  0  0  0  0
  182.3380  176.1650  138.1200 C   0  0  2  0  0  3  0  0  0  0  0  0
  178.9340  174.1180  139.5450 C   0  0  0  0  0  2  0  0  0  0  0  0
  184.2250  179.5420  138.7560 C   0  0  0  0  0  2  0  0  0  0  0  0
  179.9980  173.3530  139.0260 O   0  0  0  0  0  0  0  0  0  0  0  0
  183.7420  178.2590  138.0690 C   0  0  0  0  0  2  0  0  0  0  0  0
  182.1310  179.1980  140.5850 C   0  0  1  0  0  3  0  0  0  0  0  0
  179.4670  175.1860  140.5040 C   0  0  0  0  0  2  0  0  0  0  0  0
  181.1030  177.0540  140.5850 N   0  0  2  0  0  0  0  0  0  0  0  0
  183.8140  177.9390  142.0810 C   0  0  0  0  0  2  0  0  0  0  0  0
  183.7000  178.2580  143.4370 O   0  0  0  0  0  0  0  0  0  0  0  0
  185.6750  177.9370  145.8260 O   0  0  0  0  0  0  0  0  0  0  0  0
  186.0300  177.8520  143.4900 C   0  0  0  0  0  2  0  0  0  0  0  0
  184.9290  178.8320  143.7690 C   0  0  2  0  0  3  0  0  0  0  0  0
  186.6050  177.5440  144.8520 C   0  0  0  0  0  2  0  0  0  0  0  0
  185.0000  179.0300  145.2660 C   0  0  0  0  0  2  0  0  0  0  0  0
  1 26  1  1  0  0  0
  1 27  1  0  0  0  0
  2 14  1  0  0  0  0
  3 16  1  0  0  0  0
  3  7  2  0  0  0  0
  4 18  1  0  0  0  0
  4 23  1  1  0  0  0
  5 15  1  0  0  0  0
  5 11  1  1  0  0  0
  6 19  1  0  0  0  0
  8 12  1  0  0  0  0
  8 16  1  0  0  0  0
  9 27  1  0  0  0  0
  9 25  1  0  0  0  0
 10 17  1  0  0  0  0
 11 20  1  0  0  0  0
 12 15  1  0  0  0  0
 13  9  1  0  0  0  0
 15  4  1  0  0  0  0
 17 28  1  0  0  0  0
 18  1  1  0  0  0  0
 19  3  1  0  0  0  0
 19  5  1  0  0  0  0
 20 13  1  0  0  0  0
 20 18  1  0  0  0  0
 21 26  1  0  0  0  0
 22 10  1  0  0  0  0
 23 21  1  0  0  0  0
 24 22  1  0  0  0  0
 24 13  1  0  0  0  0
 25 17  1  0  0  0  0
 25 14  1  0  0  0  0
 27  2  1  0  0  0  0
 28 29  1  0  0  0  0
 29 32  1  0  0  0  0
 31 32  1  0  0  0  0
 31 33  1  0  0  0  0
 32 34  1  0  0  0  0
 33 30  1  0  0  0  0
 34 30  1  0  0  0  0
M  END
>  <MODEL>
8

>  <REMARK>
 VINA RESULT:      -6.0      3.907      8.481
  Name = 
  3 active torsions:
  status: ('A' for Active; 'I' for Inactive)
    1  A    between atoms: C_17  and  C_28
    2  A    between atoms: C_28  and  O_29
    3  A    between atoms: O_29  and  C_32
                            x       y       z     vdW  Elec       q    Type
                         _______ _______ _______ _____ _____    ______ ____

>  <TORSDO>
F 3

$$$$
=
 OpenBabel11122412253D

 34 40  0  0  1  0  0  0  0  0999 V2000
  185.2000  178.2490  138.5100 C   0  0  1  0  0  3  0  0  0  0  0  0
  183.4650  177.8590  136.8530 C   0  0  0  0  0  2  0  0  0  0  0  0
  187.1040  177.2820  144.5240 C   0  0  0  0  0  0  0  0  0  0  0  0
  186.9450  178.4550  140.3070 C   0  0  2  0  0  3  0  0  0  0  0  0
  186.1750  178.8130  142.7110 C   0  0  2  0  0  3  0  0  0  0  0  0
  185.3380  179.0060  145.1400 C   0  0  0  0  0  1  0  0  0  0  0  0
  186.4420  176.3910  145.0320 O   0  0  0  0  0  0  0  0  0  0  0  0
  189.2020  178.2460  143.5160 C   0  0  0  0  0  2  0  0  0  0  0  0
  182.9070  178.4080  138.9800 C   0  0  2  0  0  3  0  0  0  0  0  0
  180.2560  177.2950  140.4050 C   0  0  0  0  0  2  0  0  0  0  0  0
  184.7960  178.2530  142.3430 C   0  0  0  0  0  2  0  0  0  0  0  0
  188.6920  178.6290  142.1150 C   0  0  0  0  0  2  0  0  0  0  0  0
  183.0570  178.1630  140.4930 C   0  0  1  0  0  3  0  0  0  0  0  0
  181.9400  177.8190  136.8800 C   0  0  0  0  0  2  0  0  0  0  0  0
  187.2560  178.1900  141.7870 C   0  0  2  0  0  3  0  0  0  0  0  0
  188.5300  177.0090  144.1240 C   0  0  0  0  0  2  0  0  0  0  0  0
  180.7670  176.9630  138.9900 C   0  0  1  0  0  3  0  0  0  0  0  0
  185.5250  177.9720  139.9830 C   0  0  1  0  0  3  0  0  0  0  0  0
  186.4810  178.6210  144.2090 C   0  0  1  0  0  3  0  0  0  0  0  0
  184.4730  178.6130  140.8990 C   0  0  2  0  0  3  0  0  0  0  0  0
  187.6550  178.1720  138.1630 C   0  0  0  0  0  2  0  0  0  0  0  0
  180.5540  178.7250  140.8660 C   0  0  0  0  0  2  0  0  0  0  0  0
  187.8630  177.7560  139.4930 O   0  0  0  0  0  0  0  0  0  0  0  0
  182.0060  178.9210  141.3190 C   0  0  0  0  0  2  0  0  0  0  0  0
  181.5660  178.1130  138.3260 C   0  0  1  0  0  3  0  0  0  0  0  0
  186.3120  177.6490  137.6470 C   0  0  0  0  0  2  0  0  0  0  0  0
  183.8970  177.6500  138.2270 N   0  0  2  0  0  0  0  0  0  0  0  0
  181.5200  175.6350  139.0440 C   0  0  0  0  0  2  0  0  0  0  0  0
  180.6240  174.5690  139.1580 O   0  0  0  0  0  0  0  0  0  0  0  0
  182.0990  172.6270  137.2190 O   0  0  0  0  0  0  0  0  0  0  0  0
  179.8250  172.7660  137.8530 C   0  0  0  0  0  2  0  0  0  0  0  0
  180.4040  174.1510  137.8450 C   0  0  2  0  0  3  0  0  0  0  0  0
  180.8890  171.9180  137.1970 C   0  0  0  0  0  2  0  0  0  0  0  0
  181.7320  173.9770  137.1450 C   0  0  0  0  0  2  0  0  0  0  0  0
  1 26  1  6  0  0  0
  1 18  1  0  0  0  0
  2 14  1  0  0  0  0
  2 27  1  0  0  0  0
  3  7  2  0  0  0  0
  4 23  1  6  0  0  0
  4 15  1  0  0  0  0
  5 11  1  6  0  0  0
  5 19  1  0  0  0  0
  8 16  1  0  0  0  0
  9 13  1  0  0  0  0
 10 22  1  0  0  0  0
 12  8  1  0  0  0  0
 13 20  1  0  0  0  0
 13 24  1  0  0  0  0
 14 25  1  0  0  0  0
 15 12  1  0  0  0  0
 15  5  1  0  0  0  0
 16  3  1  0  0  0  0
 17 28  1  0  0  0  0
 17 10  1  0  0  0  0
 18  4  1  0  0  0  0
 18 20  1  0  0  0  0
 19  3  1  0  0  0  0
 19  6  1  0  0  0  0
 20 11  1  0  0  0  0
 21 23  1  0  0  0  0
 22 24  1  0  0  0  0
 25  9  1  0  0  0  0
 25 17  1  0  0  0  0
 26 21  1  0  0  0  0
 27  1  1  0  0  0  0
 27  9  1  0  0  0  0
 28 29  1  0  0  0  0
 32 31  1  0  0  0  0
 32 29  1  0  0  0  0
 33 30  1  0  0  0  0
 33 31  1  0  0  0  0
 34 30  1  0  0  0  0
 34 32  1  0  0  0  0
M  END
>  <MODEL>
9

>  <REMARK>
 VINA RESULT:      -5.9      2.873      5.968
  Name = 
  3 active torsions:
  status: ('A' for Active; 'I' for Inactive)
    1  A    between atoms: C_17  and  C_28
    2  A    between atoms: C_28  and  O_29
    3  A    between atoms: O_29  and  C_32
                            x       y       z     vdW  Elec       q    Type
                         _______ _______ _______ _____ _____    ______ ____

>  <TORSDO>
F 3

$$$$
