=
 OpenBabel11122411213D

 37 43  0  0  1  0  0  0  0  0999 V2000
  186.2290  178.0410  140.0010 O   0  0  0  0  0  0  0  0  0  0  0  0
  189.6340  176.1360  136.7780 C   0  0  0  0  0  0  0  0  0  0  0  0
  190.7010  177.1010  140.6780 C   0  0  0  0  0  0  0  0  0  0  0  0
  185.1790  178.9480  140.1710 C   0  0  0  0  0  0  0  0  0  0  0  0
  188.0670  176.4790  143.3360 N   0  0  0  0  0  2  0  0  0  0  0  0
  191.4740  176.8020  138.4260 C   0  0  0  0  0  0  0  0  0  0  0  0
  189.4720  177.1420  141.3850 N   0  0  0  0  0  0  0  0  0  0  0  0
  185.6170  179.2710  142.5480 C   0  0  0  0  0  0  0  0  0  0  0  0
  190.4740  176.8780  139.3720 C   0  0  0  0  0  0  0  0  0  0  0  0
  189.3930  176.8920  142.8320 C   0  0  1  0  0  3  0  0  0  0  0  0
  192.8000  176.9690  138.8700 C   0  0  0  0  0  3  0  0  0  0  0  0
  184.9010  179.4810  141.3250 N   0  0  0  0  0  0  0  0  0  0  0  0
  189.1030  176.7860  139.1020 N   0  0  0  0  0  0  0  0  0  0  0  0
  189.6310  174.6300  136.9780 C   0  0  0  0  0  1  0  0  0  0  0  0
  192.1980  177.8010  142.4930 N   0  0  0  0  0  2  0  0  0  0  0  0
  193.0570  177.2290  140.2430 C   0  0  0  0  0  3  0  0  0  0  0  0
  188.5980  176.7810  137.7330 C   0  0  0  0  0  2  0  0  0  0  0  0
  186.9670  178.6330  142.5830 C   0  0  1  0  0  3  0  0  0  0  0  0
  186.8780  177.1050  142.7380 C   0  0  0  0  0  2  0  0  0  0  0  0
  191.9880  177.3230  141.1620 C   0  0  0  0  0  0  0  0  0  0  0  0
  188.4000  177.0200  140.3720 C   0  0  2  0  0  3  0  0  0  0  0  0
  191.0780  176.6770  136.9780 C   0  0  0  0  0  2  0  0  0  0  0  0
  190.0020  178.0130  143.6920 C   0  0  2  0  0  3  0  0  0  0  0  0
  189.2120  176.4220  135.3520 C   0  0  0  0  0  1  0  0  0  0  0  0
  187.7540  179.1000  141.4990 O   0  0  0  0  0  0  0  0  0  0  0  0
  185.1050  179.6600  143.6300 O   0  0  0  0  0  0  0  0  0  0  0  0
  187.5910  178.3250  140.3180 C   0  0  2  0  0  3  0  0  0  0  0  0
  191.2400  178.7150  143.1140 C   0  0  0  0  0  2  0  0  0  0  0  0
  191.3870  176.7780  145.4080 C   0  0  0  0  0  3  0  0  0  0  0  0
  190.2570  177.5490  145.0930 C   0  0  0  0  0  0  0  0  0  0  0  0
  189.3500  177.8910  146.1010 C   0  0  0  0  0  3  0  0  0  0  0  0
  188.6410  177.8160  148.4370 N   0  0  0  0  0  1  0  0  0  0  0  0
  190.6930  176.6980  147.7250 C   0  0  0  0  0  3  0  0  0  0  0  0
  189.5660  177.4660  147.4160 C   0  0  0  0  0  0  0  0  0  0  0  0
  191.6040  176.3550  146.7210 C   0  0  0  0  0  3  0  0  0  0  0  0
  184.1150  180.6240  138.9020 O   0  0  0  0  0  1  0  0  0  0  0  0
  184.2960  179.2450  139.0120 C   0  0  0  0  0  2  0  0  0  0  0  0
  1  4  1  0  0  0  0
  2 22  1  0  0  0  0
  2 14  1  0  0  0  0
  2 17  1  0  0  0  0
  3 20  1  0  0  0  0
  3  7  1  0  0  0  0
  4 12  2  0  0  0  0
  6 11  2  0  0  0  0
  6  9  1  0  0  0  0
  7 10  1  0  0  0  0
  8 18  1  0  0  0  0
  8 26  2  0  0  0  0
  9  3  2  0  0  0  0
 10  5  1  1  0  0  0
 10 23  1  0  0  0  0
 11 16  1  0  0  0  0
 12  8  1  0  0  0  0
 13  9  1  0  0  0  0
 15 28  1  0  0  0  0
 16 20  2  0  0  0  0
 17 13  1  0  0  0  0
 18 19  1  6  0  0  0
 19  5  1  0  0  0  0
 20 15  1  0  0  0  0
 21 13  1  6  0  0  0
 21  7  1  0  0  0  0
 22  6  1  0  0  0  0
 23 30  1  1  0  0  0
 24  2  1  0  0  0  0
 25 18  1  0  0  0  0
 27  1  1  1  0  0  0
 27 21  1  0  0  0  0
 27 25  1  0  0  0  0
 28 23  1  0  0  0  0
 29 35  1  0  0  0  0
 30 29  2  0  0  0  0
 30 31  1  0  0  0  0
 31 34  2  0  0  0  0
 34 33  1  0  0  0  0
 34 32  1  0  0  0  0
 35 33  2  0  0  0  0
 36 37  1  0  0  0  0
 37  4  1  0  0  0  0
M  END
>  <MODEL>
1

>  <REMARK>
 VINA RESULT:      -9.9      0.000      0.000
  Name = 
  2 active torsions:
  status: ('A' for Active; 'I' for Inactive)
    1  A    between atoms: C_4  and  C_37
    2  A    between atoms: C_23  and  C_30
                            x       y       z     vdW  Elec       q    Type
                         _______ _______ _______ _____ _____    ______ ____

>  <TORSDO>
F 2

$$$$
=
 OpenBabel11122411213D

 37 43  0  0  1  0  0  0  0  0999 V2000
  191.1800  177.4520  140.4490 O   0  0  0  0  0  0  0  0  0  0  0  0
  194.2640  174.9000  137.3520 C   0  0  0  0  0  0  0  0  0  0  0  0
  190.1510  174.8850  136.7480 C   0  0  0  0  0  0  0  0  0  0  0  0
  190.8820  177.7730  141.7760 C   0  0  0  0  0  0  0  0  0  0  0  0
  188.3290  178.1130  137.5550 N   0  0  0  0  0  2  0  0  0  0  0  0
  192.2130  173.7110  136.3910 C   0  0  0  0  0  0  0  0  0  0  0  0
  189.6810  176.0190  137.4590 N   0  0  0  0  0  0  0  0  0  0  0  0
  188.5000  178.0740  141.3480 C   0  0  0  0  0  0  0  0  0  0  0  0
  191.4730  174.7350  136.9410 C   0  0  0  0  0  0  0  0  0  0  0  0
  188.4400  176.7150  137.0880 C   0  0  1  0  0  3  0  0  0  0  0  0
  191.5300  172.7770  135.5870 C   0  0  0  0  0  3  0  0  0  0  0  0
  189.6770  178.0690  142.1660 N   0  0  0  0  0  0  0  0  0  0  0  0
  191.9770  175.7190  137.8020 N   0  0  0  0  0  0  0  0  0  0  0  0
  194.5940  175.8320  136.1980 C   0  0  0  0  0  1  0  0  0  0  0  0
  187.9900  173.9880  136.0080 N   0  0  0  0  0  2  0  0  0  0  0  0
  190.1290  172.9050  135.3920 C   0  0  0  0  0  3  0  0  0  0  0  0
  193.3270  175.6310  138.3470 C   0  0  0  0  0  2  0  0  0  0  0  0
  188.4680  177.4430  139.9940 C   0  0  1  0  0  3  0  0  0  0  0  0
  188.8610  178.4370  138.8870 C   0  0  0  0  0  2  0  0  0  0  0  0
  189.4190  173.9630  136.0040 C   0  0  0  0  0  0  0  0  0  0  0  0
  190.8340  176.5430  138.2250 C   0  0  2  0  0  3  0  0  0  0  0  0
  193.6600  173.5830  136.7900 C   0  0  0  0  0  2  0  0  0  0  0  0
  187.1630  175.9140  137.3900 C   0  0  2  0  0  3  0  0  0  0  0  0
  195.5550  174.5650  138.0690 C   0  0  0  0  0  1  0  0  0  0  0  0
  189.1850  176.2200  140.0100 O   0  0  0  0  0  0  0  0  0  0  0  0
  187.4480  178.6030  141.7930 O   0  0  0  0  0  0  0  0  0  0  0  0
  190.5690  176.3810  139.7290 C   0  0  2  0  0  3  0  0  0  0  0  0
  187.2570  174.3910  137.2080 C   0  0  0  0  0  2  0  0  0  0  0  0
  186.0170  176.6490  135.2610 C   0  0  0  0  0  3  0  0  0  0  0  0
  185.9830  176.4670  136.6520 C   0  0  0  0  0  0  0  0  0  0  0  0
  184.8300  176.8090  137.3660 C   0  0  0  0  0  3  0  0  0  0  0  0
  182.5480  177.6770  137.4290 N   0  0  0  0  0  1  0  0  0  0  0  0
  183.7560  177.5100  135.3120 C   0  0  0  0  0  3  0  0  0  0  0  0
  183.7180  177.3310  136.6980 C   0  0  0  0  0  0  0  0  0  0  0  0
  184.9050  177.1690  134.5940 C   0  0  0  0  0  3  0  0  0  0  0  0
  191.6510  178.7550  143.7750 O   0  0  0  0  0  1  0  0  0  0  0  0
  191.9960  177.8660  142.7570 C   0  0  0  0  0  2  0  0  0  0  0  0
  1  4  1  0  0  0  0
  2 24  1  0  0  0  0
  2 17  1  0  0  0  0
  3  9  1  0  0  0  0
  3  7  1  0  0  0  0
  4 12  2  0  0  0  0
  4 37  1  0  0  0  0
  5 19  1  0  0  0  0
  6 22  1  0  0  0  0
  6  9  2  0  0  0  0
  8 26  2  0  0  0  0
  8 12  1  0  0  0  0
  9 13  1  0  0  0  0
 10 23  1  0  0  0  0
 10  7  1  0  0  0  0
 10  5  1  1  0  0  0
 11  6  1  0  0  0  0
 13 21  1  0  0  0  0
 13 17  1  0  0  0  0
 14  2  1  0  0  0  0
 15 28  1  0  0  0  0
 16 11  2  0  0  0  0
 16 20  1  0  0  0  0
 18 19  1  6  0  0  0
 18 25  1  0  0  0  0
 18  8  1  0  0  0  0
 20 15  1  0  0  0  0
 20  3  2  0  0  0  0
 21  7  1  6  0  0  0
 21 27  1  0  0  0  0
 22  2  1  0  0  0  0
 23 30  1  6  0  0  0
 27 25  1  6  0  0  0
 27  1  1  0  0  0  0
 28 23  1  0  0  0  0
 29 30  1  0  0  0  0
 30 31  2  0  0  0  0
 33 34  2  0  0  0  0
 34 31  1  0  0  0  0
 34 32  1  0  0  0  0
 35 29  2  0  0  0  0
 35 33  1  0  0  0  0
 37 36  1  0  0  0  0
M  END
>  <MODEL>
2

>  <REMARK>
 VINA RESULT:      -7.0      2.874      7.287
  Name = 
  2 active torsions:
  status: ('A' for Active; 'I' for Inactive)
    1  A    between atoms: C_4  and  C_37
    2  A    between atoms: C_23  and  C_30
                            x       y       z     vdW  Elec       q    Type
                         _______ _______ _______ _____ _____    ______ ____

>  <TORSDO>
F 2

$$$$
