=
 OpenBabel11122412133D

 34 41  0  0  1  0  0  0  0  0999 V2000
  184.4550  178.6280  144.4960 C   0  0  0  0  0  0  0  0  0  0  0  0
  182.1080  178.8330  143.5380 C   0  0  0  0  0  2  0  0  0  0  0  0
  190.9320  177.4720  143.8150 C   0  0  1  0  0  3  0  0  0  0  0  0
  186.6600  177.9480  145.2460 C   0  0  0  0  0  0  0  0  0  0  0  0
  188.3160  177.2920  143.5980 C   0  0  0  0  0  0  0  0  0  0  0  0
  189.8620  175.3410  142.8440 C   0  0  0  0  0  1  0  0  0  0  0  0
  190.5050  177.7470  142.3770 C   0  0  0  0  0  2  0  0  0  0  0  0
  190.0750  178.3160  146.0590 C   0  0  0  0  0  2  0  0  0  0  0  0
  184.0110  179.0620  142.0600 C   0  0  1  0  0  3  0  0  0  0  0  0
  184.0650  179.7530  139.2100 C   0  0  0  0  0  2  0  0  0  0  0  0
  187.4010  177.5010  142.6120 N   0  0  0  0  0  0  0  0  0  0  0  0
  188.9690  177.2540  146.0350 C   0  0  0  0  0  2  0  0  0  0  0  0
  185.1450  178.0770  141.7260 C   0  0  2  0  0  3  0  0  0  0  0  0
  181.5890  179.0030  142.1190 C   0  0  0  0  0  2  0  0  0  0  0  0
  187.9580  177.5010  144.9470 C   0  0  0  0  0  0  0  0  0  0  0  0
  190.6040  178.6940  144.6700 C   0  0  0  0  0  2  0  0  0  0  0  0
  182.7170  179.5910  139.9300 C   0  0  2  0  0  3  0  0  0  0  0  0
  185.7510  178.1870  144.1960 C   0  0  0  0  0  0  0  0  0  0  0  0
  189.6910  176.7970  143.2270 C   0  0  2  0  0  0  0  0  0  0  0  0
  186.1430  177.9570  142.8630 C   0  0  0  0  0  0  0  0  0  0  0  0
  184.9310  178.5670  146.8210 C   0  0  0  0  0  3  0  0  0  0  0  0
  184.9150  178.4850  139.2190 C   0  0  0  0  0  2  0  0  0  0  0  0
  186.2380  178.1440  146.5680 C   0  0  0  0  0  3  0  0  0  0  0  0
  185.8480  178.4900  140.4270 C   0  0  0  0  0  2  0  0  0  0  0  0
  182.7890  178.7550  141.2130 C   0  0  1  0  0  3  0  0  0  0  0  0
  184.0730  178.7980  145.7910 N   0  0  0  0  0  0  0  0  0  0  0  0
  183.5510  178.9070  143.4250 N   0  0  0  0  0  0  0  0  0  0  0  0
  181.7860  179.0260  139.0560 O   0  0  0  0  0  0  0  0  0  0  0  0
  181.4880  180.0410  138.1390 C   0  0  0  0  0  2  0  0  0  0  0  0
  179.9170  182.9280  137.5130 O   0  0  0  0  0  0  0  0  0  0  0  0
  179.5440  181.2490  139.1310 C   0  0  0  0  0  2  0  0  0  0  0  0
  181.0170  181.3070  138.8490 C   0  0  2  0  0  3  0  0  0  0  0  0
  179.0170  182.5180  138.5070 C   0  0  0  0  0  2  0  0  0  0  0  0
  181.1830  182.5280  137.9690 C   0  0  0  0  0  2  0  0  0  0  0  0
  1 26  1  0  0  0  0
  3  7  1  6  0  0  0
  3 16  1  0  0  0  0
  4 23  2  0  0  0  0
  5 15  2  0  0  0  0
  7 19  1  0  0  0  0
  9 27  1  1  0  0  0
 10 22  1  0  0  0  0
 10 17  1  0  0  0  0
 11 20  2  0  0  0  0
 11  5  1  0  0  0  0
 12  8  1  0  0  0  0
 13 24  1  6  0  0  0
 13  9  1  0  0  0  0
 13 20  1  0  0  0  0
 14  2  1  0  0  0  0
 15  4  1  0  0  0  0
 15 12  1  0  0  0  0
 16  8  1  0  0  0  0
 17 28  1  6  0  0  0
 17 25  1  0  0  0  0
 18  1  2  0  0  0  0
 18  4  1  0  0  0  0
 19  6  1  6  0  0  0
 19  5  1  0  0  0  0
 19  3  1  0  0  0  0
 20 18  1  0  0  0  0
 22 24  1  0  0  0  0
 23 21  1  0  0  0  0
 25  9  1  0  0  0  0
 25 14  1  1  0  0  0
 26 21  2  0  0  0  0
 27  2  1  0  0  0  0
 27  1  1  0  0  0  0
 29 28  1  0  0  0  0
 30 34  1  0  0  0  0
 30 33  1  0  0  0  0
 32 29  1  6  0  0  0
 32 31  1  0  0  0  0
 33 31  1  0  0  0  0
 34 32  1  0  0  0  0
M  END
>  <MODEL>
1

>  <REMARK>
 VINA RESULT:      -9.9      0.000      0.000
  Name = 
  3 active torsions:
  status: ('A' for Active; 'I' for Inactive)
    1  A    between atoms: C_17  and  O_28
    2  A    between atoms: O_28  and  C_29
    3  A    between atoms: C_29  and  C_32
                            x       y       z     vdW  Elec       q    Type
                         _______ _______ _______ _____ _____    ______ ____

>  <TORSDO>
F 3

$$$$
=
 OpenBabel11122412133D

 34 41  0  0  1  0  0  0  0  0999 V2000
  185.4520  178.5920  140.7510 C   0  0  0  0  0  0  0  0  0  0  0  0
  187.5020  177.6920  141.9560 C   0  0  0  0  0  2  0  0  0  0  0  0
  179.0920  180.4060  140.6560 C   0  0  1  0  0  3  0  0  0  0  0  0
  183.2940  178.9950  139.7190 C   0  0  0  0  0  0  0  0  0  0  0  0
  181.3130  179.0740  141.1180 C   0  0  0  0  0  0  0  0  0  0  0  0
  178.9860  177.9830  141.5190 C   0  0  0  0  0  1  0  0  0  0  0  0
  179.3990  180.4010  142.1500 C   0  0  0  0  0  2  0  0  0  0  0  0
  180.5230  180.8770  138.6040 C   0  0  0  0  0  2  0  0  0  0  0  0
  185.7100  178.6790  143.2500 C   0  0  1  0  0  3  0  0  0  0  0  0
  185.5820  179.1990  146.1330 C   0  0  0  0  0  2  0  0  0  0  0  0
  182.0870  178.8120  142.2070 N   0  0  0  0  0  0  0  0  0  0  0  0
  181.0410  179.4340  138.6360 C   0  0  0  0  0  2  0  0  0  0  0  0
  184.2270  178.2870  143.3700 C   0  0  2  0  0  3  0  0  0  0  0  0
  187.8480  177.5520  143.4310 C   0  0  0  0  0  2  0  0  0  0  0  0
  181.9030  179.1590  139.8400 C   0  0  0  0  0  0  0  0  0  0  0  0
  180.0310  181.3910  139.9630 C   0  0  0  0  0  2  0  0  0  0  0  0
  186.8070  178.4860  145.5410 C   0  0  2  0  0  3  0  0  0  0  0  0
  184.0660  178.7600  140.8730 C   0  0  0  0  0  0  0  0  0  0  0  0
  179.8240  179.2260  141.2990 C   0  0  2  0  0  0  0  0  0  0  0  0
  183.4380  178.6720  142.1310 C   0  0  0  0  0  0  0  0  0  0  0  0
  185.3130  178.8480  138.3940 C   0  0  0  0  0  3  0  0  0  0  0  0
  184.2740  178.4430  145.9150 C   0  0  0  0  0  2  0  0  0  0  0  0
  183.9320  179.0400  138.4720 C   0  0  0  0  0  3  0  0  0  0  0  0
  183.6080  178.9140  144.6250 C   0  0  0  0  0  2  0  0  0  0  0  0
  186.5510  177.8250  144.1820 C   0  0  1  0  0  3  0  0  0  0  0  0
  186.0390  178.6290  139.5230 N   0  0  0  0  0  0  0  0  0  0  0  0
  186.2350  178.3940  141.9290 N   0  0  0  0  0  0  0  0  0  0  0  0
  187.2720  177.5290  146.4450 O   0  0  0  0  0  0  0  0  0  0  0  0
  188.5970  177.8980  146.7140 C   0  0  0  0  0  2  0  0  0  0  0  0
  191.8470  177.3900  146.1070 O   0  0  0  0  0  0  0  0  0  0  0  0
  190.3240  176.3040  147.5480 C   0  0  0  0  0  2  0  0  0  0  0  0
  189.5680  176.7810  146.3430 C   0  0  2  0  0  3  0  0  0  0  0  0
  191.7680  176.4350  147.1310 C   0  0  0  0  0  2  0  0  0  0  0  0
  190.6420  177.2760  145.3970 C   0  0  0  0  0  2  0  0  0  0  0  0
  1 18  1  0  0  0  0
  1 27  1  0  0  0  0
  2 14  1  0  0  0  0
  3 16  1  6  0  0  0
  3 19  1  0  0  0  0
  3  7  1  0  0  0  0
  4 15  2  0  0  0  0
  4 18  1  0  0  0  0
  5 19  1  0  0  0  0
  5 11  2  0  0  0  0
  8 12  1  0  0  0  0
  8 16  1  0  0  0  0
  9 27  1  6  0  0  0
  9 13  1  0  0  0  0
  9 25  1  0  0  0  0
 12 15  1  0  0  0  0
 13 24  1  1  0  0  0
 15  5  1  0  0  0  0
 17 10  1  0  0  0  0
 17 28  1  1  0  0  0
 18 20  2  0  0  0  0
 19  6  1  1  0  0  0
 19  7  1  0  0  0  0
 20 11  1  0  0  0  0
 20 13  1  0  0  0  0
 21 23  2  0  0  0  0
 21 26  1  0  0  0  0
 22 10  1  0  0  0  0
 23  4  1  0  0  0  0
 24 22  1  0  0  0  0
 25 14  1  6  0  0  0
 25 17  1  0  0  0  0
 26  1  2  0  0  0  0
 27  2  1  0  0  0  0
 28 29  1  0  0  0  0
 30 33  1  0  0  0  0
 32 29  1  1  0  0  0
 32 31  1  0  0  0  0
 33 31  1  0  0  0  0
 34 30  1  0  0  0  0
 34 32  1  0  0  0  0
M  END
>  <MODEL>
2

>  <REMARK>
 VINA RESULT:      -9.6      3.121      9.261
  Name = 
  3 active torsions:
  status: ('A' for Active; 'I' for Inactive)
    1  A    between atoms: C_17  and  O_28
    2  A    between atoms: O_28  and  C_29
    3  A    between atoms: C_29  and  C_32
                            x       y       z     vdW  Elec       q    Type
                         _______ _______ _______ _____ _____    ______ ____

>  <TORSDO>
F 3

$$$$
=
 OpenBabel11122412133D

 34 41  0  0  1  0  0  0  0  0999 V2000
  184.5140  178.6000  144.5500 C   0  0  0  0  0  0  0  0  0  0  0  0
  182.1470  178.7670  143.6370 C   0  0  0  0  0  2  0  0  0  0  0  0
  190.9960  177.5580  143.7470 C   0  0  1  0  0  3  0  0  0  0  0  0
  186.7440  177.9560  145.2570 C   0  0  0  0  0  0  0  0  0  0  0  0
  188.3800  177.3340  143.5780 C   0  0  0  0  0  0  0  0  0  0  0  0
  189.9450  175.4120  142.7880 C   0  0  0  0  0  1  0  0  0  0  0  0
  190.5380  177.8300  142.3180 C   0  0  0  0  0  2  0  0  0  0  0  0
  190.1670  178.3800  146.0080 C   0  0  0  0  0  2  0  0  0  0  0  0
  184.0180  179.0330  142.1240 C   0  0  1  0  0  3  0  0  0  0  0  0
  184.0080  179.7330  139.2760 C   0  0  0  0  0  2  0  0  0  0  0  0
  187.4440  177.5290  142.6090 N   0  0  0  0  0  0  0  0  0  0  0  0
  189.0790  177.3000  146.0020 C   0  0  0  0  0  2  0  0  0  0  0  0
  185.1620  178.0690  141.7660 C   0  0  2  0  0  3  0  0  0  0  0  0
  181.5990  178.9320  142.2270 C   0  0  0  0  0  2  0  0  0  0  0  0
  188.0440  177.5320  144.9330 C   0  0  0  0  0  0  0  0  0  0  0  0
  190.6630  178.7720  144.6120 C   0  0  0  0  0  2  0  0  0  0  0  0
  182.6760  179.5460  140.0200 C   0  0  2  0  0  3  0  0  0  0  0  0
  185.8110  178.1820  144.2250 C   0  0  0  0  0  0  0  0  0  0  0  0
  189.7560  176.8630  143.1800 C   0  0  2  0  0  0  0  0  0  0  0  0
  186.1840  177.9630  142.8840 C   0  0  0  0  0  0  0  0  0  0  0  0
  185.0340  178.5400  146.8660 C   0  0  0  0  0  3  0  0  0  0  0  0
  184.8790  178.4800  139.2650 C   0  0  0  0  0  2  0  0  0  0  0  0
  186.3430  178.1410  146.5870 C   0  0  0  0  0  3  0  0  0  0  0  0
  185.8340  178.4980  140.4560 C   0  0  0  0  0  2  0  0  0  0  0  0
  182.7860  178.7080  141.2980 C   0  0  1  0  0  3  0  0  0  0  0  0
  184.1530  178.7590  145.8530 N   0  0  0  0  0  0  0  0  0  0  0  0
  183.5860  178.8660  143.4970 N   0  0  0  0  0  0  0  0  0  0  0  0
  181.7390  178.9670  139.1620 O   0  0  0  0  0  0  0  0  0  0  0  0
  181.3870  179.9870  138.2690 C   0  0  0  0  0  2  0  0  0  0  0  0
  181.0190  180.3290  134.9620 O   0  0  0  0  0  0  0  0  0  0  0  0
  181.3210  178.4250  136.3260 C   0  0  0  0  0  2  0  0  0  0  0  0
  180.5520  179.4460  137.1120 C   0  0  2  0  0  3  0  0  0  0  0  0
  181.2530  178.9470  134.9120 C   0  0  0  0  0  2  0  0  0  0  0  0
  180.2340  180.5320  136.1060 C   0  0  0  0  0  2  0  0  0  0  0  0
  1 26  1  0  0  0  0
  3  7  1  6  0  0  0
  3 16  1  0  0  0  0
  4 23  2  0  0  0  0
  5 15  2  0  0  0  0
  7 19  1  0  0  0  0
  9 27  1  1  0  0  0
 10 17  1  0  0  0  0
 11 20  2  0  0  0  0
 11  5  1  0  0  0  0
 12  8  1  0  0  0  0
 13 24  1  6  0  0  0
 13  9  1  0  0  0  0
 13 20  1  0  0  0  0
 14  2  1  0  0  0  0
 15  4  1  0  0  0  0
 15 12  1  0  0  0  0
 16  8  1  0  0  0  0
 17 28  1  6  0  0  0
 17 25  1  0  0  0  0
 18  1  2  0  0  0  0
 18  4  1  0  0  0  0
 19  6  1  6  0  0  0
 19  5  1  0  0  0  0
 19  3  1  0  0  0  0
 20 18  1  0  0  0  0
 22 10  1  0  0  0  0
 22 24  1  0  0  0  0
 23 21  1  0  0  0  0
 25  9  1  0  0  0  0
 25 14  1  1  0  0  0
 26 21  2  0  0  0  0
 27  2  1  0  0  0  0
 27  1  1  0  0  0  0
 29 28  1  0  0  0  0
 30 34  1  0  0  0  0
 31 32  1  0  0  0  0
 32 29  1  1  0  0  0
 33 30  1  0  0  0  0
 33 31  1  0  0  0  0
 34 32  1  0  0  0  0
M  END
>  <MODEL>
3

>  <REMARK>
 VINA RESULT:      -9.5      1.093      1.529
  Name = 
  3 active torsions:
  status: ('A' for Active; 'I' for Inactive)
    1  A    between atoms: C_17  and  O_28
    2  A    between atoms: O_28  and  C_29
    3  A    between atoms: C_29  and  C_32
                            x       y       z     vdW  Elec       q    Type
                         _______ _______ _______ _____ _____    ______ ____

>  <TORSDO>
F 3

$$$$
=
 OpenBabel11122412133D

 34 41  0  0  1  0  0  0  0  0999 V2000
  184.5040  178.6300  144.6540 C   0  0  0  0  0  0  0  0  0  0  0  0
  182.1270  178.8220  143.7720 C   0  0  0  0  0  2  0  0  0  0  0  0
  190.9590  177.4900  143.7710 C   0  0  1  0  0  3  0  0  0  0  0  0
  186.7350  177.9600  145.3360 C   0  0  0  0  0  0  0  0  0  0  0  0
  188.3390  177.3020  143.6390 C   0  0  0  0  0  0  0  0  0  0  0  0
  189.8660  175.3520  142.8450 C   0  0  0  0  0  1  0  0  0  0  0  0
  190.4860  177.7570  142.3460 C   0  0  0  0  0  2  0  0  0  0  0  0
  190.1730  178.3430  146.0360 C   0  0  0  0  0  2  0  0  0  0  0  0
  183.9810  179.0500  142.2310 C   0  0  1  0  0  3  0  0  0  0  0  0
  183.9400  179.7260  139.3780 C   0  0  0  0  0  2  0  0  0  0  0  0
  187.3920  177.5020  142.6820 N   0  0  0  0  0  0  0  0  0  0  0  0
  189.0710  177.2780  146.0530 C   0  0  0  0  0  2  0  0  0  0  0  0
  185.1060  178.0670  141.8660 C   0  0  2  0  0  3  0  0  0  0  0  0
  181.5620  178.9830  142.3690 C   0  0  0  0  0  2  0  0  0  0  0  0
  188.0240  177.5160  144.9970 C   0  0  0  0  0  0  0  0  0  0  0  0
  190.6550  178.7160  144.6290 C   0  0  0  0  0  2  0  0  0  0  0  0
  182.6170  179.5640  140.1420 C   0  0  2  0  0  3  0  0  0  0  0  0
  185.7910  178.1910  144.3150 C   0  0  0  0  0  0  0  0  0  0  0  0
  189.7030  176.8080  143.2260 C   0  0  2  0  0  0  0  0  0  0  0  0
  186.1420  177.9560  142.9700 C   0  0  0  0  0  0  0  0  0  0  0  0
  185.0550  178.5820  146.9630 C   0  0  0  0  0  3  0  0  0  0  0  0
  184.7940  178.4610  139.3660 C   0  0  0  0  0  2  0  0  0  0  0  0
  186.3550  178.1620  146.6700 C   0  0  0  0  0  3  0  0  0  0  0  0
  185.7660  178.4750  140.5430 C   0  0  0  0  0  2  0  0  0  0  0  0
  182.7330  178.7350  141.4260 C   0  0  1  0  0  3  0  0  0  0  0  0
  184.1640  178.8040  145.9600 N   0  0  0  0  0  0  0  0  0  0  0  0
  183.5650  178.9000  143.6120 N   0  0  0  0  0  0  0  0  0  0  0  0
  181.6600  178.9910  139.3010 O   0  0  0  0  0  0  0  0  0  0  0  0
  181.5200  177.6740  139.7570 C   0  0  0  0  0  2  0  0  0  0  0  0
  182.9900  177.0050  136.8280 O   0  0  0  0  0  0  0  0  0  0  0  0
  182.5060  175.6440  138.6960 C   0  0  0  0  0  2  0  0  0  0  0  0
  181.4370  176.6920  138.5930 C   0  0  2  0  0  3  0  0  0  0  0  0
  183.2100  175.7280  137.3640 C   0  0  0  0  0  2  0  0  0  0  0  0
  181.7120  177.3790  137.2710 C   0  0  0  0  0  2  0  0  0  0  0  0
  1 26  1  0  0  0  0
  3  7  1  6  0  0  0
  3 16  1  0  0  0  0
  4 23  2  0  0  0  0
  5 15  2  0  0  0  0
  7 19  1  0  0  0  0
  8 12  1  0  0  0  0
  9 27  1  1  0  0  0
 10 17  1  0  0  0  0
 11 20  2  0  0  0  0
 11  5  1  0  0  0  0
 13 24  1  6  0  0  0
 13  9  1  0  0  0  0
 13 20  1  0  0  0  0
 14  2  1  0  0  0  0
 15  4  1  0  0  0  0
 15 12  1  0  0  0  0
 16  8  1  0  0  0  0
 17 28  1  6  0  0  0
 17 25  1  0  0  0  0
 18  1  2  0  0  0  0
 18  4  1  0  0  0  0
 19  6  1  6  0  0  0
 19  5  1  0  0  0  0
 19  3  1  0  0  0  0
 20 18  1  0  0  0  0
 22 10  1  0  0  0  0
 22 24  1  0  0  0  0
 23 21  1  0  0  0  0
 25  9  1  0  0  0  0
 25 14  1  1  0  0  0
 26 21  2  0  0  0  0
 27  2  1  0  0  0  0
 27  1  1  0  0  0  0
 28 29  1  0  0  0  0
 30 34  1  0  0  0  0
 30 33  1  0  0  0  0
 32 31  1  0  0  0  0
 32 29  1  1  0  0  0
 33 31  1  0  0  0  0
 34 32  1  0  0  0  0
M  END
>  <MODEL>
4

>  <REMARK>
 VINA RESULT:      -9.4      1.613      2.474
  Name = 
  3 active torsions:
  status: ('A' for Active; 'I' for Inactive)
    1  A    between atoms: C_17  and  O_28
    2  A    between atoms: O_28  and  C_29
    3  A    between atoms: C_29  and  C_32
                            x       y       z     vdW  Elec       q    Type
                         _______ _______ _______ _____ _____    ______ ____

>  <TORSDO>
F 3

$$$$
=
 OpenBabel11122412133D

 34 41  0  0  1  0  0  0  0  0999 V2000
  184.0000  178.5020  141.1920 C   0  0  0  0  0  0  0  0  0  0  0  0
  183.5430  179.1580  143.6060 C   0  0  0  0  0  2  0  0  0  0  0  0
  188.1360  176.9130  136.2820 C   0  0  1  0  0  3  0  0  0  0  0  0
  184.6970  178.3160  138.8760 C   0  0  0  0  0  0  0  0  0  0  0  0
  187.0600  178.0980  138.3700 C   0  0  0  0  0  0  0  0  0  0  0  0
  189.0350  179.1900  137.0770 C   0  0  0  0  0  1  0  0  0  0  0  0
  189.0070  176.6950  137.5140 C   0  0  0  0  0  2  0  0  0  0  0  0
  185.6310  176.6980  135.8810 C   0  0  0  0  0  2  0  0  0  0  0  0
  185.6240  178.0510  143.0570 C   0  0  1  0  0  3  0  0  0  0  0  0
  187.7560  177.1290  144.8480 C   0  0  0  0  0  2  0  0  0  0  0  0
  187.3400  178.1780  139.6990 N   0  0  0  0  0  0  0  0  0  0  0  0
  185.4200  178.1040  136.4530 C   0  0  0  0  0  2  0  0  0  0  0  0
  186.7590  178.4660  142.1050 C   0  0  2  0  0  3  0  0  0  0  0  0
  184.3850  179.0760  144.8710 C   0  0  0  0  0  2  0  0  0  0  0  0
  185.7230  178.1780  137.9260 C   0  0  0  0  0  0  0  0  0  0  0  0
  186.9080  176.0090  136.3790 C   0  0  0  0  0  2  0  0  0  0  0  0
  186.5470  177.8810  145.4250 C   0  0  2  0  0  3  0  0  0  0  0  0
  185.0230  178.3600  140.2460 C   0  0  0  0  0  0  0  0  0  0  0  0
  188.1980  177.9670  137.3890 C   0  0  2  0  0  0  0  0  0  0  0  0
  186.3710  178.2860  140.6490 C   0  0  0  0  0  0  0  0  0  0  0  0
  182.3680  178.5890  139.4700 C   0  0  0  0  0  3  0  0  0  0  0  0
  188.5560  177.9470  143.8390 C   0  0  0  0  0  2  0  0  0  0  0  0
  183.3540  178.4310  138.4930 C   0  0  0  0  0  3  0  0  0  0  0  0
  188.0400  177.6860  142.4270 C   0  0  0  0  0  2  0  0  0  0  0  0
  185.7950  178.7370  144.4000 C   0  0  1  0  0  3  0  0  0  0  0  0
  182.7060  178.6230  140.7870 N   0  0  0  0  0  0  0  0  0  0  0  0
  184.3330  178.5060  142.5810 N   0  0  0  0  0  0  0  0  0  0  0  0
  186.9630  178.6850  146.4890 O   0  0  0  0  0  0  0  0  0  0  0  0
  186.6400  177.9560  147.6410 C   0  0  0  0  0  2  0  0  0  0  0  0
  189.5930  176.3980  147.4300 O   0  0  0  0  0  0  0  0  0  0  0  0
  189.0090  178.5840  148.1040 C   0  0  0  0  0  2  0  0  0  0  0  0
  187.8830  177.6650  148.4760 C   0  0  2  0  0  3  0  0  0  0  0  0
  190.1410  177.6410  147.7800 C   0  0  0  0  0  2  0  0  0  0  0  0
  188.4240  176.2780  148.1960 C   0  0  0  0  0  2  0  0  0  0  0  0
  1 27  1  0  0  0  0
  2 14  1  0  0  0  0
  3 16  1  1  0  0  0
  3 19  1  0  0  0  0
  3  7  1  0  0  0  0
  4 18  1  0  0  0  0
  5 11  1  0  0  0  0
  8 16  1  0  0  0  0
  8 12  1  0  0  0  0
  9 27  1  6  0  0  0
  9 25  1  0  0  0  0
 10 17  1  0  0  0  0
 11 20  2  0  0  0  0
 12 15  1  0  0  0  0
 13 24  1  1  0  0  0
 13  9  1  0  0  0  0
 15  5  2  0  0  0  0
 15  4  1  0  0  0  0
 17 28  1  1  0  0  0
 18 20  1  0  0  0  0
 18  1  2  0  0  0  0
 19  6  1  6  0  0  0
 19  7  1  0  0  0  0
 19  5  1  0  0  0  0
 20 13  1  0  0  0  0
 21 26  2  0  0  0  0
 22 10  1  0  0  0  0
 23  4  2  0  0  0  0
 23 21  1  0  0  0  0
 24 22  1  0  0  0  0
 25 14  1  1  0  0  0
 25 17  1  0  0  0  0
 26  1  1  0  0  0  0
 27  2  1  0  0  0  0
 28 29  1  0  0  0  0
 30 33  1  0  0  0  0
 30 34  1  0  0  0  0
 31 32  1  0  0  0  0
 32 29  1  6  0  0  0
 33 31  1  0  0  0  0
 34 32  1  0  0  0  0
M  END
>  <MODEL>
5

>  <REMARK>
 VINA RESULT:      -8.5      3.440      8.077
  Name = 
  3 active torsions:
  status: ('A' for Active; 'I' for Inactive)
    1  A    between atoms: C_17  and  O_28
    2  A    between atoms: O_28  and  C_29
    3  A    between atoms: C_29  and  C_32
                            x       y       z     vdW  Elec       q    Type
                         _______ _______ _______ _____ _____    ______ ____

>  <TORSDO>
F 3

$$$$
=
 OpenBabel11122412133D

 34 41  0  0  1  0  0  0  0  0999 V2000
  186.7420  178.2900  142.0320 C   0  0  0  0  0  0  0  0  0  0  0  0
  187.3910  177.7210  139.6400 C   0  0  0  0  0  2  0  0  0  0  0  0
  187.9280  178.2740  148.5380 C   0  0  1  0  0  3  0  0  0  0  0  0
  186.1320  178.3250  144.3800 C   0  0  0  0  0  0  0  0  0  0  0  0
  187.7280  177.5260  146.0240 C   0  0  0  0  0  0  0  0  0  0  0  0
  188.0880  175.7810  147.9190 C   0  0  0  0  0  1  0  0  0  0  0  0
  189.3130  177.9980  147.9620 C   0  0  0  0  0  2  0  0  0  0  0  0
  185.9310  179.5900  147.6690 C   0  0  0  0  0  2  0  0  0  0  0  0
  189.1160  177.8470  141.3340 C   0  0  1  0  0  3  0  0  0  0  0  0
  192.0230  177.6100  141.0320 C   0  0  0  0  0  2  0  0  0  0  0  0
  188.5990  177.2330  145.0200 N   0  0  0  0  0  0  0  0  0  0  0  0
  185.4960  178.3790  146.8350 C   0  0  0  0  0  2  0  0  0  0  0  0
  189.3010  177.0490  142.6360 C   0  0  2  0  0  3  0  0  0  0  0  0
  188.7150  177.3340  138.9990 C   0  0  0  0  0  2  0  0  0  0  0  0
  186.4620  178.0700  145.7220 C   0  0  0  0  0  0  0  0  0  0  0  0
  187.4280  179.6130  148.0000 C   0  0  0  0  0  2  0  0  0  0  0  0
  191.1120  177.4200  139.8090 C   0  0  2  0  0  3  0  0  0  0  0  0
  187.0730  178.0400  143.3700 C   0  0  0  0  0  0  0  0  0  0  0  0
  188.1220  177.2200  147.4470 C   0  0  2  0  0  0  0  0  0  0  0  0
  188.3240  177.4890  143.7120 C   0  0  0  0  0  0  0  0  0  0  0  0
  184.5850  179.0520  142.6680 C   0  0  0  0  0  3  0  0  0  0  0  0
  191.7630  176.6020  142.1470 C   0  0  0  0  0  2  0  0  0  0  0  0
  184.8790  178.8360  144.0160 C   0  0  0  0  0  3  0  0  0  0  0  0
  190.7460  177.1660  143.1350 C   0  0  0  0  0  2  0  0  0  0  0  0
  189.6640  177.0570  140.1580 C   0  0  1  0  0  3  0  0  0  0  0  0
  185.5110  178.7770  141.7110 N   0  0  0  0  0  0  0  0  0  0  0  0
  187.7140  178.0370  141.0160 N   0  0  0  0  0  0  0  0  0  0  0  0
  191.6500  176.4390  138.9740 O   0  0  0  0  0  0  0  0  0  0  0  0
  192.9440  176.8870  138.6760 C   0  0  0  0  0  2  0  0  0  0  0  0
  193.5580  173.8180  137.4970 O   0  0  0  0  0  0  0  0  0  0  0  0
  192.3920  175.6550  136.5790 C   0  0  0  0  0  2  0  0  0  0  0  0
  193.5000  176.1880  137.4400 C   0  0  2  0  0  3  0  0  0  0  0  0
  192.7410  174.1960  136.4210 C   0  0  0  0  0  2  0  0  0  0  0  0
  194.3060  174.9620  137.8160 C   0  0  0  0  0  2  0  0  0  0  0  0
  1 18  1  0  0  0  0
  2 27  1  0  0  0  0
  3  7  1  6  0  0  0
  4 15  1  0  0  0  0
  5 19  1  0  0  0  0
  8 16  1  0  0  0  0
  9 27  1  6  0  0  0
  9 13  1  0  0  0  0
 10 22  1  0  0  0  0
 11  5  1  0  0  0  0
 12  8  1  0  0  0  0
 13 24  1  1  0  0  0
 13 20  1  0  0  0  0
 14  2  1  0  0  0  0
 15  5  2  0  0  0  0
 15 12  1  0  0  0  0
 16  3  1  0  0  0  0
 17 28  1  6  0  0  0
 17 25  1  0  0  0  0
 17 10  1  0  0  0  0
 18 20  1  0  0  0  0
 18  4  2  0  0  0  0
 19  6  1  1  0  0  0
 19  7  1  0  0  0  0
 19  3  1  0  0  0  0
 20 11  2  0  0  0  0
 21 23  2  0  0  0  0
 22 24  1  0  0  0  0
 23  4  1  0  0  0  0
 25 14  1  6  0  0  0
 25  9  1  0  0  0  0
 26  1  2  0  0  0  0
 26 21  1  0  0  0  0
 27  1  1  0  0  0  0
 29 28  1  0  0  0  0
 30 34  1  0  0  0  0
 31 32  1  0  0  0  0
 32 34  1  0  0  0  0
 32 29  1  1  0  0  0
 33 31  1  0  0  0  0
 33 30  1  0  0  0  0
M  END
>  <MODEL>
6

>  <REMARK>
 VINA RESULT:      -8.3      4.221      7.888
  Name = 
  3 active torsions:
  status: ('A' for Active; 'I' for Inactive)
    1  A    between atoms: C_17  and  O_28
    2  A    between atoms: O_28  and  C_29
    3  A    between atoms: C_29  and  C_32
                            x       y       z     vdW  Elec       q    Type
                         _______ _______ _______ _____ _____    ______ ____

>  <TORSDO>
F 3

$$$$
=
 OpenBabel11122412133D

 34 41  0  0  1  0  0  0  0  0999 V2000
  183.8390  178.6140  142.5250 C   0  0  0  0  0  0  0  0  0  0  0  0
  184.4080  179.0430  144.9660 C   0  0  0  0  0  2  0  0  0  0  0  0
  185.6020  177.2910  136.2890 C   0  0  1  0  0  3  0  0  0  0  0  0
  183.5740  178.6260  140.1130 C   0  0  0  0  0  0  0  0  0  0  0  0
  185.5300  178.3160  138.7110 C   0  0  0  0  0  0  0  0  0  0  0  0
  186.9540  179.4130  136.8310 C   0  0  0  0  0  1  0  0  0  0  0  0
  186.8530  176.8920  137.0650 C   0  0  0  0  0  2  0  0  0  0  0  0
  183.1270  177.2730  136.8840 C   0  0  0  0  0  2  0  0  0  0  0  0
  186.0020  177.8720  143.5700 C   0  0  1  0  0  3  0  0  0  0  0  0
  188.5560  176.6390  144.3150 C   0  0  0  0  0  2  0  0  0  0  0  0
  186.3040  178.2410  139.8270 N   0  0  0  0  0  0  0  0  0  0  0  0
  183.2890  178.6230  137.5920 C   0  0  0  0  0  2  0  0  0  0  0  0
  186.7200  178.3130  142.2830 C   0  0  2  0  0  3  0  0  0  0  0  0
  185.6580  178.7780  145.7920 C   0  0  0  0  0  2  0  0  0  0  0  0
  184.1390  178.5250  138.8310 C   0  0  0  0  0  0  0  0  0  0  0  0
  184.4240  176.4590  136.7930 C   0  0  0  0  0  2  0  0  0  0  0  0
  187.7410  177.4010  145.3710 C   0  0  2  0  0  3  0  0  0  0  0  0
  184.4030  178.5080  141.2470 C   0  0  0  0  0  0  0  0  0  0  0  0
  186.1860  178.2180  137.3570 C   0  0  2  0  0  0  0  0  0  0  0  0
  185.7880  178.3100  141.0850 C   0  0  0  0  0  0  0  0  0  0  0  0
  181.6890  178.9810  141.5880 C   0  0  0  0  0  3  0  0  0  0  0  0
  188.9850  177.5070  143.1350 C   0  0  0  0  0  2  0  0  0  0  0  0
  182.2050  178.8630  140.2950 C   0  0  0  0  0  3  0  0  0  0  0  0
  187.9440  177.4260  142.0220 C   0  0  0  0  0  2  0  0  0  0  0  0
  186.7400  178.4040  144.7850 C   0  0  1  0  0  3  0  0  0  0  0  0
  182.5070  178.8560  142.6670 N   0  0  0  0  0  0  0  0  0  0  0  0
  184.6780  178.4540  143.6700 N   0  0  0  0  0  0  0  0  0  0  0  0
  188.6080  178.0630  146.2420 O   0  0  0  0  0  0  0  0  0  0  0  0
  189.3020  177.0420  146.9060 C   0  0  0  0  0  2  0  0  0  0  0  0
  192.1690  175.7560  148.0510 O   0  0  0  0  0  0  0  0  0  0  0  0
  191.4180  176.2310  145.8640 C   0  0  0  0  0  2  0  0  0  0  0  0
  190.8110  177.2390  146.7960 C   0  0  2  0  0  3  0  0  0  0  0  0
  192.4970  175.5870  146.6980 C   0  0  0  0  0  2  0  0  0  0  0  0
  191.4980  176.9860  148.1220 C   0  0  0  0  0  2  0  0  0  0  0  0
  1 26  1  0  0  0  0
  1 27  1  0  0  0  0
  2 14  1  0  0  0  0
  3 16  1  1  0  0  0
  3  7  1  0  0  0  0
  3 19  1  0  0  0  0
  4 23  2  0  0  0  0
  4 18  1  0  0  0  0
  5 15  2  0  0  0  0
  5 11  1  0  0  0  0
  7 19  1  0  0  0  0
  8 12  1  0  0  0  0
  9 27  1  6  0  0  0
  9 25  1  0  0  0  0
 10 17  1  0  0  0  0
 11 20  2  0  0  0  0
 12 15  1  0  0  0  0
 13 24  1  6  0  0  0
 13  9  1  0  0  0  0
 15  4  1  0  0  0  0
 16  8  1  0  0  0  0
 17 28  1  1  0  0  0
 18  1  2  0  0  0  0
 19  6  1  6  0  0  0
 19  5  1  0  0  0  0
 20 18  1  0  0  0  0
 20 13  1  0  0  0  0
 21 26  2  0  0  0  0
 22 10  1  0  0  0  0
 23 21  1  0  0  0  0
 24 22  1  0  0  0  0
 25 17  1  0  0  0  0
 25 14  1  1  0  0  0
 27  2  1  0  0  0  0
 28 29  1  0  0  0  0
 30 34  1  0  0  0  0
 31 33  1  0  0  0  0
 31 32  1  0  0  0  0
 32 29  1  1  0  0  0
 32 34  1  0  0  0  0
 33 30  1  0  0  0  0
M  END
>  <MODEL>
7

>  <REMARK>
 VINA RESULT:      -8.2      3.509      8.669
  Name = 
  3 active torsions:
  status: ('A' for Active; 'I' for Inactive)
    1  A    between atoms: C_17  and  O_28
    2  A    between atoms: O_28  and  C_29
    3  A    between atoms: C_29  and  C_32
                            x       y       z     vdW  Elec       q    Type
                         _______ _______ _______ _____ _____    ______ ____

>  <TORSDO>
F 3

$$$$
=
 OpenBabel11122412133D

 34 41  0  0  1  0  0  0  0  0999 V2000
  182.2370  178.6270  143.9190 C   0  0  0  0  0  0  0  0  0  0  0  0
  183.9070  178.7380  145.8330 C   0  0  0  0  0  2  0  0  0  0  0  0
  180.7530  178.8300  137.4770 C   0  0  1  0  0  3  0  0  0  0  0  0
  180.7960  179.0010  142.0040 C   0  0  0  0  0  0  0  0  0  0  0  0
  181.8010  179.3770  139.8270 C   0  0  0  0  0  0  0  0  0  0  0  0
  181.9630  181.0700  137.8590 C   0  0  0  0  0  1  0  0  0  0  0  0
  182.2580  178.5870  137.4490 C   0  0  0  0  0  2  0  0  0  0  0  0
  178.9310  178.1660  139.1250 C   0  0  0  0  0  2  0  0  0  0  0  0
  184.6950  178.2070  143.6070 C   0  0  1  0  0  3  0  0  0  0  0  0
  187.3910  177.4540  142.7310 C   0  0  0  0  0  2  0  0  0  0  0  0
  183.0350  179.2790  140.3930 N   0  0  0  0  0  0  0  0  0  0  0  0
  179.2840  179.3740  140.0010 C   0  0  0  0  0  2  0  0  0  0  0  0
  184.6190  179.0120  142.2980 C   0  0  2  0  0  3  0  0  0  0  0  0
  185.4230  178.6140  145.8830 C   0  0  0  0  0  2  0  0  0  0  0  0
  180.6460  179.2510  140.6290 C   0  0  0  0  0  0  0  0  0  0  0  0
  180.0820  177.6860  138.2350 C   0  0  0  0  0  2  0  0  0  0  0  0
  187.1420  177.8220  144.2020 C   0  0  2  0  0  3  0  0  0  0  0  0
  182.0890  178.8720  142.5480 C   0  0  0  0  0  0  0  0  0  0  0  0
  181.6940  179.6620  138.3510 C   0  0  2  0  0  0  0  0  0  0  0  0
  183.2170  179.0130  141.7150 C   0  0  0  0  0  0  0  0  0  0  0  0
  179.8820  178.6700  144.2190 C   0  0  0  0  0  3  0  0  0  0  0  0
  187.0740  178.5860  141.7590 C   0  0  0  0  0  2  0  0  0  0  0  0
  179.6870  178.8960  142.8540 C   0  0  0  0  0  3  0  0  0  0  0  0
  185.6300  178.4750  141.2780 C   0  0  0  0  0  2  0  0  0  0  0  0
  185.8840  178.6670  144.4310 C   0  0  1  0  0  3  0  0  0  0  0  0
  181.1390  178.5420  144.7210 N   0  0  0  0  0  0  0  0  0  0  0  0
  183.5490  178.4570  144.4580 N   0  0  0  0  0  0  0  0  0  0  0  0
  188.2560  178.4960  144.7090 O   0  0  0  0  0  0  0  0  0  0  0  0
  189.0370  177.5010  145.3110 C   0  0  0  0  0  2  0  0  0  0  0  0
  191.5430  176.5180  143.3260 O   0  0  0  0  0  0  0  0  0  0  0  0
  190.7390  178.6610  143.9040 C   0  0  0  0  0  2  0  0  0  0  0  0
  190.5240  177.7500  145.0760 C   0  0  2  0  0  3  0  0  0  0  0  0
  191.6790  177.8800  143.0190 C   0  0  0  0  0  2  0  0  0  0  0  0
  191.2440  176.4720  144.6950 C   0  0  0  0  0  2  0  0  0  0  0  0
  1 27  1  0  0  0  0
  1 26  1  0  0  0  0
  2 14  1  0  0  0  0
  3  7  1  6  0  0  0
  3 16  1  0  0  0  0
  3 19  1  0  0  0  0
  4 18  1  0  0  0  0
  4 23  2  0  0  0  0
  5 11  1  0  0  0  0
  5 15  2  0  0  0  0
  7 19  1  0  0  0  0
  8 12  1  0  0  0  0
  9 25  1  0  0  0  0
  9 27  1  1  0  0  0
 10 17  1  0  0  0  0
 11 20  2  0  0  0  0
 12 15  1  0  0  0  0
 13 24  1  6  0  0  0
 13  9  1  0  0  0  0
 15  4  1  0  0  0  0
 16  8  1  0  0  0  0
 17 25  1  0  0  0  0
 17 28  1  6  0  0  0
 18  1  2  0  0  0  0
 19  6  1  6  0  0  0
 19  5  1  0  0  0  0
 20 13  1  0  0  0  0
 20 18  1  0  0  0  0
 21 26  2  0  0  0  0
 22 10  1  0  0  0  0
 23 21  1  0  0  0  0
 24 22  1  0  0  0  0
 25 14  1  1  0  0  0
 27  2  1  0  0  0  0
 28 29  1  0  0  0  0
 30 34  1  0  0  0  0
 31 32  1  0  0  0  0
 32 29  1  6  0  0  0
 33 30  1  0  0  0  0
 33 31  1  0  0  0  0
 34 32  1  0  0  0  0
M  END
>  <MODEL>
8

>  <REMARK>
 VINA RESULT:      -8.2      2.967      8.545
  Name = 
  3 active torsions:
  status: ('A' for Active; 'I' for Inactive)
    1  A    between atoms: C_17  and  O_28
    2  A    between atoms: O_28  and  C_29
    3  A    between atoms: C_29  and  C_32
                            x       y       z     vdW  Elec       q    Type
                         _______ _______ _______ _____ _____    ______ ____

>  <TORSDO>
F 3

$$$$
=
 OpenBabel11122412133D

 34 41  0  0  1  0  0  0  0  0999 V2000
  184.9180  178.3980  144.7610 C   0  0  0  0  0  0  0  0  0  0  0  0
  186.8150  178.5510  146.4470 C   0  0  0  0  0  2  0  0  0  0  0  0
  182.6780  177.7850  138.5690 C   0  0  1  0  0  3  0  0  0  0  0  0
  183.3140  178.6810  142.9630 C   0  0  0  0  0  0  0  0  0  0  0  0
  184.0800  178.5320  140.6650 C   0  0  0  0  0  0  0  0  0  0  0  0
  184.2290  179.8330  138.4190 C   0  0  0  0  0  1  0  0  0  0  0  0
  184.1190  177.3030  138.4350 C   0  0  0  0  0  2  0  0  0  0  0  0
  181.0030  177.6990  140.4830 C   0  0  0  0  0  2  0  0  0  0  0  0
  187.2340  177.5450  144.2860 C   0  0  1  0  0  3  0  0  0  0  0  0
  189.6660  176.2380  143.2950 C   0  0  0  0  0  2  0  0  0  0  0  0
  185.3490  178.3320  141.1140 N   0  0  0  0  0  0  0  0  0  0  0  0
  181.6290  178.9610  141.0870 C   0  0  0  0  0  2  0  0  0  0  0  0
  187.1070  178.1280  142.8680 C   0  0  2  0  0  3  0  0  0  0  0  0
  188.2920  178.1950  146.3670 C   0  0  0  0  0  2  0  0  0  0  0  0
  183.0290  178.7250  141.5870 C   0  0  0  0  0  0  0  0  0  0  0  0
  181.9540  176.9010  139.5830 C   0  0  0  0  0  2  0  0  0  0  0  0
  189.6580  176.8760  144.6930 C   0  0  2  0  0  3  0  0  0  0  0  0
  184.6350  178.4370  143.3900 C   0  0  0  0  0  0  0  0  0  0  0  0
  183.8290  178.5870  139.1800 C   0  0  2  0  0  0  0  0  0  0  0  0
  185.6570  178.2590  142.4370 C   0  0  0  0  0  0  0  0  0  0  0  0
  182.6490  178.8670  145.2820 C   0  0  0  0  0  3  0  0  0  0  0  0
  189.3910  177.2330  142.1720 C   0  0  0  0  0  2  0  0  0  0  0  0
  182.3180  178.8950  143.9250 C   0  0  0  0  0  3  0  0  0  0  0  0
  187.8970  177.2770  141.8660 C   0  0  0  0  0  2  0  0  0  0  0  0
  188.5700  177.9370  144.8910 C   0  0  1  0  0  3  0  0  0  0  0  0
  183.9300  178.6220  145.6700 N   0  0  0  0  0  0  0  0  0  0  0  0
  186.2510  178.1110  145.1880 N   0  0  0  0  0  0  0  0  0  0  0  0
  190.9100  177.4360  144.9570 O   0  0  0  0  0  0  0  0  0  0  0  0
  191.6820  176.3780  145.4540 C   0  0  0  0  0  2  0  0  0  0  0  0
  193.1760  176.0630  148.4300 O   0  0  0  0  0  0  0  0  0  0  0  0
  191.3340  177.3590  147.7210 C   0  0  0  0  0  2  0  0  0  0  0  0
  191.3520  176.0930  146.9160 C   0  0  2  0  0  3  0  0  0  0  0  0
  192.2970  177.0730  148.8470 C   0  0  0  0  0  2  0  0  0  0  0  0
  192.4260  175.2480  147.5690 C   0  0  0  0  0  2  0  0  0  0  0  0
  1 27  1  0  0  0  0
  1 26  1  0  0  0  0
  3  7  1  6  0  0  0
  3 19  1  0  0  0  0
  3 16  1  0  0  0  0
  4 18  1  0  0  0  0
  4 23  2  0  0  0  0
  5 11  1  0  0  0  0
  5 15  2  0  0  0  0
  7 19  1  0  0  0  0
  8 12  1  0  0  0  0
  9 25  1  0  0  0  0
  9 27  1  1  0  0  0
 10 17  1  0  0  0  0
 11 20  2  0  0  0  0
 12 15  1  0  0  0  0
 13 24  1  6  0  0  0
 13  9  1  0  0  0  0
 14  2  1  0  0  0  0
 15  4  1  0  0  0  0
 16  8  1  0  0  0  0
 17 25  1  0  0  0  0
 17 28  1  6  0  0  0
 18  1  2  0  0  0  0
 19  6  1  6  0  0  0
 19  5  1  0  0  0  0
 20 13  1  0  0  0  0
 20 18  1  0  0  0  0
 21 26  2  0  0  0  0
 22 10  1  0  0  0  0
 23 21  1  0  0  0  0
 24 22  1  0  0  0  0
 25 14  1  1  0  0  0
 27  2  1  0  0  0  0
 28 29  1  0  0  0  0
 30 33  1  0  0  0  0
 31 33  1  0  0  0  0
 32 29  1  6  0  0  0
 32 34  1  0  0  0  0
 32 31  1  0  0  0  0
 34 30  1  0  0  0  0
M  END
>  <MODEL>
9

>  <REMARK>
 VINA RESULT:      -8.2      3.643      8.906
  Name = 
  3 active torsions:
  status: ('A' for Active; 'I' for Inactive)
    1  A    between atoms: C_17  and  O_28
    2  A    between atoms: O_28  and  C_29
    3  A    between atoms: C_29  and  C_32
                            x       y       z     vdW  Elec       q    Type
                         _______ _______ _______ _____ _____    ______ ____

>  <TORSDO>
F 3

$$$$
