=
 OpenBabel11122410503D

 32 37  0  0  1  0  0  0  0  0999 V2000
  187.6000  178.5030  142.9260 C   0  0  1  0  0  3  0  0  0  0  0  0
  183.8930  179.8820  144.8050 O   0  0  0  0  0  0  0  0  0  0  0  0
  183.3000  179.8180  143.5320 C   0  0  0  0  0  2  0  0  0  0  0  0
  187.5070  178.6290  140.3670 C   0  0  0  0  0  0  0  0  0  0  0  0
  186.7180  178.5560  139.0840 C   0  0  1  0  0  3  0  0  0  0  0  0
  189.5220  177.3410  143.7240 C   0  0  2  0  0  3  0  0  0  0  0  0
  187.6920  178.0430  145.2570 O   0  0  0  0  0  0  0  0  0  0  0  0
  184.7530  178.1770  137.9990 C   0  0  1  0  0  3  0  0  0  0  0  0
  185.2650  179.6260  144.6280 C   0  0  0  0  0  2  0  0  0  0  0  0
  186.9440  177.7840  144.1050 C   0  0  1  0  0  3  0  0  0  0  0  0
  185.4720  178.1550  144.2440 C   0  0  2  0  0  3  0  0  0  0  0  0
  185.4320  178.4190  141.6900 C   0  0  2  0  0  3  0  0  0  0  0  0
  185.6350  177.0050  137.6080 C   0  0  0  0  0  2  0  0  0  0  0  0
  188.8740  177.2780  145.1370 C   0  0  2  0  0  3  0  0  0  0  0  0
  186.9470  177.2620  138.3210 C   0  0  0  0  0  2  0  0  0  0  0  0
  183.2850  178.3710  143.0280 C   0  0  0  0  0  2  0  0  0  0  0  0
  184.7200  177.8370  142.9310 C   0  0  2  0  0  3  0  0  0  0  0  0
  184.7700  177.9500  140.4010 C   0  0  0  0  0  2  0  0  0  0  0  0
  189.0210  178.3850  142.9000 O   0  0  0  0  0  0  0  0  0  0  0  0
  188.6380  179.0880  140.3420 O   0  0  0  0  0  0  0  0  0  0  0  0
  183.2700  177.8210  138.0160 C   0  0  0  0  0  1  0  0  0  0  0  0
  186.9200  178.0450  141.6310 C   0  0  2  0  0  3  0  0  0  0  0  0
  185.2670  178.7360  139.2540 N   0  0  1  0  0  0  0  0  0  0  0  0
  189.2650  177.6450  147.5600 C   0  0  0  0  0  2  0  0  0  0  0  0
  189.8790  177.7360  146.1780 C   0  0  1  0  0  3  0  0  0  0  0  0
  190.2190  176.5700  147.0860 C   0  0  1  0  0  3  0  0  0  0  0  0
  191.5300  176.7930  147.6720 N   0  0  0  0  0  2  0  0  0  0  0  0
  192.2590  175.5390  147.5860 C   0  0  2  0  0  3  0  0  0  0  0  0
  193.5450  175.7050  148.1030 O   0  0  0  0  0  1  0  0  0  0  0  0
  192.3480  175.1270  146.1980 N   0  0  0  0  0  1  0  0  0  0  0  0
  190.1310  176.0530  141.8020 O   0  0  0  0  0  1  0  0  0  0  0  0
  189.4310  175.9990  143.0080 C   0  0  0  0  0  2  0  0  0  0  0  0
  1 19  1  6  0  0  0
  1 10  1  0  0  0  0
  3  2  1  0  0  0  0
  5 15  1  1  0  0  0
  5 23  1  0  0  0  0
  5  4  1  0  0  0  0
  6 32  1  6  0  0  0
  6 14  1  0  0  0  0
  8 21  1  1  0  0  0
  8 23  1  0  0  0  0
  9  2  1  0  0  0  0
 10 11  1  0  0  0  0
 10  7  1  1  0  0  0
 11  9  1  6  0  0  0
 12 18  1  6  0  0  0
 12 17  1  0  0  0  0
 13  8  1  0  0  0  0
 13 15  1  0  0  0  0
 14  7  1  6  0  0  0
 14 25  1  0  0  0  0
 16  3  1  0  0  0  0
 17 16  1  1  0  0  0
 17 11  1  0  0  0  0
 19  6  1  0  0  0  0
 20  4  2  0  0  0  0
 22  4  1  6  0  0  0
 22 12  1  0  0  0  0
 22  1  1  0  0  0  0
 23 18  1  1  0  0  0
 25 26  1  0  0  0  0
 25 24  1  1  0  0  0
 26 24  1  0  0  0  0
 26 27  1  1  0  0  0
 28 30  1  6  0  0  0
 28 27  1  0  0  0  0
 28 29  1  0  0  0  0
 31 32  1  0  0  0  0
M  END
>  <MODEL>
1

>  <REMARK>
 VINA RESULT:      -7.2      0.000      0.000
  Name = 
  4 active torsions:
  status: ('A' for Active; 'I' for Inactive)
    1  A    between atoms: C_7  and  C_19
    2  A    between atoms: C_10  and  C_17
    3  A    between atoms: C_20  and  N_29
    4  A    between atoms: N_29  and  C_30
                            x       y       z     vdW  Elec       q    Type
                         _______ _______ _______ _____ _____    ______ ____

>  <TORSDO>
F 4

$$$$
=
 OpenBabel11122410503D

 32 37  0  0  1  0  0  0  0  0999 V2000
  190.6580  177.5130  140.3770 C   0  0  1  0  0  3  0  0  0  0  0  0
  187.5240  178.6570  137.5410 O   0  0  0  0  0  0  0  0  0  0  0  0
  188.3400  178.1280  136.5250 C   0  0  0  0  0  2  0  0  0  0  0  0
  192.8550  176.8910  139.2100 C   0  0  0  0  0  0  0  0  0  0  0  0
  193.5860  176.3150  138.0250 C   0  0  1  0  0  3  0  0  0  0  0  0
  190.6700  176.9980  142.7040 C   0  0  2  0  0  3  0  0  0  0  0  0
  188.6020  177.7550  141.5460 O   0  0  0  0  0  0  0  0  0  0  0  0
  193.5430  175.2880  135.9930 C   0  0  1  0  0  3  0  0  0  0  0  0
  188.2780  178.6200  138.7290 C   0  0  0  0  0  2  0  0  0  0  0  0
  189.2070  177.0480  140.5040 C   0  0  1  0  0  3  0  0  0  0  0  0
  188.4600  177.1640  139.1800 C   0  0  2  0  0  3  0  0  0  0  0  0
  190.7000  176.6840  138.0220 C   0  0  2  0  0  3  0  0  0  0  0  0
  194.0980  174.2370  136.9380 C   0  0  0  0  0  2  0  0  0  0  0  0
  189.1310  177.2190  142.7420 C   0  0  2  0  0  3  0  0  0  0  0  0
  194.1370  174.9220  138.2880 C   0  0  0  0  0  2  0  0  0  0  0  0
  188.5260  176.6210  136.7290 C   0  0  0  0  0  2  0  0  0  0  0  0
  189.1920  176.3550  138.0850 C   0  0  2  0  0  3  0  0  0  0  0  0
  191.4300  175.7560  137.0590 C   0  0  0  0  0  2  0  0  0  0  0  0
  191.3260  177.6570  141.6280 O   0  0  0  0  0  0  0  0  0  0  0  0
  193.4840  177.5250  140.0440 O   0  0  0  0  0  0  0  0  0  0  0  0
  192.7730  174.6840  134.8230 C   0  0  0  0  0  1  0  0  0  0  0  0
  191.3860  176.5900  139.3920 C   0  0  2  0  0  3  0  0  0  0  0  0
  192.7890  176.2630  136.7880 N   0  0  1  0  0  0  0  0  0  0  0  0
  187.3530  177.8620  144.3490 C   0  0  0  0  0  2  0  0  0  0  0  0
  188.7760  178.1290  143.9030 C   0  0  1  0  0  3  0  0  0  0  0  0
  188.5120  177.2840  145.1340 C   0  0  1  0  0  3  0  0  0  0  0  0
  188.7430  178.0900  146.3210 N   0  0  0  0  0  2  0  0  0  0  0  0
  189.0160  177.1740  147.4160 C   0  0  2  0  0  3  0  0  0  0  0  0
  188.8730  177.8400  148.6340 O   0  0  0  0  0  1  0  0  0  0  0  0
  190.3730  176.6730  147.2980 N   0  0  0  0  0  1  0  0  0  0  0  0
  191.7560  175.2160  143.8730 O   0  0  0  0  0  1  0  0  0  0  0  0
  191.0230  175.5160  142.7250 C   0  0  0  0  0  2  0  0  0  0  0  0
  1 10  1  0  0  0  0
  1 19  1  1  0  0  0
  2  9  1  0  0  0  0
  3 16  1  0  0  0  0
  3  2  1  0  0  0  0
  4 20  2  0  0  0  0
  5 15  1  1  0  0  0
  5  4  1  0  0  0  0
  6 32  1  6  0  0  0
  6 14  1  0  0  0  0
  8 21  1  6  0  0  0
  8 23  1  0  0  0  0
  8 13  1  0  0  0  0
 10  7  1  1  0  0  0
 11  9  1  6  0  0  0
 11 10  1  0  0  0  0
 12 18  1  6  0  0  0
 12 17  1  0  0  0  0
 12 22  1  0  0  0  0
 13 15  1  0  0  0  0
 14  7  1  6  0  0  0
 14 25  1  0  0  0  0
 17 16  1  6  0  0  0
 17 11  1  0  0  0  0
 19  6  1  0  0  0  0
 22  4  1  6  0  0  0
 22  1  1  0  0  0  0
 23 18  1  1  0  0  0
 23  5  1  0  0  0  0
 24 26  1  0  0  0  0
 25 24  1  6  0  0  0
 25 26  1  0  0  0  0
 26 27  1  1  0  0  0
 27 28  1  0  0  0  0
 28 30  1  6  0  0  0
 28 29  1  0  0  0  0
 32 31  1  0  0  0  0
M  END
>  <MODEL>
2

>  <REMARK>
 VINA RESULT:      -7.2      4.029      6.004
  Name = 
  4 active torsions:
  status: ('A' for Active; 'I' for Inactive)
    1  A    between atoms: C_7  and  C_19
    2  A    between atoms: C_10  and  C_17
    3  A    between atoms: C_20  and  N_29
    4  A    between atoms: N_29  and  C_30
                            x       y       z     vdW  Elec       q    Type
                         _______ _______ _______ _____ _____    ______ ____

>  <TORSDO>
F 4

$$$$
=
 OpenBabel11122410503D

 32 37  0  0  1  0  0  0  0  0999 V2000
  189.2690  177.5700  139.5160 C   0  0  1  0  0  3  0  0  0  0  0  0
  191.5710  178.1510  143.1950 O   0  0  0  0  0  0  0  0  0  0  0  0
  190.3640  178.5240  143.8150 C   0  0  0  0  0  2  0  0  0  0  0  0
  186.9140  178.5730  139.6650 C   0  0  0  0  0  0  0  0  0  0  0  0
  185.6990  178.9360  140.4800 C   0  0  1  0  0  3  0  0  0  0  0  0
  189.5820  176.2340  137.5670 C   0  0  2  0  0  3  0  0  0  0  0  0
  191.2930  176.3320  139.3710 O   0  0  0  0  0  0  0  0  0  0  0  0
  184.5820  178.9250  142.4640 C   0  0  1  0  0  3  0  0  0  0  0  0
  191.2930  177.9960  141.8250 C   0  0  0  0  0  2  0  0  0  0  0  0
  190.1360  176.4760  140.1400 C   0  0  1  0  0  3  0  0  0  0  0  0
  190.4190  176.7520  141.6130 C   0  0  2  0  0  3  0  0  0  0  0  0
  188.1170  177.8840  141.7090 C   0  0  2  0  0  3  0  0  0  0  0  0
  183.7950  177.9750  141.5790 C   0  0  0  0  0  2  0  0  0  0  0  0
  190.8960  175.6760  138.1840 C   0  0  2  0  0  3  0  0  0  0  0  0
  184.5300  177.9900  140.2560 C   0  0  0  0  0  2  0  0  0  0  0  0
  189.3910  177.3400  143.8270 C   0  0  0  0  0  2  0  0  0  0  0  0
  189.0910  176.8960  142.3900 C   0  0  2  0  0  3  0  0  0  0  0  0
  186.7560  177.8800  142.3940 C   0  0  0  0  0  2  0  0  0  0  0  0
  189.1800  177.4910  138.0950 O   0  0  0  0  0  0  0  0  0  0  0  0
  187.0310  179.0310  138.5390 O   0  0  0  0  0  0  0  0  0  0  0  0
  184.5000  178.5600  143.9430 C   0  0  0  0  0  1  0  0  0  0  0  0
  187.9060  177.5780  140.2190 C   0  0  2  0  0  3  0  0  0  0  0  0
  185.9450  179.0220  141.9290 N   0  0  1  0  0  0  0  0  0  0  0  0
  193.1910  176.5140  137.7480 C   0  0  0  0  0  2  0  0  0  0  0  0
  192.0140  175.7610  137.1620 C   0  0  1  0  0  3  0  0  0  0  0  0
  193.2200  175.0010  137.6800 C   0  0  1  0  0  3  0  0  0  0  0  0
  194.0380  174.5830  136.5540 N   0  0  0  0  0  2  0  0  0  0  0  0
  195.2270  173.9490  137.0970 C   0  0  2  0  0  3  0  0  0  0  0  0
  194.9580  173.4630  138.3770 O   0  0  0  0  0  1  0  0  0  0  0  0
  196.3020  174.9200  137.1670 N   0  0  0  0  0  1  0  0  0  0  0  0
  187.2590  175.7940  137.2030 O   0  0  0  0  0  1  0  0  0  0  0  0
  188.4470  175.2220  137.6600 C   0  0  0  0  0  2  0  0  0  0  0  0
  1 19  1  6  0  0  0
  1 10  1  0  0  0  0
  1 22  1  0  0  0  0
  2  3  1  0  0  0  0
  3 16  1  0  0  0  0
  4  5  1  0  0  0  0
  5 15  1  1  0  0  0
  5 23  1  0  0  0  0
  6 32  1  1  0  0  0
  6 19  1  0  0  0  0
  6 14  1  0  0  0  0
  8 21  1  1  0  0  0
  9  2  1  0  0  0  0
 10  7  1  6  0  0  0
 10 11  1  0  0  0  0
 11  9  1  6  0  0  0
 11 17  1  0  0  0  0
 12 17  1  0  0  0  0
 12 18  1  1  0  0  0
 13  8  1  0  0  0  0
 14  7  1  1  0  0  0
 15 13  1  0  0  0  0
 17 16  1  1  0  0  0
 20  4  2  0  0  0  0
 22  4  1  6  0  0  0
 22 12  1  0  0  0  0
 23 18  1  1  0  0  0
 23  8  1  0  0  0  0
 25 26  1  0  0  0  0
 25 24  1  1  0  0  0
 25 14  1  0  0  0  0
 26 27  1  6  0  0  0
 26 24  1  0  0  0  0
 27 28  1  0  0  0  0
 28 30  1  1  0  0  0
 28 29  1  0  0  0  0
 31 32  1  0  0  0  0
M  END
>  <MODEL>
3

>  <REMARK>
 VINA RESULT:      -6.6      4.149      6.634
  Name = 
  4 active torsions:
  status: ('A' for Active; 'I' for Inactive)
    1  A    between atoms: C_7  and  C_19
    2  A    between atoms: C_10  and  C_17
    3  A    between atoms: C_20  and  N_29
    4  A    between atoms: N_29  and  C_30
                            x       y       z     vdW  Elec       q    Type
                         _______ _______ _______ _____ _____    ______ ____

>  <TORSDO>
F 4

$$$$
=
 OpenBabel11122410503D

 32 37  0  0  1  0  0  0  0  0999 V2000
  190.5070  177.4050  139.5480 C   0  0  1  0  0  3  0  0  0  0  0  0
  187.8330  178.0600  136.1430 O   0  0  0  0  0  0  0  0  0  0  0  0
  188.8150  177.4540  135.3370 C   0  0  0  0  0  2  0  0  0  0  0  0
  192.8790  176.7550  138.8200 C   0  0  0  0  0  0  0  0  0  0  0  0
  193.8050  176.0790  137.8420 C   0  0  1  0  0  3  0  0  0  0  0  0
  190.1640  177.1690  141.8950 C   0  0  2  0  0  3  0  0  0  0  0  0
  188.2860  177.6850  140.3460 O   0  0  0  0  0  0  0  0  0  0  0  0
  194.1140  174.8200  135.9700 C   0  0  1  0  0  3  0  0  0  0  0  0
  188.3890  178.1980  137.4280 C   0  0  0  0  0  2  0  0  0  0  0  0
  189.0680  176.8900  139.5050 C   0  0  1  0  0  3  0  0  0  0  0  0
  188.5380  176.8150  138.0770 C   0  0  2  0  0  3  0  0  0  0  0  0
  190.9470  176.3090  137.3480 C   0  0  2  0  0  3  0  0  0  0  0  0
  194.5410  173.9150  137.1120 C   0  0  0  0  0  2  0  0  0  0  0  0
  188.6320  177.3190  141.6660 C   0  0  2  0  0  3  0  0  0  0  0  0
  194.3460  174.7550  138.3560 C   0  0  0  0  0  2  0  0  0  0  0  0
  189.0080  175.9920  135.7530 C   0  0  0  0  0  2  0  0  0  0  0  0
  189.4570  175.9190  137.2170 C   0  0  2  0  0  3  0  0  0  0  0  0
  191.8460  175.3100  136.6310 C   0  0  0  0  0  2  0  0  0  0  0  0
  190.9630  177.7260  140.8600 O   0  0  0  0  0  0  0  0  0  0  0  0
  193.3490  177.5120  139.6560 O   0  0  0  0  0  0  0  0  0  0  0  0
  193.5580  174.0470  134.7780 C   0  0  0  0  0  1  0  0  0  0  0  0
  191.4080  176.4090  138.8090 C   0  0  2  0  0  3  0  0  0  0  0  0
  193.2160  175.8460  136.5130 N   0  0  1  0  0  0  0  0  0  0  0  0
  186.5710  178.4490  142.4620 C   0  0  0  0  0  2  0  0  0  0  0  0
  188.0720  178.3420  142.6370 C   0  0  1  0  0  3  0  0  0  0  0  0
  187.1410  177.6440  143.6100 C   0  0  1  0  0  3  0  0  0  0  0  0
  187.0620  178.4240  144.8340 N   0  0  0  0  0  2  0  0  0  0  0  0
  186.7590  177.5010  145.9140 C   0  0  2  0  0  3  0  0  0  0  0  0
  185.5860  177.8980  146.5580 O   0  0  0  0  0  1  0  0  0  0  0  0
  187.8540  177.4980  146.8670 N   0  0  0  0  0  1  0  0  0  0  0  0
  191.2060  175.6080  143.3780 O   0  0  0  0  0  1  0  0  0  0  0  0
  190.5500  175.7170  142.1520 C   0  0  0  0  0  2  0  0  0  0  0  0
  1 19  1  1  0  0  0
  2  9  1  0  0  0  0
  3 16  1  0  0  0  0
  3  2  1  0  0  0  0
  4 20  2  0  0  0  0
  5 15  1  1  0  0  0
  5  4  1  0  0  0  0
  6 32  1  6  0  0  0
  8 21  1  6  0  0  0
  8 23  1  0  0  0  0
  8 13  1  0  0  0  0
 10  1  1  0  0  0  0
 10  7  1  1  0  0  0
 11  9  1  6  0  0  0
 11 10  1  0  0  0  0
 12 18  1  6  0  0  0
 12 22  1  0  0  0  0
 13 15  1  0  0  0  0
 14  7  1  6  0  0  0
 14  6  1  0  0  0  0
 14 25  1  0  0  0  0
 17 16  1  6  0  0  0
 17 12  1  0  0  0  0
 17 11  1  0  0  0  0
 19  6  1  0  0  0  0
 22  4  1  6  0  0  0
 22  1  1  0  0  0  0
 23 18  1  1  0  0  0
 23  5  1  0  0  0  0
 24 26  1  0  0  0  0
 25 24  1  6  0  0  0
 25 26  1  0  0  0  0
 26 27  1  1  0  0  0
 27 28  1  0  0  0  0
 28 29  1  1  0  0  0
 28 30  1  0  0  0  0
 32 31  1  0  0  0  0
M  END
>  <MODEL>
4

>  <REMARK>
 VINA RESULT:      -6.4      4.459      6.928
  Name = 
  4 active torsions:
  status: ('A' for Active; 'I' for Inactive)
    1  A    between atoms: C_7  and  C_19
    2  A    between atoms: C_10  and  C_17
    3  A    between atoms: C_20  and  N_29
    4  A    between atoms: N_29  and  C_30
                            x       y       z     vdW  Elec       q    Type
                         _______ _______ _______ _____ _____    ______ ____

>  <TORSDO>
F 4

$$$$
=
 OpenBabel11122410503D

 32 37  0  0  1  0  0  0  0  0999 V2000
  188.3080  178.2910  140.9420 C   0  0  1  0  0  3  0  0  0  0  0  0
  191.1960  177.7900  144.1940 O   0  0  0  0  0  0  0  0  0  0  0  0
  190.1320  178.0080  145.0870 C   0  0  0  0  0  2  0  0  0  0  0  0
  186.0810  179.2720  141.7520 C   0  0  0  0  0  0  0  0  0  0  0  0
  185.0380  179.4280  142.8280 C   0  0  1  0  0  3  0  0  0  0  0  0
  188.2160  177.5310  138.6840 C   0  0  2  0  0  3  0  0  0  0  0  0
  190.1930  177.0920  140.1300 O   0  0  0  0  0  0  0  0  0  0  0  0
  184.2510  178.9020  144.8990 C   0  0  1  0  0  3  0  0  0  0  0  0
  190.6960  178.0210  142.9000 C   0  0  0  0  0  2  0  0  0  0  0  0
  189.1850  177.0480  141.0950 C   0  0  1  0  0  3  0  0  0  0  0  0
  189.7150  176.9050  142.5180 C   0  0  2  0  0  3  0  0  0  0  0  0
  187.5410  178.0220  143.3030 C   0  0  2  0  0  3  0  0  0  0  0  0
  183.2690  178.2490  143.9420 C   0  0  0  0  0  2  0  0  0  0  0  0
  189.5690  176.7940  138.8980 C   0  0  2  0  0  3  0  0  0  0  0  0
  183.7860  178.6080  142.5640 C   0  0  0  0  0  2  0  0  0  0  0  0
  189.0920  176.8900  144.9500 C   0  0  0  0  0  2  0  0  0  0  0  0
  188.5390  176.8630  143.5200 C   0  0  2  0  0  3  0  0  0  0  0  0
  186.3080  177.8640  144.1840 C   0  0  0  0  0  2  0  0  0  0  0  0
  187.9910  178.6060  139.5880 O   0  0  0  0  0  0  0  0  0  0  0  0
  186.0510  180.0170  140.7840 O   0  0  0  0  0  0  0  0  0  0  0  0
  184.3780  178.1500  146.2200 C   0  0  0  0  0  1  0  0  0  0  0  0
  187.0770  178.1400  141.8440 C   0  0  2  0  0  3  0  0  0  0  0  0
  185.5150  179.1090  144.1840 N   0  0  1  0  0  0  0  0  0  0  0  0
  191.8600  176.4730  137.9990 C   0  0  0  0  0  2  0  0  0  0  0  0
  190.5150  177.1280  137.7590 C   0  0  1  0  0  3  0  0  0  0  0  0
  190.8800  175.8510  137.0260 C   0  0  1  0  0  3  0  0  0  0  0  0
  191.2730  176.1800  135.6660 N   0  0  0  0  0  2  0  0  0  0  0  0
  190.7330  175.1460  134.8000 C   0  0  2  0  0  3  0  0  0  0  0  0
  189.3710  175.3680  134.5940 O   0  0  0  0  0  1  0  0  0  0  0  0
  190.9200  173.8490  135.4230 N   0  0  0  0  0  1  0  0  0  0  0  0
  187.0750  175.7550  137.5600 O   0  0  0  0  0  1  0  0  0  0  0  0
  187.0410  176.5600  138.6980 C   0  0  0  0  0  2  0  0  0  0  0  0
  1 19  1  6  0  0  0
  1 10  1  0  0  0  0
  1 22  1  0  0  0  0
  2  3  1  0  0  0  0
  4  5  1  0  0  0  0
  5 15  1  6  0  0  0
  5 23  1  0  0  0  0
  6 32  1  1  0  0  0
  6 14  1  0  0  0  0
  6 19  1  0  0  0  0
  8 21  1  1  0  0  0
  9  2  1  0  0  0  0
 10  7  1  6  0  0  0
 10 11  1  0  0  0  0
 11  9  1  1  0  0  0
 11 17  1  0  0  0  0
 12 17  1  0  0  0  0
 12 18  1  1  0  0  0
 13  8  1  0  0  0  0
 14  7  1  1  0  0  0
 15 13  1  0  0  0  0
 16  3  1  0  0  0  0
 17 16  1  1  0  0  0
 20  4  2  0  0  0  0
 22  4  1  1  0  0  0
 22 12  1  0  0  0  0
 23 18  1  6  0  0  0
 23  8  1  0  0  0  0
 25 24  1  1  0  0  0
 25 14  1  0  0  0  0
 26 27  1  6  0  0  0
 26 25  1  0  0  0  0
 26 24  1  0  0  0  0
 28 29  1  1  0  0  0
 28 30  1  0  0  0  0
 28 27  1  0  0  0  0
 31 32  1  0  0  0  0
M  END
>  <MODEL>
5

>  <REMARK>
 VINA RESULT:      -6.3      3.363      7.033
  Name = 
  4 active torsions:
  status: ('A' for Active; 'I' for Inactive)
    1  A    between atoms: C_7  and  C_19
    2  A    between atoms: C_10  and  C_17
    3  A    between atoms: C_20  and  N_29
    4  A    between atoms: N_29  and  C_30
                            x       y       z     vdW  Elec       q    Type
                         _______ _______ _______ _____ _____    ______ ____

>  <TORSDO>
F 4

$$$$
=
 OpenBabel11122410503D

 32 37  0  0  1  0  0  0  0  0999 V2000
  186.1780  178.7520  140.9380 C   0  0  1  0  0  3  0  0  0  0  0  0
  182.0870  179.5910  139.6210 O   0  0  0  0  0  0  0  0  0  0  0  0
  182.4970  179.2240  138.3260 C   0  0  0  0  0  2  0  0  0  0  0  0
  187.8040  178.4860  138.9730 C   0  0  0  0  0  0  0  0  0  0  0  0
  188.0760  178.0680  137.5510 C   0  0  1  0  0  3  0  0  0  0  0  0
  187.1460  178.1380  143.0280 C   0  0  2  0  0  3  0  0  0  0  0  0
  184.7220  178.6600  142.8150 O   0  0  0  0  0  0  0  0  0  0  0  0
  187.3590  177.1390  135.6000 C   0  0  1  0  0  3  0  0  0  0  0  0
  183.2410  179.6010  140.4260 C   0  0  0  0  0  2  0  0  0  0  0  0
  184.9480  178.0900  141.5610 C   0  0  1  0  0  3  0  0  0  0  0  0
  183.7380  178.1650  140.6350 C   0  0  2  0  0  3  0  0  0  0  0  0
  185.3920  178.0450  138.6760 C   0  0  2  0  0  3  0  0  0  0  0  0
  188.3450  176.1310  136.1610 C   0  0  0  0  0  2  0  0  0  0  0  0
  185.7270  178.1470  143.6660 C   0  0  2  0  0  3  0  0  0  0  0  0
  188.8310  176.7530  137.4540 C   0  0  0  0  0  2  0  0  0  0  0  0
  182.9080  177.7470  138.3030 C   0  0  0  0  0  2  0  0  0  0  0  0
  184.0710  177.5130  139.2740 C   0  0  2  0  0  3  0  0  0  0  0  0
  185.7860  177.2690  137.4250 C   0  0  0  0  0  2  0  0  0  0  0  0
  187.2580  178.9270  141.8510 O   0  0  0  0  0  0  0  0  0  0  0  0
  188.6350  179.1610  139.5620 O   0  0  0  0  0  0  0  0  0  0  0  0
  186.2650  176.4910  134.7570 C   0  0  0  0  0  1  0  0  0  0  0  0
  186.5610  177.9820  139.6690 C   0  0  2  0  0  3  0  0  0  0  0  0
  186.8720  177.9670  136.7100 N   0  0  1  0  0  0  0  0  0  0  0  0
  184.5270  178.6280  145.7850 C   0  0  0  0  0  2  0  0  0  0  0  0
  185.7540  178.9470  144.9550 C   0  0  1  0  0  3  0  0  0  0  0  0
  185.8580  177.9930  146.1290 C   0  0  1  0  0  3  0  0  0  0  0  0
  186.4500  178.6930  147.2580 N   0  0  0  0  0  2  0  0  0  0  0  0
  187.5300  177.8610  147.7610 C   0  0  2  0  0  3  0  0  0  0  0  0
  188.3940  178.6310  148.5400 O   0  0  0  0  0  1  0  0  0  0  0  0
  188.2640  177.2950  146.6440 N   0  0  0  0  0  1  0  0  0  0  0  0
  188.8790  176.7470  142.1440 O   0  0  0  0  0  1  0  0  0  0  0  0
  187.6350  176.7180  142.7740 C   0  0  0  0  0  2  0  0  0  0  0  0
  1 10  1  0  0  0  0
  1 19  1  1  0  0  0
  2  9  1  0  0  0  0
  3  2  1  0  0  0  0
  4 20  2  0  0  0  0
  5 15  1  1  0  0  0
  5  4  1  0  0  0  0
  6 32  1  6  0  0  0
  6 14  1  0  0  0  0
  8 21  1  1  0  0  0
  8 13  1  0  0  0  0
  8 23  1  0  0  0  0
 10  7  1  1  0  0  0
 11  9  1  6  0  0  0
 11 10  1  0  0  0  0
 12 18  1  6  0  0  0
 12 17  1  0  0  0  0
 12 22  1  0  0  0  0
 13 15  1  0  0  0  0
 14  7  1  6  0  0  0
 14 25  1  0  0  0  0
 16  3  1  0  0  0  0
 17 16  1  6  0  0  0
 17 11  1  0  0  0  0
 19  6  1  0  0  0  0
 22  4  1  6  0  0  0
 22  1  1  0  0  0  0
 23 18  1  1  0  0  0
 23  5  1  0  0  0  0
 24 26  1  0  0  0  0
 25 24  1  1  0  0  0
 25 26  1  0  0  0  0
 26 27  1  1  0  0  0
 27 28  1  0  0  0  0
 28 30  1  6  0  0  0
 28 29  1  0  0  0  0
 31 32  1  0  0  0  0
M  END
>  <MODEL>
6

>  <REMARK>
 VINA RESULT:      -6.3      2.457      3.822
  Name = 
  4 active torsions:
  status: ('A' for Active; 'I' for Inactive)
    1  A    between atoms: C_7  and  C_19
    2  A    between atoms: C_10  and  C_17
    3  A    between atoms: C_20  and  N_29
    4  A    between atoms: N_29  and  C_30
                            x       y       z     vdW  Elec       q    Type
                         _______ _______ _______ _____ _____    ______ ____

>  <TORSDO>
F 4

$$$$
=
 OpenBabel11122410503D

 32 37  0  0  1  0  0  0  0  0999 V2000
  185.7040  177.9690  137.5900 C   0  0  1  0  0  3  0  0  0  0  0  0
  184.1930  175.0520  134.6950 O   0  0  0  0  0  0  0  0  0  0  0  0
  185.5080  174.5650  134.5960 C   0  0  0  0  0  2  0  0  0  0  0  0
  188.2650  178.0930  137.6100 C   0  0  0  0  0  0  0  0  0  0  0  0
  189.6050  177.4260  137.4410 C   0  0  1  0  0  3  0  0  0  0  0  0
  184.7060  179.1880  139.3790 C   0  0  2  0  0  3  0  0  0  0  0  0
  183.3580  177.7200  137.8890 O   0  0  0  0  0  0  0  0  0  0  0  0
  190.8370  175.5490  137.0570 C   0  0  1  0  0  3  0  0  0  0  0  0
  184.2450  176.2050  135.5000 C   0  0  0  0  0  2  0  0  0  0  0  0
  184.5580  177.0040  137.8980 C   0  0  1  0  0  3  0  0  0  0  0  0
  184.5570  175.8100  136.9490 C   0  0  2  0  0  3  0  0  0  0  0  0
  187.1130  176.0400  136.8650 C   0  0  2  0  0  3  0  0  0  0  0  0
  191.1100  175.8920  138.5110 C   0  0  0  0  0  2  0  0  0  0  0  0
  183.3510  178.4860  139.0760 C   0  0  2  0  0  3  0  0  0  0  0  0
  190.2990  177.1460  138.7640 C   0  0  0  0  0  2  0  0  0  0  0  0
  185.9580  173.9860  135.9420 C   0  0  0  0  0  2  0  0  0  0  0  0
  185.9150  175.0760  137.0200 C   0  0  2  0  0  3  0  0  0  0  0  0
  188.4350  175.3240  137.1090 C   0  0  0  0  0  2  0  0  0  0  0  0
  185.6060  179.2140  138.2790 O   0  0  0  0  0  0  0  0  0  0  0  0
  188.2110  179.3130  137.6560 O   0  0  0  0  0  0  0  0  0  0  0  0
  190.9310  174.0530  136.7750 C   0  0  0  0  0  1  0  0  0  0  0  0
  187.0340  177.2420  137.8170 C   0  0  2  0  0  3  0  0  0  0  0  0
  189.5640  176.1700  136.6740 N   0  0  1  0  0  0  0  0  0  0  0  0
  180.9930  178.9000  138.4210 C   0  0  0  0  0  2  0  0  0  0  0  0
  182.2470  179.5240  139.0000 C   0  0  1  0  0  3  0  0  0  0  0  0
  181.1120  179.1100  139.9160 C   0  0  1  0  0  3  0  0  0  0  0  0
  180.3570  180.2920  140.3000 N   0  0  0  0  0  2  0  0  0  0  0  0
  179.6140  179.9560  141.5030 C   0  0  2  0  0  3  0  0  0  0  0  0
  179.9930  180.8050  142.5430 O   0  0  0  0  0  1  0  0  0  0  0  0
  179.8960  178.5820  141.8760 N   0  0  0  0  0  1  0  0  0  0  0  0
  185.6140  179.5980  141.5540 O   0  0  0  0  0  1  0  0  0  0  0  0
  185.3780  178.5960  140.6120 C   0  0  0  0  0  2  0  0  0  0  0  0
  1 22  1  0  0  0  0
  1 10  1  0  0  0  0
  1 19  1  1  0  0  0
  2  9  1  0  0  0  0
  3  2  1  0  0  0  0
  3 16  1  0  0  0  0
  4 20  2  0  0  0  0
  5  4  1  0  0  0  0
  5 15  1  1  0  0  0
  6 32  1  1  0  0  0
  8 21  1  1  0  0  0
  8 13  1  0  0  0  0
 10  7  1  6  0  0  0
 11  9  1  6  0  0  0
 11 17  1  0  0  0  0
 11 10  1  0  0  0  0
 12 17  1  0  0  0  0
 12 18  1  1  0  0  0
 12 22  1  0  0  0  0
 13 15  1  0  0  0  0
 14  7  1  6  0  0  0
 14  6  1  0  0  0  0
 17 16  1  6  0  0  0
 19  6  1  0  0  0  0
 22  4  1  6  0  0  0
 23  8  1  0  0  0  0
 23 18  1  1  0  0  0
 23  5  1  0  0  0  0
 24 26  1  0  0  0  0
 25 24  1  6  0  0  0
 25 14  1  0  0  0  0
 25 26  1  0  0  0  0
 26 27  1  6  0  0  0
 27 28  1  0  0  0  0
 28 30  1  1  0  0  0
 28 29  1  0  0  0  0
 32 31  1  0  0  0  0
M  END
>  <MODEL>
7

>  <REMARK>
 VINA RESULT:      -6.3      5.348      8.690
  Name = 
  4 active torsions:
  status: ('A' for Active; 'I' for Inactive)
    1  A    between atoms: C_7  and  C_19
    2  A    between atoms: C_10  and  C_17
    3  A    between atoms: C_20  and  N_29
    4  A    between atoms: N_29  and  C_30
                            x       y       z     vdW  Elec       q    Type
                         _______ _______ _______ _____ _____    ______ ____

>  <TORSDO>
F 4

$$$$
=
 OpenBabel11122410503D

 32 37  0  0  1  0  0  0  0  0999 V2000
  187.4670  177.4050  141.8710 C   0  0  1  0  0  3  0  0  0  0  0  0
  183.2950  178.7300  141.9420 O   0  0  0  0  0  0  0  0  0  0  0  0
  183.3880  178.7380  143.3460 C   0  0  0  0  0  2  0  0  0  0  0  0
  188.2930  176.6460  144.1770 C   0  0  0  0  0  0  0  0  0  0  0  0
  188.2560  176.7600  145.6790 C   0  0  1  0  0  3  0  0  0  0  0  0
  189.2240  177.5680  140.2680 C   0  0  2  0  0  3  0  0  0  0  0  0
  186.9230  178.3720  139.7690 O   0  0  0  0  0  0  0  0  0  0  0  0
  187.4830  177.7870  147.5580 C   0  0  1  0  0  3  0  0  0  0  0  0
  184.4940  178.1760  141.4570 C   0  0  0  0  0  2  0  0  0  0  0  0
  186.9750  178.6520  141.1360 C   0  0  1  0  0  3  0  0  0  0  0  0
  185.6510  179.1540  141.7030 C   0  0  2  0  0  3  0  0  0  0  0  0
  186.4320  178.2570  143.9770 C   0  0  2  0  0  3  0  0  0  0  0  0
  188.9510  178.1700  147.4930 C   0  0  0  0  0  2  0  0  0  0  0  0
  188.2630  178.3450  139.3230 C   0  0  2  0  0  3  0  0  0  0  0  0
  189.4690  177.4780  146.2490 C   0  0  0  0  0  2  0  0  0  0  0  0
  184.4190  179.7780  143.7990 C   0  0  0  0  0  2  0  0  0  0  0  0
  185.7950  179.4400  143.2150 C   0  0  2  0  0  3  0  0  0  0  0  0
  186.7210  178.6240  145.4280 C   0  0  0  0  0  2  0  0  0  0  0  0
  188.5630  176.7560  141.2290 O   0  0  0  0  0  0  0  0  0  0  0  0
  188.8430  175.6800  143.6690 O   0  0  0  0  0  0  0  0  0  0  0  0
  186.6240  178.8490  148.2370 C   0  0  0  0  0  1  0  0  0  0  0  0
  187.7390  177.7710  143.3350 C   0  0  2  0  0  3  0  0  0  0  0  0
  187.0480  177.4140  146.2070 N   0  0  1  0  0  0  0  0  0  0  0  0
  188.8280  178.7700  136.9440 C   0  0  0  0  0  2  0  0  0  0  0  0
  188.3200  177.7400  137.9320 C   0  0  1  0  0  3  0  0  0  0  0  0
  189.7630  177.7000  137.4670 C   0  0  1  0  0  3  0  0  0  0  0  0
  189.9110  176.6550  136.4670 N   0  0  0  0  0  2  0  0  0  0  0  0
  190.9490  175.7540  136.9370 C   0  0  2  0  0  3  0  0  0  0  0  0
  190.4030  174.8300  137.8280 O   0  0  0  0  0  1  0  0  0  0  0  0
  191.9830  176.5190  137.6100 N   0  0  0  0  0  1  0  0  0  0  0  0
  191.0100  177.7890  141.8440 O   0  0  0  0  0  1  0  0  0  0  0  0
  190.2180  178.5040  140.9460 C   0  0  0  0  0  2  0  0  0  0  0  0
  1 19  1  6  0  0  0
  1 22  1  0  0  0  0
  2  3  1  0  0  0  0
  3 16  1  0  0  0  0
  4  5  1  0  0  0  0
  5 23  1  0  0  0  0
  5 15  1  6  0  0  0
  6 32  1  1  0  0  0
  6 19  1  0  0  0  0
  8 21  1  6  0  0  0
  9  2  1  0  0  0  0
 10  7  1  6  0  0  0
 10 11  1  0  0  0  0
 10  1  1  0  0  0  0
 11  9  1  1  0  0  0
 11 17  1  0  0  0  0
 12 18  1  1  0  0  0
 13  8  1  0  0  0  0
 14  7  1  1  0  0  0
 14  6  1  0  0  0  0
 15 13  1  0  0  0  0
 17 16  1  1  0  0  0
 17 12  1  0  0  0  0
 20  4  2  0  0  0  0
 22 12  1  0  0  0  0
 22  4  1  1  0  0  0
 23 18  1  6  0  0  0
 23  8  1  0  0  0  0
 24 26  1  0  0  0  0
 25 24  1  6  0  0  0
 25 14  1  0  0  0  0
 26 27  1  6  0  0  0
 26 25  1  0  0  0  0
 27 28  1  0  0  0  0
 28 30  1  1  0  0  0
 28 29  1  0  0  0  0
 32 31  1  0  0  0  0
M  END
>  <MODEL>
8

>  <REMARK>
 VINA RESULT:      -6.1      2.706      6.714
  Name = 
  4 active torsions:
  status: ('A' for Active; 'I' for Inactive)
    1  A    between atoms: C_7  and  C_19
    2  A    between atoms: C_10  and  C_17
    3  A    between atoms: C_20  and  N_29
    4  A    between atoms: N_29  and  C_30
                            x       y       z     vdW  Elec       q    Type
                         _______ _______ _______ _____ _____    ______ ____

>  <TORSDO>
F 4

$$$$
=
 OpenBabel11122410503D

 32 37  0  0  1  0  0  0  0  0999 V2000
  187.9250  176.4910  138.4200 C   0  0  1  0  0  3  0  0  0  0  0  0
  189.7150  177.4310  142.3040 O   0  0  0  0  0  0  0  0  0  0  0  0
  190.9160  176.8900  141.8090 C   0  0  0  0  0  2  0  0  0  0  0  0
  189.4000  174.9350  137.0120 C   0  0  0  0  0  0  0  0  0  0  0  0
  190.7660  174.4450  136.6070 C   0  0  1  0  0  3  0  0  0  0  0  0
  186.0840  177.3780  137.1930 C   0  0  2  0  0  3  0  0  0  0  0  0
  186.6300  178.1750  139.4860 O   0  0  0  0  0  0  0  0  0  0  0  0
  193.0340  174.6000  136.7410 C   0  0  1  0  0  3  0  0  0  0  0  0
  188.7280  177.1850  141.3320 C   0  0  0  0  0  2  0  0  0  0  0  0
  187.9180  177.8960  139.0240 C   0  0  1  0  0  3  0  0  0  0  0  0
  188.9920  178.0540  140.0950 C   0  0  2  0  0  3  0  0  0  0  0  0
  190.3980  176.3810  138.7480 C   0  0  2  0  0  3  0  0  0  0  0  0
  192.7030  175.0640  135.3330 C   0  0  0  0  0  2  0  0  0  0  0  0
  185.8420  178.4060  138.3360 C   0  0  2  0  0  3  0  0  0  0  0  0
  191.1960  174.9510  135.2400 C   0  0  0  0  0  2  0  0  0  0  0  0
  191.4240  177.7260  140.6290 C   0  0  0  0  0  2  0  0  0  0  0  0
  190.3830  177.7280  139.5030 C   0  0  2  0  0  3  0  0  0  0  0  0
  191.7240  176.1620  138.0310 C   0  0  0  0  0  2  0  0  0  0  0  0
  186.7930  176.2150  137.5980 O   0  0  0  0  0  0  0  0  0  0  0  0
  188.4170  174.2820  136.6940 O   0  0  0  0  0  0  0  0  0  0  0  0
  194.2930  175.2560  137.2990 C   0  0  0  0  0  1  0  0  0  0  0  0
  189.2680  176.2660  137.7150 C   0  0  2  0  0  3  0  0  0  0  0  0
  191.8340  174.7650  137.5690 N   0  0  1  0  0  0  0  0  0  0  0  0
  184.1820  179.1560  140.0200 C   0  0  0  0  0  2  0  0  0  0  0  0
  184.3750  178.4030  138.7200 C   0  0  1  0  0  3  0  0  0  0  0  0
  183.8540  179.8270  138.7030 C   0  0  1  0  0  3  0  0  0  0  0  0
  182.4160  179.8050  138.4930 N   0  0  0  0  0  2  0  0  0  0  0  0
  181.9850  181.1820  138.3200 C   0  0  2  0  0  3  0  0  0  0  0  0
  183.0240  182.0470  138.6650 O   0  0  0  0  0  1  0  0  0  0  0  0
  180.8400  181.4390  139.1740 N   0  0  0  0  0  1  0  0  0  0  0  0
  187.0420  177.0620  135.0240 O   0  0  0  0  0  1  0  0  0  0  0  0
  186.7560  178.0280  135.9900 C   0  0  0  0  0  2  0  0  0  0  0  0
  1 19  1  6  0  0  0
  1 10  1  0  0  0  0
  3  2  1  0  0  0  0
  5 15  1  6  0  0  0
  5  4  1  0  0  0  0
  5 23  1  0  0  0  0
  6 32  1  6  0  0  0
  6 19  1  0  0  0  0
  6 14  1  0  0  0  0
  8 21  1  1  0  0  0
  8 23  1  0  0  0  0
  9  2  1  0  0  0  0
 10  7  1  1  0  0  0
 10 11  1  0  0  0  0
 11  9  1  1  0  0  0
 12 18  1  6  0  0  0
 12 17  1  0  0  0  0
 13  8  1  0  0  0  0
 14 25  1  0  0  0  0
 14  7  1  1  0  0  0
 15 13  1  0  0  0  0
 16  3  1  0  0  0  0
 17 11  1  0  0  0  0
 17 16  1  1  0  0  0
 20  4  2  0  0  0  0
 22  4  1  1  0  0  0
 22  1  1  0  0  0  0
 22 12  1  0  0  0  0
 23 18  1  6  0  0  0
 25 24  1  1  0  0  0
 26 27  1  1  0  0  0
 26 25  1  0  0  0  0
 26 24  1  0  0  0  0
 28 27  1  0  0  0  0
 28 29  1  1  0  0  0
 28 30  1  0  0  0  0
 31 32  1  0  0  0  0
M  END
>  <MODEL>
9

>  <REMARK>
 VINA RESULT:      -5.9      4.201      8.632
  Name = 
  4 active torsions:
  status: ('A' for Active; 'I' for Inactive)
    1  A    between atoms: C_7  and  C_19
    2  A    between atoms: C_10  and  C_17
    3  A    between atoms: C_20  and  N_29
    4  A    between atoms: N_29  and  C_30
                            x       y       z     vdW  Elec       q    Type
                         _______ _______ _______ _____ _____    ______ ____

>  <TORSDO>
F 4

$$$$
