=
 OpenBabel11122411413D

 37 43  0  0  1  0  0  0  0  0999 V2000
  190.8730  176.0630  142.9390 O   0  0  0  0  0  0  0  0  0  0  0  0
  191.5800  176.5320  138.5940 C   0  0  0  0  0  0  0  0  0  0  0  0
  188.0000  178.3030  140.2450 C   0  0  1  0  0  3  0  0  0  0  0  0
  191.2310  175.7900  144.2720 C   0  0  2  0  0  3  0  0  0  0  0  0
  187.9960  178.9100  143.2030 C   0  0  0  0  0  2  0  0  0  0  0  0
  189.5310  178.0700  138.3100 C   0  0  0  0  0  0  0  0  0  0  0  0
  187.7060  177.2900  141.2580 N   0  0  2  0  0  0  0  0  0  0  0  0
  191.5460  178.3970  144.5490 C   0  0  2  0  0  3  0  0  0  0  0  0
  189.2740  177.9020  139.6170 C   0  0  0  0  0  0  0  0  0  0  0  0
  187.0710  177.9450  142.4310 C   0  0  2  0  0  3  0  0  0  0  0  0
  188.5250  178.6530  137.4610 N   0  0  0  0  0  0  0  0  0  0  0  0
  191.9580  176.9660  144.9510 C   0  0  0  0  0  2  0  0  0  0  0  0
  190.0410  177.0240  140.5140 C   0  0  2  0  0  3  0  0  0  0  0  0
  192.7360  177.3240  139.1830 C   0  0  0  0  0  1  0  0  0  0  0  0
  185.5960  178.4110  139.5410 C   0  0  0  0  0  3  0  0  0  0  0  0
  187.2970  178.8300  137.8570 C   0  0  0  0  0  3  0  0  0  0  0  0
  190.7300  175.9210  139.7150 C   0  0  0  0  0  2  0  0  0  0  0  0
  190.0670  178.7660  144.7320 C   0  0  0  0  0  2  0  0  0  0  0  0
  189.2360  178.1580  143.6190 C   0  0  1  0  0  3  0  0  0  0  0  0
  186.8970  178.4590  139.2270 C   0  0  0  0  0  0  0  0  0  0  0  0
  188.9500  176.4660  141.4310 C   0  0  1  0  0  3  0  0  0  0  0  0
  190.7510  177.4480  137.6710 C   0  0  0  0  0  2  0  0  0  0  0  0
  185.7640  178.6710  142.0530 C   0  0  1  0  0  3  0  0  0  0  0  0
  192.1540  175.4080  137.7590 C   0  0  0  0  0  1  0  0  0  0  0  0
  188.8980  176.8390  143.9110 O   0  0  0  0  0  0  0  0  0  0  0  0
  192.0000  178.7090  143.2650 O   0  0  0  0  0  1  0  0  0  0  0  0
  189.4540  176.0760  142.8670 C   0  0  2  0  0  3  0  0  0  0  0  0
  185.0380  178.0070  140.8810 C   0  0  0  0  0  2  0  0  0  0  0  0
  183.4870  178.9910  143.0300 C   0  0  0  0  0  3  0  0  0  0  0  0
  184.8530  178.7840  143.2370 C   0  0  0  0  0  0  0  0  0  0  0  0
  185.3460  178.6870  144.5440 C   0  0  0  0  0  3  0  0  0  0  0  0
  184.9250  178.7100  146.8890 F   0  0  0  0  0  0  0  0  0  0  0  0
  183.1360  179.0030  145.3920 N   0  0  0  0  0  0  0  0  0  0  0  0
  184.4620  178.8010  145.6200 C   0  0  0  0  0  0  0  0  0  0  0  0
  182.6350  179.1000  144.1310 C   0  0  0  0  0  3  0  0  0  0  0  0
  192.0640  174.5180  144.3530 C   0  0  0  0  0  2  0  0  0  0  0  0
  192.6930  174.3970  145.6590 N   0  0  0  0  0  1  0  0  0  0  0  0
  1  4  1  0  0  0  0
  2 14  1  0  0  0  0
  2 17  1  0  0  0  0
  3 20  1  6  0  0  0
  3  7  1  0  0  0  0
  4 36  1  6  0  0  0
  4 12  1  0  0  0  0
  5 19  1  0  0  0  0
  6  9  2  0  0  0  0
  7 21  1  0  0  0  0
  7 10  1  0  0  0  0
  8 18  1  0  0  0  0
  8 12  1  0  0  0  0
  9  3  1  0  0  0  0
  9 13  1  0  0  0  0
 10  5  1  0  0  0  0
 11 16  2  0  0  0  0
 11  6  1  0  0  0  0
 13 21  1  0  0  0  0
 15 28  1  0  0  0  0
 16 20  1  0  0  0  0
 17 13  1  0  0  0  0
 19 25  1  0  0  0  0
 19 18  1  0  0  0  0
 20 15  2  0  0  0  0
 21 27  1  0  0  0  0
 22  6  1  0  0  0  0
 22  2  1  0  0  0  0
 23 10  1  0  0  0  0
 23 30  1  0  0  0  0
 24  2  1  0  0  0  0
 26  8  1  0  0  0  0
 27  1  1  0  0  0  0
 27 25  1  0  0  0  0
 28 23  1  0  0  0  0
 29 30  2  0  0  0  0
 29 35  1  0  0  0  0
 30 31  1  0  0  0  0
 31 34  2  0  0  0  0
 33 34  1  0  0  0  0
 34 32  1  0  0  0  0
 35 33  2  0  0  0  0
 36 37  1  0  0  0  0
M  END
>  <MODEL>
1

>  <REMARK>
 VINA RESULT:      -6.2      0.000      0.000
  Name = 
  2 active torsions:
  status: ('A' for Active; 'I' for Inactive)
    1  A    between atoms: C_4  and  C_36
    2  A    between atoms: C_23  and  C_30
                            x       y       z     vdW  Elec       q    Type
                         _______ _______ _______ _____ _____    ______ ____

>  <TORSDO>
F 2

$$$$
=
 OpenBabel11122411413D

 37 43  0  0  1  0  0  0  0  0999 V2000
  180.5840  177.3620  136.7270 O   0  0  0  0  0  0  0  0  0  0  0  0
  179.8730  173.0240  136.2010 C   0  0  0  0  0  0  0  0  0  0  0  0
  183.9010  174.2990  137.1120 C   0  0  1  0  0  3  0  0  0  0  0  0
  180.2170  178.7020  136.9560 C   0  0  2  0  0  3  0  0  0  0  0  0
  184.2290  176.9790  138.4640 C   0  0  0  0  0  2  0  0  0  0  0  0
  182.2910  172.4310  136.8650 C   0  0  0  0  0  0  0  0  0  0  0  0
  183.9000  175.5620  136.3730 N   0  0  2  0  0  0  0  0  0  0  0  0
  180.7650  178.2470  139.4990 C   0  0  2  0  0  3  0  0  0  0  0  0
  182.5390  173.7450  136.9840 C   0  0  0  0  0  0  0  0  0  0  0  0
  184.7620  176.5420  137.0830 C   0  0  2  0  0  3  0  0  0  0  0  0
  183.3930  171.5030  136.8420 N   0  0  0  0  0  0  0  0  0  0  0  0
  179.9350  179.0020  138.4410 C   0  0  0  0  0  2  0  0  0  0  0  0
  181.5720  174.8090  136.6760 C   0  0  2  0  0  3  0  0  0  0  0  0
  179.0590  173.3220  137.4490 C   0  0  0  0  0  1  0  0  0  0  0  0
  186.1790  173.7060  136.2500 C   0  0  0  0  0  3  0  0  0  0  0  0
  184.6300  171.8940  136.7180 C   0  0  0  0  0  3  0  0  0  0  0  0
  180.5320  174.3080  135.6780 C   0  0  0  0  0  2  0  0  0  0  0  0
  182.2920  178.3920  139.4100 C   0  0  0  0  0  2  0  0  0  0  0  0
  182.8340  177.5250  138.2910 C   0  0  1  0  0  3  0  0  0  0  0  0
  184.9500  173.3300  136.6250 C   0  0  0  0  0  0  0  0  0  0  0  0
  182.4660  175.8930  136.0700 C   0  0  1  0  0  3  0  0  0  0  0  0
  180.9100  171.9270  136.5170 C   0  0  0  0  0  2  0  0  0  0  0  0
  186.2150  176.0430  137.2220 C   0  0  1  0  0  3  0  0  0  0  0  0
  178.9330  172.5000  135.1370 C   0  0  0  0  0  1  0  0  0  0  0  0
  182.7440  178.1780  137.0650 O   0  0  0  0  0  0  0  0  0  0  0  0
  180.3780  176.9070  139.5780 O   0  0  0  0  0  1  0  0  0  0  0  0
  181.9280  177.3560  136.2670 C   0  0  2  0  0  3  0  0  0  0  0  0
  186.6370  175.1290  136.0690 C   0  0  0  0  0  2  0  0  0  0  0  0
  187.1170  178.2300  136.4200 C   0  0  0  0  0  3  0  0  0  0  0  0
  187.1650  177.1930  137.3540 C   0  0  0  0  0  0  0  0  0  0  0  0
  188.1010  177.2450  138.3950 C   0  0  0  0  0  3  0  0  0  0  0  0
  189.8810  178.3980  139.4810 F   0  0  0  0  0  0  0  0  0  0  0  0
  188.9050  179.3320  137.5570 N   0  0  0  0  0  0  0  0  0  0  0  0
  188.9710  178.3340  138.4800 C   0  0  0  0  0  0  0  0  0  0  0  0
  188.0050  179.3020  136.5380 C   0  0  0  0  0  3  0  0  0  0  0  0
  179.0250  179.0850  136.0900 C   0  0  0  0  0  2  0  0  0  0  0  0
  179.4380  179.9590  135.0030 N   0  0  0  0  0  1  0  0  0  0  0  0
  1  4  1  0  0  0  0
  2 22  1  0  0  0  0
  2 14  1  0  0  0  0
  3 20  1  6  0  0  0
  4 36  1  6  0  0  0
  4 12  1  0  0  0  0
  6  9  2  0  0  0  0
  7 10  1  0  0  0  0
  7  3  1  0  0  0  0
  8 26  1  0  0  0  0
  9  3  1  0  0  0  0
 10 23  1  0  0  0  0
 10  5  1  0  0  0  0
 11  6  1  0  0  0  0
 12  8  1  0  0  0  0
 13  9  1  0  0  0  0
 15 20  2  0  0  0  0
 16 11  2  0  0  0  0
 17  2  1  0  0  0  0
 17 13  1  0  0  0  0
 18  8  1  0  0  0  0
 19  5  1  0  0  0  0
 19 18  1  0  0  0  0
 20 16  1  0  0  0  0
 21 27  1  0  0  0  0
 21  7  1  0  0  0  0
 21 13  1  0  0  0  0
 22  6  1  0  0  0  0
 23 30  1  0  0  0  0
 24  2  1  0  0  0  0
 25 19  1  0  0  0  0
 27  1  1  0  0  0  0
 27 25  1  0  0  0  0
 28 15  1  0  0  0  0
 28 23  1  0  0  0  0
 29 35  2  0  0  0  0
 29 30  1  0  0  0  0
 30 31  2  0  0  0  0
 31 34  1  0  0  0  0
 33 34  2  0  0  0  0
 34 32  1  0  0  0  0
 35 33  1  0  0  0  0
 37 36  1  0  0  0  0
M  END
>  <MODEL>
2

>  <REMARK>
 VINA RESULT:      -5.9      6.338     10.095
  Name = 
  2 active torsions:
  status: ('A' for Active; 'I' for Inactive)
    1  A    between atoms: C_4  and  C_36
    2  A    between atoms: C_23  and  C_30
                            x       y       z     vdW  Elec       q    Type
                         _______ _______ _______ _____ _____    ______ ____

>  <TORSDO>
F 2

$$$$
=
 OpenBabel11122411413D

 37 43  0  0  1  0  0  0  0  0999 V2000
  190.9000  175.9930  142.9300 O   0  0  0  0  0  0  0  0  0  0  0  0
  191.5900  176.4410  138.5800 C   0  0  0  0  0  0  0  0  0  0  0  0
  188.0370  178.2530  140.2420 C   0  0  1  0  0  3  0  0  0  0  0  0
  191.2620  175.7200  144.2630 C   0  0  2  0  0  3  0  0  0  0  0  0
  188.0540  178.8700  143.1980 C   0  0  0  0  0  2  0  0  0  0  0  0
  189.5560  177.9980  138.3010 C   0  0  0  0  0  0  0  0  0  0  0  0
  187.7370  177.2460  141.2610 N   0  0  2  0  0  0  0  0  0  0  0  0
  191.6050  178.3250  144.5290 C   0  0  2  0  0  3  0  0  0  0  0  0
  189.3030  177.8370  139.6100 C   0  0  0  0  0  0  0  0  0  0  0  0
  187.1150  177.9110  142.4340 C   0  0  2  0  0  3  0  0  0  0  0  0
  188.5510  178.5890  137.4550 N   0  0  0  0  0  0  0  0  0  0  0  0
  192.0040  176.8920  144.9340 C   0  0  0  0  0  2  0  0  0  0  0  0
  190.0660  176.9550  140.5060 C   0  0  2  0  0  3  0  0  0  0  0  0
  192.7570  177.2230  139.1600 C   0  0  0  0  0  1  0  0  0  0  0  0
  185.6300  178.3830  139.5500 C   0  0  0  0  0  3  0  0  0  0  0  0
  187.3270  178.7790  137.8570 C   0  0  0  0  0  3  0  0  0  0  0  0
  190.7390  175.8410  139.7080 C   0  0  0  0  0  2  0  0  0  0  0  0
  190.1300  178.7100  144.7180 C   0  0  0  0  0  2  0  0  0  0  0  0
  189.2880  178.1070  143.6110 C   0  0  1  0  0  3  0  0  0  0  0  0
  186.9300  178.4170  139.2290 C   0  0  0  0  0  0  0  0  0  0  0  0
  188.9740  176.4100  141.4300 C   0  0  1  0  0  3  0  0  0  0  0  0
  190.7660  177.3620  137.6580 C   0  0  0  0  0  2  0  0  0  0  0  0
  185.8130  178.6490  142.0610 C   0  0  1  0  0  3  0  0  0  0  0  0
  192.1490  175.3080  137.7460 C   0  0  0  0  0  1  0  0  0  0  0  0
  188.9380  176.7920  143.9090 O   0  0  0  0  0  0  0  0  0  0  0  0
  192.0560  178.6280  143.2420 O   0  0  0  0  0  1  0  0  0  0  0  0
  189.4810  176.0200  142.8650 C   0  0  2  0  0  3  0  0  0  0  0  0
  185.0750  177.9890  140.8940 C   0  0  0  0  0  2  0  0  0  0  0  0
  185.4660  178.8350  144.5270 C   0  0  0  0  0  3  0  0  0  0  0  0
  184.9090  178.7750  143.2480 C   0  0  0  0  0  0  0  0  0  0  0  0
  183.5170  178.8320  143.0980 C   0  0  0  0  0  3  0  0  0  0  0  0
  181.3640  179.0030  144.1030 F   0  0  0  0  0  0  0  0  0  0  0  0
  183.2770  179.0030  145.4680 N   0  0  0  0  0  0  0  0  0  0  0  0
  182.7110  178.9470  144.2330 C   0  0  0  0  0  0  0  0  0  0  0  0
  184.6260  178.9490  145.6370 C   0  0  0  0  0  3  0  0  0  0  0  0
  192.0820  174.4410  144.3430 C   0  0  0  0  0  2  0  0  0  0  0  0
  192.8040  174.3710  145.6040 N   0  0  0  0  0  1  0  0  0  0  0  0
  1  4  1  0  0  0  0
  2 14  1  0  0  0  0
  2 17  1  0  0  0  0
  3 20  1  6  0  0  0
  3  7  1  0  0  0  0
  4 36  1  6  0  0  0
  4 12  1  0  0  0  0
  5 19  1  0  0  0  0
  6  9  2  0  0  0  0
  7 21  1  0  0  0  0
  7 10  1  0  0  0  0
  8 18  1  0  0  0  0
  8 12  1  0  0  0  0
  9  3  1  0  0  0  0
  9 13  1  0  0  0  0
 10  5  1  0  0  0  0
 11 16  2  0  0  0  0
 11  6  1  0  0  0  0
 13 21  1  0  0  0  0
 15 28  1  0  0  0  0
 16 20  1  0  0  0  0
 17 13  1  0  0  0  0
 19 25  1  0  0  0  0
 19 18  1  0  0  0  0
 20 15  2  0  0  0  0
 21 27  1  0  0  0  0
 22  6  1  0  0  0  0
 22  2  1  0  0  0  0
 23 10  1  0  0  0  0
 23 30  1  0  0  0  0
 24  2  1  0  0  0  0
 26  8  1  0  0  0  0
 27  1  1  0  0  0  0
 27 25  1  0  0  0  0
 28 23  1  0  0  0  0
 29 35  1  0  0  0  0
 30 29  2  0  0  0  0
 31 30  1  0  0  0  0
 31 34  2  0  0  0  0
 32 34  1  0  0  0  0
 33 35  2  0  0  0  0
 34 33  1  0  0  0  0
 36 37  1  0  0  0  0
M  END
>  <MODEL>
3

>  <REMARK>
 VINA RESULT:      -5.9      0.752      1.086
  Name = 
  2 active torsions:
  status: ('A' for Active; 'I' for Inactive)
    1  A    between atoms: C_4  and  C_36
    2  A    between atoms: C_23  and  C_30
                            x       y       z     vdW  Elec       q    Type
                         _______ _______ _______ _____ _____    ______ ____

>  <TORSDO>
F 2

$$$$
=
 OpenBabel11122411413D

 37 43  0  0  1  0  0  0  0  0999 V2000
  189.1650  177.1780  137.0460 O   0  0  0  0  0  0  0  0  0  0  0  0
  186.6860  173.7530  135.7320 C   0  0  0  0  0  0  0  0  0  0  0  0
  190.9540  173.1420  136.0290 C   0  0  1  0  0  3  0  0  0  0  0  0
  189.4060  178.4330  137.6380 C   0  0  2  0  0  3  0  0  0  0  0  0
  192.4940  175.0030  137.8410 C   0  0  0  0  0  2  0  0  0  0  0  0
  188.7040  172.1500  135.7200 C   0  0  0  0  0  0  0  0  0  0  0  0
  191.3930  174.4720  135.6060 N   0  0  2  0  0  0  0  0  0  0  0  0
  189.9860  177.0960  139.8410 C   0  0  2  0  0  3  0  0  0  0  0  0
  189.4800  173.1880  136.0730 C   0  0  0  0  0  0  0  0  0  0  0  0
  192.6510  174.8190  136.3160 C   0  0  2  0  0  3  0  0  0  0  0  0
  189.3200  170.9320  135.2590 N   0  0  0  0  0  0  0  0  0  0  0  0
  189.4310  178.3740  139.1780 C   0  0  0  0  0  2  0  0  0  0  0  0
  189.0080  174.5730  136.2210 C   0  0  2  0  0  3  0  0  0  0  0  0
  186.2040  173.9560  137.1580 C   0  0  0  0  0  1  0  0  0  0  0  0
  192.6840  172.0300  134.5940 C   0  0  0  0  0  3  0  0  0  0  0  0
  190.5870  170.8610  134.9650 C   0  0  0  0  0  3  0  0  0  0  0  0
  187.7540  174.7980  135.3800 C   0  0  0  0  0  2  0  0  0  0  0  0
  191.4190  176.6910  139.4660 C   0  0  0  0  0  2  0  0  0  0  0  0
  191.4360  176.0480  138.0930 C   0  0  1  0  0  3  0  0  0  0  0  0
  191.4560  172.0400  135.1270 C   0  0  0  0  0  0  0  0  0  0  0  0
  190.1980  175.3780  135.6950 C   0  0  1  0  0  3  0  0  0  0  0  0
  187.2100  172.3120  135.5700 C   0  0  0  0  0  2  0  0  0  0  0  0
  193.7780  173.8050  136.0300 C   0  0  1  0  0  3  0  0  0  0  0  0
  185.5070  173.9400  134.8020 C   0  0  0  0  0  1  0  0  0  0  0  0
  191.4920  177.0120  137.0900 O   0  0  0  0  0  0  0  0  0  0  0  0
  189.0940  176.0300  139.7010 O   0  0  0  0  0  1  0  0  0  0  0  0
  190.3310  176.8130  136.3210 C   0  0  2  0  0  3  0  0  0  0  0  0
  193.6630  173.1740  134.6400 C   0  0  0  0  0  2  0  0  0  0  0  0
  195.5450  175.4150  135.3070 C   0  0  0  0  0  3  0  0  0  0  0  0
  195.1240  174.4350  136.2090 C   0  0  0  0  0  0  0  0  0  0  0  0
  195.9670  174.0590  137.2630 C   0  0  0  0  0  3  0  0  0  0  0  0
  198.0420  174.3160  138.4060 F   0  0  0  0  0  0  0  0  0  0  0  0
  197.6040  175.6220  136.5000 N   0  0  0  0  0  0  0  0  0  0  0  0
  197.2160  174.6700  137.3920 C   0  0  0  0  0  0  0  0  0  0  0  0
  196.8020  176.0030  135.4700 C   0  0  0  0  0  3  0  0  0  0  0  0
  188.3910  179.4580  137.1510 C   0  0  0  0  0  2  0  0  0  0  0  0
  187.0420  178.9170  137.2160 N   0  0  0  0  0  1  0  0  0  0  0  0
  1  4  1  0  0  0  0
  2 14  1  0  0  0  0
  3 20  1  6  0  0  0
  3  9  1  0  0  0  0
  4 36  1  1  0  0  0
  4 12  1  0  0  0  0
  5 19  1  0  0  0  0
  6  9  2  0  0  0  0
  7 21  1  0  0  0  0
  7  3  1  0  0  0  0
  7 10  1  0  0  0  0
  9 13  1  0  0  0  0
 10  5  1  0  0  0  0
 11  6  1  0  0  0  0
 12  8  1  0  0  0  0
 15 28  1  0  0  0  0
 15 20  2  0  0  0  0
 16 20  1  0  0  0  0
 16 11  2  0  0  0  0
 17  2  1  0  0  0  0
 17 13  1  0  0  0  0
 18  8  1  0  0  0  0
 19 18  1  0  0  0  0
 21 13  1  0  0  0  0
 21 27  1  0  0  0  0
 22  6  1  0  0  0  0
 22  2  1  0  0  0  0
 23 30  1  0  0  0  0
 23 10  1  0  0  0  0
 24  2  1  0  0  0  0
 25 19  1  0  0  0  0
 26  8  1  0  0  0  0
 27  1  1  0  0  0  0
 27 25  1  0  0  0  0
 28 23  1  0  0  0  0
 29 35  2  0  0  0  0
 29 30  1  0  0  0  0
 30 31  2  0  0  0  0
 31 34  1  0  0  0  0
 33 34  2  0  0  0  0
 34 32  1  0  0  0  0
 35 33  1  0  0  0  0
 36 37  1  0  0  0  0
M  END
>  <MODEL>
4

>  <REMARK>
 VINA RESULT:      -5.8      5.403      9.677
  Name = 
  2 active torsions:
  status: ('A' for Active; 'I' for Inactive)
    1  A    between atoms: C_4  and  C_36
    2  A    between atoms: C_23  and  C_30
                            x       y       z     vdW  Elec       q    Type
                         _______ _______ _______ _____ _____    ______ ____

>  <TORSDO>
F 2

$$$$
=
 OpenBabel11122411413D

 37 43  0  0  1  0  0  0  0  0999 V2000
  188.9350  176.7410  137.3900 O   0  0  0  0  0  0  0  0  0  0  0  0
  192.5180  174.3340  136.4040 C   0  0  0  0  0  0  0  0  0  0  0  0
  188.6610  172.7390  135.2850 C   0  0  1  0  0  3  0  0  0  0  0  0
  188.2360  177.9100  137.7460 C   0  0  2  0  0  3  0  0  0  0  0  0
  186.3880  174.7040  134.9800 C   0  0  0  0  0  2  0  0  0  0  0  0
  191.1290  172.5810  135.1250 C   0  0  0  0  0  0  0  0  0  0  0  0
  187.8850  173.2310  136.4230 N   0  0  2  0  0  0  0  0  0  0  0  0
  187.8220  178.2520  135.1600 C   0  0  2  0  0  3  0  0  0  0  0  0
  190.0260  173.2720  135.4540 C   0  0  0  0  0  0  0  0  0  0  0  0
  186.5000  173.5290  135.9750 C   0  0  2  0  0  3  0  0  0  0  0  0
  190.9950  171.2480  134.5950 N   0  0  0  0  0  0  0  0  0  0  0  0
  188.0280  178.8690  136.5580 C   0  0  0  0  0  2  0  0  0  0  0  0
  190.0140  174.4690  136.3090 C   0  0  2  0  0  3  0  0  0  0  0  0
  192.7200  175.5620  135.5320 C   0  0  0  0  0  1  0  0  0  0  0  0
  187.5750  170.4820  135.4200 C   0  0  0  0  0  3  0  0  0  0  0  0
  189.8660  170.6000  134.6190 C   0  0  0  0  0  3  0  0  0  0  0  0
  191.2310  174.4760  137.2290 C   0  0  0  0  0  2  0  0  0  0  0  0
  186.6530  177.2680  135.0060 C   0  0  0  0  0  2  0  0  0  0  0  0
  187.0200  175.9240  135.6030 C   0  0  1  0  0  3  0  0  0  0  0  0
  188.6560  171.2340  135.1730 C   0  0  0  0  0  0  0  0  0  0  0  0
  188.7100  174.2930  137.0920 C   0  0  1  0  0  3  0  0  0  0  0  0
  192.5020  173.0730  135.5160 C   0  0  0  0  0  2  0  0  0  0  0  0
  185.7980  172.2860  135.3910 C   0  0  1  0  0  3  0  0  0  0  0  0
  193.6900  174.2320  137.3570 C   0  0  0  0  0  1  0  0  0  0  0  0
  186.7950  175.9080  136.9770 O   0  0  0  0  0  0  0  0  0  0  0  0
  189.0150  177.7170  134.6670 O   0  0  0  0  0  1  0  0  0  0  0  0
  188.0500  175.6420  137.5540 C   0  0  2  0  0  3  0  0  0  0  0  0
  186.2880  170.9810  136.0240 C   0  0  0  0  0  2  0  0  0  0  0  0
  183.4940  171.6620  134.6570 C   0  0  0  0  0  3  0  0  0  0  0  0
  184.3110  172.4020  135.5150 C   0  0  0  0  0  0  0  0  0  0  0  0
  183.7250  173.2390  136.4740 C   0  0  0  0  0  3  0  0  0  0  0  0
  181.7540  174.1260  137.4750 F   0  0  0  0  0  0  0  0  0  0  0  0
  181.5590  172.5900  135.7060 N   0  0  0  0  0  0  0  0  0  0  0  0
  182.3330  173.3210  136.5530 C   0  0  0  0  0  0  0  0  0  0  0  0
  182.1060  171.7710  134.7680 C   0  0  0  0  0  3  0  0  0  0  0  0
  188.9300  178.6190  138.9000 C   0  0  0  0  0  2  0  0  0  0  0  0
  188.0900  178.6120  140.0880 N   0  0  0  0  0  1  0  0  0  0  0  0
  1 27  1  0  0  0  0
  1  4  1  0  0  0  0
  2 17  1  0  0  0  0
  2 24  1  0  0  0  0
  3 20  1  1  0  0  0
  3  9  1  0  0  0  0
  3  7  1  0  0  0  0
  4 36  1  1  0  0  0
  5 19  1  0  0  0  0
  5 10  1  0  0  0  0
  6  9  2  0  0  0  0
  6 22  1  0  0  0  0
  7 21  1  0  0  0  0
  8 12  1  0  0  0  0
  9 13  1  0  0  0  0
 10  7  1  0  0  0  0
 11 16  2  0  0  0  0
 11  6  1  0  0  0  0
 12  4  1  0  0  0  0
 13 21  1  0  0  0  0
 13 17  1  0  0  0  0
 14  2  1  0  0  0  0
 15 28  1  0  0  0  0
 16 20  1  0  0  0  0
 18  8  1  0  0  0  0
 18 19  1  0  0  0  0
 19 25  1  0  0  0  0
 20 15  2  0  0  0  0
 21 27  1  0  0  0  0
 22  2  1  0  0  0  0
 23 30  1  0  0  0  0
 23 10  1  0  0  0  0
 23 28  1  0  0  0  0
 25 27  1  0  0  0  0
 26  8  1  0  0  0  0
 29 35  2  0  0  0  0
 29 30  1  0  0  0  0
 30 31  2  0  0  0  0
 31 34  1  0  0  0  0
 33 34  2  0  0  0  0
 34 32  1  0  0  0  0
 35 33  1  0  0  0  0
 36 37  1  0  0  0  0
M  END
>  <MODEL>
5

>  <REMARK>
 VINA RESULT:      -5.7      5.707      8.232
  Name = 
  2 active torsions:
  status: ('A' for Active; 'I' for Inactive)
    1  A    between atoms: C_4  and  C_36
    2  A    between atoms: C_23  and  C_30
                            x       y       z     vdW  Elec       q    Type
                         _______ _______ _______ _____ _____    ______ ____

>  <TORSDO>
F 2

$$$$
=
 OpenBabel11122411413D

 37 43  0  0  1  0  0  0  0  0999 V2000
  186.9210  178.5830  138.6340 O   0  0  0  0  0  0  0  0  0  0  0  0
  189.8290  177.5640  141.8130 C   0  0  0  0  0  0  0  0  0  0  0  0
  185.6550  177.7920  142.9110 C   0  0  1  0  0  3  0  0  0  0  0  0
  186.4770  178.7390  137.3070 C   0  0  2  0  0  3  0  0  0  0  0  0
  183.6240  177.4450  140.7030 C   0  0  0  0  0  2  0  0  0  0  0  0
  187.9650  177.1550  143.5460 C   0  0  0  0  0  0  0  0  0  0  0  0
  185.2580  178.8860  142.0250 N   0  0  2  0  0  0  0  0  0  0  0  0
  185.4590  176.3130  137.5370 C   0  0  2  0  0  3  0  0  0  0  0  0
  187.0710  177.5070  142.6080 C   0  0  0  0  0  0  0  0  0  0  0  0
  183.8490  178.6810  141.6000 C   0  0  2  0  0  3  0  0  0  0  0  0
  187.5470  177.0620  144.9210 N   0  0  0  0  0  0  0  0  0  0  0  0
  186.0860  177.4040  136.6450 C   0  0  0  0  0  2  0  0  0  0  0  0
  187.4160  177.9750  141.2570 C   0  0  2  0  0  3  0  0  0  0  0  0
  189.9430  176.3610  140.8920 C   0  0  0  0  0  1  0  0  0  0  0  0
  184.3850  178.7830  144.8330 C   0  0  0  0  0  3  0  0  0  0  0  0
  186.3930  177.5080  145.3290 C   0  0  0  0  0  3  0  0  0  0  0  0
  188.8210  178.5730  141.2460 C   0  0  0  0  0  2  0  0  0  0  0  0
  184.1830  176.6950  138.3010 C   0  0  0  0  0  2  0  0  0  0  0  0
  184.5320  177.5500  139.5030 C   0  0  1  0  0  3  0  0  0  0  0  0
  185.4470  178.1090  144.3720 C   0  0  0  0  0  0  0  0  0  0  0  0
  186.3450  179.0370  140.9990 C   0  0  1  0  0  3  0  0  0  0  0  0
  189.4400  177.0890  143.2280 C   0  0  0  0  0  2  0  0  0  0  0  0
  182.8820  178.6330  142.8010 C   0  0  1  0  0  3  0  0  0  0  0  0
  191.1850  178.2320  141.8900 C   0  0  0  0  0  1  0  0  0  0  0  0
  184.6650  178.8890  139.1420 O   0  0  0  0  0  0  0  0  0  0  0  0
  186.4160  175.7440  138.3820 O   0  0  0  0  0  1  0  0  0  0  0  0
  185.9860  179.2340  139.4820 C   0  0  2  0  0  3  0  0  0  0  0  0
  183.3620  179.4850  143.9790 C   0  0  0  0  0  2  0  0  0  0  0  0
  180.4810  179.0490  143.3480 C   0  0  0  0  0  3  0  0  0  0  0  0
  181.4990  179.0360  142.3920 C   0  0  0  0  0  0  0  0  0  0  0  0
  181.2100  179.3990  141.0700 C   0  0  0  0  0  3  0  0  0  0  0  0
  179.6120  180.1180  139.4560 F   0  0  0  0  0  0  0  0  0  0  0  0
  178.9310  179.7700  141.6790 N   0  0  0  0  0  0  0  0  0  0  0  0
  179.9060  179.7660  140.7300 C   0  0  0  0  0  0  0  0  0  0  0  0
  179.1890  179.4210  142.9680 C   0  0  0  0  0  3  0  0  0  0  0  0
  187.5200  179.4720  136.4760 C   0  0  0  0  0  2  0  0  0  0  0  0
  188.7660  179.6050  137.2140 N   0  0  0  0  0  1  0  0  0  0  0  0
  1 27  1  0  0  0  0
  2 24  1  0  0  0  0
  2 22  1  0  0  0  0
  3  9  1  1  0  0  0
  3 20  1  0  0  0  0
  4 36  1  6  0  0  0
  4  1  1  0  0  0  0
  5 10  1  0  0  0  0
  6 11  1  0  0  0  0
  7  3  1  0  0  0  0
  8 18  1  0  0  0  0
  8 26  1  0  0  0  0
  9  6  2  0  0  0  0
 10  7  1  0  0  0  0
 10 23  1  0  0  0  0
 11 16  2  0  0  0  0
 12  4  1  0  0  0  0
 12  8  1  0  0  0  0
 13  9  1  0  0  0  0
 14  2  1  0  0  0  0
 17 13  1  0  0  0  0
 17  2  1  0  0  0  0
 18 19  1  0  0  0  0
 19  5  1  0  0  0  0
 20 15  2  0  0  0  0
 20 16  1  0  0  0  0
 21 13  1  0  0  0  0
 21  7  1  0  0  0  0
 22  6  1  0  0  0  0
 23 28  1  0  0  0  0
 25 27  1  0  0  0  0
 25 19  1  0  0  0  0
 27 21  1  0  0  0  0
 28 15  1  0  0  0  0
 30 23  1  0  0  0  0
 30 29  2  0  0  0  0
 31 30  1  0  0  0  0
 32 34  1  0  0  0  0
 33 35  2  0  0  0  0
 34 31  2  0  0  0  0
 34 33  1  0  0  0  0
 35 29  1  0  0  0  0
 36 37  1  0  0  0  0
M  END
>  <MODEL>
6

>  <REMARK>
 VINA RESULT:      -5.6      3.257      6.259
  Name = 
  2 active torsions:
  status: ('A' for Active; 'I' for Inactive)
    1  A    between atoms: C_4  and  C_36
    2  A    between atoms: C_23  and  C_30
                            x       y       z     vdW  Elec       q    Type
                         _______ _______ _______ _____ _____    ______ ____

>  <TORSDO>
F 2

$$$$
=
 OpenBabel11122411413D

 37 43  0  0  1  0  0  0  0  0999 V2000
  183.5770  176.1250  137.1290 O   0  0  0  0  0  0  0  0  0  0  0  0
  180.0140  178.2480  135.5800 C   0  0  0  0  0  0  0  0  0  0  0  0
  181.4940  179.3930  139.4760 C   0  0  1  0  0  3  0  0  0  0  0  0
  184.7320  175.3260  137.0370 C   0  0  2  0  0  3  0  0  0  0  0  0
  184.3840  178.7730  140.0930 C   0  0  0  0  0  2  0  0  0  0  0  0
  179.9700  179.8720  137.5800 C   0  0  0  0  0  0  0  0  0  0  0  0
  181.9380  178.0770  139.9330 N   0  0  2  0  0  0  0  0  0  0  0  0
  186.0840  177.5890  136.8710 C   0  0  2  0  0  3  0  0  0  0  0  0
  181.0220  179.2110  138.0890 C   0  0  0  0  0  0  0  0  0  0  0  0
  183.1250  178.2420  140.8120 C   0  0  2  0  0  3  0  0  0  0  0  0
  179.2450  180.7950  138.4150 N   0  0  0  0  0  0  0  0  0  0  0  0
  185.9540  176.0970  136.5000 C   0  0  0  0  0  2  0  0  0  0  0  0
  181.6260  178.0120  137.4890 C   0  0  2  0  0  3  0  0  0  0  0  0
  181.0850  178.6810  134.5940 C   0  0  0  0  0  1  0  0  0  0  0  0
  180.4330  179.8930  141.6920 C   0  0  0  0  0  3  0  0  0  0  0  0
  179.4280  180.8610  139.7030 C   0  0  0  0  0  3  0  0  0  0  0  0
  180.6060  177.2840  136.6180 C   0  0  0  0  0  2  0  0  0  0  0  0
  186.1040  177.9290  138.3690 C   0  0  0  0  0  2  0  0  0  0  0  0
  184.7010  177.8560  138.9380 C   0  0  1  0  0  3  0  0  0  0  0  0
  180.4270  179.9970  140.3570 C   0  0  0  0  0  0  0  0  0  0  0  0
  182.0090  177.1910  138.7230 C   0  0  1  0  0  3  0  0  0  0  0  0
  179.3900  179.4960  136.2370 C   0  0  0  0  0  2  0  0  0  0  0  0
  182.8190  179.1230  142.0410 C   0  0  1  0  0  3  0  0  0  0  0  0
  178.9310  177.5210  134.8130 C   0  0  0  0  0  1  0  0  0  0  0  0
  184.3680  176.5490  139.2830 O   0  0  0  0  0  0  0  0  0  0  0  0
  185.1490  178.3620  136.1790 O   0  0  0  0  0  1  0  0  0  0  0  0
  183.2390  176.2370  138.5040 C   0  0  2  0  0  3  0  0  0  0  0  0
  181.3610  179.0180  142.4930 C   0  0  0  0  0  2  0  0  0  0  0  0
  183.3350  179.0620  144.4840 C   0  0  0  0  0  3  0  0  0  0  0  0
  183.7440  178.8020  143.1740 C   0  0  0  0  0  0  0  0  0  0  0  0
  185.0100  178.2480  142.9430 C   0  0  0  0  0  3  0  0  0  0  0  0
  187.0690  177.4310  143.8200 F   0  0  0  0  0  0  0  0  0  0  0  0
  185.4210  178.2290  145.2960 N   0  0  0  0  0  0  0  0  0  0  0  0
  185.8420  177.9660  144.0280 C   0  0  0  0  0  0  0  0  0  0  0  0
  184.1970  178.7670  145.5430 C   0  0  0  0  0  3  0  0  0  0  0  0
  184.4610  174.0870  136.1950 C   0  0  0  0  0  2  0  0  0  0  0  0
  184.4580  172.8920  137.0240 N   0  0  0  0  0  1  0  0  0  0  0  0
  1 27  1  0  0  0  0
  2 22  1  0  0  0  0
  2 17  1  0  0  0  0
  3  9  1  6  0  0  0
  3  7  1  0  0  0  0
  3 20  1  0  0  0  0
  4 36  1  6  0  0  0
  4  1  1  0  0  0  0
  5 10  1  0  0  0  0
  6  9  2  0  0  0  0
  6 11  1  0  0  0  0
  7 10  1  0  0  0  0
  8 18  1  0  0  0  0
 10 23  1  0  0  0  0
 11 16  2  0  0  0  0
 12  8  1  0  0  0  0
 12  4  1  0  0  0  0
 13  9  1  0  0  0  0
 13 21  1  0  0  0  0
 14  2  1  0  0  0  0
 15 28  1  0  0  0  0
 16 20  1  0  0  0  0
 17 13  1  0  0  0  0
 18 19  1  0  0  0  0
 19 25  1  0  0  0  0
 19  5  1  0  0  0  0
 20 15  2  0  0  0  0
 21  7  1  0  0  0  0
 22  6  1  0  0  0  0
 23 28  1  0  0  0  0
 23 30  1  0  0  0  0
 24  2  1  0  0  0  0
 26  8  1  0  0  0  0
 27 21  1  0  0  0  0
 27 25  1  0  0  0  0
 29 35  1  0  0  0  0
 30 29  2  0  0  0  0
 31 30  1  0  0  0  0
 31 34  2  0  0  0  0
 32 34  1  0  0  0  0
 33 35  2  0  0  0  0
 34 33  1  0  0  0  0
 36 37  1  0  0  0  0
M  END
>  <MODEL>
7

>  <REMARK>
 VINA RESULT:      -5.6      4.846      8.080
  Name = 
  2 active torsions:
  status: ('A' for Active; 'I' for Inactive)
    1  A    between atoms: C_4  and  C_36
    2  A    between atoms: C_23  and  C_30
                            x       y       z     vdW  Elec       q    Type
                         _______ _______ _______ _____ _____    ______ ____

>  <TORSDO>
F 2

$$$$
=
 OpenBabel11122411413D

 37 43  0  0  1  0  0  0  0  0999 V2000
  184.2740  175.7070  136.0080 O   0  0  0  0  0  0  0  0  0  0  0  0
  180.1770  177.3770  135.8600 C   0  0  0  0  0  0  0  0  0  0  0  0
  182.7520  178.6660  139.0820 C   0  0  1  0  0  3  0  0  0  0  0  0
  185.4140  175.0610  135.4910 C   0  0  2  0  0  3  0  0  0  0  0  0
  185.7300  178.4100  138.6580 C   0  0  0  0  0  2  0  0  0  0  0  0
  180.6290  178.9650  137.8380 C   0  0  0  0  0  0  0  0  0  0  0  0
  183.4750  177.4120  139.2960 N   0  0  2  0  0  0  0  0  0  0  0  0
  186.3560  177.4780  134.9950 C   0  0  2  0  0  3  0  0  0  0  0  0
  181.8610  178.4380  137.9280 C   0  0  0  0  0  0  0  0  0  0  0  0
  184.8620  177.7190  139.7310 C   0  0  2  0  0  3  0  0  0  0  0  0
  180.1290  179.7820  138.9140 N   0  0  0  0  0  0  0  0  0  0  0  0
  186.2810  175.9850  134.6150 C   0  0  0  0  0  2  0  0  0  0  0  0
  182.3580  177.3300  137.0990 C   0  0  2  0  0  3  0  0  0  0  0  0
  180.7900  177.9500  134.5940 C   0  0  0  0  0  1  0  0  0  0  0  0
  182.4580  179.0090  141.5490 C   0  0  0  0  0  3  0  0  0  0  0  0
  180.7320  179.8590  140.0670 C   0  0  0  0  0  3  0  0  0  0  0  0
  181.1940  176.4860  136.5870 C   0  0  0  0  0  2  0  0  0  0  0  0
  186.8450  177.8050  136.4140 C   0  0  0  0  0  2  0  0  0  0  0  0
  185.7390  177.5510  137.4180 C   0  0  1  0  0  3  0  0  0  0  0  0
  181.9870  179.1220  140.3010 C   0  0  0  0  0  0  0  0  0  0  0  0
  183.2310  176.5530  138.0880 C   0  0  1  0  0  3  0  0  0  0  0  0
  179.6740  178.5300  136.7520 C   0  0  0  0  0  2  0  0  0  0  0  0
  184.8930  178.5430  141.0340 C   0  0  1  0  0  3  0  0  0  0  0  0
  178.9890  176.5250  135.4670 C   0  0  0  0  0  1  0  0  0  0  0  0
  185.6970  176.2090  137.7880 O   0  0  0  0  0  0  0  0  0  0  0  0
  185.1580  178.1330  134.6990 O   0  0  0  0  0  1  0  0  0  0  0  0
  184.4140  175.7640  137.4200 C   0  0  2  0  0  3  0  0  0  0  0  0
  183.6990  178.2510  141.9450 C   0  0  0  0  0  2  0  0  0  0  0  0
  187.3850  178.6630  141.1500 C   0  0  0  0  0  3  0  0  0  0  0  0
  186.1790  178.3310  141.7710 C   0  0  0  0  0  0  0  0  0  0  0  0
  186.1930  177.8060  143.0700 C   0  0  0  0  0  3  0  0  0  0  0  0
  187.4440  177.1130  144.9760 F   0  0  0  0  0  0  0  0  0  0  0  0
  188.5770  177.9520  143.0940 N   0  0  0  0  0  0  0  0  0  0  0  0
  187.4150  177.6210  143.7200 C   0  0  0  0  0  0  0  0  0  0  0  0
  188.5870  178.4640  141.8340 C   0  0  0  0  0  3  0  0  0  0  0  0
  185.0170  173.8060  134.7280 C   0  0  0  0  0  2  0  0  0  0  0  0
  184.1100  172.9880  135.5180 N   0  0  0  0  0  1  0  0  0  0  0  0
  1 27  1  0  0  0  0
  2 17  1  0  0  0  0
  2 22  1  0  0  0  0
  3  9  1  6  0  0  0
  3  7  1  0  0  0  0
  3 20  1  0  0  0  0
  4 36  1  6  0  0  0
  4  1  1  0  0  0  0
  5 10  1  0  0  0  0
  6  9  2  0  0  0  0
  6 11  1  0  0  0  0
  7 10  1  0  0  0  0
  8 18  1  0  0  0  0
 10 23  1  0  0  0  0
 11 16  2  0  0  0  0
 12  8  1  0  0  0  0
 12  4  1  0  0  0  0
 13  9  1  0  0  0  0
 13 21  1  0  0  0  0
 14  2  1  0  0  0  0
 15 28  1  0  0  0  0
 16 20  1  0  0  0  0
 17 13  1  0  0  0  0
 18 19  1  0  0  0  0
 19 25  1  0  0  0  0
 19  5  1  0  0  0  0
 20 15  2  0  0  0  0
 21  7  1  0  0  0  0
 22  6  1  0  0  0  0
 23 30  1  0  0  0  0
 23 28  1  0  0  0  0
 24  2  1  0  0  0  0
 26  8  1  0  0  0  0
 27 25  1  0  0  0  0
 27 21  1  0  0  0  0
 29 30  2  0  0  0  0
 29 35  1  0  0  0  0
 30 31  1  0  0  0  0
 31 34  2  0  0  0  0
 33 34  1  0  0  0  0
 34 32  1  0  0  0  0
 35 33  2  0  0  0  0
 36 37  1  0  0  0  0
M  END
>  <MODEL>
8

>  <REMARK>
 VINA RESULT:      -5.5      4.785      8.198
  Name = 
  2 active torsions:
  status: ('A' for Active; 'I' for Inactive)
    1  A    between atoms: C_4  and  C_36
    2  A    between atoms: C_23  and  C_30
                            x       y       z     vdW  Elec       q    Type
                         _______ _______ _______ _____ _____    ______ ____

>  <TORSDO>
F 2

$$$$
=
 OpenBabel11122411413D

 37 43  0  0  1  0  0  0  0  0999 V2000
  183.3310  179.2820  138.2780 O   0  0  0  0  0  0  0  0  0  0  0  0
  186.7790  178.0180  135.8050 C   0  0  0  0  0  0  0  0  0  0  0  0
  187.1030  177.5440  140.0880 C   0  0  1  0  0  3  0  0  0  0  0  0
  181.9900  179.6370  138.5200 C   0  0  2  0  0  3  0  0  0  0  0  0
  184.5290  177.3930  141.6600 C   0  0  0  0  0  2  0  0  0  0  0  0
  188.0400  177.0710  137.8430 C   0  0  0  0  0  0  0  0  0  0  0  0
  186.3540  178.7340  140.4940 N   0  0  2  0  0  0  0  0  0  0  0  0
  181.6150  177.1100  139.1890 C   0  0  2  0  0  3  0  0  0  0  0  0
  187.0250  177.4890  138.6160 C   0  0  0  0  0  0  0  0  0  0  0  0
  185.6470  178.4520  141.7700 C   0  0  2  0  0  3  0  0  0  0  0  0
  189.2770  176.6680  138.4600 N   0  0  0  0  0  0  0  0  0  0  0  0
  181.0520  178.4170  138.5960 C   0  0  0  0  0  2  0  0  0  0  0  0
  185.8600  178.2450  138.1290 C   0  0  2  0  0  3  0  0  0  0  0  0
  185.7070  177.0360  135.3660 C   0  0  0  0  0  1  0  0  0  0  0  0
  188.8930  177.9940  141.7860 C   0  0  0  0  0  3  0  0  0  0  0  0
  189.5330  176.8900  139.7180 C   0  0  0  0  0  3  0  0  0  0  0  0
  186.2120  178.9930  136.8460 C   0  0  0  0  0  2  0  0  0  0  0  0
  182.1810  177.1870  140.6150 C   0  0  0  0  0  2  0  0  0  0  0  0
  183.5530  177.8310  140.5960 C   0  0  1  0  0  3  0  0  0  0  0  0
  188.5310  177.5490  140.5760 C   0  0  0  0  0  0  0  0  0  0  0  0
  185.5890  179.2040  139.2910 C   0  0  1  0  0  3  0  0  0  0  0  0
  187.9970  177.2390  136.3430 C   0  0  0  0  0  2  0  0  0  0  0  0
  186.6210  178.0620  142.9010 C   0  0  1  0  0  3  0  0  0  0  0  0
  187.2180  178.8120  134.5940 C   0  0  0  0  0  1  0  0  0  0  0  0
  183.4540  179.2200  140.6070 O   0  0  0  0  0  0  0  0  0  0  0  0
  182.5150  176.5050  138.3090 O   0  0  0  0  0  1  0  0  0  0  0  0
  184.0870  179.6450  139.4240 C   0  0  2  0  0  3  0  0  0  0  0  0
  187.9930  178.7230  142.7500 C   0  0  0  0  0  2  0  0  0  0  0  0
  184.6920  178.7470  144.3320 C   0  0  0  0  0  3  0  0  0  0  0  0
  186.0350  178.3730  144.2430 C   0  0  0  0  0  0  0  0  0  0  0  0
  186.8090  178.2960  145.4090 C   0  0  0  0  0  3  0  0  0  0  0  0
  186.9600  178.5270  147.7750 F   0  0  0  0  0  0  0  0  0  0  0  0
  184.9130  178.9590  146.7010 N   0  0  0  0  0  0  0  0  0  0  0  0
  186.2230  178.5970  146.6400 C   0  0  0  0  0  0  0  0  0  0  0  0
  184.1440  179.0400  145.5830 C   0  0  0  0  0  3  0  0  0  0  0  0
  181.5030  180.6320  137.4760 C   0  0  0  0  0  2  0  0  0  0  0  0
  181.3950  181.9650  138.0470 N   0  0  0  0  0  1  0  0  0  0  0  0
  1  4  1  0  0  0  0
  1 27  1  0  0  0  0
  2 22  1  0  0  0  0
  2 17  1  0  0  0  0
  3  9  1  6  0  0  0
  3  7  1  0  0  0  0
  3 20  1  0  0  0  0
  4 36  1  6  0  0  0
  4 12  1  0  0  0  0
  5 10  1  0  0  0  0
  6 11  1  0  0  0  0
  6  9  2  0  0  0  0
  7 10  1  0  0  0  0
  8 18  1  0  0  0  0
 10 23  1  0  0  0  0
 11 16  2  0  0  0  0
 12  8  1  0  0  0  0
 13  9  1  0  0  0  0
 13 21  1  0  0  0  0
 14  2  1  0  0  0  0
 15 28  1  0  0  0  0
 16 20  1  0  0  0  0
 17 13  1  0  0  0  0
 19 25  1  0  0  0  0
 19 18  1  0  0  0  0
 19  5  1  0  0  0  0
 20 15  2  0  0  0  0
 21 27  1  0  0  0  0
 21  7  1  0  0  0  0
 22  6  1  0  0  0  0
 23 30  1  0  0  0  0
 24  2  1  0  0  0  0
 26  8  1  0  0  0  0
 27 25  1  0  0  0  0
 28 23  1  0  0  0  0
 29 35  1  0  0  0  0
 30 29  2  0  0  0  0
 30 31  1  0  0  0  0
 31 34  2  0  0  0  0
 34 33  1  0  0  0  0
 34 32  1  0  0  0  0
 35 33  2  0  0  0  0
 36 37  1  0  0  0  0
M  END
>  <MODEL>
9

>  <REMARK>
 VINA RESULT:      -5.4      3.463      6.675
  Name = 
  2 active torsions:
  status: ('A' for Active; 'I' for Inactive)
    1  A    between atoms: C_4  and  C_36
    2  A    between atoms: C_23  and  C_30
                            x       y       z     vdW  Elec       q    Type
                         _______ _______ _______ _____ _____    ______ ____

>  <TORSDO>
F 2

$$$$
