=
 OpenBabel11122410263D

 30 35  0  0  1  0  0  0  0  0999 V2000
  185.9220  178.3620  141.9720 C   0  0  0  0  0  0  0  0  0  0  0  0
  183.5000  178.9480  142.3310 C   0  0  0  0  0  0  0  0  0  0  0  0
  186.4700  177.7180  146.0830 N   0  0  0  0  0  0  0  0  0  0  0  0
  187.1800  177.9910  142.5330 C   0  0  0  0  0  0  0  0  0  0  0  0
  185.8360  178.5160  140.5830 C   0  0  0  0  0  3  0  0  0  0  0  0
  189.2890  177.7710  139.4930 O   0  0  0  0  0  1  0  0  0  0  0  0
  190.0970  178.4960  143.3740 C   0  0  1  0  0  3  0  0  0  0  0  0
  188.1780  177.9790  140.3050 C   0  0  0  0  0  0  0  0  0  0  0  0
  189.5380  178.2440  144.7220 N   0  0  2  0  0  0  0  0  0  0  0  0
  187.7090  177.3420  146.1170 C   0  0  0  0  0  0  0  0  0  0  0  0
  186.9330  178.3330  139.7440 C   0  0  0  0  0  0  0  0  0  0  0  0
  188.3090  177.8240  141.6960 C   0  0  0  0  0  0  0  0  0  0  0  0
  182.4340  179.1270  143.2160 C   0  0  0  0  0  3  0  0  0  0  0  0
  190.6410  177.6590  145.4760 C   0  0  0  0  0  2  0  0  0  0  0  0
  191.6100  178.5400  143.4840 C   0  0  0  0  0  2  0  0  0  0  0  0
  183.2560  179.1550  140.9780 O   0  0  0  0  0  1  0  0  0  0  0  0
  186.1710  178.0110  144.7310 C   0  0  0  0  0  0  0  0  0  0  0  0
  182.6020  178.9380  144.5860 C   0  0  0  0  0  3  0  0  0  0  0  0
  184.7830  178.5690  142.8180 C   0  0  0  0  0  0  0  0  0  0  0  0
  187.2550  177.8160  143.9220 C   0  0  0  0  0  0  0  0  0  0  0  0
  188.3450  176.8850  147.3830 C   0  0  0  0  0  1  0  0  0  0  0  0
  188.3920  177.3200  144.7630 C   0  0  1  0  0  3  0  0  0  0  0  0
  191.9160  178.2520  144.9300 C   0  0  0  0  0  2  0  0  0  0  0  0
  189.9020  176.0480  142.5370 C   0  0  0  0  0  1  0  0  0  0  0  0
  183.8460  178.5690  145.0880 C   0  0  0  0  0  3  0  0  0  0  0  0
  184.9310  178.3870  144.2240 C   0  0  0  0  0  0  0  0  0  0  0  0
  189.6780  177.5280  142.2480 C   0  0  2  0  0  3  0  0  0  0  0  0
  186.7220  178.5110  138.3670 O   0  0  0  0  0  0  0  0  0  0  0  0
  186.8460  176.4470  137.1320 C   0  0  0  0  0  1  0  0  0  0  0  0
  185.9830  177.6300  137.5320 C   0  0  0  0  0  2  0  0  0  0  0  0
  1  4  1  0  0  0  0
  1 19  1  0  0  0  0
  2 19  2  0  0  0  0
  2 13  1  0  0  0  0
  3 10  2  0  0  0  0
  4 20  1  0  0  0  0
  5  1  2  0  0  0  0
  6  8  1  0  0  0  0
  7 15  1  1  0  0  0
  7  9  1  0  0  0  0
  8 12  1  0  0  0  0
  9 22  1  0  0  0  0
  9 14  1  1  0  0  0
 10 21  1  0  0  0  0
 11  8  2  0  0  0  0
 11  5  1  0  0  0  0
 12 27  1  0  0  0  0
 12  4  2  0  0  0  0
 13 18  2  0  0  0  0
 15 23  1  0  0  0  0
 16  2  1  0  0  0  0
 17  3  1  0  0  0  0
 18 25  1  0  0  0  0
 19 26  1  0  0  0  0
 20 17  2  0  0  0  0
 22 20  1  6  0  0  0
 22 10  1  0  0  0  0
 23 14  1  0  0  0  0
 26 17  1  0  0  0  0
 26 25  2  0  0  0  0
 27 24  1  1  0  0  0
 27  7  1  0  0  0  0
 28 11  1  0  0  0  0
 29 30  1  0  0  0  0
 30 28  1  0  0  0  0
M  END
>  <MODEL>
1

>  <REMARK>
 VINA RESULT:     -10.3      0.000      0.000
  Name = 
  2 active torsions:
  status: ('A' for Active; 'I' for Inactive)
    1  A    between atoms: C_11  and  O_28
    2  A    between atoms: O_28  and  C_30
                            x       y       z     vdW  Elec       q    Type
                         _______ _______ _______ _____ _____    ______ ____

>  <TORSDO>
F 2

$$$$
=
 OpenBabel11122410263D

 30 35  0  0  1  0  0  0  0  0999 V2000
  186.3080  178.3450  142.7240 C   0  0  0  0  0  0  0  0  0  0  0  0
  187.1310  178.1580  145.0960 C   0  0  0  0  0  0  0  0  0  0  0  0
  182.3610  178.8950  144.0400 N   0  0  0  0  0  0  0  0  0  0  0  0
  185.2130  178.5090  141.8260 C   0  0  0  0  0  0  0  0  0  0  0  0
  187.5930  178.2070  142.1840 C   0  0  0  0  0  3  0  0  0  0  0  0
  186.9400  178.3850  138.5490 O   0  0  0  0  0  1  0  0  0  0  0  0
  183.1800  177.5410  139.7280 C   0  0  1  0  0  3  0  0  0  0  0  0
  186.7380  178.3590  139.9260 C   0  0  0  0  0  0  0  0  0  0  0  0
  182.2180  177.8810  140.8000 N   0  0  2  0  0  0  0  0  0  0  0  0
  181.7420  179.0660  142.9150 C   0  0  0  0  0  0  0  0  0  0  0  0
  187.8280  178.2110  140.8100 C   0  0  0  0  0  0  0  0  0  0  0  0
  185.4320  178.4920  140.4280 C   0  0  0  0  0  0  0  0  0  0  0  0
  186.8420  178.1540  146.4630 C   0  0  0  0  0  3  0  0  0  0  0  0
  181.0050  178.2800  140.0960 C   0  0  0  0  0  2  0  0  0  0  0  0
  182.3990  177.2540  138.4580 C   0  0  0  0  0  2  0  0  0  0  0  0
  188.4590  177.9930  144.7190 O   0  0  0  0  0  1  0  0  0  0  0  0
  183.7190  178.6540  143.7230 C   0  0  0  0  0  0  0  0  0  0  0  0
  185.5350  178.3130  146.9180 C   0  0  0  0  0  3  0  0  0  0  0  0
  186.0890  178.3250  144.1410 C   0  0  0  0  0  0  0  0  0  0  0  0
  183.9320  178.6710  142.3730 C   0  0  0  0  0  0  0  0  0  0  0  0
  180.2960  179.4160  142.8740 C   0  0  0  0  0  1  0  0  0  0  0  0
  182.6330  178.9770  141.6920 C   0  0  1  0  0  3  0  0  0  0  0  0
  180.9550  177.4890  138.8130 C   0  0  0  0  0  2  0  0  0  0  0  0
  183.8320  179.9880  139.1640 C   0  0  0  0  0  1  0  0  0  0  0  0
  184.4970  178.4780  146.0050 C   0  0  0  0  0  3  0  0  0  0  0  0
  184.7600  178.4820  144.6310 C   0  0  0  0  0  0  0  0  0  0  0  0
  184.2990  178.5630  139.4390 C   0  0  2  0  0  3  0  0  0  0  0  0
  189.1590  178.0680  140.3880 O   0  0  0  0  0  0  0  0  0  0  0  0
  191.1870  177.3930  141.4980 C   0  0  0  0  0  1  0  0  0  0  0  0
  189.9920  176.9520  140.6720 C   0  0  0  0  0  2  0  0  0  0  0  0
  1 19  1  0  0  0  0
  2 13  1  0  0  0  0
  4 20  1  0  0  0  0
  4  1  2  0  0  0  0
  5  1  1  0  0  0  0
  6  8  1  0  0  0  0
  7 15  1  6  0  0  0
  7  9  1  0  0  0  0
  8 12  2  0  0  0  0
  8 11  1  0  0  0  0
  9 14  1  6  0  0  0
  9 22  1  0  0  0  0
 10  3  2  0  0  0  0
 11  5  2  0  0  0  0
 12  4  1  0  0  0  0
 13 18  2  0  0  0  0
 15 23  1  0  0  0  0
 16  2  1  0  0  0  0
 17  3  1  0  0  0  0
 17 26  1  0  0  0  0
 19 26  1  0  0  0  0
 19  2  2  0  0  0  0
 20 17  2  0  0  0  0
 21 10  1  0  0  0  0
 22 20  1  1  0  0  0
 22 10  1  0  0  0  0
 23 14  1  0  0  0  0
 25 18  1  0  0  0  0
 26 25  2  0  0  0  0
 27 24  1  1  0  0  0
 27  7  1  0  0  0  0
 27 12  1  0  0  0  0
 28 30  1  0  0  0  0
 28 11  1  0  0  0  0
 30 29  1  0  0  0  0
M  END
>  <MODEL>
2

>  <REMARK>
 VINA RESULT:      -9.5      2.524      5.991
  Name = 
  2 active torsions:
  status: ('A' for Active; 'I' for Inactive)
    1  A    between atoms: C_11  and  O_28
    2  A    between atoms: O_28  and  C_30
                            x       y       z     vdW  Elec       q    Type
                         _______ _______ _______ _____ _____    ______ ____

>  <TORSDO>
F 2

$$$$
=
 OpenBabel11122410263D

 30 35  0  0  1  0  0  0  0  0999 V2000
  187.2400  178.1910  140.4090 C   0  0  0  0  0  0  0  0  0  0  0  0
  184.9690  178.9240  139.6080 C   0  0  0  0  0  0  0  0  0  0  0  0
  185.8530  177.8950  144.3590 N   0  0  0  0  0  0  0  0  0  0  0  0
  188.0830  177.8110  141.4950 C   0  0  0  0  0  0  0  0  0  0  0  0
  187.7920  178.2220  139.1220 C   0  0  0  0  0  3  0  0  0  0  0  0
  191.2950  177.2140  139.7430 O   0  0  0  0  0  1  0  0  0  0  0  0
  190.3560  178.2480  143.5230 C   0  0  1  0  0  3  0  0  0  0  0  0
  189.9600  177.5490  139.9570 C   0  0  0  0  0  0  0  0  0  0  0  0
  189.2390  178.1450  144.4900 N   0  0  2  0  0  0  0  0  0  0  0  0
  186.9130  177.4640  144.9670 C   0  0  0  0  0  0  0  0  0  0  0  0
  189.1270  177.9100  138.8760 C   0  0  0  0  0  0  0  0  0  0  0  0
  189.4480  177.5140  141.2650 C   0  0  0  0  0  0  0  0  0  0  0  0
  183.6400  179.2340  139.9080 C   0  0  0  0  0  3  0  0  0  0  0  0
  189.8400  177.5790  145.6920 C   0  0  0  0  0  2  0  0  0  0  0  0
  191.6610  178.2270  144.2980 C   0  0  0  0  0  2  0  0  0  0  0  0
  185.3680  179.0190  138.2790 O   0  0  0  0  0  1  0  0  0  0  0  0
  186.2100  178.0780  143.0010 C   0  0  0  0  0  0  0  0  0  0  0  0
  183.1670  179.1620  141.2160 C   0  0  0  0  0  3  0  0  0  0  0  0
  185.8660  178.5290  140.6400 C   0  0  0  0  0  0  0  0  0  0  0  0
  187.5200  177.7590  142.7780 C   0  0  0  0  0  0  0  0  0  0  0  0
  186.8800  177.0930  146.4080 C   0  0  0  0  0  1  0  0  0  0  0  0
  188.1200  177.2870  144.0670 C   0  0  1  0  0  3  0  0  0  0  0  0
  191.2690  178.0570  145.7420 C   0  0  0  0  0  2  0  0  0  0  0  0
  190.3470  175.7460  142.8350 C   0  0  0  0  0  1  0  0  0  0  0  0
  184.0240  178.7790  142.2440 C   0  0  0  0  0  3  0  0  0  0  0  0
  185.3590  178.4670  141.9710 C   0  0  0  0  0  0  0  0  0  0  0  0
  190.4000  177.2030  142.3880 C   0  0  2  0  0  3  0  0  0  0  0  0
  189.5650  177.9730  137.5440 O   0  0  0  0  0  0  0  0  0  0  0  0
  189.3150  175.6830  136.8430 C   0  0  0  0  0  1  0  0  0  0  0  0
  189.0970  177.1420  136.4890 C   0  0  0  0  0  2  0  0  0  0  0  0
  1 19  2  0  0  0  0
  1  4  1  0  0  0  0
  2 13  2  0  0  0  0
  2 19  1  0  0  0  0
  3 10  2  0  0  0  0
  4 20  2  0  0  0  0
  5  1  1  0  0  0  0
  6  8  1  0  0  0  0
  7 15  1  1  0  0  0
  7  9  1  0  0  0  0
  8 12  2  0  0  0  0
  9 14  1  1  0  0  0
 10 21  1  0  0  0  0
 11  5  2  0  0  0  0
 11  8  1  0  0  0  0
 12  4  1  0  0  0  0
 12 27  1  0  0  0  0
 13 18  1  0  0  0  0
 14 23  1  0  0  0  0
 15 23  1  0  0  0  0
 16  2  1  0  0  0  0
 17  3  1  0  0  0  0
 18 25  2  0  0  0  0
 19 26  1  0  0  0  0
 20 17  1  0  0  0  0
 22 20  1  6  0  0  0
 22  9  1  0  0  0  0
 22 10  1  0  0  0  0
 26 25  1  0  0  0  0
 26 17  2  0  0  0  0
 27 24  1  1  0  0  0
 27  7  1  0  0  0  0
 28 11  1  0  0  0  0
 30 29  1  0  0  0  0
 30 28  1  0  0  0  0
M  END
>  <MODEL>
3

>  <REMARK>
 VINA RESULT:      -8.9      1.515      2.132
  Name = 
  2 active torsions:
  status: ('A' for Active; 'I' for Inactive)
    1  A    between atoms: C_11  and  O_28
    2  A    between atoms: O_28  and  C_30
                            x       y       z     vdW  Elec       q    Type
                         _______ _______ _______ _____ _____    ______ ____

>  <TORSDO>
F 2

$$$$
=
 OpenBabel11122410263D

 30 35  0  0  1  0  0  0  0  0999 V2000
  188.0410  177.7410  142.8600 C   0  0  0  0  0  0  0  0  0  0  0  0
  186.9760  177.8780  145.1360 C   0  0  0  0  0  0  0  0  0  0  0  0
  184.4860  178.9990  141.0190 N   0  0  0  0  0  0  0  0  0  0  0  0
  187.9120  177.8770  141.4460 C   0  0  0  0  0  0  0  0  0  0  0  0
  189.2830  177.3510  143.3770 C   0  0  0  0  0  3  0  0  0  0  0  0
  191.3220  176.9600  140.3180 O   0  0  0  0  0  1  0  0  0  0  0  0
  187.6950  176.8090  138.5680 C   0  0  1  0  0  3  0  0  0  0  0  0
  190.2420  177.2040  141.1610 C   0  0  0  0  0  0  0  0  0  0  0  0
  186.3630  177.4510  138.6470 N   0  0  2  0  0  0  0  0  0  0  0  0
  184.8470  179.0420  139.7760 C   0  0  0  0  0  0  0  0  0  0  0  0
  190.3790  177.0820  142.5600 C   0  0  0  0  0  0  0  0  0  0  0  0
  189.0100  177.5840  140.6010 C   0  0  0  0  0  0  0  0  0  0  0  0
  185.8460  178.1520  145.9110 C   0  0  0  0  0  3  0  0  0  0  0  0
  186.0700  177.8650  137.2800 C   0  0  0  0  0  2  0  0  0  0  0  0
  187.9430  176.4000  137.1270 C   0  0  0  0  0  2  0  0  0  0  0  0
  188.1320  177.4860  145.8020 O   0  0  0  0  0  1  0  0  0  0  0  0
  185.6070  178.5390  141.7510 C   0  0  0  0  0  0  0  0  0  0  0  0
  184.6510  178.5500  145.3160 C   0  0  0  0  0  3  0  0  0  0  0  0
  186.9230  178.0000  143.7200 C   0  0  0  0  0  0  0  0  0  0  0  0
  186.6740  178.2900  140.9350 C   0  0  0  0  0  0  0  0  0  0  0  0
  183.9300  179.5550  138.7210 C   0  0  0  0  0  1  0  0  0  0  0  0
  186.2850  178.6280  139.5290 C   0  0  1  0  0  3  0  0  0  0  0  0
  186.7350  176.8710  136.3620 C   0  0  0  0  0  2  0  0  0  0  0  0
  189.0560  179.0180  138.5180 C   0  0  0  0  0  1  0  0  0  0  0  0
  184.5720  178.6770  143.9320 C   0  0  0  0  0  3  0  0  0  0  0  0
  185.6880  178.4040  143.1340 C   0  0  0  0  0  0  0  0  0  0  0  0
  188.8970  177.6180  139.1000 C   0  0  2  0  0  3  0  0  0  0  0  0
  191.5730  176.7040  143.1950 O   0  0  0  0  0  0  0  0  0  0  0  0
  191.6800  176.3830  145.5790 C   0  0  0  0  0  1  0  0  0  0  0  0
  191.6810  175.7190  144.2150 C   0  0  0  0  0  2  0  0  0  0  0  0
  1  5  1  0  0  0  0
  1 19  1  0  0  0  0
  2 16  1  0  0  0  0
  2 13  1  0  0  0  0
  3 17  1  0  0  0  0
  4  1  2  0  0  0  0
  6  8  1  0  0  0  0
  7 15  1  6  0  0  0
  7  9  1  0  0  0  0
  7 27  1  0  0  0  0
  8 11  1  0  0  0  0
  9 14  1  6  0  0  0
  9 22  1  0  0  0  0
 10  3  2  0  0  0  0
 11 28  1  0  0  0  0
 11  5  2  0  0  0  0
 12  8  2  0  0  0  0
 12  4  1  0  0  0  0
 17 26  1  0  0  0  0
 18 13  2  0  0  0  0
 19  2  2  0  0  0  0
 20  4  1  0  0  0  0
 20 17  2  0  0  0  0
 21 10  1  0  0  0  0
 22 10  1  1  0  0  0
 22 20  1  0  0  0  0
 23 15  1  0  0  0  0
 23 14  1  0  0  0  0
 25 18  1  0  0  0  0
 26 19  1  0  0  0  0
 26 25  2  0  0  0  0
 27 24  1  1  0  0  0
 27 12  1  0  0  0  0
 28 30  1  0  0  0  0
 30 29  1  0  0  0  0
M  END
>  <MODEL>
4

>  <REMARK>
 VINA RESULT:      -8.8      2.596      5.757
  Name = 
  2 active torsions:
  status: ('A' for Active; 'I' for Inactive)
    1  A    between atoms: C_11  and  O_28
    2  A    between atoms: O_28  and  C_30
                            x       y       z     vdW  Elec       q    Type
                         _______ _______ _______ _____ _____    ______ ____

>  <TORSDO>
F 2

$$$$
=
 OpenBabel11122410263D

 30 35  0  0  1  0  0  0  0  0999 V2000
  189.5340  177.1350  143.4030 C   0  0  0  0  0  0  0  0  0  0  0  0
  191.4380  176.1540  144.7250 C   0  0  0  0  0  0  0  0  0  0  0  0
  187.4380  178.0440  146.9240 N   0  0  0  0  0  0  0  0  0  0  0  0
  188.2440  177.7430  143.3960 C   0  0  0  0  0  0  0  0  0  0  0  0
  190.1650  176.9080  142.1740 C   0  0  0  0  0  3  0  0  0  0  0  0
  187.6760  178.1930  139.7610 O   0  0  0  0  0  1  0  0  0  0  0  0
  185.2040  177.7900  142.9180 C   0  0  1  0  0  3  0  0  0  0  0  0
  188.2900  177.8310  140.9580 C   0  0  0  0  0  0  0  0  0  0  0  0
  185.1820  178.0000  144.3840 N   0  0  2  0  0  0  0  0  0  0  0  0
  186.3860  178.6300  146.4470 C   0  0  0  0  0  0  0  0  0  0  0  0
  189.5720  177.2420  140.9590 C   0  0  0  0  0  0  0  0  0  0  0  0
  187.6180  178.0670  142.1690 C   0  0  0  0  0  0  0  0  0  0  0  0
  191.9870  175.8310  145.9690 C   0  0  0  0  0  3  0  0  0  0  0  0
  183.9870  178.8000  144.6250 C   0  0  0  0  0  2  0  0  0  0  0  0
  183.8020  178.0150  142.3820 C   0  0  0  0  0  2  0  0  0  0  0  0
  192.1870  175.8490  143.5930 O   0  0  0  0  0  1  0  0  0  0  0  0
  188.2190  177.6450  145.8130 C   0  0  0  0  0  0  0  0  0  0  0  0
  191.2970  176.1060  147.1470 C   0  0  0  0  0  3  0  0  0  0  0  0
  190.1590  176.7700  144.6410 C   0  0  0  0  0  0  0  0  0  0  0  0
  187.6260  177.9900  144.6300 C   0  0  0  0  0  0  0  0  0  0  0  0
  185.3710  179.2460  147.3440 C   0  0  0  0  0  1  0  0  0  0  0  0
  186.3490  178.7110  144.9330 C   0  0  1  0  0  3  0  0  0  0  0  0
  182.9750  178.4140  143.5750 C   0  0  0  0  0  2  0  0  0  0  0  0
  186.1590  180.1270  142.3240 C   0  0  0  0  0  1  0  0  0  0  0  0
  190.0430  176.7080  147.0940 C   0  0  0  0  0  3  0  0  0  0  0  0
  189.4700  177.0370  145.8610 C   0  0  0  0  0  0  0  0  0  0  0  0
  186.2190  178.6200  142.1050 C   0  0  2  0  0  3  0  0  0  0  0  0
  190.3050  176.9700  139.7920 O   0  0  0  0  0  0  0  0  0  0  0  0
  192.1950  176.3980  138.4140 C   0  0  0  0  0  1  0  0  0  0  0  0
  191.7110  177.1270  139.6540 C   0  0  0  0  0  2  0  0  0  0  0  0
  1 19  1  0  0  0  0
  2 13  1  0  0  0  0
  4  1  1  0  0  0  0
  4 20  1  0  0  0  0
  5  1  2  0  0  0  0
  6  8  1  0  0  0  0
  7 15  1  6  0  0  0
  7  9  1  0  0  0  0
  8 11  2  0  0  0  0
  8 12  1  0  0  0  0
  9 14  1  6  0  0  0
  9 22  1  0  0  0  0
 10  3  2  0  0  0  0
 10 21  1  0  0  0  0
 11  5  1  0  0  0  0
 12  4  2  0  0  0  0
 13 18  2  0  0  0  0
 15 23  1  0  0  0  0
 16  2  1  0  0  0  0
 17 26  1  0  0  0  0
 17  3  1  0  0  0  0
 19  2  2  0  0  0  0
 19 26  1  0  0  0  0
 20 17  2  0  0  0  0
 22 20  1  6  0  0  0
 22 10  1  0  0  0  0
 23 14  1  0  0  0  0
 25 18  1  0  0  0  0
 26 25  2  0  0  0  0
 27 12  1  0  0  0  0
 27 24  1  1  0  0  0
 27  7  1  0  0  0  0
 28 11  1  0  0  0  0
 29 30  1  0  0  0  0
 30 28  1  0  0  0  0
M  END
>  <MODEL>
5

>  <REMARK>
 VINA RESULT:      -8.3      1.996      5.573
  Name = 
  2 active torsions:
  status: ('A' for Active; 'I' for Inactive)
    1  A    between atoms: C_11  and  O_28
    2  A    between atoms: O_28  and  C_30
                            x       y       z     vdW  Elec       q    Type
                         _______ _______ _______ _____ _____    ______ ____

>  <TORSDO>
F 2

$$$$
=
 OpenBabel11122410263D

 30 35  0  0  1  0  0  0  0  0999 V2000
  187.2640  178.1190  142.0510 C   0  0  0  0  0  0  0  0  0  0  0  0
  186.2860  178.3220  144.3620 C   0  0  0  0  0  0  0  0  0  0  0  0
  183.5290  178.9040  140.3030 N   0  0  0  0  0  0  0  0  0  0  0  0
  187.0630  178.1380  140.6400 C   0  0  0  0  0  0  0  0  0  0  0  0
  188.5580  177.8840  142.5330 C   0  0  0  0  0  3  0  0  0  0  0  0
  190.4940  177.4610  139.4120 O   0  0  0  0  0  1  0  0  0  0  0  0
  186.8280  176.8480  137.8550 C   0  0  1  0  0  3  0  0  0  0  0  0
  189.4320  177.6660  140.2880 C   0  0  0  0  0  0  0  0  0  0  0  0
  185.4450  177.3670  137.9550 N   0  0  2  0  0  0  0  0  0  0  0  0
  183.8330  178.8890  139.0440 C   0  0  0  0  0  0  0  0  0  0  0  0
  189.6390  177.6590  141.6840 C   0  0  0  0  0  0  0  0  0  0  0  0
  188.1470  177.8870  139.7640 C   0  0  0  0  0  0  0  0  0  0  0  0
  185.1690  178.5470  145.1700 C   0  0  0  0  0  3  0  0  0  0  0  0
  185.0560  177.6510  136.5790 C   0  0  0  0  0  2  0  0  0  0  0  0
  187.0540  176.3590  136.4360 C   0  0  0  0  0  2  0  0  0  0  0  0
  187.5020  178.0890  144.9960 O   0  0  0  0  0  1  0  0  0  0  0  0
  184.7190  178.6040  141.0100 C   0  0  0  0  0  0  0  0  0  0  0  0
  183.9170  178.7870  144.6080 C   0  0  0  0  0  3  0  0  0  0  0  0
  186.1630  178.3350  142.9450 C   0  0  0  0  0  0  0  0  0  0  0  0
  185.7700  178.3960  140.1620 C   0  0  0  0  0  0  0  0  0  0  0  0
  182.8270  179.2360  138.0030 C   0  0  0  0  0  1  0  0  0  0  0  0
  185.2910  178.5930  138.7560 C   0  0  1  0  0  3  0  0  0  0  0  0
  185.7750  176.6590  135.7000 C   0  0  0  0  0  2  0  0  0  0  0  0
  187.9670  179.1630  137.5880 C   0  0  0  0  0  1  0  0  0  0  0  0
  183.7690  178.8050  143.2250 C   0  0  0  0  0  3  0  0  0  0  0  0
  184.8710  178.5790  142.3940 C   0  0  0  0  0  0  0  0  0  0  0  0
  187.9680  177.8010  138.2720 C   0  0  2  0  0  3  0  0  0  0  0  0
  190.8890  177.4400  142.2840 O   0  0  0  0  0  0  0  0  0  0  0  0
  191.6150  178.9670  143.9990 C   0  0  0  0  0  1  0  0  0  0  0  0
  191.1600  177.5560  143.6750 C   0  0  0  0  0  2  0  0  0  0  0  0
  1  5  1  0  0  0  0
  1 19  1  0  0  0  0
  2 16  1  0  0  0  0
  2 13  1  0  0  0  0
  3 17  1  0  0  0  0
  4  1  2  0  0  0  0
  6  8  1  0  0  0  0
  7 15  1  6  0  0  0
  7  9  1  0  0  0  0
  7 27  1  0  0  0  0
  8 11  1  0  0  0  0
  9 14  1  6  0  0  0
  9 22  1  0  0  0  0
 10  3  2  0  0  0  0
 11 28  1  0  0  0  0
 11  5  2  0  0  0  0
 12  8  2  0  0  0  0
 12  4  1  0  0  0  0
 17 26  1  0  0  0  0
 18 13  2  0  0  0  0
 19  2  2  0  0  0  0
 20  4  1  0  0  0  0
 20 17  2  0  0  0  0
 21 10  1  0  0  0  0
 22 10  1  1  0  0  0
 22 20  1  0  0  0  0
 23 15  1  0  0  0  0
 23 14  1  0  0  0  0
 25 18  1  0  0  0  0
 26 19  1  0  0  0  0
 26 25  2  0  0  0  0
 27 24  1  1  0  0  0
 27 12  1  0  0  0  0
 28 30  1  0  0  0  0
 30 29  1  0  0  0  0
M  END
>  <MODEL>
6

>  <REMARK>
 VINA RESULT:      -8.0      2.607      5.973
  Name = 
  2 active torsions:
  status: ('A' for Active; 'I' for Inactive)
    1  A    between atoms: C_11  and  O_28
    2  A    between atoms: O_28  and  C_30
                            x       y       z     vdW  Elec       q    Type
                         _______ _______ _______ _____ _____    ______ ____

>  <TORSDO>
F 2

$$$$
=
 OpenBabel11122410263D

 30 35  0  0  1  0  0  0  0  0999 V2000
  185.6770  178.4570  142.9180 C   0  0  0  0  0  0  0  0  0  0  0  0
  185.3300  178.5270  140.4260 C   0  0  0  0  0  0  0  0  0  0  0  0
  189.8310  178.1130  142.4220 N   0  0  0  0  0  0  0  0  0  0  0  0
  186.5770  178.3390  144.0180 C   0  0  0  0  0  0  0  0  0  0  0  0
  184.3120  178.6050  143.1920 C   0  0  0  0  0  3  0  0  0  0  0  0
  184.2390  178.5310  146.8880 O   0  0  0  0  0  1  0  0  0  0  0  0
  187.8770  176.8720  146.3910 C   0  0  1  0  0  3  0  0  0  0  0  0
  184.7040  178.4960  145.5760 C   0  0  0  0  0  0  0  0  0  0  0  0
  189.0870  177.0080  145.5480 N   0  0  2  0  0  0  0  0  0  0  0  0
  190.2320  178.1060  143.6540 C   0  0  0  0  0  0  0  0  0  0  0  0
  183.8110  178.6270  144.4920 C   0  0  0  0  0  0  0  0  0  0  0  0
  186.0810  178.3360  145.3440 C   0  0  0  0  0  0  0  0  0  0  0  0
  185.8810  178.4930  139.1420 C   0  0  0  0  0  3  0  0  0  0  0  0
  190.1910  177.0970  146.4980 C   0  0  0  0  0  2  0  0  0  0  0  0
  188.3020  176.3790  147.7610 C   0  0  0  0  0  2  0  0  0  0  0  0
  183.9500  178.6640  140.5300 O   0  0  0  0  0  1  0  0  0  0  0  0
  188.4170  178.1840  142.4570 C   0  0  0  0  0  0  0  0  0  0  0  0
  187.2550  178.3570  138.9580 C   0  0  0  0  0  3  0  0  0  0  0  0
  186.1680  178.4240  141.5710 C   0  0  0  0  0  0  0  0  0  0  0  0
  187.9450  178.2140  143.7390 C   0  0  0  0  0  0  0  0  0  0  0  0
  191.6810  178.1110  143.9950 C   0  0  0  0  0  1  0  0  0  0  0  0
  189.1140  178.1940  144.6750 C   0  0  1  0  0  3  0  0  0  0  0  0
  189.8040  176.2820  147.7070 C   0  0  0  0  0  2  0  0  0  0  0  0
  187.6840  179.3870  146.9940 C   0  0  0  0  0  1  0  0  0  0  0  0
  188.0970  178.2530  140.0610 C   0  0  0  0  0  3  0  0  0  0  0  0
  187.5700  178.2820  141.3560 C   0  0  0  0  0  0  0  0  0  0  0  0
  186.9780  178.1170  146.5340 C   0  0  2  0  0  3  0  0  0  0  0  0
  182.4240  178.7850  144.6410 O   0  0  0  0  0  0  0  0  0  0  0  0
  180.1240  178.5160  143.9780 C   0  0  0  0  0  1  0  0  0  0  0  0
  181.5060  178.9990  143.5770 C   0  0  0  0  0  2  0  0  0  0  0  0
  1  5  2  0  0  0  0
  1  4  1  0  0  0  0
  2 16  1  0  0  0  0
  2 19  1  0  0  0  0
  3 17  1  0  0  0  0
  3 10  2  0  0  0  0
  4 12  2  0  0  0  0
  5 11  1  0  0  0  0
  7 27  1  0  0  0  0
  7 15  1  1  0  0  0
  8  6  1  0  0  0  0
  9  7  1  0  0  0  0
  9 14  1  1  0  0  0
 10 21  1  0  0  0  0
 11 28  1  0  0  0  0
 11  8  2  0  0  0  0
 12  8  1  0  0  0  0
 12 27  1  0  0  0  0
 13  2  2  0  0  0  0
 14 23  1  0  0  0  0
 17 20  2  0  0  0  0
 18 13  1  0  0  0  0
 18 25  2  0  0  0  0
 19  1  1  0  0  0  0
 20  4  1  0  0  0  0
 20 22  1  0  0  0  0
 22 10  1  6  0  0  0
 22  9  1  0  0  0  0
 23 15  1  0  0  0  0
 25 26  1  0  0  0  0
 26 19  2  0  0  0  0
 26 17  1  0  0  0  0
 27 24  1  6  0  0  0
 30 29  1  0  0  0  0
 30 28  1  0  0  0  0
M  END
>  <MODEL>
7

>  <REMARK>
 VINA RESULT:      -7.8      1.718      5.022
  Name = 
  2 active torsions:
  status: ('A' for Active; 'I' for Inactive)
    1  A    between atoms: C_11  and  O_28
    2  A    between atoms: O_28  and  C_30
                            x       y       z     vdW  Elec       q    Type
                         _______ _______ _______ _____ _____    ______ ____

>  <TORSDO>
F 2

$$$$
=
 OpenBabel11122410263D

 30 35  0  0  1  0  0  0  0  0999 V2000
  186.5000  178.2530  141.8440 C   0  0  0  0  0  0  0  0  0  0  0  0
  185.1380  178.5510  139.7490 C   0  0  0  0  0  0  0  0  0  0  0  0
  190.0050  177.7080  139.6000 N   0  0  0  0  0  0  0  0  0  0  0  0
  187.7670  177.9910  142.4450 C   0  0  0  0  0  0  0  0  0  0  0  0
  185.3990  178.4580  142.6850 C   0  0  0  0  0  3  0  0  0  0  0  0
  186.8910  178.0810  146.0460 O   0  0  0  0  0  1  0  0  0  0  0  0
  189.8130  176.2580  143.9540 C   0  0  1  0  0  3  0  0  0  0  0  0
  186.7520  178.1280  144.6610 C   0  0  0  0  0  0  0  0  0  0  0  0
  190.5600  176.3920  142.6830 N   0  0  2  0  0  0  0  0  0  0  0  0
  190.8870  177.5750  140.5390 C   0  0  0  0  0  0  0  0  0  0  0  0
  185.5000  178.4010  144.0730 C   0  0  0  0  0  0  0  0  0  0  0  0
  187.8810  177.9070  143.8540 C   0  0  0  0  0  0  0  0  0  0  0  0
  185.0880  178.5910  138.3530 C   0  0  0  0  0  3  0  0  0  0  0  0
  191.9650  176.3370  143.0710 C   0  0  0  0  0  2  0  0  0  0  0  0
  190.7330  175.6280  144.9840 C   0  0  0  0  0  2  0  0  0  0  0  0
  183.9510  178.7600  140.4410 O   0  0  0  0  0  1  0  0  0  0  0  0
  188.7510  177.8590  140.2400 C   0  0  0  0  0  0  0  0  0  0  0  0
  186.2370  178.3910  137.5910 C   0  0  0  0  0  3  0  0  0  0  0  0
  186.3700  178.3040  140.4170 C   0  0  0  0  0  0  0  0  0  0  0  0
  188.8710  177.8100  141.6010 C   0  0  0  0  0  0  0  0  0  0  0  0
  192.3380  177.4660  140.2250 C   0  0  0  0  0  1  0  0  0  0  0  0
  190.3200  177.6430  141.9430 C   0  0  1  0  0  3  0  0  0  0  0  0
  192.0560  175.4480  144.2870 C   0  0  0  0  0  2  0  0  0  0  0  0
  190.1180  178.7210  144.7080 C   0  0  0  0  0  1  0  0  0  0  0  0
  187.4540  178.1460  138.2200 C   0  0  0  0  0  3  0  0  0  0  0  0
  187.5300  178.0980  139.6150 C   0  0  0  0  0  0  0  0  0  0  0  0
  189.1740  177.5380  144.5320 C   0  0  2  0  0  3  0  0  0  0  0  0
  184.3260  178.6280  144.8100 O   0  0  0  0  0  0  0  0  0  0  0  0
  182.0700  178.6280  143.9690 C   0  0  0  0  0  1  0  0  0  0  0  0
  183.2550  179.4700  144.4040 C   0  0  0  0  0  2  0  0  0  0  0  0
  1  4  1  0  0  0  0
  1  5  2  0  0  0  0
  2 19  1  0  0  0  0
  2 16  1  0  0  0  0
  3 17  1  0  0  0  0
  3 10  2  0  0  0  0
  4 12  2  0  0  0  0
  5 11  1  0  0  0  0
  7 27  1  0  0  0  0
  7 15  1  1  0  0  0
  8  6  1  0  0  0  0
  9 14  1  1  0  0  0
  9  7  1  0  0  0  0
 11  8  2  0  0  0  0
 11 28  1  0  0  0  0
 12 27  1  0  0  0  0
 12  8  1  0  0  0  0
 13  2  2  0  0  0  0
 14 23  1  0  0  0  0
 17 20  2  0  0  0  0
 18 25  2  0  0  0  0
 18 13  1  0  0  0  0
 19  1  1  0  0  0  0
 20 22  1  0  0  0  0
 20  4  1  0  0  0  0
 21 10  1  0  0  0  0
 22 10  1  6  0  0  0
 22  9  1  0  0  0  0
 23 15  1  0  0  0  0
 25 26  1  0  0  0  0
 26 17  1  0  0  0  0
 26 19  2  0  0  0  0
 27 24  1  6  0  0  0
 29 30  1  0  0  0  0
 30 28  1  0  0  0  0
M  END
>  <MODEL>
8

>  <REMARK>
 VINA RESULT:      -7.7      2.177      5.005
  Name = 
  2 active torsions:
  status: ('A' for Active; 'I' for Inactive)
    1  A    between atoms: C_11  and  O_28
    2  A    between atoms: O_28  and  C_30
                            x       y       z     vdW  Elec       q    Type
                         _______ _______ _______ _____ _____    ______ ____

>  <TORSDO>
F 2

$$$$
=
 OpenBabel11122410263D

 30 35  0  0  1  0  0  0  0  0999 V2000
  187.9310  177.8990  142.1860 C   0  0  0  0  0  0  0  0  0  0  0  0
  189.0700  177.6890  144.4210 C   0  0  0  0  0  0  0  0  0  0  0  0
  191.2440  176.2150  140.2360 N   0  0  0  0  0  0  0  0  0  0  0  0
  187.9850  177.7220  140.7720 C   0  0  0  0  0  0  0  0  0  0  0  0
  186.7630  178.4350  142.7420 C   0  0  0  0  0  3  0  0  0  0  0  0
  184.6540  178.9920  139.7580 O   0  0  0  0  0  1  0  0  0  0  0  0
  188.1970  178.7010  137.8620 C   0  0  1  0  0  3  0  0  0  0  0  0
  185.7350  178.6450  140.5640 C   0  0  0  0  0  0  0  0  0  0  0  0
  189.4520  177.9160  137.9040 N   0  0  2  0  0  0  0  0  0  0  0  0
  190.8280  176.1880  139.0100 C   0  0  0  0  0  0  0  0  0  0  0  0
  185.6700  178.8090  141.9630 C   0  0  0  0  0  0  0  0  0  0  0  0
  186.8920  178.1190  139.9640 C   0  0  0  0  0  0  0  0  0  0  0  0
  190.1940  177.3050  145.1570 C   0  0  0  0  0  3  0  0  0  0  0  0
  189.6400  177.4450  136.5370 C   0  0  0  0  0  2  0  0  0  0  0  0
  187.9360  179.1070  136.4230 C   0  0  0  0  0  2  0  0  0  0  0  0
  187.9930  178.2210  145.1220 O   0  0  0  0  0  1  0  0  0  0  0  0
  190.2130  176.8120  141.0010 C   0  0  0  0  0  0  0  0  0  0  0  0
  191.3120  176.7640  144.5240 C   0  0  0  0  0  3  0  0  0  0  0  0
  189.0490  177.5330  143.0070 C   0  0  0  0  0  0  0  0  0  0  0  0
  189.1470  177.1630  140.2220 C   0  0  0  0  0  0  0  0  0  0  0  0
  191.6380  175.5550  137.9330 C   0  0  0  0  0  1  0  0  0  0  0  0
  189.4370  176.7550  138.8100 C   0  0  1  0  0  3  0  0  0  0  0  0
  189.0510  178.4890  135.6220 C   0  0  0  0  0  2  0  0  0  0  0  0
  186.6000  176.6580  137.9200 C   0  0  0  0  0  1  0  0  0  0  0  0
  191.3170  176.6020  143.1420 C   0  0  0  0  0  3  0  0  0  0  0  0
  190.2060  176.9820  142.3830 C   0  0  0  0  0  0  0  0  0  0  0  0
  186.9370  178.0430  138.4620 C   0  0  2  0  0  3  0  0  0  0  0  0
  184.5540  179.3320  142.6360 O   0  0  0  0  0  0  0  0  0  0  0  0
  183.4200  178.9170  144.7190 C   0  0  0  0  0  1  0  0  0  0  0  0
  184.5200  179.6870  144.0120 C   0  0  0  0  0  2  0  0  0  0  0  0
  1  5  1  0  0  0  0
  1 19  1  0  0  0  0
  2 16  1  0  0  0  0
  2 13  1  0  0  0  0
  3 17  1  0  0  0  0
  4  1  2  0  0  0  0
  6  8  1  0  0  0  0
  7 15  1  6  0  0  0
  7  9  1  0  0  0  0
  7 27  1  0  0  0  0
  8 11  1  0  0  0  0
  9 14  1  6  0  0  0
  9 22  1  0  0  0  0
 10  3  2  0  0  0  0
 11 28  1  0  0  0  0
 11  5  2  0  0  0  0
 12  8  2  0  0  0  0
 12  4  1  0  0  0  0
 17 26  1  0  0  0  0
 18 13  2  0  0  0  0
 19  2  2  0  0  0  0
 20  4  1  0  0  0  0
 20 17  2  0  0  0  0
 21 10  1  0  0  0  0
 22 10  1  1  0  0  0
 22 20  1  0  0  0  0
 23 15  1  0  0  0  0
 23 14  1  0  0  0  0
 25 18  1  0  0  0  0
 26 19  1  0  0  0  0
 26 25  2  0  0  0  0
 27 24  1  1  0  0  0
 27 12  1  0  0  0  0
 28 30  1  0  0  0  0
 30 29  1  0  0  0  0
M  END
>  <MODEL>
9

>  <REMARK>
 VINA RESULT:      -7.6      2.625      6.397
  Name = 
  2 active torsions:
  status: ('A' for Active; 'I' for Inactive)
    1  A    between atoms: C_11  and  O_28
    2  A    between atoms: O_28  and  C_30
                            x       y       z     vdW  Elec       q    Type
                         _______ _______ _______ _____ _____    ______ ____

>  <TORSDO>
F 2

$$$$
