=
 OpenBabel11122411033D

 31 35  0  0  1  0  0  0  0  0999 V2000
  192.9700  175.6100  136.4400 C   0  0  0  0  0  0  0  0  0  0  0  0
  189.4000  176.8660  136.8470 C   0  0  2  0  0  3  0  0  0  0  0  0
  188.5100  175.6300  136.8080 C   0  0  0  0  0  0  0  0  0  0  0  0
  188.1410  173.2930  136.2390 C   0  0  0  0  0  0  0  0  0  0  0  0
  190.8400  176.5320  137.1510 C   0  0  0  0  0  0  0  0  0  0  0  0
  193.4910  175.8180  137.7180 C   0  0  0  0  0  3  0  0  0  0  0  0
  188.9790  174.4100  136.2970 C   0  0  0  0  0  3  0  0  0  0  0  0
  189.1390  177.4400  139.2320 N   0  0  0  0  0  0  0  0  0  0  0  0
  193.9690  174.8960  135.1930 Cl  0  0  0  0  0  0  0  0  0  0  0  0
  186.6520  176.9330  137.6960 O   0  0  0  0  0  0  0  0  0  0  0  0
  188.6350  172.0600  135.7330 N   0  0  0  0  0  1  0  0  0  0  0  0
  190.5830  177.4900  139.4770 C   0  0  0  0  0  2  0  0  0  0  0  0
  188.8780  177.9110  137.8580 C   0  0  2  0  0  3  0  0  0  0  0  0
  191.6490  175.9680  136.1550 C   0  0  0  0  0  3  0  0  0  0  0  0
  186.8190  173.3880  136.6790 C   0  0  0  0  0  3  0  0  0  0  0  0
  191.3700  176.7430  138.4390 C   0  0  0  0  0  0  0  0  0  0  0  0
  192.6960  176.3950  138.7120 C   0  0  0  0  0  3  0  0  0  0  0  0
  187.3850  178.1500  137.5920 C   0  0  0  0  0  2  0  0  0  0  0  0
  187.1630  175.7250  137.2170 C   0  0  0  0  0  0  0  0  0  0  0  0
  186.3310  174.6030  137.1640 C   0  0  0  0  0  3  0  0  0  0  0  0
  188.5440  178.3650  140.1930 C   0  0  0  0  0  2  0  0  0  0  0  0
  189.6620  178.1770  142.4250 C   0  0  0  0  0  1  0  0  0  0  0  0
  188.4910  177.7190  141.5720 C   0  0  1  0  0  3  0  0  0  0  0  0
  184.6440  178.3770  143.3050 N   0  0  0  0  0  0  0  0  0  0  0  0
  186.2210  178.7530  141.4860 C   0  0  0  0  0  2  0  0  0  0  0  0
  187.6710  176.6720  144.1340 O   0  0  0  0  0  0  0  0  0  0  0  0
  183.5970  179.0210  144.0760 C   0  0  0  0  0  1  0  0  0  0  0  0
  185.2080  179.3990  142.4280 C   0  0  0  0  0  2  0  0  0  0  0  0
  186.8960  177.4700  143.5460 C   0  0  0  0  0  0  0  0  0  0  0  0
  187.2140  177.9840  142.2360 N   0  0  0  0  0  0  0  0  0  0  0  0
  185.6720  177.9650  144.2580 C   0  0  0  0  0  2  0  0  0  0  0  0
  1  6  1  0  0  0  0
  2  3  1  1  0  0  0
  2  5  1  0  0  0  0
  2 13  1  0  0  0  0
  3 19  1  0  0  0  0
  4  7  1  0  0  0  0
  4 15  2  0  0  0  0
  5 16  2  0  0  0  0
  6 17  2  0  0  0  0
  7  3  2  0  0  0  0
  8 12  1  0  0  0  0
  8 21  1  0  0  0  0
  9  1  1  0  0  0  0
 11  4  1  0  0  0  0
 13 18  1  1  0  0  0
 13  8  1  0  0  0  0
 14  1  2  0  0  0  0
 14  5  1  0  0  0  0
 15 20  1  0  0  0  0
 16 17  1  0  0  0  0
 16 12  1  0  0  0  0
 18 10  1  0  0  0  0
 19 10  1  0  0  0  0
 20 19  2  0  0  0  0
 21 23  1  0  0  0  0
 23 30  1  0  0  0  0
 23 22  1  1  0  0  0
 24 27  1  0  0  0  0
 24 31  1  0  0  0  0
 25 30  1  0  0  0  0
 25 28  1  0  0  0  0
 28 24  1  0  0  0  0
 29 26  2  0  0  0  0
 29 31  1  0  0  0  0
 30 29  1  0  0  0  0
M  END
>  <MODEL>
1

>  <REMARK>
 VINA RESULT:      -7.5      0.000      0.000
  Name = 
  3 active torsions:
  status: ('A' for Active; 'I' for Inactive)
    1  A    between atoms: C_5  and  C_16
    2  A    between atoms: C_5  and  N_30
    3  A    between atoms: N_10  and  C_16
                            x       y       z     vdW  Elec       q    Type
                         _______ _______ _______ _____ _____    ______ ____

>  <TORSDO>
F 3

$$$$
=
 OpenBabel11122411033D

 31 35  0  0  1  0  0  0  0  0999 V2000
  180.0170  178.3830  142.3370 C   0  0  0  0  0  0  0  0  0  0  0  0
  183.2230  179.1010  140.4140 C   0  0  2  0  0  3  0  0  0  0  0  0
  184.3680  178.7520  141.3560 C   0  0  0  0  0  0  0  0  0  0  0  0
  185.2270  178.3310  143.5940 C   0  0  0  0  0  0  0  0  0  0  0  0
  181.9180  178.4670  140.8300 C   0  0  0  0  0  0  0  0  0  0  0  0
  179.5400  177.2490  141.6780 C   0  0  0  0  0  3  0  0  0  0  0  0
  184.1610  178.6220  142.7380 C   0  0  0  0  0  3  0  0  0  0  0  0
  183.4880  177.2530  138.8020 N   0  0  0  0  0  0  0  0  0  0  0  0
  179.1350  179.0410  143.6980 Cl  0  0  0  0  0  0  0  0  0  0  0  0
  185.9280  178.7960  139.4850 O   0  0  0  0  0  0  0  0  0  0  0  0
  184.9990  178.1870  144.9900 N   0  0  0  0  0  1  0  0  0  0  0  0
  182.0880  176.8320  138.9070 C   0  0  0  0  0  2  0  0  0  0  0  0
  183.5520  178.7190  138.9530 C   0  0  2  0  0  3  0  0  0  0  0  0
  181.2010  178.9930  141.9130 C   0  0  0  0  0  3  0  0  0  0  0  0
  186.5170  178.1830  143.0770 C   0  0  0  0  0  3  0  0  0  0  0  0
  181.4320  177.3230  140.1660 C   0  0  0  0  0  0  0  0  0  0  0  0
  180.2400  176.7260  140.5870 C   0  0  0  0  0  3  0  0  0  0  0  0
  184.9320  179.2890  138.5950 C   0  0  0  0  0  2  0  0  0  0  0  0
  185.6800  178.6350  140.8500 C   0  0  0  0  0  0  0  0  0  0  0  0
  186.7420  178.3380  141.7080 C   0  0  0  0  0  3  0  0  0  0  0  0
  183.9130  176.8760  137.4560 C   0  0  0  0  0  2  0  0  0  0  0  0
  183.0730  174.8760  136.2060 C   0  0  0  0  0  1  0  0  0  0  0  0
  183.9690  175.3590  137.3340 C   0  0  1  0  0  3  0  0  0  0  0  0
  188.0580  174.1720  136.9950 N   0  0  0  0  0  0  0  0  0  0  0  0
  186.3380  175.8790  136.7420 C   0  0  0  0  0  2  0  0  0  0  0  0
  184.9410  172.7120  137.9510 O   0  0  0  0  0  0  0  0  0  0  0  0
  189.2760  173.6640  136.3930 C   0  0  0  0  0  1  0  0  0  0  0  0
  187.5440  175.2020  136.0970 C   0  0  0  0  0  2  0  0  0  0  0  0
  185.7460  173.5320  137.4360 C   0  0  0  0  0  0  0  0  0  0  0  0
  185.3440  174.8900  137.1580 N   0  0  0  0  0  0  0  0  0  0  0  0
  187.1080  173.0620  137.0200 C   0  0  0  0  0  2  0  0  0  0  0  0
  1  9  1  0  0  0  0
  2  5  1  1  0  0  0
  2  3  1  0  0  0  0
  3  7  1  0  0  0  0
  4 11  1  0  0  0  0
  5 14  2  0  0  0  0
  6  1  2  0  0  0  0
  7  4  2  0  0  0  0
  8 12  1  0  0  0  0
  8 13  1  0  0  0  0
 10 19  1  0  0  0  0
 12 16  1  0  0  0  0
 13 18  1  1  0  0  0
 13  2  1  0  0  0  0
 14  1  1  0  0  0  0
 15  4  1  0  0  0  0
 16 17  2  0  0  0  0
 16  5  1  0  0  0  0
 17  6  1  0  0  0  0
 18 10  1  0  0  0  0
 19  3  2  0  0  0  0
 19 20  1  0  0  0  0
 20 15  2  0  0  0  0
 21  8  1  0  0  0  0
 23 22  1  6  0  0  0
 23 21  1  0  0  0  0
 24 31  1  0  0  0  0
 25 30  1  0  0  0  0
 27 24  1  0  0  0  0
 28 25  1  0  0  0  0
 28 24  1  0  0  0  0
 29 26  2  0  0  0  0
 30 23  1  0  0  0  0
 30 29  1  0  0  0  0
 31 29  1  0  0  0  0
M  END
>  <MODEL>
2

>  <REMARK>
 VINA RESULT:      -7.1      4.417      9.174
  Name = 
  3 active torsions:
  status: ('A' for Active; 'I' for Inactive)
    1  A    between atoms: C_5  and  C_16
    2  A    between atoms: C_5  and  N_30
    3  A    between atoms: N_10  and  C_16
                            x       y       z     vdW  Elec       q    Type
                         _______ _______ _______ _____ _____    ______ ____

>  <TORSDO>
F 3

$$$$
=
 OpenBabel11122411033D

 31 35  0  0  1  0  0  0  0  0999 V2000
  179.8240  178.8330  142.4970 C   0  0  0  0  0  0  0  0  0  0  0  0
  183.1550  179.1920  140.6920 C   0  0  2  0  0  3  0  0  0  0  0  0
  184.2290  178.8330  141.7110 C   0  0  0  0  0  0  0  0  0  0  0  0
  184.9550  178.5130  144.0110 C   0  0  0  0  0  0  0  0  0  0  0  0
  181.7910  178.6800  141.0840 C   0  0  0  0  0  0  0  0  0  0  0  0
  179.2960  177.6900  141.8930 C   0  0  0  0  0  3  0  0  0  0  0  0
  183.9520  178.8140  143.0870 C   0  0  0  0  0  3  0  0  0  0  0  0
  183.3590  177.2220  139.2220 N   0  0  0  0  0  0  0  0  0  0  0  0
  178.9310  179.6440  143.7660 Cl  0  0  0  0  0  0  0  0  0  0  0  0
  185.8700  178.6380  139.9200 O   0  0  0  0  0  0  0  0  0  0  0  0
  184.6550  178.4820  145.4010 N   0  0  0  0  0  1  0  0  0  0  0  0
  181.9290  176.9070  139.2860 C   0  0  0  0  0  2  0  0  0  0  0  0
  183.5210  178.6880  139.2780 C   0  0  2  0  0  3  0  0  0  0  0  0
  181.0660  179.3280  142.0930 C   0  0  0  0  0  3  0  0  0  0  0  0
  186.2520  178.2410  143.5700 C   0  0  0  0  0  3  0  0  0  0  0  0
  181.2540  177.5280  140.4750 C   0  0  0  0  0  0  0  0  0  0  0  0
  180.0050  177.0460  140.8760 C   0  0  0  0  0  3  0  0  0  0  0  0
  184.9520  179.1350  138.9510 C   0  0  0  0  0  2  0  0  0  0  0  0
  185.5510  178.5910  141.2790 C   0  0  0  0  0  0  0  0  0  0  0  0
  186.5490  178.2830  142.2070 C   0  0  0  0  0  3  0  0  0  0  0  0
  183.8150  176.7240  137.9270 C   0  0  0  0  0  2  0  0  0  0  0  0
  182.4670  176.7250  135.8170 C   0  0  0  0  0  1  0  0  0  0  0  0
  182.6540  176.0800  137.1800 C   0  0  1  0  0  3  0  0  0  0  0  0
  183.3470  171.8680  137.0400 N   0  0  0  0  0  0  0  0  0  0  0  0
  184.1980  174.1440  136.8610 C   0  0  0  0  0  2  0  0  0  0  0  0
  180.5940  174.0890  137.5360 O   0  0  0  0  0  0  0  0  0  0  0  0
  183.4900  170.5360  136.4840 C   0  0  0  0  0  1  0  0  0  0  0  0
  184.1910  172.7500  136.2400 C   0  0  0  0  0  2  0  0  0  0  0  0
  181.7420  173.6980  137.1990 C   0  0  0  0  0  0  0  0  0  0  0  0
  182.8340  174.6320  137.0630 N   0  0  0  0  0  0  0  0  0  0  0  0
  181.9520  172.2560  136.8430 C   0  0  0  0  0  2  0  0  0  0  0  0
  1  9  1  0  0  0  0
  2  5  1  1  0  0  0
  2  3  1  0  0  0  0
  3  7  1  0  0  0  0
  4 11  1  0  0  0  0
  5 14  2  0  0  0  0
  6  1  2  0  0  0  0
  7  4  2  0  0  0  0
  8 13  1  0  0  0  0
  8 12  1  0  0  0  0
 10 19  1  0  0  0  0
 12 16  1  0  0  0  0
 13 18  1  1  0  0  0
 13  2  1  0  0  0  0
 14  1  1  0  0  0  0
 15  4  1  0  0  0  0
 16 17  2  0  0  0  0
 16  5  1  0  0  0  0
 17  6  1  0  0  0  0
 18 10  1  0  0  0  0
 19  3  2  0  0  0  0
 19 20  1  0  0  0  0
 20 15  2  0  0  0  0
 21  8  1  0  0  0  0
 23 22  1  6  0  0  0
 23 21  1  0  0  0  0
 25 30  1  0  0  0  0
 27 24  1  0  0  0  0
 28 25  1  0  0  0  0
 28 24  1  0  0  0  0
 29 26  2  0  0  0  0
 30 23  1  0  0  0  0
 30 29  1  0  0  0  0
 31 24  1  0  0  0  0
 31 29  1  0  0  0  0
M  END
>  <MODEL>
3

>  <REMARK>
 VINA RESULT:      -6.9      5.631      9.691
  Name = 
  3 active torsions:
  status: ('A' for Active; 'I' for Inactive)
    1  A    between atoms: C_5  and  C_16
    2  A    between atoms: C_5  and  N_30
    3  A    between atoms: N_10  and  C_16
                            x       y       z     vdW  Elec       q    Type
                         _______ _______ _______ _____ _____    ______ ____

>  <TORSDO>
F 3

$$$$
=
 OpenBabel11122411033D

 31 35  0  0  1  0  0  0  0  0999 V2000
  188.8670  178.0870  139.4980 C   0  0  0  0  0  0  0  0  0  0  0  0
  186.1040  179.1300  141.8990 C   0  0  2  0  0  3  0  0  0  0  0  0
  184.8010  178.6280  141.2890 C   0  0  0  0  0  0  0  0  0  0  0  0
  183.5150  177.8340  139.3820 C   0  0  0  0  0  0  0  0  0  0  0  0
  187.3160  178.4310  141.3330 C   0  0  0  0  0  0  0  0  0  0  0  0
  189.5070  177.0800  140.2240 C   0  0  0  0  0  3  0  0  0  0  0  0
  184.7240  178.2630  139.9350 C   0  0  0  0  0  3  0  0  0  0  0  0
  186.2370  177.5850  143.8170 N   0  0  0  0  0  0  0  0  0  0  0  0
  189.4280  178.5010  137.8930 Cl  0  0  0  0  0  0  0  0  0  0  0  0
  183.6590  178.9950  143.4100 O   0  0  0  0  0  0  0  0  0  0  0  0
  183.4550  177.4520  138.0140 N   0  0  0  0  0  1  0  0  0  0  0  0
  187.5990  177.1490  143.4940 C   0  0  0  0  0  2  0  0  0  0  0  0
  186.0950  179.0040  143.4390 C   0  0  2  0  0  3  0  0  0  0  0  0
  187.7760  178.7630  140.0520 C   0  0  0  0  0  3  0  0  0  0  0  0
  182.3650  177.7790  140.1730 C   0  0  0  0  0  3  0  0  0  0  0  0
  187.9650  177.4160  142.0630 C   0  0  0  0  0  0  0  0  0  0  0  0
  189.0640  176.7540  141.5080 C   0  0  0  0  0  3  0  0  0  0  0  0
  184.8010  179.6300  143.9770 C   0  0  0  0  0  2  0  0  0  0  0  0
  183.6260  178.6020  142.0700 C   0  0  0  0  0  0  0  0  0  0  0  0
  182.4210  178.1660  141.5140 C   0  0  0  0  0  3  0  0  0  0  0  0
  186.1120  177.4450  145.2660 C   0  0  0  0  0  2  0  0  0  0  0  0
  186.3020  179.0490  147.1790 C   0  0  0  0  0  1  0  0  0  0  0  0
  187.0040  178.4630  145.9660 C   0  0  1  0  0  3  0  0  0  0  0  0
  190.8710  176.9980  147.0320 N   0  0  0  0  0  0  0  0  0  0  0  0
  189.4320  178.1780  145.4600 C   0  0  0  0  0  2  0  0  0  0  0  0
  187.5580  176.9560  148.3650 O   0  0  0  0  0  0  0  0  0  0  0  0
  192.0070  176.0980  147.1050 C   0  0  0  0  0  1  0  0  0  0  0  0
  190.5310  177.1310  145.6190 C   0  0  0  0  0  2  0  0  0  0  0  0
  188.4830  177.0860  147.5220 C   0  0  0  0  0  0  0  0  0  0  0  0
  188.2950  177.8780  146.3300 N   0  0  0  0  0  0  0  0  0  0  0  0
  189.7650  176.3310  147.7150 C   0  0  0  0  0  2  0  0  0  0  0  0
  1 14  2  0  0  0  0
  1  6  1  0  0  0  0
  2  3  1  6  0  0  0
  2 13  1  0  0  0  0
  3 19  1  0  0  0  0
  4  7  1  0  0  0  0
  4 15  2  0  0  0  0
  5  2  1  0  0  0  0
  5 16  2  0  0  0  0
  6 17  2  0  0  0  0
  7  3  2  0  0  0  0
  8 21  1  0  0  0  0
  9  1  1  0  0  0  0
 10 18  1  0  0  0  0
 11  4  1  0  0  0  0
 12  8  1  0  0  0  0
 13  8  1  0  0  0  0
 13 18  1  6  0  0  0
 14  5  1  0  0  0  0
 15 20  1  0  0  0  0
 16 12  1  0  0  0  0
 17 16  1  0  0  0  0
 19 10  1  0  0  0  0
 20 19  2  0  0  0  0
 21 23  1  0  0  0  0
 23 30  1  0  0  0  0
 23 22  1  1  0  0  0
 24 27  1  0  0  0  0
 24 31  1  0  0  0  0
 25 28  1  0  0  0  0
 25 30  1  0  0  0  0
 28 24  1  0  0  0  0
 29 31  1  0  0  0  0
 29 26  2  0  0  0  0
 30 29  1  0  0  0  0
M  END
>  <MODEL>
4

>  <REMARK>
 VINA RESULT:      -6.6      3.919      6.167
  Name = 
  3 active torsions:
  status: ('A' for Active; 'I' for Inactive)
    1  A    between atoms: C_5  and  C_16
    2  A    between atoms: C_5  and  N_30
    3  A    between atoms: N_10  and  C_16
                            x       y       z     vdW  Elec       q    Type
                         _______ _______ _______ _____ _____    ______ ____

>  <TORSDO>
F 3

$$$$
=
 OpenBabel11122411033D

 31 35  0  0  1  0  0  0  0  0999 V2000
  188.8900  177.0980  135.7530 C   0  0  0  0  0  0  0  0  0  0  0  0
  185.1830  176.2570  135.9430 C   0  0  2  0  0  3  0  0  0  0  0  0
  185.1020  174.7640  136.2360 C   0  0  0  0  0  0  0  0  0  0  0  0
  186.1070  172.5480  136.2710 C   0  0  0  0  0  0  0  0  0  0  0  0
  186.5350  176.8400  136.2770 C   0  0  0  0  0  0  0  0  0  0  0  0
  189.0740  177.8350  136.9250 C   0  0  0  0  0  3  0  0  0  0  0  0
  186.2050  173.9200  136.0270 C   0  0  0  0  0  3  0  0  0  0  0  0
  184.3940  177.1080  138.1200 N   0  0  0  0  0  0  0  0  0  0  0  0
  190.2470  176.7890  134.6910 Cl  0  0  0  0  0  0  0  0  0  0  0  0
  182.7510  175.0020  136.8300 O   0  0  0  0  0  0  0  0  0  0  0  0
  187.2360  171.7080  136.0700 N   0  0  0  0  0  1  0  0  0  0  0  0
  185.5500  177.9910  138.3020 C   0  0  0  0  0  2  0  0  0  0  0  0
  184.0750  177.0410  136.6810 C   0  0  2  0  0  3  0  0  0  0  0  0
  187.6240  176.6040  135.4280 C   0  0  0  0  0  3  0  0  0  0  0  0
  184.8990  172.0010  136.7120 C   0  0  0  0  0  3  0  0  0  0  0  0
  186.7230  177.5860  137.4570 C   0  0  0  0  0  0  0  0  0  0  0  0
  187.9900  178.0880  137.7690 C   0  0  0  0  0  3  0  0  0  0  0  0
  182.7260  176.3610  136.4070 C   0  0  0  0  0  2  0  0  0  0  0  0
  183.8780  174.1970  136.6480 C   0  0  0  0  0  0  0  0  0  0  0  0
  183.7870  172.8250  136.8970 C   0  0  0  0  0  3  0  0  0  0  0  0
  183.2950  177.7440  138.8410 C   0  0  0  0  0  2  0  0  0  0  0  0
  182.9090  180.2150  138.9510 C   0  0  0  0  0  1  0  0  0  0  0  0
  183.7630  179.0610  139.4470 C   0  0  1  0  0  3  0  0  0  0  0  0
  183.7230  178.6300  143.6950 N   0  0  0  0  0  0  0  0  0  0  0  0
  182.5280  178.6290  141.5730 C   0  0  0  0  0  2  0  0  0  0  0  0
  186.0890  179.3810  141.1260 O   0  0  0  0  0  0  0  0  0  0  0  0
  183.5920  178.9950  145.0930 C   0  0  0  0  0  1  0  0  0  0  0  0
  182.5190  179.1070  143.0220 C   0  0  0  0  0  2  0  0  0  0  0  0
  184.9720  179.2250  141.6860 C   0  0  0  0  0  0  0  0  0  0  0  0
  183.7770  178.9990  140.9090 N   0  0  0  0  0  0  0  0  0  0  0  0
  184.8700  179.3720  143.1760 C   0  0  0  0  0  2  0  0  0  0  0  0
  1  6  1  0  0  0  0
  2  3  1  1  0  0  0
  2  5  1  0  0  0  0
  2 13  1  0  0  0  0
  3 19  1  0  0  0  0
  4 15  2  0  0  0  0
  5 16  2  0  0  0  0
  6 17  2  0  0  0  0
  7  3  2  0  0  0  0
  7  4  1  0  0  0  0
  8 12  1  0  0  0  0
  8 21  1  0  0  0  0
  9  1  1  0  0  0  0
 11  4  1  0  0  0  0
 13 18  1  1  0  0  0
 13  8  1  0  0  0  0
 14  1  2  0  0  0  0
 14  5  1  0  0  0  0
 15 20  1  0  0  0  0
 16 17  1  0  0  0  0
 16 12  1  0  0  0  0
 18 10  1  0  0  0  0
 19 10  1  0  0  0  0
 19 20  2  0  0  0  0
 21 23  1  0  0  0  0
 23 22  1  1  0  0  0
 23 30  1  0  0  0  0
 24 27  1  0  0  0  0
 25 28  1  0  0  0  0
 26 29  2  0  0  0  0
 28 24  1  0  0  0  0
 29 31  1  0  0  0  0
 30 25  1  0  0  0  0
 30 29  1  0  0  0  0
 31 24  1  0  0  0  0
M  END
>  <MODEL>
5

>  <REMARK>
 VINA RESULT:      -6.6      2.964      4.156
  Name = 
  3 active torsions:
  status: ('A' for Active; 'I' for Inactive)
    1  A    between atoms: C_5  and  C_16
    2  A    between atoms: C_5  and  N_30
    3  A    between atoms: N_10  and  C_16
                            x       y       z     vdW  Elec       q    Type
                         _______ _______ _______ _____ _____    ______ ____

>  <TORSDO>
F 3

$$$$
=
 OpenBabel11122411033D

 31 35  0  0  1  0  0  0  0  0999 V2000
  188.4170  176.8170  136.6120 C   0  0  0  0  0  0  0  0  0  0  0  0
  185.2170  178.3680  137.9660 C   0  0  2  0  0  3  0  0  0  0  0  0
  184.1940  177.2420  138.0290 C   0  0  0  0  0  0  0  0  0  0  0  0
  183.4180  175.0360  137.3560 C   0  0  0  0  0  0  0  0  0  0  0  0
  186.6360  177.8590  137.8870 C   0  0  0  0  0  0  0  0  0  0  0  0
  189.2350  176.8220  137.7430 C   0  0  0  0  0  3  0  0  0  0  0  0
  184.3790  176.0480  137.3130 C   0  0  0  0  0  3  0  0  0  0  0  0
  185.5740  178.6840  140.3860 N   0  0  0  0  0  0  0  0  0  0  0  0
  189.0130  176.1550  135.1040 Cl  0  0  0  0  0  0  0  0  0  0  0  0
  182.7620  178.6130  139.4450 O   0  0  0  0  0  0  0  0  0  0  0  0
  183.6260  173.8260  136.6390 N   0  0  0  0  0  1  0  0  0  0  0  0
  187.0310  178.5610  140.2840 C   0  0  0  0  0  2  0  0  0  0  0  0
  185.0710  179.3360  139.1620 C   0  0  2  0  0  3  0  0  0  0  0  0
  187.1220  177.3360  136.6820 C   0  0  0  0  0  3  0  0  0  0  0  0
  182.2510  175.2120  138.1040 C   0  0  0  0  0  3  0  0  0  0  0  0
  187.4640  177.8640  139.0270 C   0  0  0  0  0  0  0  0  0  0  0  0
  188.7630  177.3550  138.9450 C   0  0  0  0  0  3  0  0  0  0  0  0
  183.5980  179.7530  139.2800 C   0  0  0  0  0  2  0  0  0  0  0  0
  182.9960  177.4230  138.7530 C   0  0  0  0  0  0  0  0  0  0  0  0
  182.0400  176.4050  138.7980 C   0  0  0  0  0  3  0  0  0  0  0  0
  185.3320  179.5460  141.5400 C   0  0  0  0  0  2  0  0  0  0  0  0
  183.9700  177.5030  142.0270 C   0  0  0  0  0  1  0  0  0  0  0  0
  184.5430  178.7870  142.6000 C   0  0  1  0  0  3  0  0  0  0  0  0
  187.1110  178.1810  145.9580 N   0  0  0  0  0  0  0  0  0  0  0  0
  186.7170  178.0220  143.5590 C   0  0  0  0  0  2  0  0  0  0  0  0
  183.8050  179.3770  145.3280 O   0  0  0  0  0  0  0  0  0  0  0  0
  187.7510  177.5030  147.0690 C   0  0  0  0  0  1  0  0  0  0  0  0
  187.2460  177.3050  144.7990 C   0  0  0  0  0  2  0  0  0  0  0  0
  184.9020  178.7940  145.1250 C   0  0  0  0  0  0  0  0  0  0  0  0
  185.3620  178.5230  143.7840 N   0  0  0  0  0  0  0  0  0  0  0  0
  185.6940  178.2900  146.2950 C   0  0  0  0  0  2  0  0  0  0  0  0
  1 14  2  0  0  0  0
  1  6  1  0  0  0  0
  2  5  1  1  0  0  0
  2  3  1  0  0  0  0
  2 13  1  0  0  0  0
  3 19  1  0  0  0  0
  4 15  2  0  0  0  0
  5 16  2  0  0  0  0
  6 17  2  0  0  0  0
  7  4  1  0  0  0  0
  7  3  2  0  0  0  0
  8 21  1  0  0  0  0
  9  1  1  0  0  0  0
 11  4  1  0  0  0  0
 12  8  1  0  0  0  0
 13 18  1  1  0  0  0
 13  8  1  0  0  0  0
 14  5  1  0  0  0  0
 15 20  1  0  0  0  0
 16 12  1  0  0  0  0
 17 16  1  0  0  0  0
 18 10  1  0  0  0  0
 19 20  2  0  0  0  0
 19 10  1  0  0  0  0
 21 23  1  0  0  0  0
 23 22  1  6  0  0  0
 23 30  1  0  0  0  0
 24 31  1  0  0  0  0
 24 27  1  0  0  0  0
 25 30  1  0  0  0  0
 25 28  1  0  0  0  0
 28 24  1  0  0  0  0
 29 26  2  0  0  0  0
 29 31  1  0  0  0  0
 30 29  1  0  0  0  0
M  END
>  <MODEL>
6

>  <REMARK>
 VINA RESULT:      -6.5      2.953      4.390
  Name = 
  3 active torsions:
  status: ('A' for Active; 'I' for Inactive)
    1  A    between atoms: C_5  and  C_16
    2  A    between atoms: C_5  and  N_30
    3  A    between atoms: N_10  and  C_16
                            x       y       z     vdW  Elec       q    Type
                         _______ _______ _______ _____ _____    ______ ____

>  <TORSDO>
F 3

$$$$
=
 OpenBabel11122411033D

 31 35  0  0  1  0  0  0  0  0999 V2000
  184.2480  178.9560  142.1300 C   0  0  0  0  0  0  0  0  0  0  0  0
  187.5180  178.7980  140.1890 C   0  0  2  0  0  3  0  0  0  0  0  0
  188.4310  177.8640  140.9730 C   0  0  0  0  0  0  0  0  0  0  0  0
  189.0290  176.7080  143.0290 C   0  0  0  0  0  0  0  0  0  0  0  0
  186.0630  178.6270  140.5540 C   0  0  0  0  0  0  0  0  0  0  0  0
  183.3880  178.2410  141.2950 C   0  0  0  0  0  3  0  0  0  0  0  0
  188.1670  177.5430  142.3140 C   0  0  0  0  0  3  0  0  0  0  0  0
  187.0910  177.3530  138.2360 N   0  0  0  0  0  0  0  0  0  0  0  0
  183.6580  179.6060  143.6450 Cl  0  0  0  0  0  0  0  0  0  0  0  0
  189.9220  177.7000  139.0530 O   0  0  0  0  0  0  0  0  0  0  0  0
  188.7410  176.3790  144.3820 N   0  0  0  0  0  1  0  0  0  0  0  0
  185.6340  177.4740  138.3440 C   0  0  0  0  0  2  0  0  0  0  0  0
  187.7020  178.6260  138.6640 C   0  0  2  0  0  3  0  0  0  0  0  0
  185.5810  179.1520  141.7600 C   0  0  0  0  0  3  0  0  0  0  0  0
  190.1750  176.1970  142.4150 C   0  0  0  0  0  3  0  0  0  0  0  0
  185.1920  177.9080  139.7120 C   0  0  0  0  0  0  0  0  0  0  0  0
  183.8560  177.7280  140.0820 C   0  0  0  0  0  3  0  0  0  0  0  0
  189.2010  178.6990  138.3390 C   0  0  0  0  0  2  0  0  0  0  0  0
  189.6090  177.3700  140.3730 C   0  0  0  0  0  0  0  0  0  0  0  0
  190.4650  176.5310  141.0910 C   0  0  0  0  0  3  0  0  0  0  0  0
  187.3630  177.1270  136.8190 C   0  0  0  0  0  2  0  0  0  0  0  0
  187.0090  174.9730  135.5920 C   0  0  0  0  0  1  0  0  0  0  0  0
  187.8700  175.7060  136.6070 C   0  0  1  0  0  3  0  0  0  0  0  0
  192.0050  175.9200  135.5600 N   0  0  0  0  0  0  0  0  0  0  0  0
  189.7330  176.7710  135.3320 C   0  0  0  0  0  2  0  0  0  0  0  0
  189.8850  173.8900  137.5960 O   0  0  0  0  0  0  0  0  0  0  0  0
  193.2280  175.6850  134.8180 C   0  0  0  0  0  1  0  0  0  0  0  0
  191.0070  176.3680  134.5940 C   0  0  0  0  0  2  0  0  0  0  0  0
  190.2200  174.7190  136.7090 C   0  0  0  0  0  0  0  0  0  0  0  0
  189.2800  175.6960  136.2140 N   0  0  0  0  0  0  0  0  0  0  0  0
  191.5850  174.6270  136.0950 C   0  0  0  0  0  2  0  0  0  0  0  0
  1  9  1  0  0  0  0
  2  5  1  6  0  0  0
  2  3  1  0  0  0  0
  3  7  1  0  0  0  0
  4 11  1  0  0  0  0
  5 14  2  0  0  0  0
  6  1  2  0  0  0  0
  7  4  2  0  0  0  0
  8 12  1  0  0  0  0
  8 13  1  0  0  0  0
 10 19  1  0  0  0  0
 12 16  1  0  0  0  0
 13 18  1  1  0  0  0
 13  2  1  0  0  0  0
 14  1  1  0  0  0  0
 15  4  1  0  0  0  0
 16 17  2  0  0  0  0
 16  5  1  0  0  0  0
 17  6  1  0  0  0  0
 18 10  1  0  0  0  0
 19  3  2  0  0  0  0
 19 20  1  0  0  0  0
 20 15  2  0  0  0  0
 21  8  1  0  0  0  0
 23 22  1  6  0  0  0
 23 21  1  0  0  0  0
 24 31  1  0  0  0  0
 25 30  1  0  0  0  0
 27 24  1  0  0  0  0
 28 25  1  0  0  0  0
 28 24  1  0  0  0  0
 29 26  2  0  0  0  0
 30 23  1  0  0  0  0
 30 29  1  0  0  0  0
 31 29  1  0  0  0  0
M  END
>  <MODEL>
7

>  <REMARK>
 VINA RESULT:      -6.5      3.458      7.895
  Name = 
  3 active torsions:
  status: ('A' for Active; 'I' for Inactive)
    1  A    between atoms: C_5  and  C_16
    2  A    between atoms: C_5  and  N_30
    3  A    between atoms: N_10  and  C_16
                            x       y       z     vdW  Elec       q    Type
                         _______ _______ _______ _____ _____    ______ ____

>  <TORSDO>
F 3

$$$$
=
 OpenBabel11122411033D

 31 35  0  0  1  0  0  0  0  0999 V2000
  187.7920  178.2060  142.0160 C   0  0  0  0  0  0  0  0  0  0  0  0
  184.9730  179.1740  139.6500 C   0  0  2  0  0  3  0  0  0  0  0  0
  184.9530  178.1120  138.5580 C   0  0  0  0  0  0  0  0  0  0  0  0
  186.0330  176.3160  137.3200 C   0  0  0  0  0  0  0  0  0  0  0  0
  185.7050  178.7180  140.8880 C   0  0  0  0  0  0  0  0  0  0  0  0
  187.0840  177.7860  143.1440 C   0  0  0  0  0  3  0  0  0  0  0  0
  186.0530  177.2650  138.3450 C   0  0  0  0  0  3  0  0  0  0  0  0
  182.8730  178.5710  140.7950 N   0  0  0  0  0  0  0  0  0  0  0  0
  189.5420  178.1440  142.0080 Cl  0  0  0  0  0  0  0  0  0  0  0  0
  182.7510  178.8740  137.8470 O   0  0  0  0  0  0  0  0  0  0  0  0
  187.1480  175.4560  137.1260 N   0  0  0  0  0  1  0  0  0  0  0  0
  183.5070  178.4820  142.1150 C   0  0  0  0  0  2  0  0  0  0  0  0
  183.5450  179.6330  140.0220 C   0  0  2  0  0  3  0  0  0  0  0  0
  187.1060  178.6740  140.8920 C   0  0  0  0  0  3  0  0  0  0  0  0
  184.9170  176.2130  136.4860 C   0  0  0  0  0  3  0  0  0  0  0  0
  184.9940  178.2960  142.0280 C   0  0  0  0  0  0  0  0  0  0  0  0
  185.6880  177.8420  143.1540 C   0  0  0  0  0  3  0  0  0  0  0  0
  182.7910  179.9880  138.7330 C   0  0  0  0  0  2  0  0  0  0  0  0
  183.8460  178.0220  137.6880 C   0  0  0  0  0  0  0  0  0  0  0  0
  183.8280  177.0670  136.6680 C   0  0  0  0  0  3  0  0  0  0  0  0
  181.4850  178.9470  141.0490 C   0  0  0  0  0  2  0  0  0  0  0  0
  179.2820  177.9680  141.7250 C   0  0  0  0  0  1  0  0  0  0  0  0
  180.5940  177.7130  141.0020 C   0  0  1  0  0  3  0  0  0  0  0  0
  180.0220  176.6620  136.9030 N   0  0  0  0  0  0  0  0  0  0  0  0
  179.5020  178.1090  138.7920 C   0  0  0  0  0  2  0  0  0  0  0  0
  181.8750  175.4690  139.7140 O   0  0  0  0  0  0  0  0  0  0  0  0
  179.4340  176.0350  135.7340 C   0  0  0  0  0  1  0  0  0  0  0  0
  178.9310  177.3090  137.6250 C   0  0  0  0  0  2  0  0  0  0  0  0
  181.0030  176.1040  139.0660 C   0  0  0  0  0  0  0  0  0  0  0  0
  180.3660  177.2730  139.6250 N   0  0  0  0  0  0  0  0  0  0  0  0
  180.5530  175.5830  137.7330 C   0  0  0  0  0  2  0  0  0  0  0  0
  1  6  1  0  0  0  0
  2  3  1  6  0  0  0
  2 13  1  0  0  0  0
  2  5  1  0  0  0  0
  4  7  2  0  0  0  0
  5 14  1  0  0  0  0
  5 16  2  0  0  0  0
  6 17  2  0  0  0  0
  7  3  1  0  0  0  0
  8 21  1  0  0  0  0
  8 12  1  0  0  0  0
  9  1  1  0  0  0  0
 10 18  1  0  0  0  0
 11  4  1  0  0  0  0
 13 18  1  6  0  0  0
 13  8  1  0  0  0  0
 14  1  2  0  0  0  0
 15 20  2  0  0  0  0
 15  4  1  0  0  0  0
 16 12  1  0  0  0  0
 16 17  1  0  0  0  0
 19 10  1  0  0  0  0
 19  3  2  0  0  0  0
 20 19  1  0  0  0  0
 23 21  1  0  0  0  0
 23 22  1  6  0  0  0
 24 28  1  0  0  0  0
 24 31  1  0  0  0  0
 25 30  1  0  0  0  0
 27 24  1  0  0  0  0
 28 25  1  0  0  0  0
 29 30  1  0  0  0  0
 29 26  2  0  0  0  0
 30 23  1  0  0  0  0
 31 29  1  0  0  0  0
M  END
>  <MODEL>
8

>  <REMARK>
 VINA RESULT:      -6.5      4.461      6.977
  Name = 
  3 active torsions:
  status: ('A' for Active; 'I' for Inactive)
    1  A    between atoms: C_5  and  C_16
    2  A    between atoms: C_5  and  N_30
    3  A    between atoms: N_10  and  C_16
                            x       y       z     vdW  Elec       q    Type
                         _______ _______ _______ _____ _____    ______ ____

>  <TORSDO>
F 3

$$$$
=
 OpenBabel11122411033D

 31 35  0  0  1  0  0  0  0  0999 V2000
  189.5760  177.1790  137.9450 C   0  0  0  0  0  0  0  0  0  0  0  0
  186.1330  176.6420  136.4140 C   0  0  2  0  0  3  0  0  0  0  0  0
  185.8160  175.1630  136.5930 C   0  0  0  0  0  0  0  0  0  0  0  0
  186.5250  172.8730  137.0120 C   0  0  0  0  0  0  0  0  0  0  0  0
  187.2270  177.1160  137.3400 C   0  0  0  0  0  0  0  0  0  0  0  0
  189.2650  177.9070  139.0950 C   0  0  0  0  0  3  0  0  0  0  0  0
  186.8260  174.2310  136.8800 C   0  0  0  0  0  3  0  0  0  0  0  0
  184.5110  177.5700  138.0240 N   0  0  0  0  0  0  0  0  0  0  0  0
  191.2390  176.7530  137.6020 Cl  0  0  0  0  0  0  0  0  0  0  0  0
  183.4760  175.5940  136.0680 O   0  0  0  0  0  0  0  0  0  0  0  0
  187.5550  171.9420  137.3170 N   0  0  0  0  0  1  0  0  0  0  0  0
  185.5220  178.3580  138.7350 C   0  0  0  0  0  2  0  0  0  0  0  0
  184.8740  177.5190  136.5940 C   0  0  2  0  0  3  0  0  0  0  0  0
  188.5610  176.7870  137.0680 C   0  0  0  0  0  3  0  0  0  0  0  0
  185.2110  172.4290  136.8430 C   0  0  0  0  0  3  0  0  0  0  0  0
  186.9160  177.8530  138.5000 C   0  0  0  0  0  0  0  0  0  0  0  0
  187.9380  178.2530  139.3650 C   0  0  0  0  0  3  0  0  0  0  0  0
  183.7480  176.9480  135.7210 C   0  0  0  0  0  2  0  0  0  0  0  0
  184.4990  174.6990  136.3910 C   0  0  0  0  0  0  0  0  0  0  0  0
  184.2010  173.3410  136.5300 C   0  0  0  0  0  3  0  0  0  0  0  0
  183.2560  178.2990  138.1890 C   0  0  0  0  0  2  0  0  0  0  0  0
  182.9000  176.1770  139.4680 C   0  0  0  0  0  1  0  0  0  0  0  0
  182.2380  177.4260  138.9130 C   0  0  1  0  0  3  0  0  0  0  0  0
  180.3930  179.8060  141.9410 N   0  0  0  0  0  0  0  0  0  0  0  0
  182.3520  178.6280  141.0980 C   0  0  0  0  0  2  0  0  0  0  0  0
  179.4830  178.2820  138.8410 O   0  0  0  0  0  0  0  0  0  0  0  0
  179.6790  180.1310  143.1610 C   0  0  0  0  0  1  0  0  0  0  0  0
  181.4720  178.8980  142.3160 C   0  0  0  0  0  2  0  0  0  0  0  0
  180.1490  178.5200  139.8830 C   0  0  0  0  0  0  0  0  0  0  0  0
  181.5480  178.1740  139.9640 N   0  0  0  0  0  0  0  0  0  0  0  0
  179.4540  179.0820  141.0870 C   0  0  0  0  0  2  0  0  0  0  0  0
  1  6  1  0  0  0  0
  2  3  1  1  0  0  0
  2 13  1  0  0  0  0
  2  5  1  0  0  0  0
  3  7  1  0  0  0  0
  4 11  1  0  0  0  0
  5 16  2  0  0  0  0
  6 17  2  0  0  0  0
  7  4  2  0  0  0  0
  8 21  1  0  0  0  0
  8 12  1  0  0  0  0
  9  1  1  0  0  0  0
 10 19  1  0  0  0  0
 13 18  1  6  0  0  0
 13  8  1  0  0  0  0
 14  5  1  0  0  0  0
 14  1  2  0  0  0  0
 15  4  1  0  0  0  0
 16 12  1  0  0  0  0
 16 17  1  0  0  0  0
 18 10  1  0  0  0  0
 19 20  1  0  0  0  0
 19  3  2  0  0  0  0
 20 15  2  0  0  0  0
 21 23  1  0  0  0  0
 23 22  1  1  0  0  0
 23 30  1  0  0  0  0
 24 28  1  0  0  0  0
 24 27  1  0  0  0  0
 25 28  1  0  0  0  0
 26 29  2  0  0  0  0
 29 30  1  0  0  0  0
 29 31  1  0  0  0  0
 30 25  1  0  0  0  0
 31 24  1  0  0  0  0
M  END
>  <MODEL>
9

>  <REMARK>
 VINA RESULT:      -6.3      3.406      4.850
  Name = 
  3 active torsions:
  status: ('A' for Active; 'I' for Inactive)
    1  A    between atoms: C_5  and  C_16
    2  A    between atoms: C_5  and  N_30
    3  A    between atoms: N_10  and  C_16
                            x       y       z     vdW  Elec       q    Type
                         _______ _______ _______ _____ _____    ______ ____

>  <TORSDO>
F 3

$$$$
