=
 OpenBabel11122411583D

 28 32  0  0  1  0  0  0  0  0999 V2000
  184.6320  177.5300  138.0970 C   0  0  0  0  0  0  0  0  0  0  0  0
  182.5030  179.8590  138.6750 O   0  0  0  0  0  0  0  0  0  0  0  0
  186.1870  178.3200  143.8320 O   0  0  0  0  0  0  0  0  0  0  0  0
  183.2750  175.1230  137.6110 C   0  0  0  0  0  3  0  0  0  0  0  0
  183.9940  179.2180  143.4000 C   0  0  1  0  0  3  0  0  0  0  0  0
  185.5150  178.7070  138.3170 C   0  0  0  0  0  2  0  0  0  0  0  0
  180.7510  178.2010  138.1970 O   0  0  0  0  0  0  0  0  0  0  0  0
  181.3900  179.0400  139.2660 S   0  0  0  0  0  0  0  0  0  0  0  0
  180.0420  180.1960  141.3580 C   0  0  0  0  0  0  0  0  0  0  0  0
  181.9770  177.9730  140.5840 C   0  0  2  0  0  3  0  0  0  0  0  0
  188.2040  177.3220  140.3120 O   0  0  0  0  0  0  0  0  0  0  0  0
  184.2140  178.8660  140.9490 C   0  0  1  0  0  3  0  0  0  0  0  0
  180.7960  179.5490  142.2000 N   0  0  0  0  0  0  0  0  0  0  0  0
  180.2180  180.0970  139.9470 N   0  0  0  0  0  2  0  0  0  0  0  0
  187.2840  178.1260  140.0170 C   0  0  0  0  0  0  0  0  0  0  0  0
  183.7930  176.9840  139.1020 C   0  0  0  0  0  0  0  0  0  0  0  0
  185.2830  178.6200  143.0060 C   0  0  0  0  0  0  0  0  0  0  0  0
  178.9310  181.0300  141.8840 C   0  0  0  0  0  1  0  0  0  0  0  0
  186.7260  179.0170  141.0710 C   0  0  0  0  0  2  0  0  0  0  0  0
  183.1320  175.7740  138.8360 C   0  0  0  0  0  3  0  0  0  0  0  0
  184.7660  176.8650  136.8700 C   0  0  0  0  0  3  0  0  0  0  0  0
  184.0860  175.6730  136.6240 C   0  0  0  0  0  3  0  0  0  0  0  0
  186.8400  178.2210  138.6660 N   0  0  0  0  0  2  0  0  0  0  0  0
  183.2900  179.4520  142.0410 C   0  0  1  0  0  3  0  0  0  0  0  0
  185.4680  178.5160  141.6060 N   0  0  0  0  0  0  0  0  0  0  0  0
  181.9620  178.7070  141.9100 C   0  0  2  0  0  3  0  0  0  0  0  0
  183.2620  178.2960  144.3720 C   0  0  0  0  0  1  0  0  0  0  0  0
  183.4590  177.6320  140.4340 C   0  0  2  0  0  3  0  0  0  0  0  0
  1  6  1  0  0  0  0
  1 16  1  0  0  0  0
  2  8  2  0  0  0  0
  4 20  1  0  0  0  0
  5 27  1  1  0  0  0
  6 23  1  0  0  0  0
  7  8  2  0  0  0  0
  8 14  1  0  0  0  0
  9 18  1  0  0  0  0
  9 13  2  0  0  0  0
 10  8  1  6  0  0  0
 10 26  1  0  0  0  0
 12 25  1  1  0  0  0
 12 24  1  0  0  0  0
 14  9  1  0  0  0  0
 15 11  2  0  0  0  0
 15 19  1  0  0  0  0
 16 28  1  0  0  0  0
 17  5  1  0  0  0  0
 17  3  2  0  0  0  0
 19 25  1  0  0  0  0
 20 16  2  0  0  0  0
 21  1  2  0  0  0  0
 22 21  1  0  0  0  0
 22  4  2  0  0  0  0
 23 15  1  0  0  0  0
 24  5  1  0  0  0  0
 25 17  1  0  0  0  0
 26 24  1  0  0  0  0
 26 13  1  0  0  0  0
 28 10  1  0  0  0  0
 28 12  1  0  0  0  0
M  END
>  <MODEL>
1

>  <REMARK>
 VINA RESULT:      -5.7      0.000      0.000
  Name = 
  0 active torsions:
  status: ('A' for Active; 'I' for Inactive)
                            x       y       z     vdW  Elec       q    Type
                         _______ _______ _______ _____ _____    ______ ____

>  <TORSDO>
F 0

$$$$
=
 OpenBabel11122411583D

 28 32  0  0  1  0  0  0  0  0999 V2000
  179.9680  179.9610  139.0850 C   0  0  0  0  0  0  0  0  0  0  0  0
  181.3140  177.3000  137.9030 O   0  0  0  0  0  0  0  0  0  0  0  0
  183.9220  179.2880  143.5400 O   0  0  0  0  0  0  0  0  0  0  0  0
  180.5290  182.1250  137.3900 C   0  0  0  0  0  3  0  0  0  0  0  0
  184.6040  178.0540  141.5870 C   0  0  1  0  0  3  0  0  0  0  0  0
  179.5660  178.9390  140.0900 C   0  0  0  0  0  2  0  0  0  0  0  0
  182.0050  178.6610  135.9740 O   0  0  0  0  0  0  0  0  0  0  0  0
  182.4850  177.9100  137.1830 S   0  0  0  0  0  0  0  0  0  0  0  0
  184.8320  176.4950  137.3140 C   0  0  0  0  0  0  0  0  0  0  0  0
  183.4100  179.0240  138.2430 C   0  0  2  0  0  3  0  0  0  0  0  0
  180.0010  180.6940  143.2300 O   0  0  0  0  0  0  0  0  0  0  0  0
  182.4530  178.5000  140.4220 C   0  0  1  0  0  3  0  0  0  0  0  0
  185.2210  177.2340  138.3120 N   0  0  0  0  0  0  0  0  0  0  0  0
  183.5570  176.6580  136.6970 N   0  0  0  0  0  2  0  0  0  0  0  0
  180.1440  179.7580  142.4030 C   0  0  0  0  0  0  0  0  0  0  0  0
  181.3160  180.3360  138.8510 C   0  0  0  0  0  0  0  0  0  0  0  0
  183.6630  178.8650  142.3810 C   0  0  0  0  0  0  0  0  0  0  0  0
  185.7660  175.4770  136.7680 C   0  0  0  0  0  1  0  0  0  0  0  0
  181.2300  178.7600  142.6090 C   0  0  0  0  0  2  0  0  0  0  0  0
  181.5690  181.4280  138.0040 C   0  0  0  0  0  3  0  0  0  0  0  0
  178.9330  180.6710  138.4620 C   0  0  0  0  0  3  0  0  0  0  0  0
  179.2090  181.7410  137.6120 C   0  0  0  0  0  3  0  0  0  0  0  0
  179.2220  179.6260  141.3240 N   0  0  0  0  0  2  0  0  0  0  0  0
  183.7960  177.7430  140.3040 C   0  0  1  0  0  3  0  0  0  0  0  0
  182.3930  179.0350  141.7780 N   0  0  0  0  0  0  0  0  0  0  0  0
  184.4590  178.2630  139.0290 C   0  0  2  0  0  3  0  0  0  0  0  0
  185.9090  178.8170  141.3760 C   0  0  0  0  0  1  0  0  0  0  0  0
  182.5470  179.6080  139.3620 C   0  0  2  0  0  3  0  0  0  0  0  0
  1  6  1  0  0  0  0
  4 22  2  0  0  0  0
  4 20  1  0  0  0  0
  5 27  1  6  0  0  0
  5 17  1  0  0  0  0
  6 23  1  0  0  0  0
  7  8  2  0  0  0  0
  8  2  2  0  0  0  0
  9 13  2  0  0  0  0
 10  8  1  6  0  0  0
 10 26  1  0  0  0  0
 10 28  1  0  0  0  0
 12 25  1  1  0  0  0
 13 26  1  0  0  0  0
 14  8  1  0  0  0  0
 14  9  1  0  0  0  0
 15 19  1  0  0  0  0
 15 11  2  0  0  0  0
 16  1  1  0  0  0  0
 16 28  1  0  0  0  0
 17  3  2  0  0  0  0
 18  9  1  0  0  0  0
 20 16  2  0  0  0  0
 21  1  2  0  0  0  0
 22 21  1  0  0  0  0
 23 15  1  0  0  0  0
 24 12  1  0  0  0  0
 24  5  1  0  0  0  0
 25 17  1  0  0  0  0
 25 19  1  0  0  0  0
 26 24  1  0  0  0  0
 28 12  1  0  0  0  0
M  END
>  <MODEL>
2

>  <REMARK>
 VINA RESULT:      -5.6      2.481      5.564
  Name = 
  0 active torsions:
  status: ('A' for Active; 'I' for Inactive)
                            x       y       z     vdW  Elec       q    Type
                         _______ _______ _______ _____ _____    ______ ____

>  <TORSDO>
F 0

$$$$
=
 OpenBabel11122411583D

 28 32  0  0  1  0  0  0  0  0999 V2000
  181.8820  177.6020  137.1560 C   0  0  0  0  0  0  0  0  0  0  0  0
  182.8190  174.5390  137.3310 O   0  0  0  0  0  0  0  0  0  0  0  0
  187.7230  178.8180  137.7380 O   0  0  0  0  0  0  0  0  0  0  0  0
  180.8660  178.1240  134.5940 C   0  0  0  0  0  3  0  0  0  0  0  0
  187.3820  176.5470  137.0110 C   0  0  1  0  0  3  0  0  0  0  0  0
  182.3730  177.5090  138.5580 C   0  0  0  0  0  2  0  0  0  0  0  0
  181.9410  174.2740  135.0490 O   0  0  0  0  0  0  0  0  0  0  0  0
  183.1840  174.3060  135.8910 S   0  0  0  0  0  0  0  0  0  0  0  0
  185.4030  172.7500  135.4620 C   0  0  0  0  0  0  0  0  0  0  0  0
  184.2870  175.5790  135.2710 C   0  0  2  0  0  3  0  0  0  0  0  0
  184.1690  180.6270  138.9820 O   0  0  0  0  0  0  0  0  0  0  0  0
  184.9220  176.6970  137.3400 C   0  0  1  0  0  3  0  0  0  0  0  0
  186.1310  173.8220  135.3430 N   0  0  0  0  0  0  0  0  0  0  0  0
  184.0100  172.8040  135.7600 N   0  0  0  0  0  2  0  0  0  0  0  0
  183.9990  179.3820  139.0070 C   0  0  0  0  0  0  0  0  0  0  0  0
  182.7200  177.4360  136.0230 C   0  0  0  0  0  0  0  0  0  0  0  0
  186.9340  177.8640  137.5030 C   0  0  0  0  0  0  0  0  0  0  0  0
  186.0350  171.4240  135.2360 C   0  0  0  0  0  1  0  0  0  0  0  0
  185.1850  178.4850  139.0950 C   0  0  0  0  0  2  0  0  0  0  0  0
  182.1880  177.7120  134.7530 C   0  0  0  0  0  3  0  0  0  0  0  0
  180.5550  178.0170  136.9820 C   0  0  0  0  0  3  0  0  0  0  0  0
  180.0450  178.2690  135.7090 C   0  0  0  0  0  3  0  0  0  0  0  0
  182.6760  178.8520  139.0230 N   0  0  0  0  0  2  0  0  0  0  0  0
  186.0670  175.7320  136.9570 C   0  0  1  0  0  3  0  0  0  0  0  0
  185.5520  177.9300  137.8010 N   0  0  0  0  0  0  0  0  0  0  0  0
  185.7310  175.2180  135.5580 C   0  0  2  0  0  3  0  0  0  0  0  0
  188.1170  176.7050  135.6820 C   0  0  0  0  0  1  0  0  0  0  0  0
  184.1390  176.8940  136.0340 C   0  0  2  0  0  3  0  0  0  0  0  0
  1  6  1  0  0  0  0
  4 20  2  0  0  0  0
  4 22  1  0  0  0  0
  5 27  1  6  0  0  0
  5 17  1  0  0  0  0
  6 23  1  0  0  0  0
  7  8  2  0  0  0  0
  8  2  2  0  0  0  0
  9 14  1  0  0  0  0
 10 26  1  0  0  0  0
 10  8  1  1  0  0  0
 10 28  1  0  0  0  0
 11 15  2  0  0  0  0
 12 25  1  6  0  0  0
 13  9  2  0  0  0  0
 13 26  1  0  0  0  0
 14  8  1  0  0  0  0
 15 23  1  0  0  0  0
 15 19  1  0  0  0  0
 16 28  1  0  0  0  0
 16  1  2  0  0  0  0
 17  3  2  0  0  0  0
 17 25  1  0  0  0  0
 18  9  1  0  0  0  0
 20 16  1  0  0  0  0
 21  1  1  0  0  0  0
 22 21  2  0  0  0  0
 24  5  1  0  0  0  0
 24 12  1  0  0  0  0
 25 19  1  0  0  0  0
 26 24  1  0  0  0  0
 28 12  1  0  0  0  0
M  END
>  <MODEL>
3

>  <REMARK>
 VINA RESULT:      -5.4      3.491      6.601
  Name = 
  0 active torsions:
  status: ('A' for Active; 'I' for Inactive)
                            x       y       z     vdW  Elec       q    Type
                         _______ _______ _______ _____ _____    ______ ____

>  <TORSDO>
F 0

$$$$
=
 OpenBabel11122411583D

 28 32  0  0  1  0  0  0  0  0999 V2000
  183.6110  176.0170  136.0300 C   0  0  0  0  0  0  0  0  0  0  0  0
  181.6160  178.3810  136.8810 O   0  0  0  0  0  0  0  0  0  0  0  0
  187.3210  178.4840  140.0400 O   0  0  0  0  0  0  0  0  0  0  0  0
  182.5410  173.5540  136.8410 C   0  0  0  0  0  3  0  0  0  0  0  0
  185.0480  179.1820  140.4230 C   0  0  1  0  0  3  0  0  0  0  0  0
  184.3230  177.2200  135.5210 C   0  0  0  0  0  2  0  0  0  0  0  0
  180.0880  176.6300  137.6830 O   0  0  0  0  0  0  0  0  0  0  0  0
  180.9910  177.7560  138.0970 S   0  0  0  0  0  0  0  0  0  0  0  0
  180.5080  179.4560  140.1960 C   0  0  0  0  0  0  0  0  0  0  0  0
  182.2300  177.1330  139.2360 C   0  0  2  0  0  3  0  0  0  0  0  0
  187.7740  176.5240  136.3790 O   0  0  0  0  0  0  0  0  0  0  0  0
  184.2550  178.1280  138.3160 C   0  0  1  0  0  3  0  0  0  0  0  0
  181.6320  179.0970  140.7440 N   0  0  0  0  0  0  0  0  0  0  0  0
  180.0800  178.9490  138.9340 N   0  0  0  0  0  2  0  0  0  0  0  0
  186.7100  177.1920  136.3320 C   0  0  0  0  0  0  0  0  0  0  0  0
  183.3680  175.7790  137.4070 C   0  0  0  0  0  0  0  0  0  0  0  0
  186.1190  178.5140  139.6610 C   0  0  0  0  0  0  0  0  0  0  0  0
  179.6170  180.3910  140.9300 C   0  0  0  0  0  1  0  0  0  0  0  0
  186.5300  178.3460  137.2560 C   0  0  0  0  0  2  0  0  0  0  0  0
  182.8390  174.5340  137.7870 C   0  0  0  0  0  3  0  0  0  0  0  0
  183.3060  175.0230  135.0900 C   0  0  0  0  0  3  0  0  0  0  0  0
  182.7670  173.8010  135.4900 C   0  0  0  0  0  3  0  0  0  0  0  0
  185.7260  176.8780  135.3500 N   0  0  0  0  0  2  0  0  0  0  0  0
  183.8090  178.9950  139.5150 C   0  0  1  0  0  3  0  0  0  0  0  0
  185.7060  178.0050  138.4070 N   0  0  0  0  0  0  0  0  0  0  0  0
  182.6740  178.2250  140.1900 C   0  0  2  0  0  3  0  0  0  0  0  0
  184.9400  178.5760  141.8200 C   0  0  0  0  0  1  0  0  0  0  0  0
  183.5410  176.7850  138.5310 C   0  0  2  0  0  3  0  0  0  0  0  0
  1 16  1  0  0  0  0
  2  8  2  0  0  0  0
  4 20  1  0  0  0  0
  5 27  1  1  0  0  0
  6  1  1  0  0  0  0
  7  8  2  0  0  0  0
  8 14  1  0  0  0  0
  9 13  2  0  0  0  0
  9 18  1  0  0  0  0
 10  8  1  6  0  0  0
 10 26  1  0  0  0  0
 12 25  1  1  0  0  0
 12 28  1  0  0  0  0
 12 24  1  0  0  0  0
 14  9  1  0  0  0  0
 15 11  2  0  0  0  0
 15 19  1  0  0  0  0
 16 20  2  0  0  0  0
 16 28  1  0  0  0  0
 17  3  2  0  0  0  0
 17  5  1  0  0  0  0
 19 25  1  0  0  0  0
 21 22  1  0  0  0  0
 21  1  2  0  0  0  0
 22  4  2  0  0  0  0
 23  6  1  0  0  0  0
 23 15  1  0  0  0  0
 24 26  1  0  0  0  0
 24  5  1  0  0  0  0
 25 17  1  0  0  0  0
 26 13  1  0  0  0  0
 28 10  1  0  0  0  0
M  END
>  <MODEL>
4

>  <REMARK>
 VINA RESULT:      -5.4      1.751      2.736
  Name = 
  0 active torsions:
  status: ('A' for Active; 'I' for Inactive)
                            x       y       z     vdW  Elec       q    Type
                         _______ _______ _______ _____ _____    ______ ____

>  <TORSDO>
F 0

$$$$
=
 OpenBabel11122411583D

 28 32  0  0  1  0  0  0  0  0999 V2000
  185.8630  174.9440  136.2450 C   0  0  0  0  0  0  0  0  0  0  0  0
  183.4720  176.4360  134.7120 O   0  0  0  0  0  0  0  0  0  0  0  0
  185.2950  179.3770  140.2400 O   0  0  0  0  0  0  0  0  0  0  0  0
  184.9660  172.4550  137.1780 C   0  0  0  0  0  3  0  0  0  0  0  0
  183.3120  179.1730  138.8880 C   0  0  1  0  0  3  0  0  0  0  0  0
  186.5130  176.2140  135.8210 C   0  0  0  0  0  2  0  0  0  0  0  0
  182.1380  174.4030  135.0820 O   0  0  0  0  0  0  0  0  0  0  0  0
  182.2990  175.8510  135.4480 S   0  0  0  0  0  0  0  0  0  0  0  0
  180.2250  177.5760  135.9460 C   0  0  0  0  0  0  0  0  0  0  0  0
  182.4920  175.9940  137.2270 C   0  0  2  0  0  3  0  0  0  0  0  0
  188.4700  177.1180  138.7340 O   0  0  0  0  0  0  0  0  0  0  0  0
  184.3850  177.5210  137.3720 C   0  0  1  0  0  3  0  0  0  0  0  0
  180.6990  177.8020  137.1370 N   0  0  0  0  0  0  0  0  0  0  0  0
  180.8790  176.7170  135.0160 N   0  0  0  0  0  2  0  0  0  0  0  0
  187.6390  177.2870  137.8050 C   0  0  0  0  0  0  0  0  0  0  0  0
  184.7830  174.8890  137.1620 C   0  0  0  0  0  0  0  0  0  0  0  0
  184.7050  178.8570  139.2550 C   0  0  0  0  0  0  0  0  0  0  0  0
  178.9320  178.1990  135.5590 C   0  0  0  0  0  1  0  0  0  0  0  0
  186.6810  178.4230  137.8800 C   0  0  0  0  0  2  0  0  0  0  0  0
  184.3590  173.6310  137.6200 C   0  0  0  0  0  3  0  0  0  0  0  0
  186.4640  173.7560  135.8090 C   0  0  0  0  0  3  0  0  0  0  0  0
  186.0150  172.5170  136.2660 C   0  0  0  0  0  3  0  0  0  0  0  0
  187.6760  176.4320  136.6650 N   0  0  0  0  0  2  0  0  0  0  0  0
  183.0970  178.3450  137.5980 C   0  0  1  0  0  3  0  0  0  0  0  0
  185.3650  178.0030  138.3390 N   0  0  0  0  0  0  0  0  0  0  0  0
  181.9620  177.3280  137.7140 C   0  0  2  0  0  3  0  0  0  0  0  0
  182.3750  178.8450  140.0470 C   0  0  0  0  0  1  0  0  0  0  0  0
  183.9590  176.0700  137.6450 C   0  0  2  0  0  3  0  0  0  0  0  0
  1 16  1  0  0  0  0
  2  8  2  0  0  0  0
  4 20  1  0  0  0  0
  5 17  1  0  0  0  0
  5 27  1  1  0  0  0
  6  1  1  0  0  0  0
  6 23  1  0  0  0  0
  7  8  2  0  0  0  0
  9 13  2  0  0  0  0
 10  8  1  6  0  0  0
 10 28  1  0  0  0  0
 10 26  1  0  0  0  0
 12 24  1  0  0  0  0
 12 28  1  0  0  0  0
 12 25  1  1  0  0  0
 13 26  1  0  0  0  0
 14  8  1  0  0  0  0
 14  9  1  0  0  0  0
 15 19  1  0  0  0  0
 15 11  2  0  0  0  0
 16 20  2  0  0  0  0
 16 28  1  0  0  0  0
 17  3  2  0  0  0  0
 18  9  1  0  0  0  0
 19 25  1  0  0  0  0
 21  1  2  0  0  0  0
 21 22  1  0  0  0  0
 22  4  2  0  0  0  0
 23 15  1  0  0  0  0
 24 26  1  0  0  0  0
 24  5  1  0  0  0  0
 25 17  1  0  0  0  0
M  END
>  <MODEL>
5

>  <REMARK>
 VINA RESULT:      -5.3      3.114      4.214
  Name = 
  0 active torsions:
  status: ('A' for Active; 'I' for Inactive)
                            x       y       z     vdW  Elec       q    Type
                         _______ _______ _______ _____ _____    ______ ____

>  <TORSDO>
F 0

$$$$
=
 OpenBabel11122411583D

 28 32  0  0  1  0  0  0  0  0999 V2000
  188.6500  175.5100  136.3940 C   0  0  0  0  0  0  0  0  0  0  0  0
  186.3070  177.0900  134.8750 O   0  0  0  0  0  0  0  0  0  0  0  0
  187.0690  178.8630  141.1050 O   0  0  0  0  0  0  0  0  0  0  0  0
  187.9470  172.8060  136.6400 C   0  0  0  0  0  3  0  0  0  0  0  0
  185.3070  178.7930  139.4640 C   0  0  1  0  0  3  0  0  0  0  0  0
  189.1920  176.8960  136.3470 C   0  0  0  0  0  2  0  0  0  0  0  0
  185.1890  174.9160  134.6080 O   0  0  0  0  0  0  0  0  0  0  0  0
  185.1300  176.2530  135.2900 S   0  0  0  0  0  0  0  0  0  0  0  0
  182.8200  177.6310  135.8310 C   0  0  0  0  0  0  0  0  0  0  0  0
  185.0830  176.0090  137.0680 C   0  0  2  0  0  3  0  0  0  0  0  0
  190.6510  177.2910  139.6400 O   0  0  0  0  0  0  0  0  0  0  0  0
  186.7480  177.6260  137.8080 C   0  0  1  0  0  3  0  0  0  0  0  0
  183.1130  177.6240  137.0990 N   0  0  0  0  0  0  0  0  0  0  0  0
  183.6810  177.0650  134.8460 N   0  0  0  0  0  2  0  0  0  0  0  0
  189.9280  177.5900  138.6560 C   0  0  0  0  0  0  0  0  0  0  0  0
  187.4790  175.1540  137.1100 C   0  0  0  0  0  0  0  0  0  0  0  0
  186.6710  178.5270  139.9570 C   0  0  0  0  0  0  0  0  0  0  0  0
  181.5210  178.2080  135.3970 C   0  0  0  0  0  1  0  0  0  0  0  0
  188.8390  178.5910  138.8270 C   0  0  0  0  0  2  0  0  0  0  0  0
  187.1540  173.7930  137.2250 C   0  0  0  0  0  3  0  0  0  0  0  0
  189.4380  174.5090  135.8110 C   0  0  0  0  0  3  0  0  0  0  0  0
  189.0860  173.1640  135.9250 C   0  0  0  0  0  3  0  0  0  0  0  0
  190.2080  177.0210  137.3800 N   0  0  0  0  0  2  0  0  0  0  0  0
  185.3530  178.2610  138.0110 C   0  0  1  0  0  3  0  0  0  0  0  0
  187.5360  177.9630  138.9880 N   0  0  0  0  0  0  0  0  0  0  0  0
  184.3420  177.1470  137.7420 C   0  0  2  0  0  3  0  0  0  0  0  0
  184.2790  178.1310  140.3780 C   0  0  0  0  0  1  0  0  0  0  0  0
  186.4680  176.1190  137.7040 C   0  0  2  0  0  3  0  0  0  0  0  0
  1 16  1  0  0  0  0
  2  8  2  0  0  0  0
  4 20  1  0  0  0  0
  5 17  1  0  0  0  0
  5 27  1  1  0  0  0
  6  1  1  0  0  0  0
  6 23  1  0  0  0  0
  7  8  2  0  0  0  0
  9 13  2  0  0  0  0
 10  8  1  6  0  0  0
 10 28  1  0  0  0  0
 10 26  1  0  0  0  0
 12 24  1  0  0  0  0
 12 25  1  1  0  0  0
 13 26  1  0  0  0  0
 14  8  1  0  0  0  0
 14  9  1  0  0  0  0
 15 19  1  0  0  0  0
 15 11  2  0  0  0  0
 16 20  2  0  0  0  0
 16 28  1  0  0  0  0
 17  3  2  0  0  0  0
 18  9  1  0  0  0  0
 19 25  1  0  0  0  0
 21 22  1  0  0  0  0
 21  1  2  0  0  0  0
 22  4  2  0  0  0  0
 23 15  1  0  0  0  0
 24  5  1  0  0  0  0
 25 17  1  0  0  0  0
 26 24  1  0  0  0  0
 28 12  1  0  0  0  0
M  END
>  <MODEL>
6

>  <REMARK>
 VINA RESULT:      -5.2      3.635      4.973
  Name = 
  0 active torsions:
  status: ('A' for Active; 'I' for Inactive)
                            x       y       z     vdW  Elec       q    Type
                         _______ _______ _______ _____ _____    ______ ____

>  <TORSDO>
F 0

$$$$
=
 OpenBabel11122411583D

 28 32  0  0  1  0  0  0  0  0999 V2000
  186.3110  175.1580  136.3670 C   0  0  0  0  0  0  0  0  0  0  0  0
  183.6360  174.8430  134.6250 O   0  0  0  0  0  0  0  0  0  0  0  0
  182.7320  177.9150  140.3060 O   0  0  0  0  0  0  0  0  0  0  0  0
  187.1840  172.6270  137.2060 C   0  0  0  0  0  3  0  0  0  0  0  0
  181.4540  176.5630  138.7770 C   0  0  1  0  0  3  0  0  0  0  0  0
  186.0080  176.5700  136.0090 C   0  0  0  0  0  2  0  0  0  0  0  0
  183.9200  172.4120  134.8640 O   0  0  0  0  0  0  0  0  0  0  0  0
  183.0770  173.5940  135.2470 S   0  0  0  0  0  0  0  0  0  0  0  0
  180.3510  173.5350  135.5580 C   0  0  0  0  0  0  0  0  0  0  0  0
  183.0090  173.7170  137.0370 C   0  0  2  0  0  3  0  0  0  0  0  0
  186.7060  178.3410  139.0920 O   0  0  0  0  0  0  0  0  0  0  0  0
  183.4420  176.0930  137.3610 C   0  0  1  0  0  3  0  0  0  0  0  0
  180.4840  173.9400  136.7880 N   0  0  0  0  0  0  0  0  0  0  0  0
  181.4680  173.3620  134.6890 N   0  0  0  0  0  2  0  0  0  0  0  0
  186.0310  177.9900  138.0910 C   0  0  0  0  0  0  0  0  0  0  0  0
  185.4660  174.3610  137.1810 C   0  0  0  0  0  0  0  0  0  0  0  0
  182.6890  177.1990  139.2690 C   0  0  0  0  0  0  0  0  0  0  0  0
  178.9940  173.1990  135.0550 C   0  0  0  0  0  1  0  0  0  0  0  0
  184.5610  178.2310  138.0810 C   0  0  0  0  0  2  0  0  0  0  0  0
  185.9310  173.1010  137.5930 C   0  0  0  0  0  3  0  0  0  0  0  0
  187.5680  174.6690  135.9850 C   0  0  0  0  0  3  0  0  0  0  0  0
  188.0010  173.4090  136.3940 C   0  0  0  0  0  3  0  0  0  0  0  0
  186.6910  177.4350  136.9570 N   0  0  0  0  0  2  0  0  0  0  0  0
  181.9160  175.8740  137.4700 C   0  0  1  0  0  3  0  0  0  0  0  0
  183.8060  177.0330  138.4150 N   0  0  0  0  0  0  0  0  0  0  0  0
  181.7090  174.3600  137.4780 C   0  0  2  0  0  3  0  0  0  0  0  0
  180.8780  175.6360  139.8440 C   0  0  0  0  0  1  0  0  0  0  0  0
  184.0430  174.6980  137.5890 C   0  0  2  0  0  3  0  0  0  0  0  0
  1 16  1  0  0  0  0
  2  8  2  0  0  0  0
  4 20  1  0  0  0  0
  5 17  1  0  0  0  0
  5 27  1  1  0  0  0
  6  1  1  0  0  0  0
  6 23  1  0  0  0  0
  7  8  2  0  0  0  0
  9 13  2  0  0  0  0
 10  8  1  6  0  0  0
 10 26  1  0  0  0  0
 10 28  1  0  0  0  0
 12 24  1  0  0  0  0
 12 28  1  0  0  0  0
 12 25  1  1  0  0  0
 13 26  1  0  0  0  0
 14  8  1  0  0  0  0
 14  9  1  0  0  0  0
 15 11  2  0  0  0  0
 16 28  1  0  0  0  0
 16 20  2  0  0  0  0
 17  3  2  0  0  0  0
 18  9  1  0  0  0  0
 19 15  1  0  0  0  0
 19 25  1  0  0  0  0
 21  1  2  0  0  0  0
 21 22  1  0  0  0  0
 22  4  2  0  0  0  0
 23 15  1  0  0  0  0
 24 26  1  0  0  0  0
 24  5  1  0  0  0  0
 25 17  1  0  0  0  0
M  END
>  <MODEL>
7

>  <REMARK>
 VINA RESULT:      -5.0      3.868      5.598
  Name = 
  0 active torsions:
  status: ('A' for Active; 'I' for Inactive)
                            x       y       z     vdW  Elec       q    Type
                         _______ _______ _______ _____ _____    ______ ____

>  <TORSDO>
F 0

$$$$
=
 OpenBabel11122411583D

 28 32  0  0  1  0  0  0  0  0999 V2000
  180.6410  179.3320  141.6800 C   0  0  0  0  0  0  0  0  0  0  0  0
  180.3500  176.7640  139.7790 O   0  0  0  0  0  0  0  0  0  0  0  0
  186.4780  178.9100  140.3860 O   0  0  0  0  0  0  0  0  0  0  0  0
  179.3700  181.5290  140.4840 C   0  0  0  0  0  3  0  0  0  0  0  0
  185.1470  177.7250  138.7660 C   0  0  1  0  0  3  0  0  0  0  0  0
  181.3500  178.2860  142.4640 C   0  0  0  0  0  2  0  0  0  0  0  0
  178.9650  178.1680  138.3100 O   0  0  0  0  0  0  0  0  0  0  0  0
  180.2760  177.4480  138.4430 S   0  0  0  0  0  0  0  0  0  0  0  0
  181.5820  176.1880  136.3850 C   0  0  0  0  0  0  0  0  0  0  0  0
  181.6190  178.6190  138.2210 C   0  0  2  0  0  3  0  0  0  0  0  0
  184.2470  180.0620  143.7240 O   0  0  0  0  0  0  0  0  0  0  0  0
  183.0660  178.0330  140.0910 C   0  0  1  0  0  3  0  0  0  0  0  0
  182.6200  176.9490  136.5780 N   0  0  0  0  0  0  0  0  0  0  0  0
  180.4160  176.2680  137.2010 N   0  0  0  0  0  2  0  0  0  0  0  0
  183.6240  179.1380  143.1420 C   0  0  0  0  0  0  0  0  0  0  0  0
  181.0840  179.7930  140.4140 C   0  0  0  0  0  0  0  0  0  0  0  0
  185.3540  178.4730  140.0200 C   0  0  0  0  0  0  0  0  0  0  0  0
  181.5940  175.2320  135.2470 C   0  0  0  0  0  1  0  0  0  0  0  0
  184.3660  178.2110  142.2410 C   0  0  0  0  0  2  0  0  0  0  0  0
  180.4360  180.9000  139.8410 C   0  0  0  0  0  3  0  0  0  0  0  0
  179.5690  179.9740  142.3150 C   0  0  0  0  0  3  0  0  0  0  0  0
  178.9310  181.0610  141.7190 C   0  0  0  0  0  3  0  0  0  0  0  0
  182.2370  178.9480  143.4070 N   0  0  0  0  0  2  0  0  0  0  0  0
  183.6430  177.3640  138.8230 C   0  0  1  0  0  3  0  0  0  0  0  0
  184.2020  178.5610  140.8380 N   0  0  0  0  0  0  0  0  0  0  0  0
  182.8400  177.9270  137.6500 C   0  0  2  0  0  3  0  0  0  0  0  0
  185.5780  178.5710  137.5710 C   0  0  0  0  0  1  0  0  0  0  0  0
  182.1530  179.1450  139.5520 C   0  0  2  0  0  3  0  0  0  0  0  0
  1 21  1  0  0  0  0
  1  6  1  0  0  0  0
  4 22  1  0  0  0  0
  5 27  1  6  0  0  0
  5 24  1  0  0  0  0
  5 17  1  0  0  0  0
  6 23  1  0  0  0  0
  7  8  2  0  0  0  0
  8  2  2  0  0  0  0
  9 13  2  0  0  0  0
  9 14  1  0  0  0  0
 10  8  1  1  0  0  0
 10 28  1  0  0  0  0
 12 25  1  1  0  0  0
 13 26  1  0  0  0  0
 14  8  1  0  0  0  0
 15 23  1  0  0  0  0
 15 11  2  0  0  0  0
 16  1  2  0  0  0  0
 17  3  2  0  0  0  0
 17 25  1  0  0  0  0
 18  9  1  0  0  0  0
 19 15  1  0  0  0  0
 20 16  1  0  0  0  0
 20  4  2  0  0  0  0
 22 21  2  0  0  0  0
 24 12  1  0  0  0  0
 25 19  1  0  0  0  0
 26 10  1  0  0  0  0
 26 24  1  0  0  0  0
 28 12  1  0  0  0  0
 28 16  1  0  0  0  0
M  END
>  <MODEL>
8

>  <REMARK>
 VINA RESULT:      -5.0      2.068      5.361
  Name = 
  0 active torsions:
  status: ('A' for Active; 'I' for Inactive)
                            x       y       z     vdW  Elec       q    Type
                         _______ _______ _______ _____ _____    ______ ____

>  <TORSDO>
F 0

$$$$
=
 OpenBabel11122411583D

 28 32  0  0  1  0  0  0  0  0999 V2000
  188.5560  177.7320  136.7280 C   0  0  0  0  0  0  0  0  0  0  0  0
  190.9010  176.4010  134.9900 O   0  0  0  0  0  0  0  0  0  0  0  0
  185.4580  172.8170  135.2520 O   0  0  0  0  0  0  0  0  0  0  0  0
  189.3250  177.8210  139.4240 C   0  0  0  0  0  3  0  0  0  0  0  0
  187.8240  172.4650  134.9680 C   0  0  1  0  0  3  0  0  0  0  0  0
  187.9860  177.7780  135.3540 C   0  0  0  0  0  2  0  0  0  0  0  0
  192.2200  176.3260  137.0630 O   0  0  0  0  0  0  0  0  0  0  0  0
  191.5050  175.5010  136.0310 S   0  0  0  0  0  0  0  0  0  0  0  0
  192.3380  173.0420  135.1440 C   0  0  0  0  0  0  0  0  0  0  0  0
  190.2610  174.4910  136.8390 C   0  0  2  0  0  3  0  0  0  0  0  0
  184.5280  176.8380  135.8950 O   0  0  0  0  0  0  0  0  0  0  0  0
  188.3410  174.8600  135.3860 C   0  0  1  0  0  3  0  0  0  0  0  0
  191.2090  172.5220  135.5300 N   0  0  0  0  0  0  0  0  0  0  0  0
  192.6180  174.4340  135.2720 N   0  0  0  0  0  2  0  0  0  0  0  0
  185.6690  176.7840  135.3700 C   0  0  0  0  0  0  0  0  0  0  0  0
  188.8450  176.5240  137.4130 C   0  0  0  0  0  0  0  0  0  0  0  0
  186.6290  173.2850  135.2390 C   0  0  0  0  0  0  0  0  0  0  0  0
  193.3900  172.1490  134.5940 C   0  0  0  0  0  1  0  0  0  0  0  0
  186.0590  175.5740  134.5940 C   0  0  0  0  0  2  0  0  0  0  0  0
  189.2200  176.5960  138.7640 C   0  0  0  0  0  3  0  0  0  0  0  0
  188.6660  178.9560  137.4020 C   0  0  0  0  0  3  0  0  0  0  0  0
  189.0560  179.0030  138.7400 C   0  0  0  0  0  3  0  0  0  0  0  0
  186.5420  177.9060  135.4650 N   0  0  0  0  0  2  0  0  0  0  0  0
  188.9710  173.5040  134.9970 C   0  0  1  0  0  3  0  0  0  0  0  0
  186.8950  174.6690  135.3690 N   0  0  0  0  0  0  0  0  0  0  0  0
  190.0270  173.2110  136.0610 C   0  0  2  0  0  3  0  0  0  0  0  0
  187.9300  171.3360  135.9910 C   0  0  0  0  0  1  0  0  0  0  0  0
  188.8770  175.1360  136.7990 C   0  0  2  0  0  3  0  0  0  0  0  0
  1 21  2  0  0  0  0
  1 16  1  0  0  0  0
  2  8  2  0  0  0  0
  5 24  1  0  0  0  0
  5 17  1  0  0  0  0
  5 27  1  1  0  0  0
  6 23  1  0  0  0  0
  6  1  1  0  0  0  0
  8  7  2  0  0  0  0
  9 14  1  0  0  0  0
  9 13  2  0  0  0  0
 10  8  1  6  0  0  0
 12 25  1  1  0  0  0
 12 28  1  0  0  0  0
 13 26  1  0  0  0  0
 14  8  1  0  0  0  0
 15 23  1  0  0  0  0
 15 11  2  0  0  0  0
 16 20  2  0  0  0  0
 17  3  2  0  0  0  0
 17 25  1  0  0  0  0
 18  9  1  0  0  0  0
 19 25  1  0  0  0  0
 19 15  1  0  0  0  0
 20  4  1  0  0  0  0
 21 22  1  0  0  0  0
 22  4  2  0  0  0  0
 24 12  1  0  0  0  0
 24 26  1  0  0  0  0
 26 10  1  0  0  0  0
 28 10  1  0  0  0  0
 28 16  1  0  0  0  0
M  END
>  <MODEL>
9

>  <REMARK>
 VINA RESULT:      -4.9      6.217      9.742
  Name = 
  0 active torsions:
  status: ('A' for Active; 'I' for Inactive)
                            x       y       z     vdW  Elec       q    Type
                         _______ _______ _______ _____ _____    ______ ____

>  <TORSDO>
F 0

$$$$
