=
 OpenBabel11122410313D

 30 35  0  0  1  0  0  0  0  0999 V2000
  188.6990  177.9020  145.3260 C   0  0  0  0  0  0  0  0  0  0  0  0
  186.6930  178.1410  146.8060 C   0  0  0  0  0  0  0  0  0  0  0  0
  186.2900  178.3170  141.8970 N   0  0  0  0  0  2  0  0  0  0  0  0
  189.2450  177.8590  144.0090 C   0  0  0  0  0  0  0  0  0  0  0  0
  189.6270  177.8620  146.5220 C   0  0  0  0  0  2  0  0  0  0  0  0
  191.9280  178.9800  145.1140 O   0  0  0  0  0  1  0  0  0  0  0  0
  190.9210  176.8740  141.3190 C   0  0  1  0  0  3  0  0  0  0  0  0
  191.6020  177.6260  144.9960 C   0  0  1  0  0  3  0  0  0  0  0  0
  189.4230  176.8210  141.0060 C   0  0  2  0  0  3  0  0  0  0  0  0
  187.2960  178.2340  140.8980 C   0  0  0  0  0  0  0  0  0  0  0  0
  190.9480  177.1330  146.2810 C   0  0  2  0  0  3  0  0  0  0  0  0
  190.6810  177.3900  143.7990 C   0  0  2  0  0  3  0  0  0  0  0  0
  185.3140  178.3200  146.9340 C   0  0  0  0  0  3  0  0  0  0  0  0
  189.4110  176.6710  139.5060 C   0  0  0  0  0  2  0  0  0  0  0  0
  191.6220  177.2000  140.1500 O   0  0  0  0  0  0  0  0  0  0  0  0
  187.4100  178.0010  147.9480 F   0  0  0  0  0  0  0  0  0  0  0  0
  187.0130  178.2020  143.1120 C   0  0  0  0  0  0  0  0  0  0  0  0
  184.5050  178.4550  145.8080 C   0  0  0  0  0  3  0  0  0  0  0  0
  187.2960  178.0950  145.5200 C   0  0  0  0  0  0  0  0  0  0  0  0
  188.3680  178.0360  142.9210 C   0  0  0  0  0  0  0  0  0  0  0  0
  187.0350  178.3530  139.6730 O   0  0  0  0  0  0  0  0  0  0  0  0
  188.6870  178.0930  141.4540 C   0  0  1  0  0  3  0  0  0  0  0  0
  190.8700  176.6320  139.1140 C   0  0  0  0  0  2  0  0  0  0  0  0
  191.2330  179.1290  142.1950 O   0  0  0  0  0  1  0  0  0  0  0  0
  185.0720  178.4120  144.5380 C   0  0  0  0  0  3  0  0  0  0  0  0
  186.4510  178.2340  144.3840 C   0  0  0  0  0  0  0  0  0  0  0  0
  191.3670  177.7670  142.4840 C   0  0  2  0  0  3  0  0  0  0  0  0
  190.7630  175.6170  146.2640 C   0  0  0  0  0  2  0  0  0  0  0  0
  192.5780  175.6560  147.9750 C   0  0  0  0  0  1  0  0  0  0  0  0
  191.9940  174.9010  146.7960 C   0  0  0  0  0  2  0  0  0  0  0  0
  1 19  1  0  0  0  0
  1  5  1  0  0  0  0
  2 13  1  0  0  0  0
  2 16  1  0  0  0  0
  3 17  1  0  0  0  0
  4  1  2  0  0  0  0
  7 15  1  6  0  0  0
  7 27  1  0  0  0  0
  8  6  1  1  0  0  0
  8 11  1  0  0  0  0
  9 14  1  6  0  0  0
  9  7  1  0  0  0  0
  9 22  1  0  0  0  0
 10  3  1  0  0  0  0
 11 28  1  6  0  0  0
 11  5  1  0  0  0  0
 12  4  1  1  0  0  0
 12  8  1  0  0  0  0
 17 26  1  0  0  0  0
 18 13  2  0  0  0  0
 19  2  2  0  0  0  0
 20 17  2  0  0  0  0
 20  4  1  0  0  0  0
 21 10  2  0  0  0  0
 22 10  1  6  0  0  0
 22 20  1  0  0  0  0
 23 14  1  0  0  0  0
 23 15  1  0  0  0  0
 25 18  1  0  0  0  0
 26 25  2  0  0  0  0
 26 19  1  0  0  0  0
 27 24  1  6  0  0  0
 27 12  1  0  0  0  0
 28 30  1  0  0  0  0
 30 29  1  0  0  0  0
M  END
>  <MODEL>
1

>  <REMARK>
 VINA RESULT:      -8.3      0.000      0.000
  Name = 
  2 active torsions:
  status: ('A' for Active; 'I' for Inactive)
    1  A    between atoms: C_11  and  C_28
    2  A    between atoms: C_28  and  C_30
                            x       y       z     vdW  Elec       q    Type
                         _______ _______ _______ _____ _____    ______ ____

>  <TORSDO>
F 2

$$$$
=
 OpenBabel11122410313D

 30 35  0  0  1  0  0  0  0  0999 V2000
  186.9630  177.9720  138.5930 C   0  0  0  0  0  0  0  0  0  0  0  0
  188.5180  177.3510  136.7310 C   0  0  0  0  0  0  0  0  0  0  0  0
  190.0550  177.4890  141.4120 N   0  0  0  0  0  2  0  0  0  0  0  0
  186.7550  178.1870  139.9880 C   0  0  0  0  0  0  0  0  0  0  0  0
  185.8480  178.2720  137.6150 C   0  0  0  0  0  2  0  0  0  0  0  0
  184.5300  180.2520  139.3090 O   0  0  0  0  0  1  0  0  0  0  0  0
  185.4830  178.0280  143.0490 C   0  0  1  0  0  3  0  0  0  0  0  0
  184.3310  178.8840  139.5150 C   0  0  1  0  0  3  0  0  0  0  0  0
  186.8760  177.3910  143.0660 C   0  0  2  0  0  3  0  0  0  0  0  0
  189.3460  177.8430  142.5920 C   0  0  0  0  0  0  0  0  0  0  0  0
  184.4390  178.1360  138.1920 C   0  0  2  0  0  3  0  0  0  0  0  0
  185.3360  178.3350  140.5280 C   0  0  2  0  0  3  0  0  0  0  0  0
  189.7940  176.9620  136.3160 C   0  0  0  0  0  3  0  0  0  0  0  0
  187.1670  177.2910  144.5420 C   0  0  0  0  0  2  0  0  0  0  0  0
  185.2440  178.6380  144.2870 O   0  0  0  0  0  0  0  0  0  0  0  0
  187.5650  177.4760  135.7760 F   0  0  0  0  0  0  0  0  0  0  0  0
  189.0880  177.6380  140.3840 C   0  0  0  0  0  0  0  0  0  0  0  0
  190.8240  176.7960  137.2380 C   0  0  0  0  0  3  0  0  0  0  0  0
  188.2510  177.5850  138.1070 C   0  0  0  0  0  0  0  0  0  0  0  0
  187.8540  178.0310  140.8550 C   0  0  0  0  0  0  0  0  0  0  0  0
  189.9030  177.8810  143.7200 O   0  0  0  0  0  0  0  0  0  0  0  0
  187.9210  178.2520  142.3400 C   0  0  1  0  0  3  0  0  0  0  0  0
  185.9340  177.8480  145.2150 C   0  0  0  0  0  2  0  0  0  0  0  0
  185.8680  180.1940  141.9980 O   0  0  0  0  0  1  0  0  0  0  0  0
  190.5870  177.0180  138.5910 C   0  0  0  0  0  3  0  0  0  0  0  0
  189.3170  177.4080  139.0320 C   0  0  0  0  0  0  0  0  0  0  0  0
  185.1630  178.9910  141.8990 C   0  0  2  0  0  3  0  0  0  0  0  0
  184.0290  176.6730  138.3470 C   0  0  0  0  0  2  0  0  0  0  0  0
  185.1700  174.7620  137.2190 C   0  0  0  0  0  1  0  0  0  0  0  0
  184.1930  175.9090  137.0420 C   0  0  0  0  0  2  0  0  0  0  0  0
  1  4  1  0  0  0  0
  2 19  1  0  0  0  0
  3 10  1  0  0  0  0
  4 20  2  0  0  0  0
  5 11  1  0  0  0  0
  5  1  1  0  0  0  0
  7  9  1  0  0  0  0
  7 15  1  1  0  0  0
  8  6  1  6  0  0  0
  8 12  1  0  0  0  0
  9 14  1  1  0  0  0
 10 21  2  0  0  0  0
 11 28  1  1  0  0  0
 11  8  1  0  0  0  0
 12  4  1  6  0  0  0
 12 27  1  0  0  0  0
 13  2  2  0  0  0  0
 13 18  1  0  0  0  0
 14 23  1  0  0  0  0
 15 23  1  0  0  0  0
 16  2  1  0  0  0  0
 17 20  1  0  0  0  0
 17  3  1  0  0  0  0
 18 25  2  0  0  0  0
 19  1  2  0  0  0  0
 19 26  1  0  0  0  0
 22 20  1  6  0  0  0
 22 10  1  0  0  0  0
 22  9  1  0  0  0  0
 25 26  1  0  0  0  0
 26 17  2  0  0  0  0
 27 24  1  6  0  0  0
 27  7  1  0  0  0  0
 30 29  1  0  0  0  0
 30 28  1  0  0  0  0
M  END
>  <MODEL>
2

>  <REMARK>
 VINA RESULT:      -8.0      3.567      8.012
  Name = 
  2 active torsions:
  status: ('A' for Active; 'I' for Inactive)
    1  A    between atoms: C_11  and  C_28
    2  A    between atoms: C_28  and  C_30
                            x       y       z     vdW  Elec       q    Type
                         _______ _______ _______ _____ _____    ______ ____

>  <TORSDO>
F 2

$$$$
=
 OpenBabel11122410313D

 30 35  0  0  1  0  0  0  0  0999 V2000
  187.9650  177.8790  139.9240 C   0  0  0  0  0  0  0  0  0  0  0  0
  190.0230  177.3970  141.2660 C   0  0  0  0  0  0  0  0  0  0  0  0
  185.7600  178.5640  143.4450 N   0  0  0  0  0  2  0  0  0  0  0  0
  186.5830  178.2310  139.8940 C   0  0  0  0  0  0  0  0  0  0  0  0
  188.7340  177.7570  138.6260 C   0  0  0  0  0  2  0  0  0  0  0  0
  187.0150  179.5770  137.1230 O   0  0  0  0  0  1  0  0  0  0  0  0
  183.3330  178.2010  139.2210 C   0  0  1  0  0  3  0  0  0  0  0  0
  186.6450  178.2440  137.3280 C   0  0  1  0  0  3  0  0  0  0  0  0
  183.5240  177.9310  140.7160 C   0  0  2  0  0  3  0  0  0  0  0  0
  184.5050  178.8970  142.8690 C   0  0  0  0  0  0  0  0  0  0  0  0
  187.8870  177.3660  137.4150 C   0  0  2  0  0  3  0  0  0  0  0  0
  185.7970  178.1050  138.5930 C   0  0  2  0  0  3  0  0  0  0  0  0
  190.6380  177.2750  142.5150 C   0  0  0  0  0  3  0  0  0  0  0  0
  182.1290  178.1140  141.2580 C   0  0  0  0  0  2  0  0  0  0  0  0
  182.1360  178.9040  139.0310 O   0  0  0  0  0  0  0  0  0  0  0  0
  190.7850  177.1510  140.1720 F   0  0  0  0  0  0  0  0  0  0  0  0
  186.5920  178.3270  142.3210 C   0  0  0  0  0  0  0  0  0  0  0  0
  189.9190  177.4960  143.6870 C   0  0  0  0  0  3  0  0  0  0  0  0
  188.6500  177.7510  141.1720 C   0  0  0  0  0  0  0  0  0  0  0  0
  185.9320  178.4700  141.1200 C   0  0  0  0  0  0  0  0  0  0  0  0
  183.5130  179.2290  143.5700 O   0  0  0  0  0  0  0  0  0  0  0  0
  184.5160  178.9080  141.3650 C   0  0  1  0  0  3  0  0  0  0  0  0
  181.2880  178.4430  140.0460 C   0  0  0  0  0  2  0  0  0  0  0  0
  184.6400  180.2260  138.8440 O   0  0  0  0  0  1  0  0  0  0  0  0
  188.5730  177.8420  143.6210 C   0  0  0  0  0  3  0  0  0  0  0  0
  187.9350  177.9700  142.3820 C   0  0  0  0  0  0  0  0  0  0  0  0
  184.4870  178.8860  138.4760 C   0  0  2  0  0  3  0  0  0  0  0  0
  187.5180  175.8840  137.4380 C   0  0  0  0  0  2  0  0  0  0  0  0
  185.4390  174.7680  136.6250 C   0  0  0  0  0  1  0  0  0  0  0  0
  186.7040  175.4960  136.2120 C   0  0  0  0  0  2  0  0  0  0  0  0
  1 19  1  0  0  0  0
  2 13  1  0  0  0  0
  4  1  2  0  0  0  0
  4 20  1  0  0  0  0
  5  1  1  0  0  0  0
  7 15  1  1  0  0  0
  7  9  1  0  0  0  0
  8  6  1  1  0  0  0
  8 11  1  0  0  0  0
  8 12  1  0  0  0  0
  9 14  1  1  0  0  0
  9 22  1  0  0  0  0
 10  3  1  0  0  0  0
 10 21  2  0  0  0  0
 11 28  1  1  0  0  0
 11  5  1  0  0  0  0
 12  4  1  1  0  0  0
 13 18  2  0  0  0  0
 15 23  1  0  0  0  0
 16  2  1  0  0  0  0
 17 26  1  0  0  0  0
 17  3  1  0  0  0  0
 19  2  2  0  0  0  0
 19 26  1  0  0  0  0
 20 17  2  0  0  0  0
 22 20  1  6  0  0  0
 22 10  1  0  0  0  0
 23 14  1  0  0  0  0
 25 18  1  0  0  0  0
 26 25  2  0  0  0  0
 27 12  1  0  0  0  0
 27 24  1  1  0  0  0
 27  7  1  0  0  0  0
 30 29  1  0  0  0  0
 30 28  1  0  0  0  0
M  END
>  <MODEL>
3

>  <REMARK>
 VINA RESULT:      -7.8      3.599      7.343
  Name = 
  2 active torsions:
  status: ('A' for Active; 'I' for Inactive)
    1  A    between atoms: C_11  and  C_28
    2  A    between atoms: C_28  and  C_30
                            x       y       z     vdW  Elec       q    Type
                         _______ _______ _______ _____ _____    ______ ____

>  <TORSDO>
F 2

$$$$
=
 OpenBabel11122410313D

 30 35  0  0  1  0  0  0  0  0999 V2000
  188.3510  178.0270  144.5600 C   0  0  0  0  0  0  0  0  0  0  0  0
  189.3340  177.7230  146.8420 C   0  0  0  0  0  0  0  0  0  0  0  0
  184.5660  178.8080  146.2330 N   0  0  0  0  0  2  0  0  0  0  0  0
  187.2100  178.3110  143.7510 C   0  0  0  0  0  0  0  0  0  0  0  0
  189.7080  177.8680  143.9090 C   0  0  0  0  0  2  0  0  0  0  0  0
  189.0850  179.5140  141.5790 O   0  0  0  0  0  1  0  0  0  0  0  0
  184.8680  178.0860  141.4100 C   0  0  1  0  0  3  0  0  0  0  0  0
  188.6740  178.1790  141.6470 C   0  0  1  0  0  3  0  0  0  0  0  0
  184.2070  177.9120  142.7800 C   0  0  2  0  0  3  0  0  0  0  0  0
  183.8320  179.0470  145.0390 C   0  0  0  0  0  0  0  0  0  0  0  0
  189.6710  177.3680  142.4660 C   0  0  2  0  0  3  0  0  0  0  0  0
  187.2710  178.0720  142.2450 C   0  0  2  0  0  3  0  0  0  0  0  0
  189.1610  177.7020  148.2290 C   0  0  0  0  0  3  0  0  0  0  0  0
  182.7430  178.0590  142.4530 C   0  0  0  0  0  2  0  0  0  0  0  0
  183.9670  178.7190  140.5440 O   0  0  0  0  0  0  0  0  0  0  0  0
  190.5740  177.4510  146.3670 F   0  0  0  0  0  0  0  0  0  0  0  0
  185.8810  178.5470  145.7700 C   0  0  0  0  0  0  0  0  0  0  0  0
  187.9140  177.9560  148.7940 C   0  0  0  0  0  3  0  0  0  0  0  0
  188.2370  178.0050  145.9850 C   0  0  0  0  0  0  0  0  0  0  0  0
  185.9900  178.5890  144.3970 C   0  0  0  0  0  0  0  0  0  0  0  0
  182.6160  179.3700  145.0550 O   0  0  0  0  0  0  0  0  0  0  0  0
  184.6700  178.9720  143.7920 C   0  0  1  0  0  3  0  0  0  0  0  0
  182.7040  178.2770  140.9580 C   0  0  0  0  0  2  0  0  0  0  0  0
  186.1490  180.1460  141.6620 O   0  0  0  0  0  1  0  0  0  0  0  0
  186.8230  178.2330  147.9750 C   0  0  0  0  0  3  0  0  0  0  0  0
  186.9720  178.2590  146.5840 C   0  0  0  0  0  0  0  0  0  0  0  0
  186.2350  178.7810  141.3710 C   0  0  2  0  0  3  0  0  0  0  0  0
  189.3620  175.8730  142.3920 C   0  0  0  0  0  2  0  0  0  0  0  0
  191.6120  175.8360  143.4710 C   0  0  0  0  0  1  0  0  0  0  0  0
  190.3240  175.0650  143.2490 C   0  0  0  0  0  2  0  0  0  0  0  0
  1 19  1  0  0  0  0
  2 13  1  0  0  0  0
  4 20  1  0  0  0  0
  4  1  2  0  0  0  0
  5  1  1  0  0  0  0
  7 15  1  6  0  0  0
  7  9  1  0  0  0  0
  8  6  1  1  0  0  0
  8 12  1  0  0  0  0
  8 11  1  0  0  0  0
  9 14  1  6  0  0  0
  9 22  1  0  0  0  0
 10 21  2  0  0  0  0
 10  3  1  0  0  0  0
 11 28  1  1  0  0  0
 11  5  1  0  0  0  0
 12  4  1  1  0  0  0
 13 18  2  0  0  0  0
 15 23  1  0  0  0  0
 16  2  1  0  0  0  0
 17  3  1  0  0  0  0
 17 26  1  0  0  0  0
 19 26  1  0  0  0  0
 19  2  2  0  0  0  0
 20 17  2  0  0  0  0
 22 20  1  1  0  0  0
 22 10  1  0  0  0  0
 23 14  1  0  0  0  0
 25 18  1  0  0  0  0
 26 25  2  0  0  0  0
 27  7  1  0  0  0  0
 27 24  1  1  0  0  0
 27 12  1  0  0  0  0
 28 30  1  0  0  0  0
 30 29  1  0  0  0  0
M  END
>  <MODEL>
4

>  <REMARK>
 VINA RESULT:      -7.7      2.451      4.729
  Name = 
  2 active torsions:
  status: ('A' for Active; 'I' for Inactive)
    1  A    between atoms: C_11  and  C_28
    2  A    between atoms: C_28  and  C_30
                            x       y       z     vdW  Elec       q    Type
                         _______ _______ _______ _____ _____    ______ ____

>  <TORSDO>
F 2

$$$$
=
 OpenBabel11122410313D

 30 35  0  0  1  0  0  0  0  0999 V2000
  189.1870  177.3640  140.6490 C   0  0  0  0  0  0  0  0  0  0  0  0
  189.5240  177.7400  138.1970 C   0  0  0  0  0  0  0  0  0  0  0  0
  185.2210  178.7530  140.3740 N   0  0  0  0  0  2  0  0  0  0  0  0
  188.3270  177.4270  141.7860 C   0  0  0  0  0  0  0  0  0  0  0  0
  190.5630  176.7490  140.7850 C   0  0  0  0  0  2  0  0  0  0  0  0
  189.8720  175.0420  143.0520 O   0  0  0  0  0  1  0  0  0  0  0  0
  187.1470  178.0930  144.8150 C   0  0  1  0  0  3  0  0  0  0  0  0
  190.1750  176.3950  143.2370 C   0  0  1  0  0  3  0  0  0  0  0  0
  186.3120  178.8610  143.7870 C   0  0  2  0  0  3  0  0  0  0  0  0
  184.8240  178.5830  141.7280 C   0  0  0  0  0  0  0  0  0  0  0  0
  191.1750  176.8540  142.1820 C   0  0  2  0  0  3  0  0  0  0  0  0
  188.9070  177.2470  143.1860 C   0  0  2  0  0  3  0  0  0  0  0  0
  189.0120  178.1650  136.9680 C   0  0  0  0  0  3  0  0  0  0  0  0
  185.1210  179.3010  144.6000 C   0  0  0  0  0  2  0  0  0  0  0  0
  186.3280  177.7350  145.8940 O   0  0  0  0  0  0  0  0  0  0  0  0
  190.8110  177.3160  138.2200 F   0  0  0  0  0  0  0  0  0  0  0  0
  186.5620  178.2900  140.3580 C   0  0  0  0  0  0  0  0  0  0  0  0
  187.7030  178.6290  136.8640 C   0  0  0  0  0  3  0  0  0  0  0  0
  188.7140  177.7730  139.3640 C   0  0  0  0  0  0  0  0  0  0  0  0
  187.0070  177.8770  141.5960 C   0  0  0  0  0  0  0  0  0  0  0  0
  183.6570  178.8420  142.1210 O   0  0  0  0  0  0  0  0  0  0  0  0
  185.8930  177.9820  142.5990 C   0  0  1  0  0  3  0  0  0  0  0  0
  185.3900  178.7710  145.9900 C   0  0  0  0  0  2  0  0  0  0  0  0
  187.1160  175.8060  143.9680 O   0  0  0  0  0  1  0  0  0  0  0  0
  186.8900  178.6730  137.9930 C   0  0  0  0  0  3  0  0  0  0  0  0
  187.3810  178.2530  139.2350 C   0  0  0  0  0  0  0  0  0  0  0  0
  187.9410  176.8800  144.3130 C   0  0  2  0  0  3  0  0  0  0  0  0
  191.6790  178.2660  142.4740 C   0  0  0  0  0  2  0  0  0  0  0  0
  191.3050  179.8760  144.3440 C   0  0  0  0  0  1  0  0  0  0  0  0
  191.8300  178.5040  143.9690 C   0  0  0  0  0  2  0  0  0  0  0  0
  1  5  1  0  0  0  0
  1  4  1  0  0  0  0
  2 16  1  0  0  0  0
  2 19  1  0  0  0  0
  3 10  1  0  0  0  0
  5 11  1  0  0  0  0
  7 15  1  1  0  0  0
  8  6  1  6  0  0  0
  9 14  1  1  0  0  0
  9  7  1  0  0  0  0
 10 21  2  0  0  0  0
 10 22  1  0  0  0  0
 11 28  1  1  0  0  0
 11  8  1  0  0  0  0
 12  4  1  6  0  0  0
 12  8  1  0  0  0  0
 12 27  1  0  0  0  0
 13  2  2  0  0  0  0
 14 23  1  0  0  0  0
 15 23  1  0  0  0  0
 17  3  1  0  0  0  0
 17 20  1  0  0  0  0
 18 13  1  0  0  0  0
 18 25  2  0  0  0  0
 19  1  2  0  0  0  0
 20  4  2  0  0  0  0
 22 20  1  6  0  0  0
 22  9  1  0  0  0  0
 25 26  1  0  0  0  0
 26 19  1  0  0  0  0
 26 17  2  0  0  0  0
 27 24  1  6  0  0  0
 27  7  1  0  0  0  0
 28 30  1  0  0  0  0
 30 29  1  0  0  0  0
M  END
>  <MODEL>
5

>  <REMARK>
 VINA RESULT:      -7.3      3.059      5.876
  Name = 
  2 active torsions:
  status: ('A' for Active; 'I' for Inactive)
    1  A    between atoms: C_11  and  C_28
    2  A    between atoms: C_28  and  C_30
                            x       y       z     vdW  Elec       q    Type
                         _______ _______ _______ _____ _____    ______ ____

>  <TORSDO>
F 2

$$$$
=
 OpenBabel11122410313D

 30 35  0  0  1  0  0  0  0  0999 V2000
  184.0270  178.5630  140.8430 C   0  0  0  0  0  0  0  0  0  0  0  0
  183.3520  178.9280  143.2260 C   0  0  0  0  0  0  0  0  0  0  0  0
  188.0460  178.0690  141.9980 N   0  0  0  0  0  2  0  0  0  0  0  0
  185.0590  178.3000  139.8940 C   0  0  0  0  0  0  0  0  0  0  0  0
  182.5850  178.6170  140.3840 C   0  0  0  0  0  2  0  0  0  0  0  0
  182.9780  176.8920  138.0610 O   0  0  0  0  0  1  0  0  0  0  0  0
  187.0380  178.5310  137.2400 C   0  0  1  0  0  3  0  0  0  0  0  0
  183.3140  178.2480  138.0130 C   0  0  1  0  0  3  0  0  0  0  0  0
  187.8710  178.8080  138.4950 C   0  0  2  0  0  3  0  0  0  0  0  0
  188.6210  177.8090  140.7240 C   0  0  0  0  0  0  0  0  0  0  0  0
  182.3940  179.0460  138.9290 C   0  0  2  0  0  3  0  0  0  0  0  0
  184.7770  178.4600  138.4030 C   0  0  2  0  0  3  0  0  0  0  0  0
  183.7130  179.0270  144.5720 C   0  0  0  0  0  3  0  0  0  0  0  0
  189.2820  178.7240  137.9710 C   0  0  0  0  0  2  0  0  0  0  0  0
  187.8470  177.9050  136.2830 O   0  0  0  0  0  0  0  0  0  0  0  0
  182.0440  179.1100  142.9190 F   0  0  0  0  0  0  0  0  0  0  0  0
  186.6660  178.2360  141.7150 C   0  0  0  0  0  0  0  0  0  0  0  0
  185.0400  178.8690  144.9670 C   0  0  0  0  0  3  0  0  0  0  0  0
  184.3350  178.6620  142.2350 C   0  0  0  0  0  0  0  0  0  0  0  0
  186.3710  178.1200  140.3730 C   0  0  0  0  0  0  0  0  0  0  0  0
  189.8440  177.5520  140.5820 O   0  0  0  0  0  0  0  0  0  0  0  0
  187.6170  177.7780  139.6050 C   0  0  1  0  0  3  0  0  0  0  0  0
  189.1270  178.4330  136.4960 C   0  0  0  0  0  2  0  0  0  0  0  0
  185.9290  176.4220  137.7560 O   0  0  0  0  0  1  0  0  0  0  0  0
  186.0210  178.6090  144.0150 C   0  0  0  0  0  3  0  0  0  0  0  0
  185.6830  178.5060  142.6610 C   0  0  0  0  0  0  0  0  0  0  0  0
  185.7230  177.7640  137.4230 C   0  0  2  0  0  3  0  0  0  0  0  0
  182.6000  180.5490  138.7500 C   0  0  0  0  0  2  0  0  0  0  0  0
  180.8180  180.9100  137.0410 C   0  0  0  0  0  1  0  0  0  0  0  0
  181.2890  181.2560  138.4410 C   0  0  0  0  0  2  0  0  0  0  0  0
  1 19  1  0  0  0  0
  2 13  1  0  0  0  0
  4 20  1  0  0  0  0
  4  1  2  0  0  0  0
  5  1  1  0  0  0  0
  7 15  1  6  0  0  0
  7 27  1  0  0  0  0
  7  9  1  0  0  0  0
  8  6  1  1  0  0  0
  8 12  1  0  0  0  0
  8 11  1  0  0  0  0
  9 14  1  6  0  0  0
  9 22  1  0  0  0  0
 10  3  1  0  0  0  0
 11 28  1  1  0  0  0
 11  5  1  0  0  0  0
 12  4  1  1  0  0  0
 13 18  2  0  0  0  0
 15 23  1  0  0  0  0
 16  2  1  0  0  0  0
 17  3  1  0  0  0  0
 17 26  1  0  0  0  0
 19 26  1  0  0  0  0
 19  2  2  0  0  0  0
 20 17  2  0  0  0  0
 21 10  2  0  0  0  0
 22 20  1  1  0  0  0
 22 10  1  0  0  0  0
 23 14  1  0  0  0  0
 25 18  1  0  0  0  0
 26 25  2  0  0  0  0
 27 24  1  1  0  0  0
 27 12  1  0  0  0  0
 29 30  1  0  0  0  0
 30 28  1  0  0  0  0
M  END
>  <MODEL>
6

>  <REMARK>
 VINA RESULT:      -7.1      3.801      7.362
  Name = 
  2 active torsions:
  status: ('A' for Active; 'I' for Inactive)
    1  A    between atoms: C_11  and  C_28
    2  A    between atoms: C_28  and  C_30
                            x       y       z     vdW  Elec       q    Type
                         _______ _______ _______ _____ _____    ______ ____

>  <TORSDO>
F 2

$$$$
=
 OpenBabel11122410313D

 30 35  0  0  1  0  0  0  0  0999 V2000
  187.7330  177.9000  143.3750 C   0  0  0  0  0  0  0  0  0  0  0  0
  186.4440  178.0490  145.5160 C   0  0  0  0  0  0  0  0  0  0  0  0
  184.2970  178.9290  141.1680 N   0  0  0  0  0  2  0  0  0  0  0  0
  187.7520  178.0090  141.9530 C   0  0  0  0  0  0  0  0  0  0  0  0
  189.0230  177.6410  144.1230 C   0  0  0  0  0  2  0  0  0  0  0  0
  190.7560  178.8050  142.0820 O   0  0  0  0  0  1  0  0  0  0  0  0
  188.2160  177.3100  138.7420 C   0  0  1  0  0  3  0  0  0  0  0  0
  190.2680  177.5020  141.9510 C   0  0  1  0  0  3  0  0  0  0  0  0
  186.7100  177.3900  139.0110 C   0  0  2  0  0  3  0  0  0  0  0  0
  184.8540  178.9270  139.8610 C   0  0  0  0  0  0  0  0  0  0  0  0
  190.0800  176.8750  143.3270 C   0  0  2  0  0  3  0  0  0  0  0  0
  188.9540  177.4900  141.1690 C   0  0  2  0  0  3  0  0  0  0  0  0
  185.2340  178.2890  146.1720 C   0  0  0  0  0  3  0  0  0  0  0  0
  186.1360  177.4500  137.6190 C   0  0  0  0  0  2  0  0  0  0  0  0
  188.4720  177.7540  137.4380 O   0  0  0  0  0  0  0  0  0  0  0  0
  187.5090  177.7100  146.2830 F   0  0  0  0  0  0  0  0  0  0  0  0
  185.3980  178.6040  142.0030 C   0  0  0  0  0  0  0  0  0  0  0  0
  184.0890  178.6270  145.4540 C   0  0  0  0  0  3  0  0  0  0  0  0
  186.5270  178.1470  144.1010 C   0  0  0  0  0  0  0  0  0  0  0  0
  186.5630  178.3860  141.3000 C   0  0  0  0  0  0  0  0  0  0  0  0
  184.1780  179.2290  138.8450 O   0  0  0  0  0  0  0  0  0  0  0  0
  186.3280  178.6280  139.8350 C   0  0  1  0  0  3  0  0  0  0  0  0
  187.3380  177.3810  136.7050 C   0  0  0  0  0  2  0  0  0  0  0  0
  189.0640  179.3990  139.6720 O   0  0  0  0  0  1  0  0  0  0  0  0
  184.1450  178.7280  144.0670 C   0  0  0  0  0  3  0  0  0  0  0  0
  185.3460  178.4920  143.3880 C   0  0  0  0  0  0  0  0  0  0  0  0
  189.1480  178.0050  139.7420 C   0  0  2  0  0  3  0  0  0  0  0  0
  189.7410  175.3900  143.2180 C   0  0  0  0  0  2  0  0  0  0  0  0
  191.9680  175.3340  144.3430 C   0  0  0  0  0  1  0  0  0  0  0  0
  190.9300  174.5190  143.5940 C   0  0  0  0  0  2  0  0  0  0  0  0
  1 19  1  0  0  0  0
  1  5  1  0  0  0  0
  2 13  1  0  0  0  0
  2 16  1  0  0  0  0
  3 17  1  0  0  0  0
  4  1  2  0  0  0  0
  7 15  1  6  0  0  0
  7  9  1  0  0  0  0
  7 27  1  0  0  0  0
  8  6  1  1  0  0  0
  8 11  1  0  0  0  0
  9 14  1  6  0  0  0
  9 22  1  0  0  0  0
 10  3  1  0  0  0  0
 11 28  1  6  0  0  0
 11  5  1  0  0  0  0
 12  8  1  0  0  0  0
 12  4  1  1  0  0  0
 17 26  1  0  0  0  0
 18 13  2  0  0  0  0
 19  2  2  0  0  0  0
 20  4  1  0  0  0  0
 20 17  2  0  0  0  0
 21 10  2  0  0  0  0
 22 10  1  1  0  0  0
 22 20  1  0  0  0  0
 23 15  1  0  0  0  0
 23 14  1  0  0  0  0
 25 18  1  0  0  0  0
 26 25  2  0  0  0  0
 26 19  1  0  0  0  0
 27 24  1  1  0  0  0
 27 12  1  0  0  0  0
 28 30  1  0  0  0  0
 30 29  1  0  0  0  0
M  END
>  <MODEL>
7

>  <REMARK>
 VINA RESULT:      -6.9      1.886      2.869
  Name = 
  2 active torsions:
  status: ('A' for Active; 'I' for Inactive)
    1  A    between atoms: C_11  and  C_28
    2  A    between atoms: C_28  and  C_30
                            x       y       z     vdW  Elec       q    Type
                         _______ _______ _______ _____ _____    ______ ____

>  <TORSDO>
F 2

$$$$
=
 OpenBabel11122410313D

 30 35  0  0  1  0  0  0  0  0999 V2000
  189.4310  177.0290  138.7030 C   0  0  0  0  0  0  0  0  0  0  0  0
  190.7470  177.2480  140.8220 C   0  0  0  0  0  0  0  0  0  0  0  0
  186.0920  178.8380  140.5230 N   0  0  0  0  0  2  0  0  0  0  0  0
  188.2090  177.2400  137.9990 C   0  0  0  0  0  0  0  0  0  0  0  0
  190.6340  176.4790  137.9650 C   0  0  0  0  0  2  0  0  0  0  0  0
  189.8090  177.4580  135.3410 O   0  0  0  0  0  1  0  0  0  0  0  0
  185.4940  176.7160  136.1630 C   0  0  1  0  0  3  0  0  0  0  0  0
  189.2720  176.2800  135.8700 C   0  0  1  0  0  3  0  0  0  0  0  0
  185.0590  177.0510  137.5930 C   0  0  2  0  0  3  0  0  0  0  0  0
  185.1980  178.8330  139.4190 C   0  0  0  0  0  0  0  0  0  0  0  0
  190.2980  175.5950  136.7650 C   0  0  2  0  0  3  0  0  0  0  0  0
  187.9870  176.5700  136.6460 C   0  0  2  0  0  3  0  0  0  0  0  0
  190.8100  177.6560  142.1570 C   0  0  0  0  0  3  0  0  0  0  0  0
  183.5850  177.3220  137.4270 C   0  0  0  0  0  2  0  0  0  0  0  0
  184.5340  177.2030  135.2670 O   0  0  0  0  0  0  0  0  0  0  0  0
  191.8520  176.6610  140.3000 F   0  0  0  0  0  0  0  0  0  0  0  0
  187.2740  178.2530  140.0000 C   0  0  0  0  0  0  0  0  0  0  0  0
  189.7120  178.2530  142.7710 C   0  0  0  0  0  3  0  0  0  0  0  0
  189.5580  177.4370  140.0670 C   0  0  0  0  0  0  0  0  0  0  0  0
  187.1530  177.8790  138.6790 C   0  0  0  0  0  0  0  0  0  0  0  0
  184.0460  179.3320  139.4890 O   0  0  0  0  0  0  0  0  0  0  0  0
  185.7990  178.2720  138.1590 C   0  0  1  0  0  3  0  0  0  0  0  0
  183.3190  177.1030  135.9560 C   0  0  0  0  0  2  0  0  0  0  0  0
  187.0170  178.5350  135.5990 O   0  0  0  0  0  1  0  0  0  0  0  0
  188.5360  178.4480  142.0530 C   0  0  0  0  0  3  0  0  0  0  0  0
  188.4490  178.0470  140.7150 C   0  0  0  0  0  0  0  0  0  0  0  0
  186.9030  177.1490  135.7360 C   0  0  2  0  0  3  0  0  0  0  0  0
  189.8190  174.2110  137.1970 C   0  0  0  0  0  2  0  0  0  0  0  0
  188.1520  172.6120  136.2540 C   0  0  0  0  0  1  0  0  0  0  0  0
  189.4520  173.3500  135.9980 C   0  0  0  0  0  2  0  0  0  0  0  0
  1 19  1  0  0  0  0
  2 13  1  0  0  0  0
  4 20  1  0  0  0  0
  4  1  2  0  0  0  0
  5  1  1  0  0  0  0
  7 15  1  6  0  0  0
  7  9  1  0  0  0  0
  8  6  1  1  0  0  0
  8 12  1  0  0  0  0
  8 11  1  0  0  0  0
  9 14  1  6  0  0  0
  9 22  1  0  0  0  0
 10 21  2  0  0  0  0
 10  3  1  0  0  0  0
 11 28  1  1  0  0  0
 11  5  1  0  0  0  0
 12  4  1  1  0  0  0
 13 18  2  0  0  0  0
 15 23  1  0  0  0  0
 16  2  1  0  0  0  0
 17  3  1  0  0  0  0
 17 26  1  0  0  0  0
 19 26  1  0  0  0  0
 19  2  2  0  0  0  0
 20 17  2  0  0  0  0
 22 20  1  1  0  0  0
 22 10  1  0  0  0  0
 23 14  1  0  0  0  0
 25 18  1  0  0  0  0
 26 25  2  0  0  0  0
 27 24  1  1  0  0  0
 27  7  1  0  0  0  0
 27 12  1  0  0  0  0
 30 29  1  0  0  0  0
 30 28  1  0  0  0  0
M  END
>  <MODEL>
8

>  <REMARK>
 VINA RESULT:      -6.9      4.273      7.386
  Name = 
  2 active torsions:
  status: ('A' for Active; 'I' for Inactive)
    1  A    between atoms: C_11  and  C_28
    2  A    between atoms: C_28  and  C_30
                            x       y       z     vdW  Elec       q    Type
                         _______ _______ _______ _____ _____    ______ ____

>  <TORSDO>
F 2

$$$$
=
 OpenBabel11122410313D

 30 35  0  0  1  0  0  0  0  0999 V2000
  186.9500  178.3140  143.6540 C   0  0  0  0  0  0  0  0  0  0  0  0
  187.3680  178.2580  146.1230 C   0  0  0  0  0  0  0  0  0  0  0  0
  182.7990  178.5990  144.3070 N   0  0  0  0  0  2  0  0  0  0  0  0
  186.0180  178.3910  142.5770 C   0  0  0  0  0  0  0  0  0  0  0  0
  188.4350  178.3290  143.3620 C   0  0  0  0  0  2  0  0  0  0  0  0
  188.1960  179.7620  140.8300 O   0  0  0  0  0  1  0  0  0  0  0  0
  184.3800  177.7220  139.7690 C   0  0  1  0  0  3  0  0  0  0  0  0
  187.9620  178.3860  140.9010 C   0  0  1  0  0  3  0  0  0  0  0  0
  183.4290  177.5120  140.9500 C   0  0  2  0  0  3  0  0  0  0  0  0
  182.3590  178.6760  142.9580 C   0  0  0  0  0  0  0  0  0  0  0  0
  188.8220  177.7670  141.9950 C   0  0  2  0  0  3  0  0  0  0  0  0
  186.4810  178.0990  141.1530 C   0  0  2  0  0  3  0  0  0  0  0  0
  186.8600  178.2720  147.4240 C   0  0  0  0  0  3  0  0  0  0  0  0
  182.0850  177.4270  140.2710 C   0  0  0  0  0  2  0  0  0  0  0  0
  183.6470  178.1770  138.6650 O   0  0  0  0  0  0  0  0  0  0  0  0
  188.7110  178.1510  145.9810 F   0  0  0  0  0  0  0  0  0  0  0  0
  184.2110  178.5150  144.1950 C   0  0  0  0  0  0  0  0  0  0  0  0
  185.4890  178.3630  147.6540 C   0  0  0  0  0  3  0  0  0  0  0  0
  186.4900  178.3370  145.0080 C   0  0  0  0  0  0  0  0  0  0  0  0
  184.6500  178.5140  142.8880 C   0  0  0  0  0  0  0  0  0  0  0  0
  181.1460  178.8170  142.6570 O   0  0  0  0  0  0  0  0  0  0  0  0
  183.4820  178.6710  141.9570 C   0  0  1  0  0  3  0  0  0  0  0  0
  182.3900  177.5720  138.7980 C   0  0  0  0  0  2  0  0  0  0  0  0
  185.2740  179.9580  140.1580 O   0  0  0  0  0  1  0  0  0  0  0  0
  184.6100  178.4400  146.5780 C   0  0  0  0  0  3  0  0  0  0  0  0
  185.0940  178.4280  145.2650 C   0  0  0  0  0  0  0  0  0  0  0  0
  185.6100  178.6090  140.0040 C   0  0  2  0  0  3  0  0  0  0  0  0
  188.7420  176.2410  141.9670 C   0  0  0  0  0  2  0  0  0  0  0  0
  190.8690  175.8320  143.2060 C   0  0  0  0  0  1  0  0  0  0  0  0
  189.3660  175.6300  143.2130 C   0  0  0  0  0  2  0  0  0  0  0  0
  1 19  1  0  0  0  0
  2 13  1  0  0  0  0
  4 20  1  0  0  0  0
  4  1  2  0  0  0  0
  5  1  1  0  0  0  0
  7 15  1  6  0  0  0
  7 27  1  0  0  0  0
  7  9  1  0  0  0  0
  8  6  1  1  0  0  0
  8 12  1  0  0  0  0
  8 11  1  0  0  0  0
  9 14  1  6  0  0  0
  9 22  1  0  0  0  0
 10  3  1  0  0  0  0
 11 28  1  1  0  0  0
 11  5  1  0  0  0  0
 12  4  1  1  0  0  0
 13 18  2  0  0  0  0
 15 23  1  0  0  0  0
 16  2  1  0  0  0  0
 17  3  1  0  0  0  0
 17 26  1  0  0  0  0
 19 26  1  0  0  0  0
 19  2  2  0  0  0  0
 20 17  2  0  0  0  0
 21 10  2  0  0  0  0
 22 20  1  1  0  0  0
 22 10  1  0  0  0  0
 23 14  1  0  0  0  0
 25 18  1  0  0  0  0
 26 25  2  0  0  0  0
 27 24  1  1  0  0  0
 27 12  1  0  0  0  0
 28 30  1  0  0  0  0
 29 30  1  0  0  0  0
M  END
>  <MODEL>
9

>  <REMARK>
 VINA RESULT:      -6.8      2.683      4.938
  Name = 
  2 active torsions:
  status: ('A' for Active; 'I' for Inactive)
    1  A    between atoms: C_11  and  C_28
    2  A    between atoms: C_28  and  C_30
                            x       y       z     vdW  Elec       q    Type
                         _______ _______ _______ _____ _____    ______ ____

>  <TORSDO>
F 2

$$$$
