=
 OpenBabel11122411163D

 31 35  0  0  1  0  0  0  0  0999 V2000
  191.2500  176.5070  144.7880 C   0  0  0  0  0  0  0  0  0  0  0  0
  187.6020  177.0590  143.8430 C   0  0  2  0  0  3  0  0  0  0  0  0
  186.9460  177.8740  144.9480 C   0  0  0  0  0  0  0  0  0  0  0  0
  186.9010  178.5960  147.2730 C   0  0  0  0  0  0  0  0  0  0  0  0
  189.1110  177.1540  143.8430 C   0  0  0  0  0  0  0  0  0  0  0  0
  191.9080  177.3330  143.8720 C   0  0  0  0  0  3  0  0  0  0  0  0
  187.5300  177.9240  146.2240 C   0  0  0  0  0  3  0  0  0  0  0  0
  187.5800  178.6850  141.8900 C   0  0  2  0  0  3  0  0  0  0  0  0
  192.0330  175.7270  145.7800 C   0  0  0  0  0  1  0  0  0  0  0  0
  184.9900  178.4760  143.4220 C   0  0  0  0  0  2  0  0  0  0  0  0
  187.5030  178.6470  148.5240 O   0  0  0  0  0  1  0  0  0  0  0  0
  189.0400  178.6770  141.9120 N   0  0  0  0  0  2  0  0  0  0  0  0
  187.0260  177.3630  142.4450 C   0  0  2  0  0  3  0  0  0  0  0  0
  189.8560  176.4160  144.7700 C   0  0  0  0  0  3  0  0  0  0  0  0
  185.6670  179.2120  147.0680 C   0  0  0  0  0  3  0  0  0  0  0  0
  189.7780  177.9820  142.9190 C   0  0  0  0  0  0  0  0  0  0  0  0
  191.1730  178.0650  142.9340 C   0  0  0  0  0  3  0  0  0  0  0  0
  185.4980  177.3670  142.5030 C   0  0  0  0  0  2  0  0  0  0  0  0
  185.6740  178.4700  144.7570 C   0  0  0  0  0  0  0  0  0  0  0  0
  185.0570  179.1490  145.8130 C   0  0  0  0  0  3  0  0  0  0  0  0
  188.4800  177.2460  139.6010 O   0  0  0  0  0  0  0  0  0  0  0  0
  187.6020  178.1340  139.4240 C   0  0  0  0  0  0  0  0  0  0  0  0
  187.1140  178.8970  140.5280 N   0  0  0  0  0  2  0  0  0  0  0  0
  188.0430  176.4810  136.0440 C   0  0  1  0  0  3  0  0  0  0  0  0
  186.1830  177.2630  137.5380 C   0  0  0  0  0  2  0  0  0  0  0  0
  188.9840  179.7780  137.5210 O   0  0  0  0  0  1  0  0  0  0  0  0
  188.8020  175.3760  135.6660 O   0  0  0  0  0  1  0  0  0  0  0  0
  187.0240  176.0630  137.0990 C   0  0  0  0  0  2  0  0  0  0  0  0
  188.1440  178.7800  137.0230 C   0  0  2  0  0  3  0  0  0  0  0  0
  187.0610  178.4100  138.0510 C   0  0  2  0  0  3  0  0  0  0  0  0
  188.9640  177.5630  136.6000 C   0  0  0  0  0  2  0  0  0  0  0  0
  1  9  1  0  0  0  0
  2  5  1  6  0  0  0
  2  3  1  0  0  0  0
  3  7  1  0  0  0  0
  4 11  1  0  0  0  0
  5 14  2  0  0  0  0
  6  1  2  0  0  0  0
  7  4  2  0  0  0  0
  8 23  1  6  0  0  0
  8 12  1  0  0  0  0
  8 13  1  0  0  0  0
 10 19  1  0  0  0  0
 12 16  1  0  0  0  0
 13 18  1  1  0  0  0
 13  2  1  0  0  0  0
 14  1  1  0  0  0  0
 15  4  1  0  0  0  0
 16 17  2  0  0  0  0
 16  5  1  0  0  0  0
 17  6  1  0  0  0  0
 18 10  1  0  0  0  0
 19  3  2  0  0  0  0
 19 20  1  0  0  0  0
 20 15  2  0  0  0  0
 22 21  2  0  0  0  0
 22 23  1  0  0  0  0
 24 27  1  1  0  0  0
 24 31  1  0  0  0  0
 24 28  1  0  0  0  0
 25 30  1  0  0  0  0
 28 25  1  0  0  0  0
 29 26  1  1  0  0  0
 29 30  1  0  0  0  0
 30 22  1  1  0  0  0
 31 29  1  0  0  0  0
M  END
>  <MODEL>
1

>  <REMARK>
 VINA RESULT:      -9.3      0.000      0.000
  Name = 
  2 active torsions:
  status: ('A' for Active; 'I' for Inactive)
    1  A    between atoms: C_5  and  C_30
    2  A    between atoms: C_10  and  N_16
                            x       y       z     vdW  Elec       q    Type
                         _______ _______ _______ _____ _____    ______ ____

>  <TORSDO>
F 2

$$$$
=
 OpenBabel11122411163D

 31 35  0  0  1  0  0  0  0  0999 V2000
  189.8990  176.2310  142.7420 C   0  0  0  0  0  0  0  0  0  0  0  0
  186.2920  177.2920  143.3460 C   0  0  2  0  0  3  0  0  0  0  0  0
  186.2240  177.9920  144.6950 C   0  0  0  0  0  0  0  0  0  0  0  0
  187.1550  178.3520  146.9170 C   0  0  0  0  0  0  0  0  0  0  0  0
  187.6880  177.2300  142.7710 C   0  0  0  0  0  0  0  0  0  0  0  0
  190.2890  177.1150  141.7310 C   0  0  0  0  0  3  0  0  0  0  0  0
  187.2400  177.7870  145.6440 C   0  0  0  0  0  3  0  0  0  0  0  0
  185.7970  179.1890  141.7300 C   0  0  2  0  0  3  0  0  0  0  0  0
  190.8650  175.2320  143.2690 C   0  0  0  0  0  1  0  0  0  0  0  0
  183.9590  179.0160  144.1150 C   0  0  0  0  0  2  0  0  0  0  0  0
  188.1780  178.1510  147.8340 O   0  0  0  0  0  1  0  0  0  0  0  0
  187.1410  179.0280  141.1830 N   0  0  0  0  0  2  0  0  0  0  0  0
  185.2920  177.8620  142.3190 C   0  0  2  0  0  3  0  0  0  0  0  0
  188.6020  176.2870  143.2570 C   0  0  0  0  0  3  0  0  0  0  0  0
  186.0420  179.1160  147.2690 C   0  0  0  0  0  3  0  0  0  0  0  0
  188.0840  178.1160  141.7490 C   0  0  0  0  0  0  0  0  0  0  0  0
  189.3800  178.0520  141.2320 C   0  0  0  0  0  3  0  0  0  0  0  0
  183.9150  178.0130  142.9650 C   0  0  0  0  0  2  0  0  0  0  0  0
  185.0800  178.7370  145.0740 C   0  0  0  0  0  0  0  0  0  0  0  0
  185.0100  179.3080  146.3490 C   0  0  0  0  0  3  0  0  0  0  0  0
  185.2300  177.7930  139.3110 O   0  0  0  0  0  0  0  0  0  0  0  0
  184.6510  178.8980  139.4960 C   0  0  0  0  0  0  0  0  0  0  0  0
  184.8970  179.6520  140.6840 N   0  0  0  0  0  2  0  0  0  0  0  0
  180.9330  178.5070  138.8840 C   0  0  1  0  0  3  0  0  0  0  0  0
  182.6300  180.3440  139.0990 C   0  0  0  0  0  2  0  0  0  0  0  0
  184.0350  177.5050  137.0640 O   0  0  0  0  0  1  0  0  0  0  0  0
  179.9720  177.7680  139.5700 O   0  0  0  0  0  1  0  0  0  0  0  0
  181.5640  179.5250  139.8280 C   0  0  0  0  0  2  0  0  0  0  0  0
  183.0630  178.3630  137.5810 C   0  0  2  0  0  3  0  0  0  0  0  0
  183.7010  179.4440  138.4700 C   0  0  2  0  0  3  0  0  0  0  0  0
  182.0000  177.5660  138.3330 C   0  0  0  0  0  2  0  0  0  0  0  0
  1 14  1  0  0  0  0
  1  9  1  0  0  0  0
  2  5  1  6  0  0  0
  2  3  1  0  0  0  0
  3 19  2  0  0  0  0
  3  7  1  0  0  0  0
  4 15  1  0  0  0  0
  4 11  1  0  0  0  0
  5 14  2  0  0  0  0
  6  1  2  0  0  0  0
  7  4  2  0  0  0  0
  8 23  1  6  0  0  0
  8 13  1  0  0  0  0
 10 19  1  0  0  0  0
 12  8  1  0  0  0  0
 12 16  1  0  0  0  0
 13 18  1  1  0  0  0
 13  2  1  0  0  0  0
 16  5  1  0  0  0  0
 17  6  1  0  0  0  0
 17 16  2  0  0  0  0
 18 10  1  0  0  0  0
 19 20  1  0  0  0  0
 20 15  2  0  0  0  0
 21 22  2  0  0  0  0
 22 23  1  0  0  0  0
 24 27  1  1  0  0  0
 24 28  1  0  0  0  0
 25 28  1  0  0  0  0
 29 26  1  1  0  0  0
 29 31  1  0  0  0  0
 29 30  1  0  0  0  0
 30 25  1  0  0  0  0
 30 22  1  1  0  0  0
 31 24  1  0  0  0  0
M  END
>  <MODEL>
2

>  <REMARK>
 VINA RESULT:      -9.0      2.966      3.774
  Name = 
  2 active torsions:
  status: ('A' for Active; 'I' for Inactive)
    1  A    between atoms: C_5  and  C_30
    2  A    between atoms: C_10  and  N_16
                            x       y       z     vdW  Elec       q    Type
                         _______ _______ _______ _____ _____    ______ ____

>  <TORSDO>
F 2

$$$$
=
 OpenBabel11122411163D

 31 35  0  0  1  0  0  0  0  0999 V2000
  190.7970  176.2500  143.4520 C   0  0  0  0  0  0  0  0  0  0  0  0
  187.1130  177.1500  143.7980 C   0  0  2  0  0  3  0  0  0  0  0  0
  186.9290  177.8960  145.1110 C   0  0  0  0  0  0  0  0  0  0  0  0
  187.7040  178.3860  147.3670 C   0  0  0  0  0  0  0  0  0  0  0  0
  188.5430  177.1370  143.3090 C   0  0  0  0  0  0  0  0  0  0  0  0
  191.2050  177.1130  142.4310 C   0  0  0  0  0  3  0  0  0  0  0  0
  187.8940  177.7790  146.1260 C   0  0  0  0  0  3  0  0  0  0  0  0
  186.6270  178.9570  142.0800 C   0  0  2  0  0  3  0  0  0  0  0  0
  191.7750  175.3220  144.0750 C   0  0  0  0  0  1  0  0  0  0  0  0
  184.6570  178.7820  144.3570 C   0  0  0  0  0  2  0  0  0  0  0  0
  188.6780  178.2710  148.3510 O   0  0  0  0  0  1  0  0  0  0  0  0
  188.0080  178.8430  141.6200 N   0  0  0  0  0  2  0  0  0  0  0  0
  186.1510  177.6300  142.6910 C   0  0  2  0  0  3  0  0  0  0  0  0
  189.4690  176.2590  143.8870 C   0  0  0  0  0  3  0  0  0  0  0  0
  186.5370  179.1060  147.6220 C   0  0  0  0  0  3  0  0  0  0  0  0
  188.9570  178.0020  142.2780 C   0  0  0  0  0  0  0  0  0  0  0  0
  190.2840  177.9840  141.8410 C   0  0  0  0  0  3  0  0  0  0  0  0
  184.7320  177.7360  143.2480 C   0  0  0  0  0  2  0  0  0  0  0  0
  185.7290  178.5960  145.3910 C   0  0  0  0  0  0  0  0  0  0  0  0
  185.5550  179.2110  146.6350 C   0  0  0  0  0  3  0  0  0  0  0  0
  186.6130  177.7040  139.5200 O   0  0  0  0  0  0  0  0  0  0  0  0
  185.8090  178.6580  139.7070 C   0  0  0  0  0  0  0  0  0  0  0  0
  185.7710  179.3350  140.9640 N   0  0  0  0  0  2  0  0  0  0  0  0
  182.2250  177.8440  138.7920 C   0  0  1  0  0  3  0  0  0  0  0  0
  183.6700  179.8630  139.1560 C   0  0  0  0  0  2  0  0  0  0  0  0
  185.5590  177.2420  137.2240 O   0  0  0  0  0  1  0  0  0  0  0  0
  181.3060  176.9850  139.3930 O   0  0  0  0  0  1  0  0  0  0  0  0
  182.6540  178.9130  139.7910 C   0  0  0  0  0  2  0  0  0  0  0  0
  184.4540  177.9710  137.6650 C   0  0  2  0  0  3  0  0  0  0  0  0
  184.8860  179.1060  138.6100 C   0  0  2  0  0  3  0  0  0  0  0  0
  183.4360  177.0430  138.3230 C   0  0  0  0  0  2  0  0  0  0  0  0
  1 14  1  0  0  0  0
  1  9  1  0  0  0  0
  2  5  1  6  0  0  0
  2  3  1  0  0  0  0
  3 19  2  0  0  0  0
  3  7  1  0  0  0  0
  4 15  1  0  0  0  0
  4 11  1  0  0  0  0
  5 14  2  0  0  0  0
  6  1  2  0  0  0  0
  7  4  2  0  0  0  0
  8 23  1  6  0  0  0
  8 13  1  0  0  0  0
 10 19  1  0  0  0  0
 12  8  1  0  0  0  0
 12 16  1  0  0  0  0
 13 18  1  1  0  0  0
 13  2  1  0  0  0  0
 16  5  1  0  0  0  0
 17 16  2  0  0  0  0
 17  6  1  0  0  0  0
 18 10  1  0  0  0  0
 19 20  1  0  0  0  0
 20 15  2  0  0  0  0
 21 22  2  0  0  0  0
 22 23  1  0  0  0  0
 24 27  1  1  0  0  0
 24 28  1  0  0  0  0
 25 28  1  0  0  0  0
 29 26  1  1  0  0  0
 29 31  1  0  0  0  0
 29 30  1  0  0  0  0
 30 25  1  0  0  0  0
 30 22  1  1  0  0  0
 31 24  1  0  0  0  0
M  END
>  <MODEL>
3

>  <REMARK>
 VINA RESULT:      -8.9      2.275      2.956
  Name = 
  2 active torsions:
  status: ('A' for Active; 'I' for Inactive)
    1  A    between atoms: C_5  and  C_30
    2  A    between atoms: C_10  and  N_16
                            x       y       z     vdW  Elec       q    Type
                         _______ _______ _______ _____ _____    ______ ____

>  <TORSDO>
F 2

$$$$
=
 OpenBabel11122411163D

 31 35  0  0  1  0  0  0  0  0999 V2000
  183.7710  178.9330  143.2550 C   0  0  0  0  0  0  0  0  0  0  0  0
  183.0510  177.8870  139.6650 C   0  0  2  0  0  3  0  0  0  0  0  0
  182.1130  178.9160  139.0520 C   0  0  0  0  0  0  0  0  0  0  0  0
  180.4220  180.6450  139.3420 C   0  0  0  0  0  0  0  0  0  0  0  0
  183.7780  178.3920  140.8900 C   0  0  0  0  0  0  0  0  0  0  0  0
  185.1040  179.3460  143.1680 C   0  0  0  0  0  3  0  0  0  0  0  0
  181.3500  179.7530  139.8820 C   0  0  0  0  0  3  0  0  0  0  0  0
  185.1900  178.2530  138.3430 C   0  0  2  0  0  3  0  0  0  0  0  0
  183.0550  179.0030  144.5550 C   0  0  0  0  0  1  0  0  0  0  0  0
  182.6670  178.1030  136.6960 C   0  0  0  0  0  2  0  0  0  0  0  0
  179.6900  181.4750  140.1800 O   0  0  0  0  0  1  0  0  0  0  0  0
  185.8430  178.6700  139.5810 N   0  0  0  0  0  2  0  0  0  0  0  0
  184.0360  177.2820  138.6430 C   0  0  2  0  0  3  0  0  0  0  0  0
  183.1130  178.4540  142.1200 C   0  0  0  0  0  3  0  0  0  0  0  0
  180.2290  180.7000  137.9620 C   0  0  0  0  0  3  0  0  0  0  0  0
  185.1220  178.8050  140.8070 C   0  0  0  0  0  0  0  0  0  0  0  0
  185.7800  179.2770  141.9470 C   0  0  0  0  0  3  0  0  0  0  0  0
  183.2850  176.8810  137.3740 C   0  0  0  0  0  2  0  0  0  0  0  0
  181.8830  178.9510  137.6540 C   0  0  0  0  0  0  0  0  0  0  0  0
  180.9580  179.8560  137.1220 C   0  0  0  0  0  3  0  0  0  0  0  0
  187.1840  179.6290  136.8430 O   0  0  0  0  0  0  0  0  0  0  0  0
  187.1460  178.3710  136.7470 C   0  0  0  0  0  0  0  0  0  0  0  0
  186.1660  177.6220  137.4660 N   0  0  0  0  0  2  0  0  0  0  0  0
  188.0290  174.7190  136.2670 C   0  0  1  0  0  3  0  0  0  0  0  0
  187.4160  176.7150  134.8730 C   0  0  0  0  0  2  0  0  0  0  0  0
  189.8060  177.7180  137.6040 O   0  0  0  0  0  1  0  0  0  0  0  0
  187.5300  173.5750  136.8860 O   0  0  0  0  0  1  0  0  0  0  0  0
  186.8950  175.4480  135.5540 C   0  0  0  0  0  2  0  0  0  0  0  0
  189.2120  176.8880  136.6510 C   0  0  2  0  0  3  0  0  0  0  0  0
  188.1220  177.6420  135.8700 C   0  0  2  0  0  3  0  0  0  0  0  0
  188.6650  175.6280  137.3150 C   0  0  0  0  0  2  0  0  0  0  0  0
  1  9  1  0  0  0  0
  2  3  1  6  0  0  0
  2  5  1  0  0  0  0
  3  7  1  0  0  0  0
  4  7  2  0  0  0  0
  4 11  1  0  0  0  0
  5 14  1  0  0  0  0
  6  1  1  0  0  0  0
  8 23  1  6  0  0  0
  8 13  1  0  0  0  0
  8 12  1  0  0  0  0
 10 18  1  0  0  0  0
 10 19  1  0  0  0  0
 12 16  1  0  0  0  0
 13 18  1  6  0  0  0
 13  2  1  0  0  0  0
 14  1  2  0  0  0  0
 15  4  1  0  0  0  0
 16  5  2  0  0  0  0
 16 17  1  0  0  0  0
 17  6  2  0  0  0  0
 19  3  2  0  0  0  0
 20 19  1  0  0  0  0
 20 15  2  0  0  0  0
 22 21  2  0  0  0  0
 22 23  1  0  0  0  0
 24 27  1  1  0  0  0
 24 31  1  0  0  0  0
 25 28  1  0  0  0  0
 25 30  1  0  0  0  0
 28 24  1  0  0  0  0
 29 31  1  0  0  0  0
 29 26  1  1  0  0  0
 30 29  1  0  0  0  0
 30 22  1  1  0  0  0
M  END
>  <MODEL>
4

>  <REMARK>
 VINA RESULT:      -8.1      4.138      6.419
  Name = 
  2 active torsions:
  status: ('A' for Active; 'I' for Inactive)
    1  A    between atoms: C_5  and  C_30
    2  A    between atoms: C_10  and  N_16
                            x       y       z     vdW  Elec       q    Type
                         _______ _______ _______ _____ _____    ______ ____

>  <TORSDO>
F 2

$$$$
=
 OpenBabel11122411163D

 31 35  0  0  1  0  0  0  0  0999 V2000
  189.3420  176.8850  141.9450 C   0  0  0  0  0  0  0  0  0  0  0  0
  186.5420  177.2790  144.4960 C   0  0  2  0  0  3  0  0  0  0  0  0
  187.1560  177.7660  145.8010 C   0  0  0  0  0  0  0  0  0  0  0  0
  189.0960  177.9530  147.2610 C   0  0  0  0  0  0  0  0  0  0  0  0
  187.4250  177.5150  143.2920 C   0  0  0  0  0  0  0  0  0  0  0  0
  189.0860  177.9510  141.0760 C   0  0  0  0  0  3  0  0  0  0  0  0
  188.5290  177.5910  146.0380 C   0  0  0  0  0  3  0  0  0  0  0  0
  185.1570  179.2830  143.7730 C   0  0  2  0  0  3  0  0  0  0  0  0
  190.4970  175.9850  141.6960 C   0  0  0  0  0  1  0  0  0  0  0  0
  184.8700  178.4970  146.6710 C   0  0  0  0  0  2  0  0  0  0  0  0
  190.4590  177.7870  147.4690 O   0  0  0  0  0  1  0  0  0  0  0  0
  186.0160  179.4100  142.5990 N   0  0  0  0  0  2  0  0  0  0  0  0
  185.1190  177.8250  144.2570 C   0  0  2  0  0  3  0  0  0  0  0  0
  188.5110  176.6670  143.0470 C   0  0  0  0  0  3  0  0  0  0  0  0
  188.2950  178.4790  148.2740 C   0  0  0  0  0  3  0  0  0  0  0  0
  187.1680  178.5850  142.4130 C   0  0  0  0  0  0  0  0  0  0  0  0
  187.9970  178.7960  141.3070 C   0  0  0  0  0  3  0  0  0  0  0  0
  184.2850  177.6690  145.5290 C   0  0  0  0  0  2  0  0  0  0  0  0
  186.3420  178.2640  146.8480 C   0  0  0  0  0  0  0  0  0  0  0  0
  186.9230  178.6340  148.0660 C   0  0  0  0  0  3  0  0  0  0  0  0
  183.4080  178.0460  141.8940 O   0  0  0  0  0  0  0  0  0  0  0  0
  182.9850  179.0700  142.4980 C   0  0  0  0  0  0  0  0  0  0  0  0
  183.8150  179.7420  143.4460 N   0  0  0  0  0  2  0  0  0  0  0  0
  179.6340  177.4570  141.7790 C   0  0  1  0  0  3  0  0  0  0  0  0
  180.6070  179.1910  143.3110 C   0  0  0  0  0  2  0  0  0  0  0  0
  182.0220  179.5750  139.8430 O   0  0  0  0  0  1  0  0  0  0  0  0
  179.2760  176.1140  141.6710 O   0  0  0  0  0  1  0  0  0  0  0  0
  180.1980  177.7240  143.1700 C   0  0  0  0  0  2  0  0  0  0  0  0
  181.0790  179.2600  140.8230 C   0  0  2  0  0  3  0  0  0  0  0  0
  181.6090  179.6040  142.2250 C   0  0  2  0  0  3  0  0  0  0  0  0
  180.6740  177.7920  140.7140 C   0  0  0  0  0  2  0  0  0  0  0  0
  1 14  1  0  0  0  0
  2  5  1  6  0  0  0
  2  3  1  0  0  0  0
  3  7  2  0  0  0  0
  3 19  1  0  0  0  0
  4 11  1  0  0  0  0
  4 15  2  0  0  0  0
  6 17  1  0  0  0  0
  6  1  2  0  0  0  0
  7  4  1  0  0  0  0
  8 23  1  6  0  0  0
  8 13  1  0  0  0  0
  9  1  1  0  0  0  0
 10 19  1  0  0  0  0
 12  8  1  0  0  0  0
 13  2  1  0  0  0  0
 13 18  1  1  0  0  0
 14  5  2  0  0  0  0
 16 12  1  0  0  0  0
 16  5  1  0  0  0  0
 17 16  2  0  0  0  0
 18 10  1  0  0  0  0
 19 20  2  0  0  0  0
 20 15  1  0  0  0  0
 21 22  2  0  0  0  0
 22 23  1  0  0  0  0
 24 27  1  1  0  0  0
 24 28  1  0  0  0  0
 28 25  1  0  0  0  0
 29 26  1  6  0  0  0
 29 30  1  0  0  0  0
 30 22  1  1  0  0  0
 30 25  1  0  0  0  0
 31 29  1  0  0  0  0
 31 24  1  0  0  0  0
M  END
>  <MODEL>
5

>  <REMARK>
 VINA RESULT:      -7.7      3.502      5.354
  Name = 
  2 active torsions:
  status: ('A' for Active; 'I' for Inactive)
    1  A    between atoms: C_5  and  C_30
    2  A    between atoms: C_10  and  N_16
                            x       y       z     vdW  Elec       q    Type
                         _______ _______ _______ _____ _____    ______ ____

>  <TORSDO>
F 2

$$$$
=
 OpenBabel11122411163D

 31 35  0  0  1  0  0  0  0  0999 V2000
  190.2740  177.4550  141.4350 C   0  0  0  0  0  0  0  0  0  0  0  0
  190.5580  175.6520  138.0930 C   0  0  2  0  0  3  0  0  0  0  0  0
  189.8810  176.5090  137.0330 C   0  0  0  0  0  0  0  0  0  0  0  0
  188.2570  178.2300  136.4560 C   0  0  0  0  0  0  0  0  0  0  0  0
  190.9290  176.4200  139.3400 C   0  0  0  0  0  0  0  0  0  0  0  0
  191.5940  177.8640  141.6500 C   0  0  0  0  0  3  0  0  0  0  0  0
  188.9520  177.4910  137.4150 C   0  0  0  0  0  3  0  0  0  0  0  0
  192.9990  175.7640  137.3950 C   0  0  2  0  0  3  0  0  0  0  0  0
  189.2230  177.7890  142.4290 C   0  0  0  0  0  1  0  0  0  0  0  0
  191.0450  175.2200  135.1620 C   0  0  0  0  0  2  0  0  0  0  0  0
  187.3550  179.2070  136.8540 O   0  0  0  0  0  1  0  0  0  0  0  0
  193.2910  176.4480  138.6510 N   0  0  0  0  0  2  0  0  0  0  0  0
  191.7650  174.8600  137.5480 C   0  0  2  0  0  3  0  0  0  0  0  0
  189.9450  176.7330  140.2850 C   0  0  0  0  0  3  0  0  0  0  0  0
  188.4670  177.9850  135.0990 C   0  0  0  0  0  3  0  0  0  0  0  0
  192.2590  176.8300  139.5620 C   0  0  0  0  0  0  0  0  0  0  0  0
  192.5860  177.5460  140.7170 C   0  0  0  0  0  3  0  0  0  0  0  0
  191.3890  174.1840  136.2300 C   0  0  0  0  0  2  0  0  0  0  0  0
  190.0600  176.2400  135.6540 C   0  0  0  0  0  0  0  0  0  0  0  0
  189.3660  176.9940  134.7010 C   0  0  0  0  0  3  0  0  0  0  0  0
  195.1260  176.6980  135.7440 O   0  0  0  0  0  0  0  0  0  0  0  0
  195.1920  175.5100  136.1640 C   0  0  0  0  0  0  0  0  0  0  0  0
  194.1550  174.9770  136.9880 N   0  0  0  0  0  2  0  0  0  0  0  0
  196.3480  172.0770  137.2720 C   0  0  1  0  0  3  0  0  0  0  0  0
  195.9010  173.3240  135.1400 C   0  0  0  0  0  2  0  0  0  0  0  0
  197.6740  175.5520  137.6030 O   0  0  0  0  0  1  0  0  0  0  0  0
  195.8050  171.1920  138.2000 O   0  0  0  0  0  1  0  0  0  0  0  0
  195.3310  172.3460  136.1680 C   0  0  0  0  0  2  0  0  0  0  0  0
  197.3170  174.3620  136.9650 C   0  0  2  0  0  3  0  0  0  0  0  0
  196.3540  174.6340  135.7970 C   0  0  2  0  0  3  0  0  0  0  0  0
  196.7240  173.3800  137.9720 C   0  0  0  0  0  2  0  0  0  0  0  0
  1  6  1  0  0  0  0
  1  9  1  0  0  0  0
  2  3  1  6  0  0  0
  2  5  1  0  0  0  0
  3  7  1  0  0  0  0
  4 11  1  0  0  0  0
  4  7  2  0  0  0  0
  5 16  2  0  0  0  0
  5 14  1  0  0  0  0
  8 23  1  1  0  0  0
  8 13  1  0  0  0  0
  8 12  1  0  0  0  0
 10 19  1  0  0  0  0
 10 18  1  0  0  0  0
 12 16  1  0  0  0  0
 13 18  1  6  0  0  0
 13  2  1  0  0  0  0
 14  1  2  0  0  0  0
 15  4  1  0  0  0  0
 16 17  1  0  0  0  0
 17  6  2  0  0  0  0
 19  3  2  0  0  0  0
 20 15  2  0  0  0  0
 20 19  1  0  0  0  0
 21 22  2  0  0  0  0
 22 23  1  0  0  0  0
 24 31  1  0  0  0  0
 24 27  1  1  0  0  0
 25 30  1  0  0  0  0
 25 28  1  0  0  0  0
 28 24  1  0  0  0  0
 29 26  1  1  0  0  0
 29 31  1  0  0  0  0
 30 22  1  1  0  0  0
 30 29  1  0  0  0  0
M  END
>  <MODEL>
6

>  <REMARK>
 VINA RESULT:      -7.5      5.430      8.560
  Name = 
  2 active torsions:
  status: ('A' for Active; 'I' for Inactive)
    1  A    between atoms: C_5  and  C_30
    2  A    between atoms: C_10  and  N_16
                            x       y       z     vdW  Elec       q    Type
                         _______ _______ _______ _____ _____    ______ ____

>  <TORSDO>
F 2

$$$$
=
 OpenBabel11122411163D

 31 35  0  0  1  0  0  0  0  0999 V2000
  185.0250  178.4680  138.6890 C   0  0  0  0  0  0  0  0  0  0  0  0
  188.7370  178.1250  139.4690 C   0  0  2  0  0  3  0  0  0  0  0  0
  188.8750  177.4490  140.8250 C   0  0  0  0  0  0  0  0  0  0  0  0
  187.9280  176.9120  143.0030 C   0  0  0  0  0  0  0  0  0  0  0  0
  187.3830  177.9160  138.8280 C   0  0  0  0  0  0  0  0  0  0  0  0
  184.8610  177.5280  137.6680 C   0  0  0  0  0  3  0  0  0  0  0  0
  187.7950  177.4520  141.7230 C   0  0  0  0  0  3  0  0  0  0  0  0
  189.6650  176.3620  137.8920 C   0  0  2  0  0  3  0  0  0  0  0  0
  183.8610  179.2610  139.1630 C   0  0  0  0  0  1  0  0  0  0  0  0
  191.3200  176.8840  140.3590 C   0  0  0  0  0  2  0  0  0  0  0  0
  186.8430  176.9110  143.8710 O   0  0  0  0  0  1  0  0  0  0  0  0
  188.3420  176.2600  137.2810 N   0  0  0  0  0  2  0  0  0  0  0  0
  189.8750  177.7610  138.4930 C   0  0  2  0  0  3  0  0  0  0  0  0
  186.2830  178.6640  139.2640 C   0  0  0  0  0  3  0  0  0  0  0  0
  189.1490  176.3780  143.4130 C   0  0  0  0  0  3  0  0  0  0  0  0
  187.2150  176.9720  137.7960 C   0  0  0  0  0  0  0  0  0  0  0  0
  185.9570  176.7850  137.2190 C   0  0  0  0  0  3  0  0  0  0  0  0
  191.2230  177.8780  139.2030 C   0  0  0  0  0  2  0  0  0  0  0  0
  190.1230  176.9390  141.2620 C   0  0  0  0  0  0  0  0  0  0  0  0
  190.2410  176.3910  142.5430 C   0  0  0  0  0  3  0  0  0  0  0  0
  191.4860  174.1720  137.9680 O   0  0  0  0  0  0  0  0  0  0  0  0
  191.5630  174.9610  136.9870 C   0  0  0  0  0  0  0  0  0  0  0  0
  190.6860  176.0830  136.8920 N   0  0  0  0  0  2  0  0  0  0  0  0
  194.7280  172.8930  136.7450 C   0  0  1  0  0  3  0  0  0  0  0  0
  192.6190  173.2790  135.4410 C   0  0  0  0  0  2  0  0  0  0  0  0
  193.9470  176.5430  136.7660 O   0  0  0  0  0  1  0  0  0  0  0  0
  195.3450  172.0640  137.6800 O   0  0  0  0  0  1  0  0  0  0  0  0
  193.3210  172.3800  136.4590 C   0  0  0  0  0  2  0  0  0  0  0  0
  193.9920  175.2360  136.2770 C   0  0  2  0  0  3  0  0  0  0  0  0
  192.5840  174.7400  135.9080 C   0  0  2  0  0  3  0  0  0  0  0  0
  194.6700  174.3170  137.2900 C   0  0  0  0  0  2  0  0  0  0  0  0
  1  9  1  0  0  0  0
  1 14  1  0  0  0  0
  2  5  1  6  0  0  0
  2  3  1  0  0  0  0
  3 19  2  0  0  0  0
  3  7  1  0  0  0  0
  4 15  1  0  0  0  0
  4 11  1  0  0  0  0
  5 14  2  0  0  0  0
  6  1  2  0  0  0  0
  7  4  2  0  0  0  0
  8 23  1  6  0  0  0
  8 13  1  0  0  0  0
 10 19  1  0  0  0  0
 12 16  1  0  0  0  0
 12  8  1  0  0  0  0
 13 18  1  1  0  0  0
 13  2  1  0  0  0  0
 16  5  1  0  0  0  0
 17  6  1  0  0  0  0
 17 16  2  0  0  0  0
 18 10  1  0  0  0  0
 19 20  1  0  0  0  0
 20 15  2  0  0  0  0
 22 21  2  0  0  0  0
 23 22  1  0  0  0  0
 24 31  1  0  0  0  0
 24 27  1  1  0  0  0
 25 30  1  0  0  0  0
 25 28  1  0  0  0  0
 28 24  1  0  0  0  0
 29 26  1  1  0  0  0
 29 31  1  0  0  0  0
 30 29  1  0  0  0  0
 30 22  1  1  0  0  0
M  END
>  <MODEL>
7

>  <REMARK>
 VINA RESULT:      -7.3      3.939      6.606
  Name = 
  2 active torsions:
  status: ('A' for Active; 'I' for Inactive)
    1  A    between atoms: C_5  and  C_30
    2  A    between atoms: C_10  and  N_16
                            x       y       z     vdW  Elec       q    Type
                         _______ _______ _______ _____ _____    ______ ____

>  <TORSDO>
F 2

$$$$
=
 OpenBabel11122411163D

 31 35  0  0  1  0  0  0  0  0999 V2000
  185.0360  178.7900  144.6730 C   0  0  0  0  0  0  0  0  0  0  0  0
  188.8020  178.5990  144.1450 C   0  0  2  0  0  3  0  0  0  0  0  0
  189.3860  177.6940  145.2200 C   0  0  0  0  0  0  0  0  0  0  0  0
  189.2100  176.6850  147.4290 C   0  0  0  0  0  0  0  0  0  0  0  0
  187.3170  178.4090  143.9390 C   0  0  0  0  0  0  0  0  0  0  0  0
  184.5590  178.0480  143.5880 C   0  0  0  0  0  3  0  0  0  0  0  0
  188.6590  177.4430  146.3960 C   0  0  0  0  0  3  0  0  0  0  0  0
  189.1870  177.2420  142.0310 C   0  0  2  0  0  3  0  0  0  0  0  0
  184.0810  179.3850  145.6420 C   0  0  0  0  0  1  0  0  0  0  0  0
  191.5510  177.4200  143.8960 C   0  0  0  0  0  2  0  0  0  0  0  0
  188.4690  176.4360  148.5770 O   0  0  0  0  0  1  0  0  0  0  0  0
  187.7390  177.1530  141.8660 N   0  0  0  0  0  2  0  0  0  0  0  0
  189.5640  178.5150  142.8050 C   0  0  2  0  0  3  0  0  0  0  0  0
  186.4100  178.9730  144.8450 C   0  0  0  0  0  3  0  0  0  0  0  0
  190.5050  176.1810  147.3120 C   0  0  0  0  0  3  0  0  0  0  0  0
  186.8330  177.6650  142.8460 C   0  0  0  0  0  0  0  0  0  0  0  0
  185.4570  177.4910  142.6720 C   0  0  0  0  0  3  0  0  0  0  0  0
  191.0690  178.6020  143.0590 C   0  0  0  0  0  2  0  0  0  0  0  0
  190.7140  177.2110  145.1240 C   0  0  0  0  0  0  0  0  0  0  0  0
  191.2530  176.4430  146.1620 C   0  0  0  0  0  3  0  0  0  0  0  0
  188.1740  178.5250  139.6970 O   0  0  0  0  0  0  0  0  0  0  0  0
  189.2690  177.9080  139.5950 C   0  0  0  0  0  0  0  0  0  0  0  0
  189.8280  177.2360  140.7240 N   0  0  0  0  0  2  0  0  0  0  0  0
  188.3600  176.6980  136.1220 C   0  0  1  0  0  3  0  0  0  0  0  0
  189.3280  178.7380  137.2200 C   0  0  0  0  0  2  0  0  0  0  0  0
  190.7820  175.6200  138.7500 O   0  0  0  0  0  1  0  0  0  0  0  0
  187.1870  176.1220  135.6390 O   0  0  0  0  0  1  0  0  0  0  0  0
  188.0550  178.0860  136.6750 C   0  0  0  0  0  2  0  0  0  0  0  0
  190.2330  176.4340  137.7570 C   0  0  2  0  0  3  0  0  0  0  0  0
  189.9990  177.8600  138.2840 C   0  0  2  0  0  3  0  0  0  0  0  0
  188.9490  175.8120  137.2160 C   0  0  0  0  0  2  0  0  0  0  0  0
  1 14  1  0  0  0  0
  1  9  1  0  0  0  0
  2  5  1  6  0  0  0
  2  3  1  0  0  0  0
  3  7  1  0  0  0  0
  4 11  1  0  0  0  0
  5 14  2  0  0  0  0
  6  1  2  0  0  0  0
  7  4  2  0  0  0  0
  8 23  1  6  0  0  0
  8 13  1  0  0  0  0
 10 19  1  0  0  0  0
 12  8  1  0  0  0  0
 12 16  1  0  0  0  0
 13 18  1  1  0  0  0
 13  2  1  0  0  0  0
 15  4  1  0  0  0  0
 16  5  1  0  0  0  0
 17 16  2  0  0  0  0
 17  6  1  0  0  0  0
 18 10  1  0  0  0  0
 19  3  2  0  0  0  0
 19 20  1  0  0  0  0
 20 15  2  0  0  0  0
 22 21  2  0  0  0  0
 22 23  1  0  0  0  0
 24 27  1  1  0  0  0
 24 28  1  0  0  0  0
 24 31  1  0  0  0  0
 25 30  1  0  0  0  0
 28 25  1  0  0  0  0
 29 30  1  0  0  0  0
 29 26  1  1  0  0  0
 30 22  1  1  0  0  0
 31 29  1  0  0  0  0
M  END
>  <MODEL>
8

>  <REMARK>
 VINA RESULT:      -7.3      1.494      4.198
  Name = 
  2 active torsions:
  status: ('A' for Active; 'I' for Inactive)
    1  A    between atoms: C_5  and  C_30
    2  A    between atoms: C_10  and  N_16
                            x       y       z     vdW  Elec       q    Type
                         _______ _______ _______ _____ _____    ______ ____

>  <TORSDO>
F 2

$$$$
=
 OpenBabel11122411163D

 31 35  0  0  1  0  0  0  0  0999 V2000
  183.3620  178.6490  138.3590 C   0  0  0  0  0  0  0  0  0  0  0  0
  187.1500  178.5710  138.7410 C   0  0  2  0  0  3  0  0  0  0  0  0
  187.4730  178.2480  140.1920 C   0  0  0  0  0  0  0  0  0  0  0  0
  186.8050  178.2400  142.5340 C   0  0  0  0  0  0  0  0  0  0  0  0
  185.7440  178.1890  138.3380 C   0  0  0  0  0  0  0  0  0  0  0  0
  183.1270  177.4850  137.6200 C   0  0  0  0  0  3  0  0  0  0  0  0
  186.5030  178.4500  141.1880 C   0  0  0  0  0  3  0  0  0  0  0  0
  187.9750  176.4950  137.5310 C   0  0  2  0  0  3  0  0  0  0  0  0
  182.2230  179.5110  138.7670 C   0  0  0  0  0  1  0  0  0  0  0  0
  189.8730  177.6300  139.5820 C   0  0  0  0  0  2  0  0  0  0  0  0
  185.8270  178.4290  143.5020 O   0  0  0  0  0  1  0  0  0  0  0  0
  186.5980  176.2240  137.1280 N   0  0  0  0  0  2  0  0  0  0  0  0
  188.1860  178.0010  137.7500 C   0  0  2  0  0  3  0  0  0  0  0  0
  184.6670  179.0010  138.7130 C   0  0  0  0  0  3  0  0  0  0  0  0
  188.0880  177.8420  142.9080 C   0  0  0  0  0  3  0  0  0  0  0  0
  185.5050  177.0200  137.5900 C   0  0  0  0  0  0  0  0  0  0  0  0
  184.1980  176.6750  137.2310 C   0  0  0  0  0  3  0  0  0  0  0  0
  189.6000  178.3120  138.2430 C   0  0  0  0  0  2  0  0  0  0  0  0
  188.7850  177.8820  140.5840 C   0  0  0  0  0  0  0  0  0  0  0  0
  189.0730  177.6630  141.9350 C   0  0  0  0  0  3  0  0  0  0  0  0
  190.0460  174.5860  137.9640 O   0  0  0  0  0  0  0  0  0  0  0  0
  189.9010  175.0340  136.7940 C   0  0  0  0  0  0  0  0  0  0  0  0
  188.8870  175.9990  136.5100 N   0  0  0  0  0  2  0  0  0  0  0  0
  193.6460  175.1070  136.2290 C   0  0  1  0  0  3  0  0  0  0  0  0
  191.7530  173.4620  136.1390 C   0  0  0  0  0  2  0  0  0  0  0  0
  190.6960  176.7460  134.6320 O   0  0  0  0  0  1  0  0  0  0  0  0
  194.6750  175.6070  137.0250 O   0  0  0  0  0  1  0  0  0  0  0  0
  192.8950  174.0200  136.9900 C   0  0  0  0  0  2  0  0  0  0  0  0
  191.5610  175.7090  134.9860 C   0  0  2  0  0  3  0  0  0  0  0  0
  190.7960  174.5700  135.6810 C   0  0  2  0  0  3  0  0  0  0  0  0
  192.6970  176.2420  135.8550 C   0  0  0  0  0  2  0  0  0  0  0  0
  1 14  1  0  0  0  0
  1  9  1  0  0  0  0
  2  5  1  6  0  0  0
  2  3  1  0  0  0  0
  3 19  2  0  0  0  0
  3  7  1  0  0  0  0
  4 15  1  0  0  0  0
  4 11  1  0  0  0  0
  5 14  2  0  0  0  0
  6  1  2  0  0  0  0
  7  4  2  0  0  0  0
  8 23  1  6  0  0  0
  8 13  1  0  0  0  0
 10 19  1  0  0  0  0
 12  8  1  0  0  0  0
 12 16  1  0  0  0  0
 13 18  1  1  0  0  0
 13  2  1  0  0  0  0
 16  5  1  0  0  0  0
 17 16  2  0  0  0  0
 17  6  1  0  0  0  0
 18 10  1  0  0  0  0
 19 20  1  0  0  0  0
 20 15  2  0  0  0  0
 22 21  2  0  0  0  0
 23 22  1  0  0  0  0
 24 28  1  0  0  0  0
 24 27  1  1  0  0  0
 25 28  1  0  0  0  0
 29 26  1  1  0  0  0
 29 30  1  0  0  0  0
 29 31  1  0  0  0  0
 30 25  1  0  0  0  0
 30 22  1  1  0  0  0
 31 24  1  0  0  0  0
M  END
>  <MODEL>
9

>  <REMARK>
 VINA RESULT:      -7.1      3.227      6.511
  Name = 
  2 active torsions:
  status: ('A' for Active; 'I' for Inactive)
    1  A    between atoms: C_5  and  C_30
    2  A    between atoms: C_10  and  N_16
                            x       y       z     vdW  Elec       q    Type
                         _______ _______ _______ _____ _____    ______ ____

>  <TORSDO>
F 2

$$$$
