=
 OpenBabel11122410463D

 32 37  0  0  1  0  0  0  0  0999 V2000
  188.3220  178.6220  137.5900 C   0  0  0  0  0  2  0  0  0  0  0  0
  188.5920  177.1340  143.1160 C   0  0  1  0  0  3  0  0  0  0  0  0
  184.7000  178.4160  145.8030 C   0  0  0  0  0  3  0  0  0  0  0  0
  185.4410  178.2940  146.9800 C   0  0  0  0  0  3  0  0  0  0  0  0
  190.8270  176.5660  144.3520 C   0  0  1  0  0  3  0  0  0  0  0  0
  191.5480  176.3890  145.7020 C   0  0  2  0  0  3  0  0  0  0  0  0
  188.8240  178.1960  140.8320 N   0  0  2  0  0  0  0  0  0  0  0  0
  186.5910  178.0220  141.9440 C   0  0  0  0  0  2  0  0  0  0  0  0
  191.5690  176.5070  147.9860 C   0  0  1  0  0  3  0  0  0  0  0  0
  186.7070  178.4790  139.5330 C   0  0  0  0  0  2  0  0  0  0  0  0
  185.3420  178.3520  144.5650 C   0  0  0  0  0  3  0  0  0  0  0  0
  187.4680  178.1680  143.1860 C   0  0  1  0  0  3  0  0  0  0  0  0
  186.7280  178.1440  144.4950 C   0  0  0  0  0  0  0  0  0  0  0  0
  188.9810  177.8540  145.5690 C   0  0  1  0  0  3  0  0  0  0  0  0
  191.8000  175.1710  147.5830 O   0  0  0  0  0  0  0  0  0  0  0  0
  189.4430  178.9330  138.5850 C   0  0  0  0  0  2  0  0  0  0  0  0
  187.4170  177.7510  140.6740 C   0  0  1  0  0  3  0  0  0  0  0  0
  191.4100  175.0660  146.2770 N   0  0  0  0  0  2  0  0  0  0  0  0
  189.5980  177.8490  139.6410 C   0  0  0  0  0  2  0  0  0  0  0  0
  187.1150  177.8940  138.1870 C   0  0  1  0  0  3  0  0  0  0  0  0
  186.8240  178.1070  146.9200 C   0  0  0  0  0  3  0  0  0  0  0  0
  187.4780  178.0230  145.6780 C   0  0  0  0  0  0  0  0  0  0  0  0
  189.6020  177.4150  146.8890 C   0  0  0  0  0  2  0  0  0  0  0  0
  189.5060  177.4830  141.9280 C   0  0  0  0  0  2  0  0  0  0  0  0
  191.1240  175.3810  143.4400 C   0  0  0  0  0  1  0  0  0  0  0  0
  192.8450  177.0920  148.5620 C   0  0  0  0  0  1  0  0  0  0  0  0
  189.3100  176.8260  144.4690 C   0  0  1  0  0  3  0  0  0  0  0  0
  191.1220  177.3160  146.7960 C   0  0  2  0  0  3  0  0  0  0  0  0
  186.0030  177.9690  137.2530 N   0  0  0  0  0  2  0  0  0  0  0  0
  185.3300  176.8040  136.7740 C   0  0  0  0  0  0  0  0  0  0  0  0
  185.7380  175.5370  137.1730 O   0  0  0  0  0  1  0  0  0  0  0  0
  184.3610  176.9260  135.9810 O   0  0  0  0  0  0  0  0  0  0  0  0
  1 20  1  0  0  0  0
  1 16  1  0  0  0  0
  2 24  1  6  0  0  0
  2 12  1  0  0  0  0
  2 27  1  0  0  0  0
  3  4  1  0  0  0  0
  5 25  1  6  0  0  0
  5 27  1  0  0  0  0
  5  6  1  0  0  0  0
  6 18  1  1  0  0  0
  6 28  1  0  0  0  0
  7 19  1  6  0  0  0
  7 24  1  0  0  0  0
  9 26  1  6  0  0  0
 11  3  2  0  0  0  0
 12  8  1  6  0  0  0
 12 13  1  0  0  0  0
 13 11  1  0  0  0  0
 13 22  2  0  0  0  0
 14 22  1  0  0  0  0
 14 23  1  1  0  0  0
 15  9  1  0  0  0  0
 16 19  1  0  0  0  0
 17 10  1  6  0  0  0
 17  7  1  0  0  0  0
 17  8  1  0  0  0  0
 18 15  1  0  0  0  0
 20 29  1  6  0  0  0
 20 10  1  0  0  0  0
 21  4  2  0  0  0  0
 22 21  1  0  0  0  0
 27 14  1  0  0  0  0
 28 23  1  0  0  0  0
 28  9  1  0  0  0  0
 30 31  1  0  0  0  0
 30 29  1  0  0  0  0
 32 30  2  0  0  0  0
M  END
>  <MODEL>
1

>  <REMARK>
 VINA RESULT:      -8.7      0.000      0.000
  Name = 
  1 active torsions:
  status: ('A' for Active; 'I' for Inactive)
    1  A    between atoms: C_20  and  N_29
                            x       y       z     vdW  Elec       q    Type
                         _______ _______ _______ _____ _____    ______ ____

>  <TORSDO>
F 1

$$$$
=
 OpenBabel11122410463D

 32 37  0  0  1  0  0  0  0  0999 V2000
  180.3510  178.7350  139.1250 C   0  0  0  0  0  2  0  0  0  0  0  0
  185.1560  178.8480  142.2440 C   0  0  1  0  0  3  0  0  0  0  0  0
  189.2990  178.2520  139.6960 C   0  0  0  0  0  3  0  0  0  0  0  0
  189.9880  177.8900  140.8540 C   0  0  0  0  0  3  0  0  0  0  0  0
  185.2120  178.4380  144.8280 C   0  0  1  0  0  3  0  0  0  0  0  0
  186.0650  178.0940  146.0630 C   0  0  2  0  0  3  0  0  0  0  0  0
  182.9840  178.2830  141.0760 N   0  0  2  0  0  0  0  0  0  0  0  0
  185.0290  178.8780  139.7640 C   0  0  0  0  0  2  0  0  0  0  0  0
  188.0580  177.4870  147.0090 C   0  0  1  0  0  3  0  0  0  0  0  0
  182.8320  178.9360  138.6670 C   0  0  0  0  0  2  0  0  0  0  0  0
  187.9090  178.3840  139.7240 C   0  0  0  0  0  3  0  0  0  0  0  0
  185.6980  178.2110  140.9650 C   0  0  1  0  0  3  0  0  0  0  0  0
  187.2010  178.1750  140.9170 C   0  0  0  0  0  0  0  0  0  0  0  0
  187.0920  177.5350  143.3440 C   0  0  1  0  0  3  0  0  0  0  0  0
  187.6600  178.7460  147.5190 O   0  0  0  0  0  0  0  0  0  0  0  0
  180.6790  177.8940  140.3620 C   0  0  0  0  0  2  0  0  0  0  0  0
  183.5350  179.1530  140.0070 C   0  0  1  0  0  3  0  0  0  0  0  0
  186.7020  179.2410  146.6780 N   0  0  0  0  0  2  0  0  0  0  0  0
  181.5880  178.6280  141.3370 C   0  0  0  0  0  2  0  0  0  0  0  0
  181.4840  179.6460  138.6470 C   0  0  1  0  0  3  0  0  0  0  0  0
  189.2890  177.6590  142.0420 C   0  0  0  0  0  3  0  0  0  0  0  0
  187.8910  177.8070  142.0860 C   0  0  0  0  0  0  0  0  0  0  0  0
  187.9800  177.4720  144.5810 C   0  0  0  0  0  2  0  0  0  0  0  0
  183.6610  178.5040  142.3670 C   0  0  0  0  0  2  0  0  0  0  0  0
  184.3270  179.6440  145.1200 C   0  0  0  0  0  1  0  0  0  0  0  0
  187.9300  176.4360  148.0940 C   0  0  0  0  0  1  0  0  0  0  0  0
  186.0200  178.6280  143.5260 C   0  0  1  0  0  3  0  0  0  0  0  0
  187.1830  177.1270  145.8360 C   0  0  2  0  0  3  0  0  0  0  0  0
  181.1860  180.1120  137.3020 N   0  0  0  0  0  2  0  0  0  0  0  0
  180.8050  181.4610  137.0300 C   0  0  0  0  0  0  0  0  0  0  0  0
  180.6820  182.3840  138.0630 O   0  0  0  0  0  1  0  0  0  0  0  0
  180.5760  181.8180  135.8450 O   0  0  0  0  0  0  0  0  0  0  0  0
  1 16  1  0  0  0  0
  2 24  1  1  0  0  0
  2 27  1  0  0  0  0
  3 11  2  0  0  0  0
  3  4  1  0  0  0  0
  4 21  2  0  0  0  0
  5 25  1  1  0  0  0
  5  6  1  0  0  0  0
  6 18  1  6  0  0  0
  7 19  1  1  0  0  0
  7 24  1  0  0  0  0
  8 17  1  0  0  0  0
  9 15  1  0  0  0  0
  9 26  1  1  0  0  0
 11 13  1  0  0  0  0
 12  8  1  6  0  0  0
 12  2  1  0  0  0  0
 13 12  1  0  0  0  0
 13 22  2  0  0  0  0
 14 27  1  0  0  0  0
 14 23  1  1  0  0  0
 16 19  1  0  0  0  0
 17 10  1  6  0  0  0
 17  7  1  0  0  0  0
 18 15  1  0  0  0  0
 20 29  1  6  0  0  0
 20 10  1  0  0  0  0
 20  1  1  0  0  0  0
 21 22  1  0  0  0  0
 22 14  1  0  0  0  0
 23 28  1  0  0  0  0
 27  5  1  0  0  0  0
 28  6  1  0  0  0  0
 28  9  1  0  0  0  0
 30 29  1  0  0  0  0
 30 31  1  0  0  0  0
 32 30  2  0  0  0  0
M  END
>  <MODEL>
2

>  <REMARK>
 VINA RESULT:      -8.3      3.671      5.758
  Name = 
  1 active torsions:
  status: ('A' for Active; 'I' for Inactive)
    1  A    between atoms: C_20  and  N_29
                            x       y       z     vdW  Elec       q    Type
                         _______ _______ _______ _____ _____    ______ ____

>  <TORSDO>
F 1

$$$$
=
 OpenBabel11122410463D

 32 37  0  0  1  0  0  0  0  0999 V2000
  191.3140  175.8870  137.0190 C   0  0  0  0  0  2  0  0  0  0  0  0
  188.8760  177.8500  141.8180 C   0  0  1  0  0  3  0  0  0  0  0  0
  191.3620  176.9230  145.9380 C   0  0  0  0  0  3  0  0  0  0  0  0
  190.2150  177.1280  146.7060 C   0  0  0  0  0  3  0  0  0  0  0  0
  186.3390  178.4620  142.0050 C   0  0  1  0  0  3  0  0  0  0  0  0
  185.1410  178.7370  142.9340 C   0  0  2  0  0  3  0  0  0  0  0  0
  189.5640  176.5840  139.7390 N   0  0  2  0  0  0  0  0  0  0  0  0
  191.1710  176.9190  141.6270 C   0  0  0  0  0  2  0  0  0  0  0  0
  184.2100  178.8210  145.0210 C   0  0  1  0  0  3  0  0  0  0  0  0
  192.0210  176.2480  139.4220 C   0  0  0  0  0  2  0  0  0  0  0  0
  191.2680  176.8580  144.5460 C   0  0  0  0  0  3  0  0  0  0  0  0
  189.8700  176.8590  142.4240 C   0  0  1  0  0  3  0  0  0  0  0  0
  190.0270  177.0200  143.9110 C   0  0  0  0  0  0  0  0  0  0  0  0
  187.5360  177.3390  143.9690 C   0  0  1  0  0  3  0  0  0  0  0  0
  184.1710  180.1090  144.4380 O   0  0  0  0  0  0  0  0  0  0  0  0
  189.8860  175.6340  137.5100 C   0  0  0  0  0  2  0  0  0  0  0  0
  190.9220  177.0530  140.1140 C   0  0  1  0  0  3  0  0  0  0  0  0
  185.0510  180.1090  143.3910 N   0  0  0  0  0  2  0  0  0  0  0  0
  189.3330  176.8020  138.3120 C   0  0  0  0  0  2  0  0  0  0  0  0
  192.1900  176.6990  137.9770 C   0  0  1  0  0  3  0  0  0  0  0  0
  188.9720  177.2690  146.0830 C   0  0  0  0  0  3  0  0  0  0  0  0
  188.8680  177.2240  144.6820 C   0  0  0  0  0  0  0  0  0  0  0  0
  186.4430  177.8760  144.8860 C   0  0  0  0  0  2  0  0  0  0  0  0
  188.5090  177.3720  140.4030 C   0  0  0  0  0  2  0  0  0  0  0  0
  186.4410  179.5520  140.9440 C   0  0  0  0  0  1  0  0  0  0  0  0
  182.8060  178.2530  145.0940 C   0  0  0  0  0  1  0  0  0  0  0  0
  187.6820  178.2570  142.7390 C   0  0  1  0  0  3  0  0  0  0  0  0
  185.0870  177.9230  144.1870 C   0  0  2  0  0  3  0  0  0  0  0  0
  193.5810  176.5730  137.5740 N   0  0  0  0  0  2  0  0  0  0  0  0
  194.2430  175.3100  137.5050 C   0  0  0  0  0  0  0  0  0  0  0  0
  193.5750  174.1410  137.8500 O   0  0  0  0  0  1  0  0  0  0  0  0
  195.4440  175.2550  137.1320 O   0  0  0  0  0  0  0  0  0  0  0  0
  1 16  1  0  0  0  0
  1 20  1  0  0  0  0
  2 24  1  6  0  0  0
  2 12  1  0  0  0  0
  2 27  1  0  0  0  0
  3  4  1  0  0  0  0
  5 25  1  6  0  0  0
  5 27  1  0  0  0  0
  5  6  1  0  0  0  0
  6 18  1  1  0  0  0
  6 28  1  0  0  0  0
  7 19  1  6  0  0  0
  7 17  1  0  0  0  0
  7 24  1  0  0  0  0
  9 26  1  6  0  0  0
 11  3  2  0  0  0  0
 12  8  1  6  0  0  0
 12 13  1  0  0  0  0
 13 11  1  0  0  0  0
 13 22  2  0  0  0  0
 14 22  1  0  0  0  0
 14 23  1  1  0  0  0
 15  9  1  0  0  0  0
 16 19  1  0  0  0  0
 17 10  1  6  0  0  0
 17  8  1  0  0  0  0
 18 15  1  0  0  0  0
 20 29  1  6  0  0  0
 20 10  1  0  0  0  0
 21  4  2  0  0  0  0
 22 21  1  0  0  0  0
 27 14  1  0  0  0  0
 28 23  1  0  0  0  0
 28  9  1  0  0  0  0
 30 29  1  0  0  0  0
 30 31  1  0  0  0  0
 32 30  2  0  0  0  0
M  END
>  <MODEL>
3

>  <REMARK>
 VINA RESULT:      -8.3      3.545      6.013
  Name = 
  1 active torsions:
  status: ('A' for Active; 'I' for Inactive)
    1  A    between atoms: C_20  and  N_29
                            x       y       z     vdW  Elec       q    Type
                         _______ _______ _______ _____ _____    ______ ____

>  <TORSDO>
F 1

$$$$
=
 OpenBabel11122410463D

 32 37  0  0  1  0  0  0  0  0999 V2000
  191.8980  175.6720  144.4990 C   0  0  0  0  0  2  0  0  0  0  0  0
  187.0970  178.1110  142.5430 C   0  0  1  0  0  3  0  0  0  0  0  0
  183.7180  179.0750  145.9590 C   0  0  0  0  0  3  0  0  0  0  0  0
  182.7210  179.1540  144.9860 C   0  0  0  0  0  3  0  0  0  0  0  0
  186.3460  178.0190  140.0390 C   0  0  1  0  0  3  0  0  0  0  0  0
  185.1970  178.1920  139.0270 C   0  0  2  0  0  3  0  0  0  0  0  0
  188.9950  176.5690  143.1920 N   0  0  2  0  0  0  0  0  0  0  0  0
  187.7240  177.8410  144.9310 C   0  0  0  0  0  2  0  0  0  0  0  0
  182.9930  178.5810  138.5550 C   0  0  1  0  0  3  0  0  0  0  0  0
  189.9010  176.8570  145.5040 C   0  0  0  0  0  2  0  0  0  0  0  0
  184.9900  178.6090  145.6190 C   0  0  0  0  0  3  0  0  0  0  0  0
  186.6040  177.6410  143.9120 C   0  0  1  0  0  3  0  0  0  0  0  0
  185.2790  178.2390  144.2970 C   0  0  0  0  0  0  0  0  0  0  0  0
  184.6050  177.8550  141.9070 C   0  0  1  0  0  3  0  0  0  0  0  0
  183.7840  179.5970  137.9690 O   0  0  0  0  0  0  0  0  0  0  0  0
  190.9950  175.1750  143.3680 C   0  0  0  0  0  2  0  0  0  0  0  0
  189.1060  177.4810  144.3580 C   0  0  1  0  0  3  0  0  0  0  0  0
  185.0100  179.5550  138.5720 N   0  0  0  0  0  2  0  0  0  0  0  0
  190.3170  176.3160  142.6230 C   0  0  0  0  0  2  0  0  0  0  0  0
  191.3960  176.9240  145.2210 C   0  0  1  0  0  3  0  0  0  0  0  0
  182.9940  178.7670  143.6710 C   0  0  0  0  0  3  0  0  0  0  0  0
  184.2760  178.3140  143.3130 C   0  0  0  0  0  0  0  0  0  0  0  0
  183.5470  178.2950  140.9020 C   0  0  0  0  0  2  0  0  0  0  0  0
  188.2350  177.1820  142.0860 C   0  0  0  0  0  2  0  0  0  0  0  0
  187.5860  178.7610  139.5550 C   0  0  0  0  0  1  0  0  0  0  0  0
  182.4280  177.6860  137.4680 C   0  0  0  0  0  1  0  0  0  0  0  0
  185.9830  178.4040  141.4890 C   0  0  1  0  0  3  0  0  0  0  0  0
  183.8420  177.7710  139.5000 C   0  0  2  0  0  3  0  0  0  0  0  0
  192.1320  177.0860  146.4640 N   0  0  0  0  0  2  0  0  0  0  0  0
  192.1180  176.0950  147.4930 C   0  0  0  0  0  0  0  0  0  0  0  0
  191.3680  174.9340  147.3460 O   0  0  0  0  0  0  0  0  0  0  0  0
  192.7880  176.2770  148.5430 O   0  0  0  0  0  1  0  0  0  0  0  0
  1 20  1  0  0  0  0
  2 24  1  6  0  0  0
  2 12  1  0  0  0  0
  4  3  2  0  0  0  0
  5 25  1  6  0  0  0
  5 27  1  0  0  0  0
  6 18  1  1  0  0  0
  6 28  1  0  0  0  0
  6  5  1  0  0  0  0
  7 24  1  6  0  0  0
  7 17  1  0  0  0  0
  9 26  1  6  0  0  0
  9 28  1  0  0  0  0
 11  3  1  0  0  0  0
 12 13  1  0  0  0  0
 12  8  1  1  0  0  0
 13 11  2  0  0  0  0
 14 23  1  6  0  0  0
 14 22  1  0  0  0  0
 15  9  1  0  0  0  0
 15 18  1  0  0  0  0
 16  1  1  0  0  0  0
 17  8  1  1  0  0  0
 17 10  1  0  0  0  0
 19  7  1  0  0  0  0
 19 16  1  0  0  0  0
 20 10  1  0  0  0  0
 20 29  1  1  0  0  0
 21  4  1  0  0  0  0
 22 21  2  0  0  0  0
 22 13  1  0  0  0  0
 27 14  1  0  0  0  0
 27  2  1  0  0  0  0
 28 23  1  0  0  0  0
 29 30  1  0  0  0  0
 30 32  1  0  0  0  0
 31 30  2  0  0  0  0
M  END
>  <MODEL>
4

>  <REMARK>
 VINA RESULT:      -8.1      1.842      8.073
  Name = 
  1 active torsions:
  status: ('A' for Active; 'I' for Inactive)
    1  A    between atoms: C_20  and  N_29
                            x       y       z     vdW  Elec       q    Type
                         _______ _______ _______ _____ _____    ______ ____

>  <TORSDO>
F 1

$$$$
=
 OpenBabel11122410463D

 32 37  0  0  1  0  0  0  0  0999 V2000
  186.6640  178.5000  147.3980 C   0  0  0  0  0  2  0  0  0  0  0  0
  184.5200  178.1530  142.0960 C   0  0  1  0  0  3  0  0  0  0  0  0
  187.8580  177.8010  138.5260 C   0  0  0  0  0  3  0  0  0  0  0  0
  186.9250  178.2210  137.5770 C   0  0  0  0  0  3  0  0  0  0  0  0
  182.0960  178.9080  141.4650 C   0  0  1  0  0  3  0  0  0  0  0  0
  181.1150  179.2980  140.3430 C   0  0  2  0  0  3  0  0  0  0  0  0
  185.3400  178.8470  144.3860 N   0  0  2  0  0  0  0  0  0  0  0  0
  186.8940  177.7950  142.7330 C   0  0  0  0  0  2  0  0  0  0  0  0
  180.6700  179.7460  138.1450 C   0  0  1  0  0  3  0  0  0  0  0  0
  187.5370  177.8910  145.1010 C   0  0  0  0  0  2  0  0  0  0  0  0
  187.5510  177.8700  139.8860 C   0  0  0  0  0  3  0  0  0  0  0  0
  185.9650  178.5220  141.7620 C   0  0  1  0  0  3  0  0  0  0  0  0
  186.2970  178.3410  140.3070 C   0  0  0  0  0  0  0  0  0  0  0  0
  184.0310  179.3220  139.8430 C   0  0  1  0  0  3  0  0  0  0  0  0
  179.8950  178.6390  138.5640 O   0  0  0  0  0  0  0  0  0  0  0  0
  185.6660  179.4510  146.7320 C   0  0  0  0  0  2  0  0  0  0  0  0
  186.3340  177.7670  144.1660 C   0  0  1  0  0  3  0  0  0  0  0  0
  180.4490  178.1700  139.7230 N   0  0  0  0  0  2  0  0  0  0  0  0
  184.7710  178.7410  145.7280 C   0  0  0  0  0  2  0  0  0  0  0  0
  187.1890  177.3810  146.4940 C   0  0  1  0  0  3  0  0  0  0  0  0
  185.6820  178.7110  137.9880 C   0  0  0  0  0  3  0  0  0  0  0  0
  185.3540  178.7680  139.3540 C   0  0  0  0  0  0  0  0  0  0  0  0
  183.0090  179.4330  138.7180 C   0  0  0  0  0  2  0  0  0  0  0  0
  184.1790  178.7160  143.4870 C   0  0  0  0  0  2  0  0  0  0  0  0
  181.4490  177.8900  142.3970 C   0  0  0  0  0  1  0  0  0  0  0  0
  179.7680  180.9460  137.9300 C   0  0  0  0  0  1  0  0  0  0  0  0
  183.4750  178.4270  140.9680 C   0  0  1  0  0  3  0  0  0  0  0  0
  181.7020  180.0580  139.1970 C   0  0  2  0  0  3  0  0  0  0  0  0
  188.3590  176.7790  147.1110 N   0  0  0  0  0  2  0  0  0  0  0  0
  189.6880  177.1830  146.7810 C   0  0  0  0  0  0  0  0  0  0  0  0
  189.9120  178.1670  145.8250 O   0  0  0  0  0  0  0  0  0  0  0  0
  190.6670  176.6410  147.3580 O   0  0  0  0  0  1  0  0  0  0  0  0
  2 24  1  1  0  0  0
  3 11  1  0  0  0  0
  4 21  1  0  0  0  0
  4  3  2  0  0  0  0
  5 25  1  6  0  0  0
  6 18  1  6  0  0  0
  6  5  1  0  0  0  0
  7 24  1  6  0  0  0
  7 19  1  0  0  0  0
  9 26  1  1  0  0  0
  9 15  1  0  0  0  0
  9 28  1  0  0  0  0
 10 20  1  0  0  0  0
 11 13  2  0  0  0  0
 12  2  1  0  0  0  0
 12  8  1  1  0  0  0
 13 12  1  0  0  0  0
 14 23  1  6  0  0  0
 14 27  1  0  0  0  0
 15 18  1  0  0  0  0
 16  1  1  0  0  0  0
 17  8  1  6  0  0  0
 17  7  1  0  0  0  0
 17 10  1  0  0  0  0
 19 16  1  0  0  0  0
 20 29  1  1  0  0  0
 20  1  1  0  0  0  0
 21 22  2  0  0  0  0
 22 14  1  0  0  0  0
 22 13  1  0  0  0  0
 23 28  1  0  0  0  0
 27  5  1  0  0  0  0
 27  2  1  0  0  0  0
 28  6  1  0  0  0  0
 30 29  1  0  0  0  0
 30 32  1  0  0  0  0
 31 30  2  0  0  0  0
M  END
>  <MODEL>
5

>  <REMARK>
 VINA RESULT:      -7.9      3.352      9.521
  Name = 
  1 active torsions:
  status: ('A' for Active; 'I' for Inactive)
    1  A    between atoms: C_20  and  N_29
                            x       y       z     vdW  Elec       q    Type
                         _______ _______ _______ _____ _____    ______ ____

>  <TORSDO>
F 1

$$$$
=
 OpenBabel11122410463D

 32 37  0  0  1  0  0  0  0  0999 V2000
  182.9690  179.6130  139.6840 C   0  0  0  0  0  2  0  0  0  0  0  0
  188.1520  177.2070  140.1110 C   0  0  1  0  0  3  0  0  0  0  0  0
  190.4500  177.9710  144.3710 C   0  0  0  0  0  3  0  0  0  0  0  0
  191.6800  177.6570  143.7920 C   0  0  0  0  0  3  0  0  0  0  0  0
  189.5730  176.4600  138.0450 C   0  0  1  0  0  3  0  0  0  0  0  0
  190.9610  176.0640  137.5070 C   0  0  2  0  0  3  0  0  0  0  0  0
  186.1320  178.6450  139.6090 N   0  0  2  0  0  0  0  0  0  0  0  0
  186.8790  178.2610  141.9650 C   0  0  0  0  0  2  0  0  0  0  0  0
  193.2130  175.7900  137.7980 C   0  0  1  0  0  3  0  0  0  0  0  0
  184.6180  179.1230  141.5410 C   0  0  0  0  0  2  0  0  0  0  0  0
  189.3190  178.1260  143.5660 C   0  0  0  0  0  3  0  0  0  0  0  0
  188.2370  178.2020  141.2680 C   0  0  1  0  0  3  0  0  0  0  0  0
  189.4080  177.9480  142.1770 C   0  0  0  0  0  0  0  0  0  0  0  0
  190.7200  177.5030  140.0810 C   0  0  1  0  0  3  0  0  0  0  0  0
  192.6280  174.5450  137.4690 O   0  0  0  0  0  0  0  0  0  0  0  0
  184.1480  179.7610  138.7190 C   0  0  0  0  0  2  0  0  0  0  0  0
  185.7090  178.2190  140.9660 C   0  0  1  0  0  3  0  0  0  0  0  0
  191.2820  174.6610  137.6760 N   0  0  0  0  0  2  0  0  0  0  0  0
  185.0190  178.5150  138.6710 C   0  0  0  0  0  2  0  0  0  0  0  0
  183.2630  178.7820  140.9350 C   0  0  1  0  0  3  0  0  0  0  0  0
  191.7820  177.4990  142.4080 C   0  0  0  0  0  3  0  0  0  0  0  0
  190.6470  177.6340  141.5890 C   0  0  0  0  0  0  0  0  0  0  0  0
  192.0210  176.8520  139.6290 C   0  0  0  0  0  2  0  0  0  0  0  0
  187.1770  177.7630  139.0580 C   0  0  0  0  0  2  0  0  0  0  0  0
  188.5250  175.4520  137.5870 C   0  0  0  0  0  1  0  0  0  0  0  0
  194.0500  176.2820  136.6330 C   0  0  0  0  0  1  0  0  0  0  0  0
  189.5200  176.6800  139.5720 C   0  0  1  0  0  3  0  0  0  0  0  0
  192.1250  176.7850  138.1080 C   0  0  2  0  0  3  0  0  0  0  0  0
  182.2100  179.0030  141.9130 N   0  0  0  0  0  2  0  0  0  0  0  0
  180.9380  178.3590  141.8220 C   0  0  0  0  0  0  0  0  0  0  0  0
  180.6520  177.5030  140.7650 O   0  0  0  0  0  0  0  0  0  0  0  0
  180.0670  178.5710  142.7060 O   0  0  0  0  0  1  0  0  0  0  0  0
  1 20  1  0  0  0  0
  2 24  1  6  0  0  0
  2 12  1  0  0  0  0
  4  3  1  0  0  0  0
  5 25  1  1  0  0  0
  5 27  1  0  0  0  0
  6 18  1  1  0  0  0
  6  5  1  0  0  0  0
  6 28  1  0  0  0  0
  7 19  1  6  0  0  0
  7 17  1  0  0  0  0
  9 26  1  6  0  0  0
  9 28  1  0  0  0  0
 11  3  2  0  0  0  0
 12  8  1  1  0  0  0
 12 13  1  0  0  0  0
 13 11  1  0  0  0  0
 14 23  1  1  0  0  0
 14 22  1  0  0  0  0
 15 18  1  0  0  0  0
 15  9  1  0  0  0  0
 16  1  1  0  0  0  0
 17 10  1  1  0  0  0
 17  8  1  0  0  0  0
 19 16  1  0  0  0  0
 20 10  1  0  0  0  0
 20 29  1  1  0  0  0
 21  4  2  0  0  0  0
 22 13  2  0  0  0  0
 22 21  1  0  0  0  0
 24  7  1  0  0  0  0
 27 14  1  0  0  0  0
 27  2  1  0  0  0  0
 28 23  1  0  0  0  0
 30 29  1  0  0  0  0
 30 32  1  0  0  0  0
 31 30  2  0  0  0  0
M  END
>  <MODEL>
6

>  <REMARK>
 VINA RESULT:      -7.7      3.780      6.394
  Name = 
  1 active torsions:
  status: ('A' for Active; 'I' for Inactive)
    1  A    between atoms: C_20  and  N_29
                            x       y       z     vdW  Elec       q    Type
                         _______ _______ _______ _____ _____    ______ ____

>  <TORSDO>
F 1

$$$$
=
 OpenBabel11122410463D

 32 37  0  0  1  0  0  0  0  0999 V2000
  186.7910  177.6740  144.3710 C   0  0  0  0  0  2  0  0  0  0  0  0
  189.6030  177.5890  139.3800 C   0  0  1  0  0  3  0  0  0  0  0  0
  186.8030  178.2230  135.4080 C   0  0  0  0  0  3  0  0  0  0  0  0
  187.7880  177.6630  134.5940 C   0  0  0  0  0  3  0  0  0  0  0  0
  191.9750  176.5280  139.0750 C   0  0  1  0  0  3  0  0  0  0  0  0
  193.0320  175.9870  138.0940 C   0  0  2  0  0  3  0  0  0  0  0  0
  188.4260  177.0730  141.5580 N   0  0  2  0  0  0  0  0  0  0  0  0
  187.2310  178.2500  139.7030 C   0  0  0  0  0  2  0  0  0  0  0  0
  193.6880  175.4180  135.9770 C   0  0  1  0  0  3  0  0  0  0  0  0
  186.2920  178.3080  141.9720 C   0  0  0  0  0  2  0  0  0  0  0  0
  186.9290  178.1620  136.7980 C   0  0  0  0  0  3  0  0  0  0  0  0
  188.1760  177.3850  138.8710 C   0  0  1  0  0  3  0  0  0  0  0  0
  188.0520  177.5580  137.3820 C   0  0  0  0  0  0  0  0  0  0  0  0
  190.2200  176.2970  137.2270 C   0  0  1  0  0  3  0  0  0  0  0  0
  194.5350  176.4370  136.4730 O   0  0  0  0  0  0  0  0  0  0  0  0
  187.7390  176.5890  143.8540 C   0  0  0  0  0  2  0  0  0  0  0  0
  187.6070  178.2560  141.1950 C   0  0  1  0  0  3  0  0  0  0  0  0
  193.9040  177.0060  137.5440 N   0  0  0  0  0  2  0  0  0  0  0  0
  188.8330  177.1530  142.9590 C   0  0  0  0  0  2  0  0  0  0  0  0
  186.5240  178.8170  143.3890 C   0  0  1  0  0  3  0  0  0  0  0  0
  188.9000  177.0410  135.1670 C   0  0  0  0  0  3  0  0  0  0  0  0
  189.0460  176.9900  136.5650 C   0  0  0  0  0  0  0  0  0  0  0  0
  191.3520  176.0280  136.2430 C   0  0  0  0  0  2  0  0  0  0  0  0
  189.6970  177.0340  140.8120 C   0  0  0  0  0  2  0  0  0  0  0  0
  192.6220  177.4910  140.0640 C   0  0  0  0  0  1  0  0  0  0  0  0
  194.4550  174.1120  135.9000 C   0  0  0  0  0  1  0  0  0  0  0  0
  190.7380  177.1550  138.3980 C   0  0  1  0  0  3  0  0  0  0  0  0
  192.5030  175.2660  136.8950 C   0  0  2  0  0  3  0  0  0  0  0  0
  185.3700  179.5760  143.8420 N   0  0  0  0  0  2  0  0  0  0  0  0
  184.0310  179.1720  143.5530 C   0  0  0  0  0  0  0  0  0  0  0  0
  183.7840  178.0320  142.7960 O   0  0  0  0  0  0  0  0  0  0  0  0
  183.0660  179.8550  143.9850 O   0  0  0  0  0  1  0  0  0  0  0  0
  2 24  1  1  0  0  0
  3 11  1  0  0  0  0
  4 21  1  0  0  0  0
  4  3  2  0  0  0  0
  5 25  1  6  0  0  0
  6 18  1  6  0  0  0
  6  5  1  0  0  0  0
  7 24  1  6  0  0  0
  7 19  1  0  0  0  0
  9 26  1  1  0  0  0
  9 15  1  0  0  0  0
  9 28  1  0  0  0  0
 10 20  1  0  0  0  0
 11 13  2  0  0  0  0
 12  2  1  0  0  0  0
 12  8  1  1  0  0  0
 13 12  1  0  0  0  0
 14 23  1  6  0  0  0
 14 27  1  0  0  0  0
 15 18  1  0  0  0  0
 16  1  1  0  0  0  0
 17  8  1  6  0  0  0
 17  7  1  0  0  0  0
 17 10  1  0  0  0  0
 19 16  1  0  0  0  0
 20 29  1  1  0  0  0
 20  1  1  0  0  0  0
 21 22  2  0  0  0  0
 22 14  1  0  0  0  0
 22 13  1  0  0  0  0
 23 28  1  0  0  0  0
 27  5  1  0  0  0  0
 27  2  1  0  0  0  0
 28  6  1  0  0  0  0
 30 29  1  0  0  0  0
 30 32  1  0  0  0  0
 31 30  2  0  0  0  0
M  END
>  <MODEL>
7

>  <REMARK>
 VINA RESULT:      -7.3      3.847      7.891
  Name = 
  1 active torsions:
  status: ('A' for Active; 'I' for Inactive)
    1  A    between atoms: C_20  and  N_29
                            x       y       z     vdW  Elec       q    Type
                         _______ _______ _______ _____ _____    ______ ____

>  <TORSDO>
F 1

$$$$
=
 OpenBabel11122410463D

 32 37  0  0  1  0  0  0  0  0999 V2000
  187.5080  178.3380  147.9140 C   0  0  0  0  0  2  0  0  0  0  0  0
  185.5620  177.9200  142.5410 C   0  0  1  0  0  3  0  0  0  0  0  0
  189.0260  177.4030  139.1140 C   0  0  0  0  0  3  0  0  0  0  0  0
  188.1410  177.8240  138.1200 C   0  0  0  0  0  3  0  0  0  0  0  0
  183.1850  178.7210  141.7990 C   0  0  1  0  0  3  0  0  0  0  0  0
  182.2580  179.1090  140.6310 C   0  0  2  0  0  3  0  0  0  0  0  0
  186.3110  178.6480  144.8460 N   0  0  2  0  0  0  0  0  0  0  0  0
  187.9000  177.5190  143.2780 C   0  0  0  0  0  2  0  0  0  0  0  0
  181.9100  179.5160  138.4070 C   0  0  1  0  0  3  0  0  0  0  0  0
  188.4530  177.6550  145.6680 C   0  0  0  0  0  2  0  0  0  0  0  0
  188.6680  177.5120  140.4590 C   0  0  0  0  0  3  0  0  0  0  0  0
  187.0290  178.2460  142.2560 C   0  0  1  0  0  3  0  0  0  0  0  0
  187.4120  178.0230  140.8190 C   0  0  0  0  0  0  0  0  0  0  0  0
  185.1910  179.0490  140.2450 C   0  0  1  0  0  3  0  0  0  0  0  0
  181.0910  178.4390  138.8200 O   0  0  0  0  0  0  0  0  0  0  0  0
  186.5610  179.2980  147.1890 C   0  0  0  0  0  2  0  0  0  0  0  0
  187.2850  177.5390  144.6890 C   0  0  1  0  0  3  0  0  0  0  0  0
  181.5880  177.9840  140.0100 N   0  0  0  0  0  2  0  0  0  0  0  0
  185.6870  178.5870  146.1660 C   0  0  0  0  0  2  0  0  0  0  0  0
  188.0390  177.1860  147.0570 C   0  0  1  0  0  3  0  0  0  0  0  0
  186.8960  178.3540  138.4700 C   0  0  0  0  0  3  0  0  0  0  0  0
  186.5180  178.4510  139.8210 C   0  0  0  0  0  0  0  0  0  0  0  0
  184.2170  179.1590  139.0790 C   0  0  0  0  0  2  0  0  0  0  0  0
  185.1830  178.5240  143.9050 C   0  0  0  0  0  2  0  0  0  0  0  0
  182.4770  177.7410  142.7270 C   0  0  0  0  0  1  0  0  0  0  0  0
  181.0490  180.7330  138.1310 C   0  0  0  0  0  1  0  0  0  0  0  0
  184.5700  178.1940  141.3670 C   0  0  1  0  0  3  0  0  0  0  0  0
  182.9090  179.8270  139.4920 C   0  0  2  0  0  3  0  0  0  0  0  0
  189.1680  176.5690  147.7330 N   0  0  0  0  0  2  0  0  0  0  0  0
  190.5170  176.7950  147.3240 C   0  0  0  0  0  0  0  0  0  0  0  0
  190.7990  177.6080  146.2310 O   0  0  0  0  0  0  0  0  0  0  0  0
  191.4600  176.2500  147.9550 O   0  0  0  0  0  1  0  0  0  0  0  0
  2 24  1  1  0  0  0
  3 11  1  0  0  0  0
  4 21  1  0  0  0  0
  4  3  2  0  0  0  0
  5 25  1  6  0  0  0
  6 18  1  6  0  0  0
  6  5  1  0  0  0  0
  7 24  1  6  0  0  0
  7 19  1  0  0  0  0
  9 26  1  1  0  0  0
  9 15  1  0  0  0  0
  9 28  1  0  0  0  0
 10 20  1  0  0  0  0
 11 13  2  0  0  0  0
 12  2  1  0  0  0  0
 12  8  1  1  0  0  0
 13 12  1  0  0  0  0
 14 23  1  6  0  0  0
 14 27  1  0  0  0  0
 15 18  1  0  0  0  0
 16  1  1  0  0  0  0
 17  8  1  6  0  0  0
 17  7  1  0  0  0  0
 17 10  1  0  0  0  0
 19 16  1  0  0  0  0
 20 29  1  1  0  0  0
 20  1  1  0  0  0  0
 21 22  2  0  0  0  0
 22 14  1  0  0  0  0
 22 13  1  0  0  0  0
 23 28  1  0  0  0  0
 27  5  1  0  0  0  0
 27  2  1  0  0  0  0
 28  6  1  0  0  0  0
 30 29  1  0  0  0  0
 30 32  1  0  0  0  0
 31 30  2  0  0  0  0
M  END
>  <MODEL>
8

>  <REMARK>
 VINA RESULT:      -7.2      2.732      9.157
  Name = 
  1 active torsions:
  status: ('A' for Active; 'I' for Inactive)
    1  A    between atoms: C_20  and  N_29
                            x       y       z     vdW  Elec       q    Type
                         _______ _______ _______ _____ _____    ______ ____

>  <TORSDO>
F 1

$$$$
=
 OpenBabel11122410463D

 32 37  0  0  1  0  0  0  0  0999 V2000
  179.9130  178.8820  143.1890 C   0  0  0  0  0  2  0  0  0  0  0  0
  185.5770  178.6850  144.0280 C   0  0  1  0  0  3  0  0  0  0  0  0
  188.2730  178.4110  139.9450 C   0  0  0  0  0  3  0  0  0  0  0  0
  189.3640  177.9270  140.6680 C   0  0  0  0  0  3  0  0  0  0  0  0
  186.6790  177.9890  146.2970 C   0  0  1  0  0  3  0  0  0  0  0  0
  187.9520  177.5170  147.0240 C   0  0  2  0  0  3  0  0  0  0  0  0
  183.0970  178.2360  143.8130 N   0  0  2  0  0  0  0  0  0  0  0  0
  184.4400  178.9900  141.8420 C   0  0  0  0  0  2  0  0  0  0  0  0
  190.1320  176.8250  146.9890 C   0  0  1  0  0  3  0  0  0  0  0  0
  181.9900  179.1530  141.7680 C   0  0  0  0  0  2  0  0  0  0  0  0
  187.0240  178.5270  140.5600 C   0  0  0  0  0  3  0  0  0  0  0  0
  185.5180  178.1990  142.5800 C   0  0  1  0  0  3  0  0  0  0  0  0
  186.8640  178.1810  141.9100 C   0  0  0  0  0  0  0  0  0  0  0  0
  187.7420  177.2730  144.0820 C   0  0  1  0  0  3  0  0  0  0  0  0
  190.0300  178.0160  147.7470 O   0  0  0  0  0  0  0  0  0  0  0  0
  180.6890  177.9110  144.0820 C   0  0  0  0  0  2  0  0  0  0  0  0
  183.1910  179.2250  142.7100 C   0  0  1  0  0  3  0  0  0  0  0  0
  188.8310  178.5940  147.4360 N   0  0  0  0  0  2  0  0  0  0  0  0
  181.9480  178.5390  144.6640 C   0  0  0  0  0  2  0  0  0  0  0  0
  180.7820  179.8500  142.3820 C   0  0  1  0  0  3  0  0  0  0  0  0
  189.2090  177.5600  142.0070 C   0  0  0  0  0  3  0  0  0  0  0  0
  187.9610  177.6910  142.6420 C   0  0  0  0  0  0  0  0  0  0  0  0
  189.0590  177.0800  144.8260 C   0  0  0  0  0  2  0  0  0  0  0  0
  184.2550  178.3180  144.7230 C   0  0  0  0  0  2  0  0  0  0  0  0
  186.0420  179.1490  147.0540 C   0  0  0  0  0  1  0  0  0  0  0  0
  190.4230  175.6580  147.9130 C   0  0  0  0  0  1  0  0  0  0  0  0
  186.8850  178.3300  144.8060 C   0  0  1  0  0  3  0  0  0  0  0  0
  188.8380  176.5900  146.2540 C   0  0  2  0  0  3  0  0  0  0  0  0
  179.9740  180.4600  141.3390 N   0  0  0  0  0  2  0  0  0  0  0  0
  179.7120  179.8060  140.0970 C   0  0  0  0  0  0  0  0  0  0  0  0
  180.2490  178.5520  139.8300 O   0  0  0  0  0  1  0  0  0  0  0  0
  178.9910  180.3710  139.2340 O   0  0  0  0  0  0  0  0  0  0  0  0
  1 16  1  0  0  0  0
  2 24  1  1  0  0  0
  2 27  1  0  0  0  0
  3 11  2  0  0  0  0
  3  4  1  0  0  0  0
  4 21  2  0  0  0  0
  5  6  1  0  0  0  0
  5 25  1  1  0  0  0
  6 18  1  6  0  0  0
  7 19  1  1  0  0  0
  7 24  1  0  0  0  0
  8 17  1  0  0  0  0
  9 15  1  0  0  0  0
  9 26  1  1  0  0  0
 10 20  1  0  0  0  0
 11 13  1  0  0  0  0
 12  8  1  6  0  0  0
 12  2  1  0  0  0  0
 13 12  1  0  0  0  0
 13 22  2  0  0  0  0
 14 27  1  0  0  0  0
 14 23  1  1  0  0  0
 16 19  1  0  0  0  0
 17 10  1  6  0  0  0
 17  7  1  0  0  0  0
 18 15  1  0  0  0  0
 20 29  1  6  0  0  0
 20  1  1  0  0  0  0
 21 22  1  0  0  0  0
 22 14  1  0  0  0  0
 23 28  1  0  0  0  0
 27  5  1  0  0  0  0
 28  9  1  0  0  0  0
 28  6  1  0  0  0  0
 30 29  1  0  0  0  0
 31 30  1  0  0  0  0
 32 30  2  0  0  0  0
M  END
>  <MODEL>
9

>  <REMARK>
 VINA RESULT:      -7.0      3.565      5.706
  Name = 
  1 active torsions:
  status: ('A' for Active; 'I' for Inactive)
    1  A    between atoms: C_20  and  N_29
                            x       y       z     vdW  Elec       q    Type
                         _______ _______ _______ _____ _____    ______ ____

>  <TORSDO>
F 1

$$$$
