=
 OpenBabel11122411083D

 31 35  0  0  1  0  0  0  0  0999 V2000
  184.4270  178.6320  144.4360 C   0  0  0  0  0  0  0  0  0  0  0  0
  188.1130  177.8610  143.7060 C   0  0  0  0  0  0  0  0  0  0  0  0
  188.7570  177.5510  144.9390 C   0  0  0  0  0  0  0  0  0  0  0  0
  188.7690  177.3510  147.3720 C   0  0  0  0  0  0  0  0  0  0  0  0
  186.6690  178.2670  143.5820 C   0  0  0  0  0  0  0  0  0  0  0  0
  183.9410  178.7860  143.0290 C   0  0  0  0  0  2  0  0  0  0  0  0
  188.1100  177.6650  146.1820 C   0  0  0  0  0  3  0  0  0  0  0  0
  188.2940  178.0980  141.2070 C   0  0  0  0  0  0  0  0  0  0  0  0
  183.6340  178.7040  145.4100 O   0  0  0  0  0  0  0  0  0  0  0  0
  190.7820  176.9880  143.7260 C   0  0  0  0  0  3  0  0  0  0  0  0
  187.9300  177.5030  148.9010 Cl  0  0  0  0  0  0  0  0  0  0  0  0
  187.0590  178.9450  141.1880 C   0  0  0  0  0  2  0  0  0  0  0  0
  188.8750  177.7380  142.5160 C   0  0  0  0  0  0  0  0  0  0  0  0
  188.9200  177.7570  140.1170 N   0  0  0  0  0  0  0  0  0  0  0  0
  185.8470  178.3360  144.6400 C   0  0  0  0  0  3  0  0  0  0  0  0
  190.0940  176.9140  147.3430 C   0  0  0  0  0  3  0  0  0  0  0  0
  186.0420  178.4420  142.2000 C   0  0  2  0  0  3  0  0  0  0  0  0
  184.9600  179.3530  142.2390 O   0  0  0  0  0  0  0  0  0  0  0  0
  190.1630  177.3020  142.5640 N   0  0  0  0  0  0  0  0  0  0  0  0
  190.1030  177.1110  144.9310 C   0  0  0  0  0  0  0  0  0  0  0  0
  190.7600  176.7950  146.1230 C   0  0  0  0  0  3  0  0  0  0  0  0
  188.9710  179.0620  138.1550 O   0  0  0  0  0  0  0  0  0  0  0  0
  188.5420  178.0430  138.7590 C   0  0  0  0  0  0  0  0  0  0  0  0
  186.1690  176.3110  135.6140 C   0  0  1  0  0  3  0  0  0  0  0  0
  186.4030  177.8990  137.5280 C   0  0  0  0  0  2  0  0  0  0  0  0
  189.3790  175.6290  137.3760 O   0  0  0  0  0  1  0  0  0  0  0  0
  185.2870  175.4660  134.9420 O   0  0  0  0  0  1  0  0  0  0  0  0
  185.4470  176.9740  136.7810 C   0  0  0  0  0  2  0  0  0  0  0  0
  188.3290  176.4050  136.8830 C   0  0  2  0  0  3  0  0  0  0  0  0
  187.6140  177.1180  138.0390 C   0  0  1  0  0  3  0  0  0  0  0  0
  187.3560  175.5040  136.1280 C   0  0  0  0  0  2  0  0  0  0  0  0
  1 15  1  0  0  0  0
  1  9  2  0  0  0  0
  2  3  1  0  0  0  0
  3  7  1  0  0  0  0
  4 11  1  0  0  0  0
  5  2  1  0  0  0  0
  5 15  2  0  0  0  0
  6  1  1  0  0  0  0
  7  4  2  0  0  0  0
  8 13  1  0  0  0  0
 10 20  1  0  0  0  0
 12  8  1  0  0  0  0
 13 19  1  0  0  0  0
 13  2  2  0  0  0  0
 14  8  2  0  0  0  0
 16  4  1  0  0  0  0
 17 12  1  6  0  0  0
 17 18  1  0  0  0  0
 17  5  1  0  0  0  0
 18  6  1  0  0  0  0
 19 10  2  0  0  0  0
 20  3  2  0  0  0  0
 20 21  1  0  0  0  0
 21 16  2  0  0  0  0
 22 23  2  0  0  0  0
 23 14  1  0  0  0  0
 24 27  1  1  0  0  0
 24 31  1  0  0  0  0
 24 28  1  0  0  0  0
 25 30  1  0  0  0  0
 28 25  1  0  0  0  0
 29 26  1  1  0  0  0
 29 30  1  0  0  0  0
 30 23  1  6  0  0  0
 31 29  1  0  0  0  0
M  END
>  <MODEL>
1

>  <REMARK>
 VINA RESULT:     -10.9      0.000      0.000
  Name = 
  2 active torsions:
  status: ('A' for Active; 'I' for Inactive)
    1  A    between atoms: C_5  and  N_16
    2  A    between atoms: C_5  and  C_30
                            x       y       z     vdW  Elec       q    Type
                         _______ _______ _______ _____ _____    ______ ____

>  <TORSDO>
F 2

$$$$
=
 OpenBabel11122411083D

 31 35  0  0  1  0  0  0  0  0999 V2000
  185.0360  178.4870  146.2090 C   0  0  0  0  0  0  0  0  0  0  0  0
  187.4740  178.0600  143.2790 C   0  0  0  0  0  0  0  0  0  0  0  0
  188.7230  177.6090  143.7990 C   0  0  0  0  0  0  0  0  0  0  0  0
  190.2060  177.0470  145.6540 C   0  0  0  0  0  0  0  0  0  0  0  0
  186.2730  178.3920  144.1230 C   0  0  0  0  0  0  0  0  0  0  0  0
  183.8000  178.8200  145.4330 C   0  0  0  0  0  2  0  0  0  0  0  0
  188.9730  177.4950  145.1770 C   0  0  0  0  0  3  0  0  0  0  0  0
  186.1050  178.6800  141.2610 C   0  0  0  0  0  0  0  0  0  0  0  0
  185.0050  178.3640  147.4600 O   0  0  0  0  0  0  0  0  0  0  0  0
  189.5610  177.3580  141.5360 C   0  0  0  0  0  3  0  0  0  0  0  0
  190.4810  176.9170  147.3770 Cl  0  0  0  0  0  0  0  0  0  0  0  0
  185.1530  179.4430  142.1290 C   0  0  0  0  0  2  0  0  0  0  0  0
  187.3460  178.1640  141.8700 C   0  0  0  0  0  0  0  0  0  0  0  0
  185.9210  178.5440  139.9770 N   0  0  0  0  0  0  0  0  0  0  0  0
  186.2710  178.2510  145.4570 C   0  0  0  0  0  3  0  0  0  0  0  0
  191.2180  176.7010  144.7580 C   0  0  0  0  0  3  0  0  0  0  0  0
  184.9430  178.7340  143.4570 C   0  0  2  0  0  3  0  0  0  0  0  0
  184.1500  179.5600  144.2860 O   0  0  0  0  0  0  0  0  0  0  0  0
  188.3760  177.8040  141.0560 N   0  0  0  0  0  0  0  0  0  0  0  0
  189.7640  177.2570  142.9050 C   0  0  0  0  0  0  0  0  0  0  0  0
  190.9970  176.8070  143.3850 C   0  0  0  0  0  3  0  0  0  0  0  0
  184.6110  180.2340  138.9870 O   0  0  0  0  0  0  0  0  0  0  0  0
  184.8060  179.0070  139.1950 C   0  0  0  0  0  0  0  0  0  0  0  0
  182.9760  175.2470  138.1770 C   0  0  1  0  0  3  0  0  0  0  0  0
  184.5900  177.0830  137.6580 C   0  0  0  0  0  2  0  0  0  0  0  0
  182.4020  178.0740  140.5330 O   0  0  0  0  0  1  0  0  0  0  0  0
  182.1000  174.3170  137.6220 O   0  0  0  0  0  1  0  0  0  0  0  0
  183.6320  176.0570  137.0630 C   0  0  0  0  0  2  0  0  0  0  0  0
  183.1430  177.2170  139.7200 C   0  0  2  0  0  3  0  0  0  0  0  0
  183.8480  178.0170  138.6150 C   0  0  1  0  0  3  0  0  0  0  0  0
  182.2080  176.1750  139.1110 C   0  0  0  0  0  2  0  0  0  0  0  0
  1  9  2  0  0  0  0
  2  3  1  0  0  0  0
  2  5  1  0  0  0  0
  3  7  1  0  0  0  0
  4 11  1  0  0  0  0
  5 15  2  0  0  0  0
  6  1  1  0  0  0  0
  7  4  2  0  0  0  0
  8 13  1  0  0  0  0
  8 12  1  0  0  0  0
 10 20  1  0  0  0  0
 13  2  2  0  0  0  0
 14  8  2  0  0  0  0
 15  1  1  0  0  0  0
 16  4  1  0  0  0  0
 17 12  1  6  0  0  0
 17  5  1  0  0  0  0
 17 18  1  0  0  0  0
 18  6  1  0  0  0  0
 19 10  2  0  0  0  0
 19 13  1  0  0  0  0
 20 21  1  0  0  0  0
 20  3  2  0  0  0  0
 21 16  2  0  0  0  0
 22 23  2  0  0  0  0
 23 14  1  0  0  0  0
 24 27  1  6  0  0  0
 24 31  1  0  0  0  0
 25 30  1  0  0  0  0
 28 25  1  0  0  0  0
 28 24  1  0  0  0  0
 29 26  1  1  0  0  0
 30 23  1  1  0  0  0
 30 29  1  0  0  0  0
 31 29  1  0  0  0  0
M  END
>  <MODEL>
2

>  <REMARK>
 VINA RESULT:     -10.6      2.459      3.259
  Name = 
  2 active torsions:
  status: ('A' for Active; 'I' for Inactive)
    1  A    between atoms: C_5  and  N_16
    2  A    between atoms: C_5  and  C_30
                            x       y       z     vdW  Elec       q    Type
                         _______ _______ _______ _____ _____    ______ ____

>  <TORSDO>
F 2

$$$$
=
 OpenBabel11122411083D

 31 35  0  0  1  0  0  0  0  0999 V2000
  184.7850  178.4320  144.0200 C   0  0  0  0  0  0  0  0  0  0  0  0
  188.5370  177.7580  143.5920 C   0  0  0  0  0  0  0  0  0  0  0  0
  189.0900  177.4800  144.8760 C   0  0  0  0  0  0  0  0  0  0  0  0
  188.9150  177.3040  147.3040 C   0  0  0  0  0  0  0  0  0  0  0  0
  187.0970  178.1220  143.3490 C   0  0  0  0  0  0  0  0  0  0  0  0
  184.4080  178.5580  142.5770 C   0  0  0  0  0  2  0  0  0  0  0  0
  188.3440  177.5870  146.0620 C   0  0  0  0  0  3  0  0  0  0  0  0
  188.9080  177.9760  141.1120 C   0  0  0  0  0  0  0  0  0  0  0  0
  183.9160  178.4920  144.9270 O   0  0  0  0  0  0  0  0  0  0  0  0
  191.2190  176.9620  143.8330 C   0  0  0  0  0  3  0  0  0  0  0  0
  187.9540  177.4480  148.7600 Cl  0  0  0  0  0  0  0  0  0  0  0  0
  187.6560  178.7870  140.9860 C   0  0  0  0  0  2  0  0  0  0  0  0
  189.3940  177.6460  142.4670 C   0  0  0  0  0  0  0  0  0  0  0  0
  189.6280  177.6410  140.0790 N   0  0  0  0  0  0  0  0  0  0  0  0
  186.1930  178.1790  144.3380 C   0  0  0  0  0  3  0  0  0  0  0  0
  190.2490  176.9050  147.3850 C   0  0  0  0  0  3  0  0  0  0  0  0
  186.5760  178.2660  141.9210 C   0  0  2  0  0  3  0  0  0  0  0  0
  185.4710  179.1460  141.8630 O   0  0  0  0  0  0  0  0  0  0  0  0
  190.6860  177.2470  142.6210 N   0  0  0  0  0  0  0  0  0  0  0  0
  190.4440  177.0780  144.9790 C   0  0  0  0  0  0  0  0  0  0  0  0
  191.0130  176.7930  146.2230 C   0  0  0  0  0  3  0  0  0  0  0  0
  189.0470  179.0560  138.2860 O   0  0  0  0  0  0  0  0  0  0  0  0
  189.3510  177.9030  138.6920 C   0  0  0  0  0  0  0  0  0  0  0  0
  189.3330  173.9220  137.0580 C   0  0  1  0  0  3  0  0  0  0  0  0
  190.5690  175.8460  138.0610 C   0  0  0  0  0  2  0  0  0  0  0  0
  187.0630  176.8700  137.2280 O   0  0  0  0  0  1  0  0  0  0  0  0
  189.4160  172.8730  136.1440 O   0  0  0  0  0  1  0  0  0  0  0  0
  190.6490  174.6920  137.0680 C   0  0  0  0  0  2  0  0  0  0  0  0
  188.0890  176.0190  137.6410 C   0  0  2  0  0  3  0  0  0  0  0  0
  189.4170  176.7850  137.7010 C   0  0  1  0  0  3  0  0  0  0  0  0
  188.1900  174.8510  136.6640 C   0  0  0  0  0  2  0  0  0  0  0  0
  1 15  1  0  0  0  0
  1  9  2  0  0  0  0
  2  3  1  0  0  0  0
  3 20  2  0  0  0  0
  3  7  1  0  0  0  0
  4 16  1  0  0  0  0
  4 11  1  0  0  0  0
  5  2  1  0  0  0  0
  5 15  2  0  0  0  0
  6  1  1  0  0  0  0
  7  4  2  0  0  0  0
  8 13  1  0  0  0  0
 10 20  1  0  0  0  0
 12  8  1  0  0  0  0
 13 19  1  0  0  0  0
 13  2  2  0  0  0  0
 14  8  2  0  0  0  0
 17 12  1  6  0  0  0
 17  5  1  0  0  0  0
 18 17  1  0  0  0  0
 18  6  1  0  0  0  0
 19 10  2  0  0  0  0
 20 21  1  0  0  0  0
 21 16  2  0  0  0  0
 22 23  2  0  0  0  0
 23 14  1  0  0  0  0
 24 27  1  6  0  0  0
 24 28  1  0  0  0  0
 28 25  1  0  0  0  0
 29 26  1  6  0  0  0
 29 30  1  0  0  0  0
 30 25  1  0  0  0  0
 30 23  1  1  0  0  0
 31 24  1  0  0  0  0
 31 29  1  0  0  0  0
M  END
>  <MODEL>
3

>  <REMARK>
 VINA RESULT:     -10.6      1.262      1.933
  Name = 
  2 active torsions:
  status: ('A' for Active; 'I' for Inactive)
    1  A    between atoms: C_5  and  N_16
    2  A    between atoms: C_5  and  C_30
                            x       y       z     vdW  Elec       q    Type
                         _______ _______ _______ _____ _____    ______ ____

>  <TORSDO>
F 2

$$$$
=
 OpenBabel11122411083D

 31 35  0  0  1  0  0  0  0  0999 V2000
  191.3160  177.2390  144.6830 C   0  0  0  0  0  0  0  0  0  0  0  0
  187.7130  177.9510  143.5770 C   0  0  0  0  0  0  0  0  0  0  0  0
  186.9120  178.1210  144.7450 C   0  0  0  0  0  0  0  0  0  0  0  0
  186.6020  178.0900  147.1660 C   0  0  0  0  0  0  0  0  0  0  0  0
  189.1780  177.6070  143.5950 C   0  0  0  0  0  0  0  0  0  0  0  0
  191.9720  177.2350  143.3380 C   0  0  0  0  0  2  0  0  0  0  0  0
  187.4110  177.9130  146.0420 C   0  0  0  0  0  3  0  0  0  0  0  0
  187.8410  177.9440  141.0640 C   0  0  0  0  0  0  0  0  0  0  0  0
  191.9900  177.1020  145.7360 O   0  0  0  0  0  0  0  0  0  0  0  0
  185.0240  178.7280  143.3480 C   0  0  0  0  0  3  0  0  0  0  0  0
  187.2580  177.8230  148.7660 Cl  0  0  0  0  0  0  0  0  0  0  0  0
  189.1060  177.1450  141.1210 C   0  0  0  0  0  2  0  0  0  0  0  0
  187.0930  178.1590  142.3180 C   0  0  0  0  0  0  0  0  0  0  0  0
  187.3340  178.3660  139.9400 N   0  0  0  0  0  0  0  0  0  0  0  0
  189.8690  177.4660  144.7360 C   0  0  0  0  0  3  0  0  0  0  0  0
  185.2720  178.4830  147.0140 C   0  0  0  0  0  3  0  0  0  0  0  0
  189.9720  177.5840  142.2910 C   0  0  2  0  0  3  0  0  0  0  0  0
  191.0810  176.7110  142.3810 O   0  0  0  0  0  0  0  0  0  0  0  0
  185.7900  178.5460  142.2470 N   0  0  0  0  0  0  0  0  0  0  0  0
  185.5580  178.5150  144.6110 C   0  0  0  0  0  0  0  0  0  0  0  0
  184.7510  178.6940  145.7370 C   0  0  0  0  0  3  0  0  0  0  0  0
  188.5580  179.1400  138.0810 O   0  0  0  0  0  0  0  0  0  0  0  0
  187.8840  178.2220  138.6180 C   0  0  0  0  0  0  0  0  0  0  0  0
  187.4440  175.4980  135.3160 C   0  0  1  0  0  3  0  0  0  0  0  0
  186.4520  177.1340  136.9210 C   0  0  0  0  0  2  0  0  0  0  0  0
  189.9630  176.3100  137.9360 O   0  0  0  0  0  1  0  0  0  0  0  0
  187.2060  174.3290  134.5960 O   0  0  0  0  0  1  0  0  0  0  0  0
  186.2030  175.8580  136.1250 C   0  0  0  0  0  2  0  0  0  0  0  0
  188.9010  176.5500  137.0640 C   0  0  2  0  0  3  0  0  0  0  0  0
  187.6510  176.9580  137.8550 C   0  0  1  0  0  3  0  0  0  0  0  0
  188.6310  175.2880  136.2490 C   0  0  0  0  0  2  0  0  0  0  0  0
  1 15  1  0  0  0  0
  1  9  2  0  0  0  0
  2  5  1  0  0  0  0
  2  3  1  0  0  0  0
  3  7  1  0  0  0  0
  4 11  1  0  0  0  0
  5 15  2  0  0  0  0
  6  1  1  0  0  0  0
  7  4  2  0  0  0  0
  8 12  1  0  0  0  0
  8 13  1  0  0  0  0
 10 20  1  0  0  0  0
 13  2  2  0  0  0  0
 14  8  2  0  0  0  0
 16  4  1  0  0  0  0
 17 12  1  6  0  0  0
 17 18  1  0  0  0  0
 17  5  1  0  0  0  0
 18  6  1  0  0  0  0
 19 13  1  0  0  0  0
 19 10  2  0  0  0  0
 20  3  2  0  0  0  0
 20 21  1  0  0  0  0
 21 16  2  0  0  0  0
 22 23  2  0  0  0  0
 23 14  1  0  0  0  0
 24 27  1  1  0  0  0
 24 28  1  0  0  0  0
 24 31  1  0  0  0  0
 25 30  1  0  0  0  0
 28 25  1  0  0  0  0
 29 30  1  0  0  0  0
 29 26  1  1  0  0  0
 30 23  1  6  0  0  0
 31 29  1  0  0  0  0
M  END
>  <MODEL>
4

>  <REMARK>
 VINA RESULT:     -10.1      2.231      3.843
  Name = 
  2 active torsions:
  status: ('A' for Active; 'I' for Inactive)
    1  A    between atoms: C_5  and  N_16
    2  A    between atoms: C_5  and  C_30
                            x       y       z     vdW  Elec       q    Type
                         _______ _______ _______ _____ _____    ______ ____

>  <TORSDO>
F 2

$$$$
=
 OpenBabel11122411083D

 31 35  0  0  1  0  0  0  0  0999 V2000
  190.2910  176.9050  146.2780 C   0  0  0  0  0  0  0  0  0  0  0  0
  188.1320  177.6810  143.2030 C   0  0  0  0  0  0  0  0  0  0  0  0
  186.8360  178.0690  143.6540 C   0  0  0  0  0  0  0  0  0  0  0  0
  185.1810  178.4090  145.4150 C   0  0  0  0  0  0  0  0  0  0  0  0
  189.2520  177.2500  144.1110 C   0  0  0  0  0  0  0  0  0  0  0  0
  191.5960  176.6640  145.5870 C   0  0  0  0  0  2  0  0  0  0  0  0
  186.4580  178.0190  145.0060 C   0  0  0  0  0  3  0  0  0  0  0  0
  189.6900  177.3030  141.2630 C   0  0  0  0  0  0  0  0  0  0  0  0
  190.2040  176.8780  147.5320 O   0  0  0  0  0  0  0  0  0  0  0  0
  186.2110  178.5890  141.3680 C   0  0  0  0  0  3  0  0  0  0  0  0
  184.7460  178.3340  147.1080 Cl  0  0  0  0  0  0  0  0  0  0  0  0
  190.5640  176.4400  142.1200 C   0  0  0  0  0  2  0  0  0  0  0  0
  188.3920  177.7450  141.8100 C   0  0  0  0  0  0  0  0  0  0  0  0
  189.9910  177.5900  140.0280 N   0  0  0  0  0  0  0  0  0  0  0  0
  189.1290  177.2310  145.4470 C   0  0  0  0  0  3  0  0  0  0  0  0
  184.2540  178.8610  144.4760 C   0  0  0  0  0  3  0  0  0  0  0  0
  190.6420  176.9870  143.5370 C   0  0  2  0  0  3  0  0  0  0  0  0
  191.3620  176.0660  144.3330 O   0  0  0  0  0  0  0  0  0  0  0  0
  187.4390  178.2000  140.9510 N   0  0  0  0  0  0  0  0  0  0  0  0
  185.8800  178.5260  142.7140 C   0  0  0  0  0  0  0  0  0  0  0  0
  184.6040  178.9180  143.1260 C   0  0  0  0  0  3  0  0  0  0  0  0
  192.3250  177.3560  139.8060 O   0  0  0  0  0  0  0  0  0  0  0  0
  191.1780  177.2210  139.3040 C   0  0  0  0  0  0  0  0  0  0  0  0
  189.7700  174.8840  135.9760 C   0  0  1  0  0  3  0  0  0  0  0  0
  191.2750  175.1540  137.9510 C   0  0  0  0  0  2  0  0  0  0  0  0
  189.5480  178.3930  137.2050 O   0  0  0  0  0  1  0  0  0  0  0  0
  189.6660  174.3470  134.6940 O   0  0  0  0  0  1  0  0  0  0  0  0
  191.1470  174.5670  136.5490 C   0  0  0  0  0  2  0  0  0  0  0  0
  189.6950  177.0090  137.3040 C   0  0  2  0  0  3  0  0  0  0  0  0
  191.0580  176.6670  137.9200 C   0  0  1  0  0  3  0  0  0  0  0  0
  189.5680  176.3940  135.9130 C   0  0  0  0  0  2  0  0  0  0  0  0
  1  9  2  0  0  0  0
  2  3  1  0  0  0  0
  2  5  1  0  0  0  0
  3  7  1  0  0  0  0
  4 11  1  0  0  0  0
  5 15  2  0  0  0  0
  6  1  1  0  0  0  0
  7  4  2  0  0  0  0
  8 13  1  0  0  0  0
  8 12  1  0  0  0  0
 10 20  1  0  0  0  0
 13  2  2  0  0  0  0
 14  8  2  0  0  0  0
 15  1  1  0  0  0  0
 16  4  1  0  0  0  0
 17 12  1  6  0  0  0
 17  5  1  0  0  0  0
 17 18  1  0  0  0  0
 18  6  1  0  0  0  0
 19 10  2  0  0  0  0
 19 13  1  0  0  0  0
 20 21  1  0  0  0  0
 20  3  2  0  0  0  0
 21 16  2  0  0  0  0
 23 22  2  0  0  0  0
 23 14  1  0  0  0  0
 24 27  1  6  0  0  0
 24 28  1  0  0  0  0
 28 25  1  0  0  0  0
 29 26  1  6  0  0  0
 29 30  1  0  0  0  0
 30 25  1  0  0  0  0
 30 23  1  1  0  0  0
 31 24  1  0  0  0  0
 31 29  1  0  0  0  0
M  END
>  <MODEL>
5

>  <REMARK>
 VINA RESULT:     -10.1      2.673      4.577
  Name = 
  2 active torsions:
  status: ('A' for Active; 'I' for Inactive)
    1  A    between atoms: C_5  and  N_16
    2  A    between atoms: C_5  and  C_30
                            x       y       z     vdW  Elec       q    Type
                         _______ _______ _______ _____ _____    ______ ____

>  <TORSDO>
F 2

$$$$
=
 OpenBabel11122411083D

 31 35  0  0  1  0  0  0  0  0999 V2000
  185.1310  178.4590  143.9390 C   0  0  0  0  0  0  0  0  0  0  0  0
  188.8450  177.5320  143.6940 C   0  0  0  0  0  0  0  0  0  0  0  0
  189.3550  177.3790  145.0160 C   0  0  0  0  0  0  0  0  0  0  0  0
  189.1210  177.5050  147.4430 C   0  0  0  0  0  0  0  0  0  0  0  0
  187.4330  177.9430  143.3710 C   0  0  0  0  0  0  0  0  0  0  0  0
  184.7910  178.4310  142.4810 C   0  0  0  0  0  2  0  0  0  0  0  0
  188.5930  177.6690  146.1610 C   0  0  0  0  0  3  0  0  0  0  0  0
  189.2780  177.4300  141.2170 C   0  0  0  0  0  0  0  0  0  0  0  0
  184.2490  178.6750  144.8090 O   0  0  0  0  0  0  0  0  0  0  0  0
  191.4710  176.6220  144.1000 C   0  0  0  0  0  3  0  0  0  0  0  0
  188.1420  177.8750  148.8450 Cl  0  0  0  0  0  0  0  0  0  0  0  0
  188.0780  178.2880  140.9620 C   0  0  0  0  0  2  0  0  0  0  0  0
  189.7160  177.2380  142.6130 C   0  0  0  0  0  0  0  0  0  0  0  0
  189.9980  176.9350  140.2500 N   0  0  0  0  0  0  0  0  0  0  0  0
  186.5150  178.1680  144.3220 C   0  0  0  0  0  3  0  0  0  0  0  0
  190.4280  177.0450  147.6060 C   0  0  0  0  0  3  0  0  0  0  0  0
  186.9510  177.9440  141.9220 C   0  0  2  0  0  3  0  0  0  0  0  0
  185.9000  178.8700  141.7310 O   0  0  0  0  0  0  0  0  0  0  0  0
  190.9790  176.7890  142.8490 N   0  0  0  0  0  0  0  0  0  0  0  0
  190.6810  176.9170  145.2030 C   0  0  0  0  0  0  0  0  0  0  0  0
  191.2070  176.7530  146.4860 C   0  0  0  0  0  3  0  0  0  0  0  0
  188.7210  177.5820  138.3780 O   0  0  0  0  0  0  0  0  0  0  0  0
  189.7640  177.0430  138.8350 C   0  0  0  0  0  0  0  0  0  0  0  0
  193.0080  174.7030  137.2480 C   0  0  1  0  0  3  0  0  0  0  0  0
  192.1830  176.7490  138.4180 C   0  0  0  0  0  2  0  0  0  0  0  0
  189.2900  174.8090  137.0390 O   0  0  0  0  0  1  0  0  0  0  0  0
  193.9670  174.2090  136.3660 O   0  0  0  0  0  1  0  0  0  0  0  0
  193.2310  176.1960  137.4580 C   0  0  0  0  0  2  0  0  0  0  0  0
  190.5460  175.0080  137.6140 C   0  0  2  0  0  3  0  0  0  0  0  0
  190.7750  176.5030  137.8750 C   0  0  1  0  0  3  0  0  0  0  0  0
  191.6160  174.4600  136.6730 C   0  0  0  0  0  2  0  0  0  0  0  0
  1 15  1  0  0  0  0
  1  9  2  0  0  0  0
  2  3  1  0  0  0  0
  3 20  2  0  0  0  0
  3  7  1  0  0  0  0
  4 16  1  0  0  0  0
  4 11  1  0  0  0  0
  5  2  1  0  0  0  0
  5 15  2  0  0  0  0
  6  1  1  0  0  0  0
  7  4  2  0  0  0  0
  8 13  1  0  0  0  0
 10 20  1  0  0  0  0
 12  8  1  0  0  0  0
 13 19  1  0  0  0  0
 13  2  2  0  0  0  0
 14  8  2  0  0  0  0
 17 12  1  6  0  0  0
 17  5  1  0  0  0  0
 18 17  1  0  0  0  0
 18  6  1  0  0  0  0
 19 10  2  0  0  0  0
 20 21  1  0  0  0  0
 21 16  2  0  0  0  0
 22 23  2  0  0  0  0
 23 14  1  0  0  0  0
 24 27  1  6  0  0  0
 24 28  1  0  0  0  0
 28 25  1  0  0  0  0
 29 26  1  6  0  0  0
 29 30  1  0  0  0  0
 30 25  1  0  0  0  0
 30 23  1  1  0  0  0
 31 24  1  0  0  0  0
 31 29  1  0  0  0  0
M  END
>  <MODEL>
6

>  <REMARK>
 VINA RESULT:     -10.0      2.111      3.046
  Name = 
  2 active torsions:
  status: ('A' for Active; 'I' for Inactive)
    1  A    between atoms: C_5  and  N_16
    2  A    between atoms: C_5  and  C_30
                            x       y       z     vdW  Elec       q    Type
                         _______ _______ _______ _____ _____    ______ ____

>  <TORSDO>
F 2

$$$$
=
 OpenBabel11122411083D

 31 35  0  0  1  0  0  0  0  0999 V2000
  190.0670  177.0490  146.4440 C   0  0  0  0  0  0  0  0  0  0  0  0
  188.2770  177.7280  143.1200 C   0  0  0  0  0  0  0  0  0  0  0  0
  186.9500  178.1620  143.4080 C   0  0  0  0  0  0  0  0  0  0  0  0
  185.1210  178.6160  144.9600 C   0  0  0  0  0  0  0  0  0  0  0  0
  189.2800  177.3150  144.1640 C   0  0  0  0  0  0  0  0  0  0  0  0
  191.4330  176.7510  145.9120 C   0  0  0  0  0  2  0  0  0  0  0  0
  186.4250  178.1820  144.7110 C   0  0  0  0  0  3  0  0  0  0  0  0
  190.0260  177.2300  141.3810 C   0  0  0  0  0  0  0  0  0  0  0  0
  189.8430  177.0810  147.6810 O   0  0  0  0  0  0  0  0  0  0  0  0
  186.5900  178.5890  141.0460 C   0  0  0  0  0  3  0  0  0  0  0  0
  184.5020  178.6270  146.5960 Cl  0  0  0  0  0  0  0  0  0  0  0  0
  190.7800  176.3900  142.3660 C   0  0  0  0  0  2  0  0  0  0  0  0
  188.6880  177.7230  141.7620 C   0  0  0  0  0  0  0  0  0  0  0  0
  190.4680  177.4530  140.1750 N   0  0  0  0  0  0  0  0  0  0  0  0
  189.0110  177.3600  145.4770 C   0  0  0  0  0  3  0  0  0  0  0  0
  184.3140  179.0430  143.9050 C   0  0  0  0  0  3  0  0  0  0  0  0
  190.7170  176.9990  143.7570 C   0  0  2  0  0  3  0  0  0  0  0  0
  191.3220  176.1010  144.6670 O   0  0  0  0  0  0  0  0  0  0  0  0
  187.8470  178.1570  140.7850 N   0  0  0  0  0  0  0  0  0  0  0  0
  186.1130  178.5950  142.3500 C   0  0  0  0  0  0  0  0  0  0  0  0
  184.8100  179.0320  142.6010 C   0  0  0  0  0  3  0  0  0  0  0  0
  192.8170  177.4990  139.9960 O   0  0  0  0  0  0  0  0  0  0  0  0
  191.7170  177.0280  139.6030 C   0  0  0  0  0  0  0  0  0  0  0  0
  191.0530  175.1750  135.7760 C   0  0  1  0  0  3  0  0  0  0  0  0
  190.2830  175.6950  138.0950 C   0  0  0  0  0  2  0  0  0  0  0  0
  193.8740  176.6800  137.6880 O   0  0  0  0  0  1  0  0  0  0  0  0
  191.0330  174.2210  134.7610 O   0  0  0  0  0  1  0  0  0  0  0  0
  190.2630  174.6610  136.9740 C   0  0  0  0  0  2  0  0  0  0  0  0
  192.5450  176.4830  137.3090 C   0  0  2  0  0  3  0  0  0  0  0  0
  191.7200  176.0060  138.5120 C   0  0  1  0  0  3  0  0  0  0  0  0
  192.4960  175.4520  136.1850 C   0  0  0  0  0  2  0  0  0  0  0  0
  1  9  2  0  0  0  0
  2  3  1  0  0  0  0
  2  5  1  0  0  0  0
  3  7  1  0  0  0  0
  4 11  1  0  0  0  0
  5 15  2  0  0  0  0
  6  1  1  0  0  0  0
  7  4  2  0  0  0  0
  8 13  1  0  0  0  0
  8 12  1  0  0  0  0
 10 20  1  0  0  0  0
 13  2  2  0  0  0  0
 14  8  2  0  0  0  0
 15  1  1  0  0  0  0
 16  4  1  0  0  0  0
 17 12  1  6  0  0  0
 17  5  1  0  0  0  0
 17 18  1  0  0  0  0
 18  6  1  0  0  0  0
 19 10  2  0  0  0  0
 19 13  1  0  0  0  0
 20 21  1  0  0  0  0
 20  3  2  0  0  0  0
 21 16  2  0  0  0  0
 23 22  2  0  0  0  0
 23 14  1  0  0  0  0
 24 27  1  6  0  0  0
 24 31  1  0  0  0  0
 24 28  1  0  0  0  0
 25 30  1  0  0  0  0
 28 25  1  0  0  0  0
 29 26  1  1  0  0  0
 29 30  1  0  0  0  0
 30 23  1  1  0  0  0
 31 29  1  0  0  0  0
M  END
>  <MODEL>
7

>  <REMARK>
 VINA RESULT:     -10.0      3.096      4.835
  Name = 
  2 active torsions:
  status: ('A' for Active; 'I' for Inactive)
    1  A    between atoms: C_5  and  N_16
    2  A    between atoms: C_5  and  C_30
                            x       y       z     vdW  Elec       q    Type
                         _______ _______ _______ _____ _____    ______ ____

>  <TORSDO>
F 2

$$$$
=
 OpenBabel11122411083D

 31 35  0  0  1  0  0  0  0  0999 V2000
  190.1010  177.3370  144.5490 C   0  0  0  0  0  0  0  0  0  0  0  0
  187.0560  178.2010  142.3830 C   0  0  0  0  0  0  0  0  0  0  0  0
  185.9500  178.4510  143.2470 C   0  0  0  0  0  0  0  0  0  0  0  0
  184.9150  178.5170  145.4570 C   0  0  0  0  0  0  0  0  0  0  0  0
  188.4220  177.7810  142.8540 C   0  0  0  0  0  0  0  0  0  0  0  0
  191.1340  177.2540  143.4700 C   0  0  0  0  0  2  0  0  0  0  0  0
  186.0160  178.2600  144.6370 C   0  0  0  0  0  3  0  0  0  0  0  0
  187.9430  178.1040  140.0300 C   0  0  0  0  0  0  0  0  0  0  0  0
  190.4120  177.1990  145.7600 O   0  0  0  0  0  0  0  0  0  0  0  0
  184.6170  179.1100  141.3290 C   0  0  0  0  0  3  0  0  0  0  0  0
  185.0350  178.2690  147.1850 Cl  0  0  0  0  0  0  0  0  0  0  0  0
  189.0800  177.2420  140.4840 C   0  0  0  0  0  2  0  0  0  0  0  0
  186.8630  178.4000  140.9920 C   0  0  0  0  0  0  0  0  0  0  0  0
  187.8300  178.5140  138.7980 N   0  0  0  0  0  0  0  0  0  0  0  0
  188.7240  177.6420  144.1530 C   0  0  0  0  0  3  0  0  0  0  0  0
  183.7210  178.9740  144.8990 C   0  0  0  0  0  3  0  0  0  0  0  0
  189.5730  177.6730  141.8560 C   0  0  2  0  0  3  0  0  0  0  0  0
  190.5470  176.7460  142.2940 O   0  0  0  0  0  0  0  0  0  0  0  0
  185.6700  178.8520  140.5180 N   0  0  0  0  0  0  0  0  0  0  0  0
  184.7270  178.9110  142.6990 C   0  0  0  0  0  0  0  0  0  0  0  0
  183.6270  179.1700  143.5210 C   0  0  0  0  0  3  0  0  0  0  0  0
  189.3530  179.2540  137.1600 O   0  0  0  0  0  0  0  0  0  0  0  0
  188.7460  178.2980  137.7110 C   0  0  0  0  0  0  0  0  0  0  0  0
  189.7470  175.0490  135.0720 C   0  0  1  0  0  3  0  0  0  0  0  0
  188.0570  176.6160  136.0350 C   0  0  0  0  0  2  0  0  0  0  0  0
  191.2850  176.8990  137.9150 O   0  0  0  0  0  1  0  0  0  0  0  0
  189.9520  173.7560  134.5940 O   0  0  0  0  0  1  0  0  0  0  0  0
  188.2940  175.2060  135.5050 C   0  0  0  0  0  2  0  0  0  0  0  0
  190.4550  176.7120  136.8090 C   0  0  2  0  0  3  0  0  0  0  0  0
  188.9870  176.9090  137.2130 C   0  0  1  0  0  3  0  0  0  0  0  0
  190.6730  175.3070  136.2550 C   0  0  0  0  0  2  0  0  0  0  0  0
  1  9  2  0  0  0  0
  2  5  1  0  0  0  0
  2  3  1  0  0  0  0
  3  7  1  0  0  0  0
  4 11  1  0  0  0  0
  5 15  2  0  0  0  0
  6  1  1  0  0  0  0
  7  4  2  0  0  0  0
  8 12  1  0  0  0  0
  8 13  1  0  0  0  0
 10 20  1  0  0  0  0
 13  2  2  0  0  0  0
 14  8  2  0  0  0  0
 15  1  1  0  0  0  0
 16  4  1  0  0  0  0
 17 12  1  6  0  0  0
 17 18  1  0  0  0  0
 17  5  1  0  0  0  0
 18  6  1  0  0  0  0
 19 13  1  0  0  0  0
 19 10  2  0  0  0  0
 20  3  2  0  0  0  0
 20 21  1  0  0  0  0
 21 16  2  0  0  0  0
 22 23  2  0  0  0  0
 23 14  1  0  0  0  0
 24 27  1  1  0  0  0
 24 28  1  0  0  0  0
 24 31  1  0  0  0  0
 25 30  1  0  0  0  0
 28 25  1  0  0  0  0
 29 30  1  0  0  0  0
 29 26  1  1  0  0  0
 30 23  1  6  0  0  0
 31 29  1  0  0  0  0
M  END
>  <MODEL>
8

>  <REMARK>
 VINA RESULT:     -10.0      2.602      4.343
  Name = 
  2 active torsions:
  status: ('A' for Active; 'I' for Inactive)
    1  A    between atoms: C_5  and  N_16
    2  A    between atoms: C_5  and  C_30
                            x       y       z     vdW  Elec       q    Type
                         _______ _______ _______ _____ _____    ______ ____

>  <TORSDO>
F 2

$$$$
=
 OpenBabel11122411083D

 31 35  0  0  1  0  0  0  0  0999 V2000
  190.6630  177.4770  141.4050 C   0  0  0  0  0  0  0  0  0  0  0  0
  187.3230  178.0410  143.2050 C   0  0  0  0  0  0  0  0  0  0  0  0
  187.5320  177.8540  144.6030 C   0  0  0  0  0  0  0  0  0  0  0  0
  188.9270  177.2370  146.5090 C   0  0  0  0  0  0  0  0  0  0  0  0
  188.3870  177.8580  142.1560 C   0  0  0  0  0  0  0  0  0  0  0  0
  190.2420  177.8500  140.0180 C   0  0  0  0  0  2  0  0  0  0  0  0
  188.7540  177.4080  145.1340 C   0  0  0  0  0  3  0  0  0  0  0  0
  185.7280  178.6240  141.3480 C   0  0  0  0  0  0  0  0  0  0  0  0
  191.8550  177.1730  141.6640 O   0  0  0  0  0  0  0  0  0  0  0  0
  185.2500  178.5640  145.0270 C   0  0  0  0  0  3  0  0  0  0  0  0
  190.4640  176.6810  147.1330 Cl  0  0  0  0  0  0  0  0  0  0  0  0
  186.6350  177.9710  140.3510 C   0  0  0  0  0  2  0  0  0  0  0  0
  186.0370  178.4670  142.7830 C   0  0  0  0  0  0  0  0  0  0  0  0
  184.6330  179.2370  140.9960 N   0  0  0  0  0  0  0  0  0  0  0  0
  189.6510  177.5330  142.4640 C   0  0  0  0  0  3  0  0  0  0  0  0
  187.8770  177.5120  147.3850 C   0  0  0  0  0  3  0  0  0  0  0  0
  188.0940  178.2180  140.7020 C   0  0  2  0  0  3  0  0  0  0  0  0
  188.9010  177.4690  139.8150 O   0  0  0  0  0  0  0  0  0  0  0  0
  185.0600  178.7200  143.6950 N   0  0  0  0  0  0  0  0  0  0  0  0
  186.4760  178.1240  145.5080 C   0  0  0  0  0  0  0  0  0  0  0  0
  186.6520  177.9550  146.8840 C   0  0  0  0  0  3  0  0  0  0  0  0
  184.5300  180.4330  138.9680 O   0  0  0  0  0  0  0  0  0  0  0  0
  184.1390  179.4580  139.6630 C   0  0  0  0  0  0  0  0  0  0  0  0
  181.9150  175.8500  138.9170 C   0  0  1  0  0  3  0  0  0  0  0  0
  183.8530  177.3440  138.4140 C   0  0  0  0  0  2  0  0  0  0  0  0
  181.4490  179.0880  140.6970 O   0  0  0  0  0  1  0  0  0  0  0  0
  180.9950  174.9600  138.3650 O   0  0  0  0  0  1  0  0  0  0  0  0
  182.8440  176.3640  137.8230 C   0  0  0  0  0  2  0  0  0  0  0  0
  182.1590  178.0150  140.1570 C   0  0  2  0  0  3  0  0  0  0  0  0
  183.1330  178.5160  139.0820 C   0  0  1  0  0  3  0  0  0  0  0  0
  181.1720  177.0160  139.5590 C   0  0  0  0  0  2  0  0  0  0  0  0
  1  9  2  0  0  0  0
  1 15  1  0  0  0  0
  2  3  1  0  0  0  0
  3  7  2  0  0  0  0
  3 20  1  0  0  0  0
  4 11  1  0  0  0  0
  4 16  2  0  0  0  0
  5 15  2  0  0  0  0
  5  2  1  0  0  0  0
  6  1  1  0  0  0  0
  7  4  1  0  0  0  0
  8 13  1  0  0  0  0
 10 20  1  0  0  0  0
 12  8  1  0  0  0  0
 13  2  2  0  0  0  0
 13 19  1  0  0  0  0
 14  8  2  0  0  0  0
 17 12  1  6  0  0  0
 17  5  1  0  0  0  0
 18  6  1  0  0  0  0
 18 17  1  0  0  0  0
 19 10  2  0  0  0  0
 20 21  2  0  0  0  0
 21 16  1  0  0  0  0
 22 23  2  0  0  0  0
 23 14  1  0  0  0  0
 24 27  1  6  0  0  0
 24 31  1  0  0  0  0
 25 30  1  0  0  0  0
 28 25  1  0  0  0  0
 28 24  1  0  0  0  0
 29 26  1  6  0  0  0
 30 23  1  1  0  0  0
 30 29  1  0  0  0  0
 31 29  1  0  0  0  0
M  END
>  <MODEL>
9

>  <REMARK>
 VINA RESULT:      -9.8      2.891      4.848
  Name = 
  2 active torsions:
  status: ('A' for Active; 'I' for Inactive)
    1  A    between atoms: C_5  and  N_16
    2  A    between atoms: C_5  and  C_30
                            x       y       z     vdW  Elec       q    Type
                         _______ _______ _______ _____ _____    ______ ____

>  <TORSDO>
F 2

$$$$
