=
 OpenBabel11122411573D

 28 32  0  0  1  0  0  0  0  0999 V2000
  189.4450  178.2300  138.4030 C   0  0  0  0  0  0  0  0  0  0  0  0
  192.5970  175.9680  134.9160 F   0  0  0  0  0  0  0  0  0  0  0  0
  186.7780  174.7330  137.2310 O   0  0  0  0  0  0  0  0  0  0  0  0
  189.8050  176.7050  140.7250 C   0  0  0  0  0  3  0  0  0  0  0  0
  188.9470  173.8890  136.8720 N   0  0  0  0  0  0  0  0  0  0  0  0
  189.2180  178.9550  137.2320 O   0  0  0  0  0  0  0  0  0  0  0  0
  193.8030  177.0380  136.4880 F   0  0  0  0  0  0  0  0  0  0  0  0
  193.1230  175.8720  136.1950 C   0  0  0  0  0  0  0  0  0  0  0  0
  193.5510  173.4290  136.3420 C   0  0  0  0  0  0  0  0  0  0  0  0
  192.0100  175.6530  137.2330 C   0  0  2  0  0  3  0  0  0  0  0  0
  185.9650  178.0260  136.9750 O   0  0  0  0  0  0  0  0  0  0  0  0
  189.8820  175.9310  136.0750 C   0  0  1  0  0  3  0  0  0  0  0  0
  192.2150  173.2190  136.6840 O   0  0  0  0  0  0  0  0  0  0  0  0
  194.0560  174.7570  136.2340 N   0  0  0  0  0  2  0  0  0  0  0  0
  187.0880  178.1410  136.5140 C   0  0  0  0  0  0  0  0  0  0  0  0
  190.2560  177.0820  138.3610 C   0  0  0  0  0  0  0  0  0  0  0  0
  187.9760  174.9140  136.8850 C   0  0  0  0  0  0  0  0  0  0  0  0
  194.5380  172.1570  136.0800 S   0  0  0  0  0  0  0  0  0  0  0  0
  187.6440  177.0670  135.6330 C   0  0  0  0  0  2  0  0  0  0  0  0
  190.4170  176.3180  139.5310 C   0  0  0  0  0  3  0  0  0  0  0  0
  188.8270  178.6090  139.6040 C   0  0  0  0  0  3  0  0  0  0  0  0
  189.0120  177.8530  140.7620 C   0  0  0  0  0  3  0  0  0  0  0  0
  187.9080  179.3520  136.8470 C   0  0  0  0  0  2  0  0  0  0  0  0
  190.1400  174.4150  136.2240 C   0  0  1  0  0  3  0  0  0  0  0  0
  188.4720  176.1470  136.4040 N   0  0  0  0  0  0  0  0  0  0  0  0
  191.3510  174.2700  137.1300 C   0  0  2  0  0  3  0  0  0  0  0  0
  188.6550  172.4730  137.0180 C   0  0  0  0  0  1  0  0  0  0  0  0
  190.8630  176.6420  137.0370 C   0  0  1  0  0  3  0  0  0  0  0  0
  1 21  1  0  0  0  0
  2  8  1  0  0  0  0
  4 22  1  0  0  0  0
  5 17  1  0  0  0  0
  5 27  1  0  0  0  0
  6  1  1  0  0  0  0
  8 14  1  0  0  0  0
  8  7  1  0  0  0  0
  9 13  1  0  0  0  0
 10  8  1  6  0  0  0
 12 24  1  0  0  0  0
 12 25  1  1  0  0  0
 12 28  1  0  0  0  0
 14  9  1  0  0  0  0
 15 23  1  0  0  0  0
 15 11  2  0  0  0  0
 16  1  2  0  0  0  0
 16 20  1  0  0  0  0
 17  3  2  0  0  0  0
 18  9  2  0  0  0  0
 19 25  1  0  0  0  0
 19 15  1  0  0  0  0
 20  4  2  0  0  0  0
 21 22  2  0  0  0  0
 23  6  1  0  0  0  0
 24  5  1  1  0  0  0
 24 26  1  0  0  0  0
 25 17  1  0  0  0  0
 26 13  1  6  0  0  0
 26 10  1  0  0  0  0
 28 10  1  0  0  0  0
 28 16  1  1  0  0  0
M  END
>  <MODEL>
1

>  <REMARK>
 VINA RESULT:      -6.1      0.000      0.000
  Name = 
  0 active torsions:
  status: ('A' for Active; 'I' for Inactive)
                            x       y       z     vdW  Elec       q    Type
                         _______ _______ _______ _____ _____    ______ ____

>  <TORSDO>
F 0

$$$$
=
 OpenBabel11122411573D

 28 32  0  0  1  0  0  0  0  0999 V2000
  180.7220  179.3010  138.4830 C   0  0  0  0  0  0  0  0  0  0  0  0
  184.9150  176.2430  137.9610 F   0  0  0  0  0  0  0  0  0  0  0  0
  181.9420  179.0540  142.8610 O   0  0  0  0  0  0  0  0  0  0  0  0
  181.7930  181.8800  138.7070 C   0  0  0  0  0  3  0  0  0  0  0  0
  183.9870  178.7820  141.7240 N   0  0  0  0  0  0  0  0  0  0  0  0
  180.1880  178.0130  138.4310 O   0  0  0  0  0  0  0  0  0  0  0  0
  184.6100  177.4820  136.1060 F   0  0  0  0  0  0  0  0  0  0  0  0
  185.1330  177.4840  137.3850 C   0  0  0  0  0  0  0  0  0  0  0  0
  187.2650  178.1410  138.4780 C   0  0  0  0  0  0  0  0  0  0  0  0
  184.4660  178.5990  138.2090 C   0  0  2  0  0  3  0  0  0  0  0  0
  178.9310  178.1250  141.5810 O   0  0  0  0  0  0  0  0  0  0  0  0
  183.1000  177.5140  139.9120 C   0  0  1  0  0  3  0  0  0  0  0  0
  186.5520  178.5860  139.5920 O   0  0  0  0  0  0  0  0  0  0  0  0
  186.5660  177.7200  137.3100 N   0  0  0  0  0  2  0  0  0  0  0  0
  179.6020  177.5950  140.7110 C   0  0  0  0  0  0  0  0  0  0  0  0
  182.1160  179.4710  138.5380 C   0  0  0  0  0  0  0  0  0  0  0  0
  182.5930  178.6190  141.8720 C   0  0  0  0  0  0  0  0  0  0  0  0
  188.8960  178.1150  138.5070 S   0  0  0  0  0  0  0  0  0  0  0  0
  180.9010  176.9430  141.0680 C   0  0  0  0  0  2  0  0  0  0  0  0
  182.6400  180.7710  138.6640 C   0  0  0  0  0  3  0  0  0  0  0  0
  179.8760  180.4190  138.5330 C   0  0  0  0  0  3  0  0  0  0  0  0
  180.4100  181.7040  138.6390 C   0  0  0  0  0  3  0  0  0  0  0  0
  179.1260  177.6150  139.2890 C   0  0  0  0  0  2  0  0  0  0  0  0
  184.4100  177.9770  140.5870 C   0  0  1  0  0  3  0  0  0  0  0  0
  182.0140  177.8550  140.8320 N   0  0  0  0  0  0  0  0  0  0  0  0
  185.1420  178.8330  139.5670 C   0  0  2  0  0  3  0  0  0  0  0  0
  184.8800  179.2480  142.7710 C   0  0  0  0  0  1  0  0  0  0  0  0
  183.0200  178.2480  138.5530 C   0  0  1  0  0  3  0  0  0  0  0  0
  1 21  2  0  0  0  0
  1 16  1  0  0  0  0
  5 17  1  0  0  0  0
  5 27  1  0  0  0  0
  6  1  1  0  0  0  0
  6 23  1  0  0  0  0
  7  8  1  0  0  0  0
  8  2  1  0  0  0  0
  9 18  2  0  0  0  0
  9 13  1  0  0  0  0
 10  8  1  1  0  0  0
 10 28  1  0  0  0  0
 10 26  1  0  0  0  0
 12 24  1  0  0  0  0
 12 25  1  1  0  0  0
 14  8  1  0  0  0  0
 14  9  1  0  0  0  0
 15 19  1  0  0  0  0
 15 11  2  0  0  0  0
 16 20  2  0  0  0  0
 17  3  2  0  0  0  0
 20  4  1  0  0  0  0
 21 22  1  0  0  0  0
 22  4  2  0  0  0  0
 23 15  1  0  0  0  0
 24  5  1  1  0  0  0
 25 19  1  0  0  0  0
 25 17  1  0  0  0  0
 26 13  1  6  0  0  0
 26 24  1  0  0  0  0
 28 16  1  1  0  0  0
 28 12  1  0  0  0  0
M  END
>  <MODEL>
2

>  <REMARK>
 VINA RESULT:      -5.6      6.416      8.631
  Name = 
  0 active torsions:
  status: ('A' for Active; 'I' for Inactive)
                            x       y       z     vdW  Elec       q    Type
                         _______ _______ _______ _____ _____    ______ ____

>  <TORSDO>
F 0

$$$$
=
 OpenBabel11122411573D

 28 32  0  0  1  0  0  0  0  0999 V2000
  183.5010  177.2420  136.2420 C   0  0  0  0  0  0  0  0  0  0  0  0
  183.6440  177.3140  141.4560 F   0  0  0  0  0  0  0  0  0  0  0  0
  180.6590  173.7810  137.0560 O   0  0  0  0  0  0  0  0  0  0  0  0
  181.1180  178.5740  135.6150 C   0  0  0  0  0  3  0  0  0  0  0  0
  180.4000  175.1400  138.9620 N   0  0  0  0  0  0  0  0  0  0  0  0
  184.6580  176.5260  136.5520 O   0  0  0  0  0  0  0  0  0  0  0  0
  183.9870  179.3810  140.6310 F   0  0  0  0  0  0  0  0  0  0  0  0
  183.0220  178.4500  140.9610 C   0  0  0  0  0  0  0  0  0  0  0  0
  180.8920  178.4110  142.2400 C   0  0  0  0  0  0  0  0  0  0  0  0
  182.1810  178.1200  139.7160 C   0  0  2  0  0  3  0  0  0  0  0  0
  183.5240  173.6130  135.2310 O   0  0  0  0  0  0  0  0  0  0  0  0
  182.6810  175.8140  139.1020 C   0  0  1  0  0  3  0  0  0  0  0  0
  180.3610  177.5050  141.3220 O   0  0  0  0  0  0  0  0  0  0  0  0
  182.1660  179.0030  141.9980 N   0  0  0  0  0  2  0  0  0  0  0  0
  184.0010  174.2630  136.1470 C   0  0  0  0  0  0  0  0  0  0  0  0
  182.6380  177.6440  137.2760 C   0  0  0  0  0  0  0  0  0  0  0  0
  181.1470  174.5700  137.9090 C   0  0  0  0  0  0  0  0  0  0  0  0
  180.0510  178.8040  143.5820 S   0  0  0  0  0  0  0  0  0  0  0  0
  183.5670  173.9940  137.5540 C   0  0  0  0  0  2  0  0  0  0  0  0
  181.4380  178.3010  136.9460 C   0  0  0  0  0  3  0  0  0  0  0  0
  183.1700  177.5130  134.9060 C   0  0  0  0  0  3  0  0  0  0  0  0
  181.9860  178.1820  134.5950 C   0  0  0  0  0  3  0  0  0  0  0  0
  185.0050  175.3370  135.8520 C   0  0  0  0  0  2  0  0  0  0  0  0
  181.3310  175.8160  139.8530 C   0  0  1  0  0  3  0  0  0  0  0  0
  182.5160  174.9220  137.9530 N   0  0  0  0  0  0  0  0  0  0  0  0
  180.9390  177.2730  140.0330 C   0  0  2  0  0  3  0  0  0  0  0  0
  179.0610  174.7230  139.3450 C   0  0  0  0  0  1  0  0  0  0  0  0
  182.9740  177.2820  138.7150 C   0  0  1  0  0  3  0  0  0  0  0  0
  1  6  1  0  0  0  0
  1 16  1  0  0  0  0
  3 17  2  0  0  0  0
  4 20  1  0  0  0  0
  5 27  1  0  0  0  0
  7  8  1  0  0  0  0
  8  2  1  0  0  0  0
  8 14  1  0  0  0  0
  9 18  2  0  0  0  0
 10 26  1  0  0  0  0
 10  8  1  1  0  0  0
 11 15  2  0  0  0  0
 12 25  1  6  0  0  0
 12 24  1  0  0  0  0
 13  9  1  0  0  0  0
 14  9  1  0  0  0  0
 15 19  1  0  0  0  0
 17 25  1  0  0  0  0
 17  5  1  0  0  0  0
 19 25  1  0  0  0  0
 20 16  2  0  0  0  0
 21  1  2  0  0  0  0
 22 21  1  0  0  0  0
 22  4  2  0  0  0  0
 23 15  1  0  0  0  0
 23  6  1  0  0  0  0
 24  5  1  6  0  0  0
 24 26  1  0  0  0  0
 26 13  1  1  0  0  0
 28 16  1  6  0  0  0
 28 12  1  0  0  0  0
 28 10  1  0  0  0  0
M  END
>  <MODEL>
3

>  <REMARK>
 VINA RESULT:      -5.2      7.359      9.663
  Name = 
  0 active torsions:
  status: ('A' for Active; 'I' for Inactive)
                            x       y       z     vdW  Elec       q    Type
                         _______ _______ _______ _____ _____    ______ ____

>  <TORSDO>
F 0

$$$$
=
 OpenBabel11122411573D

 28 32  0  0  1  0  0  0  0  0999 V2000
  180.4570  179.1810  140.8270 C   0  0  0  0  0  0  0  0  0  0  0  0
  181.7140  174.5200  138.8510 F   0  0  0  0  0  0  0  0  0  0  0  0
  184.9630  179.7530  140.5280 O   0  0  0  0  0  0  0  0  0  0  0  0
  180.4600  180.8800  138.6000 C   0  0  0  0  0  3  0  0  0  0  0  0
  184.5070  178.2170  138.8020 N   0  0  0  0  0  0  0  0  0  0  0  0
  180.5130  178.3510  141.9470 O   0  0  0  0  0  0  0  0  0  0  0  0
  179.6420  175.1170  138.2020 F   0  0  0  0  0  0  0  0  0  0  0  0
  180.9890  175.2670  137.9360 C   0  0  0  0  0  0  0  0  0  0  0  0
  182.4770  175.1460  135.9500 C   0  0  0  0  0  0  0  0  0  0  0  0
  181.3650  176.7560  138.0190 C   0  0  2  0  0  3  0  0  0  0  0  0
  183.1110  180.0050  143.3700 O   0  0  0  0  0  0  0  0  0  0  0  0
  182.8040  177.0260  139.9680 C   0  0  1  0  0  3  0  0  0  0  0  0
  183.2430  176.1920  136.4640 O   0  0  0  0  0  0  0  0  0  0  0  0
  181.2670  174.7660  136.5990 N   0  0  0  0  0  2  0  0  0  0  0  0
  182.5800  178.9830  142.9690 C   0  0  0  0  0  0  0  0  0  0  0  0
  180.8590  178.6830  139.5750 C   0  0  0  0  0  0  0  0  0  0  0  0
  184.2960  178.7830  140.0780 C   0  0  0  0  0  0  0  0  0  0  0  0
  182.9570  174.3670  134.5990 S   0  0  0  0  0  0  0  0  0  0  0  0
  183.4000  177.9440  142.2710 C   0  0  0  0  0  2  0  0  0  0  0  0
  180.8680  179.5510  138.4680 C   0  0  0  0  0  3  0  0  0  0  0  0
  180.0550  180.5190  140.9540 C   0  0  0  0  0  3  0  0  0  0  0  0
  180.0510  181.3630  139.8430 C   0  0  0  0  0  3  0  0  0  0  0  0
  181.1060  178.7850  143.1640 C   0  0  0  0  0  2  0  0  0  0  0  0
  183.7100  177.0020  138.7170 C   0  0  1  0  0  3  0  0  0  0  0  0
  183.3060  178.1020  140.8240 N   0  0  0  0  0  0  0  0  0  0  0  0
  182.7840  177.0510  137.5130 C   0  0  2  0  0  3  0  0  0  0  0  0
  185.6480  178.5050  137.9490 C   0  0  0  0  0  1  0  0  0  0  0  0
  181.3600  177.2510  139.4640 C   0  0  1  0  0  3  0  0  0  0  0  0
  1 21  1  0  0  0  0
  1  6  1  0  0  0  0
  4 22  1  0  0  0  0
  5 17  1  0  0  0  0
  6 23  1  0  0  0  0
  8  7  1  0  0  0  0
  8  2  1  0  0  0  0
  9 13  1  0  0  0  0
  9 14  1  0  0  0  0
 10  8  1  1  0  0  0
 10 28  1  0  0  0  0
 12 25  1  1  0  0  0
 14  8  1  0  0  0  0
 15 23  1  0  0  0  0
 15 11  2  0  0  0  0
 16  1  2  0  0  0  0
 17  3  2  0  0  0  0
 17 25  1  0  0  0  0
 18  9  2  0  0  0  0
 19 15  1  0  0  0  0
 20  4  2  0  0  0  0
 20 16  1  0  0  0  0
 22 21  2  0  0  0  0
 24  5  1  1  0  0  0
 24 12  1  0  0  0  0
 25 19  1  0  0  0  0
 26 13  1  6  0  0  0
 26 10  1  0  0  0  0
 26 24  1  0  0  0  0
 27  5  1  0  0  0  0
 28 16  1  6  0  0  0
 28 12  1  0  0  0  0
M  END
>  <MODEL>
4

>  <REMARK>
 VINA RESULT:      -4.9      7.275      9.590
  Name = 
  0 active torsions:
  status: ('A' for Active; 'I' for Inactive)
                            x       y       z     vdW  Elec       q    Type
                         _______ _______ _______ _____ _____    ______ ____

>  <TORSDO>
F 0

$$$$
=
 OpenBabel11122411573D

 28 32  0  0  1  0  0  0  0  0999 V2000
  182.5670  177.9710  137.2750 C   0  0  0  0  0  0  0  0  0  0  0  0
  187.2570  177.7570  135.0010 F   0  0  0  0  0  0  0  0  0  0  0  0
  182.9690  173.4480  136.9500 O   0  0  0  0  0  0  0  0  0  0  0  0
  183.1040  177.4590  139.9760 C   0  0  0  0  0  3  0  0  0  0  0  0
  185.2060  174.1710  137.0990 N   0  0  0  0  0  0  0  0  0  0  0  0
  182.2890  178.1660  135.9210 O   0  0  0  0  0  0  0  0  0  0  0  0
  187.0910  179.5960  136.2900 F   0  0  0  0  0  0  0  0  0  0  0  0
  187.3560  178.2400  136.2960 C   0  0  0  0  0  0  0  0  0  0  0  0
  189.0950  176.7300  137.2280 C   0  0  0  0  0  0  0  0  0  0  0  0
  186.3600  177.5280  137.2280 C   0  0  2  0  0  3  0  0  0  0  0  0
  180.4630  175.3220  135.6160 O   0  0  0  0  0  0  0  0  0  0  0  0
  184.9130  176.1600  135.8210 C   0  0  1  0  0  3  0  0  0  0  0  0
  188.1190  175.7630  137.4740 O   0  0  0  0  0  0  0  0  0  0  0  0
  188.7130  178.0250  136.7730 N   0  0  0  0  0  2  0  0  0  0  0  0
  181.3680  176.0600  135.2630 C   0  0  0  0  0  0  0  0  0  0  0  0
  183.8740  177.6380  137.6710 C   0  0  0  0  0  0  0  0  0  0  0  0
  183.8600  174.3030  136.6950 C   0  0  0  0  0  0  0  0  0  0  0  0
  190.6700  176.3820  137.4740 S   0  0  0  0  0  0  0  0  0  0  0  0
  182.6720  175.4760  134.8170 C   0  0  0  0  0  2  0  0  0  0  0  0
  184.1270  177.3710  139.0300 C   0  0  0  0  0  3  0  0  0  0  0  0
  181.5420  178.0510  138.2300 C   0  0  0  0  0  3  0  0  0  0  0  0
  181.8120  177.8020  139.5760 C   0  0  0  0  0  3  0  0  0  0  0  0
  181.1710  177.5460  135.2960 C   0  0  0  0  0  2  0  0  0  0  0  0
  185.9700  175.2270  136.4520 C   0  0  1  0  0  3  0  0  0  0  0  0
  183.6310  175.4600  135.9150 N   0  0  0  0  0  0  0  0  0  0  0  0
  186.7180  176.0560  137.4830 C   0  0  2  0  0  3  0  0  0  0  0  0
  185.7900  172.9540  137.6390 C   0  0  0  0  0  1  0  0  0  0  0  0
  184.9600  177.4850  136.6180 C   0  0  1  0  0  3  0  0  0  0  0  0
  1 16  2  0  0  0  0
  1 21  1  0  0  0  0
  2  8  1  0  0  0  0
  5 27  1  0  0  0  0
  6  1  1  0  0  0  0
  7  8  1  0  0  0  0
  8 14  1  0  0  0  0
  9 18  2  0  0  0  0
  9 13  1  0  0  0  0
 10  8  1  6  0  0  0
 10 26  1  0  0  0  0
 12 25  1  1  0  0  0
 12 24  1  0  0  0  0
 12 28  1  0  0  0  0
 14  9  1  0  0  0  0
 15 23  1  0  0  0  0
 15 11  2  0  0  0  0
 16 20  1  0  0  0  0
 17  3  2  0  0  0  0
 17  5  1  0  0  0  0
 19 15  1  0  0  0  0
 19 25  1  0  0  0  0
 20  4  2  0  0  0  0
 21 22  2  0  0  0  0
 22  4  1  0  0  0  0
 23  6  1  0  0  0  0
 24  5  1  1  0  0  0
 24 26  1  0  0  0  0
 25 17  1  0  0  0  0
 26 13  1  6  0  0  0
 28 10  1  0  0  0  0
 28 16  1  1  0  0  0
M  END
>  <MODEL>
5

>  <REMARK>
 VINA RESULT:      -4.7      4.349      5.869
  Name = 
  0 active torsions:
  status: ('A' for Active; 'I' for Inactive)
                            x       y       z     vdW  Elec       q    Type
                         _______ _______ _______ _____ _____    ______ ____

>  <TORSDO>
F 0

$$$$
=
 OpenBabel11122411573D

 28 32  0  0  1  0  0  0  0  0999 V2000
  182.5000  177.3480  137.3850 C   0  0  0  0  0  0  0  0  0  0  0  0
  185.1900  172.9450  138.1500 F   0  0  0  0  0  0  0  0  0  0  0  0
  186.6940  178.9730  136.6840 O   0  0  0  0  0  0  0  0  0  0  0  0
  182.3440  177.5660  134.5970 C   0  0  0  0  0  3  0  0  0  0  0  0
  186.8880  176.7120  136.0550 N   0  0  0  0  0  0  0  0  0  0  0  0
  182.6280  177.2750  138.7730 O   0  0  0  0  0  0  0  0  0  0  0  0
  183.1360  172.4830  137.3500 F   0  0  0  0  0  0  0  0  0  0  0  0
  184.4190  172.8610  137.0020 C   0  0  0  0  0  0  0  0  0  0  0  0
  186.1300  172.1730  135.3380 C   0  0  0  0  0  0  0  0  0  0  0  0
  184.3730  174.2130  136.2690 C   0  0  2  0  0  3  0  0  0  0  0  0
  184.4890  180.1020  139.0150 O   0  0  0  0  0  0  0  0  0  0  0  0
  185.4240  175.8580  137.7290 C   0  0  1  0  0  3  0  0  0  0  0  0
  186.5200  173.5050  135.1930 O   0  0  0  0  0  0  0  0  0  0  0  0
  184.9900  171.8490  136.1280 N   0  0  0  0  0  2  0  0  0  0  0  0
  184.3030  178.9170  139.2350 C   0  0  0  0  0  0  0  0  0  0  0  0
  183.1790  176.4190  136.5770 C   0  0  0  0  0  0  0  0  0  0  0  0
  186.3710  177.7640  136.8400 C   0  0  0  0  0  0  0  0  0  0  0  0
  186.9710  170.9890  134.5940 S   0  0  0  0  0  0  0  0  0  0  0  0
  185.4520  177.9600  139.1710 C   0  0  0  0  0  2  0  0  0  0  0  0
  183.1020  176.5480  135.1780 C   0  0  0  0  0  3  0  0  0  0  0  0
  181.7450  178.3730  136.7940 C   0  0  0  0  0  3  0  0  0  0  0  0
  181.6630  178.4770  135.4050 C   0  0  0  0  0  3  0  0  0  0  0  0
  182.9220  178.4280  139.5530 C   0  0  0  0  0  2  0  0  0  0  0  0
  186.4590  175.4570  136.6540 C   0  0  1  0  0  3  0  0  0  0  0  0
  185.5080  177.3130  137.8650 N   0  0  0  0  0  0  0  0  0  0  0  0
  185.7180  174.6040  135.6380 C   0  0  2  0  0  3  0  0  0  0  0  0
  188.0140  176.8370  135.1430 C   0  0  0  0  0  1  0  0  0  0  0  0
  184.0500  175.3560  137.2290 C   0  0  1  0  0  3  0  0  0  0  0  0
  1  6  1  0  0  0  0
  3 17  2  0  0  0  0
  4 20  2  0  0  0  0
  4 22  1  0  0  0  0
  5 17  1  0  0  0  0
  6 23  1  0  0  0  0
  8  7  1  0  0  0  0
  8  2  1  0  0  0  0
  9 14  1  0  0  0  0
 10  8  1  1  0  0  0
 10 28  1  0  0  0  0
 11 15  2  0  0  0  0
 12 25  1  6  0  0  0
 13  9  1  0  0  0  0
 14  8  1  0  0  0  0
 15 23  1  0  0  0  0
 16  1  2  0  0  0  0
 17 25  1  0  0  0  0
 18  9  2  0  0  0  0
 19 15  1  0  0  0  0
 20 16  1  0  0  0  0
 21  1  1  0  0  0  0
 22 21  2  0  0  0  0
 24  5  1  6  0  0  0
 24 12  1  0  0  0  0
 25 19  1  0  0  0  0
 26 13  1  1  0  0  0
 26 10  1  0  0  0  0
 26 24  1  0  0  0  0
 27  5  1  0  0  0  0
 28 16  1  6  0  0  0
 28 12  1  0  0  0  0
M  END
>  <MODEL>
6

>  <REMARK>
 VINA RESULT:      -4.7      4.679      6.904
  Name = 
  0 active torsions:
  status: ('A' for Active; 'I' for Inactive)
                            x       y       z     vdW  Elec       q    Type
                         _______ _______ _______ _____ _____    ______ ____

>  <TORSDO>
F 0

$$$$
=
 OpenBabel11122411573D

 28 32  0  0  1  0  0  0  0  0999 V2000
  184.9130  174.8050  137.1880 C   0  0  0  0  0  0  0  0  0  0  0  0
  181.5130  176.7280  140.6450 F   0  0  0  0  0  0  0  0  0  0  0  0
  181.1740  174.7220  134.5940 O   0  0  0  0  0  0  0  0  0  0  0  0
  185.5450  177.0020  135.5700 C   0  0  0  0  0  3  0  0  0  0  0  0
  180.7500  176.4990  136.0800 N   0  0  0  0  0  0  0  0  0  0  0  0
  184.5560  173.6940  137.9530 O   0  0  0  0  0  0  0  0  0  0  0  0
  183.5770  177.5380  141.0360 F   0  0  0  0  0  0  0  0  0  0  0  0
  182.4370  177.6900  140.2700 C   0  0  0  0  0  0  0  0  0  0  0  0
  180.9320  179.5480  139.5960 C   0  0  0  0  0  0  0  0  0  0  0  0
  182.8000  177.5570  138.7810 C   0  0  2  0  0  3  0  0  0  0  0  0
  183.1200  172.0400  135.3620 O   0  0  0  0  0  0  0  0  0  0  0  0
  181.7830  175.4930  137.9770 C   0  0  1  0  0  3  0  0  0  0  0  0
  180.7730  178.9590  138.3410 O   0  0  0  0  0  0  0  0  0  0  0  0
  181.8700  179.0050  140.5210 N   0  0  0  0  0  2  0  0  0  0  0  0
  183.0900  172.4970  136.4920 C   0  0  0  0  0  0  0  0  0  0  0  0
  184.2430  176.0250  137.3820 C   0  0  0  0  0  0  0  0  0  0  0  0
  181.2850  175.2380  135.7380 C   0  0  0  0  0  0  0  0  0  0  0  0
  180.0550  180.8640  139.9990 S   0  0  0  0  0  0  0  0  0  0  0  0
  181.8370  173.1380  137.0020 C   0  0  0  0  0  2  0  0  0  0  0  0
  184.5620  177.1170  136.5540 C   0  0  0  0  0  3  0  0  0  0  0  0
  185.8970  174.6940  136.1930 C   0  0  0  0  0  3  0  0  0  0  0  0
  186.2150  175.7910  135.3920 C   0  0  0  0  0  3  0  0  0  0  0  0
  184.3140  172.4260  137.3550 C   0  0  0  0  0  2  0  0  0  0  0  0
  180.8870  176.6650  137.5200 C   0  0  1  0  0  3  0  0  0  0  0  0
  181.8960  174.5850  136.8330 N   0  0  0  0  0  0  0  0  0  0  0  0
  181.6470  177.9410  137.8420 C   0  0  2  0  0  3  0  0  0  0  0  0
  179.8170  177.2510  135.2570 C   0  0  0  0  0  1  0  0  0  0  0  0
  183.1310  176.1120  138.4160 C   0  0  1  0  0  3  0  0  0  0  0  0
  1 16  1  0  0  0  0
  1  6  1  0  0  0  0
  3 17  2  0  0  0  0
  4 20  1  0  0  0  0
  8 14  1  0  0  0  0
  8  2  1  0  0  0  0
  8  7  1  0  0  0  0
  9 18  2  0  0  0  0
  9 14  1  0  0  0  0
 10  8  1  1  0  0  0
 11 15  2  0  0  0  0
 12 25  1  6  0  0  0
 12 28  1  0  0  0  0
 13  9  1  0  0  0  0
 15 19  1  0  0  0  0
 15 23  1  0  0  0  0
 17  5  1  0  0  0  0
 17 25  1  0  0  0  0
 20 16  2  0  0  0  0
 21  1  2  0  0  0  0
 22  4  2  0  0  0  0
 22 21  1  0  0  0  0
 23  6  1  0  0  0  0
 24  5  1  6  0  0  0
 24 26  1  0  0  0  0
 24 12  1  0  0  0  0
 25 19  1  0  0  0  0
 26 13  1  1  0  0  0
 26 10  1  0  0  0  0
 27  5  1  0  0  0  0
 28 16  1  6  0  0  0
 28 10  1  0  0  0  0
M  END
>  <MODEL>
7

>  <REMARK>
 VINA RESULT:      -4.6      7.061      9.451
  Name = 
  0 active torsions:
  status: ('A' for Active; 'I' for Inactive)
                            x       y       z     vdW  Elec       q    Type
                         _______ _______ _______ _____ _____    ______ ____

>  <TORSDO>
F 0

$$$$
=
 OpenBabel11122411573D

 28 32  0  0  1  0  0  0  0  0999 V2000
  183.0030  179.0460  138.8610 C   0  0  0  0  0  0  0  0  0  0  0  0
  186.6880  178.3790  135.2290 F   0  0  0  0  0  0  0  0  0  0  0  0
  182.2660  174.6520  137.9330 O   0  0  0  0  0  0  0  0  0  0  0  0
  184.1500  177.9880  141.1860 C   0  0  0  0  0  3  0  0  0  0  0  0
  184.5570  174.9190  137.4550 N   0  0  0  0  0  0  0  0  0  0  0  0
  182.4050  179.5200  137.6910 O   0  0  0  0  0  0  0  0  0  0  0  0
  187.3100  179.9670  136.6990 F   0  0  0  0  0  0  0  0  0  0  0  0
  187.2540  178.6050  136.4730 C   0  0  0  0  0  0  0  0  0  0  0  0
  188.7970  176.6660  136.6450 C   0  0  0  0  0  0  0  0  0  0  0  0
  186.4270  177.9360  137.5850 C   0  0  2  0  0  3  0  0  0  0  0  0
  179.9760  177.1510  137.6600 O   0  0  0  0  0  0  0  0  0  0  0  0
  184.3720  177.1190  136.5580 C   0  0  1  0  0  3  0  0  0  0  0  0
  187.7380  175.8660  137.0750 O   0  0  0  0  0  0  0  0  0  0  0  0
  188.6050  178.0680  136.4770 N   0  0  0  0  0  2  0  0  0  0  0  0
  180.8870  177.7620  137.1260 C   0  0  0  0  0  0  0  0  0  0  0  0
  184.2580  178.4180  138.7910 C   0  0  0  0  0  0  0  0  0  0  0  0
  183.2180  175.3610  137.5080 C   0  0  0  0  0  0  0  0  0  0  0  0
  190.2570  176.0010  136.3470 S   0  0  0  0  0  0  0  0  0  0  0  0
  181.8450  177.0370  136.2340 C   0  0  0  0  0  2  0  0  0  0  0  0
  184.8160  177.8790  139.9650 C   0  0  0  0  0  3  0  0  0  0  0  0
  182.3340  179.1460  140.0900 C   0  0  0  0  0  3  0  0  0  0  0  0
  182.9090  178.6240  141.2490 C   0  0  0  0  0  3  0  0  0  0  0  0
  181.0470  179.2310  137.3820 C   0  0  0  0  0  2  0  0  0  0  0  0
  185.3260  175.9140  136.7220 C   0  0  1  0  0  3  0  0  0  0  0  0
  183.0450  176.6580  136.9700 N   0  0  0  0  0  0  0  0  0  0  0  0
  186.5000  176.4030  137.5530 C   0  0  2  0  0  3  0  0  0  0  0  0
  184.9800  173.5410  137.6480 C   0  0  0  0  0  1  0  0  0  0  0  0
  184.9400  178.2550  137.4410 C   0  0  1  0  0  3  0  0  0  0  0  0
  1 21  1  0  0  0  0
  2  8  1  0  0  0  0
  4 22  1  0  0  0  0
  5 17  1  0  0  0  0
  5 27  1  0  0  0  0
  6  1  1  0  0  0  0
  8 14  1  0  0  0  0
  8  7  1  0  0  0  0
  9 13  1  0  0  0  0
 10  8  1  6  0  0  0
 12 24  1  0  0  0  0
 12 25  1  1  0  0  0
 12 28  1  0  0  0  0
 14  9  1  0  0  0  0
 15 23  1  0  0  0  0
 15 11  2  0  0  0  0
 16  1  2  0  0  0  0
 16 20  1  0  0  0  0
 17  3  2  0  0  0  0
 18  9  2  0  0  0  0
 19 25  1  0  0  0  0
 19 15  1  0  0  0  0
 20  4  2  0  0  0  0
 21 22  2  0  0  0  0
 23  6  1  0  0  0  0
 24  5  1  1  0  0  0
 24 26  1  0  0  0  0
 25 17  1  0  0  0  0
 26 13  1  6  0  0  0
 26 10  1  0  0  0  0
 28 10  1  0  0  0  0
 28 16  1  1  0  0  0
M  END
>  <MODEL>
8

>  <REMARK>
 VINA RESULT:      -4.5      4.514      5.890
  Name = 
  0 active torsions:
  status: ('A' for Active; 'I' for Inactive)
                            x       y       z     vdW  Elec       q    Type
                         _______ _______ _______ _____ _____    ______ ____

>  <TORSDO>
F 0

$$$$
=
 OpenBabel11122411573D

 28 32  0  0  1  0  0  0  0  0999 V2000
  182.1720  179.3890  138.7390 C   0  0  0  0  0  0  0  0  0  0  0  0
  185.9390  177.6610  135.5710 F   0  0  0  0  0  0  0  0  0  0  0  0
  179.9240  175.9270  136.8200 O   0  0  0  0  0  0  0  0  0  0  0  0
  182.2720  177.6370  140.9220 C   0  0  0  0  0  3  0  0  0  0  0  0
  182.1690  175.2240  136.7180 N   0  0  0  0  0  0  0  0  0  0  0  0
  182.0790  180.2260  137.6260 O   0  0  0  0  0  0  0  0  0  0  0  0
  186.8300  178.6060  137.4100 F   0  0  0  0  0  0  0  0  0  0  0  0
  186.2730  177.4500  136.8990 C   0  0  0  0  0  0  0  0  0  0  0  0
  186.8200  175.0270  136.8630 C   0  0  0  0  0  0  0  0  0  0  0  0
  185.0320  177.0700  137.7250 C   0  0  2  0  0  3  0  0  0  0  0  0
  178.9620  179.1890  136.7760 O   0  0  0  0  0  0  0  0  0  0  0  0
  183.0890  177.3790  136.2860 C   0  0  1  0  0  3  0  0  0  0  0  0
  185.4630  174.7220  136.9710 O   0  0  0  0  0  0  0  0  0  0  0  0
  187.2540  176.3790  136.9690 N   0  0  0  0  0  2  0  0  0  0  0  0
  180.1320  179.4030  136.5080 C   0  0  0  0  0  0  0  0  0  0  0  0
  183.0470  178.2890  138.7060 C   0  0  0  0  0  0  0  0  0  0  0  0
  181.1480  176.1970  136.6840 C   0  0  0  0  0  0  0  0  0  0  0  0
  187.9100  173.8350  136.6300 S   0  0  0  0  0  0  0  0  0  0  0  0
  180.8770  178.4570  135.6190 C   0  0  0  0  0  2  0  0  0  0  0  0
  183.0770  177.4100  139.8040 C   0  0  0  0  0  3  0  0  0  0  0  0
  181.3600  179.6070  139.8620 C   0  0  0  0  0  3  0  0  0  0  0  0
  181.4150  178.7380  140.9510 C   0  0  0  0  0  3  0  0  0  0  0  0
  180.8190  180.6050  137.0850 C   0  0  0  0  0  2  0  0  0  0  0  0
  183.4110  175.8690  136.3190 C   0  0  1  0  0  3  0  0  0  0  0  0
  181.6350  177.4960  136.4120 N   0  0  0  0  0  0  0  0  0  0  0  0
  184.4800  175.6790  137.3820 C   0  0  2  0  0  3  0  0  0  0  0  0
  181.9440  173.7880  136.6730 C   0  0  0  0  0  1  0  0  0  0  0  0
  183.8700  178.0240  137.4550 C   0  0  1  0  0  3  0  0  0  0  0  0
  1 21  1  0  0  0  0
  2  8  1  0  0  0  0
  4 22  1  0  0  0  0
  6  1  1  0  0  0  0
  8 14  1  0  0  0  0
  8  7  1  0  0  0  0
  9 14  1  0  0  0  0
  9 13  1  0  0  0  0
 10  8  1  6  0  0  0
 12 24  1  0  0  0  0
 12 25  1  1  0  0  0
 12 28  1  0  0  0  0
 15 11  2  0  0  0  0
 15 23  1  0  0  0  0
 16  1  2  0  0  0  0
 16 20  1  0  0  0  0
 17  5  1  0  0  0  0
 17  3  2  0  0  0  0
 18  9  2  0  0  0  0
 19 25  1  0  0  0  0
 19 15  1  0  0  0  0
 20  4  2  0  0  0  0
 21 22  2  0  0  0  0
 23  6  1  0  0  0  0
 24  5  1  1  0  0  0
 24 26  1  0  0  0  0
 25 17  1  0  0  0  0
 26 13  1  6  0  0  0
 26 10  1  0  0  0  0
 27  5  1  0  0  0  0
 28 10  1  0  0  0  0
 28 16  1  1  0  0  0
M  END
>  <MODEL>
9

>  <REMARK>
 VINA RESULT:      -4.4      5.501      7.116
  Name = 
  0 active torsions:
  status: ('A' for Active; 'I' for Inactive)
                            x       y       z     vdW  Elec       q    Type
                         _______ _______ _______ _____ _____    ______ ____

>  <TORSDO>
F 0

$$$$
