=
 OpenBabel11122410383D

 32 37  0  0  1  0  0  0  0  0999 V2000
  187.4310  176.9550  143.7290 C   0  0  0  0  0  2  0  0  0  0  0  0
  190.8190  177.3510  139.2450 C   0  0  1  0  0  3  0  0  0  0  0  0
  186.6380  175.5890  137.3650 C   0  0  0  0  0  2  0  0  0  0  0  0
  187.3870  174.8660  136.2460 C   0  0  0  0  0  2  0  0  0  0  0  0
  192.9810  176.5110  138.3840 C   0  0  0  0  0  0  0  0  0  0  0  0
  193.7380  175.6460  137.4790 C   0  0  0  0  0  0  0  0  0  0  0  0
  189.8500  177.4230  141.5460 C   0  0  1  0  0  3  0  0  0  0  0  0
  188.7540  178.5510  139.6110 C   0  0  0  0  0  2  0  0  0  0  0  0
  194.0790  174.1940  135.8760 C   0  0  0  0  0  0  0  0  0  0  0  0
  187.6490  178.6310  141.8520 C   0  0  0  0  0  2  0  0  0  0  0  0
  187.3610  176.8790  137.7460 C   0  0  0  0  0  2  0  0  0  0  0  0
  189.5280  177.7490  138.6450 N   0  0  2  0  0  0  0  0  0  0  0  0
  188.7900  176.5520  138.2000 C   0  0  2  0  0  3  0  0  0  0  0  0
  190.9500  175.6940  137.3010 N   0  0  0  0  0  0  0  0  0  0  0  0
  195.2870  174.6000  136.4320 C   0  0  0  0  0  3  0  0  0  0  0  0
  188.4620  175.9820  143.1700 C   0  0  0  0  0  2  0  0  0  0  0  0
  188.5040  177.7950  140.9160 C   0  0  2  0  0  3  0  0  0  0  0  0
  195.0360  175.4760  137.3960 O   0  0  0  0  0  0  0  0  0  0  0  0
  189.7730  176.7160  142.9060 C   0  0  0  0  0  2  0  0  0  0  0  0
  186.7040  177.7200  142.6240 C   0  0  2  0  0  3  0  0  0  0  0  0
  188.8310  174.5860  136.6590 C   0  0  0  0  0  2  0  0  0  0  0  0
  189.5250  175.8990  137.0200 C   0  0  1  0  0  3  0  0  0  0  0  0
  191.6980  174.8760  136.4240 N   0  0  0  0  0  2  0  0  0  0  0  0
  190.6420  176.5790  140.5620 C   0  0  0  0  0  2  0  0  0  0  0  0
  193.6480  177.2860  139.3280 O   0  0  0  0  0  1  0  0  0  0  0  0
  193.8850  173.2270  134.7630 C   0  0  0  0  0  1  0  0  0  0  0  0
  191.6320  176.5290  138.2830 C   0  0  0  0  0  0  0  0  0  0  0  0
  193.1120  174.8740  136.5650 C   0  0  0  0  0  0  0  0  0  0  0  0
  185.6390  178.5240  143.2060 N   0  0  0  0  0  2  0  0  0  0  0  0
  184.2960  178.4890  142.7200 C   0  0  0  0  0  0  0  0  0  0  0  0
  183.9850  177.7640  141.7380 O   0  0  0  0  0  0  0  0  0  0  0  0
  183.2550  179.3200  143.3790 C   0  0  0  0  0  1  0  0  0  0  0  0
  2 24  1  1  0  0  0
  3 11  1  0  0  0  0
  4 21  1  0  0  0  0
  4  3  1  0  0  0  0
  5 25  1  0  0  0  0
  6  5  1  0  0  0  0
  7 24  1  6  0  0  0
  7 19  1  0  0  0  0
  9 15  2  0  0  0  0
  9 28  1  0  0  0  0
 10 20  1  0  0  0  0
 12  2  1  0  0  0  0
 12  8  1  1  0  0  0
 13 11  1  6  0  0  0
 13 12  1  0  0  0  0
 14 27  1  0  0  0  0
 15 18  1  0  0  0  0
 16  1  1  0  0  0  0
 17  8  1  6  0  0  0
 17  7  1  0  0  0  0
 17 10  1  0  0  0  0
 18  6  1  0  0  0  0
 19 16  1  0  0  0  0
 20 29  1  1  0  0  0
 20  1  1  0  0  0  0
 22 21  1  1  0  0  0
 22 14  1  0  0  0  0
 22 13  1  0  0  0  0
 23 28  1  0  0  0  0
 23 14  1  0  0  0  0
 26  9  1  0  0  0  0
 27  5  2  0  0  0  0
 27  2  1  0  0  0  0
 28  6  2  0  0  0  0
 30 29  1  0  0  0  0
 30 32  1  0  0  0  0
 31 30  2  0  0  0  0
M  END
>  <MODEL>
1

>  <REMARK>
 VINA RESULT:      -9.0      0.000      0.000
  Name = 
  1 active torsions:
  status: ('A' for Active; 'I' for Inactive)
    1  A    between atoms: C_20  and  N_29
                            x       y       z     vdW  Elec       q    Type
                         _______ _______ _______ _____ _____    ______ ____

>  <TORSDO>
F 1

$$$$
=
 OpenBabel11122410383D

 32 37  0  0  1  0  0  0  0  0999 V2000
  189.0640  175.0410  135.9090 C   0  0  0  0  0  2  0  0  0  0  0  0
  187.3600  178.5690  139.9570 C   0  0  1  0  0  3  0  0  0  0  0  0
  191.1390  176.2060  142.0190 C   0  0  0  0  0  2  0  0  0  0  0  0
  190.5470  176.3760  143.4180 C   0  0  0  0  0  2  0  0  0  0  0  0
  185.3750  179.1080  141.3310 C   0  0  0  0  0  0  0  0  0  0  0  0
  184.6720  179.0780  142.6140 C   0  0  0  0  0  0  0  0  0  0  0  0
  187.6210  177.2950  137.8250 C   0  0  1  0  0  3  0  0  0  0  0  0
  189.5060  178.5660  138.8470 C   0  0  0  0  0  2  0  0  0  0  0  0
  184.3600  178.6840  144.7450 C   0  0  0  0  0  0  0  0  0  0  0  0
  189.9090  177.2680  136.7490 C   0  0  0  0  0  2  0  0  0  0  0  0
  190.7750  177.3980  141.1360 C   0  0  0  0  0  2  0  0  0  0  0  0
  188.8240  178.6180  140.1540 N   0  0  2  0  0  0  0  0  0  0  0  0
  189.2480  177.5230  141.0460 C   0  0  2  0  0  3  0  0  0  0  0  0
  187.2700  178.0620  142.4620 N   0  0  0  0  0  0  0  0  0  0  0  0
  183.2320  179.2770  144.1880 C   0  0  0  0  0  3  0  0  0  0  0  0
  187.9820  174.8910  136.9710 C   0  0  0  0  0  2  0  0  0  0  0  0
  189.1350  177.3130  138.0550 C   0  0  2  0  0  3  0  0  0  0  0  0
  183.4620  179.4970  142.9000 O   0  0  0  0  0  0  0  0  0  0  0  0
  187.0920  176.1290  136.9780 C   0  0  0  0  0  2  0  0  0  0  0  0
  190.2710  175.8250  136.4240 C   0  0  2  0  0  3  0  0  0  0  0  0
  189.0320  176.5620  143.3420 C   0  0  0  0  0  2  0  0  0  0  0  0
  188.7070  177.7690  142.4620 C   0  0  1  0  0  3  0  0  0  0  0  0
  186.5820  178.0550  143.6970 N   0  0  0  0  0  2  0  0  0  0  0  0
  186.9140  177.3280  139.1680 C   0  0  0  0  0  2  0  0  0  0  0  0
  184.7460  179.6270  140.2040 O   0  0  0  0  0  1  0  0  0  0  0  0
  184.5470  178.2700  146.1610 C   0  0  0  0  0  1  0  0  0  0  0  0
  186.6350  178.6190  141.2730 C   0  0  0  0  0  0  0  0  0  0  0  0
  185.2570  178.5680  143.7190 C   0  0  0  0  0  0  0  0  0  0  0  0
  191.3250  175.8140  135.4210 N   0  0  0  0  0  2  0  0  0  0  0  0
  192.7120  175.8580  135.7620 C   0  0  0  0  0  0  0  0  0  0  0  0
  193.0780  175.9340  136.9650 O   0  0  0  0  0  0  0  0  0  0  0  0
  193.7350  175.8200  134.6840 C   0  0  0  0  0  1  0  0  0  0  0  0
  1 20  1  0  0  0  0
  1 16  1  0  0  0  0
  2 24  1  1  0  0  0
  2 12  1  0  0  0  0
  2 27  1  0  0  0  0
  3  4  1  0  0  0  0
  5  6  1  0  0  0  0
  6 18  1  0  0  0  0
  6 28  2  0  0  0  0
  7 19  1  1  0  0  0
  7 17  1  0  0  0  0
  7 24  1  0  0  0  0
  9 26  1  0  0  0  0
 11  3  1  0  0  0  0
 12  8  1  6  0  0  0
 12 13  1  0  0  0  0
 13 11  1  1  0  0  0
 13 22  1  0  0  0  0
 14 23  1  0  0  0  0
 15  9  2  0  0  0  0
 16 19  1  0  0  0  0
 17 10  1  6  0  0  0
 17  8  1  0  0  0  0
 18 15  1  0  0  0  0
 20 29  1  6  0  0  0
 20 10  1  0  0  0  0
 21  4  1  0  0  0  0
 22 14  1  0  0  0  0
 22 21  1  1  0  0  0
 23 28  1  0  0  0  0
 25  5  1  0  0  0  0
 27  5  2  0  0  0  0
 27 14  1  0  0  0  0
 28  9  1  0  0  0  0
 29 30  1  0  0  0  0
 30 31  2  0  0  0  0
 32 30  1  0  0  0  0
M  END
>  <MODEL>
2

>  <REMARK>
 VINA RESULT:      -8.3      1.626      8.798
  Name = 
  1 active torsions:
  status: ('A' for Active; 'I' for Inactive)
    1  A    between atoms: C_20  and  N_29
                            x       y       z     vdW  Elec       q    Type
                         _______ _______ _______ _____ _____    ______ ____

>  <TORSDO>
F 1

$$$$
=
 OpenBabel11122410383D

 32 37  0  0  1  0  0  0  0  0999 V2000
  191.1600  173.8650  136.5550 C   0  0  0  0  0  2  0  0  0  0  0  0
  188.2620  177.9630  139.1140 C   0  0  1  0  0  3  0  0  0  0  0  0
  191.1580  176.2170  142.6760 C   0  0  0  0  0  2  0  0  0  0  0  0
  190.1470  176.6020  143.7550 C   0  0  0  0  0  2  0  0  0  0  0  0
  185.9440  178.6310  139.6590 C   0  0  0  0  0  0  0  0  0  0  0  0
  184.8630  178.7920  140.6330 C   0  0  0  0  0  0  0  0  0  0  0  0
  189.1900  176.3440  137.4540 C   0  0  1  0  0  3  0  0  0  0  0  0
  190.6520  177.8780  138.7660 C   0  0  0  0  0  2  0  0  0  0  0  0
  183.8780  178.7700  142.5880 C   0  0  0  0  0  0  0  0  0  0  0  0
  191.7020  176.2490  137.1880 C   0  0  0  0  0  2  0  0  0  0  0  0
  191.1060  177.2100  141.5160 C   0  0  0  0  0  2  0  0  0  0  0  0
  189.5850  178.1260  139.7540 N   0  0  2  0  0  0  0  0  0  0  0  0
  189.6910  177.2330  140.9230 C   0  0  2  0  0  3  0  0  0  0  0  0
  187.3650  177.9090  141.5090 N   0  0  0  0  0  0  0  0  0  0  0  0
  182.9940  179.1920  141.6000 C   0  0  0  0  0  3  0  0  0  0  0  0
  189.7910  173.8480  137.2250 C   0  0  0  0  0  2  0  0  0  0  0  0
  190.5480  176.4850  138.1460 C   0  0  2  0  0  3  0  0  0  0  0  0
  183.6290  179.1900  140.4350 O   0  0  0  0  0  0  0  0  0  0  0  0
  188.9540  175.0180  136.7170 C   0  0  0  0  0  2  0  0  0  0  0  0
  192.1400  174.7930  137.2700 C   0  0  2  0  0  3  0  0  0  0  0  0
  188.7400  176.6880  143.1680 C   0  0  0  0  0  2  0  0  0  0  0  0
  188.7240  177.6990  142.0210 C   0  0  1  0  0  3  0  0  0  0  0  0
  186.3160  178.0850  142.4380 N   0  0  0  0  0  2  0  0  0  0  0  0
  188.0870  176.5780  138.4720 C   0  0  0  0  0  2  0  0  0  0  0  0
  185.7150  178.9040  138.3140 O   0  0  0  0  0  1  0  0  0  0  0  0
  183.5950  178.6280  144.0410 C   0  0  0  0  0  1  0  0  0  0  0  0
  187.1510  178.2080  140.0980 C   0  0  0  0  0  0  0  0  0  0  0  0
  185.0570  178.5210  141.9410 C   0  0  0  0  0  0  0  0  0  0  0  0
  193.4620  174.6590  136.6760 N   0  0  0  0  0  2  0  0  0  0  0  0
  194.6640  174.8930  137.4120 C   0  0  0  0  0  0  0  0  0  0  0  0
  194.6210  175.2530  138.6190 O   0  0  0  0  0  0  0  0  0  0  0  0
  195.9800  174.7150  136.7450 C   0  0  0  0  0  1  0  0  0  0  0  0
  1 16  1  0  0  0  0
  1 20  1  0  0  0  0
  2 24  1  1  0  0  0
  2 12  1  0  0  0  0
  2 27  1  0  0  0  0
  3  4  1  0  0  0  0
  5 27  2  0  0  0  0
  5  6  1  0  0  0  0
  6 28  2  0  0  0  0
  7 19  1  1  0  0  0
  7 17  1  0  0  0  0
  7 24  1  0  0  0  0
  9 26  1  0  0  0  0
 10 20  1  0  0  0  0
 11  3  1  0  0  0  0
 12  8  1  6  0  0  0
 12 13  1  0  0  0  0
 13 11  1  1  0  0  0
 13 22  1  0  0  0  0
 14 22  1  0  0  0  0
 14 23  1  0  0  0  0
 15  9  2  0  0  0  0
 17 10  1  6  0  0  0
 17  8  1  0  0  0  0
 18  6  1  0  0  0  0
 18 15  1  0  0  0  0
 19 16  1  0  0  0  0
 20 29  1  6  0  0  0
 21  4  1  0  0  0  0
 22 21  1  1  0  0  0
 25  5  1  0  0  0  0
 27 14  1  0  0  0  0
 28 23  1  0  0  0  0
 28  9  1  0  0  0  0
 29 30  1  0  0  0  0
 30 31  2  0  0  0  0
 32 30  1  0  0  0  0
M  END
>  <MODEL>
3

>  <REMARK>
 VINA RESULT:      -8.2      1.548      8.634
  Name = 
  1 active torsions:
  status: ('A' for Active; 'I' for Inactive)
    1  A    between atoms: C_20  and  N_29
                            x       y       z     vdW  Elec       q    Type
                         _______ _______ _______ _____ _____    ______ ____

>  <TORSDO>
F 1

$$$$
=
 OpenBabel11122410383D

 32 37  0  0  1  0  0  0  0  0999 V2000
  181.8790  176.5570  138.0610 C   0  0  0  0  0  2  0  0  0  0  0  0
  184.9110  178.9530  142.1610 C   0  0  1  0  0  3  0  0  0  0  0  0
  188.3110  177.4820  138.9360 C   0  0  0  0  0  2  0  0  0  0  0  0
  189.3550  177.3090  140.0400 C   0  0  0  0  0  2  0  0  0  0  0  0
  185.3740  178.7520  144.5820 C   0  0  0  0  0  0  0  0  0  0  0  0
  186.2660  178.3710  145.6780 C   0  0  0  0  0  0  0  0  0  0  0  0
  183.0600  178.0740  140.7330 C   0  0  1  0  0  3  0  0  0  0  0  0
  184.7570  179.6770  139.8600 C   0  0  0  0  0  2  0  0  0  0  0  0
  188.0900  177.6470  146.6470 C   0  0  0  0  0  0  0  0  0  0  0  0
  182.9950  178.8090  138.3150 C   0  0  0  0  0  2  0  0  0  0  0  0
  187.3600  178.6280  139.2760 C   0  0  0  0  0  2  0  0  0  0  0  0
  185.6800  179.3770  140.9710 N   0  0  2  0  0  0  0  0  0  0  0  0
  186.6640  178.3390  140.6130 C   0  0  2  0  0  3  0  0  0  0  0  0
  187.1680  178.1350  143.0440 N   0  0  0  0  0  0  0  0  0  0  0  0
  187.1280  177.9720  147.5980 C   0  0  0  0  0  3  0  0  0  0  0  0
  182.4160  175.9850  139.3670 C   0  0  0  0  0  2  0  0  0  0  0  0
  183.8790  178.4780  139.5050 C   0  0  2  0  0  3  0  0  0  0  0  0
  186.0420  178.4040  146.9710 O   0  0  0  0  0  0  0  0  0  0  0  0
  182.0680  176.9210  140.5210 C   0  0  0  0  0  2  0  0  0  0  0  0
  182.8380  177.5720  137.4400 C   0  0  2  0  0  3  0  0  0  0  0  0
  188.6770  177.0790  141.3900 C   0  0  0  0  0  2  0  0  0  0  0  0
  187.7440  178.2500  141.7010 C   0  0  1  0  0  3  0  0  0  0  0  0
  188.0210  177.7870  144.1160 N   0  0  0  0  0  2  0  0  0  0  0  0
  184.0060  177.7440  141.8750 C   0  0  0  0  0  2  0  0  0  0  0  0
  184.0900  179.2130  144.8570 O   0  0  0  0  0  1  0  0  0  0  0  0
  189.4610  177.1280  146.9010 C   0  0  0  0  0  1  0  0  0  0  0  0
  185.8250  178.6390  143.3120 C   0  0  0  0  0  0  0  0  0  0  0  0
  187.5100  177.9090  145.4360 C   0  0  0  0  0  0  0  0  0  0  0  0
  182.3430  177.9750  136.1320 N   0  0  0  0  0  2  0  0  0  0  0  0
  181.1290  178.7080  135.9600 C   0  0  0  0  0  0  0  0  0  0  0  0
  180.4170  179.0170  136.9520 O   0  0  0  0  0  0  0  0  0  0  0  0
  180.6980  179.1050  134.5940 C   0  0  0  0  0  1  0  0  0  0  0  0
  1 16  1  0  0  0  0
  2 24  1  6  0  0  0
  2 27  1  0  0  0  0
  3 11  1  0  0  0  0
  3  4  1  0  0  0  0
  4 21  1  0  0  0  0
  5 25  1  0  0  0  0
  5  6  1  0  0  0  0
  6 18  1  0  0  0  0
  7 19  1  6  0  0  0
  7 24  1  0  0  0  0
  9 26  1  0  0  0  0
  9 15  2  0  0  0  0
 12  8  1  6  0  0  0
 12  2  1  0  0  0  0
 13 11  1  6  0  0  0
 13 12  1  0  0  0  0
 13 22  1  0  0  0  0
 14 27  1  0  0  0  0
 14 23  1  0  0  0  0
 16 19  1  0  0  0  0
 17 10  1  6  0  0  0
 17  8  1  0  0  0  0
 17  7  1  0  0  0  0
 18 15  1  0  0  0  0
 20 29  1  6  0  0  0
 20  1  1  0  0  0  0
 20 10  1  0  0  0  0
 22 21  1  6  0  0  0
 22 14  1  0  0  0  0
 23 28  1  0  0  0  0
 27  5  2  0  0  0  0
 28  6  2  0  0  0  0
 28  9  1  0  0  0  0
 30 29  1  0  0  0  0
 30 31  2  0  0  0  0
 32 30  1  0  0  0  0
M  END
>  <MODEL>
4

>  <REMARK>
 VINA RESULT:      -7.6      4.995      8.316
  Name = 
  1 active torsions:
  status: ('A' for Active; 'I' for Inactive)
    1  A    between atoms: C_20  and  N_29
                            x       y       z     vdW  Elec       q    Type
                         _______ _______ _______ _____ _____    ______ ____

>  <TORSDO>
F 1

$$$$
=
 OpenBabel11122410383D

 32 37  0  0  1  0  0  0  0  0999 V2000
  187.7160  174.7530  136.5600 C   0  0  0  0  0  2  0  0  0  0  0  0
  184.2540  178.6170  138.7580 C   0  0  1  0  0  3  0  0  0  0  0  0
  187.5040  177.8200  142.3520 C   0  0  0  0  0  2  0  0  0  0  0  0
  186.4750  178.1680  143.4280 C   0  0  0  0  0  2  0  0  0  0  0  0
  181.8740  178.9650  139.3350 C   0  0  0  0  0  0  0  0  0  0  0  0
  180.8110  179.0700  140.3350 C   0  0  0  0  0  0  0  0  0  0  0  0
  185.3880  176.9740  137.2570 C   0  0  1  0  0  3  0  0  0  0  0  0
  186.6130  178.8760  138.3040 C   0  0  0  0  0  2  0  0  0  0  0  0
  179.9010  179.1330  142.3260 C   0  0  0  0  0  0  0  0  0  0  0  0
  187.8730  177.2540  136.8790 C   0  0  0  0  0  2  0  0  0  0  0  0
  187.2530  178.6380  141.0880 C   0  0  0  0  0  2  0  0  0  0  0  0
  185.5490  179.0700  139.3070 N   0  0  2  0  0  0  0  0  0  0  0  0
  185.8370  178.3590  140.5670 C   0  0  2  0  0  3  0  0  0  0  0  0
  183.4500  178.7180  141.1840 N   0  0  0  0  0  0  0  0  0  0  0  0
  178.9310  179.2790  141.3400 C   0  0  0  0  0  3  0  0  0  0  0  0
  186.3900  174.6000  137.2950 C   0  0  0  0  0  2  0  0  0  0  0  0
  186.7240  177.4190  137.8590 C   0  0  2  0  0  3  0  0  0  0  0  0
  179.5220  179.2350  140.1530 O   0  0  0  0  0  0  0  0  0  0  0  0
  185.3550  175.5460  136.6940 C   0  0  0  0  0  2  0  0  0  0  0  0
  188.5490  175.9100  137.1120 C   0  0  2  0  0  3  0  0  0  0  0  0
  185.0560  177.9520  142.9050 C   0  0  0  0  0  2  0  0  0  0  0  0
  184.8390  178.7950  141.6490 C   0  0  1  0  0  3  0  0  0  0  0  0
  182.4130  178.8370  142.1370 N   0  0  0  0  0  2  0  0  0  0  0  0
  184.2920  177.1530  138.2930 C   0  0  0  0  0  2  0  0  0  0  0  0
  181.5630  179.0270  137.9790 O   0  0  0  0  0  1  0  0  0  0  0  0
  179.6890  179.1290  143.7970 C   0  0  0  0  0  1  0  0  0  0  0  0
  183.1470  178.8010  139.7590 C   0  0  0  0  0  0  0  0  0  0  0  0
  181.0860  178.9980  141.6550 C   0  0  0  0  0  0  0  0  0  0  0  0
  189.8560  175.9180  136.4730 N   0  0  0  0  0  2  0  0  0  0  0  0
  191.0390  175.4610  137.1320 C   0  0  0  0  0  0  0  0  0  0  0  0
  190.9940  175.0480  138.3210 O   0  0  0  0  0  0  0  0  0  0  0  0
  192.3360  175.4780  136.4070 C   0  0  0  0  0  1  0  0  0  0  0  0
  1 20  1  0  0  0  0
  1 16  1  0  0  0  0
  2 24  1  1  0  0  0
  2 12  1  0  0  0  0
  2 27  1  0  0  0  0
  3  4  1  0  0  0  0
  5 27  2  0  0  0  0
  5  6  1  0  0  0  0
  6 28  2  0  0  0  0
  7 19  1  1  0  0  0
  7 17  1  0  0  0  0
  7 24  1  0  0  0  0
  9 26  1  0  0  0  0
 10 20  1  0  0  0  0
 11  3  1  0  0  0  0
 12  8  1  6  0  0  0
 12 13  1  0  0  0  0
 13 11  1  1  0  0  0
 13 22  1  0  0  0  0
 14 22  1  0  0  0  0
 14 23  1  0  0  0  0
 15  9  2  0  0  0  0
 17 10  1  6  0  0  0
 17  8  1  0  0  0  0
 18  6  1  0  0  0  0
 18 15  1  0  0  0  0
 19 16  1  0  0  0  0
 20 29  1  6  0  0  0
 21  4  1  0  0  0  0
 22 21  1  1  0  0  0
 25  5  1  0  0  0  0
 27 14  1  0  0  0  0
 28 23  1  0  0  0  0
 28  9  1  0  0  0  0
 29 30  1  0  0  0  0
 30 31  2  0  0  0  0
 32 30  1  0  0  0  0
M  END
>  <MODEL>
5

>  <REMARK>
 VINA RESULT:      -7.0      2.776      9.858
  Name = 
  1 active torsions:
  status: ('A' for Active; 'I' for Inactive)
    1  A    between atoms: C_20  and  N_29
                            x       y       z     vdW  Elec       q    Type
                         _______ _______ _______ _____ _____    ______ ____

>  <TORSDO>
F 1

$$$$
=
 OpenBabel11122410383D

 32 37  0  0  1  0  0  0  0  0999 V2000
  180.1320  177.1800  138.4800 C   0  0  0  0  0  2  0  0  0  0  0  0
  184.7750  178.9640  141.1270 C   0  0  1  0  0  3  0  0  0  0  0  0
  186.4040  177.7570  136.6530 C   0  0  0  0  0  2  0  0  0  0  0  0
  187.7920  177.4170  137.1960 C   0  0  0  0  0  2  0  0  0  0  0  0
  186.1790  178.4640  143.1010 C   0  0  0  0  0  0  0  0  0  0  0  0
  187.4090  177.9240  143.6810 C   0  0  0  0  0  0  0  0  0  0  0  0
  182.4330  178.3270  140.5350 C   0  0  1  0  0  3  0  0  0  0  0  0
  183.7440  179.9580  139.1800 C   0  0  0  0  0  2  0  0  0  0  0  0
  189.4040  177.0240  143.7240 C   0  0  0  0  0  0  0  0  0  0  0  0
  181.4350  179.3430  138.4450 C   0  0  0  0  0  2  0  0  0  0  0  0
  185.7760  178.8890  137.4640 C   0  0  0  0  0  2  0  0  0  0  0  0
  185.0150  179.4960  139.7690 N   0  0  2  0  0  0  0  0  0  0  0  0
  185.6740  178.4720  138.9370 C   0  0  2  0  0  3  0  0  0  0  0  0
  187.1190  177.9650  140.9020 N   0  0  0  0  0  0  0  0  0  0  0  0
  188.9520  177.2700  145.0160 C   0  0  0  0  0  3  0  0  0  0  0  0
  181.1120  176.4390  139.3820 C   0  0  0  0  0  2  0  0  0  0  0  0
  182.7020  178.8420  139.1180 C   0  0  2  0  0  3  0  0  0  0  0  0
  187.7440  177.8130  144.9450 O   0  0  0  0  0  0  0  0  0  0  0  0
  181.3510  177.2450  140.6540 C   0  0  0  0  0  2  0  0  0  0  0  0
  180.8290  178.2240  137.6090 C   0  0  2  0  0  3  0  0  0  0  0  0
  187.7160  177.0560  138.6780 C   0  0  0  0  0  2  0  0  0  0  0  0
  187.0950  178.2160  139.4580 C   0  0  1  0  0  3  0  0  0  0  0  0
  188.3070  177.4620  141.4790 N   0  0  0  0  0  2  0  0  0  0  0  0
  183.7360  177.8320  141.1380 C   0  0  0  0  0  2  0  0  0  0  0  0
  185.1660  178.9360  143.9300 O   0  0  0  0  0  1  0  0  0  0  0  0
  190.7090  176.4290  143.3300 C   0  0  0  0  0  1  0  0  0  0  0  0
  186.0540  178.4830  141.7540 C   0  0  0  0  0  0  0  0  0  0  0  0
  188.4000  177.4480  142.8980 C   0  0  0  0  0  0  0  0  0  0  0  0
  179.8740  178.7960  136.6720 N   0  0  0  0  0  2  0  0  0  0  0  0
  180.2750  179.5380  135.5190 C   0  0  0  0  0  0  0  0  0  0  0  0
  181.4950  179.7490  135.2810 O   0  0  0  0  0  0  0  0  0  0  0  0
  179.2430  180.0730  134.5940 C   0  0  0  0  0  1  0  0  0  0  0  0
  1 16  1  0  0  0  0
  2 24  1  6  0  0  0
  2 27  1  0  0  0  0
  3  4  1  0  0  0  0
  3 11  1  0  0  0  0
  4 21  1  0  0  0  0
  5  6  1  0  0  0  0
  5 25  1  0  0  0  0
  6 18  1  0  0  0  0
  7 19  1  6  0  0  0
  7 24  1  0  0  0  0
  9 15  2  0  0  0  0
 12  8  1  6  0  0  0
 12  2  1  0  0  0  0
 13 11  1  6  0  0  0
 13 22  1  0  0  0  0
 13 12  1  0  0  0  0
 14 23  1  0  0  0  0
 14 27  1  0  0  0  0
 16 19  1  0  0  0  0
 17 10  1  1  0  0  0
 17  8  1  0  0  0  0
 17  7  1  0  0  0  0
 18 15  1  0  0  0  0
 20 29  1  6  0  0  0
 20 10  1  0  0  0  0
 20  1  1  0  0  0  0
 22 21  1  6  0  0  0
 22 14  1  0  0  0  0
 23 28  1  0  0  0  0
 26  9  1  0  0  0  0
 27  5  2  0  0  0  0
 28  6  2  0  0  0  0
 28  9  1  0  0  0  0
 30 29  1  0  0  0  0
 31 30  2  0  0  0  0
 32 30  1  0  0  0  0
M  END
>  <MODEL>
6

>  <REMARK>
 VINA RESULT:      -6.5      4.505      7.488
  Name = 
  1 active torsions:
  status: ('A' for Active; 'I' for Inactive)
    1  A    between atoms: C_20  and  N_29
                            x       y       z     vdW  Elec       q    Type
                         _______ _______ _______ _____ _____    ______ ____

>  <TORSDO>
F 1

$$$$
=
 OpenBabel11122410383D

 32 37  0  0  1  0  0  0  0  0999 V2000
  190.3490  176.1190  144.6960 C   0  0  0  0  0  2  0  0  0  0  0  0
  188.2770  178.4810  140.0190 C   0  0  1  0  0  3  0  0  0  0  0  0
  184.4360  178.4470  143.0800 C   0  0  0  0  0  2  0  0  0  0  0  0
  183.4470  178.3570  141.9180 C   0  0  0  0  0  2  0  0  0  0  0  0
  187.9150  178.0040  137.6190 C   0  0  0  0  0  0  0  0  0  0  0  0
  187.0180  177.6800  136.5090 C   0  0  0  0  0  0  0  0  0  0  0  0
  189.7540  177.4180  141.7310 C   0  0  1  0  0  3  0  0  0  0  0  0
  188.4830  179.5120  142.1950 C   0  0  0  0  0  2  0  0  0  0  0  0
  185.1260  177.2790  135.4850 C   0  0  0  0  0  0  0  0  0  0  0  0
  189.8710  178.5030  144.0130 C   0  0  0  0  0  2  0  0  0  0  0  0
  185.6690  179.2500  142.6720 C   0  0  0  0  0  2  0  0  0  0  0  0
  187.5790  179.2710  141.0550 N   0  0  2  0  0  0  0  0  0  0  0  0
  186.3410  178.5820  141.4640 C   0  0  2  0  0  3  0  0  0  0  0  0
  185.9390  178.1110  139.0500 N   0  0  0  0  0  0  0  0  0  0  0  0
  186.1910  177.1950  134.5940 C   0  0  0  0  0  3  0  0  0  0  0  0
  189.7570  175.4900  143.4410 C   0  0  0  0  0  2  0  0  0  0  0  0
  188.9990  178.2090  142.8040 C   0  0  2  0  0  3  0  0  0  0  0  0
  187.3150  177.4430  135.2530 O   0  0  0  0  0  0  0  0  0  0  0  0
  190.3990  176.1080  142.2030 C   0  0  0  0  0  2  0  0  0  0  0  0
  189.6530  177.4270  145.0680 C   0  0  2  0  0  3  0  0  0  0  0  0
  184.1170  177.7480  140.6870 C   0  0  0  0  0  2  0  0  0  0  0  0
  185.3380  178.5840  140.3020 C   0  0  1  0  0  3  0  0  0  0  0  0
  185.0860  177.8130  137.9640 N   0  0  0  0  0  2  0  0  0  0  0  0
  188.8200  177.1500  140.5640 C   0  0  0  0  0  2  0  0  0  0  0  0
  189.2880  178.0820  137.4060 O   0  0  0  0  0  1  0  0  0  0  0  0
  183.6840  177.0810  135.1780 C   0  0  0  0  0  1  0  0  0  0  0  0
  187.3790  178.2170  138.8430 C   0  0  0  0  0  0  0  0  0  0  0  0
  185.6850  177.5860  136.6950 C   0  0  0  0  0  0  0  0  0  0  0  0
  190.1600  177.9050  146.3460 N   0  0  0  0  0  2  0  0  0  0  0  0
  189.4250  177.7740  147.5640 C   0  0  0  0  0  0  0  0  0  0  0  0
  188.2790  177.2500  147.5710 O   0  0  0  0  0  0  0  0  0  0  0  0
  190.0170  178.2650  148.8350 C   0  0  0  0  0  1  0  0  0  0  0  0
  1 20  1  0  0  0  0
  2 24  1  1  0  0  0
  2 12  1  0  0  0  0
  4  3  1  0  0  0  0
  5 27  2  0  0  0  0
  6 28  2  0  0  0  0
  6  5  1  0  0  0  0
  7 24  1  6  0  0  0
  7 19  1  0  0  0  0
  7 17  1  0  0  0  0
  9 28  1  0  0  0  0
 10 20  1  0  0  0  0
 11  3  1  0  0  0  0
 12 13  1  0  0  0  0
 12  8  1  1  0  0  0
 13 11  1  1  0  0  0
 14 22  1  0  0  0  0
 15 18  1  0  0  0  0
 15  9  2  0  0  0  0
 16  1  1  0  0  0  0
 17  8  1  6  0  0  0
 17 10  1  0  0  0  0
 18  6  1  0  0  0  0
 19 16  1  0  0  0  0
 20 29  1  1  0  0  0
 21  4  1  0  0  0  0
 22 21  1  1  0  0  0
 22 13  1  0  0  0  0
 23 14  1  0  0  0  0
 25  5  1  0  0  0  0
 26  9  1  0  0  0  0
 27 14  1  0  0  0  0
 27  2  1  0  0  0  0
 28 23  1  0  0  0  0
 29 30  1  0  0  0  0
 30 31  2  0  0  0  0
 30 32  1  0  0  0  0
M  END
>  <MODEL>
7

>  <REMARK>
 VINA RESULT:      -6.2      4.206      6.050
  Name = 
  1 active torsions:
  status: ('A' for Active; 'I' for Inactive)
    1  A    between atoms: C_20  and  N_29
                            x       y       z     vdW  Elec       q    Type
                         _______ _______ _______ _____ _____    ______ ____

>  <TORSDO>
F 1

$$$$
