=
 OpenBabel11122411233D

 37 43  0  0  1  0  0  0  0  0999 V2000
  186.8840  177.5330  139.1270 C   0  0  0  0  0  2  0  0  0  0  0  0
  182.7930  176.3730  136.3650 C   0  0  0  0  0  0  0  0  0  0  0  0
  186.3890  174.2370  136.7030 C   0  0  0  0  0  0  0  0  0  0  0  0
  187.5170  178.6660  139.9350 C   0  0  2  0  0  3  0  0  0  0  0  0
  189.1880  176.2700  135.8760 O   0  0  0  0  0  0  0  0  0  0  0  0
  184.0560  174.1640  136.1240 C   0  0  0  0  0  0  0  0  0  0  0  0
  187.3670  175.2810  137.1650 C   0  0  1  0  0  3  0  0  0  0  0  0
  189.7190  177.6640  138.9460 C   0  0  2  0  0  3  0  0  0  0  0  0
  185.1790  174.8480  136.5590 C   0  0  0  0  0  0  0  0  0  0  0  0
  188.8360  175.2020  136.7120 C   0  0  1  0  0  3  0  0  0  0  0  0
  184.1710  172.8320  135.8620 N   0  0  0  0  0  0  0  0  0  0  0  0
  189.0560  178.6500  139.9230 C   0  0  0  0  0  2  0  0  0  0  0  0
  185.2280  176.2450  136.7240 N   0  0  0  0  0  0  0  0  0  0  0  0
  182.4160  176.3340  137.8360 C   0  0  0  0  0  1  0  0  0  0  0  0
  187.8400  172.1470  136.3820 C   0  0  0  0  0  2  0  0  0  0  0  0
  185.3640  172.1750  136.0080 C   0  0  0  0  0  3  0  0  0  0  0  0
  184.1540  177.0810  136.1960 C   0  0  0  0  0  2  0  0  0  0  0  0
  189.5100  177.9950  137.5240 N   0  0  1  0  0  0  0  0  0  0  0  0
  190.1270  177.0210  136.6060 C   0  0  0  0  0  2  0  0  0  0  0  0
  186.5190  172.8620  136.4350 C   0  0  0  0  0  0  0  0  0  0  0  0
  186.6440  176.5880  136.7560 C   0  0  1  0  0  3  0  0  0  0  0  0
  182.8050  174.9330  135.7950 C   0  0  0  0  0  2  0  0  0  0  0  0
  189.2760  173.8410  136.1690 C   0  0  2  0  0  3  0  0  0  0  0  0
  181.7410  177.1720  135.6270 C   0  0  0  0  0  1  0  0  0  0  0  0
  188.2060  178.5490  137.1130 C   0  0  0  0  0  2  0  0  0  0  0  0
  189.3950  176.3520  139.2470 F   0  0  0  0  0  0  0  0  0  0  0  0
  186.9570  177.8020  137.6220 C   0  0  2  0  0  3  0  0  0  0  0  0
  188.8530  172.8400  137.0540 O   0  0  0  0  0  0  0  0  0  0  0  0
  191.3340  173.5770  134.7320 C   0  0  0  0  0  3  0  0  0  0  0  0
  190.7620  173.7800  135.9970 C   0  0  0  0  0  0  0  0  0  0  0  0
  191.5870  173.9000  137.1200 C   0  0  0  0  0  3  0  0  0  0  0  0
  193.7720  173.9460  138.0700 F   0  0  0  0  0  0  0  0  0  0  0  0
  193.5450  173.6280  135.7200 C   0  0  0  0  0  3  0  0  0  0  0  0
  192.9770  173.8260  136.9810 C   0  0  0  0  0  0  0  0  0  0  0  0
  192.7230  173.5020  134.5950 C   0  0  0  0  0  3  0  0  0  0  0  0
  185.8080  179.3810  141.5150 N   0  0  0  0  0  1  0  0  0  0  0  0
  187.0330  178.6160  141.3730 C   0  0  0  0  0  2  0  0  0  0  0  0
  1  4  1  0  0  0  0
  2 14  1  0  0  0  0
  4 37  1  1  0  0  0
  5 19  1  0  0  0  0
  6  9  2  0  0  0  0
  7  3  1  6  0  0  0
  8 26  1  6  0  0  0
  8 12  1  0  0  0  0
  9  3  1  0  0  0  0
  9 13  1  0  0  0  0
 10  5  1  6  0  0  0
 10  7  1  0  0  0  0
 11 16  2  0  0  0  0
 11  6  1  0  0  0  0
 12  4  1  0  0  0  0
 15 20  1  0  0  0  0
 15 28  1  0  0  0  0
 16 20  1  0  0  0  0
 17  2  1  0  0  0  0
 17 13  1  0  0  0  0
 18 19  1  6  0  0  0
 18  8  1  0  0  0  0
 20  3  2  0  0  0  0
 21 13  1  1  0  0  0
 21  7  1  0  0  0  0
 21 27  1  0  0  0  0
 22  6  1  0  0  0  0
 22  2  1  0  0  0  0
 23 30  1  1  0  0  0
 23 10  1  0  0  0  0
 23 28  1  0  0  0  0
 24  2  1  0  0  0  0
 25 18  1  0  0  0  0
 27 25  1  1  0  0  0
 27  1  1  0  0  0  0
 29 30  1  0  0  0  0
 30 31  2  0  0  0  0
 33 34  2  0  0  0  0
 34 31  1  0  0  0  0
 34 32  1  0  0  0  0
 35 29  2  0  0  0  0
 35 33  1  0  0  0  0
 37 36  1  0  0  0  0
M  END
>  <MODEL>
1

>  <REMARK>
 VINA RESULT:      -5.9      0.000      0.000
  Name = 
  2 active torsions:
  status: ('A' for Active; 'I' for Inactive)
    1  A    between atoms: C_4  and  C_37
    2  A    between atoms: C_23  and  C_30
                            x       y       z     vdW  Elec       q    Type
                         _______ _______ _______ _____ _____    ______ ____

>  <TORSDO>
F 2

$$$$
=
 OpenBabel11122411233D

 37 43  0  0  1  0  0  0  0  0999 V2000
  184.1230  174.8550  136.4060 C   0  0  0  0  0  2  0  0  0  0  0  0
  188.6190  177.1360  135.8630 C   0  0  0  0  0  0  0  0  0  0  0  0
  185.6810  177.8480  138.7730 C   0  0  0  0  0  0  0  0  0  0  0  0
  183.1450  173.9220  135.6910 C   0  0  2  0  0  3  0  0  0  0  0  0
  182.5440  178.6240  137.2860 O   0  0  0  0  0  0  0  0  0  0  0  0
  187.9970  178.0580  138.1640 C   0  0  0  0  0  0  0  0  0  0  0  0
  184.4260  177.3220  138.1310 C   0  0  1  0  0  3  0  0  0  0  0  0
  181.3800  175.4410  136.8800 C   0  0  2  0  0  3  0  0  0  0  0  0
  186.7000  177.6620  137.8870 C   0  0  0  0  0  0  0  0  0  0  0  0
  183.0780  178.0040  138.4230 C   0  0  1  0  0  3  0  0  0  0  0  0
  188.2560  178.6270  139.3750 N   0  0  0  0  0  0  0  0  0  0  0  0
  181.6710  174.1770  136.0530 C   0  0  0  0  0  2  0  0  0  0  0  0
  186.2770  177.1970  136.6270 N   0  0  0  0  0  0  0  0  0  0  0  0
  188.8510  175.6700  136.1890 C   0  0  0  0  0  1  0  0  0  0  0  0
  184.8550  178.8500  140.9850 C   0  0  0  0  0  2  0  0  0  0  0  0
  187.2640  178.8190  140.3000 C   0  0  0  0  0  3  0  0  0  0  0  0
  187.1440  177.3510  135.4630 C   0  0  0  0  0  2  0  0  0  0  0  0
  181.6320  176.7020  136.1590 N   0  0  1  0  0  0  0  0  0  0  0  0
  181.3780  177.8990  136.9800 C   0  0  0  0  0  2  0  0  0  0  0  0
  185.9370  178.4340  140.0260 C   0  0  0  0  0  0  0  0  0  0  0  0
  184.8240  177.3110  136.6340 C   0  0  1  0  0  3  0  0  0  0  0  0
  189.0330  178.0080  137.0730 C   0  0  0  0  0  2  0  0  0  0  0  0
  183.0590  178.8990  139.6640 C   0  0  2  0  0  3  0  0  0  0  0  0
  189.4950  177.5030  134.6840 C   0  0  0  0  0  1  0  0  0  0  0  0
  182.7820  176.7710  135.2370 C   0  0  0  0  0  2  0  0  0  0  0  0
  182.0020  175.3940  138.1170 F   0  0  0  0  0  0  0  0  0  0  0  0
  184.1270  176.2540  135.7850 C   0  0  2  0  0  3  0  0  0  0  0  0
  183.6380  178.2060  140.7340 O   0  0  0  0  0  0  0  0  0  0  0  0
  180.8170  178.4550  140.7370 C   0  0  0  0  0  3  0  0  0  0  0  0
  181.6620  179.3100  140.0140 C   0  0  0  0  0  0  0  0  0  0  0  0
  181.1880  180.5570  139.5900 C   0  0  0  0  0  3  0  0  0  0  0  0
  179.4270  182.1580  139.4810 F   0  0  0  0  0  0  0  0  0  0  0  0
  179.0420  180.0970  140.6140 C   0  0  0  0  0  3  0  0  0  0  0  0
  179.8810  180.9500  139.8910 C   0  0  0  0  0  0  0  0  0  0  0  0
  179.5110  178.8490  141.0360 C   0  0  0  0  0  3  0  0  0  0  0  0
  184.2640  172.3920  137.2190 N   0  0  0  0  0  1  0  0  0  0  0  0
  183.4860  172.4750  135.9960 C   0  0  0  0  0  2  0  0  0  0  0  0
  2 14  1  0  0  0  0
  2 22  1  0  0  0  0
  3 20  1  0  0  0  0
  4 37  1  1  0  0  0
  4 12  1  0  0  0  0
  4  1  1  0  0  0  0
  6 11  2  0  0  0  0
  7 10  1  0  0  0  0
  7  3  1  1  0  0  0
  8 26  1  1  0  0  0
  9  6  1  0  0  0  0
  9  3  2  0  0  0  0
 10  5  1  6  0  0  0
 10 23  1  0  0  0  0
 11 16  1  0  0  0  0
 12  8  1  0  0  0  0
 13  9  1  0  0  0  0
 17  2  1  0  0  0  0
 17 13  1  0  0  0  0
 18 25  1  1  0  0  0
 18  8  1  0  0  0  0
 18 19  1  0  0  0  0
 19  5  1  0  0  0  0
 20 16  2  0  0  0  0
 20 15  1  0  0  0  0
 21 13  1  1  0  0  0
 21  7  1  0  0  0  0
 22  6  1  0  0  0  0
 23 30  1  1  0  0  0
 23 28  1  0  0  0  0
 24  2  1  0  0  0  0
 27 25  1  1  0  0  0
 27  1  1  0  0  0  0
 27 21  1  0  0  0  0
 28 15  1  0  0  0  0
 29 35  1  0  0  0  0
 30 29  2  0  0  0  0
 31 34  2  0  0  0  0
 31 30  1  0  0  0  0
 32 34  1  0  0  0  0
 33 35  2  0  0  0  0
 34 33  1  0  0  0  0
 37 36  1  0  0  0  0
M  END
>  <MODEL>
2

>  <REMARK>
 VINA RESULT:      -5.7      3.748      8.865
  Name = 
  2 active torsions:
  status: ('A' for Active; 'I' for Inactive)
    1  A    between atoms: C_4  and  C_37
    2  A    between atoms: C_23  and  C_30
                            x       y       z     vdW  Elec       q    Type
                         _______ _______ _______ _____ _____    ______ ____

>  <TORSDO>
F 2

$$$$
=
 OpenBabel11122411233D

 37 43  0  0  1  0  0  0  0  0999 V2000
  185.0740  174.1640  136.6990 C   0  0  0  0  0  2  0  0  0  0  0  0
  189.7440  175.9750  135.9100 C   0  0  0  0  0  0  0  0  0  0  0  0
  186.8000  177.4330  138.5220 C   0  0  0  0  0  0  0  0  0  0  0  0
  184.0440  173.1850  136.1340 C   0  0  2  0  0  3  0  0  0  0  0  0
  183.7690  178.1340  136.7980 O   0  0  0  0  0  0  0  0  0  0  0  0
  189.1400  177.3590  137.9730 C   0  0  0  0  0  0  0  0  0  0  0  0
  185.5250  176.8860  137.9420 C   0  0  1  0  0  3  0  0  0  0  0  0
  182.3740  175.0230  136.9510 C   0  0  2  0  0  3  0  0  0  0  0  0
  187.8240  177.0100  137.7260 C   0  0  0  0  0  0  0  0  0  0  0  0
  184.2270  177.7050  138.0500 C   0  0  1  0  0  3  0  0  0  0  0  0
  189.4130  178.1260  139.0660 N   0  0  0  0  0  0  0  0  0  0  0  0
  182.5860  173.6080  136.3860 C   0  0  0  0  0  2  0  0  0  0  0  0
  187.3960  176.3470  136.5600 N   0  0  0  0  0  0  0  0  0  0  0  0
  189.8540  174.5850  136.5140 C   0  0  0  0  0  1  0  0  0  0  0  0
  186.0020  178.8920  140.4740 C   0  0  0  0  0  2  0  0  0  0  0  0
  188.4170  178.5600  139.9000 C   0  0  0  0  0  3  0  0  0  0  0  0
  188.3000  176.2150  135.4210 C   0  0  0  0  0  2  0  0  0  0  0  0
  182.7390  176.1040  136.0160 N   0  0  1  0  0  0  0  0  0  0  0  0
  182.5580  177.4500  136.5890 C   0  0  0  0  0  2  0  0  0  0  0  0
  187.0710  178.2260  139.6530 C   0  0  0  0  0  0  0  0  0  0  0  0
  185.9560  176.5630  136.4900 C   0  0  1  0  0  3  0  0  0  0  0  0
  190.1950  177.0290  136.9510 C   0  0  0  0  0  2  0  0  0  0  0  0
  184.2460  178.8170  139.1000 C   0  0  2  0  0  3  0  0  0  0  0  0
  190.6730  176.0490  134.7180 C   0  0  0  0  0  1  0  0  0  0  0  0
  183.9130  175.9150  135.1420 C   0  0  0  0  0  2  0  0  0  0  0  0
  182.9600  175.1670  138.1970 F   0  0  0  0  0  0  0  0  0  0  0  0
  185.2010  175.4170  135.8280 C   0  0  2  0  0  3  0  0  0  0  0  0
  184.7450  178.3000  140.3030 O   0  0  0  0  0  0  0  0  0  0  0  0
  182.4700  180.5550  138.6560 C   0  0  0  0  0  3  0  0  0  0  0  0
  182.8780  179.3860  139.3140 C   0  0  0  0  0  0  0  0  0  0  0  0
  182.0050  178.7530  140.2060 C   0  0  0  0  0  3  0  0  0  0  0  0
  179.8880  178.6620  141.2960 F   0  0  0  0  0  0  0  0  0  0  0  0
  180.3250  180.4430  139.7740 C   0  0  0  0  0  3  0  0  0  0  0  0
  180.7300  179.2790  140.4340 C   0  0  0  0  0  0  0  0  0  0  0  0
  181.1960  181.0810  138.8850 C   0  0  0  0  0  3  0  0  0  0  0  0
  182.9930  171.1200  136.8810 N   0  0  0  0  0  1  0  0  0  0  0  0
  184.2650  171.8020  136.7170 C   0  0  0  0  0  2  0  0  0  0  0  0
  2 14  1  0  0  0  0
  2 22  1  0  0  0  0
  3 20  1  0  0  0  0
  4 12  1  0  0  0  0
  4  1  1  0  0  0  0
  4 37  1  1  0  0  0
  6 11  2  0  0  0  0
  7 10  1  0  0  0  0
  7  3  1  6  0  0  0
  8 26  1  1  0  0  0
  9  6  1  0  0  0  0
  9  3  2  0  0  0  0
 10  5  1  6  0  0  0
 10 23  1  0  0  0  0
 11 16  1  0  0  0  0
 12  8  1  0  0  0  0
 13  9  1  0  0  0  0
 17  2  1  0  0  0  0
 17 13  1  0  0  0  0
 18 25  1  1  0  0  0
 18 19  1  0  0  0  0
 18  8  1  0  0  0  0
 19  5  1  0  0  0  0
 20 16  2  0  0  0  0
 20 15  1  0  0  0  0
 21 13  1  1  0  0  0
 21  7  1  0  0  0  0
 22  6  1  0  0  0  0
 23 30  1  1  0  0  0
 23 28  1  0  0  0  0
 24  2  1  0  0  0  0
 27 25  1  1  0  0  0
 27 21  1  0  0  0  0
 27  1  1  0  0  0  0
 28 15  1  0  0  0  0
 29 35  2  0  0  0  0
 29 30  1  0  0  0  0
 30 31  2  0  0  0  0
 31 34  1  0  0  0  0
 33 34  2  0  0  0  0
 34 32  1  0  0  0  0
 35 33  1  0  0  0  0
 37 36  1  0  0  0  0
M  END
>  <MODEL>
3

>  <REMARK>
 VINA RESULT:      -5.7      3.265      8.363
  Name = 
  2 active torsions:
  status: ('A' for Active; 'I' for Inactive)
    1  A    between atoms: C_4  and  C_37
    2  A    between atoms: C_23  and  C_30
                            x       y       z     vdW  Elec       q    Type
                         _______ _______ _______ _____ _____    ______ ____

>  <TORSDO>
F 2

$$$$
=
 OpenBabel11122411233D

 37 43  0  0  1  0  0  0  0  0999 V2000
  187.6760  177.3210  139.9180 C   0  0  0  0  0  2  0  0  0  0  0  0
  183.5280  176.9090  137.0310 C   0  0  0  0  0  0  0  0  0  0  0  0
  187.0070  174.5650  136.9280 C   0  0  0  0  0  0  0  0  0  0  0  0
  188.3680  178.2500  140.9170 C   0  0  2  0  0  3  0  0  0  0  0  0
  189.9080  176.5700  136.4650 O   0  0  0  0  0  0  0  0  0  0  0  0
  184.6730  174.7220  136.3700 C   0  0  0  0  0  0  0  0  0  0  0  0
  188.0390  175.4540  137.5660 C   0  0  1  0  0  3  0  0  0  0  0  0
  190.5140  177.3380  139.7350 C   0  0  2  0  0  3  0  0  0  0  0  0
  185.8300  175.2540  136.9130 C   0  0  0  0  0  0  0  0  0  0  0  0
  189.5010  175.3850  137.0900 C   0  0  1  0  0  3  0  0  0  0  0  0
  184.7170  173.4580  135.8630 N   0  0  0  0  0  0  0  0  0  0  0  0
  189.9040  178.1570  140.8860 C   0  0  0  0  0  2  0  0  0  0  0  0
  185.9530  176.5910  137.3350 N   0  0  0  0  0  0  0  0  0  0  0  0
  183.1510  176.6160  138.4740 C   0  0  0  0  0  1  0  0  0  0  0  0
  188.3460  172.5000  136.2080 C   0  0  0  0  0  2  0  0  0  0  0  0
  185.8750  172.7250  135.8720 C   0  0  0  0  0  3  0  0  0  0  0  0
  184.9240  177.5650  136.9840 C   0  0  0  0  0  2  0  0  0  0  0  0
  190.3220  177.9390  138.4020 N   0  0  1  0  0  0  0  0  0  0  0  0
  190.8860  177.1220  137.3120 C   0  0  0  0  0  2  0  0  0  0  0  0
  187.0640  173.2590  136.4070 C   0  0  0  0  0  0  0  0  0  0  0  0
  187.3850  176.8490  137.4150 C   0  0  1  0  0  3  0  0  0  0  0  0
  183.4640  175.6020  136.2040 C   0  0  0  0  0  2  0  0  0  0  0  0
  189.8680  174.1280  136.2990 C   0  0  2  0  0  3  0  0  0  0  0  0
  182.5180  177.8850  136.4670 C   0  0  0  0  0  1  0  0  0  0  0  0
  189.0480  178.6260  138.1150 C   0  0  0  0  0  2  0  0  0  0  0  0
  190.1220  176.0110  139.7900 F   0  0  0  0  0  0  0  0  0  0  0  0
  187.7620  177.8630  138.4890 C   0  0  2  0  0  3  0  0  0  0  0  0
  189.3950  173.0030  136.9870 O   0  0  0  0  0  0  0  0  0  0  0  0
  191.9100  174.0480  134.8170 C   0  0  0  0  0  3  0  0  0  0  0  0
  191.3490  174.0240  136.1020 C   0  0  0  0  0  0  0  0  0  0  0  0
  192.1790  173.8730  137.2190 C   0  0  0  0  0  3  0  0  0  0  0  0
  194.3630  173.6110  138.1370 F   0  0  0  0  0  0  0  0  0  0  0  0
  194.1200  173.7830  135.7720 C   0  0  0  0  0  3  0  0  0  0  0  0
  193.5630  173.7540  137.0540 C   0  0  0  0  0  0  0  0  0  0  0  0
  193.2930  173.9290  134.6540 C   0  0  0  0  0  3  0  0  0  0  0  0
  188.3040  176.6270  142.7310 N   0  0  0  0  0  1  0  0  0  0  0  0
  187.8840  177.9570  142.3250 C   0  0  0  0  0  2  0  0  0  0  0  0
  1  4  1  0  0  0  0
  2 14  1  0  0  0  0
  4 37  1  1  0  0  0
  5 19  1  0  0  0  0
  6  9  2  0  0  0  0
  7  3  1  6  0  0  0
  8 26  1  6  0  0  0
  8 12  1  0  0  0  0
  9  3  1  0  0  0  0
  9 13  1  0  0  0  0
 10  5  1  6  0  0  0
 10  7  1  0  0  0  0
 11 16  2  0  0  0  0
 11  6  1  0  0  0  0
 12  4  1  0  0  0  0
 15 20  1  0  0  0  0
 15 28  1  0  0  0  0
 16 20  1  0  0  0  0
 17  2  1  0  0  0  0
 17 13  1  0  0  0  0
 18 19  1  6  0  0  0
 18  8  1  0  0  0  0
 20  3  2  0  0  0  0
 21 13  1  1  0  0  0
 21  7  1  0  0  0  0
 21 27  1  0  0  0  0
 22  6  1  0  0  0  0
 22  2  1  0  0  0  0
 23 30  1  1  0  0  0
 23 28  1  0  0  0  0
 23 10  1  0  0  0  0
 24  2  1  0  0  0  0
 25 18  1  0  0  0  0
 27 25  1  6  0  0  0
 27  1  1  0  0  0  0
 29 30  1  0  0  0  0
 30 31  2  0  0  0  0
 33 34  2  0  0  0  0
 34 31  1  0  0  0  0
 34 32  1  0  0  0  0
 35 29  2  0  0  0  0
 35 33  1  0  0  0  0
 37 36  1  0  0  0  0
M  END
>  <MODEL>
4

>  <REMARK>
 VINA RESULT:      -5.7      1.142      1.153
  Name = 
  2 active torsions:
  status: ('A' for Active; 'I' for Inactive)
    1  A    between atoms: C_4  and  C_37
    2  A    between atoms: C_23  and  C_30
                            x       y       z     vdW  Elec       q    Type
                         _______ _______ _______ _____ _____    ______ ____

>  <TORSDO>
F 2

$$$$
=
 OpenBabel11122411233D

 37 43  0  0  1  0  0  0  0  0999 V2000
  188.9440  173.4240  136.1390 C   0  0  0  0  0  2  0  0  0  0  0  0
  193.6500  175.2730  135.7520 C   0  0  0  0  0  0  0  0  0  0  0  0
  190.6290  176.3990  138.4380 C   0  0  0  0  0  0  0  0  0  0  0  0
  187.9280  172.5400  135.4140 C   0  0  2  0  0  3  0  0  0  0  0  0
  187.6630  177.3590  136.7270 O   0  0  0  0  0  0  0  0  0  0  0  0
  192.9860  176.3740  137.9620 C   0  0  0  0  0  0  0  0  0  0  0  0
  189.3710  175.9490  137.7500 C   0  0  1  0  0  3  0  0  0  0  0  0
  186.2430  174.2700  136.4150 C   0  0  2  0  0  3  0  0  0  0  0  0
  191.6760  176.0750  137.6270 C   0  0  0  0  0  0  0  0  0  0  0  0
  188.0750  176.7600  137.9240 C   0  0  1  0  0  3  0  0  0  0  0  0
  193.2270  176.9850  139.1550 N   0  0  0  0  0  0  0  0  0  0  0  0
  186.4650  172.9420  135.6720 C   0  0  0  0  0  2  0  0  0  0  0  0
  191.2840  175.5790  136.3690 N   0  0  0  0  0  0  0  0  0  0  0  0
  193.7310  173.8130  136.1680 C   0  0  0  0  0  1  0  0  0  0  0  0
  189.7750  177.5930  140.5420 C   0  0  0  0  0  2  0  0  0  0  0  0
  192.2060  177.3140  140.0080 C   0  0  0  0  0  3  0  0  0  0  0  0
  192.2250  175.5920  135.2530 C   0  0  0  0  0  2  0  0  0  0  0  0
  186.6460  175.4620  135.6460 N   0  0  1  0  0  0  0  0  0  0  0  0
  186.4560  176.7220  136.3880 C   0  0  0  0  0  2  0  0  0  0  0  0
  190.8670  177.0310  139.6740 C   0  0  0  0  0  0  0  0  0  0  0  0
  189.8490  175.8190  136.2820 C   0  0  1  0  0  3  0  0  0  0  0  0
  194.0730  176.1720  136.9390 C   0  0  0  0  0  2  0  0  0  0  0  0
  188.0670  177.7220  139.1140 C   0  0  2  0  0  3  0  0  0  0  0  0
  194.6200  175.4950  134.6120 C   0  0  0  0  0  1  0  0  0  0  0  0
  187.8480  175.3800  134.7930 C   0  0  0  0  0  2  0  0  0  0  0  0
  186.7880  174.2400  137.6880 F   0  0  0  0  0  0  0  0  0  0  0  0
  189.1090  174.7800  135.4480 C   0  0  2  0  0  3  0  0  0  0  0  0
  188.5210  177.0430  140.2520 O   0  0  0  0  0  0  0  0  0  0  0  0
  185.8450  178.5920  138.2890 C   0  0  0  0  0  3  0  0  0  0  0  0
  186.6960  178.2720  139.3580 C   0  0  0  0  0  0  0  0  0  0  0  0
  186.2700  178.4930  140.6720 C   0  0  0  0  0  3  0  0  0  0  0  0
  184.5920  179.2330  142.1930 F   0  0  0  0  0  0  0  0  0  0  0  0
  184.1540  179.3390  139.8530 C   0  0  0  0  0  3  0  0  0  0  0  0
  185.0010  179.0230  140.9200 C   0  0  0  0  0  0  0  0  0  0  0  0
  184.5770  179.1240  138.5370 C   0  0  0  0  0  3  0  0  0  0  0  0
  188.9540  170.4090  134.8380 N   0  0  0  0  0  1  0  0  0  0  0  0
  188.1200  171.0890  135.8130 C   0  0  0  0  0  2  0  0  0  0  0  0
  2 14  1  0  0  0  0
  2 22  1  0  0  0  0
  3 20  1  0  0  0  0
  4 12  1  0  0  0  0
  4 37  1  1  0  0  0
  4  1  1  0  0  0  0
  6 11  2  0  0  0  0
  7 10  1  0  0  0  0
  7  3  1  1  0  0  0
  8 26  1  1  0  0  0
  9  6  1  0  0  0  0
  9  3  2  0  0  0  0
 10  5  1  6  0  0  0
 10 23  1  0  0  0  0
 11 16  1  0  0  0  0
 12  8  1  0  0  0  0
 13  9  1  0  0  0  0
 17  2  1  0  0  0  0
 17 13  1  0  0  0  0
 18 25  1  1  0  0  0
 18 19  1  0  0  0  0
 18  8  1  0  0  0  0
 19  5  1  0  0  0  0
 20 16  2  0  0  0  0
 20 15  1  0  0  0  0
 21 13  1  1  0  0  0
 21  7  1  0  0  0  0
 22  6  1  0  0  0  0
 23 30  1  1  0  0  0
 23 28  1  0  0  0  0
 24  2  1  0  0  0  0
 27 25  1  1  0  0  0
 27  1  1  0  0  0  0
 27 21  1  0  0  0  0
 28 15  1  0  0  0  0
 29 35  2  0  0  0  0
 29 30  1  0  0  0  0
 30 31  2  0  0  0  0
 31 34  1  0  0  0  0
 33 34  2  0  0  0  0
 34 32  1  0  0  0  0
 35 33  1  0  0  0  0
 36 37  1  0  0  0  0
M  END
>  <MODEL>
5

>  <REMARK>
 VINA RESULT:      -5.4      2.751      7.950
  Name = 
  2 active torsions:
  status: ('A' for Active; 'I' for Inactive)
    1  A    between atoms: C_4  and  C_37
    2  A    between atoms: C_23  and  C_30
                            x       y       z     vdW  Elec       q    Type
                         _______ _______ _______ _____ _____    ______ ____

>  <TORSDO>
F 2

$$$$
=
 OpenBabel11122411233D

 37 43  0  0  1  0  0  0  0  0999 V2000
  188.4680  176.2370  138.6310 C   0  0  0  0  0  2  0  0  0  0  0  0
  190.3240  177.8500  143.0660 C   0  0  0  0  0  0  0  0  0  0  0  0
  186.3380  177.8780  141.7540 C   0  0  0  0  0  0  0  0  0  0  0  0
  188.8940  175.7920  137.2310 C   0  0  2  0  0  3  0  0  0  0  0  0
  186.0000  179.6110  138.6670 O   0  0  0  0  0  0  0  0  0  0  0  0
  187.8340  177.9440  143.6360 C   0  0  0  0  0  0  0  0  0  0  0  0
  186.4680  177.8210  140.2570 C   0  0  1  0  0  3  0  0  0  0  0  0
  186.6840  177.0150  136.5580 C   0  0  2  0  0  3  0  0  0  0  0  0
  187.5990  177.8780  142.2730 C   0  0  0  0  0  0  0  0  0  0  0  0
  185.4350  178.5430  139.3750 C   0  0  1  0  0  3  0  0  0  0  0  0
  186.7630  177.9810  144.4770 N   0  0  0  0  0  0  0  0  0  0  0  0
  187.8590  176.1160  136.1390 C   0  0  0  0  0  2  0  0  0  0  0  0
  188.6110  177.9790  141.2990 N   0  0  0  0  0  0  0  0  0  0  0  0
  190.5420  176.3490  142.9610 C   0  0  0  0  0  1  0  0  0  0  0  0
  183.8120  178.1090  142.1350 C   0  0  0  0  0  2  0  0  0  0  0  0
  185.4790  177.9670  143.9990 C   0  0  0  0  0  3  0  0  0  0  0  0
  189.9500  178.4170  141.6800 C   0  0  0  0  0  2  0  0  0  0  0  0
  187.0730  178.4000  136.8830 N   0  0  1  0  0  0  0  0  0  0  0  0
  185.9370  179.2350  137.3130 C   0  0  0  0  0  2  0  0  0  0  0  0
  185.2250  177.9160  142.6140 C   0  0  0  0  0  0  0  0  0  0  0  0
  187.9260  178.3010  140.0530 C   0  0  1  0  0  3  0  0  0  0  0  0
  189.2410  178.1420  144.1330 C   0  0  0  0  0  2  0  0  0  0  0  0
  184.1260  178.9110  140.0770 C   0  0  2  0  0  3  0  0  0  0  0  0
  191.6220  178.4870  143.5120 C   0  0  0  0  0  1  0  0  0  0  0  0
  188.3540  178.6280  137.5790 C   0  0  0  0  0  2  0  0  0  0  0  0
  185.9170  176.4240  137.5480 F   0  0  0  0  0  0  0  0  0  0  0  0
  188.6250  177.7490  138.8160 C   0  0  2  0  0  3  0  0  0  0  0  0
  183.6570  177.7940  140.7800 O   0  0  0  0  0  0  0  0  0  0  0  0
  182.5380  178.4820  138.1630 C   0  0  0  0  0  3  0  0  0  0  0  0
  183.0940  179.3710  139.0950 C   0  0  0  0  0  0  0  0  0  0  0  0
  182.7000  180.7130  139.0930 C   0  0  0  0  0  3  0  0  0  0  0  0
  181.3710  182.4650  138.1740 F   0  0  0  0  0  0  0  0  0  0  0  0
  181.1960  180.2780  137.2450 C   0  0  0  0  0  3  0  0  0  0  0  0
  181.7510  181.1660  138.1710 C   0  0  0  0  0  0  0  0  0  0  0  0
  181.5910  178.9360  137.2410 C   0  0  0  0  0  3  0  0  0  0  0  0
  190.5550  174.0490  137.5930 N   0  0  0  0  0  1  0  0  0  0  0  0
  189.1740  174.3010  137.2200 C   0  0  0  0  0  2  0  0  0  0  0  0
  1 27  1  0  0  0  0
  2 24  1  0  0  0  0
  2 22  1  0  0  0  0
  3  9  2  0  0  0  0
  3 20  1  0  0  0  0
  4 37  1  1  0  0  0
  4  1  1  0  0  0  0
  6 22  1  0  0  0  0
  6 11  2  0  0  0  0
  7  3  1  1  0  0  0
  8 18  1  0  0  0  0
  8 26  1  1  0  0  0
  9  6  1  0  0  0  0
 10  5  1  1  0  0  0
 10 23  1  0  0  0  0
 10  7  1  0  0  0  0
 12  8  1  0  0  0  0
 12  4  1  0  0  0  0
 13 17  1  0  0  0  0
 13  9  1  0  0  0  0
 14  2  1  0  0  0  0
 15 20  1  0  0  0  0
 16 11  1  0  0  0  0
 17  2  1  0  0  0  0
 18 19  1  1  0  0  0
 18 25  1  0  0  0  0
 19  5  1  0  0  0  0
 20 16  2  0  0  0  0
 21  7  1  0  0  0  0
 21 13  1  1  0  0  0
 23 30  1  6  0  0  0
 23 28  1  0  0  0  0
 27 25  1  6  0  0  0
 27 21  1  0  0  0  0
 28 15  1  0  0  0  0
 29 30  1  0  0  0  0
 31 30  2  0  0  0  0
 33 34  2  0  0  0  0
 34 32  1  0  0  0  0
 34 31  1  0  0  0  0
 35 33  1  0  0  0  0
 35 29  2  0  0  0  0
 37 36  1  0  0  0  0
M  END
>  <MODEL>
6

>  <REMARK>
 VINA RESULT:      -5.3      3.504      8.471
  Name = 
  2 active torsions:
  status: ('A' for Active; 'I' for Inactive)
    1  A    between atoms: C_4  and  C_37
    2  A    between atoms: C_23  and  C_30
                            x       y       z     vdW  Elec       q    Type
                         _______ _______ _______ _____ _____    ______ ____

>  <TORSDO>
F 2

$$$$
=
 OpenBabel11122411233D

 37 43  0  0  1  0  0  0  0  0999 V2000
  187.6630  177.1480  140.3860 C   0  0  0  0  0  2  0  0  0  0  0  0
  183.8750  176.8660  137.0270 C   0  0  0  0  0  0  0  0  0  0  0  0
  187.5070  174.7650  137.0270 C   0  0  0  0  0  0  0  0  0  0  0  0
  188.1800  177.9800  141.5600 C   0  0  2  0  0  3  0  0  0  0  0  0
  190.2870  176.9800  137.1360 O   0  0  0  0  0  0  0  0  0  0  0  0
  185.2380  174.8530  136.2370 C   0  0  0  0  0  0  0  0  0  0  0  0
  188.4010  175.6230  137.8790 C   0  0  1  0  0  3  0  0  0  0  0  0
  190.4960  177.3560  140.5230 C   0  0  2  0  0  3  0  0  0  0  0  0
  186.2910  175.3790  136.9650 C   0  0  0  0  0  0  0  0  0  0  0  0
  189.9050  175.7020  137.5640 C   0  0  1  0  0  3  0  0  0  0  0  0
  185.4250  173.6700  135.5880 N   0  0  0  0  0  0  0  0  0  0  0  0
  189.7130  177.9830  141.6890 C   0  0  0  0  0  2  0  0  0  0  0  0
  186.2720  176.6560  137.5580 N   0  0  0  0  0  0  0  0  0  0  0  0
  183.3730  176.3680  138.3720 C   0  0  0  0  0  1  0  0  0  0  0  0
  189.0590  172.8920  136.2150 C   0  0  0  0  0  2  0  0  0  0  0  0
  186.6260  173.0120  135.6360 C   0  0  0  0  0  3  0  0  0  0  0  0
  185.2170  177.6040  137.2150 C   0  0  0  0  0  2  0  0  0  0  0  0
  190.3990  178.1110  139.2590 N   0  0  1  0  0  0  0  0  0  0  0  0
  191.1300  177.4760  138.1480 C   0  0  0  0  0  2  0  0  0  0  0  0
  187.7120  173.5420  136.3610 C   0  0  0  0  0  0  0  0  0  0  0  0
  187.6660  176.9850  137.8270 C   0  0  1  0  0  3  0  0  0  0  0  0
  183.9910  175.6750  136.0450 C   0  0  0  0  0  2  0  0  0  0  0  0
  190.4420  174.5820  136.6720 C   0  0  2  0  0  3  0  0  0  0  0  0
  182.8600  177.8450  136.4770 C   0  0  0  0  0  1  0  0  0  0  0  0
  189.1150  178.7530  138.9180 C   0  0  0  0  0  2  0  0  0  0  0  0
  190.1980  176.0120  140.3720 F   0  0  0  0  0  0  0  0  0  0  0  0
  187.8560  177.8730  139.0510 C   0  0  2  0  0  3  0  0  0  0  0  0
  189.9830  173.3510  137.1610 O   0  0  0  0  0  0  0  0  0  0  0  0
  192.6930  173.9170  137.6020 C   0  0  0  0  0  3  0  0  0  0  0  0
  191.9380  174.5910  136.6300 C   0  0  0  0  0  0  0  0  0  0  0  0
  192.5910  175.3060  135.6190 C   0  0  0  0  0  3  0  0  0  0  0  0
  194.6150  176.0340  134.5940 F   0  0  0  0  0  0  0  0  0  0  0  0
  194.7370  174.6680  136.5420 C   0  0  0  0  0  3  0  0  0  0  0  0
  193.9870  175.3430  135.5740 C   0  0  0  0  0  0  0  0  0  0  0  0
  194.0890  173.9550  137.5570 C   0  0  0  0  0  3  0  0  0  0  0  0
  188.2010  176.2300  143.2530 N   0  0  0  0  0  1  0  0  0  0  0  0
  187.5760  177.4800  142.8590 C   0  0  0  0  0  2  0  0  0  0  0  0
  1  4  1  0  0  0  0
  2 17  1  0  0  0  0
  2 14  1  0  0  0  0
  4 12  1  0  0  0  0
  4 37  1  1  0  0  0
  5 19  1  0  0  0  0
  6  9  2  0  0  0  0
  7  3  1  6  0  0  0
  8 26  1  6  0  0  0
  8 12  1  0  0  0  0
  9  3  1  0  0  0  0
  9 13  1  0  0  0  0
 10  5  1  6  0  0  0
 10  7  1  0  0  0  0
 11 16  2  0  0  0  0
 11  6  1  0  0  0  0
 15 20  1  0  0  0  0
 15 28  1  0  0  0  0
 16 20  1  0  0  0  0
 17 13  1  0  0  0  0
 18 19  1  6  0  0  0
 18  8  1  0  0  0  0
 20  3  2  0  0  0  0
 21 13  1  1  0  0  0
 21  7  1  0  0  0  0
 21 27  1  0  0  0  0
 22  6  1  0  0  0  0
 22  2  1  0  0  0  0
 23 30  1  1  0  0  0
 23 28  1  0  0  0  0
 23 10  1  0  0  0  0
 24  2  1  0  0  0  0
 25 18  1  0  0  0  0
 27 25  1  1  0  0  0
 27  1  1  0  0  0  0
 30 29  2  0  0  0  0
 31 30  1  0  0  0  0
 32 34  1  0  0  0  0
 33 35  2  0  0  0  0
 34 31  2  0  0  0  0
 34 33  1  0  0  0  0
 35 29  1  0  0  0  0
 37 36  1  0  0  0  0
M  END
>  <MODEL>
7

>  <REMARK>
 VINA RESULT:      -5.1      1.674      1.982
  Name = 
  2 active torsions:
  status: ('A' for Active; 'I' for Inactive)
    1  A    between atoms: C_4  and  C_37
    2  A    between atoms: C_23  and  C_30
                            x       y       z     vdW  Elec       q    Type
                         _______ _______ _______ _____ _____    ______ ____

>  <TORSDO>
F 2

$$$$
=
 OpenBabel11122411233D

 37 43  0  0  1  0  0  0  0  0999 V2000
  187.3440  173.8800  136.2210 C   0  0  0  0  0  2  0  0  0  0  0  0
  192.0040  175.8010  136.7720 C   0  0  0  0  0  0  0  0  0  0  0  0
  188.4670  176.9720  138.7030 C   0  0  0  0  0  0  0  0  0  0  0  0
  186.5150  172.9510  135.3340 C   0  0  2  0  0  3  0  0  0  0  0  0
  185.9260  177.8100  136.3600 O   0  0  0  0  0  0  0  0  0  0  0  0
  190.8720  176.9730  138.7420 C   0  0  0  0  0  0  0  0  0  0  0  0
  187.3900  176.4720  137.7810 C   0  0  1  0  0  3  0  0  0  0  0  0
  184.6380  174.6860  135.8790 C   0  0  2  0  0  3  0  0  0  0  0  0
  189.6670  176.6370  138.1480 C   0  0  0  0  0  0  0  0  0  0  0  0
  186.0790  177.2650  137.6410 C   0  0  1  0  0  3  0  0  0  0  0  0
  190.8450  177.6330  139.9330 N   0  0  0  0  0  0  0  0  0  0  0  0
  185.0270  173.3340  135.2570 C   0  0  0  0  0  2  0  0  0  0  0  0
  189.5580  176.0870  136.8570 N   0  0  0  0  0  0  0  0  0  0  0  0
  192.0090  174.3600  137.2550 C   0  0  0  0  0  1  0  0  0  0  0  0
  187.1710  178.2280  140.5250 C   0  0  0  0  0  2  0  0  0  0  0  0
  189.6620  177.9750  140.5340 C   0  0  0  0  0  3  0  0  0  0  0  0
  190.7150  176.0740  135.9680 C   0  0  0  0  0  2  0  0  0  0  0  0
  185.1840  175.8550  135.1660 N   0  0  1  0  0  0  0  0  0  0  0  0
  184.8260  177.1380  135.7980 C   0  0  0  0  0  2  0  0  0  0  0  0
  188.4280  177.6540  139.9340 C   0  0  0  0  0  0  0  0  0  0  0  0
  188.1720  176.2950  136.4560 C   0  0  1  0  0  3  0  0  0  0  0  0
  192.1540  176.7530  137.9840 C   0  0  0  0  0  2  0  0  0  0  0  0
  185.8060  178.2710  138.7610 C   0  0  2  0  0  3  0  0  0  0  0  0
  193.1930  175.9980  135.8570 C   0  0  0  0  0  1  0  0  0  0  0  0
  186.5410  175.7620  134.5940 C   0  0  0  0  0  2  0  0  0  0  0  0
  184.8980  174.7150  137.2390 F   0  0  0  0  0  0  0  0  0  0  0  0
  187.6380  175.2120  135.5260 C   0  0  2  0  0  3  0  0  0  0  0  0
  186.0130  177.6440  139.9970 O   0  0  0  0  0  0  0  0  0  0  0  0
  184.1550  180.1810  138.7720 C   0  0  0  0  0  3  0  0  0  0  0  0
  184.4090  178.8040  138.6840 C   0  0  0  0  0  0  0  0  0  0  0  0
  183.3410  177.9090  138.5480 C   0  0  0  0  0  3  0  0  0  0  0  0
  180.9980  177.5180  138.3600 F   0  0  0  0  0  0  0  0  0  0  0  0
  181.7780  179.7590  138.5790 C   0  0  0  0  0  3  0  0  0  0  0  0
  182.0280  178.3860  138.4940 C   0  0  0  0  0  0  0  0  0  0  0  0
  182.8420  180.6560  138.7190 C   0  0  0  0  0  3  0  0  0  0  0  0
  188.0000  171.0540  135.6830 N   0  0  0  0  0  1  0  0  0  0  0  0
  186.6320  171.5190  135.8230 C   0  0  0  0  0  2  0  0  0  0  0  0
  2 14  1  0  0  0  0
  2 22  1  0  0  0  0
  3 20  1  0  0  0  0
  4 37  1  1  0  0  0
  4  1  1  0  0  0  0
  6 11  2  0  0  0  0
  7  3  1  1  0  0  0
  8 26  1  1  0  0  0
  9  3  2  0  0  0  0
  9  6  1  0  0  0  0
 10  5  1  6  0  0  0
 10  7  1  0  0  0  0
 10 23  1  0  0  0  0
 11 16  1  0  0  0  0
 12  4  1  0  0  0  0
 12  8  1  0  0  0  0
 13  9  1  0  0  0  0
 17  2  1  0  0  0  0
 17 13  1  0  0  0  0
 18 25  1  1  0  0  0
 18 19  1  0  0  0  0
 18  8  1  0  0  0  0
 19  5  1  0  0  0  0
 20 15  1  0  0  0  0
 20 16  2  0  0  0  0
 21 13  1  1  0  0  0
 21  7  1  0  0  0  0
 22  6  1  0  0  0  0
 23 30  1  1  0  0  0
 23 28  1  0  0  0  0
 24  2  1  0  0  0  0
 27 25  1  1  0  0  0
 27  1  1  0  0  0  0
 27 21  1  0  0  0  0
 28 15  1  0  0  0  0
 30 29  2  0  0  0  0
 31 30  1  0  0  0  0
 32 34  1  0  0  0  0
 33 35  2  0  0  0  0
 34 31  2  0  0  0  0
 34 33  1  0  0  0  0
 35 29  1  0  0  0  0
 36 37  1  0  0  0  0
M  END
>  <MODEL>
8

>  <REMARK>
 VINA RESULT:      -4.8      2.782      7.992
  Name = 
  2 active torsions:
  status: ('A' for Active; 'I' for Inactive)
    1  A    between atoms: C_4  and  C_37
    2  A    between atoms: C_23  and  C_30
                            x       y       z     vdW  Elec       q    Type
                         _______ _______ _______ _____ _____    ______ ____

>  <TORSDO>
F 2

$$$$
=
 OpenBabel11122411233D

 37 43  0  0  1  0  0  0  0  0999 V2000
  187.6320  177.4940  141.7290 C   0  0  0  0  0  2  0  0  0  0  0  0
  183.6360  179.0150  139.0040 C   0  0  0  0  0  0  0  0  0  0  0  0
  186.7060  176.3910  137.8680 C   0  0  0  0  0  0  0  0  0  0  0  0
  188.4050  177.7930  143.0140 C   0  0  2  0  0  3  0  0  0  0  0  0
  189.9060  177.8970  138.2450 O   0  0  0  0  0  0  0  0  0  0  0  0
  184.4600  177.1480  137.4650 C   0  0  0  0  0  0  0  0  0  0  0  0
  187.8280  176.7480  138.8030 C   0  0  1  0  0  3  0  0  0  0  0  0
  190.4440  177.1170  141.5240 C   0  0  2  0  0  3  0  0  0  0  0  0
  185.6540  177.2060  138.1630 C   0  0  0  0  0  0  0  0  0  0  0  0
  189.2850  176.6440  138.3200 C   0  0  1  0  0  3  0  0  0  0  0  0
  184.3340  176.2230  136.4730 N   0  0  0  0  0  0  0  0  0  0  0  0
  189.9060  177.4690  142.9220 C   0  0  0  0  0  2  0  0  0  0  0  0
  185.9610  178.2040  139.1070 N   0  0  0  0  0  0  0  0  0  0  0  0
  183.1380  178.2130  140.1950 C   0  0  0  0  0  1  0  0  0  0  0  0
  187.7440  174.6250  136.3240 C   0  0  0  0  0  2  0  0  0  0  0  0
  185.3600  175.3740  136.1530 C   0  0  0  0  0  3  0  0  0  0  0  0
  185.1180  179.3910  139.2140 C   0  0  0  0  0  2  0  0  0  0  0  0
  190.4210  178.2430  140.5710 N   0  0  1  0  0  0  0  0  0  0  0  0
  190.9100  177.8750  139.2300 C   0  0  0  0  0  2  0  0  0  0  0  0
  186.5870  175.4320  136.8440 C   0  0  0  0  0  0  0  0  0  0  0  0
  187.4090  178.1650  139.2640 C   0  0  1  0  0  3  0  0  0  0  0  0
  183.4140  178.2040  137.7040 C   0  0  0  0  0  2  0  0  0  0  0  0
  189.4940  175.7900  137.0680 C   0  0  2  0  0  3  0  0  0  0  0  0
  182.8240  180.2890  138.9190 C   0  0  0  0  0  1  0  0  0  0  0  0
  189.2880  179.1870  140.6210 C   0  0  0  0  0  2  0  0  0  0  0  0
  189.8460  175.9730  141.0220 F   0  0  0  0  0  0  0  0  0  0  0  0
  187.8800  178.5600  140.6590 C   0  0  2  0  0  3  0  0  0  0  0  0
  188.8140  174.5760  137.2250 O   0  0  0  0  0  0  0  0  0  0  0  0
  191.6650  174.6200  137.6070 C   0  0  0  0  0  3  0  0  0  0  0  0
  190.9490  175.5350  136.8210 C   0  0  0  0  0  0  0  0  0  0  0  0
  191.6070  176.2420  135.8090 C   0  0  0  0  0  3  0  0  0  0  0  0
  193.6010  176.7170  134.5940 F   0  0  0  0  0  0  0  0  0  0  0  0
  193.6800  175.1160  136.3580 C   0  0  0  0  0  3  0  0  0  0  0  0
  192.9690  176.0320  135.5760 C   0  0  0  0  0  0  0  0  0  0  0  0
  193.0270  174.4110  137.3750 C   0  0  0  0  0  3  0  0  0  0  0  0
  188.6480  177.1520  145.3500 N   0  0  0  0  0  1  0  0  0  0  0  0
  187.8040  177.0230  144.1760 C   0  0  0  0  0  2  0  0  0  0  0  0
  1  4  1  0  0  0  0
  2 17  1  0  0  0  0
  2 14  1  0  0  0  0
  3  9  1  0  0  0  0
  4 37  1  1  0  0  0
  5 19  1  0  0  0  0
  6 22  1  0  0  0  0
  6  9  2  0  0  0  0
  7  3  1  6  0  0  0
  7 21  1  0  0  0  0
  8 26  1  6  0  0  0
  8 12  1  0  0  0  0
  9 13  1  0  0  0  0
 10  5  1  6  0  0  0
 10  7  1  0  0  0  0
 11  6  1  0  0  0  0
 12  4  1  0  0  0  0
 13 17  1  0  0  0  0
 15 20  1  0  0  0  0
 15 28  1  0  0  0  0
 16 11  2  0  0  0  0
 16 20  1  0  0  0  0
 18 19  1  6  0  0  0
 18 25  1  0  0  0  0
 18  8  1  0  0  0  0
 20  3  2  0  0  0  0
 21 13  1  1  0  0  0
 21 27  1  0  0  0  0
 22  2  1  0  0  0  0
 23 30  1  1  0  0  0
 23 28  1  0  0  0  0
 23 10  1  0  0  0  0
 24  2  1  0  0  0  0
 27 25  1  6  0  0  0
 27  1  1  0  0  0  0
 30 29  2  0  0  0  0
 31 30  1  0  0  0  0
 32 34  1  0  0  0  0
 33 35  2  0  0  0  0
 34 31  2  0  0  0  0
 34 33  1  0  0  0  0
 35 29  1  0  0  0  0
 37 36  1  0  0  0  0
M  END
>  <MODEL>
9

>  <REMARK>
 VINA RESULT:      -3.9      2.304      3.131
  Name = 
  2 active torsions:
  status: ('A' for Active; 'I' for Inactive)
    1  A    between atoms: C_4  and  C_37
    2  A    between atoms: C_23  and  C_30
                            x       y       z     vdW  Elec       q    Type
                         _______ _______ _______ _____ _____    ______ ____

>  <TORSDO>
F 2

$$$$
