=
 OpenBabel11122410233D

 30 35  0  0  1  0  0  0  0  0999 V2000
  187.8060  178.0520  142.8870 C   0  0  1  0  0  3  0  0  0  0  0  0
  185.3510  178.3430  142.1360 C   0  0  0  0  0  0  0  0  0  0  0  0
  186.7090  178.4940  146.9080 N   0  0  0  0  0  0  0  0  0  0  0  0
  188.6850  177.4470  144.0010 C   0  0  1  0  0  3  0  0  0  0  0  0
  188.2030  177.3510  141.5970 C   0  0  0  0  0  2  0  0  0  0  0  0
  191.7600  178.1280  142.0360 O   0  0  0  0  0  0  0  0  0  0  0  0
  191.2780  177.2300  146.0110 C   0  0  1  0  0  3  0  0  0  0  0  0
  190.5660  177.8510  142.3310 C   0  0  0  0  0  0  0  0  0  0  0  0
  190.0830  177.0770  146.9380 C   0  0  2  0  0  3  0  0  0  0  0  0
  187.8700  178.0880  147.4660 C   0  0  0  0  0  0  0  0  0  0  0  0
  189.5940  177.6570  141.2830 N   0  0  0  0  0  0  0  0  0  0  0  0
  190.1640  177.8040  143.7900 C   0  0  2  0  0  3  0  0  0  0  0  0
  183.8840  178.2390  142.4290 C   0  0  0  0  0  2  0  0  0  0  0  0
  190.0300  175.6320  147.3610 C   0  0  0  0  0  2  0  0  0  0  0  0
  192.2920  176.2900  146.6470 C   0  0  0  0  0  2  0  0  0  0  0  0
  185.7340  178.7980  141.0690 O   0  0  0  0  0  0  0  0  0  0  0  0
  186.9110  178.2930  145.5930 C   0  0  0  0  0  0  0  0  0  0  0  0
  183.5710  178.8900  143.7790 C   0  0  0  0  0  2  0  0  0  0  0  0
  186.3080  177.8850  143.2100 C   0  0  2  0  0  3  0  0  0  0  0  0
  188.1860  177.8290  145.3690 C   0  0  0  0  0  0  0  0  0  0  0  0
  188.0900  178.1000  148.9420 C   0  0  0  0  0  1  0  0  0  0  0  0
  188.7900  177.6650  146.5670 N   0  0  0  0  0  0  0  0  0  0  0  0
  191.4950  175.2190  147.4010 C   0  0  0  0  0  2  0  0  0  0  0  0
  190.7230  175.3620  144.2890 C   0  0  0  0  0  1  0  0  0  0  0  0
  184.4990  178.3680  144.8820 C   0  0  0  0  0  2  0  0  0  0  0  0
  185.9530  178.6460  144.4980 C   0  0  1  0  0  3  0  0  0  0  0  0
  191.0680  176.8330  144.5400 C   0  0  2  0  0  3  0  0  0  0  0  0
  189.9400  177.8850  139.8870 C   0  0  0  0  0  2  0  0  0  0  0  0
  189.1040  178.6520  137.6890 C   0  0  0  0  0  1  0  0  0  0  0  0
  188.7030  178.2660  139.0960 C   0  0  0  0  0  2  0  0  0  0  0  0
  1  5  1  6  0  0  0
  1 19  1  0  0  0  0
  1  4  1  0  0  0  0
  2 13  1  0  0  0  0
  3 10  2  0  0  0  0
  4 20  1  1  0  0  0
  6  8  2  0  0  0  0
  7 15  1  1  0  0  0
  7  9  1  0  0  0  0
  9 14  1  6  0  0  0
 10 21  1  0  0  0  0
 11  5  1  0  0  0  0
 11  8  1  0  0  0  0
 12  8  1  6  0  0  0
 12  4  1  0  0  0  0
 12 27  1  0  0  0  0
 13 18  1  0  0  0  0
 14 23  1  0  0  0  0
 15 23  1  0  0  0  0
 16  2  2  0  0  0  0
 17  3  1  0  0  0  0
 18 25  1  0  0  0  0
 19  2  1  6  0  0  0
 19 26  1  0  0  0  0
 20 17  2  0  0  0  0
 20 22  1  0  0  0  0
 22  9  1  0  0  0  0
 22 10  1  0  0  0  0
 26 25  1  1  0  0  0
 26 17  1  0  0  0  0
 27 24  1  1  0  0  0
 27  7  1  0  0  0  0
 28 11  1  0  0  0  0
 29 30  1  0  0  0  0
 30 28  1  0  0  0  0
M  END
>  <MODEL>
1

>  <REMARK>
 VINA RESULT:      -9.1      0.000      0.000
  Name = 
  2 active torsions:
  status: ('A' for Active; 'I' for Inactive)
    1  A    between atoms: N_11  and  C_28
    2  A    between atoms: C_28  and  C_30
                            x       y       z     vdW  Elec       q    Type
                         _______ _______ _______ _____ _____    ______ ____

>  <TORSDO>
F 2

$$$$
=
 OpenBabel11122410233D

 30 35  0  0  1  0  0  0  0  0999 V2000
  189.4680  177.1910  138.5840 C   0  0  1  0  0  3  0  0  0  0  0  0
  188.3340  176.6900  136.3170 C   0  0  0  0  0  0  0  0  0  0  0  0
  185.9050  178.7970  140.0980 N   0  0  0  0  0  0  0  0  0  0  0  0
  189.2130  177.2130  140.1060 C   0  0  1  0  0  3  0  0  0  0  0  0
  190.5740  176.1750  138.3480 C   0  0  0  0  0  2  0  0  0  0  0  0
  192.8240  177.7630  140.7700 O   0  0  0  0  0  0  0  0  0  0  0  0
  189.5570  178.2550  143.2040 C   0  0  1  0  0  3  0  0  0  0  0  0
  191.7520  177.3720  140.2310 C   0  0  0  0  0  0  0  0  0  0  0  0
  188.0520  178.2010  143.0020 C   0  0  2  0  0  3  0  0  0  0  0  0
  186.2640  178.8610  141.3990 C   0  0  0  0  0  0  0  0  0  0  0  0
  191.7990  176.6250  138.9990 N   0  0  0  0  0  0  0  0  0  0  0  0
  190.4320  177.7650  140.8590 C   0  0  2  0  0  3  0  0  0  0  0  0
  187.0960  176.4000  135.5220 C   0  0  0  0  0  2  0  0  0  0  0  0
  187.5390  177.0220  143.7860 C   0  0  0  0  0  2  0  0  0  0  0  0
  189.6940  177.8300  144.6590 C   0  0  0  0  0  2  0  0  0  0  0  0
  189.4120  176.8050  135.7550 O   0  0  0  0  0  0  0  0  0  0  0  0
  186.9550  178.1880  139.5170 C   0  0  0  0  0  0  0  0  0  0  0  0
  185.9990  177.4100  135.8720 C   0  0  0  0  0  2  0  0  0  0  0  0
  188.1790  176.8480  137.8100 C   0  0  2  0  0  3  0  0  0  0  0  0
  187.9410  177.9450  140.4430 C   0  0  0  0  0  0  0  0  0  0  0  0
  185.3710  179.4400  142.4430 C   0  0  0  0  0  1  0  0  0  0  0  0
  187.4900  178.3430  141.6530 N   0  0  0  0  0  0  0  0  0  0  0  0
  188.4760  176.9580  144.9850 C   0  0  0  0  0  2  0  0  0  0  0  0
  190.1680  175.8270  142.5030 C   0  0  0  0  0  1  0  0  0  0  0  0
  185.7960  177.5130  137.3880 C   0  0  0  0  0  2  0  0  0  0  0  0
  187.1100  177.9270  138.0510 C   0  0  1  0  0  3  0  0  0  0  0  0
  190.4080  177.3290  142.3200 C   0  0  2  0  0  3  0  0  0  0  0  0
  193.0580  176.4080  138.3000 C   0  0  0  0  0  2  0  0  0  0  0  0
  193.9740  176.2080  136.0110 C   0  0  0  0  0  1  0  0  0  0  0  0
  192.7970  175.8770  136.9030 C   0  0  0  0  0  2  0  0  0  0  0  0
  1  5  1  1  0  0  0
  1  4  1  0  0  0  0
  3 10  2  0  0  0  0
  4 20  1  6  0  0  0
  4 12  1  0  0  0  0
  5 11  1  0  0  0  0
  7 15  1  1  0  0  0
  8  6  2  0  0  0  0
  9  7  1  0  0  0  0
  9 14  1  6  0  0  0
 10 22  1  0  0  0  0
 10 21  1  0  0  0  0
 11  8  1  0  0  0  0
 12  8  1  6  0  0  0
 12 27  1  0  0  0  0
 13 18  1  0  0  0  0
 13  2  1  0  0  0  0
 14 23  1  0  0  0  0
 15 23  1  0  0  0  0
 16  2  2  0  0  0  0
 17  3  1  0  0  0  0
 17 20  2  0  0  0  0
 18 25  1  0  0  0  0
 19  2  1  6  0  0  0
 19 26  1  0  0  0  0
 19  1  1  0  0  0  0
 20 22  1  0  0  0  0
 22  9  1  0  0  0  0
 26 25  1  1  0  0  0
 26 17  1  0  0  0  0
 27 24  1  6  0  0  0
 27  7  1  0  0  0  0
 28 11  1  0  0  0  0
 29 30  1  0  0  0  0
 30 28  1  0  0  0  0
M  END
>  <MODEL>
2

>  <REMARK>
 VINA RESULT:      -8.6      2.789      5.283
  Name = 
  2 active torsions:
  status: ('A' for Active; 'I' for Inactive)
    1  A    between atoms: N_11  and  C_28
    2  A    between atoms: C_28  and  C_30
                            x       y       z     vdW  Elec       q    Type
                         _______ _______ _______ _____ _____    ______ ____

>  <TORSDO>
F 2

$$$$
=
 OpenBabel11122410233D

 30 35  0  0  1  0  0  0  0  0999 V2000
  186.9790  178.1020  143.0050 C   0  0  1  0  0  3  0  0  0  0  0  0
  189.0950  177.0760  144.0770 C   0  0  0  0  0  0  0  0  0  0  0  0
  188.8390  178.2080  139.2510 N   0  0  0  0  0  0  0  0  0  0  0  0
  186.1280  178.0930  141.7180 C   0  0  1  0  0  3  0  0  0  0  0  0
  186.0740  177.6070  144.1240 C   0  0  0  0  0  2  0  0  0  0  0  0
  183.4730  180.0840  143.3830 O   0  0  0  0  0  0  0  0  0  0  0  0
  184.1510  179.3360  139.4050 C   0  0  1  0  0  3  0  0  0  0  0  0
  184.4170  179.2690  143.1950 C   0  0  0  0  0  0  0  0  0  0  0  0
  185.2650  178.6700  138.6140 C   0  0  2  0  0  3  0  0  0  0  0  0
  187.7450  178.4750  138.5050 C   0  0  0  0  0  0  0  0  0  0  0  0
  184.9730  178.5450  144.3110 N   0  0  0  0  0  0  0  0  0  0  0  0
  184.9950  179.1260  141.8030 C   0  0  2  0  0  3  0  0  0  0  0  0
  190.3550  176.2740  143.9490 C   0  0  0  0  0  2  0  0  0  0  0  0
  184.6880  177.4240  137.9950 C   0  0  0  0  0  2  0  0  0  0  0  0
  182.9390  179.0740  138.5220 C   0  0  0  0  0  2  0  0  0  0  0  0
  188.7990  177.5880  145.1460 O   0  0  0  0  0  0  0  0  0  0  0  0
  188.3380  178.0460  140.4890 C   0  0  0  0  0  0  0  0  0  0  0  0
  191.1750  176.7710  142.7550 C   0  0  0  0  0  2  0  0  0  0  0  0
  188.2420  177.2310  142.8420 C   0  0  2  0  0  3  0  0  0  0  0  0
  186.9810  178.2670  140.4900 C   0  0  0  0  0  0  0  0  0  0  0  0
  187.8210  178.6950  137.0320 C   0  0  0  0  0  1  0  0  0  0  0  0
  186.5940  178.5070  139.2180 N   0  0  0  0  0  0  0  0  0  0  0  0
  183.2390  177.8020  137.7210 C   0  0  0  0  0  2  0  0  0  0  0  0
  183.4240  177.3290  140.8910 C   0  0  0  0  0  1  0  0  0  0  0  0
  190.3200  176.8580  141.4850 C   0  0  0  0  0  2  0  0  0  0  0  0
  189.1390  177.7990  141.7300 C   0  0  1  0  0  3  0  0  0  0  0  0
  183.8820  178.7900  140.8170 C   0  0  2  0  0  3  0  0  0  0  0  0
  184.5410  178.8200  145.6740 C   0  0  0  0  0  2  0  0  0  0  0  0
  186.2920  179.2060  147.3780 C   0  0  0  0  0  1  0  0  0  0  0  0
  185.4750  178.1510  146.6650 C   0  0  0  0  0  2  0  0  0  0  0  0
  1  5  1  1  0  0  0
  2 16  2  0  0  0  0
  3 17  1  0  0  0  0
  4 20  1  6  0  0  0
  4 12  1  0  0  0  0
  4  1  1  0  0  0  0
  5 11  1  0  0  0  0
  7 15  1  6  0  0  0
  7 27  1  0  0  0  0
  8  6  2  0  0  0  0
  8 11  1  0  0  0  0
  9 14  1  1  0  0  0
  9 22  1  0  0  0  0
  9  7  1  0  0  0  0
 10 22  1  0  0  0  0
 10  3  2  0  0  0  0
 11 28  1  0  0  0  0
 12  8  1  1  0  0  0
 13  2  1  0  0  0  0
 17 20  2  0  0  0  0
 17 26  1  0  0  0  0
 18 13  1  0  0  0  0
 19  1  1  0  0  0  0
 19  2  1  1  0  0  0
 21 10  1  0  0  0  0
 22 20  1  0  0  0  0
 23 14  1  0  0  0  0
 23 15  1  0  0  0  0
 25 18  1  0  0  0  0
 26 25  1  6  0  0  0
 26 19  1  0  0  0  0
 27 24  1  6  0  0  0
 27 12  1  0  0  0  0
 28 30  1  0  0  0  0
 30 29  1  0  0  0  0
M  END
>  <MODEL>
3

>  <REMARK>
 VINA RESULT:      -8.5      2.404      7.842
  Name = 
  2 active torsions:
  status: ('A' for Active; 'I' for Inactive)
    1  A    between atoms: N_11  and  C_28
    2  A    between atoms: C_28  and  C_30
                            x       y       z     vdW  Elec       q    Type
                         _______ _______ _______ _____ _____    ______ ____

>  <TORSDO>
F 2

$$$$
=
 OpenBabel11122410233D

 30 35  0  0  1  0  0  0  0  0999 V2000
  188.9800  177.1210  145.2270 C   0  0  1  0  0  3  0  0  0  0  0  0
  187.7810  178.0310  147.3280 C   0  0  0  0  0  0  0  0  0  0  0  0
  185.6850  178.1000  142.8290 N   0  0  0  0  0  0  0  0  0  0  0  0
  189.1680  177.3730  143.7160 C   0  0  1  0  0  3  0  0  0  0  0  0
  190.3580  177.2470  145.8590 C   0  0  0  0  0  2  0  0  0  0  0  0
  191.8540  174.8140  143.5590 O   0  0  0  0  0  0  0  0  0  0  0  0
  189.6620  176.5700  140.5670 C   0  0  1  0  0  3  0  0  0  0  0  0
  191.0960  175.7280  143.9840 C   0  0  0  0  0  0  0  0  0  0  0  0
  188.4630  177.5030  140.5220 C   0  0  2  0  0  3  0  0  0  0  0  0
  186.2710  177.9320  141.6240 C   0  0  0  0  0  0  0  0  0  0  0  0
  191.2310  176.2010  145.3390 N   0  0  0  0  0  0  0  0  0  0  0  0
  190.0070  176.2570  143.0740 C   0  0  2  0  0  3  0  0  0  0  0  0
  186.7690  178.9450  147.9500 C   0  0  0  0  0  2  0  0  0  0  0  0
  188.9360  178.8080  139.9390 C   0  0  0  0  0  2  0  0  0  0  0  0
  190.3920  176.9360  139.2830 C   0  0  0  0  0  2  0  0  0  0  0  0
  188.4110  177.2490  148.0230 O   0  0  0  0  0  0  0  0  0  0  0  0
  186.6970  177.9090  143.6950 C   0  0  0  0  0  0  0  0  0  0  0  0
  185.4320  178.8280  147.2110 C   0  0  0  0  0  2  0  0  0  0  0  0
  187.9630  178.1110  145.8320 C   0  0  2  0  0  3  0  0  0  0  0  0
  187.8490  177.5800  143.0210 C   0  0  0  0  0  0  0  0  0  0  0  0
  185.5200  178.0870  140.3450 C   0  0  0  0  0  1  0  0  0  0  0  0
  187.5890  177.6260  141.6960 N   0  0  0  0  0  0  0  0  0  0  0  0
  190.0190  178.3870  138.9560 C   0  0  0  0  0  2  0  0  0  0  0  0
  191.3300  178.0810  141.8700 C   0  0  0  0  0  1  0  0  0  0  0  0
  185.6130  178.9830  145.6960 C   0  0  0  0  0  2  0  0  0  0  0  0
  186.5810  177.9130  145.1870 C   0  0  1  0  0  3  0  0  0  0  0  0
  190.6190  176.7280  141.7600 C   0  0  2  0  0  3  0  0  0  0  0  0
  192.1540  175.5640  146.2670 C   0  0  0  0  0  2  0  0  0  0  0  0
  193.1100  175.7040  148.5450 C   0  0  0  0  0  1  0  0  0  0  0  0
  191.9420  176.1030  147.6700 C   0  0  0  0  0  2  0  0  0  0  0  0
  1 19  1  0  0  0  0
  1  5  1  1  0  0  0
  2 13  1  0  0  0  0
  2 16  2  0  0  0  0
  3 17  1  0  0  0  0
  4 20  1  6  0  0  0
  4  1  1  0  0  0  0
  6  8  2  0  0  0  0
  7 15  1  6  0  0  0
  7 27  1  0  0  0  0
  8 11  1  0  0  0  0
  9 14  1  1  0  0  0
  9  7  1  0  0  0  0
  9 22  1  0  0  0  0
 10 22  1  0  0  0  0
 10  3  2  0  0  0  0
 11  5  1  0  0  0  0
 11 28  1  0  0  0  0
 12  4  1  0  0  0  0
 12  8  1  1  0  0  0
 17 26  1  0  0  0  0
 18 13  1  0  0  0  0
 19  2  1  1  0  0  0
 20 17  2  0  0  0  0
 21 10  1  0  0  0  0
 22 20  1  0  0  0  0
 23 15  1  0  0  0  0
 23 14  1  0  0  0  0
 25 18  1  0  0  0  0
 26 25  1  6  0  0  0
 26 19  1  0  0  0  0
 27 24  1  1  0  0  0
 27 12  1  0  0  0  0
 28 30  1  0  0  0  0
 30 29  1  0  0  0  0
M  END
>  <MODEL>
4

>  <REMARK>
 VINA RESULT:      -8.0      2.193      5.753
  Name = 
  2 active torsions:
  status: ('A' for Active; 'I' for Inactive)
    1  A    between atoms: N_11  and  C_28
    2  A    between atoms: C_28  and  C_30
                            x       y       z     vdW  Elec       q    Type
                         _______ _______ _______ _____ _____    ______ ____

>  <TORSDO>
F 2

$$$$
=
 OpenBabel11122410233D

 30 35  0  0  1  0  0  0  0  0999 V2000
  188.0980  177.9050  143.1200 C   0  0  1  0  0  3  0  0  0  0  0  0
  188.5800  177.1810  145.5530 C   0  0  0  0  0  0  0  0  0  0  0  0
  192.1390  177.4530  142.1040 N   0  0  0  0  0  0  0  0  0  0  0  0
  188.5040  177.6350  141.6550 C   0  0  1  0  0  3  0  0  0  0  0  0
  186.6190  177.5670  143.2260 C   0  0  0  0  0  2  0  0  0  0  0  0
  185.7150  179.7530  140.4230 O   0  0  0  0  0  0  0  0  0  0  0  0
  189.0640  178.3660  138.5000 C   0  0  1  0  0  3  0  0  0  0  0  0
  186.3930  178.9630  141.1360 C   0  0  0  0  0  0  0  0  0  0  0  0
  190.3200  177.6280  138.9320 C   0  0  2  0  0  3  0  0  0  0  0  0
  192.0070  177.5350  140.7620 C   0  0  0  0  0  0  0  0  0  0  0  0
  185.8500  178.4700  142.3770 N   0  0  0  0  0  0  0  0  0  0  0  0
  187.8000  178.6110  140.7020 C   0  0  2  0  0  3  0  0  0  0  0  0
  189.4220  176.4290  146.5400 C   0  0  0  0  0  2  0  0  0  0  0  0
  190.2830  176.2680  138.2860 C   0  0  0  0  0  2  0  0  0  0  0  0
  188.9050  177.8990  137.0610 C   0  0  0  0  0  2  0  0  0  0  0  0
  187.6360  177.8540  145.9380 O   0  0  0  0  0  0  0  0  0  0  0  0
  190.8670  177.4830  142.5420 C   0  0  0  0  0  0  0  0  0  0  0  0
  190.9030  176.7530  146.3200 C   0  0  0  0  0  2  0  0  0  0  0  0
  188.9610  177.0800  144.0960 C   0  0  2  0  0  3  0  0  0  0  0  0
  190.0000  177.6350  141.4870 C   0  0  0  0  0  0  0  0  0  0  0  0
  193.1820  177.5020  139.8430 C   0  0  0  0  0  1  0  0  0  0  0  0
  190.7220  177.6350  140.3450 N   0  0  0  0  0  0  0  0  0  0  0  0
  189.5760  176.5240  136.9620 C   0  0  0  0  0  2  0  0  0  0  0  0
  187.2770  176.6120  139.2000 C   0  0  0  0  0  1  0  0  0  0  0  0
  191.3020  176.5790  144.8500 C   0  0  0  0  0  2  0  0  0  0  0  0
  190.4390  177.4910  143.9760 C   0  0  1  0  0  3  0  0  0  0  0  0
  187.7760  178.0580  139.2810 C   0  0  2  0  0  3  0  0  0  0  0  0
  184.5730  178.9540  142.8820 C   0  0  0  0  0  2  0  0  0  0  0  0
  183.4620  179.0020  145.0920 C   0  0  0  0  0  1  0  0  0  0  0  0
  184.7120  179.3840  144.3310 C   0  0  0  0  0  2  0  0  0  0  0  0
  1  5  1  6  0  0  0
  1 19  1  0  0  0  0
  2 16  2  0  0  0  0
  2 13  1  0  0  0  0
  3 17  1  0  0  0  0
  4 20  1  1  0  0  0
  4  1  1  0  0  0  0
  6  8  2  0  0  0  0
  7 15  1  6  0  0  0
  7  9  1  0  0  0  0
  7 27  1  0  0  0  0
  8 11  1  0  0  0  0
  9 14  1  1  0  0  0
  9 22  1  0  0  0  0
 10  3  2  0  0  0  0
 11 28  1  0  0  0  0
 11  5  1  0  0  0  0
 12  8  1  1  0  0  0
 12  4  1  0  0  0  0
 17 26  1  0  0  0  0
 18 13  1  0  0  0  0
 19  2  1  1  0  0  0
 20 17  2  0  0  0  0
 21 10  1  0  0  0  0
 22 10  1  0  0  0  0
 22 20  1  0  0  0  0
 23 15  1  0  0  0  0
 23 14  1  0  0  0  0
 25 18  1  0  0  0  0
 26 19  1  0  0  0  0
 26 25  1  1  0  0  0
 27 24  1  1  0  0  0
 27 12  1  0  0  0  0
 28 30  1  0  0  0  0
 30 29  1  0  0  0  0
M  END
>  <MODEL>
5

>  <REMARK>
 VINA RESULT:      -8.0      2.058      6.690
  Name = 
  2 active torsions:
  status: ('A' for Active; 'I' for Inactive)
    1  A    between atoms: N_11  and  C_28
    2  A    between atoms: C_28  and  C_30
                            x       y       z     vdW  Elec       q    Type
                         _______ _______ _______ _____ _____    ______ ____

>  <TORSDO>
F 2

$$$$
=
 OpenBabel11122410233D

 30 35  0  0  1  0  0  0  0  0999 V2000
  184.2600  178.8300  141.6390 C   0  0  1  0  0  3  0  0  0  0  0  0
  184.2340  178.6140  144.2150 C   0  0  0  0  0  0  0  0  0  0  0  0
  188.4160  178.2960  141.5600 N   0  0  0  0  0  0  0  0  0  0  0  0
  184.9480  178.2870  140.3690 C   0  0  1  0  0  3  0  0  0  0  0  0
  182.7850  178.4810  141.5140 C   0  0  0  0  0  2  0  0  0  0  0  0
  182.4910  180.0450  138.2100 O   0  0  0  0  0  0  0  0  0  0  0  0
  186.1390  178.3960  137.3070 C   0  0  1  0  0  3  0  0  0  0  0  0
  183.0020  179.4300  139.1860 C   0  0  0  0  0  0  0  0  0  0  0  0
  187.2730  177.7920  138.1190 C   0  0  2  0  0  3  0  0  0  0  0  0
  188.5570  178.1080  140.2290 C   0  0  0  0  0  0  0  0  0  0  0  0
  182.2140  179.1770  140.3660 N   0  0  0  0  0  0  0  0  0  0  0  0
  184.4630  179.0370  139.1190 C   0  0  2  0  0  3  0  0  0  0  0  0
  184.8510  178.0950  145.4790 C   0  0  0  0  0  2  0  0  0  0  0  0
  187.3480  176.3310  137.7620 C   0  0  0  0  0  2  0  0  0  0  0  0
  186.2660  177.6500  135.9870 C   0  0  0  0  0  2  0  0  0  0  0  0
  183.2420  179.3240  144.2620 O   0  0  0  0  0  0  0  0  0  0  0  0
  187.0830  178.3770  141.7210 C   0  0  0  0  0  0  0  0  0  0  0  0
  186.3500  178.4080  145.4980 C   0  0  0  0  0  2  0  0  0  0  0  0
  184.8990  178.2380  142.9120 C   0  0  2  0  0  3  0  0  0  0  0  0
  186.4470  178.2950  140.5050 C   0  0  0  0  0  0  0  0  0  0  0  0
  189.8920  177.9260  139.5890 C   0  0  0  0  0  1  0  0  0  0  0  0
  187.3830  178.0880  139.5540 N   0  0  0  0  0  0  0  0  0  0  0  0
  186.9240  176.3010  136.3000 C   0  0  0  0  0  2  0  0  0  0  0  0
  184.2240  176.7670  137.9720 C   0  0  0  0  0  1  0  0  0  0  0  0
  187.0340  177.9590  144.2010 C   0  0  0  0  0  2  0  0  0  0  0  0
  186.3750  178.6560  143.0100 C   0  0  1  0  0  3  0  0  0  0  0  0
  184.7170  178.2140  137.8620 C   0  0  2  0  0  3  0  0  0  0  0  0
  180.8690  179.7160  140.5010 C   0  0  0  0  0  2  0  0  0  0  0  0
  179.4780  180.4470  142.4120 C   0  0  0  0  0  1  0  0  0  0  0  0
  180.2650  179.2940  141.8280 C   0  0  0  0  0  2  0  0  0  0  0  0
  1  5  1  6  0  0  0
  1 19  1  0  0  0  0
  2 16  2  0  0  0  0
  2 13  1  0  0  0  0
  3 17  1  0  0  0  0
  4 20  1  1  0  0  0
  4  1  1  0  0  0  0
  6  8  2  0  0  0  0
  7 15  1  6  0  0  0
  7 27  1  0  0  0  0
  7  9  1  0  0  0  0
  8 11  1  0  0  0  0
  9 14  1  1  0  0  0
  9 22  1  0  0  0  0
 10  3  2  0  0  0  0
 11 28  1  0  0  0  0
 11  5  1  0  0  0  0
 12  8  1  1  0  0  0
 12  4  1  0  0  0  0
 13 18  1  0  0  0  0
 15 23  1  0  0  0  0
 17 26  1  0  0  0  0
 19 26  1  0  0  0  0
 19  2  1  1  0  0  0
 20 17  2  0  0  0  0
 21 10  1  0  0  0  0
 22 10  1  0  0  0  0
 22 20  1  0  0  0  0
 23 14  1  0  0  0  0
 25 18  1  0  0  0  0
 26 25  1  1  0  0  0
 27 24  1  1  0  0  0
 27 12  1  0  0  0  0
 28 30  1  0  0  0  0
 30 29  1  0  0  0  0
M  END
>  <MODEL>
6

>  <REMARK>
 VINA RESULT:      -7.7      3.609      7.584
  Name = 
  2 active torsions:
  status: ('A' for Active; 'I' for Inactive)
    1  A    between atoms: N_11  and  C_28
    2  A    between atoms: C_28  and  C_30
                            x       y       z     vdW  Elec       q    Type
                         _______ _______ _______ _____ _____    ______ ____

>  <TORSDO>
F 2

$$$$
=
 OpenBabel11122410233D

 30 35  0  0  1  0  0  0  0  0999 V2000
  185.0690  178.5690  141.6930 C   0  0  1  0  0  3  0  0  0  0  0  0
  182.5230  178.5720  141.2460 C   0  0  0  0  0  0  0  0  0  0  0  0
  184.4310  179.2730  145.7750 N   0  0  0  0  0  0  0  0  0  0  0  0
  186.1330  178.1470  142.7280 C   0  0  1  0  0  3  0  0  0  0  0  0
  185.3730  177.7930  140.4210 C   0  0  0  0  0  2  0  0  0  0  0  0
  188.8630  178.9170  140.3330 O   0  0  0  0  0  0  0  0  0  0  0  0
  188.9590  178.3420  144.3950 C   0  0  1  0  0  3  0  0  0  0  0  0
  187.7460  178.5640  140.8010 C   0  0  0  0  0  0  0  0  0  0  0  0
  187.9080  178.1680  145.4780 C   0  0  2  0  0  3  0  0  0  0  0  0
  185.6850  179.0240  146.2080 C   0  0  0  0  0  0  0  0  0  0  0  0
  186.6790  178.1910  139.9060 N   0  0  0  0  0  0  0  0  0  0  0  0
  187.5320  178.6130  142.2990 C   0  0  2  0  0  3  0  0  0  0  0  0
  181.1210  178.3660  141.7340 C   0  0  0  0  0  2  0  0  0  0  0  0
  188.0490  176.7690  146.0160 C   0  0  0  0  0  2  0  0  0  0  0  0
  190.1310  177.5570  144.9660 C   0  0  0  0  0  2  0  0  0  0  0  0
  182.7270  178.9620  140.1070 O   0  0  0  0  0  0  0  0  0  0  0  0
  184.4900  178.9730  144.4650 C   0  0  0  0  0  0  0  0  0  0  0  0
  180.9110  179.1060  143.0580 C   0  0  0  0  0  2  0  0  0  0  0  0
  183.6440  178.3000  142.2200 C   0  0  2  0  0  3  0  0  0  0  0  0
  185.7680  178.6050  144.1150 C   0  0  0  0  0  0  0  0  0  0  0  0
  186.0810  179.1880  147.6370 C   0  0  0  0  0  1  0  0  0  0  0  0
  186.5260  178.6040  145.2330 N   0  0  0  0  0  0  0  0  0  0  0  0
  189.5420  176.4920  145.8990 C   0  0  0  0  0  2  0  0  0  0  0  0
  188.3860  176.2850  142.9110 C   0  0  0  0  0  1  0  0  0  0  0  0
  182.0140  178.7700  144.0690 C   0  0  0  0  0  2  0  0  0  0  0  0
  183.3760  179.1400  143.4800 C   0  0  1  0  0  3  0  0  0  0  0  0
  188.6120  177.7980  143.0000 C   0  0  2  0  0  3  0  0  0  0  0  0
  186.8280  178.3210  138.4640 C   0  0  0  0  0  2  0  0  0  0  0  0
  185.9240  177.3970  136.3540 C   0  0  0  0  0  1  0  0  0  0  0  0
  185.5750  177.8330  137.7610 C   0  0  0  0  0  2  0  0  0  0  0  0
  1  5  1  6  0  0  0
  1 19  1  0  0  0  0
  1  4  1  0  0  0  0
  2 13  1  0  0  0  0
  3 10  2  0  0  0  0
  4 20  1  1  0  0  0
  6  8  2  0  0  0  0
  7 15  1  1  0  0  0
  7  9  1  0  0  0  0
  9 14  1  6  0  0  0
 10 21  1  0  0  0  0
 11  5  1  0  0  0  0
 11  8  1  0  0  0  0
 12  8  1  6  0  0  0
 12  4  1  0  0  0  0
 12 27  1  0  0  0  0
 13 18  1  0  0  0  0
 15 23  1  0  0  0  0
 16  2  2  0  0  0  0
 17  3  1  0  0  0  0
 18 25  1  0  0  0  0
 19  2  1  6  0  0  0
 19 26  1  0  0  0  0
 20 17  2  0  0  0  0
 20 22  1  0  0  0  0
 22  9  1  0  0  0  0
 22 10  1  0  0  0  0
 23 14  1  0  0  0  0
 26 25  1  1  0  0  0
 26 17  1  0  0  0  0
 27 24  1  1  0  0  0
 27  7  1  0  0  0  0
 28 11  1  0  0  0  0
 29 30  1  0  0  0  0
 30 28  1  0  0  0  0
M  END
>  <MODEL>
7

>  <REMARK>
 VINA RESULT:      -7.6      1.965      2.993
  Name = 
  2 active torsions:
  status: ('A' for Active; 'I' for Inactive)
    1  A    between atoms: N_11  and  C_28
    2  A    between atoms: C_28  and  C_30
                            x       y       z     vdW  Elec       q    Type
                         _______ _______ _______ _____ _____    ______ ____

>  <TORSDO>
F 2

$$$$
=
 OpenBabel11122410233D

 30 35  0  0  1  0  0  0  0  0999 V2000
  184.6320  178.4170  141.3830 C   0  0  1  0  0  3  0  0  0  0  0  0
  186.2250  178.3740  143.4180 C   0  0  0  0  0  0  0  0  0  0  0  0
  181.2970  178.7150  143.9030 N   0  0  0  0  0  0  0  0  0  0  0  0
  183.3220  179.0450  140.8630 C   0  0  1  0  0  3  0  0  0  0  0  0
  185.7310  178.8630  140.4300 C   0  0  0  0  0  2  0  0  0  0  0  0
  183.9270  177.6600  137.4720 O   0  0  0  0  0  0  0  0  0  0  0  0
  180.5100  179.1770  139.1650 C   0  0  1  0  0  3  0  0  0  0  0  0
  184.1260  178.1430  138.6200 C   0  0  0  0  0  0  0  0  0  0  0  0
  180.1150  179.6290  140.5610 C   0  0  2  0  0  3  0  0  0  0  0  0
  180.3770  179.0280  142.9640 C   0  0  0  0  0  0  0  0  0  0  0  0
  185.4730  178.3210  139.1000 N   0  0  0  0  0  0  0  0  0  0  0  0
  182.9330  178.4550  139.5000 C   0  0  2  0  0  3  0  0  0  0  0  0
  186.5140  178.7250  144.8460 C   0  0  0  0  0  2  0  0  0  0  0  0
  179.8610  181.1120  140.4950 C   0  0  0  0  0  2  0  0  0  0  0  0
  179.6170  180.0450  138.2900 C   0  0  0  0  0  2  0  0  0  0  0  0
  187.0290  177.7210  142.7710 O   0  0  0  0  0  0  0  0  0  0  0  0
  182.4510  178.6950  143.2120 C   0  0  0  0  0  0  0  0  0  0  0  0
  185.3320  178.3250  145.7350 C   0  0  0  0  0  2  0  0  0  0  0  0
  184.9100  178.8400  142.8400 C   0  0  2  0  0  3  0  0  0  0  0  0
  182.2160  178.9370  141.8790 C   0  0  0  0  0  0  0  0  0  0  0  0
  178.9320  179.1960  143.2900 C   0  0  0  0  0  1  0  0  0  0  0  0
  180.8970  179.1840  141.7220 N   0  0  0  0  0  0  0  0  0  0  0  0
  179.3070  181.3150  139.0910 C   0  0  0  0  0  2  0  0  0  0  0  0
  182.4590  180.8390  138.7150 C   0  0  0  0  0  1  0  0  0  0  0  0
  184.0070  178.8630  145.1810 C   0  0  0  0  0  2  0  0  0  0  0  0
  183.7930  178.3290  143.7640 C   0  0  1  0  0  3  0  0  0  0  0  0
  181.9780  179.3850  138.7600 C   0  0  2  0  0  3  0  0  0  0  0  0
  186.6140  177.8490  138.3280 C   0  0  0  0  0  2  0  0  0  0  0  0
  188.9700  178.5970  138.2200 C   0  0  0  0  0  1  0  0  0  0  0  0
  187.8950  178.0290  139.1210 C   0  0  0  0  0  2  0  0  0  0  0  0
  1  5  1  6  0  0  0
  1 19  1  0  0  0  0
  2 13  1  0  0  0  0
  4  1  1  0  0  0  0
  4 20  1  1  0  0  0
  6  8  2  0  0  0  0
  7 15  1  6  0  0  0
  7  9  1  0  0  0  0
  8 11  1  0  0  0  0
  9 14  1  6  0  0  0
  9 22  1  0  0  0  0
 10 21  1  0  0  0  0
 10  3  2  0  0  0  0
 11  5  1  0  0  0  0
 12  8  1  6  0  0  0
 12  4  1  0  0  0  0
 13 18  1  0  0  0  0
 15 23  1  0  0  0  0
 16  2  2  0  0  0  0
 17 26  1  0  0  0  0
 17  3  1  0  0  0  0
 19  2  1  1  0  0  0
 19 26  1  0  0  0  0
 20 17  2  0  0  0  0
 22 20  1  0  0  0  0
 22 10  1  0  0  0  0
 23 14  1  0  0  0  0
 25 18  1  0  0  0  0
 26 25  1  1  0  0  0
 27 24  1  1  0  0  0
 27  7  1  0  0  0  0
 27 12  1  0  0  0  0
 28 11  1  0  0  0  0
 28 30  1  0  0  0  0
 29 30  1  0  0  0  0
M  END
>  <MODEL>
8

>  <REMARK>
 VINA RESULT:      -7.6      3.910      8.138
  Name = 
  2 active torsions:
  status: ('A' for Active; 'I' for Inactive)
    1  A    between atoms: N_11  and  C_28
    2  A    between atoms: C_28  and  C_30
                            x       y       z     vdW  Elec       q    Type
                         _______ _______ _______ _____ _____    ______ ____

>  <TORSDO>
F 2

$$$$
=
 OpenBabel11122410233D

 30 35  0  0  1  0  0  0  0  0999 V2000
  189.3430  177.4050  140.6030 C   0  0  1  0  0  3  0  0  0  0  0  0
  190.4290  176.3130  138.5280 C   0  0  0  0  0  0  0  0  0  0  0  0
  186.0910  178.7150  138.3070 N   0  0  0  0  0  0  0  0  0  0  0  0
  187.9800  177.6790  141.2740 C   0  0  1  0  0  3  0  0  0  0  0  0
  190.1340  176.5400  141.5730 C   0  0  0  0  0  2  0  0  0  0  0  0
  189.6660  178.8840  144.3540 O   0  0  0  0  0  0  0  0  0  0  0  0
  185.7910  179.3350  143.0820 C   0  0  1  0  0  3  0  0  0  0  0  0
  189.4230  178.2400  143.2980 C   0  0  0  0  0  0  0  0  0  0  0  0
  185.0400  179.0170  141.8000 C   0  0  2  0  0  3  0  0  0  0  0  0
  185.2770  179.0800  139.3220 C   0  0  0  0  0  0  0  0  0  0  0  0
  190.3840  177.2870  142.8010 N   0  0  0  0  0  0  0  0  0  0  0  0
  188.1520  178.5420  142.5330 C   0  0  2  0  0  3  0  0  0  0  0  0
  190.2960  175.6930  137.1690 C   0  0  0  0  0  2  0  0  0  0  0  0
  184.0330  177.9460  142.1270 C   0  0  0  0  0  2  0  0  0  0  0  0
  184.6900  179.2220  144.1270 C   0  0  0  0  0  2  0  0  0  0  0  0
  191.5340  176.4800  139.0220 O   0  0  0  0  0  0  0  0  0  0  0  0
  187.1480  178.1710  138.9380 C   0  0  0  0  0  0  0  0  0  0  0  0
  189.4190  176.5740  136.2740 C   0  0  0  0  0  2  0  0  0  0  0  0
  189.1590  176.7290  139.2290 C   0  0  2  0  0  3  0  0  0  0  0  0
  186.9910  178.2620  140.3000 C   0  0  0  0  0  0  0  0  0  0  0  0
  183.9440  179.7070  139.0870 C   0  0  0  0  0  1  0  0  0  0  0  0
  185.7820  178.8110  140.5500 N   0  0  0  0  0  0  0  0  0  0  0  0
  183.6410  178.2550  143.5660 C   0  0  0  0  0  2  0  0  0  0  0  0
  186.5640  176.9380  143.7290 C   0  0  0  0  0  1  0  0  0  0  0  0
  188.0980  176.9340  136.9630 C   0  0  0  0  0  2  0  0  0  0  0  0
  188.3900  177.6610  138.2770 C   0  0  1  0  0  3  0  0  0  0  0  0
  186.9490  178.3960  143.4570 C   0  0  2  0  0  3  0  0  0  0  0  0
  191.6850  177.1330  143.4350 C   0  0  0  0  0  2  0  0  0  0  0  0
  191.6790  176.3820  145.7930 C   0  0  0  0  0  1  0  0  0  0  0  0
  191.6810  175.9230  144.3510 C   0  0  0  0  0  2  0  0  0  0  0  0
  1  4  1  0  0  0  0
  1  5  1  1  0  0  0
  2 16  2  0  0  0  0
  3 17  1  0  0  0  0
  3 10  2  0  0  0  0
  4 20  1  6  0  0  0
  4 12  1  0  0  0  0
  5 11  1  0  0  0  0
  7 27  1  0  0  0  0
  7 15  1  1  0  0  0
  8  6  2  0  0  0  0
  9 14  1  1  0  0  0
  9  7  1  0  0  0  0
 10 22  1  0  0  0  0
 11  8  1  0  0  0  0
 11 28  1  0  0  0  0
 12  8  1  1  0  0  0
 12 27  1  0  0  0  0
 13  2  1  0  0  0  0
 14 23  1  0  0  0  0
 17 20  2  0  0  0  0
 18 25  1  0  0  0  0
 18 13  1  0  0  0  0
 19  2  1  6  0  0  0
 19  1  1  0  0  0  0
 20 22  1  0  0  0  0
 21 10  1  0  0  0  0
 22  9  1  0  0  0  0
 23 15  1  0  0  0  0
 26 25  1  6  0  0  0
 26 17  1  0  0  0  0
 26 19  1  0  0  0  0
 27 24  1  6  0  0  0
 28 30  1  0  0  0  0
 30 29  1  0  0  0  0
M  END
>  <MODEL>
9

>  <REMARK>
 VINA RESULT:      -7.6      2.416      6.668
  Name = 
  2 active torsions:
  status: ('A' for Active; 'I' for Inactive)
    1  A    between atoms: N_11  and  C_28
    2  A    between atoms: C_28  and  C_30
                            x       y       z     vdW  Elec       q    Type
                         _______ _______ _______ _____ _____    ______ ____

>  <TORSDO>
F 2

$$$$
