=
 OpenBabel11122411423D

 37 44  0  0  1  0  0  0  0  0999 V2000
  181.9440  178.6410  142.1070 C   0  0  2  0  0  3  0  0  0  0  0  0
  185.1950  178.5220  145.6000 C   0  0  0  0  0  0  0  0  0  0  0  0
  186.7180  177.9380  141.7860 C   0  0  0  0  0  0  0  0  0  0  0  0
  180.6100  178.0630  141.6870 C   0  0  2  0  0  3  0  0  0  0  0  0
  184.8180  179.6930  138.9820 N   0  0  0  0  0  2  0  0  0  0  0  0
  186.9990  177.5270  144.1380 C   0  0  0  0  0  0  0  0  0  0  0  0
  185.6580  178.5150  140.9510 C   0  0  0  0  0  0  0  0  0  0  0  0
  181.2140  179.3520  139.6700 C   0  0  2  0  0  3  0  0  0  0  0  0
  186.2000  177.7840  143.0390 C   0  0  0  0  0  0  0  0  0  0  0  0
  185.7930  178.8660  139.6530 C   0  0  0  0  0  0  0  0  0  0  0  0
  188.3390  177.3750  143.9510 N   0  0  0  0  0  0  0  0  0  0  0  0
  181.0090  179.4480  141.1890 C   0  0  2  0  0  3  0  0  0  0  0  0
  184.8780  178.2500  143.1510 N   0  0  0  0  0  0  0  0  0  0  0  0
  185.7290  179.9440  145.6150 C   0  0  0  0  0  1  0  0  0  0  0  0
  188.7870  178.2840  140.3700 C   0  0  0  0  0  3  0  0  0  0  0  0
  188.9010  177.5510  142.7160 C   0  0  0  0  0  3  0  0  0  0  0  0
  184.1910  178.3600  144.4380 C   0  0  0  0  0  2  0  0  0  0  0  0
  182.6280  178.9850  139.2310 C   0  0  1  0  0  3  0  0  0  0  0  0
  183.5760  180.0610  139.5230 N   0  0  0  0  0  2  0  0  0  0  0  0
  188.1050  177.8760  141.5990 C   0  0  0  0  0  0  0  0  0  0  0  0
  184.4330  178.7390  141.8480 C   0  0  2  0  0  3  0  0  0  0  0  0
  186.3710  177.5200  145.5010 C   0  0  0  0  0  2  0  0  0  0  0  0
  186.8530  178.3140  138.8440 N   0  0  0  0  0  0  0  0  0  0  0  0
  184.4650  178.2770  146.9020 C   0  0  0  0  0  1  0  0  0  0  0  0
  183.0180  177.7020  139.9450 C   0  0  0  0  0  2  0  0  0  0  0  0
  180.7310  180.6190  138.9880 C   0  0  0  0  0  1  0  0  0  0  0  0
  183.1620  177.9560  141.4490 C   0  0  2  0  0  3  0  0  0  0  0  0
  188.2430  178.4780  139.1720 C   0  0  0  0  0  3  0  0  0  0  0  0
  187.1190  178.3440  136.3750 C   0  0  0  0  0  3  0  0  0  0  0  0
  186.5340  177.7970  137.5320 C   0  0  0  0  0  0  0  0  0  0  0  0
  185.6530  176.7090  137.3900 C   0  0  0  0  0  3  0  0  0  0  0  0
  184.5000  175.1490  136.0070 F   0  0  0  0  0  0  0  0  0  0  0  0
  185.9360  176.7530  134.9880 C   0  0  0  0  0  3  0  0  0  0  0  0
  185.3540  176.1930  136.1260 C   0  0  0  0  0  0  0  0  0  0  0  0
  186.8190  177.8270  135.1120 C   0  0  0  0  0  3  0  0  0  0  0  0
  180.3930  178.2880  143.9170 O   0  0  0  0  0  1  0  0  0  0  0  0
  179.6650  178.2030  142.7790 N   0  0  0  0  0  2  0  0  0  0  0  0
  2 14  1  0  0  0  0
  2 24  1  0  0  0  0
  3  9  1  0  0  0  0
  4  1  1  0  0  0  0
  4 37  1  0  0  0  0
  5 19  1  0  0  0  0
  5 10  1  0  0  0  0
  6 22  1  0  0  0  0
  7  3  1  0  0  0  0
  7 21  1  0  0  0  0
  8 12  1  0  0  0  0
  9 13  1  0  0  0  0
  9  6  2  0  0  0  0
 10  7  2  0  0  0  0
 11  6  1  0  0  0  0
 12  4  1  0  0  0  0
 12  1  1  0  0  0  0
 13 17  1  0  0  0  0
 15 20  1  0  0  0  0
 16 11  2  0  0  0  0
 17  2  1  0  0  0  0
 18 19  1  0  0  0  0
 18  8  1  0  0  0  0
 18 25  1  0  0  0  0
 20  3  2  0  0  0  0
 20 16  1  0  0  0  0
 21 13  1  0  0  0  0
 22  2  1  0  0  0  0
 23 28  1  0  0  0  0
 23 10  1  0  0  0  0
 25 27  1  0  0  0  0
 26  8  1  0  0  0  0
 27 21  1  0  0  0  0
 27  1  1  0  0  0  0
 28 15  2  0  0  0  0
 29 30  1  0  0  0  0
 30 23  1  0  0  0  0
 31 30  2  0  0  0  0
 32 34  1  0  0  0  0
 33 35  1  0  0  0  0
 33 34  2  0  0  0  0
 34 31  1  0  0  0  0
 35 29  2  0  0  0  0
 37 36  1  0  0  0  0
M  END
>  <MODEL>
1

>  <REMARK>
 VINA RESULT:      -9.0      0.000      0.000
  Name = 
  2 active torsions:
  status: ('A' for Active; 'I' for Inactive)
    1  A    between atoms: C_4  and  N_37
    2  A    between atoms: N_23  and  C_30
                            x       y       z     vdW  Elec       q    Type
                         _______ _______ _______ _____ _____    ______ ____

>  <TORSDO>
F 2

$$$$
=
 OpenBabel11122411423D

 37 44  0  0  1  0  0  0  0  0999 V2000
  186.3590  178.1160  144.7500 C   0  0  2  0  0  3  0  0  0  0  0  0
  191.0890  177.7960  144.1880 C   0  0  0  0  0  0  0  0  0  0  0  0
  188.9010  177.5880  140.6710 C   0  0  0  0  0  0  0  0  0  0  0  0
  185.2010  177.5360  145.5320 C   0  0  2  0  0  3  0  0  0  0  0  0
  185.6120  179.5180  140.6750 N   0  0  0  0  0  2  0  0  0  0  0  0
  190.9350  176.9850  141.8010 C   0  0  0  0  0  0  0  0  0  0  0  0
  187.6300  178.2020  141.0730 C   0  0  0  0  0  0  0  0  0  0  0  0
  184.0050  179.0100  143.9520 C   0  0  2  0  0  3  0  0  0  0  0  0
  189.5920  177.3110  141.8140 C   0  0  0  0  0  0  0  0  0  0  0  0
  186.6870  178.6670  140.2250 C   0  0  0  0  0  0  0  0  0  0  0  0
  191.5740  176.8910  140.6020 N   0  0  0  0  0  0  0  0  0  0  0  0
  185.1080  178.9700  145.0200 C   0  0  2  0  0  3  0  0  0  0  0  0
  188.9210  177.7250  142.9780 N   0  0  0  0  0  0  0  0  0  0  0  0
  191.4900  179.2280  143.8750 C   0  0  0  0  0  1  0  0  0  0  0  0
  189.0110  178.1160  138.1970 C   0  0  0  0  0  3  0  0  0  0  0  0
  190.9250  177.1880  139.4350 C   0  0  0  0  0  3  0  0  0  0  0  0
  189.5510  177.7040  144.2980 C   0  0  0  0  0  2  0  0  0  0  0  0
  184.4750  178.7250  142.5300 C   0  0  1  0  0  3  0  0  0  0  0  0
  185.3270  179.8010  142.0200 N   0  0  0  0  0  2  0  0  0  0  0  0
  189.5720  177.5840  139.4400 C   0  0  0  0  0  0  0  0  0  0  0  0
  187.6350  178.3110  142.6040 C   0  0  2  0  0  3  0  0  0  0  0  0
  191.6560  176.8430  143.1090 C   0  0  0  0  0  2  0  0  0  0  0  0
  186.6390  178.2180  138.8540 N   0  0  0  0  0  0  0  0  0  0  0  0
  191.6880  177.4180  145.5260 C   0  0  0  0  0  1  0  0  0  0  0  0
  185.2140  177.3980  142.5410 C   0  0  0  0  0  2  0  0  0  0  0  0
  183.2360  180.3160  144.0340 C   0  0  0  0  0  1  0  0  0  0  0  0
  186.5190  177.5260  143.3310 C   0  0  2  0  0  3  0  0  0  0  0  0
  187.7360  178.3960  137.9420 C   0  0  0  0  0  3  0  0  0  0  0  0
  184.1660  178.3950  138.7260 C   0  0  0  0  0  3  0  0  0  0  0  0
  185.3700  177.8060  138.2980 C   0  0  0  0  0  0  0  0  0  0  0  0
  185.3170  176.8260  137.2900 C   0  0  0  0  0  3  0  0  0  0  0  0
  184.0630  175.4870  135.7700 F   0  0  0  0  0  0  0  0  0  0  0  0
  182.9090  177.0230  137.1780 C   0  0  0  0  0  3  0  0  0  0  0  0
  184.0950  176.4350  136.7360 C   0  0  0  0  0  0  0  0  0  0  0  0
  182.9440  178.0040  138.1720 C   0  0  0  0  0  3  0  0  0  0  0  0
  185.3720  178.8320  147.3650 O   0  0  0  0  0  1  0  0  0  0  0  0
  185.5230  177.5530  146.9460 N   0  0  0  0  0  2  0  0  0  0  0  0
  1 12  1  0  0  0  0
  1  4  1  0  0  0  0
  2 17  1  0  0  0  0
  2 24  1  0  0  0  0
  3  7  1  0  0  0  0
  3  9  1  0  0  0  0
  4 37  1  0  0  0  0
  5 19  1  0  0  0  0
  6  9  2  0  0  0  0
  6 22  1  0  0  0  0
  7 21  1  0  0  0  0
  8 26  1  0  0  0  0
  8 12  1  0  0  0  0
  9 13  1  0  0  0  0
 10  5  1  0  0  0  0
 10  7  2  0  0  0  0
 11  6  1  0  0  0  0
 12  4  1  0  0  0  0
 13 17  1  0  0  0  0
 14  2  1  0  0  0  0
 15 20  1  0  0  0  0
 16 20  1  0  0  0  0
 16 11  2  0  0  0  0
 18 25  1  0  0  0  0
 18  8  1  0  0  0  0
 19 18  1  0  0  0  0
 20  3  2  0  0  0  0
 21 13  1  0  0  0  0
 21 27  1  0  0  0  0
 22  2  1  0  0  0  0
 23 10  1  0  0  0  0
 25 27  1  0  0  0  0
 27  1  1  0  0  0  0
 28 15  2  0  0  0  0
 28 23  1  0  0  0  0
 30 29  1  0  0  0  0
 30 23  1  0  0  0  0
 31 30  2  0  0  0  0
 32 34  1  0  0  0  0
 33 35  1  0  0  0  0
 34 33  2  0  0  0  0
 34 31  1  0  0  0  0
 35 29  2  0  0  0  0
 37 36  1  0  0  0  0
M  END
>  <MODEL>
2

>  <REMARK>
 VINA RESULT:      -7.9      2.261      4.251
  Name = 
  2 active torsions:
  status: ('A' for Active; 'I' for Inactive)
    1  A    between atoms: C_4  and  N_37
    2  A    between atoms: N_23  and  C_30
                            x       y       z     vdW  Elec       q    Type
                         _______ _______ _______ _____ _____    ______ ____

>  <TORSDO>
F 2

$$$$
=
 OpenBabel11122411423D

 37 44  0  0  1  0  0  0  0  0999 V2000
  187.1670  178.0040  139.4150 C   0  0  2  0  0  3  0  0  0  0  0  0
  187.5450  177.6160  144.1570 C   0  0  0  0  0  0  0  0  0  0  0  0
  183.7980  178.7650  142.7990 C   0  0  0  0  0  0  0  0  0  0  0  0
  187.8240  178.6330  138.2050 C   0  0  2  0  0  3  0  0  0  0  0  0
  182.8310  177.4380  139.3560 N   0  0  0  0  0  2  0  0  0  0  0  0
  185.3730  178.8240  144.6130 C   0  0  0  0  0  0  0  0  0  0  0  0
  183.8360  178.3140  141.4020 C   0  0  0  0  0  0  0  0  0  0  0  0
  185.7980  177.6600  137.1820 C   0  0  2  0  0  3  0  0  0  0  0  0
  185.0800  178.7300  143.2660 C   0  0  0  0  0  0  0  0  0  0  0  0
  182.7570  178.1610  140.6040 C   0  0  0  0  0  0  0  0  0  0  0  0
  184.3520  179.0070  145.4950 N   0  0  0  0  0  0  0  0  0  0  0  0
  187.0350  177.3380  138.0330 C   0  0  2  0  0  3  0  0  0  0  0  0
  185.9990  178.2470  142.3180 N   0  0  0  0  0  0  0  0  0  0  0  0
  187.0370  176.2090  144.4240 C   0  0  0  0  0  1  0  0  0  0  0  0
  181.3310  178.6410  143.3520 C   0  0  0  0  0  3  0  0  0  0  0  0
  183.0510  179.0190  145.0710 C   0  0  0  0  0  3  0  0  0  0  0  0
  187.3900  177.9450  142.6560 C   0  0  0  0  0  2  0  0  0  0  0  0
  184.5670  178.0940  137.9710 C   0  0  1  0  0  3  0  0  0  0  0  0
  184.0210  176.9890  138.7620 N   0  0  0  0  0  2  0  0  0  0  0  0
  182.7340  178.8600  143.7060 C   0  0  0  0  0  0  0  0  0  0  0  0
  185.2920  177.9550  141.0730 C   0  0  2  0  0  3  0  0  0  0  0  0
  186.7930  178.6260  145.0580 C   0  0  0  0  0  2  0  0  0  0  0  0
  181.5140  178.8310  140.9020 N   0  0  0  0  0  0  0  0  0  0  0  0
  189.0160  177.6630  144.5080 C   0  0  0  0  0  1  0  0  0  0  0  0
  184.9700  179.2580  138.8600 C   0  0  0  0  0  2  0  0  0  0  0  0
  185.4830  176.5060  136.2480 C   0  0  0  0  0  1  0  0  0  0  0  0
  185.9430  178.7840  139.9430 C   0  0  2  0  0  3  0  0  0  0  0  0
  180.8000  178.6250  142.1330 C   0  0  0  0  0  3  0  0  0  0  0  0
  179.5970  179.0740  139.3440 C   0  0  0  0  0  3  0  0  0  0  0  0
  180.8290  179.5360  139.8430 C   0  0  0  0  0  0  0  0  0  0  0  0
  181.3670  180.7210  139.3100 C   0  0  0  0  0  3  0  0  0  0  0  0
  181.2360  182.5540  137.7940 F   0  0  0  0  0  0  0  0  0  0  0  0
  179.4840  180.9400  137.8080 C   0  0  0  0  0  3  0  0  0  0  0  0
  180.7010  181.4170  138.2980 C   0  0  0  0  0  0  0  0  0  0  0  0
  178.9310  179.7700  138.3320 C   0  0  0  0  0  3  0  0  0  0  0  0
  189.5960  178.1800  139.5180 O   0  0  0  0  0  1  0  0  0  0  0  0
  189.2420  178.3290  138.2190 N   0  0  0  0  0  2  0  0  0  0  0  0
  1 27  1  0  0  0  0
  2 14  1  0  0  0  0
  2 24  1  0  0  0  0
  2 22  1  0  0  0  0
  3  9  2  0  0  0  0
  3 20  1  0  0  0  0
  4 37  1  0  0  0  0
  4  1  1  0  0  0  0
  5 10  1  0  0  0  0
  6 22  1  0  0  0  0
  6 11  2  0  0  0  0
  7  3  1  0  0  0  0
  8 18  1  0  0  0  0
  8 12  1  0  0  0  0
  9  6  1  0  0  0  0
 10 23  1  0  0  0  0
 10  7  2  0  0  0  0
 12  4  1  0  0  0  0
 12  1  1  0  0  0  0
 13 17  1  0  0  0  0
 13  9  1  0  0  0  0
 15 20  1  0  0  0  0
 16 11  1  0  0  0  0
 17  2  1  0  0  0  0
 18 19  1  0  0  0  0
 18 25  1  0  0  0  0
 19  5  1  0  0  0  0
 20 16  2  0  0  0  0
 21  7  1  0  0  0  0
 21 13  1  0  0  0  0
 23 28  1  0  0  0  0
 25 27  1  0  0  0  0
 26  8  1  0  0  0  0
 27 21  1  0  0  0  0
 28 15  2  0  0  0  0
 29 30  1  0  0  0  0
 30 23  1  0  0  0  0
 31 30  2  0  0  0  0
 32 34  1  0  0  0  0
 33 34  2  0  0  0  0
 33 35  1  0  0  0  0
 34 31  1  0  0  0  0
 35 29  2  0  0  0  0
 37 36  1  0  0  0  0
M  END
>  <MODEL>
3

>  <REMARK>
 VINA RESULT:      -7.5      2.639      5.835
  Name = 
  2 active torsions:
  status: ('A' for Active; 'I' for Inactive)
    1  A    between atoms: C_4  and  N_37
    2  A    between atoms: N_23  and  C_30
                            x       y       z     vdW  Elec       q    Type
                         _______ _______ _______ _____ _____    ______ ____

>  <TORSDO>
F 2

$$$$
=
 OpenBabel11122411423D

 37 44  0  0  1  0  0  0  0  0999 V2000
  188.7780  177.2760  141.1930 C   0  0  2  0  0  3  0  0  0  0  0  0
  184.4990  178.8130  142.6470 C   0  0  0  0  0  0  0  0  0  0  0  0
  187.1640  177.9410  145.7030 C   0  0  0  0  0  0  0  0  0  0  0  0
  189.4470  176.2630  140.2900 C   0  0  2  0  0  3  0  0  0  0  0  0
  190.8460  178.4650  144.8590 N   0  0  0  0  0  2  0  0  0  0  0  0
  184.8580  178.1110  145.0470 C   0  0  0  0  0  0  0  0  0  0  0  0
  188.4520  178.0040  145.0020 C   0  0  0  0  0  0  0  0  0  0  0  0
  191.4080  177.2370  141.4300 C   0  0  2  0  0  3  0  0  0  0  0  0
  186.1900  177.8990  144.7480 C   0  0  0  0  0  0  0  0  0  0  0  0
  189.6590  178.1100  145.5990 C   0  0  0  0  0  0  0  0  0  0  0  0
  184.5040  178.3220  146.3450 N   0  0  0  0  0  0  0  0  0  0  0  0
  190.1640  177.5740  140.5960 C   0  0  2  0  0  3  0  0  0  0  0  0
  186.6980  177.9730  143.4390 N   0  0  0  0  0  0  0  0  0  0  0  0
  184.7250  180.3020  142.8500 C   0  0  0  0  0  1  0  0  0  0  0  0
  187.7910  178.5800  148.0700 C   0  0  0  0  0  3  0  0  0  0  0  0
  185.4520  178.4000  147.3280 C   0  0  0  0  0  3  0  0  0  0  0  0
  185.8350  178.1350  142.2690 C   0  0  0  0  0  2  0  0  0  0  0  0
  191.1860  177.2160  142.9390 C   0  0  1  0  0  3  0  0  0  0  0  0
  190.9170  178.5580  143.4600 N   0  0  0  0  0  2  0  0  0  0  0  0
  186.8200  178.2480  147.0270 C   0  0  0  0  0  0  0  0  0  0  0  0
  188.1570  178.0380  143.4960 C   0  0  2  0  0  3  0  0  0  0  0  0
  183.8700  178.1980  143.9200 C   0  0  0  0  0  2  0  0  0  0  0  0
  189.8350  177.7390  146.9830 N   0  0  0  0  0  0  0  0  0  0  0  0
  183.5300  178.6340  141.4980 C   0  0  0  0  0  1  0  0  0  0  0  0
  190.0310  176.2740  143.2260 C   0  0  0  0  0  2  0  0  0  0  0  0
  192.5640  178.1450  141.0500 C   0  0  0  0  0  1  0  0  0  0  0  0
  188.7240  176.8560  142.6790 C   0  0  2  0  0  3  0  0  0  0  0  0
  189.1030  178.3620  148.0510 C   0  0  0  0  0  3  0  0  0  0  0  0
  191.2790  175.7590  146.5830 C   0  0  0  0  0  3  0  0  0  0  0  0
  190.9550  176.8970  147.3430 C   0  0  0  0  0  0  0  0  0  0  0  0
  191.7640  177.2220  148.4470 C   0  0  0  0  0  3  0  0  0  0  0  0
  193.6240  176.7470  149.8580 F   0  0  0  0  0  0  0  0  0  0  0  0
  193.1610  175.2910  148.0300 C   0  0  0  0  0  3  0  0  0  0  0  0
  192.8580  176.4230  148.7900 C   0  0  0  0  0  0  0  0  0  0  0  0
  192.3730  174.9600  146.9260 C   0  0  0  0  0  3  0  0  0  0  0  0
  188.1990  177.5210  138.9010 O   0  0  0  0  0  1  0  0  0  0  0  0
  188.8560  176.3390  138.9670 N   0  0  0  0  0  2  0  0  0  0  0  0
  1 27  1  0  0  0  0
  2 14  1  0  0  0  0
  2 22  1  0  0  0  0
  3 20  1  0  0  0  0
  4 12  1  0  0  0  0
  4  1  1  0  0  0  0
  5 10  1  0  0  0  0
  6 11  2  0  0  0  0
  7 10  2  0  0  0  0
  7  3  1  0  0  0  0
  8 18  1  0  0  0  0
  9  6  1  0  0  0  0
  9  3  2  0  0  0  0
 10 23  1  0  0  0  0
 11 16  1  0  0  0  0
 12  1  1  0  0  0  0
 12  8  1  0  0  0  0
 13 21  1  0  0  0  0
 13  9  1  0  0  0  0
 17  2  1  0  0  0  0
 17 13  1  0  0  0  0
 18 25  1  0  0  0  0
 18 19  1  0  0  0  0
 19  5  1  0  0  0  0
 20 16  2  0  0  0  0
 20 15  1  0  0  0  0
 21  7  1  0  0  0  0
 22  6  1  0  0  0  0
 23 30  1  0  0  0  0
 23 28  1  0  0  0  0
 24  2  1  0  0  0  0
 26  8  1  0  0  0  0
 27 25  1  0  0  0  0
 27 21  1  0  0  0  0
 28 15  2  0  0  0  0
 29 35  2  0  0  0  0
 29 30  1  0  0  0  0
 30 31  2  0  0  0  0
 31 34  1  0  0  0  0
 33 34  2  0  0  0  0
 34 32  1  0  0  0  0
 35 33  1  0  0  0  0
 36 37  1  0  0  0  0
 37  4  1  0  0  0  0
M  END
>  <MODEL>
4

>  <REMARK>
 VINA RESULT:      -7.1      4.454      8.684
  Name = 
  2 active torsions:
  status: ('A' for Active; 'I' for Inactive)
    1  A    between atoms: C_4  and  N_37
    2  A    between atoms: N_23  and  C_30
                            x       y       z     vdW  Elec       q    Type
                         _______ _______ _______ _____ _____    ______ ____

>  <TORSDO>
F 2

$$$$
=
 OpenBabel11122411423D

 37 44  0  0  1  0  0  0  0  0999 V2000
  185.3350  178.0860  138.5960 C   0  0  2  0  0  3  0  0  0  0  0  0
  185.0620  178.8670  143.2970 C   0  0  0  0  0  0  0  0  0  0  0  0
  188.7600  177.5420  141.9650 C   0  0  0  0  0  0  0  0  0  0  0  0
  184.6430  177.3730  137.4540 C   0  0  2  0  0  3  0  0  0  0  0  0
  189.6780  178.5650  138.4070 N   0  0  0  0  0  2  0  0  0  0  0  0
  187.2220  177.6600  143.8080 C   0  0  0  0  0  0  0  0  0  0  0  0
  188.7010  177.8780  140.5370 C   0  0  0  0  0  0  0  0  0  0  0  0
  186.6630  178.2210  136.3160 C   0  0  2  0  0  3  0  0  0  0  0  0
  187.4890  177.6390  142.4520 C   0  0  0  0  0  0  0  0  0  0  0  0
  189.7650  177.9460  139.7080 C   0  0  0  0  0  0  0  0  0  0  0  0
  188.2580  177.5310  144.6820 N   0  0  0  0  0  0  0  0  0  0  0  0
  185.4490  178.6340  137.1620 C   0  0  2  0  0  3  0  0  0  0  0  0
  186.5590  178.0590  141.4860 N   0  0  0  0  0  0  0  0  0  0  0  0
  185.6000  180.2810  143.4370 C   0  0  0  0  0  1  0  0  0  0  0  0
  191.2400  177.6650  142.4580 C   0  0  0  0  0  3  0  0  0  0  0  0
  189.5500  177.4610  144.2350 C   0  0  0  0  0  3  0  0  0  0  0  0
  185.1800  178.4130  141.8250 C   0  0  0  0  0  2  0  0  0  0  0  0
  187.9030  177.8310  137.1140 C   0  0  1  0  0  3  0  0  0  0  0  0
  188.4840  178.9860  137.8010 N   0  0  0  0  0  2  0  0  0  0  0  0
  189.8410  177.5020  142.8560 C   0  0  0  0  0  0  0  0  0  0  0  0
  187.2450  178.2350  140.2080 C   0  0  2  0  0  3  0  0  0  0  0  0
  185.8160  177.9200  144.2620 C   0  0  0  0  0  2  0  0  0  0  0  0
  191.0030  177.2790  140.0360 N   0  0  0  0  0  0  0  0  0  0  0  0
  183.5980  178.8760  143.6790 C   0  0  0  0  0  1  0  0  0  0  0  0
  187.4980  176.7510  138.1030 C   0  0  0  0  0  2  0  0  0  0  0  0
  186.9780  179.2890  135.2850 C   0  0  0  0  0  1  0  0  0  0  0  0
  186.5560  177.3290  139.1620 C   0  0  2  0  0  3  0  0  0  0  0  0
  191.7460  177.5720  141.2320 C   0  0  0  0  0  3  0  0  0  0  0  0
  192.9970  176.7080  138.6720 C   0  0  0  0  0  3  0  0  0  0  0  0
  191.6540  176.4780  139.0250 C   0  0  0  0  0  0  0  0  0  0  0  0
  190.9640  175.4260  138.3960 C   0  0  0  0  0  3  0  0  0  0  0  0
  190.9130  173.6300  136.8310 F   0  0  0  0  0  0  0  0  0  0  0  0
  192.9230  174.8820  137.0850 C   0  0  0  0  0  3  0  0  0  0  0  0
  191.5930  174.6360  137.4300 C   0  0  0  0  0  0  0  0  0  0  0  0
  193.6250  175.9170  137.7060 C   0  0  0  0  0  3  0  0  0  0  0  0
  183.0850  178.7500  138.3170 O   0  0  0  0  0  1  0  0  0  0  0  0
  183.2300  177.7030  137.4710 N   0  0  0  0  0  2  0  0  0  0  0  0
  1 27  1  0  0  0  0
  2 14  1  0  0  0  0
  2 24  1  0  0  0  0
  2 22  1  0  0  0  0
  3  9  2  0  0  0  0
  3 20  1  0  0  0  0
  4 37  1  0  0  0  0
  4  1  1  0  0  0  0
  5 10  1  0  0  0  0
  6 22  1  0  0  0  0
  6 11  2  0  0  0  0
  7  3  1  0  0  0  0
  8 18  1  0  0  0  0
  8 12  1  0  0  0  0
  9  6  1  0  0  0  0
 10 23  1  0  0  0  0
 10  7  2  0  0  0  0
 12  4  1  0  0  0  0
 12  1  1  0  0  0  0
 13 17  1  0  0  0  0
 13  9  1  0  0  0  0
 15 20  1  0  0  0  0
 16 11  1  0  0  0  0
 17  2  1  0  0  0  0
 18 19  1  0  0  0  0
 18 25  1  0  0  0  0
 19  5  1  0  0  0  0
 20 16  2  0  0  0  0
 21  7  1  0  0  0  0
 21 13  1  0  0  0  0
 23 28  1  0  0  0  0
 25 27  1  0  0  0  0
 26  8  1  0  0  0  0
 27 21  1  0  0  0  0
 28 15  2  0  0  0  0
 29 30  1  0  0  0  0
 30 23  1  0  0  0  0
 31 30  2  0  0  0  0
 32 34  1  0  0  0  0
 33 34  2  0  0  0  0
 33 35  1  0  0  0  0
 34 31  1  0  0  0  0
 35 29  2  0  0  0  0
 37 36  1  0  0  0  0
M  END
>  <MODEL>
5

>  <REMARK>
 VINA RESULT:      -6.5      3.020      4.770
  Name = 
  2 active torsions:
  status: ('A' for Active; 'I' for Inactive)
    1  A    between atoms: C_4  and  N_37
    2  A    between atoms: N_23  and  C_30
                            x       y       z     vdW  Elec       q    Type
                         _______ _______ _______ _____ _____    ______ ____

>  <TORSDO>
F 2

$$$$
=
 OpenBabel11122411423D

 37 44  0  0  1  0  0  0  0  0999 V2000
  185.6940  177.6450  136.7980 C   0  0  2  0  0  3  0  0  0  0  0  0
  181.3900  179.0730  138.2860 C   0  0  0  0  0  0  0  0  0  0  0  0
  184.1350  178.3750  141.3160 C   0  0  0  0  0  0  0  0  0  0  0  0
  186.3830  176.6320  135.9090 C   0  0  2  0  0  3  0  0  0  0  0  0
  187.7820  179.0030  140.3930 N   0  0  0  0  0  2  0  0  0  0  0  0
  181.8130  178.4490  140.6970 C   0  0  0  0  0  0  0  0  0  0  0  0
  185.4080  178.4640  140.5910 C   0  0  0  0  0  0  0  0  0  0  0  0
  188.3280  177.7040  136.9880 C   0  0  2  0  0  3  0  0  0  0  0  0
  183.1470  178.2740  140.3800 C   0  0  0  0  0  0  0  0  0  0  0  0
  186.6210  178.6270  141.1640 C   0  0  0  0  0  0  0  0  0  0  0  0
  181.4740  178.6820  141.9950 N   0  0  0  0  0  0  0  0  0  0  0  0
  187.0590  177.9750  136.1680 C   0  0  2  0  0  3  0  0  0  0  0  0
  183.6300  178.3310  139.0610 N   0  0  0  0  0  0  0  0  0  0  0  0
  181.5670  180.5740  138.4470 C   0  0  0  0  0  1  0  0  0  0  0  0
  184.7800  179.0990  143.6550 C   0  0  0  0  0  3  0  0  0  0  0  0
  182.4360  178.8190  142.9590 C   0  0  0  0  0  3  0  0  0  0  0  0
  182.7420  178.4310  137.9030 C   0  0  0  0  0  2  0  0  0  0  0  0
  188.1330  177.7150  138.5010 C   0  0  1  0  0  3  0  0  0  0  0  0
  187.8250  179.0600  138.9910 N   0  0  0  0  0  2  0  0  0  0  0  0
  183.8030  178.7060  142.6380 C   0  0  0  0  0  0  0  0  0  0  0  0
  185.0860  178.4480  139.0910 C   0  0  2  0  0  3  0  0  0  0  0  0
  180.8050  178.4710  139.5870 C   0  0  0  0  0  2  0  0  0  0  0  0
  186.8330  178.3000  142.5540 N   0  0  0  0  0  0  0  0  0  0  0  0
  180.4080  178.8300  137.1610 C   0  0  0  0  0  1  0  0  0  0  0  0
  187.0160  176.7420  138.8330 C   0  0  0  0  0  2  0  0  0  0  0  0
  189.4450  178.6400  136.5640 C   0  0  0  0  0  1  0  0  0  0  0  0
  185.6810  177.2640  138.2940 C   0  0  2  0  0  3  0  0  0  0  0  0
  186.0980  178.9260  143.6180 C   0  0  0  0  0  3  0  0  0  0  0  0
  188.6790  176.7530  141.9500 C   0  0  0  0  0  3  0  0  0  0  0  0
  187.9870  177.5070  142.9160 C   0  0  0  0  0  0  0  0  0  0  0  0
  188.4610  177.5010  144.2400 C   0  0  0  0  0  3  0  0  0  0  0  0
  190.0260  176.7540  145.8740 F   0  0  0  0  0  0  0  0  0  0  0  0
  190.2570  176.0020  143.6250 C   0  0  0  0  0  3  0  0  0  0  0  0
  189.5860  176.7520  144.5930 C   0  0  0  0  0  0  0  0  0  0  0  0
  189.8050  176.0040  142.3030 C   0  0  0  0  0  3  0  0  0  0  0  0
  184.4720  177.0020  134.7770 O   0  0  0  0  0  1  0  0  0  0  0  0
  185.7670  176.6520  134.5960 N   0  0  0  0  0  2  0  0  0  0  0  0
  1 27  1  0  0  0  0
  2 14  1  0  0  0  0
  2 22  1  0  0  0  0
  3 20  1  0  0  0  0
  4 12  1  0  0  0  0
  4  1  1  0  0  0  0
  5 10  1  0  0  0  0
  6 11  2  0  0  0  0
  7 10  2  0  0  0  0
  7  3  1  0  0  0  0
  8 18  1  0  0  0  0
  9  6  1  0  0  0  0
  9  3  2  0  0  0  0
 10 23  1  0  0  0  0
 11 16  1  0  0  0  0
 12  1  1  0  0  0  0
 12  8  1  0  0  0  0
 13 21  1  0  0  0  0
 13  9  1  0  0  0  0
 17  2  1  0  0  0  0
 17 13  1  0  0  0  0
 18 25  1  0  0  0  0
 18 19  1  0  0  0  0
 19  5  1  0  0  0  0
 20 16  2  0  0  0  0
 20 15  1  0  0  0  0
 21  7  1  0  0  0  0
 22  6  1  0  0  0  0
 23 30  1  0  0  0  0
 23 28  1  0  0  0  0
 24  2  1  0  0  0  0
 26  8  1  0  0  0  0
 27 25  1  0  0  0  0
 27 21  1  0  0  0  0
 28 15  2  0  0  0  0
 29 35  2  0  0  0  0
 29 30  1  0  0  0  0
 30 31  2  0  0  0  0
 31 34  1  0  0  0  0
 33 34  2  0  0  0  0
 34 32  1  0  0  0  0
 35 33  1  0  0  0  0
 37 36  1  0  0  0  0
 37  4  1  0  0  0  0
M  END
>  <MODEL>
6

>  <REMARK>
 VINA RESULT:      -6.0      2.972      6.907
  Name = 
  2 active torsions:
  status: ('A' for Active; 'I' for Inactive)
    1  A    between atoms: C_4  and  N_37
    2  A    between atoms: N_23  and  C_30
                            x       y       z     vdW  Elec       q    Type
                         _______ _______ _______ _____ _____    ______ ____

>  <TORSDO>
F 2

$$$$
