=
 OpenBabel11122411113D

 31 35  0  0  1  0  0  0  0  0999 V2000
  184.9050  178.2290  145.3710 C   0  0  0  0  0  0  0  0  0  0  0  0
  188.4040  177.5250  144.1880 N   0  0  0  0  0  0  0  0  0  0  0  0
  189.0450  177.0280  145.4160 C   0  0  2  0  0  3  0  0  0  0  0  0
  187.3160  178.7200  139.1040 O   0  0  0  0  0  0  0  0  0  0  0  0
  188.5120  178.3340  139.1900 C   0  0  0  0  0  0  0  0  0  0  0  0
  189.8360  177.5320  147.6950 C   0  0  2  0  0  3  0  0  0  0  0  0
  187.0070  177.8820  144.1990 C   0  0  0  0  0  0  0  0  0  0  0  0
  184.2900  178.5860  144.1690 C   0  0  0  0  0  3  0  0  0  0  0  0
  189.2410  178.1460  146.4360 C   0  0  0  0  0  2  0  0  0  0  0  0
  188.3720  177.8800  141.7040 C   0  0  0  0  0  0  0  0  0  0  0  0
  184.1900  178.2240  146.5220 F   0  0  0  0  0  0  0  0  0  0  0  0
  190.6180  175.6150  143.8260 C   0  0  0  0  0  2  0  0  0  0  0  0
  189.9360  178.5840  148.7790 C   0  0  0  0  0  1  0  0  0  0  0  0
  187.1230  178.2360  141.7790 N   0  0  0  0  0  0  0  0  0  0  0  0
  189.1410  177.4150  142.9190 C   0  0  2  0  0  3  0  0  0  0  0  0
  189.0630  177.9220  140.4490 N   0  0  0  0  0  2  0  0  0  0  0  0
  186.2580  177.8780  145.3870 C   0  0  0  0  0  3  0  0  0  0  0  0
  191.2270  176.9650  147.4030 C   0  0  0  0  0  2  0  0  0  0  0  0
  186.3810  178.2360  142.9970 C   0  0  0  0  0  0  0  0  0  0  0  0
  185.0280  178.5890  142.9830 C   0  0  0  0  0  3  0  0  0  0  0  0
  189.5920  175.9710  142.7500 C   0  0  0  0  0  2  0  0  0  0  0  0
  190.3480  176.2810  145.1520 C   0  0  0  0  0  0  0  0  0  0  0  0
  191.3000  176.2110  146.0960 C   0  0  0  0  0  3  0  0  0  0  0  0
  187.9680  177.0140  135.6820 C   0  0  1  0  0  3  0  0  0  0  0  0
  188.7320  179.1200  136.8140 C   0  0  0  0  0  2  0  0  0  0  0  0
  190.2130  176.1140  138.5270 O   0  0  0  0  0  1  0  0  0  0  0  0
  186.7720  176.3120  135.0740 C   0  0  0  0  0  1  0  0  0  0  0  0
  187.5460  178.3920  136.1810 C   0  0  0  0  0  2  0  0  0  0  0  0
  189.7090  176.8810  137.4750 C   0  0  2  0  0  3  0  0  0  0  0  0
  189.3570  178.3000  137.9490 C   0  0  2  0  0  3  0  0  0  0  0  0
  188.5130  176.1780  136.8360 C   0  0  0  0  0  2  0  0  0  0  0  0
  1 17  1  0  0  0  0
  1 11  1  0  0  0  0
  2  7  1  0  0  0  0
  2  3  1  0  0  0  0
  3  9  1  1  0  0  0
  4  5  2  0  0  0  0
  5 16  1  0  0  0  0
  6 13  1  1  0  0  0
  7 17  2  0  0  0  0
  8  1  2  0  0  0  0
  9  6  1  0  0  0  0
 10 14  2  0  0  0  0
 10 15  1  0  0  0  0
 12 22  1  0  0  0  0
 14 19  1  0  0  0  0
 15 21  1  6  0  0  0
 15  2  1  0  0  0  0
 16 10  1  0  0  0  0
 18  6  1  0  0  0  0
 19  7  1  0  0  0  0
 20 19  2  0  0  0  0
 20  8  1  0  0  0  0
 21 12  1  0  0  0  0
 22  3  1  0  0  0  0
 22 23  2  0  0  0  0
 23 18  1  0  0  0  0
 24 27  1  1  0  0  0
 24 28  1  0  0  0  0
 24 31  1  0  0  0  0
 25 30  1  0  0  0  0
 28 25  1  0  0  0  0
 29 30  1  0  0  0  0
 29 26  1  1  0  0  0
 30  5  1  1  0  0  0
 31 29  1  0  0  0  0
M  END
>  <MODEL>
1

>  <REMARK>
 VINA RESULT:     -10.4      0.000      0.000
  Name = 
  1 active torsions:
  status: ('A' for Active; 'I' for Inactive)
    1  A    between atoms: C_5  and  C_30
                            x       y       z     vdW  Elec       q    Type
                         _______ _______ _______ _____ _____    ______ ____

>  <TORSDO>
F 1

$$$$
=
 OpenBabel11122411113D

 31 35  0  0  1  0  0  0  0  0999 V2000
  182.6070  178.6650  143.2140 C   0  0  0  0  0  0  0  0  0  0  0  0
  186.3300  178.1880  143.4330 N   0  0  0  0  0  0  0  0  0  0  0  0
  186.5150  177.8940  144.8630 C   0  0  2  0  0  3  0  0  0  0  0  0
  187.0750  178.7110  138.1760 O   0  0  0  0  0  0  0  0  0  0  0  0
  188.1790  178.4570  138.7270 C   0  0  0  0  0  0  0  0  0  0  0  0
  186.4070  178.7180  147.1840 C   0  0  2  0  0  3  0  0  0  0  0  0
  185.0050  178.4040  142.9080 C   0  0  0  0  0  0  0  0  0  0  0  0
  182.4450  178.8270  141.8360 C   0  0  0  0  0  3  0  0  0  0  0  0
  186.2700  179.1300  145.7250 C   0  0  0  0  0  2  0  0  0  0  0  0
  187.1720  178.2670  141.0710 C   0  0  0  0  0  0  0  0  0  0  0  0
  181.5280  178.7140  144.0320 F   0  0  0  0  0  0  0  0  0  0  0  0
  188.6270  176.4800  144.1320 C   0  0  0  0  0  2  0  0  0  0  0  0
  186.0540  179.8870  148.0790 C   0  0  0  0  0  1  0  0  0  0  0  0
  185.9620  178.5030  140.6560 N   0  0  0  0  0  0  0  0  0  0  0  0
  187.4780  178.0150  142.5280 C   0  0  2  0  0  3  0  0  0  0  0  0
  188.2640  178.2410  140.1430 N   0  0  0  0  0  2  0  0  0  0  0  0
  183.8810  178.4550  143.7480 C   0  0  0  0  0  3  0  0  0  0  0  0
  187.8390  178.2640  147.4750 C   0  0  0  0  0  2  0  0  0  0  0  0
  184.8330  178.5610  141.5260 C   0  0  0  0  0  0  0  0  0  0  0  0
  183.5590  178.7740  140.9930 C   0  0  0  0  0  3  0  0  0  0  0  0
  188.0370  176.6140  142.7270 C   0  0  0  0  0  2  0  0  0  0  0  0
  187.8640  177.2560  145.1750 C   0  0  0  0  0  0  0  0  0  0  0  0
  188.4170  177.3850  146.3920 C   0  0  0  0  0  3  0  0  0  0  0  0
  189.7710  175.6960  136.6790 C   0  0  1  0  0  3  0  0  0  0  0  0
  189.0730  178.0920  136.4070 C   0  0  0  0  0  2  0  0  0  0  0  0
  190.7210  177.5910  139.7530 O   0  0  0  0  0  1  0  0  0  0  0  0
  189.3390  174.2600  136.4670 C   0  0  0  0  0  1  0  0  0  0  0  0
  188.6700  176.6330  136.1910 C   0  0  0  0  0  2  0  0  0  0  0  0
  190.4630  177.3790  138.3980 C   0  0  2  0  0  3  0  0  0  0  0  0
  189.4130  178.3730  137.8750 C   0  0  2  0  0  3  0  0  0  0  0  0
  190.0450  175.9280  138.1610 C   0  0  0  0  0  2  0  0  0  0  0  0
  1 17  1  0  0  0  0
  1 11  1  0  0  0  0
  2  3  1  0  0  0  0
  3 22  1  0  0  0  0
  3  9  1  1  0  0  0
  4  5  2  0  0  0  0
  5 16  1  0  0  0  0
  6 18  1  0  0  0  0
  6 13  1  1  0  0  0
  7  2  1  0  0  0  0
  7 17  2  0  0  0  0
  8  1  2  0  0  0  0
  9  6  1  0  0  0  0
 10 15  1  0  0  0  0
 12 22  1  0  0  0  0
 14 10  2  0  0  0  0
 14 19  1  0  0  0  0
 15 21  1  6  0  0  0
 15  2  1  0  0  0  0
 16 10  1  0  0  0  0
 19  7  1  0  0  0  0
 20 19  2  0  0  0  0
 20  8  1  0  0  0  0
 21 12  1  0  0  0  0
 22 23  2  0  0  0  0
 23 18  1  0  0  0  0
 24 27  1  1  0  0  0
 24 31  1  0  0  0  0
 25 30  1  0  0  0  0
 28 25  1  0  0  0  0
 28 24  1  0  0  0  0
 29 26  1  1  0  0  0
 30 29  1  0  0  0  0
 30  5  1  1  0  0  0
 31 29  1  0  0  0  0
M  END
>  <MODEL>
2

>  <REMARK>
 VINA RESULT:      -9.5      1.720      2.500
  Name = 
  1 active torsions:
  status: ('A' for Active; 'I' for Inactive)
    1  A    between atoms: C_5  and  C_30
                            x       y       z     vdW  Elec       q    Type
                         _______ _______ _______ _____ _____    ______ ____

>  <TORSDO>
F 1

$$$$
=
 OpenBabel11122411113D

 31 35  0  0  1  0  0  0  0  0999 V2000
  183.3950  178.9600  140.1560 C   0  0  0  0  0  0  0  0  0  0  0  0
  186.7730  178.0780  138.7590 N   0  0  0  0  0  0  0  0  0  0  0  0
  186.5160  178.0920  137.3100 C   0  0  2  0  0  3  0  0  0  0  0  0
  189.1470  178.0500  143.5370 O   0  0  0  0  0  0  0  0  0  0  0  0
  190.0090  177.8260  142.6470 C   0  0  0  0  0  0  0  0  0  0  0  0
  185.3680  177.0490  135.3950 C   0  0  2  0  0  3  0  0  0  0  0  0
  185.7160  178.4100  139.6820 C   0  0  0  0  0  0  0  0  0  0  0  0
  183.6920  179.0530  141.5170 C   0  0  0  0  0  3  0  0  0  0  0  0
  185.6450  176.9130  136.8860 C   0  0  0  0  0  2  0  0  0  0  0  0
  188.3360  178.0340  140.7220 C   0  0  0  0  0  0  0  0  0  0  0  0
  182.1300  179.1770  139.7220 F   0  0  0  0  0  0  0  0  0  0  0  0
  189.0580  178.7680  137.0320 C   0  0  0  0  0  2  0  0  0  0  0  0
  184.4070  175.9650  134.9530 C   0  0  0  0  0  1  0  0  0  0  0  0
  187.3370  178.2920  141.5130 N   0  0  0  0  0  0  0  0  0  0  0  0
  188.1660  177.9620  139.2220 C   0  0  2  0  0  3  0  0  0  0  0  0
  189.6450  177.8040  141.2590 N   0  0  0  0  0  2  0  0  0  0  0  0
  184.4020  178.6390  139.2410 C   0  0  0  0  0  3  0  0  0  0  0  0
  186.6700  176.9330  134.6010 C   0  0  0  0  0  2  0  0  0  0  0  0
  186.0060  178.5110  141.0480 C   0  0  0  0  0  0  0  0  0  0  0  0
  184.9970  178.8300  141.9620 C   0  0  0  0  0  3  0  0  0  0  0  0
  188.9900  179.0410  138.5350 C   0  0  0  0  0  2  0  0  0  0  0  0
  187.7890  178.1720  136.4760 C   0  0  0  0  0  0  0  0  0  0  0  0
  187.8160  177.6950  135.2210 C   0  0  0  0  0  3  0  0  0  0  0  0
  191.6520  176.5920  145.8290 C   0  0  1  0  0  3  0  0  0  0  0  0
  191.7010  176.1140  143.3640 C   0  0  0  0  0  2  0  0  0  0  0  0
  191.5960  179.8270  143.9650 O   0  0  0  0  0  1  0  0  0  0  0  0
  191.0400  176.1720  147.1480 C   0  0  0  0  0  1  0  0  0  0  0  0
  191.1100  175.7020  144.7130 C   0  0  0  0  0  2  0  0  0  0  0  0
  191.9030  178.4890  144.2150 C   0  0  2  0  0  3  0  0  0  0  0  0
  191.4340  177.5910  143.0580 C   0  0  2  0  0  3  0  0  0  0  0  0
  191.3100  178.0530  145.5540 C   0  0  0  0  0  2  0  0  0  0  0  0
  1  8  1  0  0  0  0
  2 15  1  0  0  0  0
  2  7  1  0  0  0  0
  3  9  1  6  0  0  0
  3  2  1  0  0  0  0
  5  4  2  0  0  0  0
  6 13  1  6  0  0  0
  6  9  1  0  0  0  0
  7 19  2  0  0  0  0
  8 20  2  0  0  0  0
 10 16  1  0  0  0  0
 10 14  2  0  0  0  0
 11  1  1  0  0  0  0
 12 21  1  0  0  0  0
 15 21  1  6  0  0  0
 15 10  1  0  0  0  0
 16  5  1  0  0  0  0
 17  7  1  0  0  0  0
 17  1  2  0  0  0  0
 18 23  1  0  0  0  0
 18  6  1  0  0  0  0
 19 14  1  0  0  0  0
 19 20  1  0  0  0  0
 22 12  1  0  0  0  0
 22  3  1  0  0  0  0
 23 22  2  0  0  0  0
 24 27  1  1  0  0  0
 25 28  1  0  0  0  0
 28 24  1  0  0  0  0
 29 26  1  6  0  0  0
 29 31  1  0  0  0  0
 30  5  1  1  0  0  0
 30 25  1  0  0  0  0
 30 29  1  0  0  0  0
 31 24  1  0  0  0  0
M  END
>  <MODEL>
3

>  <REMARK>
 VINA RESULT:      -8.6      2.611      7.960
  Name = 
  1 active torsions:
  status: ('A' for Active; 'I' for Inactive)
    1  A    between atoms: C_5  and  C_30
                            x       y       z     vdW  Elec       q    Type
                         _______ _______ _______ _____ _____    ______ ____

>  <TORSDO>
F 1

$$$$
=
 OpenBabel11122411113D

 31 35  0  0  1  0  0  0  0  0999 V2000
  183.5860  178.8940  144.7330 C   0  0  0  0  0  0  0  0  0  0  0  0
  183.6680  178.6230  140.9840 N   0  0  0  0  0  0  0  0  0  0  0  0
  182.2470  178.7850  140.6370 C   0  0  2  0  0  3  0  0  0  0  0  0
  188.9880  178.3020  140.7570 O   0  0  0  0  0  0  0  0  0  0  0  0
  188.5250  178.3010  139.5860 C   0  0  0  0  0  0  0  0  0  0  0  0
  179.9680  177.8510  140.7300 C   0  0  2  0  0  3  0  0  0  0  0  0
  184.0860  178.7030  142.3610 C   0  0  0  0  0  0  0  0  0  0  0  0
  184.9510  178.8540  145.0270 C   0  0  0  0  0  3  0  0  0  0  0  0
  181.4270  177.5680  141.0550 C   0  0  0  0  0  2  0  0  0  0  0  0
  186.0960  178.5340  140.3560 C   0  0  0  0  0  0  0  0  0  0  0  0
  182.6800  179.0030  145.7350 F   0  0  0  0  0  0  0  0  0  0  0  0
  183.0910  179.8050  138.3470 C   0  0  0  0  0  2  0  0  0  0  0  0
  179.1010  176.7180  141.2390 C   0  0  0  0  0  1  0  0  0  0  0  0
  186.4140  178.5640  141.6160 N   0  0  0  0  0  0  0  0  0  0  0  0
  184.6600  178.6280  139.8960 C   0  0  2  0  0  3  0  0  0  0  0  0
  187.1130  178.4060  139.3540 N   0  0  0  0  0  2  0  0  0  0  0  0
  183.1550  178.8180  143.4060 C   0  0  0  0  0  3  0  0  0  0  0  0
  179.7800  177.9990  139.2190 C   0  0  0  0  0  2  0  0  0  0  0  0
  185.4530  178.6700  142.6650 C   0  0  0  0  0  0  0  0  0  0  0  0
  185.8830  178.7430  143.9930 C   0  0  0  0  0  3  0  0  0  0  0  0
  184.4440  179.8790  139.0560 C   0  0  0  0  0  2  0  0  0  0  0  0
  182.0230  179.1280  139.1680 C   0  0  0  0  0  0  0  0  0  0  0  0
  180.8660  178.8170  138.5610 C   0  0  0  0  0  3  0  0  0  0  0  0
  188.2490  176.8880  136.0830 C   0  0  1  0  0  3  0  0  0  0  0  0
  188.9870  179.0020  137.2190 C   0  0  0  0  0  2  0  0  0  0  0  0
  190.1930  176.0030  139.1460 O   0  0  0  0  0  1  0  0  0  0  0  0
  187.0880  176.2080  135.3890 C   0  0  0  0  0  1  0  0  0  0  0  0
  187.8360  178.2960  136.5010 C   0  0  0  0  0  2  0  0  0  0  0  0
  189.8160  176.7520  138.0300 C   0  0  2  0  0  3  0  0  0  0  0  0
  189.4760  178.1980  138.4280 C   0  0  2  0  0  3  0  0  0  0  0  0
  188.6570  176.0710  137.3050 C   0  0  0  0  0  2  0  0  0  0  0  0
  1  8  1  0  0  0  0
  1 11  1  0  0  0  0
  2  7  1  0  0  0  0
  3  2  1  0  0  0  0
  3  9  1  6  0  0  0
  5  4  2  0  0  0  0
  6  9  1  0  0  0  0
  6 13  1  6  0  0  0
  7 19  2  0  0  0  0
  7 17  1  0  0  0  0
 10 14  2  0  0  0  0
 12 21  1  0  0  0  0
 12 22  1  0  0  0  0
 14 19  1  0  0  0  0
 15 21  1  1  0  0  0
 15 10  1  0  0  0  0
 15  2  1  0  0  0  0
 16  5  1  0  0  0  0
 16 10  1  0  0  0  0
 17  1  2  0  0  0  0
 18  6  1  0  0  0  0
 19 20  1  0  0  0  0
 20  8  2  0  0  0  0
 22  3  1  0  0  0  0
 23 22  2  0  0  0  0
 23 18  1  0  0  0  0
 24 27  1  1  0  0  0
 24 28  1  0  0  0  0
 24 31  1  0  0  0  0
 25 30  1  0  0  0  0
 28 25  1  0  0  0  0
 29 30  1  0  0  0  0
 29 26  1  1  0  0  0
 30  5  1  1  0  0  0
 31 29  1  0  0  0  0
M  END
>  <MODEL>
4

>  <REMARK>
 VINA RESULT:      -8.3      3.178      6.360
  Name = 
  1 active torsions:
  status: ('A' for Active; 'I' for Inactive)
    1  A    between atoms: C_5  and  C_30
                            x       y       z     vdW  Elec       q    Type
                         _______ _______ _______ _____ _____    ______ ____

>  <TORSDO>
F 1

$$$$
=
 OpenBabel11122411113D

 31 35  0  0  1  0  0  0  0  0999 V2000
  190.6400  177.2850  145.7150 C   0  0  0  0  0  0  0  0  0  0  0  0
  188.0210  177.7420  143.0560 N   0  0  0  0  0  0  0  0  0  0  0  0
  186.9460  178.4160  143.8020 C   0  0  2  0  0  3  0  0  0  0  0  0
  191.1030  175.7800  139.1680 O   0  0  0  0  0  0  0  0  0  0  0  0
  190.0070  176.1580  138.6750 C   0  0  0  0  0  0  0  0  0  0  0  0
  185.2340  178.2640  145.5680 C   0  0  2  0  0  3  0  0  0  0  0  0
  189.2590  177.4120  143.7180 C   0  0  0  0  0  0  0  0  0  0  0  0
  191.6880  176.7530  144.9600 C   0  0  0  0  0  3  0  0  0  0  0  0
  186.2740  177.4690  144.7920 C   0  0  0  0  0  2  0  0  0  0  0  0
  189.0880  177.0020  140.9090 C   0  0  0  0  0  0  0  0  0  0  0  0
  190.7950  177.4810  147.0470 F   0  0  0  0  0  0  0  0  0  0  0  0
  186.2780  179.5380  141.5010 C   0  0  0  0  0  2  0  0  0  0  0  0
  184.6250  177.3930  146.6470 C   0  0  0  0  0  1  0  0  0  0  0  0
  190.1640  176.6820  141.5630 N   0  0  0  0  0  0  0  0  0  0  0  0
  187.9010  177.6410  141.5920 C   0  0  2  0  0  3  0  0  0  0  0  0
  188.9950  176.7540  139.5000 N   0  0  0  0  0  2  0  0  0  0  0  0
  189.4300  177.6130  145.0970 C   0  0  0  0  0  3  0  0  0  0  0  0
  184.1330  178.7570  144.6270 C   0  0  0  0  0  2  0  0  0  0  0  0
  190.3170  176.8830  142.9670 C   0  0  0  0  0  0  0  0  0  0  0  0
  191.5250  176.5530  143.5870 C   0  0  0  0  0  3  0  0  0  0  0  0
  187.6440  179.0330  141.0350 C   0  0  0  0  0  2  0  0  0  0  0  0
  185.9220  179.0930  142.8970 C   0  0  0  0  0  0  0  0  0  0  0  0
  184.6630  179.2950  143.3190 C   0  0  0  0  0  3  0  0  0  0  0  0
  186.9250  176.2560  136.4760 C   0  0  1  0  0  3  0  0  0  0  0  0
  189.2240  177.2610  136.5580 C   0  0  0  0  0  2  0  0  0  0  0  0
  189.3630  173.6180  137.4930 O   0  0  0  0  0  1  0  0  0  0  0  0
  185.4720  176.4850  136.8340 C   0  0  0  0  0  1  0  0  0  0  0  0
  187.7470  177.4710  136.8960 C   0  0  0  0  0  2  0  0  0  0  0  0
  188.9020  174.7670  136.8500 C   0  0  2  0  0  3  0  0  0  0  0  0
  189.7740  175.9840  137.2020 C   0  0  2  0  0  3  0  0  0  0  0  0
  187.4300  175.0040  137.1840 C   0  0  0  0  0  2  0  0  0  0  0  0
  1 11  1  0  0  0  0
  2  7  1  0  0  0  0
  2  3  1  0  0  0  0
  3  9  1  6  0  0  0
  5  4  2  0  0  0  0
  5 16  1  0  0  0  0
  6 13  1  1  0  0  0
  7 17  2  0  0  0  0
  8  1  2  0  0  0  0
  9  6  1  0  0  0  0
 10 14  2  0  0  0  0
 10 15  1  0  0  0  0
 12 22  1  0  0  0  0
 14 19  1  0  0  0  0
 15 21  1  6  0  0  0
 15  2  1  0  0  0  0
 16 10  1  0  0  0  0
 17  1  1  0  0  0  0
 18  6  1  0  0  0  0
 19 20  2  0  0  0  0
 19  7  1  0  0  0  0
 20  8  1  0  0  0  0
 21 12  1  0  0  0  0
 22 23  2  0  0  0  0
 22  3  1  0  0  0  0
 23 18  1  0  0  0  0
 24 27  1  1  0  0  0
 24 28  1  0  0  0  0
 24 31  1  0  0  0  0
 25 28  1  0  0  0  0
 25 30  1  0  0  0  0
 29 31  1  0  0  0  0
 29 30  1  0  0  0  0
 29 26  1  1  0  0  0
 30  5  1  1  0  0  0
M  END
>  <MODEL>
5

>  <REMARK>
 VINA RESULT:      -8.2      2.023      4.379
  Name = 
  1 active torsions:
  status: ('A' for Active; 'I' for Inactive)
    1  A    between atoms: C_5  and  C_30
                            x       y       z     vdW  Elec       q    Type
                         _______ _______ _______ _____ _____    ______ ____

>  <TORSDO>
F 1

$$$$
=
 OpenBabel11122411113D

 31 35  0  0  1  0  0  0  0  0999 V2000
  189.3520  178.2490  141.3890 C   0  0  0  0  0  0  0  0  0  0  0  0
  186.7220  178.1540  144.0750 N   0  0  0  0  0  0  0  0  0  0  0  0
  187.5350  178.2300  145.2990 C   0  0  2  0  0  3  0  0  0  0  0  0
  182.6630  178.2180  140.6120 O   0  0  0  0  0  0  0  0  0  0  0  0
  182.2060  178.2370  141.7860 C   0  0  0  0  0  0  0  0  0  0  0  0
  189.1840  177.1360  146.7680 C   0  0  2  0  0  3  0  0  0  0  0  0
  187.3600  178.2010  142.7820 C   0  0  0  0  0  0  0  0  0  0  0  0
  188.5540  178.2930  140.2440 C   0  0  0  0  0  3  0  0  0  0  0  0
  188.3180  176.9410  145.5320 C   0  0  0  0  0  2  0  0  0  0  0  0
  184.5180  178.2630  142.8800 C   0  0  0  0  0  0  0  0  0  0  0  0
  190.7020  178.2490  141.2740 F   0  0  0  0  0  0  0  0  0  0  0  0
  185.4470  179.4090  146.4160 C   0  0  0  0  0  2  0  0  0  0  0  0
  190.0680  175.9230  146.9690 C   0  0  0  0  0  1  0  0  0  0  0  0
  185.1450  178.2590  141.7400 N   0  0  0  0  0  0  0  0  0  0  0  0
  185.2600  178.2770  144.1960 C   0  0  2  0  0  3  0  0  0  0  0  0
  183.0850  178.2520  142.9190 N   0  0  0  0  0  2  0  0  0  0  0  0
  188.7580  178.2030  142.6530 C   0  0  0  0  0  3  0  0  0  0  0  0
  188.3050  177.3380  148.0040 C   0  0  0  0  0  2  0  0  0  0  0  0
  186.5670  178.2510  141.6280 C   0  0  0  0  0  0  0  0  0  0  0  0
  187.1620  178.2940  140.3640 C   0  0  0  0  0  3  0  0  0  0  0  0
  184.9490  179.5460  144.9760 C   0  0  0  0  0  2  0  0  0  0  0  0
  186.7280  178.6220  146.5310 C   0  0  0  0  0  0  0  0  0  0  0  0
  187.1330  178.2590  147.7590 C   0  0  0  0  0  3  0  0  0  0  0  0
  179.2860  179.3640  139.6520 C   0  0  1  0  0  3  0  0  0  0  0  0
  179.9990  177.3520  140.9730 C   0  0  0  0  0  2  0  0  0  0  0  0
  180.8070  180.5030  142.8670 O   0  0  0  0  0  1  0  0  0  0  0  0
  179.2630  179.9790  138.2690 C   0  0  0  0  0  1  0  0  0  0  0  0
  179.9490  177.9920  139.5850 C   0  0  0  0  0  2  0  0  0  0  0  0
  180.1070  179.6640  141.9980 C   0  0  2  0  0  3  0  0  0  0  0  0
  180.7170  178.2530  141.9840 C   0  0  2  0  0  3  0  0  0  0  0  0
  180.0560  180.2780  140.6000 C   0  0  0  0  0  2  0  0  0  0  0  0
  1 17  1  0  0  0  0
  2 15  1  0  0  0  0
  2  3  1  0  0  0  0
  3  9  1  1  0  0  0
  3 22  1  0  0  0  0
  4  5  2  0  0  0  0
  5 16  1  0  0  0  0
  6 13  1  1  0  0  0
  6 18  1  0  0  0  0
  7  2  1  0  0  0  0
  8 20  1  0  0  0  0
  8  1  2  0  0  0  0
  9  6  1  0  0  0  0
 10 16  1  0  0  0  0
 10 15  1  0  0  0  0
 11  1  1  0  0  0  0
 12 22  1  0  0  0  0
 14 10  2  0  0  0  0
 15 21  1  6  0  0  0
 17  7  2  0  0  0  0
 19 14  1  0  0  0  0
 19  7  1  0  0  0  0
 20 19  2  0  0  0  0
 21 12  1  0  0  0  0
 22 23  2  0  0  0  0
 23 18  1  0  0  0  0
 24 27  1  6  0  0  0
 24 31  1  0  0  0  0
 25 30  1  0  0  0  0
 28 24  1  0  0  0  0
 28 25  1  0  0  0  0
 29 26  1  1  0  0  0
 30  5  1  6  0  0  0
 30 29  1  0  0  0  0
 31 29  1  0  0  0  0
M  END
>  <MODEL>
6

>  <REMARK>
 VINA RESULT:      -8.1      3.869      6.389
  Name = 
  1 active torsions:
  status: ('A' for Active; 'I' for Inactive)
    1  A    between atoms: C_5  and  C_30
                            x       y       z     vdW  Elec       q    Type
                         _______ _______ _______ _____ _____    ______ ____

>  <TORSDO>
F 1

$$$$
=
 OpenBabel11122411113D

 31 35  0  0  1  0  0  0  0  0999 V2000
  189.3170  178.2500  141.1270 C   0  0  0  0  0  0  0  0  0  0  0  0
  186.1720  178.3430  143.1860 N   0  0  0  0  0  0  0  0  0  0  0  0
  186.7050  178.5220  144.5460 C   0  0  2  0  0  3  0  0  0  0  0  0
  182.9500  178.1010  138.9400 O   0  0  0  0  0  0  0  0  0  0  0  0
  182.2520  178.2080  139.9830 C   0  0  0  0  0  0  0  0  0  0  0  0
  187.9910  177.5600  146.4160 C   0  0  2  0  0  3  0  0  0  0  0  0
  187.0720  178.2940  142.0600 C   0  0  0  0  0  0  0  0  0  0  0  0
  188.7830  178.1970  139.8370 C   0  0  0  0  0  3  0  0  0  0  0  0
  187.4080  177.2620  145.0410 C   0  0  0  0  0  2  0  0  0  0  0  0
  184.2760  178.3400  141.5420 C   0  0  0  0  0  0  0  0  0  0  0  0
  190.6600  178.2530  141.3040 F   0  0  0  0  0  0  0  0  0  0  0  0
  184.4360  179.7670  145.0940 C   0  0  0  0  0  2  0  0  0  0  0  0
  188.8020  176.3750  146.8950 C   0  0  0  0  0  1  0  0  0  0  0  0
  185.1320  178.2520  140.5670 N   0  0  0  0  0  0  0  0  0  0  0  0
  184.7190  178.4630  142.9810 C   0  0  2  0  0  3  0  0  0  0  0  0
  182.8680  178.3200  141.2740 N   0  0  0  0  0  2  0  0  0  0  0  0
  188.4660  178.2990  142.2340 C   0  0  0  0  0  3  0  0  0  0  0  0
  186.8700  177.8510  147.4150 C   0  0  0  0  0  2  0  0  0  0  0  0
  186.5450  178.2460  140.7630 C   0  0  0  0  0  0  0  0  0  0  0  0
  187.3980  178.1960  139.6570 C   0  0  0  0  0  3  0  0  0  0  0  0
  184.2590  179.7860  143.5750 C   0  0  0  0  0  2  0  0  0  0  0  0
  185.6560  179.0030  145.5420 C   0  0  0  0  0  0  0  0  0  0  0  0
  185.7860  178.7400  146.8530 C   0  0  0  0  0  3  0  0  0  0  0  0
  179.4170  178.7360  142.4400 C   0  0  1  0  0  3  0  0  0  0  0  0
  180.1730  179.6000  140.2070 C   0  0  0  0  0  2  0  0  0  0  0  0
  180.6290  175.8680  140.3780 O   0  0  0  0  0  1  0  0  0  0  0  0
  179.4490  178.9970  143.9310 C   0  0  0  0  0  1  0  0  0  0  0  0
  180.1750  179.8450  141.7160 C   0  0  0  0  0  2  0  0  0  0  0  0
  180.0510  177.1100  140.6450 C   0  0  2  0  0  3  0  0  0  0  0  0
  180.7550  178.2270  139.8560 C   0  0  2  0  0  3  0  0  0  0  0  0
  180.0560  177.3820  142.1480 C   0  0  0  0  0  2  0  0  0  0  0  0
  1 11  1  0  0  0  0
  1 17  1  0  0  0  0
  2  3  1  0  0  0  0
  3  9  1  1  0  0  0
  3 22  1  0  0  0  0
  4  5  2  0  0  0  0
  5 16  1  0  0  0  0
  6 13  1  1  0  0  0
  6 18  1  0  0  0  0
  7 17  2  0  0  0  0
  7  2  1  0  0  0  0
  8  1  2  0  0  0  0
  9  6  1  0  0  0  0
 10 15  1  0  0  0  0
 12 22  1  0  0  0  0
 14 19  1  0  0  0  0
 14 10  2  0  0  0  0
 15  2  1  0  0  0  0
 15 21  1  6  0  0  0
 16 10  1  0  0  0  0
 19  7  1  0  0  0  0
 20  8  1  0  0  0  0
 20 19  2  0  0  0  0
 21 12  1  0  0  0  0
 22 23  2  0  0  0  0
 23 18  1  0  0  0  0
 24 27  1  1  0  0  0
 25 28  1  0  0  0  0
 28 24  1  0  0  0  0
 29 26  1  1  0  0  0
 29 31  1  0  0  0  0
 30  5  1  1  0  0  0
 30 25  1  0  0  0  0
 30 29  1  0  0  0  0
 31 24  1  0  0  0  0
M  END
>  <MODEL>
7

>  <REMARK>
 VINA RESULT:      -8.0      3.635      6.631
  Name = 
  1 active torsions:
  status: ('A' for Active; 'I' for Inactive)
    1  A    between atoms: C_5  and  C_30
                            x       y       z     vdW  Elec       q    Type
                         _______ _______ _______ _____ _____    ______ ____

>  <TORSDO>
F 1

$$$$
=
 OpenBabel11122411113D

 31 35  0  0  1  0  0  0  0  0999 V2000
  188.2980  178.6280  139.7580 C   0  0  0  0  0  0  0  0  0  0  0  0
  185.3040  178.2450  142.0010 N   0  0  0  0  0  0  0  0  0  0  0  0
  185.8750  178.5520  143.3230 C   0  0  2  0  0  3  0  0  0  0  0  0
  181.9370  177.3350  137.9640 O   0  0  0  0  0  0  0  0  0  0  0  0
  181.2910  177.3520  139.0450 C   0  0  0  0  0  0  0  0  0  0  0  0
  187.4090  177.8770  145.1290 C   0  0  2  0  0  3  0  0  0  0  0  0
  186.1350  178.3170  140.8240 C   0  0  0  0  0  0  0  0  0  0  0  0
  187.7090  178.4470  138.5040 C   0  0  0  0  0  3  0  0  0  0  0  0
  186.8100  177.4440  143.7990 C   0  0  0  0  0  2  0  0  0  0  0  0
  183.3480  177.8720  140.4750 C   0  0  0  0  0  0  0  0  0  0  0  0
  189.6280  178.8640  139.8530 F   0  0  0  0  0  0  0  0  0  0  0  0
  183.4610  179.4090  143.9830 C   0  0  0  0  0  2  0  0  0  0  0  0
  188.4370  176.8610  145.5810 C   0  0  0  0  0  1  0  0  0  0  0  0
  184.1500  177.9020  139.4520 N   0  0  0  0  0  0  0  0  0  0  0  0
  183.8430  178.1100  141.8820 C   0  0  2  0  0  3  0  0  0  0  0  0
  181.9510  177.6050  140.2930 N   0  0  0  0  0  2  0  0  0  0  0  0
  187.5150  178.5630  140.9140 C   0  0  0  0  0  3  0  0  0  0  0  0
  186.3130  178.0020  146.1890 C   0  0  0  0  0  2  0  0  0  0  0  0
  185.5510  178.1430  139.5630 C   0  0  0  0  0  0  0  0  0  0  0  0
  186.3360  178.2050  138.4080 C   0  0  0  0  0  3  0  0  0  0  0  0
  183.1980  179.3530  142.4780 C   0  0  0  0  0  2  0  0  0  0  0  0
  184.8160  178.8760  144.3720 C   0  0  0  0  0  0  0  0  0  0  0  0
  185.0630  178.6770  145.6770 C   0  0  0  0  0  3  0  0  0  0  0  0
  178.9920  174.8710  140.7490 C   0  0  1  0  0  3  0  0  0  0  0  0
  179.1610  177.3480  140.3780 C   0  0  0  0  0  2  0  0  0  0  0  0
  180.0600  175.4980  137.2260 O   0  0  0  0  0  1  0  0  0  0  0  0
  179.3050  173.7510  141.7180 C   0  0  0  0  0  1  0  0  0  0  0  0
  179.4520  176.1990  141.3430 C   0  0  0  0  0  2  0  0  0  0  0  0
  179.4140  175.7400  138.4400 C   0  0  2  0  0  3  0  0  0  0  0  0
  179.8080  177.1130  139.0090 C   0  0  2  0  0  3  0  0  0  0  0  0
  179.7030  174.6090  139.4250 C   0  0  0  0  0  2  0  0  0  0  0  0
  1 11  1  0  0  0  0
  1 17  1  0  0  0  0
  2  3  1  0  0  0  0
  3  9  1  1  0  0  0
  3 22  1  0  0  0  0
  4  5  2  0  0  0  0
  5 16  1  0  0  0  0
  6 13  1  1  0  0  0
  6 18  1  0  0  0  0
  7 17  2  0  0  0  0
  7  2  1  0  0  0  0
  8  1  2  0  0  0  0
  9  6  1  0  0  0  0
 10 15  1  0  0  0  0
 12 22  1  0  0  0  0
 14 19  1  0  0  0  0
 14 10  2  0  0  0  0
 15  2  1  0  0  0  0
 15 21  1  6  0  0  0
 16 10  1  0  0  0  0
 19  7  1  0  0  0  0
 20  8  1  0  0  0  0
 20 19  2  0  0  0  0
 21 12  1  0  0  0  0
 22 23  2  0  0  0  0
 23 18  1  0  0  0  0
 24 28  1  0  0  0  0
 24 27  1  1  0  0  0
 25 28  1  0  0  0  0
 29 26  1  6  0  0  0
 29 30  1  0  0  0  0
 29 31  1  0  0  0  0
 30  5  1  1  0  0  0
 30 25  1  0  0  0  0
 31 24  1  0  0  0  0
M  END
>  <MODEL>
8

>  <REMARK>
 VINA RESULT:      -7.9      4.561      7.081
  Name = 
  1 active torsions:
  status: ('A' for Active; 'I' for Inactive)
    1  A    between atoms: C_5  and  C_30
                            x       y       z     vdW  Elec       q    Type
                         _______ _______ _______ _____ _____    ______ ____

>  <TORSDO>
F 1

$$$$
=
 OpenBabel11122411113D

 31 35  0  0  1  0  0  0  0  0999 V2000
  186.5580  176.9270  135.8200 C   0  0  0  0  0  0  0  0  0  0  0  0
  189.5920  176.0820  137.8730 N   0  0  0  0  0  0  0  0  0  0  0  0
  190.4060  175.3190  136.9130 C   0  0  2  0  0  3  0  0  0  0  0  0
  187.9590  178.8850  142.1090 O   0  0  0  0  0  0  0  0  0  0  0  0
  189.0970  178.4020  142.3470 C   0  0  0  0  0  0  0  0  0  0  0  0
  190.6520  173.2680  135.5670 C   0  0  2  0  0  3  0  0  0  0  0  0
  188.3270  176.6380  137.4630 C   0  0  0  0  0  0  0  0  0  0  0  0
  185.8590  177.7440  136.7110 C   0  0  0  0  0  3  0  0  0  0  0  0
  189.7920  173.9530  136.6210 C   0  0  0  0  0  2  0  0  0  0  0  0
  189.3150  177.3110  140.0430 C   0  0  0  0  0  0  0  0  0  0  0  0
  186.0440  176.6670  134.5940 F   0  0  0  0  0  0  0  0  0  0  0  0
  192.5130  176.2050  138.2450 C   0  0  0  0  0  2  0  0  0  0  0  0
  190.0120  171.9590  135.1580 C   0  0  0  0  0  1  0  0  0  0  0  0
  188.1600  177.7490  139.6390 N   0  0  0  0  0  0  0  0  0  0  0  0
  190.2010  176.4660  139.1570 C   0  0  2  0  0  3  0  0  0  0  0  0
  189.7870  177.6200  141.3610 N   0  0  0  0  0  2  0  0  0  0  0  0
  187.7870  176.3760  136.1930 C   0  0  0  0  0  3  0  0  0  0  0  0
  192.0540  173.0030  136.1180 C   0  0  0  0  0  2  0  0  0  0  0  0
  187.6220  177.4630  138.3490 C   0  0  0  0  0  0  0  0  0  0  0  0
  186.3920  178.0110  137.9750 C   0  0  0  0  0  3  0  0  0  0  0  0
  191.5140  177.1790  138.8710 C   0  0  0  0  0  2  0  0  0  0  0  0
  191.8670  175.1950  137.3310 C   0  0  0  0  0  0  0  0  0  0  0  0
  192.6160  174.1650  136.9030 C   0  0  0  0  0  3  0  0  0  0  0  0
  191.4410  176.4250  144.5720 C   0  0  1  0  0  3  0  0  0  0  0  0
  191.2600  178.7260  143.5830 C   0  0  0  0  0  2  0  0  0  0  0  0
  187.8980  177.5790  144.8260 O   0  0  0  0  0  1  0  0  0  0  0  0
  192.0470  175.0510  144.3810 C   0  0  0  0  0  1  0  0  0  0  0  0
  191.8710  177.3330  143.4240 C   0  0  0  0  0  2  0  0  0  0  0  0
  189.2890  177.6870  144.7840 C   0  0  2  0  0  3  0  0  0  0  0  0
  189.7320  178.6640  143.6830 C   0  0  2  0  0  3  0  0  0  0  0  0
  189.9200  176.3060  144.6120 C   0  0  0  0  0  2  0  0  0  0  0  0
  1 17  2  0  0  0  0
  1  8  1  0  0  0  0
  2 15  1  0  0  0  0
  3  9  1  1  0  0  0
  3 22  1  0  0  0  0
  3  2  1  0  0  0  0
  4  5  2  0  0  0  0
  6 13  1  1  0  0  0
  6 18  1  0  0  0  0
  6  9  1  0  0  0  0
  7  2  1  0  0  0  0
  7 19  2  0  0  0  0
  8 20  2  0  0  0  0
 10 16  1  0  0  0  0
 11  1  1  0  0  0  0
 12 21  1  0  0  0  0
 14 10  2  0  0  0  0
 15 21  1  6  0  0  0
 15 10  1  0  0  0  0
 16  5  1  0  0  0  0
 17  7  1  0  0  0  0
 18 23  1  0  0  0  0
 19 14  1  0  0  0  0
 20 19  1  0  0  0  0
 22 12  1  0  0  0  0
 23 22  2  0  0  0  0
 24 27  1  6  0  0  0
 24 31  1  0  0  0  0
 25 30  1  0  0  0  0
 28 25  1  0  0  0  0
 28 24  1  0  0  0  0
 29 26  1  6  0  0  0
 30  5  1  6  0  0  0
 30 29  1  0  0  0  0
 31 29  1  0  0  0  0
M  END
>  <MODEL>
9

>  <REMARK>
 VINA RESULT:      -7.9      3.386      8.136
  Name = 
  1 active torsions:
  status: ('A' for Active; 'I' for Inactive)
    1  A    between atoms: C_5  and  C_30
                            x       y       z     vdW  Elec       q    Type
                         _______ _______ _______ _____ _____    ______ ____

>  <TORSDO>
F 1

$$$$
