=
 OpenBabel11122410583D

 31 35  0  0  1  0  0  0  0  0999 V2000
  190.1040  175.7340  142.8380 C   0  0  0  0  0  0  0  0  0  0  0  0
  186.6920  176.9990  143.9410 C   0  0  2  0  0  3  0  0  0  0  0  0
  186.8930  177.6780  145.2880 C   0  0  0  0  0  0  0  0  0  0  0  0
  188.2180  178.0840  147.2880 C   0  0  0  0  0  0  0  0  0  0  0  0
  187.9740  176.8570  143.1540 C   0  0  0  0  0  0  0  0  0  0  0  0
  190.4190  176.6130  141.8000 C   0  0  0  0  0  3  0  0  0  0  0  0
  188.0620  177.4790  146.0380 C   0  0  0  0  0  3  0  0  0  0  0  0
  186.1460  179.0190  142.5340 C   0  0  2  0  0  3  0  0  0  0  0  0
  191.0030  174.7420  143.2030 O   0  0  0  0  0  1  0  0  0  0  0  0
  184.6620  178.6470  145.1350 O   0  0  0  0  0  0  0  0  0  0  0  0
  189.4690  177.8750  148.0620 C   0  0  0  0  0  1  0  0  0  0  0  0
  187.2990  178.7400  141.5740 C   0  0  0  0  0  2  0  0  0  0  0  0
  185.6010  177.6960  143.1030 C   0  0  2  0  0  3  0  0  0  0  0  0
  188.8860  175.8550  143.5100 C   0  0  0  0  0  3  0  0  0  0  0  0
  187.1990  178.8840  147.8080 C   0  0  0  0  0  3  0  0  0  0  0  0
  188.2930  177.7430  142.1010 C   0  0  0  0  0  0  0  0  0  0  0  0
  189.5110  177.6080  141.4270 C   0  0  0  0  0  3  0  0  0  0  0  0
  184.3540  177.8900  143.9680 C   0  0  0  0  0  2  0  0  0  0  0  0
  185.8550  178.4600  145.8380 C   0  0  0  0  0  0  0  0  0  0  0  0
  186.0190  179.0710  147.0850 C   0  0  0  0  0  3  0  0  0  0  0  0
  185.0810  179.8080  141.7790 C   0  0  0  0  0  2  0  0  0  0  0  0
  182.9920  178.7310  141.0360 C   0  0  0  0  0  1  0  0  0  0  0  0
  184.4560  178.9670  140.6680 C   0  0  1  0  0  3  0  0  0  0  0  0
  183.1040  177.8300  137.5590 C   0  0  1  0  0  3  0  0  0  0  0  0
  183.2560  179.9980  138.8140 C   0  0  0  0  0  2  0  0  0  0  0  0
  186.5860  178.5500  138.6700 O   0  0  0  0  0  1  0  0  0  0  0  0
  182.3070  176.5520  137.4020 C   0  0  0  0  0  1  0  0  0  0  0  0
  182.3930  178.7580  138.5370 C   0  0  0  0  0  2  0  0  0  0  0  0
  185.2540  178.8010  138.3370 C   0  0  2  0  0  3  0  0  0  0  0  0
  184.5820  179.6400  139.3530 N   0  0  0  0  0  0  0  0  0  0  0  0
  184.5020  177.4980  138.0640 C   0  0  0  0  0  2  0  0  0  0  0  0
  1  9  1  0  0  0  0
  1 14  1  0  0  0  0
  2  5  1  6  0  0  0
  2  3  1  0  0  0  0
  3 19  2  0  0  0  0
  3  7  1  0  0  0  0
  4 15  1  0  0  0  0
  4 11  1  0  0  0  0
  5 14  2  0  0  0  0
  6  1  2  0  0  0  0
  7  4  2  0  0  0  0
  8 21  1  6  0  0  0
  8 13  1  0  0  0  0
 10 19  1  0  0  0  0
 12 16  1  0  0  0  0
 12  8  1  0  0  0  0
 13  2  1  0  0  0  0
 13 18  1  1  0  0  0
 16  5  1  0  0  0  0
 17  6  1  0  0  0  0
 17 16  2  0  0  0  0
 18 10  1  0  0  0  0
 19 20  1  0  0  0  0
 20 15  2  0  0  0  0
 23 22  1  1  0  0  0
 23 21  1  0  0  0  0
 24 27  1  1  0  0  0
 24 31  1  0  0  0  0
 24 28  1  0  0  0  0
 25 30  1  0  0  0  0
 28 25  1  0  0  0  0
 29 26  1  1  0  0  0
 29 30  1  0  0  0  0
 30 23  1  0  0  0  0
 31 29  1  0  0  0  0
M  END
>  <MODEL>
1

>  <REMARK>
 VINA RESULT:      -8.8      0.000      0.000
  Name = 
  3 active torsions:
  status: ('A' for Active; 'I' for Inactive)
    1  A    between atoms: C_5  and  C_16
    2  A    between atoms: C_5  and  N_30
    3  A    between atoms: C_10  and  C_16
                            x       y       z     vdW  Elec       q    Type
                         _______ _______ _______ _____ _____    ______ ____

>  <TORSDO>
F 3

$$$$
=
 OpenBabel11122410583D

 31 35  0  0  1  0  0  0  0  0999 V2000
  179.7320  178.3350  142.1590 C   0  0  0  0  0  0  0  0  0  0  0  0
  183.0740  179.0080  140.4760 C   0  0  2  0  0  3  0  0  0  0  0  0
  184.1500  178.7470  141.5200 C   0  0  0  0  0  0  0  0  0  0  0  0
  184.8380  178.4450  143.8340 C   0  0  0  0  0  0  0  0  0  0  0  0
  181.7530  178.3570  140.8120 C   0  0  0  0  0  0  0  0  0  0  0  0
  179.3390  177.1370  141.5570 C   0  0  0  0  0  3  0  0  0  0  0  0
  183.8350  178.6530  142.8840 C   0  0  0  0  0  3  0  0  0  0  0  0
  183.5330  177.0820  138.9140 C   0  0  2  0  0  3  0  0  0  0  0  0
  178.9310  178.9190  143.1290 O   0  0  0  0  0  1  0  0  0  0  0  0
  185.8570  178.8030  139.7800 O   0  0  0  0  0  0  0  0  0  0  0  0
  184.4850  178.3340  145.2730 C   0  0  0  0  0  1  0  0  0  0  0  0
  182.1100  176.5510  139.0500 C   0  0  0  0  0  2  0  0  0  0  0  0
  183.5410  178.6150  139.0590 C   0  0  2  0  0  3  0  0  0  0  0  0
  180.9330  178.9420  141.7860 C   0  0  0  0  0  3  0  0  0  0  0  0
  186.1700  178.3410  143.4310 C   0  0  0  0  0  3  0  0  0  0  0  0
  181.3520  177.1480  140.2020 C   0  0  0  0  0  0  0  0  0  0  0  0
  180.1420  176.5520  140.5750 C   0  0  0  0  0  3  0  0  0  0  0  0
  184.9170  179.2300  138.7970 C   0  0  0  0  0  2  0  0  0  0  0  0
  185.5040  178.6750  141.1260 C   0  0  0  0  0  0  0  0  0  0  0  0
  186.5030  178.4570  142.0800 C   0  0  0  0  0  3  0  0  0  0  0  0
  184.0840  176.6240  137.5670 C   0  0  0  0  0  2  0  0  0  0  0  0
  182.6980  177.4270  135.6940 C   0  0  0  0  0  1  0  0  0  0  0  0
  182.9560  176.2350  136.6140 C   0  0  1  0  0  3  0  0  0  0  0  0
  180.8660  173.3850  136.0670 C   0  0  1  0  0  3  0  0  0  0  0  0
  182.3880  174.8370  134.6990 C   0  0  0  0  0  2  0  0  0  0  0  0
  184.2100  173.7790  137.6600 O   0  0  0  0  0  1  0  0  0  0  0  0
  179.4620  173.2490  136.6180 C   0  0  0  0  0  1  0  0  0  0  0  0
  180.9410  174.6050  135.1560 C   0  0  0  0  0  2  0  0  0  0  0  0
  183.2480  173.7830  136.6480 C   0  0  2  0  0  3  0  0  0  0  0  0
  183.3070  175.0190  135.8390 N   0  0  0  0  0  0  0  0  0  0  0  0
  181.8530  173.5220  137.2180 C   0  0  0  0  0  2  0  0  0  0  0  0
  1  9  1  0  0  0  0
  2  5  1  1  0  0  0
  2  3  1  0  0  0  0
  3  7  1  0  0  0  0
  4 11  1  0  0  0  0
  5 14  2  0  0  0  0
  6  1  2  0  0  0  0
  7  4  2  0  0  0  0
  8 21  1  6  0  0  0
  8 12  1  0  0  0  0
  8 13  1  0  0  0  0
 10 19  1  0  0  0  0
 12 16  1  0  0  0  0
 13 18  1  1  0  0  0
 13  2  1  0  0  0  0
 14  1  1  0  0  0  0
 15  4  1  0  0  0  0
 16 17  2  0  0  0  0
 16  5  1  0  0  0  0
 17  6  1  0  0  0  0
 18 10  1  0  0  0  0
 19  3  2  0  0  0  0
 19 20  1  0  0  0  0
 20 15  2  0  0  0  0
 23 22  1  6  0  0  0
 23 21  1  0  0  0  0
 24 27  1  1  0  0  0
 24 31  1  0  0  0  0
 25 28  1  0  0  0  0
 25 30  1  0  0  0  0
 28 24  1  0  0  0  0
 29 31  1  0  0  0  0
 29 26  1  1  0  0  0
 30 23  1  0  0  0  0
 30 29  1  0  0  0  0
M  END
>  <MODEL>
2

>  <REMARK>
 VINA RESULT:      -7.8      3.115      6.576
  Name = 
  3 active torsions:
  status: ('A' for Active; 'I' for Inactive)
    1  A    between atoms: C_5  and  C_16
    2  A    between atoms: C_5  and  N_30
    3  A    between atoms: C_10  and  C_16
                            x       y       z     vdW  Elec       q    Type
                         _______ _______ _______ _____ _____    ______ ____

>  <TORSDO>
F 3

$$$$
=
 OpenBabel11122410583D

 31 35  0  0  1  0  0  0  0  0999 V2000
  189.5230  176.1560  142.5600 C   0  0  0  0  0  0  0  0  0  0  0  0
  186.4800  177.0910  144.6390 C   0  0  2  0  0  3  0  0  0  0  0  0
  187.0040  177.6900  145.9360 C   0  0  0  0  0  0  0  0  0  0  0  0
  188.8010  178.0570  147.5350 C   0  0  0  0  0  0  0  0  0  0  0  0
  187.5030  177.0960  143.5290 C   0  0  0  0  0  0  0  0  0  0  0  0
  189.4960  177.1240  141.5540 C   0  0  0  0  0  3  0  0  0  0  0  0
  188.3420  177.5280  146.3260 C   0  0  0  0  0  3  0  0  0  0  0  0
  185.4660  179.1560  143.6060 C   0  0  2  0  0  3  0  0  0  0  0  0
  190.5370  175.2100  142.5860 O   0  0  0  0  0  1  0  0  0  0  0  0
  184.7680  178.5020  146.4680 O   0  0  0  0  0  0  0  0  0  0  0  0
  190.2240  177.8880  147.9260 C   0  0  0  0  0  1  0  0  0  0  0  0
  186.3270  179.0270  142.3530 C   0  0  0  0  0  2  0  0  0  0  0  0
  185.1670  177.7610  144.1860 C   0  0  2  0  0  3  0  0  0  0  0  0
  188.5290  176.1420  143.5420 C   0  0  0  0  0  3  0  0  0  0  0  0
  187.9220  178.7430  148.3750 C   0  0  0  0  0  3  0  0  0  0  0  0
  187.4770  178.0720  142.5080 C   0  0  0  0  0  0  0  0  0  0  0  0
  188.4710  178.0720  141.5240 C   0  0  0  0  0  3  0  0  0  0  0  0
  184.1940  177.8040  145.3660 C   0  0  0  0  0  2  0  0  0  0  0  0
  186.1150  178.3560  146.8080 C   0  0  0  0  0  0  0  0  0  0  0  0
  186.5810  178.8920  148.0130 C   0  0  0  0  0  3  0  0  0  0  0  0
  184.1960  179.9130  143.2330 C   0  0  0  0  0  2  0  0  0  0  0  0
  182.0200  178.7760  143.4540 C   0  0  0  0  0  1  0  0  0  0  0  0
  183.2030  179.0040  142.5130 C   0  0  1  0  0  3  0  0  0  0  0  0
  182.0840  177.2340  139.6140 C   0  0  1  0  0  3  0  0  0  0  0  0
  181.3640  179.2450  140.9300 C   0  0  0  0  0  2  0  0  0  0  0  0
  184.9010  179.6050  140.1780 O   0  0  0  0  0  1  0  0  0  0  0  0
  181.9980  175.7240  139.5280 C   0  0  0  0  0  1  0  0  0  0  0  0
  181.1830  177.7320  140.7380 C   0  0  0  0  0  2  0  0  0  0  0  0
  183.5820  179.1610  140.0770 C   0  0  2  0  0  3  0  0  0  0  0  0
  182.7640  179.6020  141.2280 N   0  0  0  0  0  0  0  0  0  0  0  0
  183.5280  177.6470  139.8680 C   0  0  0  0  0  2  0  0  0  0  0  0
  1  9  1  0  0  0  0
  1 14  1  0  0  0  0
  2  5  1  6  0  0  0
  2  3  1  0  0  0  0
  3  7  2  0  0  0  0
  3 19  1  0  0  0  0
  4 11  1  0  0  0  0
  4 15  2  0  0  0  0
  5 14  2  0  0  0  0
  6  1  2  0  0  0  0
  7  4  1  0  0  0  0
  8 21  1  6  0  0  0
  8 13  1  0  0  0  0
 10 19  1  0  0  0  0
 12 16  1  0  0  0  0
 12  8  1  0  0  0  0
 13  2  1  0  0  0  0
 13 18  1  1  0  0  0
 16  5  1  0  0  0  0
 17  6  1  0  0  0  0
 17 16  2  0  0  0  0
 18 10  1  0  0  0  0
 19 20  2  0  0  0  0
 20 15  1  0  0  0  0
 23 21  1  0  0  0  0
 23 22  1  1  0  0  0
 24 27  1  1  0  0  0
 24 31  1  0  0  0  0
 24 28  1  0  0  0  0
 25 30  1  0  0  0  0
 28 25  1  0  0  0  0
 29 26  1  1  0  0  0
 29 30  1  0  0  0  0
 30 23  1  0  0  0  0
 31 29  1  0  0  0  0
M  END
>  <MODEL>
3

>  <REMARK>
 VINA RESULT:      -7.8      1.378      1.645
  Name = 
  3 active torsions:
  status: ('A' for Active; 'I' for Inactive)
    1  A    between atoms: C_5  and  C_16
    2  A    between atoms: C_5  and  N_30
    3  A    between atoms: C_10  and  C_16
                            x       y       z     vdW  Elec       q    Type
                         _______ _______ _______ _____ _____    ______ ____

>  <TORSDO>
F 3

$$$$
=
 OpenBabel11122410583D

 31 35  0  0  1  0  0  0  0  0999 V2000
  179.8330  177.4600  141.3800 C   0  0  0  0  0  0  0  0  0  0  0  0
  183.0120  178.5520  139.6010 C   0  0  2  0  0  3  0  0  0  0  0  0
  184.1250  178.5210  140.6380 C   0  0  0  0  0  0  0  0  0  0  0  0
  184.8750  178.4600  142.9520 C   0  0  0  0  0  0  0  0  0  0  0  0
  181.8120  177.7230  139.9960 C   0  0  0  0  0  0  0  0  0  0  0  0
  179.6270  176.1840  140.8510 C   0  0  0  0  0  3  0  0  0  0  0  0
  183.8420  178.4560  142.0110 C   0  0  0  0  0  3  0  0  0  0  0  0
  183.7520  176.6360  138.1370 C   0  0  2  0  0  3  0  0  0  0  0  0
  178.9600  177.9660  142.3320 O   0  0  0  0  0  1  0  0  0  0  0  0
  185.7850  178.7450  138.8670 O   0  0  0  0  0  0  0  0  0  0  0  0
  184.5580  178.3760  144.4010 C   0  0  0  0  0  1  0  0  0  0  0  0
  182.4310  175.8980  138.3280 C   0  0  0  0  0  2  0  0  0  0  0  0
  183.5210  178.1580  138.2000 C   0  0  2  0  0  3  0  0  0  0  0  0
  180.9210  178.2260  140.9520 C   0  0  0  0  0  3  0  0  0  0  0  0
  186.2030  178.5440  142.5310 C   0  0  0  0  0  3  0  0  0  0  0  0
  181.6000  176.4330  139.4600 C   0  0  0  0  0  0  0  0  0  0  0  0
  180.5030  175.6780  139.8870 C   0  0  0  0  0  3  0  0  0  0  0  0
  184.7800  178.9650  137.8800 C   0  0  0  0  0  2  0  0  0  0  0  0
  185.4700  178.6400  140.2240 C   0  0  0  0  0  0  0  0  0  0  0  0
  186.5000  178.6340  141.1690 C   0  0  0  0  0  3  0  0  0  0  0  0
  184.3540  176.1960  136.8070 C   0  0  0  0  0  2  0  0  0  0  0  0
  185.2880  174.0210  137.4940 C   0  0  0  0  0  1  0  0  0  0  0  0
  185.6560  175.4260  137.0200 C   0  0  1  0  0  3  0  0  0  0  0  0
  189.0030  176.6150  136.6080 C   0  0  1  0  0  3  0  0  0  0  0  0
  187.6840  174.5800  135.9630 C   0  0  0  0  0  2  0  0  0  0  0  0
  185.7960  177.5110  134.9380 O   0  0  0  0  0  1  0  0  0  0  0  0
  189.8130  177.2580  137.7140 C   0  0  0  0  0  1  0  0  0  0  0  0
  188.6210  175.1970  137.0130 C   0  0  0  0  0  2  0  0  0  0  0  0
  186.8850  176.7230  135.3150 C   0  0  2  0  0  3  0  0  0  0  0  0
  186.4610  175.3830  135.7740 N   0  0  0  0  0  0  0  0  0  0  0  0
  187.7550  177.4460  136.3440 C   0  0  0  0  0  2  0  0  0  0  0  0
  1  9  1  0  0  0  0
  2  5  1  1  0  0  0
  2  3  1  0  0  0  0
  3  7  1  0  0  0  0
  4 11  1  0  0  0  0
  5 14  2  0  0  0  0
  6  1  2  0  0  0  0
  7  4  2  0  0  0  0
  8 21  1  6  0  0  0
  8 13  1  0  0  0  0
  8 12  1  0  0  0  0
 10 19  1  0  0  0  0
 12 16  1  0  0  0  0
 13 18  1  1  0  0  0
 13  2  1  0  0  0  0
 14  1  1  0  0  0  0
 15  4  1  0  0  0  0
 16 17  2  0  0  0  0
 16  5  1  0  0  0  0
 17  6  1  0  0  0  0
 18 10  1  0  0  0  0
 19  3  2  0  0  0  0
 19 20  1  0  0  0  0
 20 15  2  0  0  0  0
 21 23  1  0  0  0  0
 23 22  1  6  0  0  0
 24 28  1  0  0  0  0
 24 27  1  1  0  0  0
 25 28  1  0  0  0  0
 29 26  1  1  0  0  0
 29 30  1  0  0  0  0
 29 31  1  0  0  0  0
 30 25  1  0  0  0  0
 30 23  1  0  0  0  0
 31 24  1  0  0  0  0
M  END
>  <MODEL>
4

>  <REMARK>
 VINA RESULT:      -7.7      3.361      6.919
  Name = 
  3 active torsions:
  status: ('A' for Active; 'I' for Inactive)
    1  A    between atoms: C_5  and  C_16
    2  A    between atoms: C_5  and  N_30
    3  A    between atoms: C_10  and  C_16
                            x       y       z     vdW  Elec       q    Type
                         _______ _______ _______ _____ _____    ______ ____

>  <TORSDO>
F 3

$$$$
=
 OpenBabel11122410583D

 31 35  0  0  1  0  0  0  0  0999 V2000
  183.5250  173.0450  136.4630 C   0  0  0  0  0  0  0  0  0  0  0  0
  185.0130  176.5400  136.6270 C   0  0  2  0  0  3  0  0  0  0  0  0
  184.4090  177.2150  137.8500 C   0  0  0  0  0  0  0  0  0  0  0  0
  182.7090  177.3420  139.5860 C   0  0  0  0  0  0  0  0  0  0  0  0
  184.9040  175.0340  136.6680 C   0  0  0  0  0  0  0  0  0  0  0  0
  184.6110  172.2480  136.8350 C   0  0  0  0  0  3  0  0  0  0  0  0
  183.2700  176.6930  138.4840 C   0  0  0  0  0  3  0  0  0  0  0  0
  187.3980  176.3080  137.4150 C   0  0  2  0  0  3  0  0  0  0  0  0
  182.3000  172.4580  136.1800 O   0  0  0  0  0  1  0  0  0  0  0  0
  186.0600  179.0000  137.6840 O   0  0  0  0  0  0  0  0  0  0  0  0
  181.5120  176.7680  140.2540 C   0  0  0  0  0  1  0  0  0  0  0  0
  187.3810  174.7950  137.2180 C   0  0  0  0  0  2  0  0  0  0  0  0
  186.4700  176.9840  136.3870 C   0  0  2  0  0  3  0  0  0  0  0  0
  183.6730  174.4310  136.3790 C   0  0  0  0  0  3  0  0  0  0  0  0
  183.2720  178.5280  140.0600 C   0  0  0  0  0  3  0  0  0  0  0  0
  186.0020  174.2260  137.0400 C   0  0  0  0  0  0  0  0  0  0  0  0
  185.8470  172.8380  137.1130 C   0  0  0  0  0  3  0  0  0  0  0  0
  186.5420  178.5110  136.4350 C   0  0  0  0  0  2  0  0  0  0  0  0
  184.9500  178.4330  138.3150 C   0  0  0  0  0  0  0  0  0  0  0  0
  184.3900  179.0730  139.4250 C   0  0  0  0  0  3  0  0  0  0  0  0
  188.8410  176.7860  137.2950 C   0  0  0  0  0  2  0  0  0  0  0  0
  190.6660  175.3040  138.0330 C   0  0  0  0  0  1  0  0  0  0  0  0
  189.6650  176.3570  138.5070 C   0  0  1  0  0  3  0  0  0  0  0  0
  189.0130  177.7450  141.7370 C   0  0  1  0  0  3  0  0  0  0  0  0
  191.0280  177.1280  140.3760 C   0  0  0  0  0  2  0  0  0  0  0  0
  188.8670  179.1900  138.3060 O   0  0  0  0  0  1  0  0  0  0  0  0
  187.9600  177.2160  142.6870 C   0  0  0  0  0  1  0  0  0  0  0  0
  190.0320  176.6510  141.4430 C   0  0  0  0  0  2  0  0  0  0  0  0
  189.4310  178.6270  139.4530 C   0  0  2  0  0  3  0  0  0  0  0  0
  190.3530  177.5180  139.1230 N   0  0  0  0  0  0  0  0  0  0  0  0
  188.3480  178.2110  140.4480 C   0  0  0  0  0  2  0  0  0  0  0  0
  1  6  1  0  0  0  0
  2  5  1  1  0  0  0
  2  3  1  0  0  0  0
  3 19  2  0  0  0  0
  3  7  1  0  0  0  0
  4 15  1  0  0  0  0
  4 11  1  0  0  0  0
  5 16  2  0  0  0  0
  6 17  2  0  0  0  0
  7  4  2  0  0  0  0
  8 21  1  6  0  0  0
  9  1  1  0  0  0  0
 10 19  1  0  0  0  0
 12  8  1  0  0  0  0
 13 18  1  1  0  0  0
 13  2  1  0  0  0  0
 13  8  1  0  0  0  0
 14  1  2  0  0  0  0
 14  5  1  0  0  0  0
 16 17  1  0  0  0  0
 16 12  1  0  0  0  0
 18 10  1  0  0  0  0
 19 20  1  0  0  0  0
 20 15  2  0  0  0  0
 21 23  1  0  0  0  0
 23 22  1  6  0  0  0
 23 30  1  0  0  0  0
 24 27  1  1  0  0  0
 25 28  1  0  0  0  0
 28 24  1  0  0  0  0
 29 26  1  6  0  0  0
 29 31  1  0  0  0  0
 30 29  1  0  0  0  0
 30 25  1  0  0  0  0
 31 24  1  0  0  0  0
M  END
>  <MODEL>
5

>  <REMARK>
 VINA RESULT:      -7.6      3.366      7.780
  Name = 
  3 active torsions:
  status: ('A' for Active; 'I' for Inactive)
    1  A    between atoms: C_5  and  C_16
    2  A    between atoms: C_5  and  N_30
    3  A    between atoms: C_10  and  C_16
                            x       y       z     vdW  Elec       q    Type
                         _______ _______ _______ _____ _____    ______ ____

>  <TORSDO>
F 3

$$$$
=
 OpenBabel11122410583D

 31 35  0  0  1  0  0  0  0  0999 V2000
  186.6990  172.7560  135.3570 C   0  0  0  0  0  0  0  0  0  0  0  0
  186.7820  176.4670  136.1850 C   0  0  2  0  0  3  0  0  0  0  0  0
  185.5810  176.7420  137.0780 C   0  0  0  0  0  0  0  0  0  0  0  0
  183.4180  176.1020  137.9900 C   0  0  0  0  0  0  0  0  0  0  0  0
  187.1660  175.0060  136.1440 C   0  0  0  0  0  0  0  0  0  0  0  0
  187.7650  172.2650  136.1140 C   0  0  0  0  0  3  0  0  0  0  0  0
  184.5290  175.8210  137.1900 C   0  0  0  0  0  3  0  0  0  0  0  0
  188.6360  176.8250  137.8560 C   0  0  2  0  0  3  0  0  0  0  0  0
  185.9330  171.8880  134.5940 O   0  0  0  0  0  1  0  0  0  0  0  0
  186.4910  178.9360  137.6290 O   0  0  0  0  0  0  0  0  0  0  0  0
  182.3190  175.1090  138.1090 C   0  0  0  0  0  1  0  0  0  0  0  0
  189.1920  175.4210  137.6350 C   0  0  0  0  0  2  0  0  0  0  0  0
  187.9910  177.3480  136.5590 C   0  0  2  0  0  3  0  0  0  0  0  0
  186.4030  174.1220  135.3720 C   0  0  0  0  0  3  0  0  0  0  0  0
  183.3420  177.3150  138.6770 C   0  0  0  0  0  3  0  0  0  0  0  0
  188.2470  174.5080  136.9060 C   0  0  0  0  0  0  0  0  0  0  0  0
  188.5410  173.1410  136.8780 C   0  0  0  0  0  3  0  0  0  0  0  0
  187.5350  178.8040  136.6670 C   0  0  0  0  0  2  0  0  0  0  0  0
  185.4780  177.9800  137.7490 C   0  0  0  0  0  0  0  0  0  0  0  0
  184.3690  178.2530  138.5560 C   0  0  0  0  0  3  0  0  0  0  0  0
  189.7770  177.7160  138.3360 C   0  0  0  0  0  2  0  0  0  0  0  0
  188.2730  178.0600  140.2580 C   0  0  0  0  0  1  0  0  0  0  0  0
  189.7370  177.8940  139.8520 C   0  0  1  0  0  3  0  0  0  0  0  0
  191.1490  177.8910  143.1380 C   0  0  1  0  0  3  0  0  0  0  0  0
  189.6380  176.4130  141.7860 C   0  0  0  0  0  2  0  0  0  0  0  0
  192.5850  177.1310  139.7850 O   0  0  0  0  0  1  0  0  0  0  0  0
  191.1980  179.1080  144.0370 C   0  0  0  0  0  1  0  0  0  0  0  0
  189.6990  177.5580  142.8070 C   0  0  0  0  0  2  0  0  0  0  0  0
  191.7730  176.9830  140.9110 C   0  0  2  0  0  3  0  0  0  0  0  0
  190.3620  176.7390  140.5430 N   0  0  0  0  0  0  0  0  0  0  0  0
  191.9330  178.1690  141.8620 C   0  0  0  0  0  2  0  0  0  0  0  0
  1 14  2  0  0  0  0
  1  6  1  0  0  0  0
  2  5  1  1  0  0  0
  2 13  1  0  0  0  0
  2  3  1  0  0  0  0
  3  7  2  0  0  0  0
  3 19  1  0  0  0  0
  4 11  1  0  0  0  0
  4 15  2  0  0  0  0
  5 16  2  0  0  0  0
  6 17  2  0  0  0  0
  7  4  1  0  0  0  0
  8 21  1  6  0  0  0
  9  1  1  0  0  0  0
 10 19  1  0  0  0  0
 12  8  1  0  0  0  0
 13 18  1  1  0  0  0
 13  8  1  0  0  0  0
 14  5  1  0  0  0  0
 16 12  1  0  0  0  0
 17 16  1  0  0  0  0
 18 10  1  0  0  0  0
 19 20  2  0  0  0  0
 20 15  1  0  0  0  0
 21 23  1  0  0  0  0
 23 22  1  1  0  0  0
 23 30  1  0  0  0  0
 24 27  1  1  0  0  0
 25 28  1  0  0  0  0
 28 24  1  0  0  0  0
 29 26  1  6  0  0  0
 29 31  1  0  0  0  0
 30 29  1  0  0  0  0
 30 25  1  0  0  0  0
 31 24  1  0  0  0  0
M  END
>  <MODEL>
6

>  <REMARK>
 VINA RESULT:      -7.4      3.689      8.205
  Name = 
  3 active torsions:
  status: ('A' for Active; 'I' for Inactive)
    1  A    between atoms: C_5  and  C_16
    2  A    between atoms: C_5  and  N_30
    3  A    between atoms: C_10  and  C_16
                            x       y       z     vdW  Elec       q    Type
                         _______ _______ _______ _____ _____    ______ ____

>  <TORSDO>
F 3

$$$$
=
 OpenBabel11122410583D

 31 35  0  0  1  0  0  0  0  0999 V2000
  191.4250  176.4970  145.5850 C   0  0  0  0  0  0  0  0  0  0  0  0
  187.9690  176.9520  144.0650 C   0  0  2  0  0  3  0  0  0  0  0  0
  187.1390  177.7130  145.0880 C   0  0  0  0  0  0  0  0  0  0  0  0
  186.7660  178.5060  147.3580 C   0  0  0  0  0  0  0  0  0  0  0  0
  189.4570  177.0890  144.2900 C   0  0  0  0  0  0  0  0  0  0  0  0
  192.1950  177.3830  144.8280 C   0  0  0  0  0  3  0  0  0  0  0  0
  187.5550  177.8310  146.4230 C   0  0  0  0  0  3  0  0  0  0  0  0
  188.1580  178.7240  142.2800 C   0  0  2  0  0  3  0  0  0  0  0  0
  192.0130  175.7650  146.6060 O   0  0  0  0  0  1  0  0  0  0  0  0
  185.4240  178.1130  143.4020 O   0  0  0  0  0  0  0  0  0  0  0  0
  187.2280  178.6350  148.7630 C   0  0  0  0  0  1  0  0  0  0  0  0
  189.6830  178.6900  142.3200 C   0  0  0  0  0  2  0  0  0  0  0  0
  187.5900  177.3330  142.6190 C   0  0  2  0  0  3  0  0  0  0  0  0
  190.0620  176.3500  145.3150 C   0  0  0  0  0  3  0  0  0  0  0  0
  185.5440  179.0590  146.9700 C   0  0  0  0  0  3  0  0  0  0  0  0
  190.2380  177.9820  143.5240 C   0  0  0  0  0  0  0  0  0  0  0  0
  191.6040  178.1160  143.7950 C   0  0  0  0  0  3  0  0  0  0  0  0
  186.0700  177.2570  142.4640 C   0  0  0  0  0  2  0  0  0  0  0  0
  185.8860  178.2460  144.7140 C   0  0  0  0  0  0  0  0  0  0  0  0
  185.1040  178.9290  145.6510 C   0  0  0  0  0  3  0  0  0  0  0  0
  187.7300  179.2030  140.8970 C   0  0  0  0  0  2  0  0  0  0  0  0
  186.8370  178.0620  138.9030 C   0  0  0  0  0  1  0  0  0  0  0  0
  188.0490  178.1590  139.8290 C   0  0  1  0  0  3  0  0  0  0  0  0
  189.1790  176.6910  136.7700 C   0  0  1  0  0  3  0  0  0  0  0  0
  188.9440  179.0000  137.7230 C   0  0  0  0  0  2  0  0  0  0  0  0
  190.7260  176.9640  140.1480 O   0  0  0  0  0  1  0  0  0  0  0  0
  188.4510  175.5770  136.0480 C   0  0  0  0  0  1  0  0  0  0  0  0
  188.2720  177.9110  136.8730 C   0  0  0  0  0  2  0  0  0  0  0  0
  190.2110  177.3850  138.9210 C   0  0  2  0  0  3  0  0  0  0  0  0
  189.2760  178.5200  139.0780 N   0  0  0  0  0  0  0  0  0  0  0  0
  189.5880  176.2150  138.1580 C   0  0  0  0  0  2  0  0  0  0  0  0
  1  9  1  0  0  0  0
  2  5  1  1  0  0  0
  2  3  1  0  0  0  0
  3  7  1  0  0  0  0
  4 11  1  0  0  0  0
  5 14  2  0  0  0  0
  6  1  2  0  0  0  0
  7  4  2  0  0  0  0
  8 21  1  6  0  0  0
  8 12  1  0  0  0  0
  8 13  1  0  0  0  0
 10 19  1  0  0  0  0
 12 16  1  0  0  0  0
 13 18  1  1  0  0  0
 13  2  1  0  0  0  0
 14  1  1  0  0  0  0
 15  4  1  0  0  0  0
 16 17  2  0  0  0  0
 16  5  1  0  0  0  0
 17  6  1  0  0  0  0
 18 10  1  0  0  0  0
 19  3  2  0  0  0  0
 19 20  1  0  0  0  0
 20 15  2  0  0  0  0
 23 22  1  6  0  0  0
 23 21  1  0  0  0  0
 24 27  1  1  0  0  0
 24 28  1  0  0  0  0
 24 31  1  0  0  0  0
 25 30  1  0  0  0  0
 28 25  1  0  0  0  0
 29 30  1  0  0  0  0
 29 26  1  1  0  0  0
 30 23  1  0  0  0  0
 31 29  1  0  0  0  0
M  END
>  <MODEL>
7

>  <REMARK>
 VINA RESULT:      -7.0      2.633      3.580
  Name = 
  3 active torsions:
  status: ('A' for Active; 'I' for Inactive)
    1  A    between atoms: C_5  and  C_16
    2  A    between atoms: C_5  and  N_30
    3  A    between atoms: C_10  and  C_16
                            x       y       z     vdW  Elec       q    Type
                         _______ _______ _______ _____ _____    ______ ____

>  <TORSDO>
F 3

$$$$
=
 OpenBabel11122410583D

 31 35  0  0  1  0  0  0  0  0999 V2000
  191.5450  177.0110  139.2460 C   0  0  0  0  0  0  0  0  0  0  0  0
  188.8710  177.4500  136.5790 C   0  0  2  0  0  3  0  0  0  0  0  0
  188.6040  176.0700  135.9960 C   0  0  0  0  0  0  0  0  0  0  0  0
  189.2500  173.7510  135.6420 C   0  0  0  0  0  0  0  0  0  0  0  0
  189.5390  177.4010  137.9330 C   0  0  0  0  0  0  0  0  0  0  0  0
  190.8150  177.1890  140.4230 C   0  0  0  0  0  3  0  0  0  0  0  0
  189.4920  175.0040  136.2110 C   0  0  0  0  0  3  0  0  0  0  0  0
  186.6780  177.8300  137.7670 C   0  0  2  0  0  3  0  0  0  0  0  0
  192.9020  176.7250  139.3080 O   0  0  0  0  0  1  0  0  0  0  0  0
  186.6050  176.9190  134.8900 O   0  0  0  0  0  0  0  0  0  0  0  0
  190.1920  172.6300  135.8910 C   0  0  0  0  0  1  0  0  0  0  0  0
  187.3690  178.0340  139.1110 C   0  0  0  0  0  2  0  0  0  0  0  0
  187.5910  178.3110  136.6240 C   0  0  2  0  0  3  0  0  0  0  0  0
  190.9090  177.1190  138.0070 C   0  0  0  0  0  3  0  0  0  0  0  0
  188.1250  173.5540  134.8400 C   0  0  0  0  0  3  0  0  0  0  0  0
  188.8030  177.5850  139.1250 C   0  0  0  0  0  0  0  0  0  0  0  0
  189.4510  177.4840  140.3610 C   0  0  0  0  0  3  0  0  0  0  0  0
  186.9080  178.2630  135.2560 C   0  0  0  0  0  2  0  0  0  0  0  0
  187.4880  175.8700  135.1560 C   0  0  0  0  0  0  0  0  0  0  0  0
  187.2460  174.6110  134.5960 C   0  0  0  0  0  3  0  0  0  0  0  0
  185.3480  178.5760  137.7990 C   0  0  0  0  0  2  0  0  0  0  0  0
  184.6050  176.2370  137.5640 C   0  0  0  0  0  1  0  0  0  0  0  0
  184.1860  177.6200  138.0620 C   0  0  1  0  0  3  0  0  0  0  0  0
  181.0560  178.5790  139.5020 C   0  0  1  0  0  3  0  0  0  0  0  0
  182.6910  176.6910  139.7480 C   0  0  0  0  0  2  0  0  0  0  0  0
  184.5360  179.8110  140.0050 O   0  0  0  0  0  1  0  0  0  0  0  0
  179.8790  179.0900  138.6990 C   0  0  0  0  0  1  0  0  0  0  0  0
  181.4140  177.1710  139.0420 C   0  0  0  0  0  2  0  0  0  0  0  0
  183.4590  178.9230  140.0300 C   0  0  2  0  0  3  0  0  0  0  0  0
  183.8330  177.5930  139.5020 N   0  0  0  0  0  0  0  0  0  0  0  0
  182.2430  179.5150  139.3170 C   0  0  0  0  0  2  0  0  0  0  0  0
  1  9  1  0  0  0  0
  1  6  1  0  0  0  0
  2  3  1  1  0  0  0
  2 13  1  0  0  0  0
  2  5  1  0  0  0  0
  3  7  1  0  0  0  0
  4 11  1  0  0  0  0
  4  7  2  0  0  0  0
  5 14  1  0  0  0  0
  5 16  2  0  0  0  0
  8 21  1  1  0  0  0
  8 12  1  0  0  0  0
 10 19  1  0  0  0  0
 10 18  1  0  0  0  0
 12 16  1  0  0  0  0
 13 18  1  6  0  0  0
 13  8  1  0  0  0  0
 14  1  2  0  0  0  0
 15  4  1  0  0  0  0
 16 17  1  0  0  0  0
 17  6  2  0  0  0  0
 19  3  2  0  0  0  0
 20 15  2  0  0  0  0
 20 19  1  0  0  0  0
 21 23  1  0  0  0  0
 23 22  1  1  0  0  0
 23 30  1  0  0  0  0
 24 27  1  6  0  0  0
 28 24  1  0  0  0  0
 28 25  1  0  0  0  0
 29 26  1  6  0  0  0
 30 25  1  0  0  0  0
 30 29  1  0  0  0  0
 31 24  1  0  0  0  0
 31 29  1  0  0  0  0
M  END
>  <MODEL>
8

>  <REMARK>
 VINA RESULT:      -6.9      4.122      7.162
  Name = 
  3 active torsions:
  status: ('A' for Active; 'I' for Inactive)
    1  A    between atoms: C_5  and  C_16
    2  A    between atoms: C_5  and  N_30
    3  A    between atoms: C_10  and  C_16
                            x       y       z     vdW  Elec       q    Type
                         _______ _______ _______ _____ _____    ______ ____

>  <TORSDO>
F 3

$$$$
=
 OpenBabel11122410583D

 31 35  0  0  1  0  0  0  0  0999 V2000
  191.0750  177.1950  141.8790 C   0  0  0  0  0  0  0  0  0  0  0  0
  190.0400  178.0740  138.3280 C   0  0  2  0  0  3  0  0  0  0  0  0
  190.4420  176.8960  137.4510 C   0  0  0  0  0  0  0  0  0  0  0  0
  191.7240  174.8620  137.0810 C   0  0  0  0  0  0  0  0  0  0  0  0
  189.9470  177.7160  139.7920 C   0  0  0  0  0  0  0  0  0  0  0  0
  189.8430  176.9470  142.4890 C   0  0  0  0  0  3  0  0  0  0  0  0
  191.3400  175.9190  137.9090 C   0  0  0  0  0  3  0  0  0  0  0  0
  187.5310  177.8530  138.1970 C   0  0  2  0  0  3  0  0  0  0  0  0
  192.2490  177.0560  142.6060 O   0  0  0  0  0  1  0  0  0  0  0  0
  189.1060  177.7970  135.6220 O   0  0  0  0  0  0  0  0  0  0  0  0
  192.6630  173.8280  137.5860 C   0  0  0  0  0  1  0  0  0  0  0  0
  187.3990  177.7420  139.7130 C   0  0  0  0  0  2  0  0  0  0  0  0
  188.7380  178.7380  137.8350 C   0  0  2  0  0  3  0  0  0  0  0  0
  191.1250  177.5790  140.5370 C   0  0  0  0  0  3  0  0  0  0  0  0
  191.2250  174.7770  135.7800 C   0  0  0  0  0  3  0  0  0  0  0  0
  188.7010  177.4690  140.4120 C   0  0  0  0  0  0  0  0  0  0  0  0
  188.6610  177.0940  141.7590 C   0  0  0  0  0  3  0  0  0  0  0  0
  188.8500  179.0060  136.3330 C   0  0  0  0  0  2  0  0  0  0  0  0
  189.9710  176.8200  136.1230 C   0  0  0  0  0  0  0  0  0  0  0  0
  190.3510  175.7550  135.3010 C   0  0  0  0  0  3  0  0  0  0  0  0
  186.2210  178.4060  137.6460 C   0  0  0  0  0  2  0  0  0  0  0  0
  184.1840  178.3590  139.0330 C   0  0  0  0  0  1  0  0  0  0  0  0
  185.0370  177.5380  138.0660 C   0  0  1  0  0  3  0  0  0  0  0  0
  184.4310  174.1650  137.0420 C   0  0  1  0  0  3  0  0  0  0  0  0
  183.0980  176.2750  137.2970 C   0  0  0  0  0  2  0  0  0  0  0  0
  186.0610  177.0520  135.3430 O   0  0  0  0  0  1  0  0  0  0  0  0
  184.9670  172.9520  137.7720 C   0  0  0  0  0  1  0  0  0  0  0  0
  183.5380  174.9710  137.9770 C   0  0  0  0  0  2  0  0  0  0  0  0
  185.0410  176.3010  135.9280 C   0  0  2  0  0  3  0  0  0  0  0  0
  184.2490  177.1020  136.8870 N   0  0  0  0  0  0  0  0  0  0  0  0
  185.5940  175.0200  136.5530 C   0  0  0  0  0  2  0  0  0  0  0  0
  1  6  1  0  0  0  0
  1  9  1  0  0  0  0
  2  3  1  6  0  0  0
  2  5  1  0  0  0  0
  3  7  1  0  0  0  0
  4 11  1  0  0  0  0
  4  7  2  0  0  0  0
  5 16  2  0  0  0  0
  5 14  1  0  0  0  0
  8 21  1  1  0  0  0
  8 12  1  0  0  0  0
 10 19  1  0  0  0  0
 10 18  1  0  0  0  0
 12 16  1  0  0  0  0
 13 18  1  6  0  0  0
 13  8  1  0  0  0  0
 13  2  1  0  0  0  0
 14  1  2  0  0  0  0
 15  4  1  0  0  0  0
 16 17  1  0  0  0  0
 17  6  2  0  0  0  0
 19  3  2  0  0  0  0
 20 15  2  0  0  0  0
 20 19  1  0  0  0  0
 21 23  1  0  0  0  0
 23 22  1  1  0  0  0
 24 27  1  1  0  0  0
 24 28  1  0  0  0  0
 25 28  1  0  0  0  0
 29 26  1  1  0  0  0
 29 31  1  0  0  0  0
 29 30  1  0  0  0  0
 30 25  1  0  0  0  0
 30 23  1  0  0  0  0
 31 24  1  0  0  0  0
M  END
>  <MODEL>
9

>  <REMARK>
 VINA RESULT:      -6.9      3.575      6.665
  Name = 
  3 active torsions:
  status: ('A' for Active; 'I' for Inactive)
    1  A    between atoms: C_5  and  C_16
    2  A    between atoms: C_5  and  N_30
    3  A    between atoms: C_10  and  C_16
                            x       y       z     vdW  Elec       q    Type
                         _______ _______ _______ _____ _____    ______ ____

>  <TORSDO>
F 3

$$$$
