=
 OpenBabel11122410493D

 32 37  0  0  1  0  0  0  0  0999 V2000
  182.0140  176.9570  139.3560 C   0  0  1  0  0  3  0  0  0  0  0  0
  185.9650  177.2990  137.1960 C   0  0  0  0  0  2  0  0  0  0  0  0
  185.4850  176.2520  136.1860 C   0  0  0  0  0  2  0  0  0  0  0  0
  180.9220  174.7810  138.7440 C   0  0  0  0  0  0  0  0  0  0  0  0
  180.6780  173.6500  137.7800 C   0  0  1  0  0  3  0  0  0  0  0  0
  181.3000  178.3080  141.3310 N   0  0  0  0  0  0  0  0  0  0  0  0
  182.7880  179.3830  139.5820 C   0  0  0  0  0  2  0  0  0  0  0  0
  179.8980  173.5830  135.4890 C   0  0  1  0  0  3  0  0  0  0  0  0
  184.9150  177.5390  138.2820 C   0  0  0  0  0  2  0  0  0  0  0  0
  182.4780  178.2200  138.6340 C   0  0  1  0  0  3  0  0  0  0  0  0
  183.5950  177.9520  137.6270 C   0  0  2  0  0  3  0  0  0  0  0  0
  182.2170  175.9230  136.9940 C   0  0  0  0  0  0  0  0  0  0  0  0
  178.9310  172.7870  136.3520 C   0  0  0  0  0  2  0  0  0  0  0  0
  182.5580  179.0410  141.0660 C   0  0  2  0  0  3  0  0  0  0  0  0
  179.2460  173.1540  137.8010 C   0  0  0  0  0  2  0  0  0  0  0  0
  184.1450  176.6730  135.5820 C   0  0  0  0  0  2  0  0  0  0  0  0
  183.1970  176.9260  136.6610 N   0  0  0  0  0  0  0  0  0  0  0  0
  181.8190  175.0820  136.0880 N   0  0  0  0  0  0  0  0  0  0  0  0
  180.8640  177.3950  140.2600 C   0  0  0  0  0  2  0  0  0  0  0  0
  180.4750  174.6360  140.0540 O   0  0  0  0  0  1  0  0  0  0  0  0
  179.1550  174.7480  134.8580 C   0  0  0  0  0  1  0  0  0  0  0  0
  181.6340  175.8680  138.3690 C   0  0  0  0  0  0  0  0  0  0  0  0
  180.9040  174.0700  136.4120 N   0  0  0  0  0  0  0  0  0  0  0  0
  185.0300  179.0270  141.3460 C   0  0  0  0  0  2  0  0  0  0  0  0
  183.7450  178.2770  141.6340 C   0  0  1  0  0  3  0  0  0  0  0  0
  184.4020  179.1060  142.7200 C   0  0  1  0  0  3  0  0  0  0  0  0
  185.1330  178.1770  143.6690 C   0  0  0  0  0  2  0  0  0  0  0  0
  185.0450  178.7030  145.0600 C   0  0  0  0  0  0  0  0  0  0  0  0
  183.8110  179.0570  145.5910 O   0  0  0  0  0  0  0  0  0  0  0  0
  186.0900  178.8570  145.7420 O   0  0  0  0  0  1  0  0  0  0  0  0
  180.3320  179.8860  142.9070 C   0  0  0  0  0  1  0  0  0  0  0  0
  180.2410  179.2870  141.5160 C   0  0  0  0  0  2  0  0  0  0  0  0
  1 19  1  6  0  0  0
  2  9  1  0  0  0  0
  3  2  1  0  0  0  0
  4 20  1  0  0  0  0
  5 15  1  6  0  0  0
  5  4  1  0  0  0  0
  6 32  1  0  0  0  0
  8 21  1  1  0  0  0
  8 13  1  0  0  0  0
  8 23  1  0  0  0  0
 10  1  1  0  0  0  0
 10  7  1  1  0  0  0
 11  9  1  1  0  0  0
 11 10  1  0  0  0  0
 12 22  1  0  0  0  0
 13 15  1  0  0  0  0
 14  7  1  6  0  0  0
 14  6  1  0  0  0  0
 14 25  1  0  0  0  0
 16  3  1  0  0  0  0
 16 17  1  0  0  0  0
 17 12  1  0  0  0  0
 17 11  1  0  0  0  0
 18 23  1  0  0  0  0
 18 12  2  0  0  0  0
 19  6  1  0  0  0  0
 22  4  2  0  0  0  0
 22  1  1  0  0  0  0
 23  5  1  0  0  0  0
 24 26  1  0  0  0  0
 25 24  1  6  0  0  0
 25 26  1  0  0  0  0
 26 27  1  1  0  0  0
 27 28  1  0  0  0  0
 28 29  2  0  0  0  0
 28 30  1  0  0  0  0
 32 31  1  0  0  0  0
M  END
>  <MODEL>
1

>  <REMARK>
 VINA RESULT:      -6.1      0.000      0.000
  Name = 
  4 active torsions:
  status: ('A' for Active; 'I' for Inactive)
    1  A    between atoms: N_7  and  C_19
    2  A    between atoms: C_10  and  C_17
    3  A    between atoms: C_20  and  C_29
    4  A    between atoms: C_29  and  C_30
                            x       y       z     vdW  Elec       q    Type
                         _______ _______ _______ _____ _____    ______ ____

>  <TORSDO>
F 4

$$$$
=
 OpenBabel11122410493D

 32 37  0  0  1  0  0  0  0  0999 V2000
  185.1190  177.9600  138.0090 C   0  0  1  0  0  3  0  0  0  0  0  0
  181.9620  176.0900  135.3760 C   0  0  0  0  0  2  0  0  0  0  0  0
  183.0650  175.3690  134.5940 C   0  0  0  0  0  2  0  0  0  0  0  0
  187.3330  177.8820  136.8280 C   0  0  0  0  0  0  0  0  0  0  0  0
  188.2900  177.2450  135.8560 C   0  0  1  0  0  3  0  0  0  0  0  0
  184.7000  179.4350  139.9800 N   0  0  0  0  0  0  0  0  0  0  0  0
  183.0530  177.5760  139.4660 C   0  0  0  0  0  2  0  0  0  0  0  0
  189.1920  175.0070  135.6630 C   0  0  1  0  0  3  0  0  0  0  0  0
  182.5550  176.9870  136.4630 C   0  0  0  0  0  2  0  0  0  0  0  0
  184.0810  176.9580  138.5110 C   0  0  1  0  0  3  0  0  0  0  0  0
  183.4430  176.1490  137.3850 C   0  0  2  0  0  3  0  0  0  0  0  0
  185.8030  175.9900  136.4800 C   0  0  0  0  0  0  0  0  0  0  0  0
  190.3480  175.9800  135.8510 C   0  0  0  0  0  2  0  0  0  0  0  0
  183.2860  179.0750  139.7290 C   0  0  2  0  0  3  0  0  0  0  0  0
  189.7310  177.2940  136.3250 C   0  0  0  0  0  2  0  0  0  0  0  0
  183.9590  174.5740  135.5470 C   0  0  0  0  0  2  0  0  0  0  0  0
  184.4630  175.4700  136.5810 N   0  0  0  0  0  0  0  0  0  0  0  0
  186.7090  175.3180  135.8330 N   0  0  0  0  0  0  0  0  0  0  0  0
  185.6950  178.6220  139.2580 C   0  0  0  0  0  2  0  0  0  0  0  0
  187.6430  179.1440  137.3240 O   0  0  0  0  0  1  0  0  0  0  0  0
  189.1740  174.0300  136.8260 C   0  0  0  0  0  1  0  0  0  0  0  0
  186.1630  177.2800  137.1420 C   0  0  0  0  0  0  0  0  0  0  0  0
  188.0040  175.8360  135.6850 N   0  0  0  0  0  0  0  0  0  0  0  0
  181.2680  179.5530  138.3560 C   0  0  0  0  0  2  0  0  0  0  0  0
  182.7200  179.9160  138.5950 C   0  0  1  0  0  3  0  0  0  0  0  0
  181.6150  180.8050  139.1330 C   0  0  1  0  0  3  0  0  0  0  0  0
  181.4810  182.0170  138.2320 C   0  0  0  0  0  2  0  0  0  0  0  0
  180.0580  182.4530  138.1800 C   0  0  0  0  0  0  0  0  0  0  0  0
  179.2800  182.4220  139.3300 O   0  0  0  0  0  1  0  0  0  0  0  0
  179.5520  182.8180  137.0880 O   0  0  0  0  0  0  0  0  0  0  0  0
  186.3760  178.7610  141.6060 C   0  0  0  0  0  1  0  0  0  0  0  0
  184.9600  179.2670  141.4000 C   0  0  0  0  0  2  0  0  0  0  0  0
  1 10  1  0  0  0  0
  1 19  1  1  0  0  0
  2  9  1  0  0  0  0
  3  2  1  0  0  0  0
  3 16  1  0  0  0  0
  4 22  2  0  0  0  0
  4 20  1  0  0  0  0
  5 15  1  1  0  0  0
  5  4  1  0  0  0  0
  6 32  1  0  0  0  0
  8 23  1  0  0  0  0
  8 13  1  0  0  0  0
  8 21  1  1  0  0  0
 10  7  1  6  0  0  0
 11  9  1  6  0  0  0
 11 10  1  0  0  0  0
 12 17  1  0  0  0  0
 12 22  1  0  0  0  0
 13 15  1  0  0  0  0
 14  7  1  6  0  0  0
 14  6  1  0  0  0  0
 16 17  1  0  0  0  0
 17 11  1  0  0  0  0
 18 12  2  0  0  0  0
 19  6  1  0  0  0  0
 22  1  1  0  0  0  0
 23 18  1  0  0  0  0
 23  5  1  0  0  0  0
 24 26  1  0  0  0  0
 25 24  1  6  0  0  0
 25 26  1  0  0  0  0
 25 14  1  0  0  0  0
 26 27  1  6  0  0  0
 28 27  1  0  0  0  0
 28 29  1  0  0  0  0
 30 28  2  0  0  0  0
 32 31  1  0  0  0  0
M  END
>  <MODEL>
2

>  <REMARK>
 VINA RESULT:      -5.9      3.595      6.543
  Name = 
  4 active torsions:
  status: ('A' for Active; 'I' for Inactive)
    1  A    between atoms: N_7  and  C_19
    2  A    between atoms: C_10  and  C_17
    3  A    between atoms: C_20  and  C_29
    4  A    between atoms: C_29  and  C_30
                            x       y       z     vdW  Elec       q    Type
                         _______ _______ _______ _____ _____    ______ ____

>  <TORSDO>
F 4

$$$$
=
 OpenBabel11122410493D

 32 37  0  0  1  0  0  0  0  0999 V2000
  183.6400  177.7630  138.2480 C   0  0  1  0  0  3  0  0  0  0  0  0
  184.0120  178.2840  142.7190 C   0  0  0  0  0  2  0  0  0  0  0  0
  185.5350  178.1780  142.5880 C   0  0  0  0  0  2  0  0  0  0  0  0
  185.7370  176.7060  137.3610 C   0  0  0  0  0  0  0  0  0  0  0  0
  187.2190  176.4490  137.4300 C   0  0  1  0  0  3  0  0  0  0  0  0
  181.5190  177.8480  136.9340 N   0  0  0  0  0  0  0  0  0  0  0  0
  181.7490  179.3190  138.9860 C   0  0  0  0  0  2  0  0  0  0  0  0
  189.1400  177.9200  137.5120 C   0  0  1  0  0  3  0  0  0  0  0  0
  183.3290  178.1060  141.3620 C   0  0  0  0  0  2  0  0  0  0  0  0
  183.2570  179.0440  138.9870 C   0  0  1  0  0  3  0  0  0  0  0  0
  183.8830  179.1380  140.3770 C   0  0  2  0  0  3  0  0  0  0  0  0
  185.9740  178.2780  139.2350 C   0  0  0  0  0  0  0  0  0  0  0  0
  189.2520  177.0460  136.2710 C   0  0  0  0  0  2  0  0  0  0  0  0
  180.9340  178.2520  138.2320 C   0  0  2  0  0  3  0  0  0  0  0  0
  187.8770  176.4120  136.0660 C   0  0  0  0  0  2  0  0  0  0  0  0
  186.0520  179.1920  141.5670 C   0  0  0  0  0  2  0  0  0  0  0  0
  185.3400  179.0020  140.3080 N   0  0  0  0  0  0  0  0  0  0  0  0
  187.2710  178.2510  139.1520 N   0  0  0  0  0  0  0  0  0  0  0  0
  182.9910  177.8700  136.8700 C   0  0  0  0  0  2  0  0  0  0  0  0
  184.9800  175.9480  136.4730 O   0  0  0  0  0  1  0  0  0  0  0  0
  189.0560  179.3760  137.0860 C   0  0  0  0  0  1  0  0  0  0  0  0
  185.1470  177.5870  138.2010 C   0  0  0  0  0  0  0  0  0  0  0  0
  187.9010  177.5090  138.1430 N   0  0  0  0  0  0  0  0  0  0  0  0
  179.6980  177.3620  140.1980 C   0  0  0  0  0  2  0  0  0  0  0  0
  180.6990  177.0320  139.1090 C   0  0  1  0  0  3  0  0  0  0  0  0
  179.2550  176.5890  138.9750 C   0  0  1  0  0  3  0  0  0  0  0  0
  179.1640  175.1130  139.3110 C   0  0  0  0  0  2  0  0  0  0  0  0
  179.0320  174.3170  138.0590 C   0  0  0  0  0  0  0  0  0  0  0  0
  178.9310  174.9620  136.8330 O   0  0  0  0  0  0  0  0  0  0  0  0
  178.9800  173.0610  138.1140 O   0  0  0  0  0  1  0  0  0  0  0  0
  179.5250  178.8900  136.0140 C   0  0  0  0  0  1  0  0  0  0  0  0
  181.0340  178.7660  135.9160 C   0  0  0  0  0  2  0  0  0  0  0  0
  1 19  1  6  0  0  0
  1 10  1  0  0  0  0
  3  2  1  0  0  0  0
  4  5  1  0  0  0  0
  4 22  2  0  0  0  0
  5 15  1  6  0  0  0
  5 23  1  0  0  0  0
  6 14  1  0  0  0  0
  8 21  1  6  0  0  0
  8 23  1  0  0  0  0
  9  2  1  0  0  0  0
 10  7  1  1  0  0  0
 10 11  1  0  0  0  0
 11  9  1  1  0  0  0
 12 17  1  0  0  0  0
 13  8  1  0  0  0  0
 14  7  1  1  0  0  0
 14 25  1  0  0  0  0
 15 13  1  0  0  0  0
 16  3  1  0  0  0  0
 17 11  1  0  0  0  0
 17 16  1  0  0  0  0
 18 12  2  0  0  0  0
 19  6  1  0  0  0  0
 20  4  1  0  0  0  0
 22  1  1  0  0  0  0
 22 12  1  0  0  0  0
 23 18  1  0  0  0  0
 25 24  1  1  0  0  0
 26 25  1  0  0  0  0
 26 27  1  1  0  0  0
 26 24  1  0  0  0  0
 28 30  1  0  0  0  0
 28 27  1  0  0  0  0
 29 28  2  0  0  0  0
 32 31  1  0  0  0  0
 32  6  1  0  0  0  0
M  END
>  <MODEL>
3

>  <REMARK>
 VINA RESULT:      -5.8      3.192      6.943
  Name = 
  4 active torsions:
  status: ('A' for Active; 'I' for Inactive)
    1  A    between atoms: N_7  and  C_19
    2  A    between atoms: C_10  and  C_17
    3  A    between atoms: C_20  and  C_29
    4  A    between atoms: C_29  and  C_30
                            x       y       z     vdW  Elec       q    Type
                         _______ _______ _______ _____ _____    ______ ____

>  <TORSDO>
F 4

$$$$
=
 OpenBabel11122410493D

 32 37  0  0  1  0  0  0  0  0999 V2000
  188.5110  177.3660  140.9670 C   0  0  1  0  0  3  0  0  0  0  0  0
  185.1640  177.6770  137.9500 C   0  0  0  0  0  2  0  0  0  0  0  0
  184.1730  177.8950  139.0980 C   0  0  0  0  0  2  0  0  0  0  0  0
  187.5470  176.8190  143.2190 C   0  0  0  0  0  0  0  0  0  0  0  0
  186.4270  176.8700  144.2250 C   0  0  1  0  0  3  0  0  0  0  0  0
  190.9370  177.0910  140.4430 N   0  0  0  0  0  0  0  0  0  0  0  0
  189.4880  178.4500  138.8670 C   0  0  0  0  0  2  0  0  0  0  0  0
  185.1700  178.6970  145.1950 C   0  0  1  0  0  3  0  0  0  0  0  0
  186.5800  177.4460  138.4830 C   0  0  0  0  0  2  0  0  0  0  0  0
  188.3960  178.4920  139.9420 C   0  0  1  0  0  3  0  0  0  0  0  0
  186.9890  178.6280  139.3640 C   0  0  2  0  0  3  0  0  0  0  0  0
  186.2280  178.2890  141.7550 C   0  0  0  0  0  0  0  0  0  0  0  0
  185.8710  177.9430  146.3170 C   0  0  0  0  0  2  0  0  0  0  0  0
  190.4800  177.2860  139.0490 C   0  0  2  0  0  3  0  0  0  0  0  0
  186.9170  177.0530  145.6470 C   0  0  0  0  0  2  0  0  0  0  0  0
  184.6320  179.0550  139.9830 C   0  0  0  0  0  2  0  0  0  0  0  0
  185.9970  178.8000  140.4280 N   0  0  0  0  0  0  0  0  0  0  0  0
  185.3700  178.5350  142.7000 N   0  0  0  0  0  0  0  0  0  0  0  0
  189.9470  177.4200  141.4830 C   0  0  0  0  0  2  0  0  0  0  0  0
  188.6240  175.9770  143.4770 O   0  0  0  0  0  1  0  0  0  0  0  0
  185.6810  180.1280  145.1670 C   0  0  0  0  0  1  0  0  0  0  0  0
  187.4650  177.5060  142.0570 C   0  0  0  0  0  0  0  0  0  0  0  0
  185.5570  178.0020  143.9840 N   0  0  0  0  0  0  0  0  0  0  0  0
  189.4560  176.1960  137.0610 C   0  0  0  0  0  2  0  0  0  0  0  0
  189.9010  175.9920  138.4960 C   0  0  1  0  0  3  0  0  0  0  0  0
  190.7700  175.5030  137.3530 C   0  0  1  0  0  3  0  0  0  0  0  0
  190.5970  174.0030  137.2150 C   0  0  0  0  0  2  0  0  0  0  0  0
  191.7500  173.4280  136.4690 C   0  0  0  0  0  0  0  0  0  0  0  0
  193.0470  173.6540  136.9120 O   0  0  0  0  0  1  0  0  0  0  0  0
  191.5520  172.7650  135.4180 O   0  0  0  0  0  0  0  0  0  0  0  0
  193.2650  177.4530  139.8430 C   0  0  0  0  0  1  0  0  0  0  0  0
  192.0890  177.9500  140.6620 C   0  0  0  0  0  2  0  0  0  0  0  0
  1 19  1  1  0  0  0
  1 22  1  0  0  0  0
  2  9  1  0  0  0  0
  2  3  1  0  0  0  0
  3 16  1  0  0  0  0
  4 20  1  0  0  0  0
  4  5  1  0  0  0  0
  5 15  1  1  0  0  0
  6 32  1  0  0  0  0
  6 19  1  0  0  0  0
  8 21  1  6  0  0  0
  8 13  1  0  0  0  0
 10  7  1  6  0  0  0
 10  1  1  0  0  0  0
 11  9  1  1  0  0  0
 11 10  1  0  0  0  0
 11 17  1  0  0  0  0
 12 22  1  0  0  0  0
 12 18  2  0  0  0  0
 14  7  1  1  0  0  0
 14  6  1  0  0  0  0
 15 13  1  0  0  0  0
 16 17  1  0  0  0  0
 17 12  1  0  0  0  0
 18 23  1  0  0  0  0
 22  4  2  0  0  0  0
 23  5  1  0  0  0  0
 23  8  1  0  0  0  0
 24 26  1  0  0  0  0
 25 24  1  6  0  0  0
 25 14  1  0  0  0  0
 26 27  1  1  0  0  0
 26 25  1  0  0  0  0
 28 29  1  0  0  0  0
 28 27  1  0  0  0  0
 30 28  2  0  0  0  0
 31 32  1  0  0  0  0
M  END
>  <MODEL>
4

>  <REMARK>
 VINA RESULT:      -5.5      5.162      9.171
  Name = 
  4 active torsions:
  status: ('A' for Active; 'I' for Inactive)
    1  A    between atoms: N_7  and  C_19
    2  A    between atoms: C_10  and  C_17
    3  A    between atoms: C_20  and  C_29
    4  A    between atoms: C_29  and  C_30
                            x       y       z     vdW  Elec       q    Type
                         _______ _______ _______ _____ _____    ______ ____

>  <TORSDO>
F 4

$$$$
=
 OpenBabel11122410493D

 32 37  0  0  1  0  0  0  0  0999 V2000
  183.3080  177.2510  139.6270 C   0  0  1  0  0  3  0  0  0  0  0  0
  187.4790  177.6350  137.9380 C   0  0  0  0  0  2  0  0  0  0  0  0
  187.0710  176.7310  136.7700 C   0  0  0  0  0  2  0  0  0  0  0  0
  182.2080  175.2130  138.6600 C   0  0  0  0  0  0  0  0  0  0  0  0
  182.0260  174.2100  137.5520 C   0  0  1  0  0  3  0  0  0  0  0  0
  182.4370  178.4100  141.6610 N   0  0  0  0  0  0  0  0  0  0  0  0
  184.1440  179.5970  140.2100 C   0  0  0  0  0  2  0  0  0  0  0  0
  181.4960  174.4350  135.2000 C   0  0  1  0  0  3  0  0  0  0  0  0
  186.3280  177.8050  138.9300 C   0  0  0  0  0  2  0  0  0  0  0  0
  183.8950  178.5620  139.1060 C   0  0  1  0  0  3  0  0  0  0  0  0
  185.1020  178.3530  138.1960 C   0  0  2  0  0  3  0  0  0  0  0  0
  183.7260  176.4770  137.1950 C   0  0  0  0  0  0  0  0  0  0  0  0
  180.4120  173.5960  135.8620 C   0  0  0  0  0  2  0  0  0  0  0  0
  183.7430  179.1040  141.6120 C   0  0  2  0  0  3  0  0  0  0  0  0
  180.5830  173.7850  137.3690 C   0  0  0  0  0  2  0  0  0  0  0  0
  185.8210  177.2820  136.0840 C   0  0  0  0  0  2  0  0  0  0  0  0
  184.7720  177.4600  137.0820 N   0  0  0  0  0  0  0  0  0  0  0  0
  183.3960  175.7610  136.1620 N   0  0  0  0  0  0  0  0  0  0  0  0
  182.0850  177.6440  140.4520 C   0  0  0  0  0  2  0  0  0  0  0  0
  181.6180  174.9460  139.8910 O   0  0  0  0  0  1  0  0  0  0  0  0
  180.8690  175.6980  134.6350 C   0  0  0  0  0  1  0  0  0  0  0  0
  182.9960  176.2990  138.4880 C   0  0  0  0  0  0  0  0  0  0  0  0
  182.4140  174.7660  136.2720 N   0  0  0  0  0  0  0  0  0  0  0  0
  186.1550  178.9650  142.2050 C   0  0  0  0  0  2  0  0  0  0  0  0
  184.8330  178.2240  142.2070 C   0  0  1  0  0  3  0  0  0  0  0  0
  185.3500  178.8610  143.4830 C   0  0  1  0  0  3  0  0  0  0  0  0
  185.9350  177.7770  144.3670 C   0  0  0  0  0  2  0  0  0  0  0  0
  185.9030  178.2140  145.7900 C   0  0  0  0  0  0  0  0  0  0  0  0
  184.7070  178.6260  146.3640 O   0  0  0  0  0  0  0  0  0  0  0  0
  186.9660  178.2420  146.4630 O   0  0  0  0  0  1  0  0  0  0  0  0
  180.6350  179.1290  143.1250 C   0  0  0  0  0  1  0  0  0  0  0  0
  181.4020  179.4130  141.8470 C   0  0  0  0  0  2  0  0  0  0  0  0
  1 19  1  6  0  0  0
  2  9  1  0  0  0  0
  3  2  1  0  0  0  0
  4 20  1  0  0  0  0
  5 15  1  6  0  0  0
  5  4  1  0  0  0  0
  6 32  1  0  0  0  0
  8 21  1  1  0  0  0
  8 13  1  0  0  0  0
  8 23  1  0  0  0  0
 10  1  1  0  0  0  0
 10  7  1  1  0  0  0
 11  9  1  1  0  0  0
 11 10  1  0  0  0  0
 12 22  1  0  0  0  0
 13 15  1  0  0  0  0
 14  7  1  6  0  0  0
 14  6  1  0  0  0  0
 14 25  1  0  0  0  0
 16  3  1  0  0  0  0
 16 17  1  0  0  0  0
 17 12  1  0  0  0  0
 17 11  1  0  0  0  0
 18 23  1  0  0  0  0
 18 12  2  0  0  0  0
 19  6  1  0  0  0  0
 22  4  2  0  0  0  0
 22  1  1  0  0  0  0
 23  5  1  0  0  0  0
 24 26  1  0  0  0  0
 25 24  1  6  0  0  0
 25 26  1  0  0  0  0
 26 27  1  1  0  0  0
 27 28  1  0  0  0  0
 28 29  2  0  0  0  0
 28 30  1  0  0  0  0
 32 31  1  0  0  0  0
M  END
>  <MODEL>
5

>  <REMARK>
 VINA RESULT:      -5.4      1.285      1.487
  Name = 
  4 active torsions:
  status: ('A' for Active; 'I' for Inactive)
    1  A    between atoms: N_7  and  C_19
    2  A    between atoms: C_10  and  C_17
    3  A    between atoms: C_20  and  C_29
    4  A    between atoms: C_29  and  C_30
                            x       y       z     vdW  Elec       q    Type
                         _______ _______ _______ _____ _____    ______ ____

>  <TORSDO>
F 4

$$$$
=
 OpenBabel11122410493D

 32 37  0  0  1  0  0  0  0  0999 V2000
  183.0010  179.7380  139.9090 C   0  0  1  0  0  3  0  0  0  0  0  0
  180.0640  178.4000  143.0680 C   0  0  0  0  0  2  0  0  0  0  0  0
  178.9320  179.0530  142.2680 C   0  0  0  0  0  2  0  0  0  0  0  0
  181.9970  181.6230  138.5910 C   0  0  0  0  0  0  0  0  0  0  0  0
  180.8080  182.3540  138.0250 C   0  0  1  0  0  3  0  0  0  0  0  0
  185.4430  179.2200  139.8640 N   0  0  0  0  0  0  0  0  0  0  0  0
  183.8430  177.5030  140.8220 C   0  0  0  0  0  2  0  0  0  0  0  0
  178.9720  181.6590  136.6090 C   0  0  1  0  0  3  0  0  0  0  0  0
  181.4170  178.6270  142.3920 C   0  0  0  0  0  2  0  0  0  0  0  0
  182.6750  178.2740  140.1970 C   0  0  1  0  0  3  0  0  0  0  0  0
  181.3630  178.0960  140.9580 C   0  0  2  0  0  3  0  0  0  0  0  0
  180.4750  179.8560  139.3670 C   0  0  0  0  0  0  0  0  0  0  0  0
  179.7350  182.7700  135.9010 C   0  0  0  0  0  2  0  0  0  0  0  0
  185.1060  178.3600  141.0210 C   0  0  2  0  0  3  0  0  0  0  0  0
  181.0630  182.9180  136.6420 C   0  0  0  0  0  2  0  0  0  0  0  0
  178.9310  178.5320  140.8300 C   0  0  0  0  0  2  0  0  0  0  0  0
  180.2530  178.7390  140.2500 N   0  0  0  0  0  0  0  0  0  0  0  0
  179.4840  180.3470  138.6850 N   0  0  0  0  0  0  0  0  0  0  0  0
  184.2920  179.7220  139.0930 C   0  0  0  0  0  2  0  0  0  0  0  0
  183.2380  182.2500  138.5400 O   0  0  0  0  0  1  0  0  0  0  0  0
  179.0410  180.3970  135.7650 C   0  0  0  0  0  1  0  0  0  0  0  0
  181.8460  180.4300  139.2100 C   0  0  0  0  0  0  0  0  0  0  0  0
  179.6760  181.4650  137.8600 N   0  0  0  0  0  0  0  0  0  0  0  0
  183.9990  178.5690  143.2390 C   0  0  0  0  0  2  0  0  0  0  0  0
  184.9960  179.1970  142.2870 C   0  0  1  0  0  3  0  0  0  0  0  0
  185.4830  178.3830  143.4690 C   0  0  1  0  0  3  0  0  0  0  0  0
  185.9530  179.3310  144.5550 C   0  0  0  0  0  2  0  0  0  0  0  0
  185.7730  178.6980  145.8910 C   0  0  0  0  0  0  0  0  0  0  0  0
  184.5860  178.8770  146.5900 O   0  0  0  0  0  1  0  0  0  0  0  0
  186.7080  178.0280  146.4010 O   0  0  0  0  0  0  0  0  0  0  0  0
  185.4800  178.1480  137.6820 C   0  0  0  0  0  1  0  0  0  0  0  0
  186.2610  178.4400  138.9490 C   0  0  0  0  0  2  0  0  0  0  0  0
  1 19  1  6  0  0  0
  1 10  1  0  0  0  0
  3  2  1  0  0  0  0
  4 22  2  0  0  0  0
  5 15  1  6  0  0  0
  5  4  1  0  0  0  0
  6 14  1  0  0  0  0
  8 21  1  6  0  0  0
  8 23  1  0  0  0  0
  9  2  1  0  0  0  0
 10  7  1  1  0  0  0
 10 11  1  0  0  0  0
 11  9  1  1  0  0  0
 12 17  1  0  0  0  0
 13  8  1  0  0  0  0
 13 15  1  0  0  0  0
 14  7  1  6  0  0  0
 14 25  1  0  0  0  0
 16  3  1  0  0  0  0
 17 16  1  0  0  0  0
 17 11  1  0  0  0  0
 18 12  2  0  0  0  0
 19  6  1  0  0  0  0
 20  4  1  0  0  0  0
 22 12  1  0  0  0  0
 22  1  1  0  0  0  0
 23  5  1  0  0  0  0
 23 18  1  0  0  0  0
 24 26  1  0  0  0  0
 25 24  1  1  0  0  0
 25 26  1  0  0  0  0
 26 27  1  1  0  0  0
 27 28  1  0  0  0  0
 28 30  2  0  0  0  0
 28 29  1  0  0  0  0
 31 32  1  0  0  0  0
 32  6  1  0  0  0  0
M  END
>  <MODEL>
6

>  <REMARK>
 VINA RESULT:      -5.4      3.728      5.876
  Name = 
  4 active torsions:
  status: ('A' for Active; 'I' for Inactive)
    1  A    between atoms: N_7  and  C_19
    2  A    between atoms: C_10  and  C_17
    3  A    between atoms: C_20  and  C_29
    4  A    between atoms: C_29  and  C_30
                            x       y       z     vdW  Elec       q    Type
                         _______ _______ _______ _____ _____    ______ ____

>  <TORSDO>
F 4

$$$$
=
 OpenBabel11122410493D

 32 37  0  0  1  0  0  0  0  0999 V2000
  187.5950  176.2730  137.3220 C   0  0  1  0  0  3  0  0  0  0  0  0
  188.9630  177.9620  141.2810 C   0  0  0  0  0  2  0  0  0  0  0  0
  190.2750  177.1830  141.1410 C   0  0  0  0  0  2  0  0  0  0  0  0
  188.9180  174.2040  136.8030 C   0  0  0  0  0  0  0  0  0  0  0  0
  190.1720  173.3770  136.9070 C   0  0  1  0  0  3  0  0  0  0  0  0
  185.4650  176.8340  136.1460 N   0  0  0  0  0  0  0  0  0  0  0  0
  186.6210  178.6300  137.5130 C   0  0  0  0  0  2  0  0  0  0  0  0
  192.4900  173.8330  136.3770 C   0  0  1  0  0  3  0  0  0  0  0  0
  188.0250  177.6760  140.1070 C   0  0  0  0  0  2  0  0  0  0  0  0
  187.8790  177.7550  137.5580 C   0  0  1  0  0  3  0  0  0  0  0  0
  188.7390  178.0060  138.7950 C   0  0  2  0  0  3  0  0  0  0  0  0
  190.0870  176.0270  137.9680 C   0  0  0  0  0  0  0  0  0  0  0  0
  192.0250  172.6530  135.5350 C   0  0  0  0  0  2  0  0  0  0  0  0
  185.3330  177.8350  137.2280 C   0  0  2  0  0  3  0  0  0  0  0  0
  190.5000  172.6360  135.6260 C   0  0  0  0  0  2  0  0  0  0  0  0
  190.9420  177.5020  139.8030 C   0  0  0  0  0  2  0  0  0  0  0  0
  189.9910  177.2480  138.7260 N   0  0  0  0  0  0  0  0  0  0  0  0
  191.2330  175.4250  137.8530 N   0  0  0  0  0  0  0  0  0  0  0  0
  186.7920  176.2070  136.0240 C   0  0  0  0  0  2  0  0  0  0  0  0
  187.7770  173.6040  136.2810 O   0  0  0  0  0  1  0  0  0  0  0  0
  192.8960  174.9700  135.4550 C   0  0  0  0  0  1  0  0  0  0  0  0
  188.8800  175.4670  137.2870 C   0  0  0  0  0  0  0  0  0  0  0  0
  191.3300  174.2100  137.1590 N   0  0  0  0  0  0  0  0  0  0  0  0
  184.2690  178.2280  139.4420 C   0  0  0  0  0  2  0  0  0  0  0  0
  184.8140  177.1760  138.4980 C   0  0  1  0  0  3  0  0  0  0  0  0
  183.3190  177.4010  138.6040 C   0  0  1  0  0  3  0  0  0  0  0  0
  182.7180  176.2980  139.4530 C   0  0  0  0  0  2  0  0  0  0  0  0
  181.2630  176.5470  139.6490 C   0  0  0  0  0  0  0  0  0  0  0  0
  180.3420  175.5490  139.3560 O   0  0  0  0  0  0  0  0  0  0  0  0
  180.8650  177.6720  140.0480 O   0  0  0  0  0  1  0  0  0  0  0  0
  183.7020  177.4600  134.5940 C   0  0  0  0  0  1  0  0  0  0  0  0
  185.1900  177.5000  134.8830 C   0  0  0  0  0  2  0  0  0  0  0  0
  1 19  1  6  0  0  0
  1 10  1  0  0  0  0
  3  2  1  0  0  0  0
  4  5  1  0  0  0  0
  4 22  2  0  0  0  0
  5 15  1  6  0  0  0
  5 23  1  0  0  0  0
  6 14  1  0  0  0  0
  8 21  1  6  0  0  0
  8 23  1  0  0  0  0
  9  2  1  0  0  0  0
 10  7  1  1  0  0  0
 10 11  1  0  0  0  0
 11  9  1  1  0  0  0
 12 17  1  0  0  0  0
 13 15  1  0  0  0  0
 13  8  1  0  0  0  0
 14  7  1  1  0  0  0
 14 25  1  0  0  0  0
 16  3  1  0  0  0  0
 17 11  1  0  0  0  0
 17 16  1  0  0  0  0
 18 12  2  0  0  0  0
 19  6  1  0  0  0  0
 20  4  1  0  0  0  0
 22  1  1  0  0  0  0
 22 12  1  0  0  0  0
 23 18  1  0  0  0  0
 25 26  1  0  0  0  0
 25 24  1  1  0  0  0
 26 24  1  0  0  0  0
 26 27  1  1  0  0  0
 27 28  1  0  0  0  0
 28 30  1  0  0  0  0
 29 28  2  0  0  0  0
 31 32  1  0  0  0  0
 32  6  1  0  0  0  0
M  END
>  <MODEL>
7

>  <REMARK>
 VINA RESULT:      -5.1      4.630      7.974
  Name = 
  4 active torsions:
  status: ('A' for Active; 'I' for Inactive)
    1  A    between atoms: N_7  and  C_19
    2  A    between atoms: C_10  and  C_17
    3  A    between atoms: C_20  and  C_29
    4  A    between atoms: C_29  and  C_30
                            x       y       z     vdW  Elec       q    Type
                         _______ _______ _______ _____ _____    ______ ____

>  <TORSDO>
F 4

$$$$
=
 OpenBabel11122410493D

 32 37  0  0  1  0  0  0  0  0999 V2000
  188.1290  177.3920  139.4470 C   0  0  1  0  0  3  0  0  0  0  0  0
  183.9640  178.1340  141.0270 C   0  0  0  0  0  2  0  0  0  0  0  0
  184.5390  178.2530  142.4420 C   0  0  0  0  0  2  0  0  0  0  0  0
  189.6040  176.6280  141.3280 C   0  0  0  0  0  0  0  0  0  0  0  0
  189.9770  176.5990  142.7870 C   0  0  1  0  0  3  0  0  0  0  0  0
  188.7580  177.1070  137.0470 N   0  0  0  0  0  0  0  0  0  0  0  0
  186.8540  178.6740  137.6380 C   0  0  0  0  0  2  0  0  0  0  0  0
  190.4550  178.3430  144.3960 C   0  0  1  0  0  3  0  0  0  0  0  0
  185.0600  177.8040  140.0120 C   0  0  0  0  0  2  0  0  0  0  0  0
  187.3000  178.6290  139.1040 C   0  0  1  0  0  3  0  0  0  0  0  0
  186.1560  178.8690  140.0870 C   0  0  2  0  0  3  0  0  0  0  0  0
  187.8710  178.2890  141.8580 C   0  0  0  0  0  0  0  0  0  0  0  0
  191.6800  177.4490  144.2740 C   0  0  0  0  0  2  0  0  0  0  0  0
  187.3420  177.4690  136.8130 C   0  0  2  0  0  3  0  0  0  0  0  0
  191.4750  176.6090  143.0140 C   0  0  0  0  0  2  0  0  0  0  0  0
  185.6600  179.2930  142.4730 C   0  0  0  0  0  2  0  0  0  0  0  0
  186.6540  178.9500  141.4620 N   0  0  0  0  0  0  0  0  0  0  0  0
  188.3330  178.4530  143.0620 N   0  0  0  0  0  0  0  0  0  0  0  0
  189.2530  177.3470  138.4140 C   0  0  0  0  0  2  0  0  0  0  0  0
  190.2340  175.7310  140.4710 O   0  0  0  0  0  1  0  0  0  0  0  0
  190.8260  179.7530  143.9670 C   0  0  0  0  0  1  0  0  0  0  0  0
  188.6200  177.4420  140.8810 C   0  0  0  0  0  0  0  0  0  0  0  0
  189.4900  177.7760  143.4760 N   0  0  0  0  0  0  0  0  0  0  0  0
  185.0460  176.5550  136.5270 C   0  0  0  0  0  2  0  0  0  0  0  0
  186.4430  176.2620  137.0360 C   0  0  1  0  0  3  0  0  0  0  0  0
  185.9930  175.7170  135.6950 C   0  0  1  0  0  3  0  0  0  0  0  0
  185.6490  174.2490  135.8550 C   0  0  0  0  0  2  0  0  0  0  0  0
  186.5950  173.4190  135.0600 C   0  0  0  0  0  0  0  0  0  0  0  0
  187.8340  173.9310  134.6980 O   0  0  0  0  0  1  0  0  0  0  0  0
  186.2600  172.2650  134.6870 O   0  0  0  0  0  0  0  0  0  0  0  0
  189.3770  177.4380  134.7190 C   0  0  0  0  0  1  0  0  0  0  0  0
  189.5790  177.9030  136.1490 C   0  0  0  0  0  2  0  0  0  0  0  0
  1 19  1  6  0  0  0
  1 22  1  0  0  0  0
  2  3  1  0  0  0  0
  3 16  1  0  0  0  0
  4  5  1  0  0  0  0
  5 15  1  6  0  0  0
  5 23  1  0  0  0  0
  6 19  1  0  0  0  0
  8 21  1  6  0  0  0
  9  2  1  0  0  0  0
 10  7  1  6  0  0  0
 10  1  1  0  0  0  0
 10 11  1  0  0  0  0
 11  9  1  1  0  0  0
 11 17  1  0  0  0  0
 12 18  2  0  0  0  0
 13  8  1  0  0  0  0
 14 25  1  0  0  0  0
 14  6  1  0  0  0  0
 14  7  1  1  0  0  0
 15 13  1  0  0  0  0
 17 12  1  0  0  0  0
 17 16  1  0  0  0  0
 18 23  1  0  0  0  0
 20  4  1  0  0  0  0
 22  4  2  0  0  0  0
 22 12  1  0  0  0  0
 23  8  1  0  0  0  0
 25 24  1  1  0  0  0
 26 27  1  1  0  0  0
 26 24  1  0  0  0  0
 26 25  1  0  0  0  0
 28 27  1  0  0  0  0
 29 28  1  0  0  0  0
 30 28  2  0  0  0  0
 31 32  1  0  0  0  0
 32  6  1  0  0  0  0
M  END
>  <MODEL>
8

>  <REMARK>
 VINA RESULT:      -4.9      4.761      9.579
  Name = 
  4 active torsions:
  status: ('A' for Active; 'I' for Inactive)
    1  A    between atoms: N_7  and  C_19
    2  A    between atoms: C_10  and  C_17
    3  A    between atoms: C_20  and  C_29
    4  A    between atoms: C_29  and  C_30
                            x       y       z     vdW  Elec       q    Type
                         _______ _______ _______ _____ _____    ______ ____

>  <TORSDO>
F 4

$$$$
=
 OpenBabel11122410493D

 32 37  0  0  1  0  0  0  0  0999 V2000
  184.5660  177.0820  137.6950 C   0  0  1  0  0  3  0  0  0  0  0  0
  182.3610  173.8390  135.4550 C   0  0  0  0  0  2  0  0  0  0  0  0
  181.0890  174.1890  136.2350 C   0  0  0  0  0  2  0  0  0  0  0  0
  183.3190  177.6270  139.8040 C   0  0  0  0  0  0  0  0  0  0  0  0
  182.0420  177.7220  140.5970 C   0  0  1  0  0  3  0  0  0  0  0  0
  186.9390  177.7680  137.3240 N   0  0  0  0  0  0  0  0  0  0  0  0
  185.5660  176.9770  135.3440 C   0  0  0  0  0  2  0  0  0  0  0  0
  179.9410  178.8570  140.1990 C   0  0  1  0  0  3  0  0  0  0  0  0
  183.5400  174.6990  135.9120 C   0  0  0  0  0  2  0  0  0  0  0  0
  184.2980  177.1230  136.1920 C   0  0  1  0  0  3  0  0  0  0  0  0
  183.1770  176.1780  135.7630 C   0  0  2  0  0  3  0  0  0  0  0  0
  181.9840  177.0370  137.8260 C   0  0  0  0  0  0  0  0  0  0  0  0
  180.5440  179.3940  141.4890 C   0  0  0  0  0  2  0  0  0  0  0  0
  186.8490  176.8300  136.1830 C   0  0  2  0  0  3  0  0  0  0  0  0
  182.0000  178.9340  141.5070 C   0  0  0  0  0  2  0  0  0  0  0  0
  180.7770  175.6800  136.1000 C   0  0  0  0  0  2  0  0  0  0  0  0
  181.9470  176.4480  136.5110 N   0  0  0  0  0  0  0  0  0  0  0  0
  180.8740  177.3460  138.4270 N   0  0  0  0  0  0  0  0  0  0  0  0
  185.6530  178.1240  137.9500 C   0  0  0  0  0  2  0  0  0  0  0  0
  184.5250  177.7700  140.4820 O   0  0  0  0  0  1  0  0  0  0  0  0
  179.8180  179.9940  139.1990 C   0  0  0  0  0  1  0  0  0  0  0  0
  183.2940  177.3220  138.4860 C   0  0  0  0  0  0  0  0  0  0  0  0
  180.8940  177.8740  139.7260 N   0  0  0  0  0  0  0  0  0  0  0  0
  186.8710  174.4390  135.4970 C   0  0  0  0  0  2  0  0  0  0  0  0
  187.0190  175.3960  136.6620 C   0  0  1  0  0  3  0  0  0  0  0  0
  188.2490  174.7920  136.0130 C   0  0  1  0  0  3  0  0  0  0  0  0
  188.7670  173.6720  136.8930 C   0  0  0  0  0  2  0  0  0  0  0  0
  190.2520  173.7380  136.9750 C   0  0  0  0  0  0  0  0  0  0  0  0
  190.8600  174.5010  137.9640 O   0  0  0  0  0  1  0  0  0  0  0  0
  190.9570  173.1300  136.1290 O   0  0  0  0  0  0  0  0  0  0  0  0
  189.0090  179.0370  137.2090 C   0  0  0  0  0  1  0  0  0  0  0  0
  187.5370  179.0030  136.8440 C   0  0  0  0  0  2  0  0  0  0  0  0
  1 19  1  6  0  0  0
  1 22  1  0  0  0  0
  2  9  1  0  0  0  0
  2  3  1  0  0  0  0
  4 20  1  0  0  0  0
  4  5  1  0  0  0  0
  5 15  1  1  0  0  0
  6 19  1  0  0  0  0
  8 21  1  6  0  0  0
  8 13  1  0  0  0  0
 10  7  1  6  0  0  0
 10  1  1  0  0  0  0
 11  9  1  1  0  0  0
 11 10  1  0  0  0  0
 11 17  1  0  0  0  0
 12 18  2  0  0  0  0
 12 22  1  0  0  0  0
 13 15  1  0  0  0  0
 14  7  1  1  0  0  0
 14 25  1  0  0  0  0
 14  6  1  0  0  0  0
 16  3  1  0  0  0  0
 16 17  1  0  0  0  0
 17 12  1  0  0  0  0
 18 23  1  0  0  0  0
 22  4  2  0  0  0  0
 23  8  1  0  0  0  0
 23  5  1  0  0  0  0
 24 26  1  0  0  0  0
 25 24  1  6  0  0  0
 26 25  1  0  0  0  0
 26 27  1  1  0  0  0
 27 28  1  0  0  0  0
 28 29  1  0  0  0  0
 30 28  2  0  0  0  0
 32 31  1  0  0  0  0
 32  6  1  0  0  0  0
M  END
>  <MODEL>
9

>  <REMARK>
 VINA RESULT:      -4.8      3.567      6.703
  Name = 
  4 active torsions:
  status: ('A' for Active; 'I' for Inactive)
    1  A    between atoms: N_7  and  C_19
    2  A    between atoms: C_10  and  C_17
    3  A    between atoms: C_20  and  C_29
    4  A    between atoms: C_29  and  C_30
                            x       y       z     vdW  Elec       q    Type
                         _______ _______ _______ _____ _____    ______ ____

>  <TORSDO>
F 4

$$$$
