=
 OpenBabel11122410443D

 32 37  0  0  1  0  0  0  0  0999 V2000
  189.0270  176.5600  147.1630 C   0  0  0  0  0  2  0  0  0  0  0  0
  188.1120  178.3110  142.1070 C   0  0  2  0  0  3  0  0  0  0  0  0
  191.8050  176.8640  139.2610 C   0  0  0  0  0  3  0  0  0  0  0  0
  190.9790  176.9990  138.0150 C   0  0  0  0  0  2  0  0  0  0  0  0
  185.9270  178.9810  141.0200 C   0  0  0  0  0  0  0  0  0  0  0  0
  184.9960  178.8360  139.9100 C   0  0  0  0  0  0  0  0  0  0  0  0
  188.3770  178.0510  144.5870 C   0  0  2  0  0  3  0  0  0  0  0  0
  190.2230  177.5440  143.1070 C   0  0  0  0  0  2  0  0  0  0  0  0
  184.2750  178.3890  137.8900 N   0  0  0  0  0  0  0  0  0  0  0  0
  190.5620  177.5480  145.3940 C   0  0  0  0  0  2  0  0  0  0  0  0
  191.2850  177.1050  140.4670 C   0  0  0  0  0  3  0  0  0  0  0  0
  189.2620  177.3230  141.9410 C   0  0  2  0  0  3  0  0  0  0  0  0
  189.9010  177.4720  140.6290 N   0  0  0  0  0  0  0  0  0  0  0  0
  187.5640  177.5190  139.7370 C   0  0  2  0  0  3  0  0  0  0  0  0
  183.1920  179.0070  138.4440 O   0  0  0  0  0  0  0  0  0  0  0  0
  188.3640  177.7810  146.9940 O   0  0  0  0  0  0  0  0  0  0  0  0
  189.5740  177.2020  144.3770 N   0  0  1  0  0  0  0  0  0  0  0  0
  183.5840  179.2790  139.7860 C   0  0  0  0  0  2  0  0  0  0  0  0
  187.6010  177.6110  145.8320 C   0  0  0  0  0  2  0  0  0  0  0  0
  190.4550  176.6330  146.6150 C   0  0  1  0  0  3  0  0  0  0  0  0
  189.5070  176.7350  138.3120 C   0  0  0  0  0  2  0  0  0  0  0  0
  189.0630  177.6760  139.4330 C   0  0  2  0  0  3  0  0  0  0  0  0
  186.7560  177.9180  138.4770 C   0  0  0  0  0  2  0  0  0  0  0  0
  187.4040  177.9420  143.4070 C   0  0  0  0  0  2  0  0  0  0  0  0
  185.6220  179.6980  142.0110 O   0  0  0  0  0  0  0  0  0  0  0  0
  184.1280  177.4690  136.7750 C   0  0  0  0  0  1  0  0  0  0  0  0
  187.1990  178.2970  140.9500 N   0  0  0  0  0  0  0  0  0  0  0  0
  185.3430  178.2890  138.7990 C   0  0  0  0  0  0  0  0  0  0  0  0
  191.3610  177.1120  147.6480 N   0  0  0  0  0  2  0  0  0  0  0  0
  192.5100  176.3750  148.0710 C   0  0  0  0  0  0  0  0  0  0  0  0
  192.7980  175.2720  147.5350 O   0  0  0  0  0  0  0  0  0  0  0  0
  193.3180  176.8820  149.0800 O   0  0  0  0  0  1  0  0  0  0  0  0
  2 24  1  1  0  0  0
  3 11  2  0  0  0  0
  4 21  1  0  0  0  0
  4  3  1  0  0  0  0
  5 25  2  0  0  0  0
  6  5  1  0  0  0  0
  7 24  1  6  0  0  0
  7 19  1  0  0  0  0
  9 15  1  0  0  0  0
  9 28  1  0  0  0  0
 10 20  1  0  0  0  0
 11 13  1  0  0  0  0
 12  2  1  0  0  0  0
 12  8  1  1  0  0  0
 13 12  1  0  0  0  0
 14 23  1  6  0  0  0
 14 27  1  0  0  0  0
 15 18  1  0  0  0  0
 16  1  1  0  0  0  0
 17  8  1  6  0  0  0
 17  7  1  0  0  0  0
 17 10  1  0  0  0  0
 18  6  1  0  0  0  0
 19 16  1  0  0  0  0
 20  1  1  0  0  0  0
 20 29  1  1  0  0  0
 22 21  1  6  0  0  0
 22 14  1  0  0  0  0
 22 13  1  0  0  0  0
 23 28  1  0  0  0  0
 26  9  1  0  0  0  0
 27  5  1  0  0  0  0
 27  2  1  0  0  0  0
 28  6  2  0  0  0  0
 29 30  1  0  0  0  0
 30 32  1  0  0  0  0
 31 30  2  0  0  0  0
M  END
>  <MODEL>
1

>  <REMARK>
 VINA RESULT:      -9.2      0.000      0.000
  Name = 
  1 active torsions:
  status: ('A' for Active; 'I' for Inactive)
    1  A    between atoms: C_20  and  N_29
                            x       y       z     vdW  Elec       q    Type
                         _______ _______ _______ _____ _____    ______ ____

>  <TORSDO>
F 1

$$$$
=
 OpenBabel11122410443D

 32 37  0  0  1  0  0  0  0  0999 V2000
  188.6680  176.3370  147.6740 C   0  0  0  0  0  2  0  0  0  0  0  0
  185.9640  178.6690  143.5850 C   0  0  2  0  0  3  0  0  0  0  0  0
  188.6090  178.2200  139.5070 C   0  0  0  0  0  3  0  0  0  0  0  0
  187.4060  178.4160  138.6310 C   0  0  0  0  0  2  0  0  0  0  0  0
  183.4910  179.1660  143.3840 C   0  0  0  0  0  0  0  0  0  0  0  0
  182.2590  179.0530  142.6150 C   0  0  0  0  0  0  0  0  0  0  0  0
  187.0640  178.0840  145.7610 C   0  0  2  0  0  3  0  0  0  0  0  0
  188.3470  178.0790  143.7110 C   0  0  0  0  0  2  0  0  0  0  0  0
  180.9480  178.8120  140.8760 N   0  0  0  0  0  0  0  0  0  0  0  0
  189.4290  177.7920  145.7340 C   0  0  0  0  0  2  0  0  0  0  0  0
  188.5020  178.1990  140.8380 C   0  0  0  0  0  3  0  0  0  0  0  0
  187.0760  177.8960  142.8840 C   0  0  2  0  0  3  0  0  0  0  0  0
  187.2240  178.3310  141.4920 N   0  0  0  0  0  0  0  0  0  0  0  0
  184.7290  178.1670  141.4010 C   0  0  2  0  0  3  0  0  0  0  0  0
  180.0620  179.1750  141.8470 O   0  0  0  0  0  0  0  0  0  0  0  0
  187.8790  177.4590  147.9550 O   0  0  0  0  0  0  0  0  0  0  0  0
  188.1930  177.4610  145.0310 N   0  0  1  0  0  0  0  0  0  0  0  0
  180.8530  179.2990  143.0260 C   0  0  0  0  0  2  0  0  0  0  0  0
  186.7910  177.3540  147.0800 C   0  0  0  0  0  2  0  0  0  0  0  0
  189.8180  176.7000  146.7310 C   0  0  1  0  0  3  0  0  0  0  0  0
  186.1470  177.8980  139.3190 C   0  0  0  0  0  2  0  0  0  0  0  0
  186.0200  178.5860  140.6790 C   0  0  2  0  0  3  0  0  0  0  0  0
  183.5150  178.6270  140.5570 C   0  0  0  0  0  2  0  0  0  0  0  0
  185.7660  178.0110  144.9470 C   0  0  0  0  0  2  0  0  0  0  0  0
  183.4710  179.6750  144.5370 O   0  0  0  0  0  0  0  0  0  0  0  0
  180.5210  178.0570  139.7110 C   0  0  0  0  0  1  0  0  0  0  0  0
  184.7220  178.6940  142.7910 N   0  0  0  0  0  0  0  0  0  0  0  0
  182.2640  178.7350  141.3690 C   0  0  0  0  0  0  0  0  0  0  0  0
  190.9700  177.1470  147.4990 N   0  0  0  0  0  2  0  0  0  0  0  0
  191.9960  176.2560  147.9430 C   0  0  0  0  0  0  0  0  0  0  0  0
  191.9500  175.0310  147.6560 O   0  0  0  0  0  0  0  0  0  0  0  0
  193.0560  176.7490  148.6930 O   0  0  0  0  0  1  0  0  0  0  0  0
  1 16  1  0  0  0  0
  2 24  1  1  0  0  0
  3 11  2  0  0  0  0
  4 21  1  0  0  0  0
  4  3  1  0  0  0  0
  5 25  2  0  0  0  0
  6 18  1  0  0  0  0
  6  5  1  0  0  0  0
  7 24  1  6  0  0  0
  7 19  1  0  0  0  0
  9 28  1  0  0  0  0
  9 15  1  0  0  0  0
 10 20  1  0  0  0  0
 11 13  1  0  0  0  0
 12  2  1  0  0  0  0
 12  8  1  1  0  0  0
 13 12  1  0  0  0  0
 14 23  1  6  0  0  0
 14 27  1  0  0  0  0
 15 18  1  0  0  0  0
 17  8  1  6  0  0  0
 17 10  1  0  0  0  0
 17  7  1  0  0  0  0
 19 16  1  0  0  0  0
 20 29  1  1  0  0  0
 20  1  1  0  0  0  0
 22 21  1  6  0  0  0
 22 14  1  0  0  0  0
 22 13  1  0  0  0  0
 23 28  1  0  0  0  0
 26  9  1  0  0  0  0
 27  5  1  0  0  0  0
 27  2  1  0  0  0  0
 28  6  2  0  0  0  0
 29 30  1  0  0  0  0
 30 32  1  0  0  0  0
 31 30  2  0  0  0  0
M  END
>  <MODEL>
2

>  <REMARK>
 VINA RESULT:      -8.5      2.116      2.941
  Name = 
  1 active torsions:
  status: ('A' for Active; 'I' for Inactive)
    1  A    between atoms: C_20  and  N_29
                            x       y       z     vdW  Elec       q    Type
                         _______ _______ _______ _____ _____    ______ ____

>  <TORSDO>
F 1

$$$$
=
 OpenBabel11122410443D

 32 37  0  0  1  0  0  0  0  0999 V2000
  189.2400  176.6120  146.0690 C   0  0  0  0  0  2  0  0  0  0  0  0
  189.0850  177.8090  140.7770 C   0  0  2  0  0  3  0  0  0  0  0  0
  193.3700  176.6000  138.7750 C   0  0  0  0  0  3  0  0  0  0  0  0
  192.7760  176.5270  137.3980 C   0  0  0  0  0  2  0  0  0  0  0  0
  187.0770  178.1110  139.2660 C   0  0  0  0  0  0  0  0  0  0  0  0
  186.3860  177.7600  138.0330 C   0  0  0  0  0  0  0  0  0  0  0  0
  188.9170  177.7920  143.2780 C   0  0  2  0  0  3  0  0  0  0  0  0
  191.0460  177.3960  142.2000 C   0  0  0  0  0  2  0  0  0  0  0  0
  186.0990  177.0610  135.9770 N   0  0  0  0  0  0  0  0  0  0  0  0
  190.9580  177.6320  144.4980 C   0  0  0  0  0  2  0  0  0  0  0  0
  192.6140  176.8730  139.8420 C   0  0  0  0  0  3  0  0  0  0  0  0
  190.3440  176.9610  140.9150 C   0  0  2  0  0  3  0  0  0  0  0  0
  191.1930  177.0790  139.7240 N   0  0  0  0  0  0  0  0  0  0  0  0
  189.0670  176.7610  138.4430 C   0  0  2  0  0  3  0  0  0  0  0  0
  184.8730  177.5830  136.2680 O   0  0  0  0  0  0  0  0  0  0  0  0
  188.4920  177.7230  145.6620 O   0  0  0  0  0  0  0  0  0  0  0  0
  190.2160  177.0830  143.3670 N   0  0  1  0  0  0  0  0  0  0  0  0
  184.9810  178.0130  137.6230 C   0  0  0  0  0  2  0  0  0  0  0  0
  187.9780  177.3640  144.4100 C   0  0  0  0  0  2  0  0  0  0  0  0
  190.7280  176.8160  145.7700 C   0  0  1  0  0  3  0  0  0  0  0  0
  191.3110  176.1080  137.4630 C   0  0  0  0  0  2  0  0  0  0  0  0
  190.5710  177.0770  138.3870 C   0  0  2  0  0  3  0  0  0  0  0  0
  188.4670  176.9510  137.0280 C   0  0  0  0  0  2  0  0  0  0  0  0
  188.1940  177.4650  141.9660 C   0  0  0  0  0  2  0  0  0  0  0  0
  186.5200  178.8650  140.1090 O   0  0  0  0  0  0  0  0  0  0  0  0
  186.2580  176.0400  134.9550 C   0  0  0  0  0  1  0  0  0  0  0  0
  188.4060  177.5860  139.4870 N   0  0  0  0  0  0  0  0  0  0  0  0
  186.9870  177.1700  137.0610 C   0  0  0  0  0  0  0  0  0  0  0  0
  191.3730  177.4880  146.8890 N   0  0  0  0  0  2  0  0  0  0  0  0
  192.0340  176.7790  147.9390 C   0  0  0  0  0  0  0  0  0  0  0  0
  192.1040  175.5210  147.9200 O   0  0  0  0  0  0  0  0  0  0  0  0
  192.6080  177.4840  148.9880 O   0  0  0  0  0  1  0  0  0  0  0  0
  2 12  1  0  0  0  0
  2 24  1  1  0  0  0
  3 11  2  0  0  0  0
  4 21  1  0  0  0  0
  4  3  1  0  0  0  0
  5 27  1  0  0  0  0
  5 25  2  0  0  0  0
  6  5  1  0  0  0  0
  7 24  1  6  0  0  0
  7 17  1  0  0  0  0
  7 19  1  0  0  0  0
  9 15  1  0  0  0  0
  9 28  1  0  0  0  0
 10 20  1  0  0  0  0
 12  8  1  1  0  0  0
 13 11  1  0  0  0  0
 13 12  1  0  0  0  0
 14 23  1  6  0  0  0
 14 27  1  0  0  0  0
 15 18  1  0  0  0  0
 16  1  1  0  0  0  0
 17  8  1  6  0  0  0
 17 10  1  0  0  0  0
 18  6  1  0  0  0  0
 19 16  1  0  0  0  0
 20  1  1  0  0  0  0
 20 29  1  1  0  0  0
 22 21  1  6  0  0  0
 22 14  1  0  0  0  0
 22 13  1  0  0  0  0
 23 28  1  0  0  0  0
 26  9  1  0  0  0  0
 27  2  1  0  0  0  0
 28  6  2  0  0  0  0
 29 30  1  0  0  0  0
 30 32  1  0  0  0  0
 31 30  2  0  0  0  0
M  END
>  <MODEL>
3

>  <REMARK>
 VINA RESULT:      -8.4      1.526      1.916
  Name = 
  1 active torsions:
  status: ('A' for Active; 'I' for Inactive)
    1  A    between atoms: C_20  and  N_29
                            x       y       z     vdW  Elec       q    Type
                         _______ _______ _______ _____ _____    ______ ____

>  <TORSDO>
F 1

$$$$
=
 OpenBabel11122410443D

 32 37  0  0  1  0  0  0  0  0999 V2000
  189.8050  178.2210  137.3110 C   0  0  0  0  0  2  0  0  0  0  0  0
  188.3070  177.0470  142.3940 C   0  0  2  0  0  3  0  0  0  0  0  0
  192.2580  175.6700  144.9090 C   0  0  0  0  0  3  0  0  0  0  0  0
  191.6060  175.9860  146.2240 C   0  0  0  0  0  2  0  0  0  0  0  0
  186.2530  177.7990  143.6680 C   0  0  0  0  0  0  0  0  0  0  0  0
  185.6870  178.4080  144.8640 C   0  0  0  0  0  0  0  0  0  0  0  0
  188.5240  177.2690  139.9060 C   0  0  2  0  0  3  0  0  0  0  0  0
  190.3680  176.4090  141.2160 C   0  0  0  0  0  2  0  0  0  0  0  0
  185.5270  179.0530  146.9510 N   0  0  0  0  0  0  0  0  0  0  0  0
  190.4900  176.3660  138.9070 C   0  0  0  0  0  2  0  0  0  0  0  0
  191.6290  175.8960  143.7520 C   0  0  0  0  0  3  0  0  0  0  0  0
  189.8290  177.0910  142.4710 C   0  0  2  0  0  3  0  0  0  0  0  0
  190.3130  176.4810  143.7140 N   0  0  0  0  0  0  0  0  0  0  0  0
  188.5190  177.8290  144.8210 C   0  0  2  0  0  3  0  0  0  0  0  0
  184.2650  179.2850  146.4890 O   0  0  0  0  0  0  0  0  0  0  0  0
  188.5360  177.6680  137.5170 O   0  0  0  0  0  0  0  0  0  0  0  0
  189.9990  177.1730  140.0200 N   0  0  1  0  0  0  0  0  0  0  0  0
  184.3180  178.9290  145.1100 C   0  0  0  0  0  2  0  0  0  0  0  0
  188.1200  178.1880  138.7480 C   0  0  0  0  0  2  0  0  0  0  0  0
  190.9040  177.2370  137.7210 C   0  0  1  0  0  3  0  0  0  0  0  0
  190.6080  177.1280  146.0720 C   0  0  0  0  0  2  0  0  0  0  0  0
  189.6060  176.7520  144.9790 C   0  0  2  0  0  3  0  0  0  0  0  0
  187.7170  177.9240  146.1430 C   0  0  0  0  0  2  0  0  0  0  0  0
  187.9070  177.8710  141.1750 C   0  0  0  0  0  2  0  0  0  0  0  0
  185.5070  177.5030  142.6960 O   0  0  0  0  0  0  0  0  0  0  0  0
  186.0550  179.7790  148.0930 C   0  0  0  0  0  1  0  0  0  0  0  0
  187.6750  177.5380  143.6320 N   0  0  0  0  0  0  0  0  0  0  0  0
  186.3660  178.5360  145.9480 C   0  0  0  0  0  0  0  0  0  0  0  0
  191.2480  176.3770  136.5980 N   0  0  0  0  0  2  0  0  0  0  0  0
  192.5930  176.0010  136.2950 C   0  0  0  0  0  0  0  0  0  0  0  0
  193.5460  176.3890  137.0200 O   0  0  0  0  0  1  0  0  0  0  0  0
  192.8490  175.1970  135.1920 O   0  0  0  0  0  0  0  0  0  0  0  0
  1 16  1  0  0  0  0
  1 20  1  0  0  0  0
  2 24  1  6  0  0  0
  2 12  1  0  0  0  0
  2 27  1  0  0  0  0
  3  4  1  0  0  0  0
  5  6  1  0  0  0  0
  6 18  1  0  0  0  0
  6 28  2  0  0  0  0
  7 19  1  6  0  0  0
  7 17  1  0  0  0  0
  7 24  1  0  0  0  0
  9 26  1  0  0  0  0
 11  3  2  0  0  0  0
 12  8  1  6  0  0  0
 12 13  1  0  0  0  0
 13 11  1  0  0  0  0
 13 22  1  0  0  0  0
 14 22  1  0  0  0  0
 14 23  1  1  0  0  0
 15  9  1  0  0  0  0
 16 19  1  0  0  0  0
 17 10  1  6  0  0  0
 17  8  1  0  0  0  0
 18 15  1  0  0  0  0
 20 29  1  6  0  0  0
 20 10  1  0  0  0  0
 21  4  1  0  0  0  0
 22 21  1  1  0  0  0
 25  5  2  0  0  0  0
 27  5  1  0  0  0  0
 27 14  1  0  0  0  0
 28 23  1  0  0  0  0
 28  9  1  0  0  0  0
 30 29  1  0  0  0  0
 30 31  1  0  0  0  0
 32 30  2  0  0  0  0
M  END
>  <MODEL>
4

>  <REMARK>
 VINA RESULT:      -8.1      3.508      7.308
  Name = 
  1 active torsions:
  status: ('A' for Active; 'I' for Inactive)
    1  A    between atoms: C_20  and  N_29
                            x       y       z     vdW  Elec       q    Type
                         _______ _______ _______ _____ _____    ______ ____

>  <TORSDO>
F 1

$$$$
=
 OpenBabel11122410443D

 32 37  0  0  1  0  0  0  0  0999 V2000
  188.6250  176.8910  146.0540 C   0  0  0  0  0  2  0  0  0  0  0  0
  187.6850  178.1480  140.8570 C   0  0  2  0  0  3  0  0  0  0  0  0
  191.4370  176.5670  138.1650 C   0  0  0  0  0  3  0  0  0  0  0  0
  190.6130  176.5620  136.9090 C   0  0  0  0  0  2  0  0  0  0  0  0
  185.4870  178.6500  139.7080 C   0  0  0  0  0  0  0  0  0  0  0  0
  184.5670  178.3760  138.6130 C   0  0  0  0  0  0  0  0  0  0  0  0
  187.9440  178.1220  143.3510 C   0  0  2  0  0  3  0  0  0  0  0  0
  189.8130  177.5410  141.9290 C   0  0  0  0  0  2  0  0  0  0  0  0
  183.8710  177.7280  136.6400 N   0  0  0  0  0  0  0  0  0  0  0  0
  190.1390  177.7620  144.2070 C   0  0  0  0  0  2  0  0  0  0  0  0
  190.9020  176.8980  139.3430 C   0  0  0  0  0  3  0  0  0  0  0  0
  188.8660  177.1860  140.7850 C   0  0  2  0  0  3  0  0  0  0  0  0
  189.5070  177.2360  139.4670 N   0  0  0  0  0  0  0  0  0  0  0  0
  187.1740  177.1290  138.5670 C   0  0  2  0  0  3  0  0  0  0  0  0
  182.7670  178.3580  137.1320 O   0  0  0  0  0  0  0  0  0  0  0  0
  187.9250  178.0700  145.7730 O   0  0  0  0  0  0  0  0  0  0  0  0
  189.1670  177.2950  143.2220 N   0  0  1  0  0  0  0  0  0  0  0  0
  183.1420  178.7630  138.4460 C   0  0  0  0  0  2  0  0  0  0  0  0
  187.1750  177.7720  144.6290 C   0  0  0  0  0  2  0  0  0  0  0  0
  190.0530  176.9580  145.5050 C   0  0  1  0  0  3  0  0  0  0  0  0
  189.1490  176.2810  137.2250 C   0  0  0  0  0  2  0  0  0  0  0  0
  188.6700  177.3050  138.2540 C   0  0  2  0  0  3  0  0  0  0  0  0
  186.3630  177.3880  137.2740 C   0  0  0  0  0  2  0  0  0  0  0  0
  186.9810  177.8770  142.1830 C   0  0  0  0  0  2  0  0  0  0  0  0
  185.1540  179.4440  140.6290 O   0  0  0  0  0  0  0  0  0  0  0  0
  183.7590  176.7060  135.6120 C   0  0  0  0  0  1  0  0  0  0  0  0
  186.7790  178.0020  139.7040 N   0  0  0  0  0  0  0  0  0  0  0  0
  184.9370  177.7430  137.5570 C   0  0  0  0  0  0  0  0  0  0  0  0
  190.9380  177.5560  146.4930 N   0  0  0  0  0  2  0  0  0  0  0  0
  191.5710  176.7960  147.5250 C   0  0  0  0  0  0  0  0  0  0  0  0
  191.4000  175.5510  147.6010 O   0  0  0  0  0  0  0  0  0  0  0  0
  192.3850  177.4370  148.4490 O   0  0  0  0  0  1  0  0  0  0  0  0
  2 24  1  1  0  0  0
  3 11  2  0  0  0  0
  4 21  1  0  0  0  0
  4  3  1  0  0  0  0
  5 25  2  0  0  0  0
  6  5  1  0  0  0  0
  7 24  1  6  0  0  0
  7 19  1  0  0  0  0
  9 15  1  0  0  0  0
  9 28  1  0  0  0  0
 10 20  1  0  0  0  0
 11 13  1  0  0  0  0
 12  2  1  0  0  0  0
 12  8  1  1  0  0  0
 13 12  1  0  0  0  0
 14 23  1  6  0  0  0
 14 27  1  0  0  0  0
 15 18  1  0  0  0  0
 16  1  1  0  0  0  0
 17  8  1  6  0  0  0
 17  7  1  0  0  0  0
 17 10  1  0  0  0  0
 18  6  1  0  0  0  0
 19 16  1  0  0  0  0
 20  1  1  0  0  0  0
 20 29  1  1  0  0  0
 22 21  1  6  0  0  0
 22 14  1  0  0  0  0
 22 13  1  0  0  0  0
 23 28  1  0  0  0  0
 26  9  1  0  0  0  0
 27  5  1  0  0  0  0
 27  2  1  0  0  0  0
 28  6  2  0  0  0  0
 29 30  1  0  0  0  0
 30 31  2  0  0  0  0
 30 32  1  0  0  0  0
M  END
>  <MODEL>
5

>  <REMARK>
 VINA RESULT:      -7.6      1.185      1.325
  Name = 
  1 active torsions:
  status: ('A' for Active; 'I' for Inactive)
    1  A    between atoms: C_20  and  N_29
                            x       y       z     vdW  Elec       q    Type
                         _______ _______ _______ _____ _____    ______ ____

>  <TORSDO>
F 1

$$$$
=
 OpenBabel11122410443D

 32 37  0  0  1  0  0  0  0  0999 V2000
  189.0550  178.8810  137.5430 C   0  0  0  0  0  2  0  0  0  0  0  0
  184.9300  177.9430  140.9460 C   0  0  2  0  0  3  0  0  0  0  0  0
  186.6160  178.1020  145.5240 C   0  0  0  0  0  3  0  0  0  0  0  0
  185.2480  178.3690  146.0840 C   0  0  0  0  0  2  0  0  0  0  0  0
  182.4450  178.2090  140.5530 C   0  0  0  0  0  0  0  0  0  0  0  0
  181.1700  178.7650  140.9880 C   0  0  0  0  0  0  0  0  0  0  0  0
  186.6090  177.9170  139.0830 C   0  0  2  0  0  3  0  0  0  0  0  0
  187.3450  177.8000  141.3850 C   0  0  0  0  0  2  0  0  0  0  0  0
  179.6490  179.5830  142.3340 N   0  0  0  0  0  0  0  0  0  0  0  0
  188.8810  177.5150  139.6800 C   0  0  0  0  0  2  0  0  0  0  0  0
  186.8170  177.9910  144.2080 C   0  0  0  0  0  3  0  0  0  0  0  0
  186.0430  178.4410  141.8610 C   0  0  2  0  0  3  0  0  0  0  0  0
  185.7390  178.1550  143.2670 N   0  0  0  0  0  0  0  0  0  0  0  0
  183.4610  179.0410  142.7290 C   0  0  2  0  0  3  0  0  0  0  0  0
  178.9310  179.3770  141.1930 O   0  0  0  0  0  0  0  0  0  0  0  0
  188.0400  178.0090  137.1320 O   0  0  0  0  0  0  0  0  0  0  0  0
  187.6850  178.2720  140.0390 N   0  0  1  0  0  0  0  0  0  0  0  0
  179.8850  178.8880  140.2540 C   0  0  0  0  0  2  0  0  0  0  0  0
  186.8730  178.5290  137.7030 C   0  0  0  0  0  2  0  0  0  0  0  0
  189.7990  178.3190  138.7590 C   0  0  1  0  0  3  0  0  0  0  0  0
  184.3970  179.1410  145.0820 C   0  0  0  0  0  2  0  0  0  0  0  0
  184.3660  178.3580  143.7680 C   0  0  2  0  0  3  0  0  0  0  0  0
  182.0100  179.0570  143.2690 C   0  0  0  0  0  2  0  0  0  0  0  0
  185.2520  178.4600  139.5470 C   0  0  0  0  0  2  0  0  0  0  0  0
  182.5230  177.5910  139.4560 O   0  0  0  0  0  0  0  0  0  0  0  0
  179.2290  180.5650  143.3200 C   0  0  0  0  0  1  0  0  0  0  0  0
  183.5990  178.3740  141.4080 N   0  0  0  0  0  0  0  0  0  0  0  0
  180.9980  179.2170  142.1790 C   0  0  0  0  0  0  0  0  0  0  0  0
  190.8960  177.4690  138.3210 N   0  0  0  0  0  2  0  0  0  0  0  0
  191.9940  177.1270  139.1700 C   0  0  0  0  0  0  0  0  0  0  0  0
  192.0390  177.5390  140.3590 O   0  0  0  0  0  1  0  0  0  0  0  0
  193.0190  176.3300  138.6780 O   0  0  0  0  0  0  0  0  0  0  0  0
  1 20  1  0  0  0  0
  2 24  1  6  0  0  0
  2 27  1  0  0  0  0
  2 12  1  0  0  0  0
  3  4  1  0  0  0  0
  5  6  1  0  0  0  0
  5 27  1  0  0  0  0
  6 28  2  0  0  0  0
  7 19  1  6  0  0  0
  7 24  1  0  0  0  0
  7 17  1  0  0  0  0
  9 26  1  0  0  0  0
 11  3  2  0  0  0  0
 12  8  1  6  0  0  0
 12 13  1  0  0  0  0
 13 22  1  0  0  0  0
 13 11  1  0  0  0  0
 14 23  1  1  0  0  0
 14 22  1  0  0  0  0
 15  9  1  0  0  0  0
 16  1  1  0  0  0  0
 16 19  1  0  0  0  0
 17 10  1  6  0  0  0
 17  8  1  0  0  0  0
 18  6  1  0  0  0  0
 18 15  1  0  0  0  0
 20 29  1  6  0  0  0
 20 10  1  0  0  0  0
 21  4  1  0  0  0  0
 22 21  1  1  0  0  0
 25  5  2  0  0  0  0
 27 14  1  0  0  0  0
 28  9  1  0  0  0  0
 28 23  1  0  0  0  0
 29 30  1  0  0  0  0
 30 31  1  0  0  0  0
 32 30  2  0  0  0  0
M  END
>  <MODEL>
6

>  <REMARK>
 VINA RESULT:      -7.6      3.708      6.804
  Name = 
  1 active torsions:
  status: ('A' for Active; 'I' for Inactive)
    1  A    between atoms: C_20  and  N_29
                            x       y       z     vdW  Elec       q    Type
                         _______ _______ _______ _____ _____    ______ ____

>  <TORSDO>
F 1

$$$$
=
 OpenBabel11122410443D

 32 37  0  0  1  0  0  0  0  0999 V2000
  190.5700  175.9730  138.6680 C   0  0  0  0  0  2  0  0  0  0  0  0
  188.4800  178.2470  143.1320 C   0  0  2  0  0  3  0  0  0  0  0  0
  183.7020  178.9620  142.4290 C   0  0  0  0  0  3  0  0  0  0  0  0
  183.4320  179.0240  143.9050 C   0  0  0  0  0  2  0  0  0  0  0  0
  189.3740  178.2330  145.4990 C   0  0  0  0  0  0  0  0  0  0  0  0
  189.1420  177.9750  146.9140 C   0  0  0  0  0  0  0  0  0  0  0  0
  189.8680  177.5990  141.1470 C   0  0  2  0  0  3  0  0  0  0  0  0
  187.5330  178.1630  140.8650 C   0  0  0  0  0  2  0  0  0  0  0  0
  188.0460  177.7170  148.7930 N   0  0  0  0  0  0  0  0  0  0  0  0
  188.8570  177.8210  139.0010 C   0  0  0  0  0  2  0  0  0  0  0  0
  184.9300  178.7270  141.9590 C   0  0  0  0  0  3  0  0  0  0  0  0
  187.2490  177.8360  142.3300 C   0  0  2  0  0  3  0  0  0  0  0  0
  186.0420  178.4900  142.8450 N   0  0  0  0  0  0  0  0  0  0  0  0
  186.8990  177.8170  145.0970 C   0  0  2  0  0  3  0  0  0  0  0  0
  189.3400  177.7390  149.2240 O   0  0  0  0  0  0  0  0  0  0  0  0
  191.3750  176.8500  139.4050 O   0  0  0  0  0  0  0  0  0  0  0  0
  188.6380  177.3410  140.3620 N   0  0  1  0  0  0  0  0  0  0  0  0
  190.1120  177.8550  148.0320 C   0  0  0  0  0  2  0  0  0  0  0  0
  190.9940  176.6450  140.7360 C   0  0  0  0  0  2  0  0  0  0  0  0
  189.3570  176.7040  138.0850 C   0  0  1  0  0  3  0  0  0  0  0  0
  184.4240  178.1580  144.6730 C   0  0  0  0  0  2  0  0  0  0  0  0
  185.8410  178.5990  144.3020 C   0  0  2  0  0  3  0  0  0  0  0  0
  186.7180  178.1270  146.6030 C   0  0  0  0  0  2  0  0  0  0  0  0
  189.6300  177.3720  142.6450 C   0  0  0  0  0  2  0  0  0  0  0  0
  190.5250  178.5540  145.0970 O   0  0  0  0  0  0  0  0  0  0  0  0
  187.0050  177.0650  149.5700 C   0  0  0  0  0  1  0  0  0  0  0  0
  188.2600  178.1230  144.5840 N   0  0  0  0  0  0  0  0  0  0  0  0
  187.9560  177.8490  147.3960 C   0  0  0  0  0  0  0  0  0  0  0  0
  189.6930  177.2680  136.7860 N   0  0  0  0  0  2  0  0  0  0  0  0
  188.7020  177.6320  135.8230 C   0  0  0  0  0  0  0  0  0  0  0  0
  187.4770  177.4980  136.0790 O   0  0  0  0  0  1  0  0  0  0  0  0
  189.0960  178.1440  134.5940 O   0  0  0  0  0  0  0  0  0  0  0  0
  1 16  1  0  0  0  0
  2 24  1  6  0  0  0
  2 27  1  0  0  0  0
  3  4  1  0  0  0  0
  4 21  1  0  0  0  0
  5  6  1  0  0  0  0
  6 28  2  0  0  0  0
  6 18  1  0  0  0  0
  7 19  1  6  0  0  0
  7 24  1  0  0  0  0
  9 15  1  0  0  0  0
  9 26  1  0  0  0  0
 11  3  2  0  0  0  0
 11 13  1  0  0  0  0
 12  8  1  6  0  0  0
 12 13  1  0  0  0  0
 12  2  1  0  0  0  0
 13 22  1  0  0  0  0
 14 23  1  1  0  0  0
 16 19  1  0  0  0  0
 17 10  1  6  0  0  0
 17  8  1  0  0  0  0
 17  7  1  0  0  0  0
 18 15  1  0  0  0  0
 20 29  1  6  0  0  0
 20  1  1  0  0  0  0
 20 10  1  0  0  0  0
 22 21  1  6  0  0  0
 22 14  1  0  0  0  0
 23 28  1  0  0  0  0
 25  5  2  0  0  0  0
 27 14  1  0  0  0  0
 27  5  1  0  0  0  0
 28  9  1  0  0  0  0
 30 31  1  0  0  0  0
 30 29  1  0  0  0  0
 32 30  2  0  0  0  0
M  END
>  <MODEL>
7

>  <REMARK>
 VINA RESULT:      -6.8      2.809      8.439
  Name = 
  1 active torsions:
  status: ('A' for Active; 'I' for Inactive)
    1  A    between atoms: C_20  and  N_29
                            x       y       z     vdW  Elec       q    Type
                         _______ _______ _______ _____ _____    ______ ____

>  <TORSDO>
F 1

$$$$
