=
 OpenBabel11122411453D

 37 44  0  0  1  0  0  0  0  0999 V2000
  190.3630  178.7480  143.9850 C   0  0  0  0  0  0  0  0  0  0  0  0
  186.8590  177.4280  144.3900 C   0  0  1  0  0  3  0  0  0  0  0  0
  184.8550  177.4420  141.7700 O   0  0  0  0  0  0  0  0  0  0  0  0
  189.2900  177.1840  145.2770 C   0  0  2  0  0  3  0  0  0  0  0  0
  186.5880  178.2930  143.1700 C   0  0  2  0  0  3  0  0  0  0  0  0
  188.2880  176.9390  144.1450 C   0  0  2  0  0  3  0  0  0  0  0  0
  185.1200  178.3990  142.7580 C   0  0  2  0  0  3  0  0  0  0  0  0
  188.6170  176.8960  146.6100 C   0  0  0  0  0  2  0  0  0  0  0  0
  188.7120  177.5830  142.8230 C   0  0  2  0  0  3  0  0  0  0  0  0
  191.2970  177.7830  143.6170 F   0  0  0  0  0  0  0  0  0  0  0  0
  185.2610  178.2180  146.0080 O   0  0  0  0  0  0  0  0  0  0  0  0
  187.4540  177.8520  146.8870 C   0  0  0  0  0  2  0  0  0  0  0  0
  189.3240  178.8490  143.0360 O   0  0  0  0  0  0  0  0  0  0  0  0
  185.2540  179.3750  140.3990 O   0  0  0  0  0  0  0  0  0  0  0  0
  184.8860  178.0130  140.4660 C   0  0  1  0  0  3  0  0  0  0  0  0
  186.6220  178.2660  145.6620 C   0  0  1  0  0  3  0  0  0  0  0  0
  187.4390  177.7570  142.1080 N   0  0  2  0  0  0  0  0  0  0  0  0
  189.8220  178.4890  145.2620 O   0  0  0  0  0  0  0  0  0  0  0  0
  184.1010  178.3320  143.9080 C   0  0  1  0  0  3  0  0  0  0  0  0
  191.0160  179.9640  144.0350 F   0  0  0  0  0  0  0  0  0  0  0  0
  186.2520  178.4570  140.0040 C   0  0  2  0  0  3  0  0  0  0  0  0
  187.4680  178.6700  140.9470 C   0  0  2  0  0  3  0  0  0  0  0  0
  184.5770  179.0930  145.1490 C   0  0  0  0  0  2  0  0  0  0  0  0
  181.7600  179.0450  144.4120 C   0  0  0  0  0  3  0  0  0  0  0  0
  182.7640  178.8330  143.4610 C   0  0  0  0  0  0  0  0  0  0  0  0
  182.4990  179.0840  142.1050 C   0  0  0  0  0  3  0  0  0  0  0  0
  180.9880  179.7850  140.4010 F   0  0  0  0  0  0  0  0  0  0  0  0
  180.2410  179.7550  142.6640 C   0  0  0  0  0  3  0  0  0  0  0  0
  181.2400  179.5430  141.7090 C   0  0  0  0  0  0  0  0  0  0  0  0
  180.5010  179.5050  144.0150 C   0  0  0  0  0  3  0  0  0  0  0  0
  188.7330  178.4720  140.0970 C   0  0  1  0  0  3  0  0  0  0  0  0
  188.9130  177.0070  139.7200 C   0  0  1  0  0  3  0  0  0  0  0  0
  188.3510  178.0010  138.7020 C   0  0  2  0  0  3  0  0  0  0  0  0
  189.3580  178.5400  137.6950 C   0  0  0  0  0  2  0  0  0  0  0  0
  188.9490  179.8620  137.2610 N   0  0  0  0  0  1  0  0  0  0  0  0
  191.1860  177.4950  140.5910 C   0  0  0  0  0  1  0  0  0  0  0  0
  190.3980  176.6980  139.5720 C   0  0  0  0  0  2  0  0  0  0  0  0
  1 20  1  0  0  0  0
  1 18  1  0  0  0  0
  2 16  1  0  0  0  0
  3  7  1  0  0  0  0
  4  8  1  0  0  0  0
  5  2  1  0  0  0  0
  6  2  1  0  0  0  0
  6  4  1  0  0  0  0
  7  5  1  0  0  0  0
  7 19  1  0  0  0  0
  8 12  1  0  0  0  0
  9 13  1  0  0  0  0
  9  6  1  0  0  0  0
 10  1  1  0  0  0  0
 13  1  1  0  0  0  0
 14 15  1  0  0  0  0
 15  3  1  0  0  0  0
 16 11  1  0  0  0  0
 16 12  1  0  0  0  0
 17  9  1  0  0  0  0
 17  5  1  0  0  0  0
 18  4  1  0  0  0  0
 19 23  1  0  0  0  0
 21 14  1  0  0  0  0
 21 15  1  0  0  0  0
 21 22  1  0  0  0  0
 22 17  1  0  0  0  0
 23 11  1  0  0  0  0
 25 19  1  0  0  0  0
 25 24  2  0  0  0  0
 26 25  1  0  0  0  0
 27 29  1  0  0  0  0
 28 30  2  0  0  0  0
 29 26  2  0  0  0  0
 29 28  1  0  0  0  0
 30 24  1  0  0  0  0
 31 22  1  0  0  0  0
 32 31  1  0  0  0  0
 33 32  1  0  0  0  0
 33 31  1  0  0  0  0
 34 33  1  0  0  0  0
 35 34  1  0  0  0  0
 37 32  1  0  0  0  0
 37 36  1  0  0  0  0
M  END
>  <MODEL>
1

>  <REMARK>
 VINA RESULT:      -9.8      0.000      0.000
  Name = 
  4 active torsions:
  status: ('A' for Active; 'I' for Inactive)
    1  A    between atoms: C_1  and  C_27
    2  A    between atoms: C_4  and  C_37
    3  A    between atoms: C_8  and  C_12
    4  A    between atoms: C_23  and  C_30
                            x       y       z     vdW  Elec       q    Type
                         _______ _______ _______ _____ _____    ______ ____

>  <TORSDO>
F 4

$$$$
=
 OpenBabel11122411453D

 37 44  0  0  1  0  0  0  0  0999 V2000
  190.3730  176.4220  138.7050 C   0  0  0  0  0  0  0  0  0  0  0  0
  187.3200  178.4950  137.9550 C   0  0  1  0  0  3  0  0  0  0  0  0
  185.4620  179.5360  140.4750 O   0  0  0  0  0  0  0  0  0  0  0  0
  189.7020  177.9140  137.0950 C   0  0  2  0  0  3  0  0  0  0  0  0
  186.8720  177.9970  139.3200 C   0  0  2  0  0  3  0  0  0  0  0  0
  188.8330  178.6360  138.1290 C   0  0  2  0  0  3  0  0  0  0  0  0
  185.4400  178.3620  139.7100 C   0  0  2  0  0  3  0  0  0  0  0  0
  189.0860  178.0890  135.7160 C   0  0  0  0  0  2  0  0  0  0  0  0
  189.1170  178.1860  139.5640 C   0  0  2  0  0  3  0  0  0  0  0  0
  191.5360  177.1650  138.8900 F   0  0  0  0  0  0  0  0  0  0  0  0
  185.5220  177.8350  136.4960 O   0  0  0  0  0  0  0  0  0  0  0  0
  187.7070  177.4320  135.6130 C   0  0  0  0  0  2  0  0  0  0  0  0
  189.3730  176.7900  139.6290 O   0  0  0  0  0  0  0  0  0  0  0  0
  185.3890  177.8870  142.2210 O   0  0  0  0  0  0  0  0  0  0  0  0
  185.3850  179.2550  141.8690 C   0  0  1  0  0  3  0  0  0  0  0  0
  186.8350  177.5070  136.8770 C   0  0  1  0  0  3  0  0  0  0  0  0
  187.8650  178.4990  140.2700 N   0  0  2  0  0  0  0  0  0  0  0  0
  189.8780  176.5470  137.3890 O   0  0  0  0  0  0  0  0  0  0  0  0
  184.4380  178.4560  138.5470 C   0  0  1  0  0  3  0  0  0  0  0  0
  190.6870  175.0940  138.9200 F   0  0  0  0  0  0  0  0  0  0  0  0
  186.6020  178.5750  142.4440 C   0  0  2  0  0  3  0  0  0  0  0  0
  187.6920  177.8660  141.5940 C   0  0  2  0  0  3  0  0  0  0  0  0
  184.6610  177.3610  137.4990 C   0  0  0  0  0  2  0  0  0  0  0  0
  182.5370  177.2390  139.6180 C   0  0  0  0  0  3  0  0  0  0  0  0
  183.0310  178.4210  139.0560 C   0  0  0  0  0  0  0  0  0  0  0  0
  182.1990  179.5490  138.9700 C   0  0  0  0  0  3  0  0  0  0  0  0
  180.0850  180.5780  139.3590 F   0  0  0  0  0  0  0  0  0  0  0  0
  180.3970  178.3060  140.0060 C   0  0  0  0  0  3  0  0  0  0  0  0
  180.8860  179.4890  139.4430 C   0  0  0  0  0  0  0  0  0  0  0  0
  181.2230  177.1810  140.0930 C   0  0  0  0  0  3  0  0  0  0  0  0
  188.9910  177.8980  142.4150 C   0  0  1  0  0  3  0  0  0  0  0  0
  188.7400  177.4560  143.8500 C   0  0  1  0  0  3  0  0  0  0  0  0
  189.3670  176.4890  142.8440 C   0  0  2  0  0  3  0  0  0  0  0  0
  190.8830  176.3700  142.9140 C   0  0  0  0  0  2  0  0  0  0  0  0
  191.4870  177.3650  142.0470 N   0  0  0  0  0  1  0  0  0  0  0  0
  189.3370  177.8940  146.2190 C   0  0  0  0  0  1  0  0  0  0  0  0
  189.7260  178.1540  144.7780 C   0  0  0  0  0  2  0  0  0  0  0  0
  1 10  1  0  0  0  0
  1 20  1  0  0  0  0
  1 13  1  0  0  0  0
  2  6  1  0  0  0  0
  2  5  1  0  0  0  0
  3 15  1  0  0  0  0
  4 18  1  0  0  0  0
  4  6  1  0  0  0  0
  5  7  1  0  0  0  0
  5 17  1  0  0  0  0
  6  9  1  0  0  0  0
  7  3  1  0  0  0  0
  8  4  1  0  0  0  0
  9 13  1  0  0  0  0
  9 17  1  0  0  0  0
 11 16  1  0  0  0  0
 11 23  1  0  0  0  0
 12  8  1  0  0  0  0
 12 16  1  0  0  0  0
 14 21  1  0  0  0  0
 15 14  1  0  0  0  0
 15 21  1  0  0  0  0
 16  2  1  0  0  0  0
 17 22  1  0  0  0  0
 18  1  1  0  0  0  0
 19 25  1  0  0  0  0
 19  7  1  0  0  0  0
 22 31  1  0  0  0  0
 22 21  1  0  0  0  0
 23 19  1  0  0  0  0
 24 30  1  0  0  0  0
 25 24  2  0  0  0  0
 26 25  1  0  0  0  0
 26 29  2  0  0  0  0
 27 29  1  0  0  0  0
 28 30  2  0  0  0  0
 29 28  1  0  0  0  0
 31 33  1  0  0  0  0
 31 32  1  0  0  0  0
 32 37  1  0  0  0  0
 33 34  1  0  0  0  0
 33 32  1  0  0  0  0
 35 34  1  0  0  0  0
 37 36  1  0  0  0  0
M  END
>  <MODEL>
2

>  <REMARK>
 VINA RESULT:      -9.5      2.649      5.647
  Name = 
  4 active torsions:
  status: ('A' for Active; 'I' for Inactive)
    1  A    between atoms: C_1  and  C_27
    2  A    between atoms: C_4  and  C_37
    3  A    between atoms: C_8  and  C_12
    4  A    between atoms: C_23  and  C_30
                            x       y       z     vdW  Elec       q    Type
                         _______ _______ _______ _____ _____    ______ ____

>  <TORSDO>
F 4

$$$$
=
 OpenBabel11122411453D

 37 44  0  0  1  0  0  0  0  0999 V2000
  183.7130  178.0320  140.9000 C   0  0  0  0  0  0  0  0  0  0  0  0
  186.2030  178.8980  143.5900 C   0  0  1  0  0  3  0  0  0  0  0  0
  189.4200  178.6690  142.8940 O   0  0  0  0  0  0  0  0  0  0  0  0
  183.8150  179.4320  142.7160 C   0  0  2  0  0  3  0  0  0  0  0  0
  187.1280  178.0220  142.7600 C   0  0  2  0  0  3  0  0  0  0  0  0
  185.3290  179.5650  142.5270 C   0  0  2  0  0  3  0  0  0  0  0  0
  188.4940  177.7390  143.3850 C   0  0  2  0  0  3  0  0  0  0  0  0
  183.4780  179.6160  144.1870 C   0  0  0  0  0  2  0  0  0  0  0  0
  185.8150  178.9970  141.1910 C   0  0  2  0  0  3  0  0  0  0  0  0
  183.3320  179.1110  140.1060 F   0  0  0  0  0  0  0  0  0  0  0  0
  186.2860  177.8920  145.7760 O   0  0  0  0  0  0  0  0  0  0  0  0
  184.0920  178.5180  145.0610 C   0  0  0  0  0  2  0  0  0  0  0  0
  185.1060  177.8150  140.8420 O   0  0  0  0  0  0  0  0  0  0  0  0
  189.8460  176.8200  141.4200 O   0  0  0  0  0  0  0  0  0  0  0  0
  190.1970  178.1240  141.8330 C   0  0  1  0  0  3  0  0  0  0  0  0
  185.4810  178.0200  144.6300 C   0  0  1  0  0  3  0  0  0  0  0  0
  187.2250  178.6750  141.4540 N   0  0  2  0  0  0  0  0  0  0  0  0
  183.3110  178.2040  142.2420 O   0  0  0  0  0  0  0  0  0  0  0  0
  188.5180  177.6630  144.9210 C   0  0  1  0  0  3  0  0  0  0  0  0
  183.0840  176.9060  140.4060 F   0  0  0  0  0  0  0  0  0  0  0  0
  189.4310  177.8610  140.5610 C   0  0  2  0  0  3  0  0  0  0  0  0
  187.8820  177.7890  140.4710 C   0  0  2  0  0  3  0  0  0  0  0  0
  187.2860  176.9500  145.4860 C   0  0  0  0  0  2  0  0  0  0  0  0
  190.1860  177.1960  146.7210 C   0  0  0  0  0  3  0  0  0  0  0  0
  189.7740  177.0040  145.3980 C   0  0  0  0  0  0  0  0  0  0  0  0
  190.5490  176.2080  144.5390 C   0  0  0  0  0  3  0  0  0  0  0  0
  192.4680  174.8440  144.1730 F   0  0  0  0  0  0  0  0  0  0  0  0
  192.1290  175.8040  146.3280 C   0  0  0  0  0  3  0  0  0  0  0  0
  191.7230  175.6110  145.0040 C   0  0  0  0  0  0  0  0  0  0  0  0
  191.3610  176.5960  147.1860 C   0  0  0  0  0  3  0  0  0  0  0  0
  187.4990  178.1550  139.0290 C   0  0  1  0  0  3  0  0  0  0  0  0
  188.4820  177.5520  138.0340 C   0  0  1  0  0  3  0  0  0  0  0  0
  187.1170  176.9010  138.2600 C   0  0  2  0  0  3  0  0  0  0  0  0
  186.0520  177.2470  137.2280 C   0  0  0  0  0  2  0  0  0  0  0  0
  184.8010  176.6080  137.5900 N   0  0  0  0  0  1  0  0  0  0  0  0
  189.3230  177.7210  135.7050 C   0  0  0  0  0  1  0  0  0  0  0  0
  188.5770  178.4470  136.8050 C   0  0  0  0  0  2  0  0  0  0  0  0
  1 18  1  0  0  0  0
  2 16  1  0  0  0  0
  3  7  1  0  0  0  0
  4  8  1  0  0  0  0
  5  7  1  0  0  0  0
  5  2  1  0  0  0  0
  6  4  1  0  0  0  0
  6  2  1  0  0  0  0
  7 19  1  0  0  0  0
  8 12  1  0  0  0  0
  9 17  1  0  0  0  0
  9  6  1  0  0  0  0
 10  1  1  0  0  0  0
 13  1  1  0  0  0  0
 13  9  1  0  0  0  0
 14 15  1  0  0  0  0
 15  3  1  0  0  0  0
 16 12  1  0  0  0  0
 16 11  1  0  0  0  0
 17  5  1  0  0  0  0
 18  4  1  0  0  0  0
 19 25  1  0  0  0  0
 19 23  1  0  0  0  0
 20  1  1  0  0  0  0
 21 14  1  0  0  0  0
 21 15  1  0  0  0  0
 22 21  1  0  0  0  0
 22 17  1  0  0  0  0
 23 11  1  0  0  0  0
 24 30  1  0  0  0  0
 25 24  2  0  0  0  0
 26 29  2  0  0  0  0
 26 25  1  0  0  0  0
 27 29  1  0  0  0  0
 28 30  2  0  0  0  0
 29 28  1  0  0  0  0
 31 22  1  0  0  0  0
 32 33  1  0  0  0  0
 32 31  1  0  0  0  0
 33 31  1  0  0  0  0
 34 35  1  0  0  0  0
 34 33  1  0  0  0  0
 36 37  1  0  0  0  0
 37 32  1  0  0  0  0
M  END
>  <MODEL>
3

>  <REMARK>
 VINA RESULT:      -9.4      2.019      6.342
  Name = 
  4 active torsions:
  status: ('A' for Active; 'I' for Inactive)
    1  A    between atoms: C_1  and  C_27
    2  A    between atoms: C_4  and  C_37
    3  A    between atoms: C_8  and  C_12
    4  A    between atoms: C_23  and  C_30
                            x       y       z     vdW  Elec       q    Type
                         _______ _______ _______ _____ _____    ______ ____

>  <TORSDO>
F 4

$$$$
=
 OpenBabel11122411453D

 37 44  0  0  1  0  0  0  0  0999 V2000
  188.9810  178.9650  137.7610 C   0  0  0  0  0  0  0  0  0  0  0  0
  189.0740  176.9680  140.9520 C   0  0  1  0  0  3  0  0  0  0  0  0
  186.4610  177.0850  142.9630 O   0  0  0  0  0  0  0  0  0  0  0  0
  189.9490  177.0220  138.5060 C   0  0  2  0  0  3  0  0  0  0  0  0
  188.0260  177.9750  141.3970 C   0  0  2  0  0  3  0  0  0  0  0  0
  188.7730  176.8050  139.4620 C   0  0  2  0  0  3  0  0  0  0  0  0
  187.6110  177.8800  142.8650 C   0  0  2  0  0  3  0  0  0  0  0  0
  191.1950  176.3780  139.0940 C   0  0  0  0  0  2  0  0  0  0  0  0
  187.5970  177.7450  139.1840 C   0  0  2  0  0  3  0  0  0  0  0  0
  188.4640  178.2730  136.6690 F   0  0  0  0  0  0  0  0  0  0  0  0
  190.7770  177.1420  142.6460 O   0  0  0  0  0  0  0  0  0  0  0  0
  191.6180  177.0360  140.4100 C   0  0  0  0  0  2  0  0  0  0  0  0
  188.0470  179.0420  138.8150 O   0  0  0  0  0  0  0  0  0  0  0  0
  185.4700  179.2740  142.9500 O   0  0  0  0  0  0  0  0  0  0  0  0
  185.2830  177.8780  143.0570 C   0  0  1  0  0  3  0  0  0  0  0  0
  190.4710  177.5030  141.3220 C   0  0  1  0  0  3  0  0  0  0  0  0
  186.9000  177.8060  140.4770 N   0  0  2  0  0  0  0  0  0  0  0  0
  190.1810  178.3840  138.2260 O   0  0  0  0  0  0  0  0  0  0  0  0
  188.7100  177.4180  143.8370 C   0  0  1  0  0  3  0  0  0  0  0  0
  189.2640  180.2520  137.3440 F   0  0  0  0  0  0  0  0  0  0  0  0
  184.9350  178.6430  141.8050 C   0  0  2  0  0  3  0  0  0  0  0  0
  185.9240  178.9040  140.6360 C   0  0  2  0  0  3  0  0  0  0  0  0
  190.0770  178.0160  143.4930 C   0  0  0  0  0  2  0  0  0  0  0  0
  189.3220  177.7120  146.2420 C   0  0  0  0  0  3  0  0  0  0  0  0
  188.3350  177.7350  145.2500 C   0  0  0  0  0  0  0  0  0  0  0  0
  187.0100  178.0450  145.5980 C   0  0  0  0  0  3  0  0  0  0  0  0
  185.4020  178.6280  147.2580 F   0  0  0  0  0  0  0  0  0  0  0  0
  187.6720  178.3070  147.9120 C   0  0  0  0  0  3  0  0  0  0  0  0
  186.6810  178.3290  146.9260 C   0  0  0  0  0  0  0  0  0  0  0  0
  188.9920  177.9980  147.5700 C   0  0  0  0  0  3  0  0  0  0  0  0
  185.0770  179.1000  139.3690 C   0  0  1  0  0  3  0  0  0  0  0  0
  184.0560  177.9810  139.2150 C   0  0  1  0  0  3  0  0  0  0  0  0
  183.6260  179.3480  139.7490 C   0  0  2  0  0  3  0  0  0  0  0  0
  182.9870  180.2750  138.7230 C   0  0  0  0  0  2  0  0  0  0  0  0
  181.5980  180.5030  139.0770 N   0  0  0  0  0  1  0  0  0  0  0  0
  184.8040  176.7860  137.1720 C   0  0  0  0  0  1  0  0  0  0  0  0
  183.7760  177.7450  137.7360 C   0  0  0  0  0  2  0  0  0  0  0  0
  1 18  1  0  0  0  0
  1 13  1  0  0  0  0
  2 16  1  0  0  0  0
  2  5  1  0  0  0  0
  3 15  1  0  0  0  0
  4  8  1  0  0  0  0
  4  6  1  0  0  0  0
  5  7  1  0  0  0  0
  6  2  1  0  0  0  0
  7  3  1  0  0  0  0
  7 19  1  0  0  0  0
  8 12  1  0  0  0  0
  9  6  1  0  0  0  0
  9 17  1  0  0  0  0
 10  1  1  0  0  0  0
 11 23  1  0  0  0  0
 12 16  1  0  0  0  0
 13  9  1  0  0  0  0
 14 15  1  0  0  0  0
 16 11  1  0  0  0  0
 17 22  1  0  0  0  0
 17  5  1  0  0  0  0
 18  4  1  0  0  0  0
 19 25  1  0  0  0  0
 20  1  1  0  0  0  0
 21 14  1  0  0  0  0
 21 15  1  0  0  0  0
 22 21  1  0  0  0  0
 23 19  1  0  0  0  0
 24 30  1  0  0  0  0
 25 26  1  0  0  0  0
 25 24  2  0  0  0  0
 26 29  2  0  0  0  0
 29 27  1  0  0  0  0
 29 28  1  0  0  0  0
 30 28  2  0  0  0  0
 31 33  1  0  0  0  0
 31 22  1  0  0  0  0
 32 31  1  0  0  0  0
 32 33  1  0  0  0  0
 34 35  1  0  0  0  0
 34 33  1  0  0  0  0
 36 37  1  0  0  0  0
 37 32  1  0  0  0  0
M  END
>  <MODEL>
4

>  <REMARK>
 VINA RESULT:      -9.4      2.982      5.946
  Name = 
  4 active torsions:
  status: ('A' for Active; 'I' for Inactive)
    1  A    between atoms: C_1  and  C_27
    2  A    between atoms: C_4  and  C_37
    3  A    between atoms: C_8  and  C_12
    4  A    between atoms: C_23  and  C_30
                            x       y       z     vdW  Elec       q    Type
                         _______ _______ _______ _____ _____    ______ ____

>  <TORSDO>
F 4

$$$$
=
 OpenBabel11122411453D

 37 44  0  0  1  0  0  0  0  0999 V2000
  183.9970  177.1450  137.4440 C   0  0  0  0  0  0  0  0  0  0  0  0
  184.3860  179.1990  140.5770 C   0  0  1  0  0  3  0  0  0  0  0  0
  187.3320  179.2740  142.0590 O   0  0  0  0  0  0  0  0  0  0  0  0
  183.0720  179.0450  138.3400 C   0  0  2  0  0  3  0  0  0  0  0  0
  185.5580  178.2640  140.8250 C   0  0  2  0  0  3  0  0  0  0  0  0
  184.3920  179.3480  139.0550 C   0  0  2  0  0  3  0  0  0  0  0  0
  186.2340  178.4120  142.1880 C   0  0  2  0  0  3  0  0  0  0  0  0
  181.9220  179.6280  139.1470 C   0  0  0  0  0  2  0  0  0  0  0  0
  185.5480  178.4720  138.5690 C   0  0  2  0  0  3  0  0  0  0  0  0
  184.2580  177.8430  136.2680 F   0  0  0  0  0  0  0  0  0  0  0  0
  183.0460  178.9620  142.5630 O   0  0  0  0  0  0  0  0  0  0  0  0
  181.7950  178.9740  140.5250 C   0  0  0  0  0  2  0  0  0  0  0  0
  185.1160  177.1440  138.3030 O   0  0  0  0  0  0  0  0  0  0  0  0
  188.4340  177.1460  141.8800 O   0  0  0  0  0  0  0  0  0  0  0  0
  188.5530  178.5520  141.9370 C   0  0  1  0  0  3  0  0  0  0  0  0
  183.1180  178.5920  141.2090 C   0  0  1  0  0  3  0  0  0  0  0  0
  186.4780  178.4780  139.7080 N   0  0  2  0  0  0  0  0  0  0  0  0
  182.8740  177.6660  138.1220 O   0  0  0  0  0  0  0  0  0  0  0  0
  185.3120  178.8310  143.3450 C   0  0  1  0  0  3  0  0  0  0  0  0
  183.7200  175.8360  137.1010 F   0  0  0  0  0  0  0  0  0  0  0  0
  188.7050  177.7820  140.6480 C   0  0  2  0  0  3  0  0  0  0  0  0
  187.5310  177.4410  139.6890 C   0  0  2  0  0  3  0  0  0  0  0  0
  183.9430  178.1470  143.2710 C   0  0  0  0  0  2  0  0  0  0  0  0
  185.4580  179.1780  145.8150 C   0  0  0  0  0  3  0  0  0  0  0  0
  185.9650  178.5640  144.6650 C   0  0  0  0  0  0  0  0  0  0  0  0
  187.0820  177.7190  144.7650 C   0  0  0  0  0  3  0  0  0  0  0  0
  188.7580  176.6760  146.1010 F   0  0  0  0  0  0  0  0  0  0  0  0
  187.1680  178.1070  147.1540 C   0  0  0  0  0  3  0  0  0  0  0  0
  187.6810  177.4920  146.0070 C   0  0  0  0  0  0  0  0  0  0  0  0
  186.0570  178.9490  147.0570 C   0  0  0  0  0  3  0  0  0  0  0  0
  188.1350  177.2680  138.2870 C   0  0  1  0  0  3  0  0  0  0  0  0
  189.0430  178.4390  137.9350 C   0  0  1  0  0  3  0  0  0  0  0  0
  189.6440  177.1080  138.3890 C   0  0  2  0  0  3  0  0  0  0  0  0
  190.1320  176.1980  137.2690 C   0  0  0  0  0  2  0  0  0  0  0  0
  190.5470  174.9240  137.8260 N   0  0  0  0  0  1  0  0  0  0  0  0
  187.6080  178.5300  135.9110 C   0  0  0  0  0  1  0  0  0  0  0  0
  189.0260  178.6610  136.4280 C   0  0  0  0  0  2  0  0  0  0  0  0
  1 18  1  0  0  0  0
  1 13  1  0  0  0  0
  2  5  1  0  0  0  0
  2 16  1  0  0  0  0
  3  7  1  0  0  0  0
  4  6  1  0  0  0  0
  4  8  1  0  0  0  0
  5  7  1  0  0  0  0
  6  2  1  0  0  0  0
  7 19  1  0  0  0  0
  8 12  1  0  0  0  0
  9  6  1  0  0  0  0
  9 17  1  0  0  0  0
 10  1  1  0  0  0  0
 11 23  1  0  0  0  0
 12 16  1  0  0  0  0
 13  9  1  0  0  0  0
 14 15  1  0  0  0  0
 15  3  1  0  0  0  0
 16 11  1  0  0  0  0
 17  5  1  0  0  0  0
 18  4  1  0  0  0  0
 19 25  1  0  0  0  0
 20  1  1  0  0  0  0
 21 14  1  0  0  0  0
 21 15  1  0  0  0  0
 22 17  1  0  0  0  0
 22 21  1  0  0  0  0
 23 19  1  0  0  0  0
 24 30  1  0  0  0  0
 25 26  1  0  0  0  0
 25 24  2  0  0  0  0
 26 29  2  0  0  0  0
 29 27  1  0  0  0  0
 29 28  1  0  0  0  0
 30 28  2  0  0  0  0
 31 33  1  0  0  0  0
 31 22  1  0  0  0  0
 32 31  1  0  0  0  0
 32 33  1  0  0  0  0
 34 35  1  0  0  0  0
 34 33  1  0  0  0  0
 36 37  1  0  0  0  0
 37 32  1  0  0  0  0
M  END
>  <MODEL>
5

>  <REMARK>
 VINA RESULT:      -9.4      2.452      6.107
  Name = 
  4 active torsions:
  status: ('A' for Active; 'I' for Inactive)
    1  A    between atoms: C_1  and  C_27
    2  A    between atoms: C_4  and  C_37
    3  A    between atoms: C_8  and  C_12
    4  A    between atoms: C_23  and  C_30
                            x       y       z     vdW  Elec       q    Type
                         _______ _______ _______ _____ _____    ______ ____

>  <TORSDO>
F 4

$$$$
=
 OpenBabel11122411453D

 37 44  0  0  1  0  0  0  0  0999 V2000
  186.0170  179.3100  147.0190 C   0  0  0  0  0  0  0  0  0  0  0  0
  185.7790  177.7680  143.5910 C   0  0  1  0  0  3  0  0  0  0  0  0
  188.4280  176.2290  142.3670 O   0  0  0  0  0  0  0  0  0  0  0  0
  184.3880  178.3720  145.7020 C   0  0  2  0  0  3  0  0  0  0  0  0
  187.2930  177.9080  143.6240 C   0  0  2  0  0  3  0  0  0  0  0  0
  185.4380  177.4670  145.0510 C   0  0  2  0  0  3  0  0  0  0  0  0
  188.0080  177.5650  142.3180 C   0  0  2  0  0  3  0  0  0  0  0  0
  183.2670  178.6300  144.7070 C   0  0  0  0  0  2  0  0  0  0  0  0
  186.7790  177.4830  145.7900 C   0  0  2  0  0  3  0  0  0  0  0  0
  185.6520  178.4560  148.0560 F   0  0  0  0  0  0  0  0  0  0  0  0
  185.1480  178.9410  141.5860 O   0  0  0  0  0  0  0  0  0  0  0  0
  183.7540  179.3960  143.4750 C   0  0  0  0  0  2  0  0  0  0  0  0
  187.0910  178.7840  146.2700 O   0  0  0  0  0  0  0  0  0  0  0  0
  190.4500  177.3380  143.0420 O   0  0  0  0  0  0  0  0  0  0  0  0
  189.8020  176.1240  142.7250 C   0  0  1  0  0  3  0  0  0  0  0  0
  185.1710  179.0480  142.9870 C   0  0  1  0  0  3  0  0  0  0  0  0
  187.7420  177.0890  144.7500 N   0  0  2  0  0  0  0  0  0  0  0  0
  184.9290  179.5890  146.1640 O   0  0  0  0  0  0  0  0  0  0  0  0
  187.2250  177.8710  141.0300 C   0  0  1  0  0  3  0  0  0  0  0  0
  186.4330  180.5000  147.5840 F   0  0  0  0  0  0  0  0  0  0  0  0
  190.1160  176.5220  144.1450 C   0  0  2  0  0  3  0  0  0  0  0  0
  189.1640  177.3480  145.0530 C   0  0  2  0  0  3  0  0  0  0  0  0
  186.4500  179.1890  141.1230 C   0  0  0  0  0  2  0  0  0  0  0  0
  187.6310  178.2520  138.5950 C   0  0  0  0  0  3  0  0  0  0  0  0
  188.1370  177.8770  139.8440 C   0  0  0  0  0  0  0  0  0  0  0  0
  189.4850  177.5020  139.9630 C   0  0  0  0  0  3  0  0  0  0  0  0
  191.6150  177.1440  138.9560 F   0  0  0  0  0  0  0  0  0  0  0  0
  189.8060  177.8840  137.5930 C   0  0  0  0  0  3  0  0  0  0  0  0
  190.3150  177.5060  138.8390 C   0  0  0  0  0  0  0  0  0  0  0  0
  188.4640  178.2570  137.4720 C   0  0  0  0  0  3  0  0  0  0  0  0
  189.5110  176.9910  146.5070 C   0  0  1  0  0  3  0  0  0  0  0  0
  191.0170  176.8530  146.6900 C   0  0  1  0  0  3  0  0  0  0  0  0
  190.2990  178.1240  147.1450 C   0  0  2  0  0  3  0  0  0  0  0  0
  189.9720  178.1920  148.6310 C   0  0  0  0  0  2  0  0  0  0  0  0
  188.5700  177.8770  148.8340 N   0  0  0  0  0  1  0  0  0  0  0  0
  192.8000  175.6280  147.9070 C   0  0  0  0  0  1  0  0  0  0  0  0
  191.3050  175.8420  147.7940 C   0  0  0  0  0  2  0  0  0  0  0  0
  1 20  1  0  0  0  0
  1 10  1  0  0  0  0
  2  5  1  0  0  0  0
  2  6  1  0  0  0  0
  3 15  1  0  0  0  0
  4 18  1  0  0  0  0
  5 17  1  0  0  0  0
  6  4  1  0  0  0  0
  6  9  1  0  0  0  0
  7  3  1  0  0  0  0
  7  5  1  0  0  0  0
  8  4  1  0  0  0  0
  9 13  1  0  0  0  0
 11 16  1  0  0  0  0
 12  8  1  0  0  0  0
 13  1  1  0  0  0  0
 14 21  1  0  0  0  0
 15 14  1  0  0  0  0
 15 21  1  0  0  0  0
 16 12  1  0  0  0  0
 16  2  1  0  0  0  0
 17 22  1  0  0  0  0
 17  9  1  0  0  0  0
 18  1  1  0  0  0  0
 19 23  1  0  0  0  0
 19  7  1  0  0  0  0
 21 22  1  0  0  0  0
 22 31  1  0  0  0  0
 23 11  1  0  0  0  0
 24 25  1  0  0  0  0
 25 26  2  0  0  0  0
 25 19  1  0  0  0  0
 28 29  2  0  0  0  0
 29 27  1  0  0  0  0
 29 26  1  0  0  0  0
 30 28  1  0  0  0  0
 30 24  2  0  0  0  0
 31 32  1  0  0  0  0
 31 33  1  0  0  0  0
 32 33  1  0  0  0  0
 32 37  1  0  0  0  0
 33 34  1  0  0  0  0
 34 35  1  0  0  0  0
 37 36  1  0  0  0  0
M  END
>  <MODEL>
6

>  <REMARK>
 VINA RESULT:      -9.2      2.822      6.715
  Name = 
  4 active torsions:
  status: ('A' for Active; 'I' for Inactive)
    1  A    between atoms: C_1  and  C_27
    2  A    between atoms: C_4  and  C_37
    3  A    between atoms: C_8  and  C_12
    4  A    between atoms: C_23  and  C_30
                            x       y       z     vdW  Elec       q    Type
                         _______ _______ _______ _____ _____    ______ ____

>  <TORSDO>
F 4

$$$$
=
 OpenBabel11122411453D

 37 44  0  0  1  0  0  0  0  0999 V2000
  190.1230  175.7630  142.8420 C   0  0  0  0  0  0  0  0  0  0  0  0
  188.4960  178.3110  140.5960 C   0  0  1  0  0  3  0  0  0  0  0  0
  185.5710  179.5540  141.4810 O   0  0  0  0  0  0  0  0  0  0  0  0
  190.7990  177.3890  141.3700 C   0  0  2  0  0  3  0  0  0  0  0  0
  187.2280  177.8490  141.2960 C   0  0  2  0  0  3  0  0  0  0  0  0
  189.5470  178.2070  141.7010 C   0  0  2  0  0  3  0  0  0  0  0  0
  185.9270  178.4220  140.7360 C   0  0  2  0  0  3  0  0  0  0  0  0
  191.2350  177.7000  139.9460 C   0  0  0  0  0  2  0  0  0  0  0  0
  188.7950  177.6760  142.9240 C   0  0  2  0  0  3  0  0  0  0  0  0
  190.9630  176.3090  143.8090 F   0  0  0  0  0  0  0  0  0  0  0  0
  188.0010  177.9840  138.2620 O   0  0  0  0  0  0  0  0  0  0  0  0
  190.1870  177.2710  138.9150 C   0  0  0  0  0  2  0  0  0  0  0  0
  188.8070  176.2560  142.9630 O   0  0  0  0  0  0  0  0  0  0  0  0
  184.2260  177.8860  142.5680 O   0  0  0  0  0  0  0  0  0  0  0  0
  184.5880  179.2470  142.4640 C   0  0  1  0  0  3  0  0  0  0  0  0
  188.7200  177.4440  139.3420 C   0  0  1  0  0  3  0  0  0  0  0  0
  187.4230  178.1600  142.7120 N   0  0  2  0  0  0  0  0  0  0  0  0
  190.6050  176.0030  141.5370 O   0  0  0  0  0  0  0  0  0  0  0  0
  185.9220  178.7070  139.2240 C   0  0  1  0  0  3  0  0  0  0  0  0
  190.0890  174.3970  143.0400 F   0  0  0  0  0  0  0  0  0  0  0  0
  185.0750  178.3680  143.5890 C   0  0  2  0  0  3  0  0  0  0  0  0
  186.3770  177.5230  143.5390 C   0  0  2  0  0  3  0  0  0  0  0  0
  186.6550  177.6220  138.4280 C   0  0  0  0  0  2  0  0  0  0  0  0
  183.9350  177.8500  137.9760 C   0  0  0  0  0  3  0  0  0  0  0  0
  184.5240  178.8770  138.7220 C   0  0  0  0  0  0  0  0  0  0  0  0
  183.7980  180.0520  138.9770 C   0  0  0  0  0  3  0  0  0  0  0  0
  181.7990  181.3270  138.7380 F   0  0  0  0  0  0  0  0  0  0  0  0
  181.9120  179.1630  137.7460 C   0  0  0  0  0  3  0  0  0  0  0  0
  182.4960  180.1930  138.4900 C   0  0  0  0  0  0  0  0  0  0  0  0
  182.6320  177.9920  137.4900 C   0  0  0  0  0  3  0  0  0  0  0  0
  186.8390  177.3260  144.9910 C   0  0  1  0  0  3  0  0  0  0  0  0
  188.0570  178.1870  145.2970 C   0  0  1  0  0  3  0  0  0  0  0  0
  186.6680  178.6210  145.7690 C   0  0  2  0  0  3  0  0  0  0  0  0
  186.3440  178.2990  147.2210 C   0  0  0  0  0  2  0  0  0  0  0  0
  184.9330  178.5310  147.4650 N   0  0  0  0  0  1  0  0  0  0  0  0
  190.3660  177.8860  146.1590 C   0  0  0  0  0  1  0  0  0  0  0  0
  188.9140  177.5000  146.3540 C   0  0  0  0  0  2  0  0  0  0  0  0
  1 13  1  0  0  0  0
  1 20  1  0  0  0  0
  1 10  1  0  0  0  0
  2  5  1  0  0  0  0
  2  6  1  0  0  0  0
  3 15  1  0  0  0  0
  4 18  1  0  0  0  0
  4  6  1  0  0  0  0
  5 17  1  0  0  0  0
  6  9  1  0  0  0  0
  7  5  1  0  0  0  0
  7  3  1  0  0  0  0
  8  4  1  0  0  0  0
  9 13  1  0  0  0  0
 11 23  1  0  0  0  0
 11 16  1  0  0  0  0
 12 16  1  0  0  0  0
 12  8  1  0  0  0  0
 14 21  1  0  0  0  0
 15 14  1  0  0  0  0
 15 21  1  0  0  0  0
 16  2  1  0  0  0  0
 17  9  1  0  0  0  0
 17 22  1  0  0  0  0
 18  1  1  0  0  0  0
 19  7  1  0  0  0  0
 22 21  1  0  0  0  0
 22 31  1  0  0  0  0
 23 19  1  0  0  0  0
 24 25  1  0  0  0  0
 25 26  2  0  0  0  0
 25 19  1  0  0  0  0
 28 29  2  0  0  0  0
 29 27  1  0  0  0  0
 29 26  1  0  0  0  0
 30 28  1  0  0  0  0
 30 24  2  0  0  0  0
 31 32  1  0  0  0  0
 31 33  1  0  0  0  0
 32 33  1  0  0  0  0
 32 37  1  0  0  0  0
 33 34  1  0  0  0  0
 34 35  1  0  0  0  0
 36 37  1  0  0  0  0
M  END
>  <MODEL>
7

>  <REMARK>
 VINA RESULT:      -8.9      2.255      5.404
  Name = 
  4 active torsions:
  status: ('A' for Active; 'I' for Inactive)
    1  A    between atoms: C_1  and  C_27
    2  A    between atoms: C_4  and  C_37
    3  A    between atoms: C_8  and  C_12
    4  A    between atoms: C_23  and  C_30
                            x       y       z     vdW  Elec       q    Type
                         _______ _______ _______ _____ _____    ______ ____

>  <TORSDO>
F 4

$$$$
=
 OpenBabel11122411453D

 37 44  0  0  1  0  0  0  0  0999 V2000
  189.9750  176.6560  141.8620 C   0  0  0  0  0  0  0  0  0  0  0  0
  188.4070  177.7910  138.6320 C   0  0  1  0  0  3  0  0  0  0  0  0
  185.3580  179.0500  138.7150 O   0  0  0  0  0  0  0  0  0  0  0  0
  190.6830  177.5060  139.8520 C   0  0  2  0  0  3  0  0  0  0  0  0
  187.1120  177.5860  139.4010 C   0  0  2  0  0  3  0  0  0  0  0  0
  189.3680  178.2790  139.7160 C   0  0  2  0  0  3  0  0  0  0  0  0
  185.8330  177.7390  138.5790 C   0  0  2  0  0  3  0  0  0  0  0  0
  191.2180  177.1850  138.4640 C   0  0  0  0  0  2  0  0  0  0  0  0
  188.5470  178.2870  141.0080 C   0  0  2  0  0  3  0  0  0  0  0  0
  190.7030  177.6430  142.5210 F   0  0  0  0  0  0  0  0  0  0  0  0
  188.1220  176.4190  136.6740 O   0  0  0  0  0  0  0  0  0  0  0  0
  190.2820  176.2560  137.6870 C   0  0  0  0  0  2  0  0  0  0  0  0
  188.6290  177.0390  141.6830 O   0  0  0  0  0  0  0  0  0  0  0  0
  184.0180  177.9360  140.3680 O   0  0  0  0  0  0  0  0  0  0  0  0
  184.3160  179.1330  139.6810 C   0  0  1  0  0  3  0  0  0  0  0  0
  188.7780  176.4780  137.9160 C   0  0  1  0  0  3  0  0  0  0  0  0
  187.1730  178.5110  140.5330 N   0  0  2  0  0  0  0  0  0  0  0  0
  190.5490  176.3290  140.6150 O   0  0  0  0  0  0  0  0  0  0  0  0
  185.9370  177.3190  137.1030 C   0  0  1  0  0  3  0  0  0  0  0  0
  189.9950  175.5230  142.6530 F   0  0  0  0  0  0  0  0  0  0  0  0
  184.7530  178.8910  141.1040 C   0  0  2  0  0  3  0  0  0  0  0  0
  186.0980  178.2240  141.5050 C   0  0  2  0  0  3  0  0  0  0  0  0
  186.7880  176.0580  136.9180 C   0  0  0  0  0  2  0  0  0  0  0  0
  184.3550  177.5020  135.1780 C   0  0  0  0  0  3  0  0  0  0  0  0
  184.5770  177.1310  136.5080 C   0  0  0  0  0  0  0  0  0  0  0  0
  183.5210  176.5990  137.2650 C   0  0  0  0  0  3  0  0  0  0  0  0
  181.2390  175.9280  137.4230 F   0  0  0  0  0  0  0  0  0  0  0  0
  182.0410  176.8120  135.3610 C   0  0  0  0  0  3  0  0  0  0  0  0
  182.2570  176.4410  136.6910 C   0  0  0  0  0  0  0  0  0  0  0  0
  183.0910  177.3430  134.6040 C   0  0  0  0  0  3  0  0  0  0  0  0
  186.4490  178.7340  142.9110 C   0  0  1  0  0  3  0  0  0  0  0  0
  185.4420  178.2350  143.9390 C   0  0  1  0  0  3  0  0  0  0  0  0
  186.8100  177.5630  143.8110 C   0  0  2  0  0  3  0  0  0  0  0  0
  187.8520  178.0110  144.8270 C   0  0  0  0  0  2  0  0  0  0  0  0
  188.6580  176.8730  145.2270 N   0  0  0  0  0  1  0  0  0  0  0  0
  184.5580  178.6370  146.2240 C   0  0  0  0  0  1  0  0  0  0  0  0
  185.3220  179.2500  145.0690 C   0  0  0  0  0  2  0  0  0  0  0  0
  1 10  1  0  0  0  0
  1 20  1  0  0  0  0
  2  5  1  0  0  0  0
  2  6  1  0  0  0  0
  3 15  1  0  0  0  0
  4 18  1  0  0  0  0
  5 17  1  0  0  0  0
  6  4  1  0  0  0  0
  6  9  1  0  0  0  0
  7  3  1  0  0  0  0
  7  5  1  0  0  0  0
  8  4  1  0  0  0  0
  9 13  1  0  0  0  0
 11 23  1  0  0  0  0
 11 16  1  0  0  0  0
 12 16  1  0  0  0  0
 12  8  1  0  0  0  0
 13  1  1  0  0  0  0
 14 21  1  0  0  0  0
 15 14  1  0  0  0  0
 15 21  1  0  0  0  0
 16  2  1  0  0  0  0
 17  9  1  0  0  0  0
 17 22  1  0  0  0  0
 18  1  1  0  0  0  0
 19  7  1  0  0  0  0
 21 22  1  0  0  0  0
 22 31  1  0  0  0  0
 23 19  1  0  0  0  0
 24 25  1  0  0  0  0
 25 19  1  0  0  0  0
 25 26  2  0  0  0  0
 28 29  2  0  0  0  0
 29 26  1  0  0  0  0
 29 27  1  0  0  0  0
 30 24  2  0  0  0  0
 30 28  1  0  0  0  0
 31 33  1  0  0  0  0
 31 32  1  0  0  0  0
 32 37  1  0  0  0  0
 33 32  1  0  0  0  0
 33 34  1  0  0  0  0
 34 35  1  0  0  0  0
 37 36  1  0  0  0  0
M  END
>  <MODEL>
8

>  <REMARK>
 VINA RESULT:      -8.9      2.889      6.217
  Name = 
  4 active torsions:
  status: ('A' for Active; 'I' for Inactive)
    1  A    between atoms: C_1  and  C_27
    2  A    between atoms: C_4  and  C_37
    3  A    between atoms: C_8  and  C_12
    4  A    between atoms: C_23  and  C_30
                            x       y       z     vdW  Elec       q    Type
                         _______ _______ _______ _____ _____    ______ ____

>  <TORSDO>
F 4

$$$$
=
 OpenBabel11122411453D

 37 44  0  0  1  0  0  0  0  0999 V2000
  188.9440  178.9480  137.6050 C   0  0  0  0  0  0  0  0  0  0  0  0
  189.7130  176.8390  140.6290 C   0  0  1  0  0  3  0  0  0  0  0  0
  187.4720  176.6690  143.0450 O   0  0  0  0  0  0  0  0  0  0  0  0
  190.1600  177.0600  138.0790 C   0  0  2  0  0  3  0  0  0  0  0  0
  188.6850  177.7410  141.2920 C   0  0  2  0  0  3  0  0  0  0  0  0
  189.1790  176.7120  139.2020 C   0  0  2  0  0  3  0  0  0  0  0  0
  188.5300  177.5560  142.8010 C   0  0  2  0  0  3  0  0  0  0  0  0
  191.5300  176.4940  138.4200 C   0  0  0  0  0  2  0  0  0  0  0  0
  187.9090  177.5660  139.1700 C   0  0  2  0  0  3  0  0  0  0  0  0
  188.3020  178.2610  136.5790 F   0  0  0  0  0  0  0  0  0  0  0  0
  191.6590  177.0820  142.0280 O   0  0  0  0  0  0  0  0  0  0  0  0
  192.1190  177.1310  139.6820 C   0  0  0  0  0  2  0  0  0  0  0  0
  188.1960  178.9080  138.8010 O   0  0  0  0  0  0  0  0  0  0  0  0
  186.3380  178.7700  143.3090 O   0  0  0  0  0  0  0  0  0  0  0  0
  186.2720  177.3610  143.3730 C   0  0  1  0  0  3  0  0  0  0  0  0
  191.1100  177.4690  140.7930 C   0  0  1  0  0  3  0  0  0  0  0  0
  187.4360  177.5200  140.5620 N   0  0  2  0  0  0  0  0  0  0  0  0
  190.2430  178.4460  137.8370 O   0  0  0  0  0  0  0  0  0  0  0  0
  189.8060  177.1440  143.5550 C   0  0  1  0  0  3  0  0  0  0  0  0
  189.0590  180.2680  137.2160 F   0  0  0  0  0  0  0  0  0  0  0  0
  185.6660  178.1450  142.2360 C   0  0  2  0  0  3  0  0  0  0  0  0
  186.4240  178.5290  140.9350 C   0  0  2  0  0  3  0  0  0  0  0  0
  191.0500  177.8630  143.0230 C   0  0  0  0  0  2  0  0  0  0  0  0
  188.4390  177.8760  145.5140 C   0  0  0  0  0  3  0  0  0  0  0  0
  189.6510  177.3750  145.0250 C   0  0  0  0  0  0  0  0  0  0  0  0
  190.7010  177.1080  145.9170 C   0  0  0  0  0  3  0  0  0  0  0  0
  191.5510  177.0810  148.1440 F   0  0  0  0  0  0  0  0  0  0  0  0
  189.3230  177.8390  147.7690 C   0  0  0  0  0  3  0  0  0  0  0  0
  190.5360  177.3400  147.2850 C   0  0  0  0  0  0  0  0  0  0  0  0
  188.2750  178.1070  146.8830 C   0  0  0  0  0  3  0  0  0  0  0  0
  185.3650  178.7080  139.8370 C   0  0  1  0  0  3  0  0  0  0  0  0
  184.2950  177.6280  139.9290 C   0  0  1  0  0  3  0  0  0  0  0  0
  184.0180  179.0350  140.4630 C   0  0  2  0  0  3  0  0  0  0  0  0
  183.2330  179.9430  139.5260 C   0  0  0  0  0  2  0  0  0  0  0  0
  184.1560  180.7200  138.7190 N   0  0  0  0  0  1  0  0  0  0  0  0
  184.8810  177.1690  137.5610 C   0  0  0  0  0  1  0  0  0  0  0  0
  183.7380  177.3420  138.5400 C   0  0  0  0  0  2  0  0  0  0  0  0
  1 18  1  0  0  0  0
  1 13  1  0  0  0  0
  2 16  1  0  0  0  0
  2  5  1  0  0  0  0
  3 15  1  0  0  0  0
  4  8  1  0  0  0  0
  4  6  1  0  0  0  0
  5  7  1  0  0  0  0
  6  2  1  0  0  0  0
  7  3  1  0  0  0  0
  7 19  1  0  0  0  0
  8 12  1  0  0  0  0
  9  6  1  0  0  0  0
  9 17  1  0  0  0  0
 10  1  1  0  0  0  0
 11 23  1  0  0  0  0
 12 16  1  0  0  0  0
 13  9  1  0  0  0  0
 14 15  1  0  0  0  0
 16 11  1  0  0  0  0
 17 22  1  0  0  0  0
 17  5  1  0  0  0  0
 18  4  1  0  0  0  0
 19 25  1  0  0  0  0
 20  1  1  0  0  0  0
 21 14  1  0  0  0  0
 21 15  1  0  0  0  0
 22 21  1  0  0  0  0
 23 19  1  0  0  0  0
 24 30  1  0  0  0  0
 25 24  2  0  0  0  0
 25 26  1  0  0  0  0
 26 29  2  0  0  0  0
 29 28  1  0  0  0  0
 29 27  1  0  0  0  0
 30 28  2  0  0  0  0
 31 32  1  0  0  0  0
 31 33  1  0  0  0  0
 31 22  1  0  0  0  0
 32 33  1  0  0  0  0
 34 33  1  0  0  0  0
 35 34  1  0  0  0  0
 36 37  1  0  0  0  0
 37 32  1  0  0  0  0
M  END
>  <MODEL>
9

>  <REMARK>
 VINA RESULT:      -8.6      2.894      6.624
  Name = 
  4 active torsions:
  status: ('A' for Active; 'I' for Inactive)
    1  A    between atoms: C_1  and  C_27
    2  A    between atoms: C_4  and  C_37
    3  A    between atoms: C_8  and  C_12
    4  A    between atoms: C_23  and  C_30
                            x       y       z     vdW  Elec       q    Type
                         _______ _______ _______ _____ _____    ______ ____

>  <TORSDO>
F 4

$$$$
