=
 OpenBabel11122411313D

 37 44  0  0  1  0  0  0  0  0999 V2000
  184.6430  175.9790  137.6590 C   0  0  0  0  0  2  0  0  0  0  0  0
  188.5580  178.3490  137.6020 C   0  0  1  0  0  0  0  0  0  0  0  0
  185.7440  178.2480  140.6880 C   0  0  0  0  0  0  0  0  0  0  0  0
  184.2910  175.1030  136.4280 C   0  0  2  0  0  3  0  0  0  0  0  0
  181.9010  178.0100  139.9010 C   0  0  0  0  0  2  0  0  0  0  0  0
  188.0730  178.3830  140.0410 C   0  0  0  0  0  0  0  0  0  0  0  0
  184.4560  178.3030  140.0290 N   0  0  0  0  0  0  0  0  0  0  0  0
  181.7870  175.1340  137.0270 C   0  0  0  0  0  0  0  0  0  0  0  0
  186.7320  178.2470  139.7540 C   0  0  0  0  0  0  0  0  0  0  0  0
  183.1170  178.7090  140.5990 C   0  0  2  0  0  3  0  0  0  0  0  0
  188.4620  178.4370  141.3830 C   0  0  0  0  0  3  0  0  0  0  0  0
  182.8180  175.0290  135.9480 C   0  0  0  0  0  2  0  0  0  0  0  0
  186.2420  178.3010  138.4500 N   0  0  0  0  0  0  0  0  0  0  0  0
  188.6960  176.8870  137.2150 C   0  0  0  0  0  1  0  0  0  0  0  0
  185.1290  178.2780  143.1720 C   0  0  0  0  0  2  0  0  0  0  0  0
  187.4730  178.3880  142.3870 C   0  0  0  0  0  3  0  0  0  0  0  0
  187.0930  178.7980  137.3720 C   0  0  0  0  0  2  0  0  0  0  0  0
  181.8460  176.2720  137.8600 N   0  0  0  0  0  0  0  0  0  0  0  0
  182.4160  176.8300  139.1410 C   0  0  1  0  0  3  0  0  0  0  0  0
  186.1020  178.3150  142.0540 C   0  0  0  0  0  0  0  0  0  0  0  0
  184.7920  178.4320  138.5640 C   0  0  1  0  0  3  0  0  0  0  0  0
  188.9720  178.5170  138.9740 O   0  0  0  0  0  0  0  0  0  0  0  0
  182.9610  178.5130  142.1200 C   0  0  1  0  0  3  0  0  0  0  0  0
  189.3870  179.0960  136.7870 F   0  0  0  0  0  0  0  0  0  0  0  0
  182.6050  177.5220  137.9710 C   0  0  1  0  0  3  0  0  0  0  0  0
  180.9110  174.2470  137.1960 O   0  0  0  0  0  0  0  0  0  0  0  0
  184.0750  177.4220  137.6290 C   0  0  2  0  0  3  0  0  0  0  0  0
  184.0110  179.2470  142.9160 C   0  0  0  0  0  2  0  0  0  0  0  0
  181.0620  178.2810  143.7360 C   0  0  0  0  0  3  0  0  0  0  0  0
  181.6070  178.9300  142.6210 C   0  0  0  0  0  0  0  0  0  0  0  0
  180.8830  179.9580  141.9950 C   0  0  0  0  0  3  0  0  0  0  0  0
  178.9310  181.3200  141.8750 F   0  0  0  0  0  0  0  0  0  0  0  0
  179.0860  179.6750  143.5940 C   0  0  0  0  0  3  0  0  0  0  0  0
  179.6260  180.3280  142.4820 C   0  0  0  0  0  0  0  0  0  0  0  0
  179.8040  178.6520  144.2200 C   0  0  0  0  0  3  0  0  0  0  0  0
  184.7470  173.3480  137.9830 O   0  0  0  0  0  1  0  0  0  0  0  0
  184.8240  173.6960  136.6340 C   0  0  0  0  0  2  0  0  0  0  0  0
  2 14  1  6  0  0  0
  2 22  1  0  0  0  0
  3 20  1  0  0  0  0
  4 37  1  1  0  0  0
  4  1  1  0  0  0  0
  6 11  2  0  0  0  0
  7 10  1  0  0  0  0
  7  3  1  0  0  0  0
  8 26  2  0  0  0  0
  8 18  1  0  0  0  0
  9  6  1  0  0  0  0
  9  3  2  0  0  0  0
 10  5  1  6  0  0  0
 10 23  1  0  0  0  0
 11 16  1  0  0  0  0
 12  4  1  0  0  0  0
 12  8  1  0  0  0  0
 13  9  1  0  0  0  0
 17  2  1  0  0  0  0
 17 13  1  0  0  0  0
 18 19  1  0  0  0  0
 19  5  1  1  0  0  0
 20 16  2  0  0  0  0
 20 15  1  0  0  0  0
 21 13  1  1  0  0  0
 21  7  1  0  0  0  0
 22  6  1  0  0  0  0
 23 30  1  1  0  0  0
 23 28  1  0  0  0  0
 24  2  1  0  0  0  0
 25 18  1  6  0  0  0
 25 19  1  0  0  0  0
 27  1  1  1  0  0  0
 27 25  1  0  0  0  0
 27 21  1  0  0  0  0
 28 15  1  0  0  0  0
 29 35  1  0  0  0  0
 30 29  2  0  0  0  0
 31 34  2  0  0  0  0
 31 30  1  0  0  0  0
 32 34  1  0  0  0  0
 33 35  2  0  0  0  0
 34 33  1  0  0  0  0
 37 36  1  0  0  0  0
M  END
>  <MODEL>
1

>  <REMARK>
 VINA RESULT:      -7.8      0.000      0.000
  Name = 
  2 active torsions:
  status: ('A' for Active; 'I' for Inactive)
    1  A    between atoms: C_4  and  C_37
    2  A    between atoms: C_23  and  C_30
                            x       y       z     vdW  Elec       q    Type
                         _______ _______ _______ _____ _____    ______ ____

>  <TORSDO>
F 2

$$$$
=
 OpenBabel11122411313D

 37 44  0  0  1  0  0  0  0  0999 V2000
  184.9860  177.0180  138.2730 C   0  0  0  0  0  2  0  0  0  0  0  0
  188.9950  178.1740  136.3900 C   0  0  1  0  0  0  0  0  0  0  0  0
  188.2670  177.3810  140.4280 C   0  0  0  0  0  0  0  0  0  0  0  0
  183.7470  176.8870  137.3500 C   0  0  2  0  0  3  0  0  0  0  0  0
  184.8690  178.4270  142.1040 C   0  0  0  0  0  2  0  0  0  0  0  0
  189.7920  177.2370  138.5520 C   0  0  0  0  0  0  0  0  0  0  0  0
  187.0030  178.0230  140.7180 N   0  0  0  0  0  0  0  0  0  0  0  0
  182.1400  177.2370  139.3310 C   0  0  0  0  0  0  0  0  0  0  0  0
  188.5770  177.5620  139.1160 C   0  0  0  0  0  0  0  0  0  0  0  0
  186.4360  178.4360  142.0560 C   0  0  2  0  0  3  0  0  0  0  0  0
  190.7440  176.5980  139.3520 C   0  0  0  0  0  3  0  0  0  0  0  0
  182.3680  177.3830  137.8600 C   0  0  0  0  0  2  0  0  0  0  0  0
  187.6130  178.3010  138.4310 N   0  0  0  0  0  0  0  0  0  0  0  0
  188.2630  177.0480  135.6820 C   0  0  0  0  0  1  0  0  0  0  0  0
  188.9840  176.4510  142.7010 C   0  0  0  0  0  2  0  0  0  0  0  0
  190.4440  176.3440  140.7060 C   0  0  0  0  0  3  0  0  0  0  0  0
  187.9740  179.0080  137.2050 C   0  0  0  0  0  2  0  0  0  0  0  0
  183.0870  177.8390  140.1880 N   0  0  0  0  0  0  0  0  0  0  0  0
  184.3740  177.6210  140.9450 C   0  0  1  0  0  3  0  0  0  0  0  0
  189.2130  176.7490  141.2670 C   0  0  0  0  0  0  0  0  0  0  0  0
  186.6250  178.7050  139.4260 C   0  0  1  0  0  3  0  0  0  0  0  0
  190.0310  177.6140  137.2240 O   0  0  0  0  0  0  0  0  0  0  0  0
  186.9470  177.6300  143.2660 C   0  0  1  0  0  3  0  0  0  0  0  0
  189.5750  178.9860  135.4360 F   0  0  0  0  0  0  0  0  0  0  0  0
  184.2750  178.6940  140.0950 C   0  0  1  0  0  3  0  0  0  0  0  0
  181.1570  176.6010  139.7910 O   0  0  0  0  0  0  0  0  0  0  0  0
  185.1870  178.4130  138.9200 C   0  0  2  0  0  3  0  0  0  0  0  0
  188.4480  177.6660  143.4020 C   0  0  0  0  0  2  0  0  0  0  0  0
  185.0010  178.4980  144.5850 C   0  0  0  0  0  3  0  0  0  0  0  0
  186.3400  178.0870  144.5630 C   0  0  0  0  0  0  0  0  0  0  0  0
  187.0890  178.1040  145.7520 C   0  0  0  0  0  3  0  0  0  0  0  0
  187.2280  178.5470  148.0890 F   0  0  0  0  0  0  0  0  0  0  0  0
  185.1650  178.9420  146.9600 C   0  0  0  0  0  3  0  0  0  0  0  0
  186.5010  178.5310  146.9460 C   0  0  0  0  0  0  0  0  0  0  0  0
  184.4160  178.9250  145.7790 C   0  0  0  0  0  3  0  0  0  0  0  0
  183.8870  174.5710  137.9120 O   0  0  0  0  0  1  0  0  0  0  0  0
  183.6180  175.4540  136.8660 C   0  0  0  0  0  2  0  0  0  0  0  0
  2 14  1  6  0  0  0
  2 17  1  0  0  0  0
  2 22  1  0  0  0  0
  3  7  1  0  0  0  0
  3 20  1  0  0  0  0
  4 37  1  1  0  0  0
  4 12  1  0  0  0  0
  4  1  1  0  0  0  0
  6  9  1  0  0  0  0
  6 11  2  0  0  0  0
  7 10  1  0  0  0  0
  8 26  2  0  0  0  0
  8 18  1  0  0  0  0
  9  3  2  0  0  0  0
 10  5  1  6  0  0  0
 10 23  1  0  0  0  0
 11 16  1  0  0  0  0
 12  8  1  0  0  0  0
 13  9  1  0  0  0  0
 15 28  1  0  0  0  0
 16 20  2  0  0  0  0
 17 13  1  0  0  0  0
 18 19  1  0  0  0  0
 19  5  1  1  0  0  0
 20 15  1  0  0  0  0
 21 13  1  6  0  0  0
 21  7  1  0  0  0  0
 22  6  1  0  0  0  0
 23 28  1  0  0  0  0
 23 30  1  1  0  0  0
 24  2  1  0  0  0  0
 25 18  1  6  0  0  0
 25 19  1  0  0  0  0
 27  1  1  1  0  0  0
 27 21  1  0  0  0  0
 27 25  1  0  0  0  0
 29 35  1  0  0  0  0
 30 29  2  0  0  0  0
 30 31  1  0  0  0  0
 31 34  2  0  0  0  0
 34 33  1  0  0  0  0
 34 32  1  0  0  0  0
 35 33  2  0  0  0  0
 37 36  1  0  0  0  0
M  END
>  <MODEL>
2

>  <REMARK>
 VINA RESULT:      -7.6      2.882      4.032
  Name = 
  2 active torsions:
  status: ('A' for Active; 'I' for Inactive)
    1  A    between atoms: C_4  and  C_37
    2  A    between atoms: C_23  and  C_30
                            x       y       z     vdW  Elec       q    Type
                         _______ _______ _______ _____ _____    ______ ____

>  <TORSDO>
F 2

$$$$
=
 OpenBabel11122411313D

 37 44  0  0  1  0  0  0  0  0999 V2000
  188.1780  177.2900  140.9540 C   0  0  0  0  0  2  0  0  0  0  0  0
  184.4480  178.5400  138.6160 C   0  0  1  0  0  0  0  0  0  0  0  0
  187.4510  175.9390  137.3230 C   0  0  0  0  0  0  0  0  0  0  0  0
  188.3820  177.8610  142.3820 C   0  0  2  0  0  3  0  0  0  0  0  0
  191.2050  176.5460  138.3170 C   0  0  0  0  0  2  0  0  0  0  0  0
  185.0990  176.5130  137.3310 C   0  0  0  0  0  0  0  0  0  0  0  0
  188.6920  176.5480  137.7540 N   0  0  0  0  0  0  0  0  0  0  0  0
  190.9170  177.4200  142.2790 C   0  0  0  0  0  0  0  0  0  0  0  0
  186.4040  176.7070  137.7280 C   0  0  0  0  0  0  0  0  0  0  0  0
  190.0920  176.3110  137.2390 C   0  0  2  0  0  3  0  0  0  0  0  0
  184.8070  175.4040  136.5300 C   0  0  0  0  0  3  0  0  0  0  0  0
  189.8100  178.2540  142.8430 C   0  0  0  0  0  2  0  0  0  0  0  0
  186.8080  177.8430  138.4280 N   0  0  0  0  0  0  0  0  0  0  0  0
  184.1800  178.0770  140.0360 C   0  0  0  0  0  1  0  0  0  0  0  0
  188.2340  173.8740  136.0300 C   0  0  0  0  0  2  0  0  0  0  0  0
  185.8560  174.5510  136.1310 C   0  0  0  0  0  3  0  0  0  0  0  0
  185.9230  179.0030  138.5040 C   0  0  0  0  0  2  0  0  0  0  0  0
  190.9960  177.3300  140.8730 N   0  0  0  0  0  0  0  0  0  0  0  0
  190.5550  176.5410  139.6640 C   0  0  1  0  0  3  0  0  0  0  0  0
  187.1920  174.8170  136.5030 C   0  0  0  0  0  0  0  0  0  0  0  0
  188.2670  177.8450  138.3970 C   0  0  1  0  0  3  0  0  0  0  0  0
  184.1420  177.4670  137.7010 O   0  0  0  0  0  0  0  0  0  0  0  0
  190.3360  174.9280  136.6060 C   0  0  1  0  0  3  0  0  0  0  0  0
  183.6220  179.6130  138.3430 F   0  0  0  0  0  0  0  0  0  0  0  0
  190.3380  177.8960  139.6900 C   0  0  1  0  0  3  0  0  0  0  0  0
  191.7360  176.8170  143.0180 O   0  0  0  0  0  0  0  0  0  0  0  0
  188.8450  178.1020  139.8140 C   0  0  2  0  0  3  0  0  0  0  0  0
  189.3980  174.6320  135.4620 C   0  0  0  0  0  2  0  0  0  0  0  0
  192.2400  175.6160  135.1300 C   0  0  0  0  0  3  0  0  0  0  0  0
  191.7480  174.7550  136.1190 C   0  0  0  0  0  0  0  0  0  0  0  0
  192.5810  173.7520  136.6420 C   0  0  0  0  0  3  0  0  0  0  0  0
  194.6910  172.6440  136.6800 F   0  0  0  0  0  0  0  0  0  0  0  0
  194.3760  174.4740  135.1850 C   0  0  0  0  0  3  0  0  0  0  0  0
  193.8910  173.6130  136.1740 C   0  0  0  0  0  0  0  0  0  0  0  0
  193.5500  175.4750  134.6640 C   0  0  0  0  0  3  0  0  0  0  0  0
  188.2570  175.6280  143.2180 O   0  0  0  0  0  1  0  0  0  0  0  0
  187.7650  176.9210  143.4020 C   0  0  0  0  0  2  0  0  0  0  0  0
  1  4  1  0  0  0  0
  2 14  1  1  0  0  0
  3  9  1  0  0  0  0
  3  7  1  0  0  0  0
  4 12  1  0  0  0  0
  4 37  1  1  0  0  0
  6 22  1  0  0  0  0
  6  9  2  0  0  0  0
  8 12  1  0  0  0  0
  8 26  2  0  0  0  0
  9 13  1  0  0  0  0
 10  7  1  0  0  0  0
 10  5  1  1  0  0  0
 11  6  1  0  0  0  0
 13 17  1  0  0  0  0
 15 20  1  0  0  0  0
 16 20  1  0  0  0  0
 16 11  2  0  0  0  0
 17  2  1  0  0  0  0
 18  8  1  0  0  0  0
 19  5  1  6  0  0  0
 19 25  1  0  0  0  0
 19 18  1  0  0  0  0
 20  3  2  0  0  0  0
 21  7  1  1  0  0  0
 21 13  1  0  0  0  0
 21 27  1  0  0  0  0
 22  2  1  0  0  0  0
 23 30  1  6  0  0  0
 23 10  1  0  0  0  0
 24  2  1  0  0  0  0
 25 27  1  0  0  0  0
 25 18  1  1  0  0  0
 27  1  1  1  0  0  0
 28 15  1  0  0  0  0
 28 23  1  0  0  0  0
 29 30  1  0  0  0  0
 30 31  2  0  0  0  0
 33 34  2  0  0  0  0
 34 31  1  0  0  0  0
 34 32  1  0  0  0  0
 35 29  2  0  0  0  0
 35 33  1  0  0  0  0
 36 37  1  0  0  0  0
M  END
>  <MODEL>
3

>  <REMARK>
 VINA RESULT:      -7.3      3.597      9.649
  Name = 
  2 active torsions:
  status: ('A' for Active; 'I' for Inactive)
    1  A    between atoms: C_4  and  C_37
    2  A    between atoms: C_23  and  C_30
                            x       y       z     vdW  Elec       q    Type
                         _______ _______ _______ _____ _____    ______ ____

>  <TORSDO>
F 2

$$$$
=
 OpenBabel11122411313D

 37 44  0  0  1  0  0  0  0  0999 V2000
  187.2510  174.9410  136.8780 C   0  0  0  0  0  2  0  0  0  0  0  0
  191.2910  176.7130  138.0970 C   0  0  1  0  0  0  0  0  0  0  0  0
  187.5570  177.6610  139.7150 C   0  0  0  0  0  0  0  0  0  0  0  0
  187.2230  173.8680  135.7580 C   0  0  2  0  0  3  0  0  0  0  0  0
  184.3470  177.7530  137.4490 C   0  0  0  0  0  2  0  0  0  0  0  0
  189.9300  177.3470  140.0800 C   0  0  0  0  0  0  0  0  0  0  0  0
  186.6600  177.7350  138.5810 N   0  0  0  0  0  0  0  0  0  0  0  0
  184.7450  174.3530  135.2520 C   0  0  0  0  0  0  0  0  0  0  0  0
  188.8040  177.3260  139.2860 C   0  0  0  0  0  0  0  0  0  0  0  0
  185.3210  178.4260  138.4760 C   0  0  2  0  0  3  0  0  0  0  0  0
  189.7790  177.6450  141.4380 C   0  0  0  0  0  3  0  0  0  0  0  0
  186.0640  173.8810  134.7270 C   0  0  0  0  0  2  0  0  0  0  0  0
  188.8710  177.1530  137.9040 N   0  0  0  0  0  0  0  0  0  0  0  0
  191.2600  175.1980  138.0250 C   0  0  0  0  0  1  0  0  0  0  0  0
  186.0610  178.3170  141.6840 C   0  0  0  0  0  2  0  0  0  0  0  0
  188.4950  177.9470  141.9350 C   0  0  0  0  0  3  0  0  0  0  0  0
  190.1520  177.2860  137.2160 C   0  0  0  0  0  2  0  0  0  0  0  0
  184.7160  175.6290  135.8540 N   0  0  0  0  0  0  0  0  0  0  0  0
  184.8570  176.3780  137.1570 C   0  0  1  0  0  3  0  0  0  0  0  0
  187.3720  177.9800  141.0800 C   0  0  0  0  0  0  0  0  0  0  0  0
  187.5490  177.4930  137.3860 C   0  0  1  0  0  3  0  0  0  0  0  0
  191.1750  177.1250  139.4750 O   0  0  0  0  0  0  0  0  0  0  0  0
  184.5590  178.5920  139.8050 C   0  0  1  0  0  3  0  0  0  0  0  0
  192.5030  177.1490  137.5980 F   0  0  0  0  0  0  0  0  0  0  0  0
  185.6160  176.7650  136.0810 C   0  0  1  0  0  3  0  0  0  0  0  0
  183.7080  173.6460  135.1730 O   0  0  0  0  0  0  0  0  0  0  0  0
  187.0500  176.4030  136.4000 C   0  0  2  0  0  3  0  0  0  0  0  0
  185.3530  179.3410  140.8460 C   0  0  0  0  0  2  0  0  0  0  0  0
  182.1020  178.7520  140.2640 C   0  0  0  0  0  3  0  0  0  0  0  0
  183.2340  179.2800  139.6310 C   0  0  0  0  0  0  0  0  0  0  0  0
  183.1140  180.4420  138.8510 C   0  0  0  0  0  3  0  0  0  0  0  0
  181.7580  182.1840  137.9520 F   0  0  0  0  0  0  0  0  0  0  0  0
  180.7430  180.5310  139.3390 C   0  0  0  0  0  3  0  0  0  0  0  0
  181.8700  181.0640  138.7060 C   0  0  0  0  0  0  0  0  0  0  0  0
  180.8600  179.3760  140.1180 C   0  0  0  0  0  3  0  0  0  0  0  0
  186.7550  172.4790  137.6440 O   0  0  0  0  0  1  0  0  0  0  0  0
  187.3320  172.4840  136.3730 C   0  0  0  0  0  2  0  0  0  0  0  0
  2 14  1  6  0  0  0
  2 22  1  0  0  0  0
  3 20  1  0  0  0  0
  4 37  1  1  0  0  0
  4  1  1  0  0  0  0
  6 11  2  0  0  0  0
  7  3  1  0  0  0  0
  8 18  1  0  0  0  0
  9  3  2  0  0  0  0
  9  6  1  0  0  0  0
 10  5  1  6  0  0  0
 10  7  1  0  0  0  0
 10 23  1  0  0  0  0
 11 16  1  0  0  0  0
 12  8  1  0  0  0  0
 12  4  1  0  0  0  0
 13  9  1  0  0  0  0
 17 13  1  0  0  0  0
 17  2  1  0  0  0  0
 18 19  1  0  0  0  0
 19  5  1  6  0  0  0
 20 15  1  0  0  0  0
 20 16  2  0  0  0  0
 21 13  1  1  0  0  0
 21  7  1  0  0  0  0
 22  6  1  0  0  0  0
 23 30  1  6  0  0  0
 23 28  1  0  0  0  0
 24  2  1  0  0  0  0
 25 18  1  6  0  0  0
 25 27  1  0  0  0  0
 25 19  1  0  0  0  0
 26  8  2  0  0  0  0
 27  1  1  1  0  0  0
 27 21  1  0  0  0  0
 28 15  1  0  0  0  0
 30 29  2  0  0  0  0
 31 30  1  0  0  0  0
 32 34  1  0  0  0  0
 33 35  2  0  0  0  0
 34 31  2  0  0  0  0
 34 33  1  0  0  0  0
 35 29  1  0  0  0  0
 37 36  1  0  0  0  0
M  END
>  <MODEL>
4

>  <REMARK>
 VINA RESULT:      -7.2      2.343      3.205
  Name = 
  2 active torsions:
  status: ('A' for Active; 'I' for Inactive)
    1  A    between atoms: C_4  and  C_37
    2  A    between atoms: C_23  and  C_30
                            x       y       z     vdW  Elec       q    Type
                         _______ _______ _______ _____ _____    ______ ____

>  <TORSDO>
F 2

$$$$
=
 OpenBabel11122411313D

 37 44  0  0  1  0  0  0  0  0999 V2000
  188.2310  177.2580  141.3130 C   0  0  0  0  0  2  0  0  0  0  0  0
  184.7060  178.4760  138.6590 C   0  0  1  0  0  0  0  0  0  0  0  0
  187.9320  176.0530  137.5720 C   0  0  0  0  0  0  0  0  0  0  0  0
  188.2640  177.7690  142.7770 C   0  0  2  0  0  3  0  0  0  0  0  0
  191.5370  176.7540  138.9710 C   0  0  0  0  0  2  0  0  0  0  0  0
  185.5690  176.5370  137.3610 C   0  0  0  0  0  0  0  0  0  0  0  0
  189.0960  176.6870  138.1540 N   0  0  0  0  0  0  0  0  0  0  0  0
  190.8130  177.4290  142.9170 C   0  0  0  0  0  0  0  0  0  0  0  0
  186.8180  176.7610  137.8990 C   0  0  0  0  0  0  0  0  0  0  0  0
  190.5500  176.5280  137.7750 C   0  0  2  0  0  3  0  0  0  0  0  0
  185.4070  175.4570  136.4880 C   0  0  0  0  0  3  0  0  0  0  0  0
  189.6200  178.1930  143.4000 C   0  0  0  0  0  2  0  0  0  0  0  0
  187.1000  177.8780  138.6850 N   0  0  0  0  0  0  0  0  0  0  0  0
  184.3160  177.9360  140.0230 C   0  0  0  0  0  1  0  0  0  0  0  0
  188.9290  174.0820  136.2790 C   0  0  0  0  0  2  0  0  0  0  0  0
  186.5260  174.6630  136.1620 C   0  0  0  0  0  3  0  0  0  0  0  0
  186.1640  178.9980  138.7190 C   0  0  0  0  0  2  0  0  0  0  0  0
  191.0380  177.4090  141.5240 N   0  0  0  0  0  0  0  0  0  0  0  0
  190.7560  176.6610  140.2430 C   0  0  1  0  0  3  0  0  0  0  0  0
  187.8050  174.9620  136.6810 C   0  0  0  0  0  0  0  0  0  0  0  0
  188.5540  177.9360  138.8040 C   0  0  1  0  0  3  0  0  0  0  0  0
  184.5400  177.4360  137.6720 O   0  0  0  0  0  0  0  0  0  0  0  0
  190.9150  175.1860  137.1120 C   0  0  1  0  0  3  0  0  0  0  0  0
  183.8670  179.5280  138.3490 F   0  0  0  0  0  0  0  0  0  0  0  0
  190.4800  178.0040  140.3050 C   0  0  1  0  0  3  0  0  0  0  0  0
  191.5780  176.8230  143.7100 O   0  0  0  0  0  0  0  0  0  0  0  0
  188.9740  178.1480  140.2830 C   0  0  2  0  0  3  0  0  0  0  0  0
  190.1110  174.9100  135.8670 C   0  0  0  0  0  2  0  0  0  0  0  0
  193.1450  174.0650  137.3310 C   0  0  0  0  0  3  0  0  0  0  0  0
  192.3750  175.0900  136.7670 C   0  0  0  0  0  0  0  0  0  0  0  0
  192.9780  176.0050  135.8870 C   0  0  0  0  0  3  0  0  0  0  0  0
  194.9140  176.7780  134.7340 F   0  0  0  0  0  0  0  0  0  0  0  0
  195.1000  174.8690  136.1490 C   0  0  0  0  0  3  0  0  0  0  0  0
  194.3370  175.8930  135.5810 C   0  0  0  0  0  0  0  0  0  0  0  0
  194.5030  173.9550  137.0230 C   0  0  0  0  0  3  0  0  0  0  0  0
  187.5710  177.2320  144.9990 O   0  0  0  0  0  1  0  0  0  0  0  0
  187.5880  176.7590  143.6870 C   0  0  0  0  0  2  0  0  0  0  0  0
  1  4  1  0  0  0  0
  2 17  1  0  0  0  0
  2 14  1  1  0  0  0
  3  9  1  0  0  0  0
  3  7  1  0  0  0  0
  4 12  1  0  0  0  0
  4 37  1  1  0  0  0
  6 22  1  0  0  0  0
  6  9  2  0  0  0  0
  8 12  1  0  0  0  0
  8 26  2  0  0  0  0
  9 13  1  0  0  0  0
 10  7  1  0  0  0  0
 10  5  1  1  0  0  0
 11  6  1  0  0  0  0
 13 17  1  0  0  0  0
 13 21  1  0  0  0  0
 15 20  1  0  0  0  0
 16 11  2  0  0  0  0
 16 20  1  0  0  0  0
 18  8  1  0  0  0  0
 19  5  1  6  0  0  0
 19 25  1  0  0  0  0
 19 18  1  0  0  0  0
 20  3  2  0  0  0  0
 21  7  1  1  0  0  0
 21 27  1  0  0  0  0
 22  2  1  0  0  0  0
 23 30  1  6  0  0  0
 23 10  1  0  0  0  0
 24  2  1  0  0  0  0
 25 18  1  1  0  0  0
 27 25  1  0  0  0  0
 27  1  1  1  0  0  0
 28 15  1  0  0  0  0
 28 23  1  0  0  0  0
 30 29  2  0  0  0  0
 31 30  1  0  0  0  0
 32 34  1  0  0  0  0
 33 35  2  0  0  0  0
 34 31  2  0  0  0  0
 34 33  1  0  0  0  0
 35 29  1  0  0  0  0
 37 36  1  0  0  0  0
M  END
>  <MODEL>
5

>  <REMARK>
 VINA RESULT:      -7.1      3.663      9.690
  Name = 
  2 active torsions:
  status: ('A' for Active; 'I' for Inactive)
    1  A    between atoms: C_4  and  C_37
    2  A    between atoms: C_23  and  C_30
                            x       y       z     vdW  Elec       q    Type
                         _______ _______ _______ _____ _____    ______ ____

>  <TORSDO>
F 2

$$$$
=
 OpenBabel11122411313D

 37 44  0  0  1  0  0  0  0  0999 V2000
  180.4560  180.3050  139.4910 C   0  0  0  0  0  2  0  0  0  0  0  0
  180.1270  178.6280  143.7370 C   0  0  1  0  0  0  0  0  0  0  0  0
  183.5650  178.7700  141.3660 C   0  0  0  0  0  0  0  0  0  0  0  0
  179.1850  180.9000  138.8310 C   0  0  2  0  0  3  0  0  0  0  0  0
  183.3500  178.2460  137.4770 C   0  0  0  0  0  2  0  0  0  0  0  0
  182.5930  178.9130  143.5790 C   0  0  0  0  0  0  0  0  0  0  0  0
  183.1250  178.3990  140.0380 N   0  0  0  0  0  0  0  0  0  0  0  0
  180.1590  180.5600  136.4720 C   0  0  0  0  0  0  0  0  0  0  0  0
  182.4980  178.7800  142.2110 C   0  0  0  0  0  0  0  0  0  0  0  0
  183.9440  177.8780  138.8800 C   0  0  2  0  0  3  0  0  0  0  0  0
  183.8540  179.1420  144.1380 C   0  0  0  0  0  3  0  0  0  0  0  0
  178.9310  180.6540  137.3210 C   0  0  0  0  0  2  0  0  0  0  0  0
  181.3050  178.4350  141.5770 N   0  0  0  0  0  0  0  0  0  0  0  0
  179.5260  180.0100  143.5520 C   0  0  0  0  0  1  0  0  0  0  0  0
  186.0930  179.0440  141.0870 C   0  0  0  0  0  2  0  0  0  0  0  0
  184.9810  179.1910  143.2920 C   0  0  0  0  0  3  0  0  0  0  0  0
  180.1890  177.9150  142.3620 C   0  0  0  0  0  2  0  0  0  0  0  0
  181.1220  179.5970  136.8440 N   0  0  0  0  0  0  0  0  0  0  0  0
  182.3650  179.3560  137.6660 C   0  0  1  0  0  3  0  0  0  0  0  0
  184.8560  178.9860  141.9010 C   0  0  0  0  0  0  0  0  0  0  0  0
  181.6570  178.0900  140.2040 C   0  0  1  0  0  3  0  0  0  0  0  0
  181.4290  178.7550  144.3450 O   0  0  0  0  0  0  0  0  0  0  0  0
  185.4280  178.2910  138.8850 C   0  0  1  0  0  3  0  0  0  0  0  0
  179.3060  177.9040  144.5790 F   0  0  0  0  0  0  0  0  0  0  0  0
  181.2860  178.5220  137.8280 C   0  0  1  0  0  3  0  0  0  0  0  0
  180.3360  181.3070  135.4760 O   0  0  0  0  0  0  0  0  0  0  0  0
  180.7130  178.8040  139.2000 C   0  0  2  0  0  3  0  0  0  0  0  0
  186.1470  177.8780  140.1440 C   0  0  0  0  0  2  0  0  0  0  0  0
  186.9020  178.6280  136.8870 C   0  0  0  0  0  3  0  0  0  0  0  0
  186.1840  177.7460  137.7040 C   0  0  0  0  0  0  0  0  0  0  0  0
  186.1860  176.3730  137.4120 C   0  0  0  0  0  3  0  0  0  0  0  0
  186.8960  174.5660  136.0290 F   0  0  0  0  0  0  0  0  0  0  0  0
  187.6110  176.7770  135.4960 C   0  0  0  0  0  3  0  0  0  0  0  0
  186.8980  175.8910  136.3090 C   0  0  0  0  0  0  0  0  0  0  0  0
  187.6130  178.1450  135.7860 C   0  0  0  0  0  3  0  0  0  0  0  0
  180.0350  183.0750  138.3270 O   0  0  0  0  0  1  0  0  0  0  0  0
  179.1100  182.3890  139.1160 C   0  0  0  0  0  2  0  0  0  0  0  0
  2 14  1  6  0  0  0
  2 22  1  0  0  0  0
  2 24  1  0  0  0  0
  3 20  2  0  0  0  0
  3  9  1  0  0  0  0
  4 37  1  6  0  0  0
  4  1  1  0  0  0  0
  6 11  1  0  0  0  0
  6 22  1  0  0  0  0
  7  3  1  0  0  0  0
  8 18  1  0  0  0  0
  8 12  1  0  0  0  0
  9  6  2  0  0  0  0
 10  5  1  6  0  0  0
 10 23  1  0  0  0  0
 10  7  1  0  0  0  0
 12  4  1  0  0  0  0
 13  9  1  0  0  0  0
 13 17  1  0  0  0  0
 15 20  1  0  0  0  0
 16 11  2  0  0  0  0
 17  2  1  0  0  0  0
 18 19  1  0  0  0  0
 19  5  1  6  0  0  0
 19 25  1  0  0  0  0
 20 16  1  0  0  0  0
 21  7  1  6  0  0  0
 21 13  1  0  0  0  0
 23 30  1  6  0  0  0
 23 28  1  0  0  0  0
 25 18  1  6  0  0  0
 25 27  1  0  0  0  0
 26  8  2  0  0  0  0
 27  1  1  1  0  0  0
 27 21  1  0  0  0  0
 28 15  1  0  0  0  0
 29 30  1  0  0  0  0
 31 30  2  0  0  0  0
 32 34  1  0  0  0  0
 33 35  1  0  0  0  0
 33 34  2  0  0  0  0
 34 31  1  0  0  0  0
 35 29  2  0  0  0  0
 36 37  1  0  0  0  0
M  END
>  <MODEL>
6

>  <REMARK>
 VINA RESULT:      -6.9      3.269      7.366
  Name = 
  2 active torsions:
  status: ('A' for Active; 'I' for Inactive)
    1  A    between atoms: C_4  and  C_37
    2  A    between atoms: C_23  and  C_30
                            x       y       z     vdW  Elec       q    Type
                         _______ _______ _______ _____ _____    ______ ____

>  <TORSDO>
F 2

$$$$
=
 OpenBabel11122411313D

 37 44  0  0  1  0  0  0  0  0999 V2000
  185.2100  175.1410  136.8760 C   0  0  0  0  0  2  0  0  0  0  0  0
  188.8030  177.7090  135.6750 C   0  0  1  0  0  0  0  0  0  0  0  0
  186.5990  177.9940  139.2140 C   0  0  0  0  0  0  0  0  0  0  0  0
  184.7350  174.0320  135.9000 C   0  0  2  0  0  3  0  0  0  0  0  0
  182.7190  177.3660  139.2240 C   0  0  0  0  0  2  0  0  0  0  0  0
  188.7540  178.1590  138.1210 C   0  0  0  0  0  0  0  0  0  0  0  0
  185.2160  177.8430  138.8120 N   0  0  0  0  0  0  0  0  0  0  0  0
  182.3850  174.0090  136.9510 C   0  0  0  0  0  0  0  0  0  0  0  0
  187.4030  177.8860  138.1220 C   0  0  0  0  0  0  0  0  0  0  0  0
  183.9650  178.2590  139.5500 C   0  0  2  0  0  3  0  0  0  0  0  0
  189.3650  178.4840  139.3360 C   0  0  0  0  0  3  0  0  0  0  0  0
  183.2150  173.7750  135.7290 C   0  0  0  0  0  2  0  0  0  0  0  0
  186.6880  177.6670  136.9450 N   0  0  0  0  0  0  0  0  0  0  0  0
  189.0130  176.2140  135.5220 C   0  0  0  0  0  1  0  0  0  0  0  0
  186.4300  178.4400  141.7280 C   0  0  0  0  0  2  0  0  0  0  0  0
  188.5780  178.5560  140.5030 C   0  0  0  0  0  3  0  0  0  0  0  0
  187.2830  178.0120  135.6570 C   0  0  0  0  0  2  0  0  0  0  0  0
  182.4770  175.2820  137.5540 N   0  0  0  0  0  0  0  0  0  0  0  0
  183.2070  176.1020  138.5900 C   0  0  1  0  0  3  0  0  0  0  0  0
  187.1830  178.3340  140.4560 C   0  0  0  0  0  0  0  0  0  0  0  0
  185.2750  177.7220  137.3100 C   0  0  1  0  0  3  0  0  0  0  0  0
  189.4330  178.1530  136.8950 O   0  0  0  0  0  0  0  0  0  0  0  0
  184.0990  178.3360  141.0830 C   0  0  1  0  0  3  0  0  0  0  0  0
  189.3980  178.3460  134.6040 F   0  0  0  0  0  0  0  0  0  0  0  0
  183.1170  176.5780  137.3060 C   0  0  1  0  0  3  0  0  0  0  0  0
  181.6430  173.1130  137.4310 O   0  0  0  0  0  0  0  0  0  0  0  0
  184.5080  176.5130  136.7120 C   0  0  2  0  0  3  0  0  0  0  0  0
  185.1960  179.2700  141.5300 C   0  0  0  0  0  2  0  0  0  0  0  0
  182.7590  178.7680  143.1550 C   0  0  0  0  0  3  0  0  0  0  0  0
  182.8200  178.7480  141.7560 C   0  0  0  0  0  0  0  0  0  0  0  0
  181.6890  179.1170  141.0080 C   0  0  0  0  0  3  0  0  0  0  0  0
  179.4240  179.8520  140.9320 F   0  0  0  0  0  0  0  0  0  0  0  0
  180.4560  179.5140  143.0540 C   0  0  0  0  0  3  0  0  0  0  0  0
  180.5110  179.4980  141.6570 C   0  0  0  0  0  0  0  0  0  0  0  0
  181.5800  179.1490  143.8020 C   0  0  0  0  0  3  0  0  0  0  0  0
  186.8140  172.9060  136.2420 O   0  0  0  0  0  1  0  0  0  0  0  0
  185.4310  172.7240  136.2350 C   0  0  0  0  0  2  0  0  0  0  0  0
  2 14  1  6  0  0  0
  2 22  1  0  0  0  0
  3 20  1  0  0  0  0
  4 37  1  1  0  0  0
  4  1  1  0  0  0  0
  6  9  1  0  0  0  0
  6 11  2  0  0  0  0
  7  3  1  0  0  0  0
  7 10  1  0  0  0  0
  8 26  2  0  0  0  0
  8 18  1  0  0  0  0
  9  3  2  0  0  0  0
 10  5  1  1  0  0  0
 10 23  1  0  0  0  0
 11 16  1  0  0  0  0
 12  4  1  0  0  0  0
 12  8  1  0  0  0  0
 13  9  1  0  0  0  0
 17  2  1  0  0  0  0
 17 13  1  0  0  0  0
 18 19  1  0  0  0  0
 19  5  1  1  0  0  0
 20 16  2  0  0  0  0
 20 15  1  0  0  0  0
 21 13  1  1  0  0  0
 21  7  1  0  0  0  0
 22  6  1  0  0  0  0
 23 28  1  0  0  0  0
 23 30  1  1  0  0  0
 24  2  1  0  0  0  0
 25 18  1  6  0  0  0
 25 19  1  0  0  0  0
 27  1  1  1  0  0  0
 27 25  1  0  0  0  0
 27 21  1  0  0  0  0
 28 15  1  0  0  0  0
 29 35  1  0  0  0  0
 30 29  2  0  0  0  0
 31 34  2  0  0  0  0
 31 30  1  0  0  0  0
 32 34  1  0  0  0  0
 33 35  2  0  0  0  0
 34 33  1  0  0  0  0
 37 36  1  0  0  0  0
M  END
>  <MODEL>
7

>  <REMARK>
 VINA RESULT:      -6.8      1.364      1.715
  Name = 
  2 active torsions:
  status: ('A' for Active; 'I' for Inactive)
    1  A    between atoms: C_4  and  C_37
    2  A    between atoms: C_23  and  C_30
                            x       y       z     vdW  Elec       q    Type
                         _______ _______ _______ _____ _____    ______ ____

>  <TORSDO>
F 2

$$$$
=
 OpenBabel11122411313D

 37 44  0  0  1  0  0  0  0  0999 V2000
  189.1760  177.1020  140.4730 C   0  0  0  0  0  2  0  0  0  0  0  0
  186.4000  177.6190  136.8700 C   0  0  1  0  0  0  0  0  0  0  0  0
  189.8840  175.3170  137.0310 C   0  0  0  0  0  0  0  0  0  0  0  0
  188.8170  177.8330  141.7930 C   0  0  2  0  0  3  0  0  0  0  0  0
  192.9860  176.5040  139.1320 C   0  0  0  0  0  2  0  0  0  0  0  0
  187.6360  175.5770  136.1690 C   0  0  0  0  0  0  0  0  0  0  0  0
  190.8370  176.1220  137.7650 N   0  0  0  0  0  0  0  0  0  0  0  0
  191.2570  177.7190  142.6080 C   0  0  0  0  0  0  0  0  0  0  0  0
  188.6980  175.9780  136.9510 C   0  0  0  0  0  0  0  0  0  0  0  0
  192.3440  176.0210  137.7860 C   0  0  2  0  0  3  0  0  0  0  0  0
  187.7410  174.3660  135.4780 C   0  0  0  0  0  3  0  0  0  0  0  0
  189.9530  178.4530  142.6480 C   0  0  0  0  0  2  0  0  0  0  0  0
  188.7290  177.2210  137.5820 N   0  0  0  0  0  0  0  0  0  0  0  0
  185.6960  177.2660  138.1680 C   0  0  0  0  0  1  0  0  0  0  0  0
  191.2490  173.2550  136.3720 C   0  0  0  0  0  2  0  0  0  0  0  0
  188.9350  173.6220  135.5750 C   0  0  0  0  0  3  0  0  0  0  0  0
  187.7750  178.2560  137.1970 C   0  0  0  0  0  2  0  0  0  0  0  0
  191.8300  177.5030  141.3360 N   0  0  0  0  0  0  0  0  0  0  0  0
  191.9100  176.5470  140.1710 C   0  0  1  0  0  3  0  0  0  0  0  0
  190.0280  174.0960  136.3330 C   0  0  0  0  0  0  0  0  0  0  0  0
  190.1020  177.4100  138.0430 C   0  0  1  0  0  3  0  0  0  0  0  0
  186.5290  176.4300  136.0630 O   0  0  0  0  0  0  0  0  0  0  0  0
  192.9160  174.6260  137.4680 C   0  0  1  0  0  3  0  0  0  0  0  0
  185.6290  178.5420  136.1920 F   0  0  0  0  0  0  0  0  0  0  0  0
  191.5780  177.8580  139.9360 C   0  0  1  0  0  3  0  0  0  0  0  0
  191.8170  177.3040  143.6540 O   0  0  0  0  0  0  0  0  0  0  0  0
  190.1230  177.8790  139.5220 C   0  0  2  0  0  3  0  0  0  0  0  0
  192.4660  174.1000  136.1290 C   0  0  0  0  0  2  0  0  0  0  0  0
  195.0560  174.0140  138.6170 C   0  0  0  0  0  3  0  0  0  0  0  0
  194.4180  174.5920  137.5130 C   0  0  0  0  0  0  0  0  0  0  0  0
  195.1900  175.1250  136.4670 C   0  0  0  0  0  3  0  0  0  0  0  0
  197.3260  175.5950  135.5210 F   0  0  0  0  0  0  0  0  0  0  0  0
  197.2170  174.5030  137.6370 C   0  0  0  0  0  3  0  0  0  0  0  0
  196.5860  175.0790  136.5310 C   0  0  0  0  0  0  0  0  0  0  0  0
  196.4520  173.9700  138.6790 C   0  0  0  0  0  3  0  0  0  0  0  0
  188.6100  175.6980  142.8440 O   0  0  0  0  0  1  0  0  0  0  0  0
  187.9690  176.9250  142.6660 C   0  0  0  0  0  2  0  0  0  0  0  0
  1  4  1  0  0  0  0
  2 17  1  0  0  0  0
  2 14  1  1  0  0  0
  3  7  1  0  0  0  0
  4 12  1  0  0  0  0
  4 37  1  1  0  0  0
  6  9  2  0  0  0  0
  7 10  1  0  0  0  0
  7 21  1  0  0  0  0
  8 12  1  0  0  0  0
  8 26  2  0  0  0  0
  9  3  1  0  0  0  0
  9 13  1  0  0  0  0
 10  5  1  1  0  0  0
 11 16  2  0  0  0  0
 11  6  1  0  0  0  0
 16 20  1  0  0  0  0
 17 13  1  0  0  0  0
 18  8  1  0  0  0  0
 19  5  1  6  0  0  0
 19 18  1  0  0  0  0
 20 15  1  0  0  0  0
 20  3  2  0  0  0  0
 21 13  1  1  0  0  0
 21 27  1  0  0  0  0
 22  6  1  0  0  0  0
 22  2  1  0  0  0  0
 23 30  1  6  0  0  0
 23 10  1  0  0  0  0
 24  2  1  0  0  0  0
 25 19  1  0  0  0  0
 25 18  1  1  0  0  0
 27 25  1  0  0  0  0
 27  1  1  1  0  0  0
 28 15  1  0  0  0  0
 28 23  1  0  0  0  0
 29 35  1  0  0  0  0
 30 29  2  0  0  0  0
 31 34  2  0  0  0  0
 31 30  1  0  0  0  0
 32 34  1  0  0  0  0
 33 35  2  0  0  0  0
 34 33  1  0  0  0  0
 37 36  1  0  0  0  0
M  END
>  <MODEL>
8

>  <REMARK>
 VINA RESULT:      -6.7      4.677     10.570
  Name = 
  2 active torsions:
  status: ('A' for Active; 'I' for Inactive)
    1  A    between atoms: C_4  and  C_37
    2  A    between atoms: C_23  and  C_30
                            x       y       z     vdW  Elec       q    Type
                         _______ _______ _______ _____ _____    ______ ____

>  <TORSDO>
F 2

$$$$
=
 OpenBabel11122411313D

 37 44  0  0  1  0  0  0  0  0999 V2000
  189.5060  176.7910  139.2990 C   0  0  0  0  0  2  0  0  0  0  0  0
  190.9690  178.2140  143.3960 C   0  0  1  0  0  0  0  0  0  0  0  0
  187.0030  177.9830  142.1010 C   0  0  0  0  0  0  0  0  0  0  0  0
  190.5600  176.3290  138.2580 C   0  0  2  0  0  3  0  0  0  0  0  0
  186.0560  178.7650  138.3680 C   0  0  0  0  0  2  0  0  0  0  0  0
  188.5800  177.7680  143.9260 C   0  0  0  0  0  0  0  0  0  0  0  0
  187.0210  178.4670  140.7370 N   0  0  0  0  0  0  0  0  0  0  0  0
  188.9280  176.7490  136.3100 C   0  0  0  0  0  0  0  0  0  0  0  0
  188.2670  177.9940  142.6030 C   0  0  0  0  0  0  0  0  0  0  0  0
  185.8770  179.0010  139.9070 C   0  0  2  0  0  3  0  0  0  0  0  0
  187.5480  177.4160  144.8010 C   0  0  0  0  0  3  0  0  0  0  0  0
  190.3530  176.6880  136.7630 C   0  0  0  0  0  2  0  0  0  0  0  0
  189.2080  178.4600  141.6850 N   0  0  0  0  0  0  0  0  0  0  0  0
  191.5580  176.8930  142.9370 C   0  0  0  0  0  1  0  0  0  0  0  0
  184.5180  177.5500  142.5340 C   0  0  0  0  0  2  0  0  0  0  0  0
  186.2280  177.3420  144.3100 C   0  0  0  0  0  3  0  0  0  0  0  0
  190.4770  179.0070  142.1580 C   0  0  0  0  0  2  0  0  0  0  0  0
  188.0690  177.6160  137.0190 N   0  0  0  0  0  0  0  0  0  0  0  0
  187.1070  177.7180  138.1770 C   0  0  1  0  0  3  0  0  0  0  0  0
  185.9340  177.6430  142.9620 C   0  0  0  0  0  0  0  0  0  0  0  0
  188.4560  178.8670  140.5020 C   0  0  1  0  0  3  0  0  0  0  0  0
  189.9060  177.9580  144.3380 O   0  0  0  0  0  0  0  0  0  0  0  0
  184.4790  178.4860  140.3010 C   0  0  1  0  0  3  0  0  0  0  0  0
  191.9620  178.9400  144.0250 F   0  0  0  0  0  0  0  0  0  0  0  0
  188.1440  178.6130  138.0920 C   0  0  1  0  0  3  0  0  0  0  0  0
  188.5070  176.0560  135.3490 O   0  0  0  0  0  0  0  0  0  0  0  0
  189.1030  178.2860  139.2160 C   0  0  2  0  0  3  0  0  0  0  0  0
  184.1370  178.7670  141.7420 C   0  0  0  0  0  2  0  0  0  0  0  0
  182.4810  178.1750  138.8240 C   0  0  0  0  0  3  0  0  0  0  0  0
  183.3890  179.0500  139.4340 C   0  0  0  0  0  0  0  0  0  0  0  0
  183.2620  180.4340  139.2300 C   0  0  0  0  0  3  0  0  0  0  0  0
  182.1210  182.2680  138.2250 F   0  0  0  0  0  0  0  0  0  0  0  0
  181.3360  180.0550  137.8110 C   0  0  0  0  0  3  0  0  0  0  0  0
  182.2380  180.9330  138.4200 C   0  0  0  0  0  0  0  0  0  0  0  0
  181.4580  178.6770  138.0140 C   0  0  0  0  0  3  0  0  0  0  0  0
  191.9480  174.4640  137.7090 O   0  0  0  0  0  1  0  0  0  0  0  0
  190.7860  174.8340  138.3890 C   0  0  0  0  0  2  0  0  0  0  0  0
  2 14  1  6  0  0  0
  2 24  1  0  0  0  0
  2 22  1  0  0  0  0
  3  9  2  0  0  0  0
  3 20  1  0  0  0  0
  4 37  1  6  0  0  0
  4  1  1  0  0  0  0
  6 22  1  0  0  0  0
  6 11  2  0  0  0  0
  7  3  1  0  0  0  0
  8 12  1  0  0  0  0
  8 18  1  0  0  0  0
  9  6  1  0  0  0  0
 10  5  1  6  0  0  0
 10 23  1  0  0  0  0
 10  7  1  0  0  0  0
 12  4  1  0  0  0  0
 13 17  1  0  0  0  0
 13  9  1  0  0  0  0
 15 20  1  0  0  0  0
 16 11  1  0  0  0  0
 17  2  1  0  0  0  0
 18 19  1  0  0  0  0
 19  5  1  6  0  0  0
 20 16  2  0  0  0  0
 21  7  1  1  0  0  0
 21 13  1  0  0  0  0
 23 30  1  6  0  0  0
 23 28  1  0  0  0  0
 25 18  1  6  0  0  0
 25 19  1  0  0  0  0
 25 27  1  0  0  0  0
 26  8  2  0  0  0  0
 27  1  1  1  0  0  0
 27 21  1  0  0  0  0
 28 15  1  0  0  0  0
 29 30  1  0  0  0  0
 31 30  2  0  0  0  0
 32 34  1  0  0  0  0
 33 35  1  0  0  0  0
 33 34  2  0  0  0  0
 34 31  1  0  0  0  0
 35 29  2  0  0  0  0
 36 37  1  0  0  0  0
M  END
>  <MODEL>
9

>  <REMARK>
 VINA RESULT:      -6.3      3.552      5.159
  Name = 
  2 active torsions:
  status: ('A' for Active; 'I' for Inactive)
    1  A    between atoms: C_4  and  C_37
    2  A    between atoms: C_23  and  C_30
                            x       y       z     vdW  Elec       q    Type
                         _______ _______ _______ _____ _____    ______ ____

>  <TORSDO>
F 2

$$$$
