=
 OpenBabel11122412073D

 34 40  0  0  1  0  0  0  0  0999 V2000
  182.2110  178.9830  143.2270 C   0  0  0  0  0  0  0  0  0  0  0  0
  183.3630  178.5870  145.4170 C   0  0  0  0  0  2  0  0  0  0  0  0
  181.8610  176.4730  137.1640 C   0  0  1  0  0  3  0  0  0  0  0  0
  181.3040  178.3160  141.0730 C   0  0  0  0  0  0  0  0  0  0  0  0
  182.9040  177.9160  139.0920 C   0  0  2  0  0  3  0  0  0  0  0  0
  184.1300  177.5420  136.9320 C   0  0  0  0  0  1  0  0  0  0  0  0
  181.1070  175.6350  137.9670 F   0  0  0  0  0  0  0  0  0  0  0  0
  180.9490  178.8930  137.2880 C   0  0  0  0  0  2  0  0  0  0  0  0
  184.7630  179.2940  143.5600 C   0  0  2  0  0  3  0  0  0  0  0  0
  187.6970  177.9860  143.6480 C   0  0  0  0  0  2  0  0  0  0  0  0
  183.9050  177.5800  140.1850 C   0  0  0  0  0  2  0  0  0  0  0  0
  180.5100  178.7610  138.7470 C   0  0  0  0  0  2  0  0  0  0  0  0
  184.8990  178.3520  142.3450 C   0  0  1  0  0  3  0  0  0  0  0  0
  184.7460  178.8090  145.9730 C   0  0  0  0  0  2  0  0  0  0  0  0
  181.4510  177.9150  139.6220 C   0  0  2  0  0  3  0  0  0  0  0  0
  180.9770  177.5620  136.5370 C   0  0  0  0  0  2  0  0  0  0  0  0
  186.5630  177.7070  144.6210 C   0  0  2  0  0  3  0  0  0  0  0  0
  182.4240  178.6080  141.8870 C   0  0  0  0  0  0  0  0  0  0  0  0
  183.1220  176.9580  137.9050 C   0  0  2  0  0  3  0  0  0  0  0  0
  183.8110  178.6170  141.2990 C   0  0  2  0  0  3  0  0  0  0  0  0
  179.8340  178.7000  142.9050 C   0  0  0  0  0  3  0  0  0  0  0  0
  187.2920  177.6130  142.2340 C   0  0  0  0  0  2  0  0  0  0  0  0
  180.0540  178.3500  141.6130 N   0  0  0  0  0  0  0  0  0  0  0  0
  186.2580  178.5820  141.6890 C   0  0  0  0  0  2  0  0  0  0  0  0
  185.6700  178.9530  144.7700 C   0  0  1  0  0  3  0  0  0  0  0  0
  180.9060  179.0330  143.7280 C   0  0  0  0  0  3  0  0  0  0  0  0
  183.3440  179.3840  144.1330 C   0  0  1  0  0  3  0  0  0  0  0  0
  187.1180  177.3550  145.8560 O   0  0  0  0  0  0  0  0  0  0  0  0
  188.4110  177.8830  145.8280 C   0  0  0  0  0  2  0  0  0  0  0  0
  191.7800  176.5600  146.0760 C   0  0  0  0  0  2  0  0  0  0  0  0
  190.0170  177.2470  147.5490 N   0  0  0  0  0  2  0  0  0  0  0  0
  189.4050  176.8360  146.2950 C   0  0  2  0  0  3  0  0  0  0  0  0
  191.3570  176.6820  147.5250 C   0  0  0  0  0  2  0  0  0  0  0  0
  190.5090  176.6850  145.2730 C   0  0  0  0  0  2  0  0  0  0  0  0
  1 26  1  0  0  0  0
  1 27  1  0  0  0  0
  2 14  1  0  0  0  0
  3 19  1  0  0  0  0
  3  7  1  1  0  0  0
  4 23  2  0  0  0  0
  4 18  1  0  0  0  0
  5 15  1  0  0  0  0
  5 11  1  1  0  0  0
  6 19  1  0  0  0  0
  8 12  1  0  0  0  0
  9 27  1  0  0  0  0
  9 25  1  0  0  0  0
 10 17  1  0  0  0  0
 11 20  1  0  0  0  0
 12 15  1  0  0  0  0
 13  9  1  0  0  0  0
 15  4  1  0  0  0  0
 16  3  1  0  0  0  0
 16  8  1  0  0  0  0
 17 25  1  0  0  0  0
 17 28  1  0  0  0  0
 18  1  2  0  0  0  0
 19  5  1  0  0  0  0
 20 18  1  0  0  0  0
 20 13  1  0  0  0  0
 21 26  2  0  0  0  0
 22 10  1  0  0  0  0
 23 21  1  0  0  0  0
 24 22  1  0  0  0  0
 24 13  1  0  0  0  0
 25 14  1  0  0  0  0
 27  2  1  0  0  0  0
 29 28  1  0  0  0  0
 29 32  1  0  0  0  0
 30 33  1  0  0  0  0
 32 31  1  0  0  0  0
 33 31  1  0  0  0  0
 34 30  1  0  0  0  0
 34 32  1  0  0  0  0
M  END
>  <MODEL>
1

>  <REMARK>
 VINA RESULT:      -9.8      0.000      0.000
  Name = 
  3 active torsions:
  status: ('A' for Active; 'I' for Inactive)
    1  A    between atoms: C_17  and  O_28
    2  A    between atoms: O_28  and  C_29
    3  A    between atoms: C_29  and  C_32
                            x       y       z     vdW  Elec       q    Type
                         _______ _______ _______ _____ _____    ______ ____

>  <TORSDO>
F 3

$$$$
=
 OpenBabel11122412073D

 34 40  0  0  1  0  0  0  0  0999 V2000
  186.6560  178.2580  139.1590 C   0  0  0  0  0  0  0  0  0  0  0  0
  184.2920  178.0920  138.3440 C   0  0  0  0  0  2  0  0  0  0  0  0
  190.4770  176.1520  144.0740 C   0  0  1  0  0  3  0  0  0  0  0  0
  188.6210  177.4860  140.3630 C   0  0  0  0  0  0  0  0  0  0  0  0
  188.7080  177.7180  142.9290 C   0  0  2  0  0  3  0  0  0  0  0  0
  189.1910  177.8730  145.3890 C   0  0  0  0  0  1  0  0  0  0  0  0
  190.3310  175.0750  143.2170 F   0  0  0  0  0  0  0  0  0  0  0  0
  191.5050  178.1670  142.8140 C   0  0  0  0  0  2  0  0  0  0  0  0
  184.6490  179.3090  140.4190 C   0  0  2  0  0  3  0  0  0  0  0  0
  182.2260  178.9520  142.5000 C   0  0  0  0  0  2  0  0  0  0  0  0
  187.1950  177.6330  142.8210 C   0  0  0  0  0  2  0  0  0  0  0  0
  190.8260  177.8160  141.4890 C   0  0  0  0  0  2  0  0  0  0  0  0
  185.1840  178.5320  141.6400 C   0  0  1  0  0  3  0  0  0  0  0  0
  182.9640  178.6890  138.7340 C   0  0  0  0  0  2  0  0  0  0  0  0
  189.4050  177.2420  141.6330 C   0  0  2  0  0  3  0  0  0  0  0  0
  191.7350  176.9580  143.7200 C   0  0  0  0  0  2  0  0  0  0  0  0
  182.3450  178.2790  141.1410 C   0  0  2  0  0  3  0  0  0  0  0  0
  187.3240  178.0510  140.3800 C   0  0  0  0  0  0  0  0  0  0  0  0
  189.1630  176.9490  144.1850 C   0  0  2  0  0  3  0  0  0  0  0  0
  186.7150  178.5200  141.6770 C   0  0  2  0  0  3  0  0  0  0  0  0
  188.5340  177.2870  137.9930 C   0  0  0  0  0  3  0  0  0  0  0  0
  183.3900  178.5640  143.3930 C   0  0  0  0  0  2  0  0  0  0  0  0
  189.1710  177.1030  139.1770 N   0  0  0  0  0  0  0  0  0  0  0  0
  184.6810  179.2050  142.9140 C   0  0  0  0  0  2  0  0  0  0  0  0
  183.1240  179.1830  140.1670 C   0  0  1  0  0  3  0  0  0  0  0  0
  187.2750  177.8770  137.9640 C   0  0  0  0  0  3  0  0  0  0  0  0
  185.3090  178.9260  139.0890 C   0  0  1  0  0  3  0  0  0  0  0  0
  181.0570  178.0360  140.6550 O   0  0  0  0  0  0  0  0  0  0  0  0
  180.2500  178.9790  141.2960 C   0  0  0  0  0  2  0  0  0  0  0  0
  179.8280  181.2480  138.4970 C   0  0  0  0  0  2  0  0  0  0  0  0
  179.3680  178.9550  139.0230 N   0  0  0  0  0  2  0  0  0  0  0  0
  179.3860  179.6960  140.2750 C   0  0  2  0  0  3  0  0  0  0  0  0
  179.2190  179.9610  137.9830 C   0  0  0  0  0  2  0  0  0  0  0  0
  179.9600  181.0650  139.9880 C   0  0  0  0  0  2  0  0  0  0  0  0
  1 18  1  0  0  0  0
  2 14  1  0  0  0  0
  2 27  1  0  0  0  0
  3  7  1  6  0  0  0
  3 19  1  0  0  0  0
  4 18  2  0  0  0  0
  4 15  1  0  0  0  0
  5 11  1  6  0  0  0
  5 19  1  0  0  0  0
  8 16  1  0  0  0  0
  9 13  1  0  0  0  0
 10 22  1  0  0  0  0
 12 15  1  0  0  0  0
 12  8  1  0  0  0  0
 13 20  1  0  0  0  0
 13 24  1  0  0  0  0
 14 25  1  0  0  0  0
 15  5  1  0  0  0  0
 16  3  1  0  0  0  0
 17 10  1  0  0  0  0
 18 20  1  0  0  0  0
 19  6  1  0  0  0  0
 20 11  1  0  0  0  0
 21 23  2  0  0  0  0
 23  4  1  0  0  0  0
 24 22  1  0  0  0  0
 25  9  1  0  0  0  0
 25 17  1  0  0  0  0
 26 21  1  0  0  0  0
 26  1  2  0  0  0  0
 27  1  1  0  0  0  0
 27  9  1  0  0  0  0
 28 17  1  0  0  0  0
 28 29  1  0  0  0  0
 30 34  1  0  0  0  0
 31 32  1  0  0  0  0
 32 29  1  0  0  0  0
 33 30  1  0  0  0  0
 33 31  1  0  0  0  0
 34 32  1  0  0  0  0
M  END
>  <MODEL>
2

>  <REMARK>
 VINA RESULT:      -9.2      3.341      8.971
  Name = 
  3 active torsions:
  status: ('A' for Active; 'I' for Inactive)
    1  A    between atoms: C_17  and  O_28
    2  A    between atoms: O_28  and  C_29
    3  A    between atoms: C_29  and  C_32
                            x       y       z     vdW  Elec       q    Type
                         _______ _______ _______ _____ _____    ______ ____

>  <TORSDO>
F 3

$$$$
=
 OpenBabel11122412073D

 34 40  0  0  1  0  0  0  0  0999 V2000
  184.1610  178.3950  144.1100 C   0  0  0  0  0  0  0  0  0  0  0  0
  182.0740  179.4790  143.2480 C   0  0  0  0  0  2  0  0  0  0  0  0
  190.6720  178.5250  143.2260 C   0  0  1  0  0  3  0  0  0  0  0  0
  186.5410  178.2900  144.5940 C   0  0  0  0  0  0  0  0  0  0  0  0
  188.2040  177.8170  142.6820 C   0  0  2  0  0  3  0  0  0  0  0  0
  190.0920  177.2810  141.1140 C   0  0  0  0  0  1  0  0  0  0  0  0
  190.3660  179.6530  143.9680 F   0  0  0  0  0  0  0  0  0  0  0  0
  189.8840  176.3940  144.4680 C   0  0  0  0  0  2  0  0  0  0  0  0
  183.2740  178.0380  141.7010 C   0  0  2  0  0  3  0  0  0  0  0  0
  183.1050  179.0670  138.6610 C   0  0  0  0  0  2  0  0  0  0  0  0
  187.1310  178.4550  141.8150 C   0  0  0  0  0  2  0  0  0  0  0  0
  188.6700  177.0830  145.0920 C   0  0  0  0  0  2  0  0  0  0  0  0
  184.6930  178.4570  141.2620 C   0  0  1  0  0  3  0  0  0  0  0  0
  181.2280  179.3740  142.0040 C   0  0  0  0  0  2  0  0  0  0  0  0
  187.9860  178.1190  144.1830 C   0  0  2  0  0  3  0  0  0  0  0  0
  191.0320  177.3510  144.1490 C   0  0  0  0  0  2  0  0  0  0  0  0
  182.5180  179.7670  139.8760 C   0  0  2  0  0  3  0  0  0  0  0  0
  185.4840  178.2350  143.6550 C   0  0  0  0  0  0  0  0  0  0  0  0
  189.5880  178.2540  142.1650 C   0  0  2  0  0  3  0  0  0  0  0  0
  185.7630  177.9080  142.2110 C   0  0  2  0  0  3  0  0  0  0  0  0
  184.9960  178.7150  146.3540 C   0  0  0  0  0  3  0  0  0  0  0  0
  184.6100  178.9240  138.8000 C   0  0  0  0  0  2  0  0  0  0  0  0
  186.2650  178.5490  145.9020 N   0  0  0  0  0  0  0  0  0  0  0  0
  184.9640  177.9030  139.8660 C   0  0  0  0  0  2  0  0  0  0  0  0
  182.1130  178.7320  140.9420 C   0  0  1  0  0  3  0  0  0  0  0  0
  183.9250  178.6280  145.4690 C   0  0  0  0  0  3  0  0  0  0  0  0
  182.9790  178.2710  143.1870 C   0  0  1  0  0  3  0  0  0  0  0  0
  181.4040  180.5040  139.4640 O   0  0  0  0  0  0  0  0  0  0  0  0
  181.9280  181.5400  138.6880 C   0  0  0  0  0  2  0  0  0  0  0  0
  180.8100  183.7410  136.0300 C   0  0  0  0  0  2  0  0  0  0  0  0
  180.8050  181.3970  136.5290 N   0  0  0  0  0  2  0  0  0  0  0  0
  180.8440  182.1130  137.7950 C   0  0  2  0  0  3  0  0  0  0  0  0
  180.3690  182.3760  135.5470 C   0  0  0  0  0  2  0  0  0  0  0  0
  181.1430  183.5630  137.4910 C   0  0  0  0  0  2  0  0  0  0  0  0
  1 26  1  0  0  0  0
  3  7  1  1  0  0  0
  3 16  1  0  0  0  0
  4 23  2  0  0  0  0
  5 11  1  6  0  0  0
  5 15  1  0  0  0  0
  6 19  1  0  0  0  0
  8 12  1  0  0  0  0
  9 27  1  0  0  0  0
 10 22  1  0  0  0  0
 10 17  1  0  0  0  0
 11 20  1  0  0  0  0
 13  9  1  0  0  0  0
 13 20  1  0  0  0  0
 14  2  1  0  0  0  0
 15  4  1  0  0  0  0
 15 12  1  0  0  0  0
 16  8  1  0  0  0  0
 17 25  1  0  0  0  0
 18  1  2  0  0  0  0
 18  4  1  0  0  0  0
 19  5  1  0  0  0  0
 19  3  1  0  0  0  0
 20 18  1  0  0  0  0
 22 24  1  0  0  0  0
 23 21  1  0  0  0  0
 24 13  1  0  0  0  0
 25  9  1  0  0  0  0
 25 14  1  0  0  0  0
 26 21  2  0  0  0  0
 27  2  1  0  0  0  0
 27  1  1  0  0  0  0
 28 17  1  0  0  0  0
 29 28  1  0  0  0  0
 30 34  1  0  0  0  0
 31 32  1  0  0  0  0
 32 29  1  0  0  0  0
 33 30  1  0  0  0  0
 33 31  1  0  0  0  0
 34 32  1  0  0  0  0
M  END
>  <MODEL>
3

>  <REMARK>
 VINA RESULT:      -9.0      3.470      8.759
  Name = 
  3 active torsions:
  status: ('A' for Active; 'I' for Inactive)
    1  A    between atoms: C_17  and  O_28
    2  A    between atoms: O_28  and  C_29
    3  A    between atoms: C_29  and  C_32
                            x       y       z     vdW  Elec       q    Type
                         _______ _______ _______ _____ _____    ______ ____

>  <TORSDO>
F 3

$$$$
=
 OpenBabel11122412073D

 34 40  0  0  1  0  0  0  0  0999 V2000
  187.7740  178.1190  139.2640 C   0  0  0  0  0  0  0  0  0  0  0  0
  185.7140  177.6840  137.9050 C   0  0  0  0  0  2  0  0  0  0  0  0
  190.4240  176.5780  145.0760 C   0  0  1  0  0  3  0  0  0  0  0  0
  189.4380  177.5940  140.9540 C   0  0  0  0  0  0  0  0  0  0  0  0
  188.8610  177.9150  143.4470 C   0  0  2  0  0  3  0  0  0  0  0  0
  188.6970  178.1980  145.9370 C   0  0  0  0  0  1  0  0  0  0  0  0
  190.5970  175.4650  144.2720 F   0  0  0  0  0  0  0  0  0  0  0  0
  191.5440  178.6480  143.9950 C   0  0  0  0  0  2  0  0  0  0  0  0
  185.4270  178.9960  139.9310 C   0  0  2  0  0  3  0  0  0  0  0  0
  182.6050  178.4570  141.3710 C   0  0  0  0  0  2  0  0  0  0  0  0
  187.4370  177.6710  142.9750 C   0  0  0  0  0  2  0  0  0  0  0  0
  191.2520  178.1860  142.5670 C   0  0  0  0  0  2  0  0  0  0  0  0
  185.7100  178.3180  141.2890 C   0  0  1  0  0  3  0  0  0  0  0  0
  184.2810  178.1520  137.9230 C   0  0  0  0  0  2  0  0  0  0  0  0
  189.9000  177.4730  142.3900 C   0  0  2  0  0  3  0  0  0  0  0  0
  191.6510  177.4990  144.9970 C   0  0  0  0  0  2  0  0  0  0  0  0
  183.1220  177.7580  140.1240 C   0  0  2  0  0  3  0  0  0  0  0  0
  188.1320  178.0220  140.6220 C   0  0  0  0  0  0  0  0  0  0  0  0
  189.0560  177.2380  144.8170 C   0  0  2  0  0  3  0  0  0  0  0  0
  187.1770  178.4660  141.7000 C   0  0  2  0  0  3  0  0  0  0  0  0
  189.9650  177.3110  138.6510 C   0  0  0  0  0  3  0  0  0  0  0  0
  183.5400  178.2210  142.5430 C   0  0  0  0  0  2  0  0  0  0  0  0
  190.3000  177.2320  139.9630 N   0  0  0  0  0  0  0  0  0  0  0  0
  184.8450  178.9760  142.3600 C   0  0  0  0  0  2  0  0  0  0  0  0
  184.0320  178.7050  139.3210 C   0  0  1  0  0  3  0  0  0  0  0  0
  188.7030  177.7670  138.2810 C   0  0  0  0  0  3  0  0  0  0  0  0
  186.4310  178.6410  138.8280 C   0  0  1  0  0  3  0  0  0  0  0  0
  182.0230  177.3660  139.3520 O   0  0  0  0  0  0  0  0  0  0  0  0
  181.8620  176.0060  139.6240 C   0  0  0  0  0  2  0  0  0  0  0  0
  182.1480  175.7860  136.0140 C   0  0  0  0  0  2  0  0  0  0  0  0
  183.1610  174.8000  137.9500 N   0  0  0  0  0  2  0  0  0  0  0  0
  181.8210  175.2220  138.3250 C   0  0  2  0  0  3  0  0  0  0  0  0
  183.1620  174.7700  136.4960 C   0  0  0  0  0  2  0  0  0  0  0  0
  181.2890  176.0990  137.2140 C   0  0  0  0  0  2  0  0  0  0  0  0
  1 18  1  0  0  0  0
  2 14  1  0  0  0  0
  2 27  1  0  0  0  0
  3  7  1  6  0  0  0
  4 15  1  0  0  0  0
  5 11  1  6  0  0  0
  5 19  1  0  0  0  0
  8 16  1  0  0  0  0
  9 13  1  0  0  0  0
 10 22  1  0  0  0  0
 12  8  1  0  0  0  0
 13 20  1  0  0  0  0
 13 24  1  0  0  0  0
 14 25  1  0  0  0  0
 15 12  1  0  0  0  0
 15  5  1  0  0  0  0
 16  3  1  0  0  0  0
 17 10  1  0  0  0  0
 18  4  2  0  0  0  0
 18 20  1  0  0  0  0
 19  3  1  0  0  0  0
 19  6  1  0  0  0  0
 20 11  1  0  0  0  0
 21 23  2  0  0  0  0
 23  4  1  0  0  0  0
 24 22  1  0  0  0  0
 25  9  1  0  0  0  0
 25 17  1  0  0  0  0
 26 21  1  0  0  0  0
 26  1  2  0  0  0  0
 27  1  1  0  0  0  0
 27  9  1  0  0  0  0
 28 29  1  0  0  0  0
 28 17  1  0  0  0  0
 30 33  1  0  0  0  0
 30 34  1  0  0  0  0
 31 32  1  0  0  0  0
 32 29  1  0  0  0  0
 33 31  1  0  0  0  0
 34 32  1  0  0  0  0
M  END
>  <MODEL>
4

>  <REMARK>
 VINA RESULT:      -8.9      3.491      9.101
  Name = 
  3 active torsions:
  status: ('A' for Active; 'I' for Inactive)
    1  A    between atoms: C_17  and  O_28
    2  A    between atoms: O_28  and  C_29
    3  A    between atoms: C_29  and  C_32
                            x       y       z     vdW  Elec       q    Type
                         _______ _______ _______ _____ _____    ______ ____

>  <TORSDO>
F 3

$$$$
=
 OpenBabel11122412073D

 34 40  0  0  1  0  0  0  0  0999 V2000
  187.5570  178.0970  139.4830 C   0  0  0  0  0  0  0  0  0  0  0  0
  185.4350  177.6660  138.2230 C   0  0  0  0  0  2  0  0  0  0  0  0
  190.4500  176.5980  145.1900 C   0  0  1  0  0  3  0  0  0  0  0  0
  189.2910  177.5750  141.1040 C   0  0  0  0  0  0  0  0  0  0  0  0
  188.8280  177.9310  143.6150 C   0  0  2  0  0  3  0  0  0  0  0  0
  188.7790  178.2430  146.1070 C   0  0  0  0  0  1  0  0  0  0  0  0
  190.5770  175.4730  144.3920 F   0  0  0  0  0  0  0  0  0  0  0  0
  191.5400  178.6430  144.0350 C   0  0  0  0  0  2  0  0  0  0  0  0
  185.2510  179.0050  140.2440 C   0  0  2  0  0  3  0  0  0  0  0  0
  182.4920  178.5090  141.8150 C   0  0  0  0  0  2  0  0  0  0  0  0
  187.3830  177.6950  143.2110 C   0  0  0  0  0  2  0  0  0  0  0  0
  191.1800  178.1680  142.6270 C   0  0  0  0  0  2  0  0  0  0  0  0
  185.5880  178.3400  141.5950 C   0  0  1  0  0  3  0  0  0  0  0  0
  184.0090  178.1490  138.2990 C   0  0  0  0  0  2  0  0  0  0  0  0
  189.8150  177.4660  142.5190 C   0  0  2  0  0  3  0  0  0  0  0  0
  191.6810  177.5050  145.0450 C   0  0  0  0  0  2  0  0  0  0  0  0
  182.9450  177.7910  140.5540 C   0  0  2  0  0  3  0  0  0  0  0  0
  187.9750  178.0120  140.8250 C   0  0  0  0  0  0  0  0  0  0  0  0
  189.0780  177.2670  144.9840 C   0  0  2  0  0  3  0  0  0  0  0  0
  187.0740  178.4780  141.9390 C   0  0  2  0  0  3  0  0  0  0  0  0
  189.7120  177.2610  138.7830 C   0  0  0  0  0  3  0  0  0  0  0  0
  183.4760  178.2770  142.9460 C   0  0  0  0  0  2  0  0  0  0  0  0
  190.1040  177.1940  140.0800 N   0  0  0  0  0  0  0  0  0  0  0  0
  184.7780  179.0180  142.6970 C   0  0  0  0  0  2  0  0  0  0  0  0
  183.8270  178.7200  139.7000 C   0  0  1  0  0  3  0  0  0  0  0  0
  188.4390  177.7250  138.4640 C   0  0  0  0  0  3  0  0  0  0  0  0
  186.2020  178.6270  139.1010 C   0  0  1  0  0  3  0  0  0  0  0  0
  181.8100  177.4010  139.8360 O   0  0  0  0  0  0  0  0  0  0  0  0
  180.7320  177.8400  140.6080 C   0  0  0  0  0  2  0  0  0  0  0  0
  179.1820  174.8940  139.1660 C   0  0  0  0  0  2  0  0  0  0  0  0
  179.5680  175.8270  141.3410 N   0  0  0  0  0  2  0  0  0  0  0  0
  179.5390  176.9280  140.3910 C   0  0  2  0  0  3  0  0  0  0  0  0
  178.9460  174.7080  140.6500 C   0  0  0  0  0  2  0  0  0  0  0  0
  179.5920  176.3360  139.0010 C   0  0  0  0  0  2  0  0  0  0  0  0
  1 18  1  0  0  0  0
  2 14  1  0  0  0  0
  2 27  1  0  0  0  0
  3  7  1  6  0  0  0
  4 15  1  0  0  0  0
  5 11  1  6  0  0  0
  5 19  1  0  0  0  0
  8 16  1  0  0  0  0
  9 13  1  0  0  0  0
 10 22  1  0  0  0  0
 12  8  1  0  0  0  0
 13 20  1  0  0  0  0
 13 24  1  0  0  0  0
 14 25  1  0  0  0  0
 15 12  1  0  0  0  0
 15  5  1  0  0  0  0
 16  3  1  0  0  0  0
 17 10  1  0  0  0  0
 18  4  2  0  0  0  0
 18 20  1  0  0  0  0
 19  3  1  0  0  0  0
 19  6  1  0  0  0  0
 20 11  1  0  0  0  0
 21 23  2  0  0  0  0
 23  4  1  0  0  0  0
 24 22  1  0  0  0  0
 25  9  1  0  0  0  0
 25 17  1  0  0  0  0
 26 21  1  0  0  0  0
 26  1  2  0  0  0  0
 27  1  1  0  0  0  0
 27  9  1  0  0  0  0
 28 17  1  0  0  0  0
 28 29  1  0  0  0  0
 30 33  1  0  0  0  0
 32 29  1  0  0  0  0
 32 31  1  0  0  0  0
 33 31  1  0  0  0  0
 34 30  1  0  0  0  0
 34 32  1  0  0  0  0
M  END
>  <MODEL>
5

>  <REMARK>
 VINA RESULT:      -8.8      3.427      9.117
  Name = 
  3 active torsions:
  status: ('A' for Active; 'I' for Inactive)
    1  A    between atoms: C_17  and  O_28
    2  A    between atoms: O_28  and  C_29
    3  A    between atoms: C_29  and  C_32
                            x       y       z     vdW  Elec       q    Type
                         _______ _______ _______ _____ _____    ______ ____

>  <TORSDO>
F 3

$$$$
=
 OpenBabel11122412073D

 34 40  0  0  1  0  0  0  0  0999 V2000
  188.6480  177.9420  137.7480 C   0  0  0  0  0  0  0  0  0  0  0  0
  186.8500  178.2520  139.4660 C   0  0  0  0  0  2  0  0  0  0  0  0
  193.2350  173.5950  135.9480 C   0  0  1  0  0  3  0  0  0  0  0  0
  190.1370  176.6330  136.3420 C   0  0  0  0  0  0  0  0  0  0  0  0
  192.2390  175.5580  137.3760 C   0  0  2  0  0  3  0  0  0  0  0  0
  194.4100  174.4600  138.0010 C   0  0  0  0  0  1  0  0  0  0  0  0
  192.0310  173.0890  135.4900 F   0  0  0  0  0  0  0  0  0  0  0  0
  193.6560  175.9480  134.9520 C   0  0  0  0  0  2  0  0  0  0  0  0
  189.1440  178.2690  140.2720 C   0  0  2  0  0  3  0  0  0  0  0  0
  189.4420  176.9750  143.1980 C   0  0  0  0  0  2  0  0  0  0  0  0
  191.4130  175.5700  138.6520 C   0  0  0  0  0  2  0  0  0  0  0  0
  192.1720  176.3150  134.9290 C   0  0  0  0  0  2  0  0  0  0  0  0
  189.9770  176.9770  140.1360 C   0  0  1  0  0  3  0  0  0  0  0  0
  186.7950  178.6030  140.9310 C   0  0  0  0  0  2  0  0  0  0  0  0
  191.3620  175.7750  136.1210 C   0  0  2  0  0  3  0  0  0  0  0  0
  193.9140  174.4440  134.8620 C   0  0  0  0  0  2  0  0  0  0  0  0
  188.1600  177.0650  142.3850 C   0  0  2  0  0  3  0  0  0  0  0  0
  189.7990  177.1420  137.6180 C   0  0  0  0  0  0  0  0  0  0  0  0
  193.0650  174.2580  137.3280 C   0  0  2  0  0  3  0  0  0  0  0  0
  190.7140  176.9170  138.7950 C   0  0  2  0  0  3  0  0  0  0  0  0
  188.2000  177.6400  135.3950 C   0  0  0  0  0  3  0  0  0  0  0  0
  190.4920  176.1720  142.4540 C   0  0  0  0  0  2  0  0  0  0  0  0
  189.3170  176.8790  135.2820 N   0  0  0  0  0  0  0  0  0  0  0  0
  191.0160  176.9390  141.2530 C   0  0  0  0  0  2  0  0  0  0  0  0
  188.1840  178.3170  141.4890 C   0  0  1  0  0  3  0  0  0  0  0  0
  187.8550  178.1930  136.6240 C   0  0  0  0  0  3  0  0  0  0  0  0
  188.2650  178.5840  139.0540 C   0  0  1  0  0  3  0  0  0  0  0  0
  187.0790  177.1210  143.2710 O   0  0  0  0  0  0  0  0  0  0  0  0
  187.6560  177.3570  144.5220 C   0  0  0  0  0  2  0  0  0  0  0  0
  184.4420  178.6910  145.5460 C   0  0  0  0  0  2  0  0  0  0  0  0
  186.3960  177.7540  146.5710 N   0  0  0  0  0  2  0  0  0  0  0  0
  186.8050  178.3400  145.3040 C   0  0  2  0  0  3  0  0  0  0  0  0
  185.0980  178.3420  146.8650 C   0  0  0  0  0  2  0  0  0  0  0  0
  185.5510  178.6660  144.5240 C   0  0  0  0  0  2  0  0  0  0  0  0
  1 27  1  0  0  0  0
  2 14  1  0  0  0  0
  3  7  1  6  0  0  0
  3 19  1  0  0  0  0
  4 18  2  0  0  0  0
  5 11  1  1  0  0  0
  9 25  1  0  0  0  0
 11 20  1  0  0  0  0
 12  8  1  0  0  0  0
 12 15  1  0  0  0  0
 13  9  1  0  0  0  0
 13 24  1  0  0  0  0
 14 25  1  0  0  0  0
 15  4  1  0  0  0  0
 15  5  1  0  0  0  0
 16  8  1  0  0  0  0
 16  3  1  0  0  0  0
 17 10  1  0  0  0  0
 17 28  1  0  0  0  0
 18  1  1  0  0  0  0
 18 20  1  0  0  0  0
 19  5  1  0  0  0  0
 19  6  1  0  0  0  0
 20 13  1  0  0  0  0
 21 26  1  0  0  0  0
 22 10  1  0  0  0  0
 23 21  2  0  0  0  0
 23  4  1  0  0  0  0
 24 22  1  0  0  0  0
 25 17  1  0  0  0  0
 26  1  2  0  0  0  0
 27  2  1  0  0  0  0
 27  9  1  0  0  0  0
 28 29  1  0  0  0  0
 29 32  1  0  0  0  0
 30 33  1  0  0  0  0
 31 33  1  0  0  0  0
 32 31  1  0  0  0  0
 34 32  1  0  0  0  0
 34 30  1  0  0  0  0
M  END
>  <MODEL>
6

>  <REMARK>
 VINA RESULT:      -8.7      5.805      8.340
  Name = 
  3 active torsions:
  status: ('A' for Active; 'I' for Inactive)
    1  A    between atoms: C_17  and  O_28
    2  A    between atoms: O_28  and  C_29
    3  A    between atoms: C_29  and  C_32
                            x       y       z     vdW  Elec       q    Type
                         _______ _______ _______ _____ _____    ______ ____

>  <TORSDO>
F 3

$$$$
=
 OpenBabel11122412073D

 34 40  0  0  1  0  0  0  0  0999 V2000
  189.9660  177.3750  141.8880 C   0  0  0  0  0  0  0  0  0  0  0  0
  189.4980  176.8250  139.4890 C   0  0  0  0  0  2  0  0  0  0  0  0
  187.1370  177.0220  147.8090 C   0  0  1  0  0  3  0  0  0  0  0  0
  189.7070  177.1130  144.2900 C   0  0  0  0  0  0  0  0  0  0  0  0
  187.6150  178.0730  145.4520 C   0  0  2  0  0  3  0  0  0  0  0  0
  185.7840  178.9550  146.9280 C   0  0  0  0  0  1  0  0  0  0  0  0
  187.5600  175.7380  147.5120 F   0  0  0  0  0  0  0  0  0  0  0  0
  189.1430  178.6590  147.7660 C   0  0  0  0  0  2  0  0  0  0  0  0
  188.1700  178.6040  140.4790 C   0  0  2  0  0  3  0  0  0  0  0  0
  185.1660  178.6920  139.3400 C   0  0  0  0  0  2  0  0  0  0  0  0
  186.9680  177.8590  144.0940 C   0  0  0  0  0  2  0  0  0  0  0  0
  189.8700  177.8990  146.6560 C   0  0  0  0  0  2  0  0  0  0  0  0
  187.2130  178.2460  141.6370 C   0  0  1  0  0  3  0  0  0  0  0  0
  188.6660  177.4170  138.3800 C   0  0  0  0  0  2  0  0  0  0  0  0
  188.9450  177.2950  145.5840 C   0  0  2  0  0  3  0  0  0  0  0  0
  188.2150  177.7770  148.6010 C   0  0  0  0  0  2  0  0  0  0  0  0
  186.2310  177.6700  138.9770 C   0  0  2  0  0  3  0  0  0  0  0  0
  189.1990  177.5720  143.0520 C   0  0  0  0  0  0  0  0  0  0  0  0
  186.5920  177.7270  146.5520 C   0  0  2  0  0  3  0  0  0  0  0  0
  187.9080  178.3480  142.9980 C   0  0  2  0  0  3  0  0  0  0  0  0
  191.6390  176.2410  143.2100 C   0  0  0  0  0  3  0  0  0  0  0  0
  184.8750  178.6550  140.8290 C   0  0  0  0  0  2  0  0  0  0  0  0
  190.8940  176.4460  144.3250 N   0  0  0  0  0  0  0  0  0  0  0  0
  186.0380  179.2190  141.6260 C   0  0  0  0  0  2  0  0  0  0  0  0
  187.6310  178.3090  139.0560 C   0  0  1  0  0  3  0  0  0  0  0  0
  191.1940  176.7130  141.9790 C   0  0  0  0  0  3  0  0  0  0  0  0
  189.5320  177.9030  140.5470 C   0  0  1  0  0  3  0  0  0  0  0  0
  185.9780  177.2110  137.6800 O   0  0  0  0  0  0  0  0  0  0  0  0
  184.7430  176.5640  137.7660 C   0  0  0  0  0  2  0  0  0  0  0  0
  186.2540  173.2970  137.3130 C   0  0  0  0  0  2  0  0  0  0  0  0
  184.1070  174.2120  137.8610 N   0  0  0  0  0  2  0  0  0  0  0  0
  184.8230  175.2110  137.0830 C   0  0  2  0  0  3  0  0  0  0  0  0
  184.8090  172.9620  137.6190 C   0  0  0  0  0  2  0  0  0  0  0  0
  186.2650  174.7690  136.9860 C   0  0  0  0  0  2  0  0  0  0  0  0
  1 26  2  0  0  0  0
  1 18  1  0  0  0  0
  2 27  1  0  0  0  0
  3  7  1  6  0  0  0
  3 16  1  0  0  0  0
  4 23  1  0  0  0  0
  4 15  1  0  0  0  0
  5 11  1  6  0  0  0
  5 15  1  0  0  0  0
  5 19  1  0  0  0  0
  8 16  1  0  0  0  0
  9 27  1  0  0  0  0
  9 13  1  0  0  0  0
 10 22  1  0  0  0  0
 12  8  1  0  0  0  0
 13 20  1  0  0  0  0
 14 25  1  0  0  0  0
 14  2  1  0  0  0  0
 15 12  1  0  0  0  0
 17 25  1  0  0  0  0
 17 10  1  0  0  0  0
 18  4  2  0  0  0  0
 19  6  1  0  0  0  0
 19  3  1  0  0  0  0
 20 18  1  0  0  0  0
 20 11  1  0  0  0  0
 21 23  2  0  0  0  0
 22 24  1  0  0  0  0
 24 13  1  0  0  0  0
 25  9  1  0  0  0  0
 26 21  1  0  0  0  0
 27  1  1  0  0  0  0
 28 29  1  0  0  0  0
 28 17  1  0  0  0  0
 30 33  1  0  0  0  0
 32 29  1  0  0  0  0
 32 31  1  0  0  0  0
 33 31  1  0  0  0  0
 34 32  1  0  0  0  0
 34 30  1  0  0  0  0
M  END
>  <MODEL>
7

>  <REMARK>
 VINA RESULT:      -8.3      3.811      9.185
  Name = 
  3 active torsions:
  status: ('A' for Active; 'I' for Inactive)
    1  A    between atoms: C_17  and  O_28
    2  A    between atoms: O_28  and  C_29
    3  A    between atoms: C_29  and  C_32
                            x       y       z     vdW  Elec       q    Type
                         _______ _______ _______ _____ _____    ______ ____

>  <TORSDO>
F 3

$$$$
=
 OpenBabel11122412073D

 34 40  0  0  1  0  0  0  0  0999 V2000
  184.2170  178.7570  143.2400 C   0  0  0  0  0  0  0  0  0  0  0  0
  186.3240  177.8060  144.2070 C   0  0  0  0  0  2  0  0  0  0  0  0
  180.0690  177.8150  138.2310 C   0  0  1  0  0  3  0  0  0  0  0  0
  182.1510  178.6630  141.9650 C   0  0  0  0  0  0  0  0  0  0  0  0
  182.2470  178.7130  139.3880 C   0  0  2  0  0  3  0  0  0  0  0  0
  181.9440  178.8420  136.8980 C   0  0  0  0  0  1  0  0  0  0  0  0
  179.7780  176.8280  139.1570 F   0  0  0  0  0  0  0  0  0  0  0  0
  179.8090  180.1570  139.3050 C   0  0  0  0  0  2  0  0  0  0  0  0
  186.5140  178.9050  142.0470 C   0  0  2  0  0  3  0  0  0  0  0  0
  188.7090  177.5310  140.1440 C   0  0  0  0  0  2  0  0  0  0  0  0
  183.6180  178.0910  139.5950 C   0  0  0  0  0  2  0  0  0  0  0  0
  180.2630  179.6850  140.6870 C   0  0  0  0  0  2  0  0  0  0  0  0
  185.7750  178.2840  140.8430 C   0  0  1  0  0  3  0  0  0  0  0  0
  187.7910  177.8460  143.8660 C   0  0  0  0  0  2  0  0  0  0  0  0
  181.3780  178.6240  140.6650 C   0  0  2  0  0  3  0  0  0  0  0  0
  179.1830  179.0490  138.4580 C   0  0  0  0  0  2  0  0  0  0  0  0
  188.3020  177.0550  141.5300 C   0  0  2  0  0  3  0  0  0  0  0  0
  183.5640  178.7150  141.9940 C   0  0  0  0  0  0  0  0  0  0  0  0
  181.5870  178.0670  138.1540 C   0  0  2  0  0  3  0  0  0  0  0  0
  184.3490  178.8280  140.7120 C   0  0  2  0  0  3  0  0  0  0  0  0
  182.0720  178.6300  144.3430 C   0  0  0  0  0  3  0  0  0  0  0  0
  187.5170  177.5260  139.2050 C   0  0  0  0  0  2  0  0  0  0  0  0
  181.4560  178.6000  143.1340 N   0  0  0  0  0  0  0  0  0  0  0  0
  186.5360  178.6280  139.5650 C   0  0  0  0  0  2  0  0  0  0  0  0
  187.8760  178.2520  142.4000 C   0  0  1  0  0  3  0  0  0  0  0  0
  183.4590  178.7210  144.4140 C   0  0  0  0  0  3  0  0  0  0  0  0
  185.7120  178.8920  143.3540 C   0  0  1  0  0  3  0  0  0  0  0  0
  189.3930  176.3970  142.1080 O   0  0  0  0  0  0  0  0  0  0  0  0
  190.5080  177.1360  141.7050 C   0  0  0  0  0  2  0  0  0  0  0  0
  191.4380  178.1520  145.0610 C   0  0  0  0  0  2  0  0  0  0  0  0
  191.2990  176.1300  143.7810 N   0  0  0  0  0  2  0  0  0  0  0  0
  191.5040  177.2270  142.8460 C   0  0  2  0  0  3  0  0  0  0  0  0
  191.6810  176.6580  145.0810 C   0  0  0  0  0  2  0  0  0  0  0  0
  191.2990  178.5180  143.6040 C   0  0  0  0  0  2  0  0  0  0  0  0
  1 27  1  0  0  0  0
  1 26  1  0  0  0  0
  3 16  1  0  0  0  0
  3  7  1  1  0  0  0
  4 18  1  0  0  0  0
  4 23  2  0  0  0  0
  5 11  1  1  0  0  0
  5 15  1  0  0  0  0
  6 19  1  0  0  0  0
  8 12  1  0  0  0  0
  9 25  1  0  0  0  0
  9 27  1  0  0  0  0
 10 17  1  0  0  0  0
 11 20  1  0  0  0  0
 13  9  1  0  0  0  0
 14  2  1  0  0  0  0
 15 12  1  0  0  0  0
 15  4  1  0  0  0  0
 16  8  1  0  0  0  0
 17 28  1  0  0  0  0
 17 25  1  0  0  0  0
 18  1  2  0  0  0  0
 19  3  1  0  0  0  0
 19  5  1  0  0  0  0
 20 13  1  0  0  0  0
 20 18  1  0  0  0  0
 21 26  2  0  0  0  0
 22 24  1  0  0  0  0
 22 10  1  0  0  0  0
 23 21  1  0  0  0  0
 24 13  1  0  0  0  0
 25 14  1  0  0  0  0
 27  2  1  0  0  0  0
 29 28  1  0  0  0  0
 29 32  1  0  0  0  0
 30 33  1  0  0  0  0
 31 33  1  0  0  0  0
 32 34  1  0  0  0  0
 32 31  1  0  0  0  0
 34 30  1  0  0  0  0
M  END
>  <MODEL>
8

>  <REMARK>
 VINA RESULT:      -8.3      1.866      2.740
  Name = 
  3 active torsions:
  status: ('A' for Active; 'I' for Inactive)
    1  A    between atoms: C_17  and  O_28
    2  A    between atoms: O_28  and  C_29
    3  A    between atoms: C_29  and  C_32
                            x       y       z     vdW  Elec       q    Type
                         _______ _______ _______ _____ _____    ______ ____

>  <TORSDO>
F 3

$$$$
=
 OpenBabel11122412073D

 34 40  0  0  1  0  0  0  0  0999 V2000
  187.1710  178.4090  140.5150 C   0  0  0  0  0  0  0  0  0  0  0  0
  184.9350  178.1820  139.4050 C   0  0  0  0  0  2  0  0  0  0  0  0
  190.4120  176.3400  145.8440 C   0  0  1  0  0  3  0  0  0  0  0  0
  188.9930  177.6790  141.9470 C   0  0  0  0  0  0  0  0  0  0  0  0
  188.7490  177.8680  144.5060 C   0  0  2  0  0  3  0  0  0  0  0  0
  188.9130  177.9940  147.0100 C   0  0  0  0  0  1  0  0  0  0  0  0
  190.4110  175.2740  144.9610 F   0  0  0  0  0  0  0  0  0  0  0  0
  191.5210  178.4090  144.7510 C   0  0  0  0  0  2  0  0  0  0  0  0
  184.9860  179.3730  141.5250 C   0  0  2  0  0  3  0  0  0  0  0  0
  182.3340  178.9010  143.2780 C   0  0  0  0  0  2  0  0  0  0  0  0
  187.2650  177.7370  144.2070 C   0  0  0  0  0  2  0  0  0  0  0  0
  191.0260  178.0590  143.3470 C   0  0  0  0  0  2  0  0  0  0  0  0
  185.3890  178.5920  142.7930 C   0  0  1  0  0  3  0  0  0  0  0  0
  183.5490  178.7290  139.6320 C   0  0  0  0  0  2  0  0  0  0  0  0
  189.6200  177.4380  143.3020 C   0  0  2  0  0  3  0  0  0  0  0  0
  191.6770  177.1920  145.6630 C   0  0  0  0  0  2  0  0  0  0  0  0
  182.6470  178.2570  141.9360 C   0  0  2  0  0  3  0  0  0  0  0  0
  187.6860  178.2030  141.8080 C   0  0  0  0  0  0  0  0  0  0  0  0
  189.0680  177.0920  145.7990 C   0  0  2  0  0  3  0  0  0  0  0  0
  186.9030  178.6280  143.0230 C   0  0  2  0  0  3  0  0  0  0  0  0
  189.2130  177.5200  139.5830 C   0  0  0  0  0  3  0  0  0  0  0  0
  183.3890  178.5350  144.3050 C   0  0  0  0  0  2  0  0  0  0  0  0
  189.7010  177.3350  140.8350 N   0  0  0  0  0  0  0  0  0  0  0  0
  184.7070  179.2260  144.0030 C   0  0  0  0  0  2  0  0  0  0  0  0
  183.5100  179.2030  141.0800 C   0  0  1  0  0  3  0  0  0  0  0  0
  187.9480  178.0700  139.4030 C   0  0  0  0  0  3  0  0  0  0  0  0
  185.8210  179.0350  140.2840 C   0  0  1  0  0  3  0  0  0  0  0  0
  181.4380  177.9810  141.2880 O   0  0  0  0  0  0  0  0  0  0  0  0
  180.4830  178.7280  141.9820 C   0  0  0  0  0  2  0  0  0  0  0  0
  179.7850  180.5940  138.9510 C   0  0  0  0  0  2  0  0  0  0  0  0
  179.2400  178.4620  139.9010 N   0  0  0  0  0  2  0  0  0  0  0  0
  179.5220  179.3720  141.0010 C   0  0  2  0  0  3  0  0  0  0  0  0
  179.0000  179.3150  138.7480 C   0  0  0  0  0  2  0  0  0  0  0  0
  180.1450  180.6190  140.4150 C   0  0  0  0  0  2  0  0  0  0  0  0
  1 18  1  0  0  0  0
  2 14  1  0  0  0  0
  2 27  1  0  0  0  0
  3  7  1  6  0  0  0
  4 15  1  0  0  0  0
  5 11  1  6  0  0  0
  5 19  1  0  0  0  0
  8 16  1  0  0  0  0
  9 13  1  0  0  0  0
 10 22  1  0  0  0  0
 12  8  1  0  0  0  0
 13 20  1  0  0  0  0
 13 24  1  0  0  0  0
 14 25  1  0  0  0  0
 15 12  1  0  0  0  0
 15  5  1  0  0  0  0
 16  3  1  0  0  0  0
 17 10  1  0  0  0  0
 18  4  2  0  0  0  0
 18 20  1  0  0  0  0
 19  3  1  0  0  0  0
 19  6  1  0  0  0  0
 20 11  1  0  0  0  0
 21 23  2  0  0  0  0
 23  4  1  0  0  0  0
 24 22  1  0  0  0  0
 25  9  1  0  0  0  0
 25 17  1  0  0  0  0
 26 21  1  0  0  0  0
 26  1  2  0  0  0  0
 27  1  1  0  0  0  0
 27  9  1  0  0  0  0
 28 17  1  0  0  0  0
 28 29  1  0  0  0  0
 30 34  1  0  0  0  0
 31 32  1  0  0  0  0
 32 29  1  0  0  0  0
 33 30  1  0  0  0  0
 33 31  1  0  0  0  0
 34 32  1  0  0  0  0
M  END
>  <MODEL>
9

>  <REMARK>
 VINA RESULT:      -8.2      3.061      9.096
  Name = 
  3 active torsions:
  status: ('A' for Active; 'I' for Inactive)
    1  A    between atoms: C_17  and  O_28
    2  A    between atoms: O_28  and  C_29
    3  A    between atoms: C_29  and  C_32
                            x       y       z     vdW  Elec       q    Type
                         _______ _______ _______ _____ _____    ______ ____

>  <TORSDO>
F 3

$$$$
