=
 OpenBabel11122410223D

 30 35  0  0  1  0  0  0  0  0999 V2000
  185.7000  178.3260  142.7000 C   0  0  0  0  0  0  0  0  0  0  0  0
  186.6530  178.2040  145.0220 C   0  0  0  0  0  0  0  0  0  0  0  0
  181.7340  178.8090  144.2050 C   0  0  0  0  0  2  0  0  0  0  0  0
  184.5630  178.5110  141.8690 C   0  0  0  0  0  0  0  0  0  0  0  0
  187.0140  177.9300  142.0710 C   0  0  0  0  0  2  0  0  0  0  0  0
  186.2510  178.5710  138.5870 O   0  0  0  0  0  0  0  0  0  0  0  0
  182.7500  177.3350  139.7630 C   0  0  1  0  0  3  0  0  0  0  0  0
  186.0830  178.5840  139.8380 C   0  0  0  0  0  0  0  0  0  0  0  0
  181.6990  177.5630  140.8370 C   0  0  2  0  0  3  0  0  0  0  0  0
  181.0330  178.9260  142.8410 C   0  0  1  0  0  3  0  0  0  0  0  0
  187.2050  178.4370  140.7130 N   0  0  0  0  0  0  0  0  0  0  0  0
  184.7330  178.8960  140.4110 C   0  0  1  0  0  3  0  0  0  0  0  0
  186.4430  178.2420  146.4030 C   0  0  0  0  0  3  0  0  0  0  0  0
  180.4870  177.9080  140.0390 C   0  0  0  0  0  2  0  0  0  0  0  0
  182.1010  176.9070  138.5850 O   0  0  0  0  0  0  0  0  0  0  0  0
  187.9600  178.0430  144.5760 O   0  0  0  0  0  1  0  0  0  0  0  0
  183.1630  178.6440  143.8350 C   0  0  0  0  0  0  0  0  0  0  0  0
  185.1660  178.4200  146.9280 C   0  0  0  0  0  3  0  0  0  0  0  0
  185.5560  178.3420  144.1250 C   0  0  0  0  0  0  0  0  0  0  0  0
  183.3000  178.5910  142.4800 C   0  0  0  0  0  0  0  0  0  0  0  0
  180.5450  180.3490  142.6430 C   0  0  0  0  0  1  0  0  0  0  0  0
  182.0340  178.6020  141.8210 N   0  0  0  0  0  0  0  0  0  0  0  0
  180.7200  177.1420  138.7570 C   0  0  0  0  0  2  0  0  0  0  0  0
  183.1810  179.4880  138.6290 C   0  0  0  0  0  2  0  0  0  0  0  0
  184.0790  178.5630  146.0720 C   0  0  0  0  0  3  0  0  0  0  0  0
  184.2600  178.5280  144.6860 C   0  0  0  0  0  0  0  0  0  0  0  0
  183.5890  178.5580  139.4970 C   0  0  0  0  0  0  0  0  0  0  0  0
  188.5550  178.5700  140.1630 C   0  0  0  0  0  2  0  0  0  0  0  0
  190.2780  177.2160  139.9040 C   0  0  0  0  0  1  0  0  0  0  0  0
  189.4770  177.8050  140.8800 O   0  0  0  0  0  0  0  0  0  0  0  0
  1 19  1  0  0  0  0
  2 13  1  0  0  0  0
  4 20  1  0  0  0  0
  4  1  2  0  0  0  0
  5  1  1  0  0  0  0
  6  8  2  0  0  0  0
  7 15  1  6  0  0  0
  7  9  1  0  0  0  0
  8 12  1  0  0  0  0
  8 11  1  0  0  0  0
  9 14  1  6  0  0  0
  9 22  1  0  0  0  0
 10 21  1  6  0  0  0
 10  3  1  0  0  0  0
 11  5  1  0  0  0  0
 12 27  1  6  0  0  0
 12  4  1  0  0  0  0
 13 18  2  0  0  0  0
 15 23  1  0  0  0  0
 16  2  1  0  0  0  0
 17  3  1  0  0  0  0
 17 26  1  0  0  0  0
 19 26  1  0  0  0  0
 19  2  2  0  0  0  0
 20 17  2  0  0  0  0
 22 20  1  0  0  0  0
 22 10  1  0  0  0  0
 23 14  1  0  0  0  0
 24 27  2  0  0  0  0
 25 18  1  0  0  0  0
 26 25  2  0  0  0  0
 27  7  1  0  0  0  0
 28 11  1  0  0  0  0
 28 30  1  0  0  0  0
 29 30  1  0  0  0  0
M  END
>  <MODEL>
1

>  <REMARK>
 VINA RESULT:      -8.9      0.000      0.000
  Name = 
  2 active torsions:
  status: ('A' for Active; 'I' for Inactive)
    1  A    between atoms: N_11  and  C_28
    2  A    between atoms: C_28  and  O_30
                            x       y       z     vdW  Elec       q    Type
                         _______ _______ _______ _____ _____    ______ ____

>  <TORSDO>
F 2

$$$$
=
 OpenBabel11122410223D

 30 35  0  0  1  0  0  0  0  0999 V2000
  189.3600  177.1400  143.8110 C   0  0  0  0  0  0  0  0  0  0  0  0
  191.3340  176.0940  144.9610 C   0  0  0  0  0  0  0  0  0  0  0  0
  187.4830  178.0300  147.5400 C   0  0  0  0  0  2  0  0  0  0  0  0
  188.1220  177.8270  143.9220 C   0  0  0  0  0  0  0  0  0  0  0  0
  189.8200  176.6680  142.4530 C   0  0  0  0  0  2  0  0  0  0  0  0
  187.5180  178.5080  140.3440 O   0  0  0  0  0  0  0  0  0  0  0  0
  185.1570  177.8040  143.3600 C   0  0  1  0  0  3  0  0  0  0  0  0
  188.1100  178.1730  141.4070 C   0  0  0  0  0  0  0  0  0  0  0  0
  185.0810  177.9250  144.8750 C   0  0  2  0  0  3  0  0  0  0  0  0
  186.2370  178.7180  146.9590 C   0  0  1  0  0  3  0  0  0  0  0  0
  189.3770  177.5110  141.3430 N   0  0  0  0  0  0  0  0  0  0  0  0
  187.5610  178.5930  142.7370 C   0  0  1  0  0  3  0  0  0  0  0  0
  191.9800  175.7520  146.1530 C   0  0  0  0  0  3  0  0  0  0  0  0
  183.8650  178.7660  145.0730 C   0  0  0  0  0  2  0  0  0  0  0  0
  183.8520  177.9210  142.8360 O   0  0  0  0  0  0  0  0  0  0  0  0
  191.9800  175.7850  143.7700 O   0  0  0  0  0  1  0  0  0  0  0  0
  188.2610  177.6650  146.3290 C   0  0  0  0  0  0  0  0  0  0  0  0
  191.4060  176.0470  147.3860 C   0  0  0  0  0  3  0  0  0  0  0  0
  190.0710  176.7490  144.9910 C   0  0  0  0  0  0  0  0  0  0  0  0
  187.5710  178.0020  145.2030 C   0  0  0  0  0  0  0  0  0  0  0  0
  186.2940  180.2050  147.2580 C   0  0  0  0  0  1  0  0  0  0  0  0
  186.2720  178.5050  145.5100 N   0  0  0  0  0  0  0  0  0  0  0  0
  183.0230  178.4000  143.8720 C   0  0  0  0  0  2  0  0  0  0  0  0
  185.6280  180.0430  142.4270 C   0  0  0  0  0  2  0  0  0  0  0  0
  190.1750  176.6910  147.4430 C   0  0  0  0  0  3  0  0  0  0  0  0
  189.5070  177.0440  146.2660 C   0  0  0  0  0  0  0  0  0  0  0  0
  186.0760  178.8240  142.7390 C   0  0  0  0  0  0  0  0  0  0  0  0
  190.1050  177.4950  140.0730 C   0  0  0  0  0  2  0  0  0  0  0  0
  190.2120  176.0900  138.3750 C   0  0  0  0  0  1  0  0  0  0  0  0
  190.5080  176.2020  139.7320 O   0  0  0  0  0  0  0  0  0  0  0  0
  1  4  2  0  0  0  0
  1 19  1  0  0  0  0
  2 19  2  0  0  0  0
  2 13  1  0  0  0  0
  4 20  1  0  0  0  0
  5  1  1  0  0  0  0
  6  8  2  0  0  0  0
  7 27  1  6  0  0  0
  7  9  1  0  0  0  0
  9 14  1  6  0  0  0
  9 22  1  0  0  0  0
 10 21  1  6  0  0  0
 10  3  1  0  0  0  0
 11  8  1  0  0  0  0
 11  5  1  0  0  0  0
 12  8  1  6  0  0  0
 12 27  1  0  0  0  0
 12  4  1  0  0  0  0
 13 18  2  0  0  0  0
 15  7  1  0  0  0  0
 15 23  1  0  0  0  0
 16  2  1  0  0  0  0
 17  3  1  0  0  0  0
 18 25  1  0  0  0  0
 19 26  1  0  0  0  0
 20 22  1  0  0  0  0
 20 17  2  0  0  0  0
 22 10  1  0  0  0  0
 23 14  1  0  0  0  0
 24 27  2  0  0  0  0
 26 17  1  0  0  0  0
 26 25  2  0  0  0  0
 28 11  1  0  0  0  0
 29 30  1  0  0  0  0
 30 28  1  0  0  0  0
M  END
>  <MODEL>
2

>  <REMARK>
 VINA RESULT:      -8.9      2.926      4.917
  Name = 
  2 active torsions:
  status: ('A' for Active; 'I' for Inactive)
    1  A    between atoms: N_11  and  C_28
    2  A    between atoms: C_28  and  O_30
                            x       y       z     vdW  Elec       q    Type
                         _______ _______ _______ _____ _____    ______ ____

>  <TORSDO>
F 2

$$$$
=
 OpenBabel11122410223D

 30 35  0  0  1  0  0  0  0  0999 V2000
  187.5740  177.7280  142.6840 C   0  0  0  0  0  0  0  0  0  0  0  0
  188.9850  177.2070  144.6970 C   0  0  0  0  0  0  0  0  0  0  0  0
  184.1500  178.5020  145.1150 C   0  0  0  0  0  2  0  0  0  0  0  0
  186.3220  178.1510  142.1640 C   0  0  0  0  0  0  0  0  0  0  0  0
  188.6450  177.2550  141.7310 C   0  0  0  0  0  2  0  0  0  0  0  0
  187.2380  178.4080  138.5970 O   0  0  0  0  0  0  0  0  0  0  0  0
  183.9390  177.4710  140.4430 C   0  0  1  0  0  3  0  0  0  0  0  0
  187.3520  178.2870  139.8490 C   0  0  0  0  0  0  0  0  0  0  0  0
  183.1940  177.6930  141.7500 C   0  0  2  0  0  3  0  0  0  0  0  0
  183.1920  178.8700  143.9700 C   0  0  1  0  0  3  0  0  0  0  0  0
  188.6050  177.8980  140.4190 N   0  0  0  0  0  0  0  0  0  0  0  0
  186.2220  178.6880  140.7480 C   0  0  1  0  0  3  0  0  0  0  0  0
  189.0920  177.1000  146.0870 C   0  0  0  0  0  3  0  0  0  0  0  0
  181.9000  178.2770  141.2930 C   0  0  0  0  0  2  0  0  0  0  0  0
  182.9910  177.2740  139.4160 O   0  0  0  0  0  0  0  0  0  0  0  0
  190.1240  176.9440  143.9440 O   0  0  0  0  0  1  0  0  0  0  0  0
  185.4230  178.2110  144.4060 C   0  0  0  0  0  0  0  0  0  0  0  0
  188.0020  177.3660  146.9100 C   0  0  0  0  0  3  0  0  0  0  0  0
  187.7510  177.5860  144.0990 C   0  0  0  0  0  0  0  0  0  0  0  0
  185.2490  178.3080  143.0590 C   0  0  0  0  0  0  0  0  0  0  0  0
  182.8860  180.3550  144.0240 C   0  0  0  0  0  1  0  0  0  0  0  0
  183.8860  178.5540  142.7190 N   0  0  0  0  0  0  0  0  0  0  0  0
  181.7310  177.6520  139.9270 C   0  0  0  0  0  2  0  0  0  0  0  0
  184.4200  179.6790  139.4420 C   0  0  0  0  0  2  0  0  0  0  0  0
  186.7860  177.7450  146.3500 C   0  0  0  0  0  3  0  0  0  0  0  0
  186.6510  177.8580  144.9630 C   0  0  0  0  0  0  0  0  0  0  0  0
  184.8680  178.6070  140.1010 C   0  0  0  0  0  0  0  0  0  0  0  0
  189.8060  177.9330  139.5820 C   0  0  0  0  0  2  0  0  0  0  0  0
  190.2630  176.2080  138.2840 C   0  0  0  0  0  1  0  0  0  0  0  0
  190.4580  176.6980  139.5730 O   0  0  0  0  0  0  0  0  0  0  0  0
  1 19  1  0  0  0  0
  2 13  1  0  0  0  0
  4  1  2  0  0  0  0
  4 20  1  0  0  0  0
  5  1  1  0  0  0  0
  6  8  2  0  0  0  0
  7 15  1  6  0  0  0
  7  9  1  0  0  0  0
  8 11  1  0  0  0  0
  9 14  1  6  0  0  0
  9 22  1  0  0  0  0
 10 21  1  6  0  0  0
 10  3  1  0  0  0  0
 11  5  1  0  0  0  0
 12  8  1  6  0  0  0
 12  4  1  0  0  0  0
 13 18  2  0  0  0  0
 15 23  1  0  0  0  0
 16  2  1  0  0  0  0
 17 26  1  0  0  0  0
 17  3  1  0  0  0  0
 19  2  2  0  0  0  0
 19 26  1  0  0  0  0
 20 17  2  0  0  0  0
 22 20  1  0  0  0  0
 22 10  1  0  0  0  0
 23 14  1  0  0  0  0
 24 27  2  0  0  0  0
 25 18  1  0  0  0  0
 26 25  2  0  0  0  0
 27  7  1  0  0  0  0
 27 12  1  0  0  0  0
 28 11  1  0  0  0  0
 29 30  1  0  0  0  0
 30 28  1  0  0  0  0
M  END
>  <MODEL>
3

>  <REMARK>
 VINA RESULT:      -8.5      1.443      2.075
  Name = 
  2 active torsions:
  status: ('A' for Active; 'I' for Inactive)
    1  A    between atoms: N_11  and  C_28
    2  A    between atoms: C_28  and  O_30
                            x       y       z     vdW  Elec       q    Type
                         _______ _______ _______ _____ _____    ______ ____

>  <TORSDO>
F 2

$$$$
=
 OpenBabel11122410223D

 30 35  0  0  1  0  0  0  0  0999 V2000
  186.1900  178.3050  142.0270 C   0  0  0  0  0  0  0  0  0  0  0  0
  183.7480  178.8840  142.1680 C   0  0  0  0  0  0  0  0  0  0  0  0
  186.5130  178.0470  146.2770 C   0  0  0  0  0  2  0  0  0  0  0  0
  187.3860  177.9450  142.7030 C   0  0  0  0  0  0  0  0  0  0  0  0
  186.2400  178.5970  140.5470 C   0  0  0  0  0  2  0  0  0  0  0  0
  189.5290  177.2900  139.7690 O   0  0  0  0  0  0  0  0  0  0  0  0
  190.2460  178.6660  143.3410 C   0  0  1  0  0  3  0  0  0  0  0  0
  188.4980  177.5130  140.4620 C   0  0  0  0  0  0  0  0  0  0  0  0
  189.7180  178.6280  144.7670 C   0  0  2  0  0  3  0  0  0  0  0  0
  188.0000  177.6600  146.3240 C   0  0  1  0  0  3  0  0  0  0  0  0
  187.2620  177.8450  139.8220 N   0  0  0  0  0  0  0  0  0  0  0  0
  188.5280  177.2920  141.9450 C   0  0  1  0  0  3  0  0  0  0  0  0
  182.6160  179.1060  142.9560 C   0  0  0  0  0  3  0  0  0  0  0  0
  190.8910  178.1160  145.5340 C   0  0  0  0  0  2  0  0  0  0  0  0
  191.6440  178.8500  143.3860 O   0  0  0  0  0  0  0  0  0  0  0  0
  183.5990  178.9800  140.7880 O   0  0  0  0  0  1  0  0  0  0  0  0
  186.2430  178.1630  144.8200 C   0  0  0  0  0  0  0  0  0  0  0  0
  182.6810  179.0090  144.3430 C   0  0  0  0  0  3  0  0  0  0  0  0
  184.9940  178.5580  142.7740 C   0  0  0  0  0  0  0  0  0  0  0  0
  187.3860  177.9600  144.1080 C   0  0  0  0  0  0  0  0  0  0  0  0
  188.1340  176.2170  146.7750 C   0  0  0  0  0  1  0  0  0  0  0  0
  188.5190  177.8010  144.9610 N   0  0  0  0  0  0  0  0  0  0  0  0
  192.0560  178.6280  144.7180 C   0  0  0  0  0  2  0  0  0  0  0  0
  190.6710  176.3450  142.6090 C   0  0  0  0  0  2  0  0  0  0  0  0
  183.8850  178.6850  144.9600 C   0  0  0  0  0  3  0  0  0  0  0  0
  185.0340  178.4590  144.1950 C   0  0  0  0  0  0  0  0  0  0  0  0
  189.8940  177.4300  142.5550 C   0  0  0  0  0  0  0  0  0  0  0  0
  187.1330  177.6330  138.3800 C   0  0  0  0  0  2  0  0  0  0  0  0
  188.3430  178.6500  136.8400 C   0  0  0  0  0  1  0  0  0  0  0  0
  187.2430  178.8340  137.6750 O   0  0  0  0  0  0  0  0  0  0  0  0
  1  4  2  0  0  0  0
  1 19  1  0  0  0  0
  2 19  2  0  0  0  0
  2 13  1  0  0  0  0
  3 10  1  0  0  0  0
  4 20  1  0  0  0  0
  5  1  1  0  0  0  0
  6  8  2  0  0  0  0
  7 27  1  1  0  0  0
  7 15  1  0  0  0  0
  7  9  1  0  0  0  0
  9 22  1  0  0  0  0
  9 14  1  1  0  0  0
 10 21  1  6  0  0  0
 11  8  1  0  0  0  0
 11  5  1  0  0  0  0
 12  8  1  6  0  0  0
 12 27  1  0  0  0  0
 12  4  1  0  0  0  0
 13 18  2  0  0  0  0
 15 23  1  0  0  0  0
 16  2  1  0  0  0  0
 17  3  1  0  0  0  0
 18 25  1  0  0  0  0
 19 26  1  0  0  0  0
 20 17  2  0  0  0  0
 20 22  1  0  0  0  0
 22 10  1  0  0  0  0
 23 14  1  0  0  0  0
 26 17  1  0  0  0  0
 26 25  2  0  0  0  0
 27 24  2  0  0  0  0
 28 11  1  0  0  0  0
 29 30  1  0  0  0  0
 30 28  1  0  0  0  0
M  END
>  <MODEL>
4

>  <REMARK>
 VINA RESULT:      -8.3      2.366      6.217
  Name = 
  2 active torsions:
  status: ('A' for Active; 'I' for Inactive)
    1  A    between atoms: N_11  and  C_28
    2  A    between atoms: C_28  and  O_30
                            x       y       z     vdW  Elec       q    Type
                         _______ _______ _______ _____ _____    ______ ____

>  <TORSDO>
F 2

$$$$
=
 OpenBabel11122410223D

 30 35  0  0  1  0  0  0  0  0999 V2000
  185.7410  178.3650  142.2150 C   0  0  0  0  0  0  0  0  0  0  0  0
  185.6540  178.2840  139.7050 C   0  0  0  0  0  0  0  0  0  0  0  0
  190.0020  178.0970  142.2130 C   0  0  0  0  0  2  0  0  0  0  0  0
  186.5300  178.4000  143.3960 C   0  0  0  0  0  0  0  0  0  0  0  0
  184.2430  178.2290  142.3360 C   0  0  0  0  0  2  0  0  0  0  0  0
  183.8400  178.9140  145.8710 O   0  0  0  0  0  0  0  0  0  0  0  0
  187.2560  177.0470  145.9930 C   0  0  1  0  0  3  0  0  0  0  0  0
  184.4340  178.8330  144.7600 C   0  0  0  0  0  0  0  0  0  0  0  0
  188.6400  177.0400  145.3620 C   0  0  2  0  0  3  0  0  0  0  0  0
  190.1910  178.1650  143.7370 C   0  0  1  0  0  3  0  0  0  0  0  0
  183.6810  178.8300  143.5440 N   0  0  0  0  0  0  0  0  0  0  0  0
  185.9310  178.8830  144.7040 C   0  0  1  0  0  3  0  0  0  0  0  0
  186.3360  178.2140  138.4870 C   0  0  0  0  0  3  0  0  0  0  0  0
  189.5360  177.2170  146.5410 C   0  0  0  0  0  2  0  0  0  0  0  0
  187.3670  176.5790  147.3200 O   0  0  0  0  0  0  0  0  0  0  0  0
  184.2670  178.3690  139.6590 O   0  0  0  0  0  1  0  0  0  0  0  0
  188.5280  178.1940  142.0530 C   0  0  0  0  0  0  0  0  0  0  0  0
  187.7260  178.1480  138.4500 C   0  0  0  0  0  3  0  0  0  0  0  0
  186.3740  178.2830  140.9320 C   0  0  0  0  0  0  0  0  0  0  0  0
  187.9200  178.2350  143.2710 C   0  0  0  0  0  0  0  0  0  0  0  0
  190.8210  179.4940  144.1100 C   0  0  0  0  0  1  0  0  0  0  0  0
  188.8570  178.0680  144.3340 N   0  0  0  0  0  0  0  0  0  0  0  0
  188.7400  176.5680  147.6500 C   0  0  0  0  0  2  0  0  0  0  0  0
  186.8410  179.2980  146.9250 C   0  0  0  0  0  2  0  0  0  0  0  0
  188.4530  178.1510  139.6350 C   0  0  0  0  0  3  0  0  0  0  0  0
  187.7960  178.2190  140.8680 C   0  0  0  0  0  0  0  0  0  0  0  0
  186.6060  178.4060  145.9590 C   0  0  0  0  0  0  0  0  0  0  0  0
  182.2700  179.2170  143.5830 C   0  0  0  0  0  2  0  0  0  0  0  0
  180.3930  179.5750  142.4800 C   0  0  0  0  0  1  0  0  0  0  0  0
  181.6330  178.9500  142.3690 O   0  0  0  0  0  0  0  0  0  0  0  0
  1  5  1  0  0  0  0
  1  4  1  0  0  0  0
  2 19  1  0  0  0  0
  3 10  1  0  0  0  0
  5 11  1  0  0  0  0
  7 27  1  1  0  0  0
  7 15  1  0  0  0  0
  8  6  2  0  0  0  0
  9  7  1  0  0  0  0
  9 14  1  1  0  0  0
 10 21  1  6  0  0  0
 10 22  1  0  0  0  0
 11 28  1  0  0  0  0
 11  8  1  0  0  0  0
 12  4  1  6  0  0  0
 12  8  1  0  0  0  0
 12 27  1  0  0  0  0
 13  2  2  0  0  0  0
 14 23  1  0  0  0  0
 15 23  1  0  0  0  0
 16  2  1  0  0  0  0
 17  3  1  0  0  0  0
 17 20  1  0  0  0  0
 18 13  1  0  0  0  0
 18 25  2  0  0  0  0
 19  1  2  0  0  0  0
 20  4  2  0  0  0  0
 20 22  1  0  0  0  0
 22  9  1  0  0  0  0
 25 26  1  0  0  0  0
 26 19  1  0  0  0  0
 26 17  2  0  0  0  0
 27 24  2  0  0  0  0
 30 29  1  0  0  0  0
 30 28  1  0  0  0  0
M  END
>  <MODEL>
5

>  <REMARK>
 VINA RESULT:      -8.0      2.322      7.488
  Name = 
  2 active torsions:
  status: ('A' for Active; 'I' for Inactive)
    1  A    between atoms: N_11  and  C_28
    2  A    between atoms: C_28  and  O_30
                            x       y       z     vdW  Elec       q    Type
                         _______ _______ _______ _____ _____    ______ ____

>  <TORSDO>
F 2

$$$$
=
 OpenBabel11122410223D

 30 35  0  0  1  0  0  0  0  0999 V2000
  187.4780  177.9040  142.1890 C   0  0  0  0  0  0  0  0  0  0  0  0
  186.6940  178.0010  144.5750 C   0  0  0  0  0  0  0  0  0  0  0  0
  183.6160  178.9970  140.7330 C   0  0  0  0  0  2  0  0  0  0  0  0
  187.1820  178.0910  140.8120 C   0  0  0  0  0  0  0  0  0  0  0  0
  188.8010  177.2920  142.5810 C   0  0  0  0  0  2  0  0  0  0  0  0
  190.5540  177.5280  139.4180 O   0  0  0  0  0  0  0  0  0  0  0  0
  186.9640  176.8330  138.0780 C   0  0  1  0  0  3  0  0  0  0  0  0
  189.6330  177.7290  140.2580 C   0  0  0  0  0  0  0  0  0  0  0  0
  185.5260  177.3140  138.2010 C   0  0  2  0  0  3  0  0  0  0  0  0
  183.9780  178.9990  139.2380 C   0  0  1  0  0  3  0  0  0  0  0  0
  189.8940  177.5860  141.6570 N   0  0  0  0  0  0  0  0  0  0  0  0
  188.3040  178.2540  139.8020 C   0  0  1  0  0  3  0  0  0  0  0  0
  185.6630  178.2490  145.4850 C   0  0  0  0  0  3  0  0  0  0  0  0
  185.1810  177.6710  136.7940 C   0  0  0  0  0  2  0  0  0  0  0  0
  187.1550  176.3190  136.7780 O   0  0  0  0  0  0  0  0  0  0  0  0
  187.9350  177.6470  145.0920 O   0  0  0  0  0  1  0  0  0  0  0  0
  184.9000  178.6360  141.3880 C   0  0  0  0  0  0  0  0  0  0  0  0
  184.3980  178.6280  145.0450 C   0  0  0  0  0  3  0  0  0  0  0  0
  186.4640  178.1290  143.1760 C   0  0  0  0  0  0  0  0  0  0  0  0
  185.8560  178.3840  140.4510 C   0  0  0  0  0  0  0  0  0  0  0  0
  183.9740  180.4240  138.7180 C   0  0  0  0  0  1  0  0  0  0  0  0
  185.3260  178.4370  139.1280 N   0  0  0  0  0  0  0  0  0  0  0  0
  186.0450  176.7170  136.0010 C   0  0  0  0  0  2  0  0  0  0  0  0
  188.3710  178.7550  137.4200 C   0  0  0  0  0  2  0  0  0  0  0  0
  184.1490  178.7650  143.6840 C   0  0  0  0  0  3  0  0  0  0  0  0
  185.1630  178.5230  142.7510 C   0  0  0  0  0  0  0  0  0  0  0  0
  187.9690  177.9150  138.3770 C   0  0  0  0  0  0  0  0  0  0  0  0
  191.2830  177.5030  142.1120 C   0  0  0  0  0  2  0  0  0  0  0  0
  191.6810  178.6280  143.9680 C   0  0  0  0  0  1  0  0  0  0  0  0
  191.3570  177.3570  143.5000 O   0  0  0  0  0  0  0  0  0  0  0  0
  1  5  1  0  0  0  0
  1 19  1  0  0  0  0
  2 16  1  0  0  0  0
  2 13  1  0  0  0  0
  3 17  1  0  0  0  0
  4  1  2  0  0  0  0
  6  8  2  0  0  0  0
  7 15  1  6  0  0  0
  7  9  1  0  0  0  0
  7 27  1  0  0  0  0
  8 11  1  0  0  0  0
  9 14  1  6  0  0  0
  9 22  1  0  0  0  0
 10 21  1  1  0  0  0
 10  3  1  0  0  0  0
 11 28  1  0  0  0  0
 11  5  1  0  0  0  0
 12 27  1  6  0  0  0
 12  8  1  0  0  0  0
 12  4  1  0  0  0  0
 17 26  1  0  0  0  0
 18 13  2  0  0  0  0
 19  2  2  0  0  0  0
 20  4  1  0  0  0  0
 20 17  2  0  0  0  0
 22 10  1  0  0  0  0
 22 20  1  0  0  0  0
 23 15  1  0  0  0  0
 23 14  1  0  0  0  0
 24 27  2  0  0  0  0
 25 18  1  0  0  0  0
 26 19  1  0  0  0  0
 26 25  2  0  0  0  0
 28 30  1  0  0  0  0
 30 29  1  0  0  0  0
M  END
>  <MODEL>
6

>  <REMARK>
 VINA RESULT:      -8.0      2.229      3.769
  Name = 
  2 active torsions:
  status: ('A' for Active; 'I' for Inactive)
    1  A    between atoms: N_11  and  C_28
    2  A    between atoms: C_28  and  O_30
                            x       y       z     vdW  Elec       q    Type
                         _______ _______ _______ _____ _____    ______ ____

>  <TORSDO>
F 2

$$$$
=
 OpenBabel11122410223D

 30 35  0  0  1  0  0  0  0  0999 V2000
  188.0420  177.6940  142.3460 C   0  0  0  0  0  0  0  0  0  0  0  0
  185.7950  178.2270  143.3390 C   0  0  0  0  0  0  0  0  0  0  0  0
  186.6510  178.5420  138.3990 C   0  0  0  0  0  2  0  0  0  0  0  0
  188.8690  177.6340  141.1930 C   0  0  0  0  0  0  0  0  0  0  0  0
  188.5630  177.1510  143.6540 C   0  0  0  0  0  2  0  0  0  0  0  0
  192.0730  176.7990  142.8250 O   0  0  0  0  0  0  0  0  0  0  0  0
  190.5320  175.9060  139.3610 C   0  0  1  0  0  3  0  0  0  0  0  0
  190.8710  177.1560  142.6770 C   0  0  0  0  0  0  0  0  0  0  0  0
  189.5420  176.4140  138.3240 C   0  0  2  0  0  3  0  0  0  0  0  0
  187.9800  178.2720  137.6750 C   0  0  1  0  0  3  0  0  0  0  0  0
  190.0110  177.2650  143.8160 N   0  0  0  0  0  0  0  0  0  0  0  0
  190.3800  177.6020  141.3330 C   0  0  1  0  0  3  0  0  0  0  0  0
  184.4740  178.6430  143.1520 C   0  0  0  0  0  3  0  0  0  0  0  0
  190.3800  176.5140  137.0950 C   0  0  0  0  0  2  0  0  0  0  0  0
  191.5330  175.1650  138.6980 O   0  0  0  0  0  0  0  0  0  0  0  0
  186.2060  177.9600  144.6400 O   0  0  0  0  0  1  0  0  0  0  0  0
  186.9890  178.2930  139.8240 C   0  0  0  0  0  0  0  0  0  0  0  0
  183.9950  178.9480  141.8810 C   0  0  0  0  0  3  0  0  0  0  0  0
  186.6740  178.1030  142.2260 C   0  0  0  0  0  0  0  0  0  0  0  0
  188.2790  177.8690  139.9390 C   0  0  0  0  0  0  0  0  0  0  0  0
  188.5530  179.5800  137.1630 C   0  0  0  0  0  1  0  0  0  0  0  0
  188.8900  177.6870  138.6630 N   0  0  0  0  0  0  0  0  0  0  0  0
  191.4050  175.4260  137.3170 C   0  0  0  0  0  2  0  0  0  0  0  0
  192.2240  177.6660  139.7440 C   0  0  0  0  0  2  0  0  0  0  0  0
  184.8350  178.8410  140.7780 C   0  0  0  0  0  3  0  0  0  0  0  0
  186.1610  178.4260  140.9370 C   0  0  0  0  0  0  0  0  0  0  0  0
  191.1420  177.0150  140.1790 C   0  0  0  0  0  0  0  0  0  0  0  0
  190.6040  177.2530  145.1540 C   0  0  0  0  0  2  0  0  0  0  0  0
  190.2970  176.8400  147.3000 C   0  0  0  0  0  1  0  0  0  0  0  0
  189.6220  177.2350  146.1480 O   0  0  0  0  0  0  0  0  0  0  0  0
  1  5  1  0  0  0  0
  2 16  1  0  0  0  0
  3 17  1  0  0  0  0
  4 12  1  0  0  0  0
  4  1  2  0  0  0  0
  5 11  1  0  0  0  0
  7 15  1  6  0  0  0
  7 27  1  0  0  0  0
  8  6  2  0  0  0  0
  8 11  1  0  0  0  0
  9 14  1  6  0  0  0
  9 22  1  0  0  0  0
  9  7  1  0  0  0  0
 10 21  1  1  0  0  0
 10  3  1  0  0  0  0
 10 22  1  0  0  0  0
 11 28  1  0  0  0  0
 12 27  1  6  0  0  0
 12  8  1  0  0  0  0
 13  2  1  0  0  0  0
 14 23  1  0  0  0  0
 17 20  2  0  0  0  0
 17 26  1  0  0  0  0
 18 13  2  0  0  0  0
 19  1  1  0  0  0  0
 19  2  2  0  0  0  0
 20  4  1  0  0  0  0
 22 20  1  0  0  0  0
 23 15  1  0  0  0  0
 24 27  2  0  0  0  0
 25 26  2  0  0  0  0
 25 18  1  0  0  0  0
 26 19  1  0  0  0  0
 28 30  1  0  0  0  0
 30 29  1  0  0  0  0
M  END
>  <MODEL>
7

>  <REMARK>
 VINA RESULT:      -7.6      3.252      6.664
  Name = 
  2 active torsions:
  status: ('A' for Active; 'I' for Inactive)
    1  A    between atoms: N_11  and  C_28
    2  A    between atoms: C_28  and  O_30
                            x       y       z     vdW  Elec       q    Type
                         _______ _______ _______ _____ _____    ______ ____

>  <TORSDO>
F 2

$$$$
=
 OpenBabel11122410223D

 30 35  0  0  1  0  0  0  0  0999 V2000
  189.0810  177.4150  139.2260 C   0  0  0  0  0  0  0  0  0  0  0  0
  190.9130  176.7190  137.6530 C   0  0  0  0  0  0  0  0  0  0  0  0
  191.8000  177.6430  142.5090 C   0  0  0  0  0  2  0  0  0  0  0  0
  188.7010  177.8240  140.5320 C   0  0  0  0  0  0  0  0  0  0  0  0
  188.0080  177.1410  138.2000 C   0  0  0  0  0  2  0  0  0  0  0  0
  185.1540  178.6120  139.8810 O   0  0  0  0  0  0  0  0  0  0  0  0
  187.0530  177.2330  142.9890 C   0  0  1  0  0  3  0  0  0  0  0  0
  186.3680  178.3330  139.6730 C   0  0  0  0  0  0  0  0  0  0  0  0
  188.4220  177.2320  143.6520 C   0  0  2  0  0  3  0  0  0  0  0  0
  190.7780  178.1000  143.5630 C   0  0  1  0  0  3  0  0  0  0  0  0
  186.8010  177.9500  138.3650 N   0  0  0  0  0  0  0  0  0  0  0  0
  187.3810  178.5390  140.7580 C   0  0  1  0  0  3  0  0  0  0  0  0
  192.2650  176.4340  137.4440 C   0  0  0  0  0  3  0  0  0  0  0  0
  188.1290  177.7910  145.0040 C   0  0  0  0  0  2  0  0  0  0  0  0
  186.0690  177.1170  143.9940 O   0  0  0  0  0  0  0  0  0  0  0  0
  190.0620  176.6310  136.5560 O   0  0  0  0  0  1  0  0  0  0  0  0
  190.9820  177.5290  141.2740 C   0  0  0  0  0  0  0  0  0  0  0  0
  193.1820  176.5200  138.4880 C   0  0  0  0  0  3  0  0  0  0  0  0
  190.4490  177.0970  138.9440 C   0  0  0  0  0  0  0  0  0  0  0  0
  189.6740  177.7940  141.5470 C   0  0  0  0  0  0  0  0  0  0  0  0
  191.0540  179.5420  143.9440 C   0  0  0  0  0  1  0  0  0  0  0  0
  189.4550  177.9980  142.9410 N   0  0  0  0  0  0  0  0  0  0  0  0
  186.7040  177.3430  145.2340 C   0  0  0  0  0  2  0  0  0  0  0  0
  186.3370  179.5810  142.6970 C   0  0  0  0  0  2  0  0  0  0  0  0
  192.7550  176.8930  139.7570 C   0  0  0  0  0  3  0  0  0  0  0  0
  191.4080  177.1820  139.9940 C   0  0  0  0  0  0  0  0  0  0  0  0
  186.8140  178.4600  142.1480 C   0  0  0  0  0  0  0  0  0  0  0  0
  185.9050  178.1710  137.2290 C   0  0  0  0  0  2  0  0  0  0  0  0
  184.4660  176.5160  136.9770 C   0  0  0  0  0  1  0  0  0  0  0  0
  185.6900  176.9920  136.5110 O   0  0  0  0  0  0  0  0  0  0  0  0
  1  4  1  0  0  0  0
  2 19  1  0  0  0  0
  3 10  1  0  0  0  0
  4 12  1  0  0  0  0
  4 20  2  0  0  0  0
  5 11  1  0  0  0  0
  5  1  1  0  0  0  0
  7 27  1  1  0  0  0
  7  9  1  0  0  0  0
  7 15  1  0  0  0  0
  8  6  2  0  0  0  0
  9 14  1  1  0  0  0
 10 21  1  6  0  0  0
 11  8  1  0  0  0  0
 12  8  1  6  0  0  0
 12 27  1  0  0  0  0
 13  2  2  0  0  0  0
 13 18  1  0  0  0  0
 14 23  1  0  0  0  0
 15 23  1  0  0  0  0
 16  2  1  0  0  0  0
 17 20  1  0  0  0  0
 17  3  1  0  0  0  0
 18 25  2  0  0  0  0
 19  1  2  0  0  0  0
 19 26  1  0  0  0  0
 20 22  1  0  0  0  0
 22 10  1  0  0  0  0
 22  9  1  0  0  0  0
 25 26  1  0  0  0  0
 26 17  2  0  0  0  0
 27 24  2  0  0  0  0
 28 11  1  0  0  0  0
 30 29  1  0  0  0  0
 30 28  1  0  0  0  0
M  END
>  <MODEL>
8

>  <REMARK>
 VINA RESULT:      -7.6      3.331      7.373
  Name = 
  2 active torsions:
  status: ('A' for Active; 'I' for Inactive)
    1  A    between atoms: N_11  and  C_28
    2  A    between atoms: C_28  and  O_30
                            x       y       z     vdW  Elec       q    Type
                         _______ _______ _______ _____ _____    ______ ____

>  <TORSDO>
F 2

$$$$
=
 OpenBabel11122410223D

 30 35  0  0  1  0  0  0  0  0999 V2000
  187.4450  178.0940  140.1940 C   0  0  0  0  0  0  0  0  0  0  0  0
  185.3010  178.8800  139.1450 C   0  0  0  0  0  0  0  0  0  0  0  0
  185.7650  178.3070  144.1140 C   0  0  0  0  0  2  0  0  0  0  0  0
  188.1470  177.7200  141.3710 C   0  0  0  0  0  0  0  0  0  0  0  0
  188.1990  178.2070  138.8920 C   0  0  0  0  0  2  0  0  0  0  0  0
  191.2890  176.5570  139.8200 O   0  0  0  0  0  0  0  0  0  0  0  0
  190.4690  178.2780  143.2160 C   0  0  1  0  0  3  0  0  0  0  0  0
  190.0920  176.9420  139.9380 C   0  0  0  0  0  0  0  0  0  0  0  0
  189.3500  178.4480  144.2320 C   0  0  2  0  0  3  0  0  0  0  0  0
  187.0060  177.8100  144.8730 C   0  0  1  0  0  3  0  0  0  0  0  0
  189.3360  177.2950  138.7770 N   0  0  0  0  0  0  0  0  0  0  0  0
  189.4170  176.8930  141.2750 C   0  0  1  0  0  3  0  0  0  0  0  0
  183.9720  179.2830  139.3000 C   0  0  0  0  0  3  0  0  0  0  0  0
  189.9710  177.9370  145.4890 C   0  0  0  0  0  2  0  0  0  0  0  0
  191.7040  178.3520  143.8940 O   0  0  0  0  0  0  0  0  0  0  0  0
  185.8080  178.8260  137.8510 O   0  0  0  0  0  1  0  0  0  0  0  0
  186.2040  178.2750  142.6950 C   0  0  0  0  0  0  0  0  0  0  0  0
  183.3860  179.3430  140.5620 C   0  0  0  0  0  3  0  0  0  0  0  0
  186.0820  178.5280  140.2810 C   0  0  0  0  0  0  0  0  0  0  0  0
  187.5100  177.8990  142.6110 C   0  0  0  0  0  0  0  0  0  0  0  0
  186.7380  176.4240  145.4280 C   0  0  0  0  0  1  0  0  0  0  0  0
  188.1010  177.7490  143.9010 N   0  0  0  0  0  0  0  0  0  0  0  0
  191.4330  178.2550  145.2760 C   0  0  0  0  0  2  0  0  0  0  0  0
  190.8860  175.8600  142.9210 C   0  0  0  0  0  2  0  0  0  0  0  0
  184.1260  178.9980  141.6880 C   0  0  0  0  0  3  0  0  0  0  0  0
  185.4590  178.5920  141.5610 C   0  0  0  0  0  0  0  0  0  0  0  0
  190.3620  176.9900  142.4400 C   0  0  0  0  0  0  0  0  0  0  0  0
  189.8510  176.9270  137.4570 C   0  0  0  0  0  2  0  0  0  0  0  0
  189.3480  177.0100  135.3090 C   0  0  0  0  0  1  0  0  0  0  0  0
  189.3760  177.7890  136.4650 O   0  0  0  0  0  0  0  0  0  0  0  0
  1 19  2  0  0  0  0
  1  4  1  0  0  0  0
  2 13  2  0  0  0  0
  2 19  1  0  0  0  0
  3 10  1  0  0  0  0
  4 20  2  0  0  0  0
  5  1  1  0  0  0  0
  6  8  2  0  0  0  0
  7 27  1  1  0  0  0
  7 15  1  0  0  0  0
  7  9  1  0  0  0  0
  9 14  1  1  0  0  0
 10 21  1  6  0  0  0
 11  5  1  0  0  0  0
 11  8  1  0  0  0  0
 12  8  1  6  0  0  0
 12  4  1  0  0  0  0
 12 27  1  0  0  0  0
 13 18  1  0  0  0  0
 15 23  1  0  0  0  0
 16  2  1  0  0  0  0
 17  3  1  0  0  0  0
 18 25  2  0  0  0  0
 19 26  1  0  0  0  0
 20 17  1  0  0  0  0
 20 22  1  0  0  0  0
 22  9  1  0  0  0  0
 22 10  1  0  0  0  0
 23 14  1  0  0  0  0
 26 25  1  0  0  0  0
 26 17  2  0  0  0  0
 27 24  2  0  0  0  0
 28 11  1  0  0  0  0
 29 30  1  0  0  0  0
 30 28  1  0  0  0  0
M  END
>  <MODEL>
9

>  <REMARK>
 VINA RESULT:      -7.4      2.574      6.559
  Name = 
  2 active torsions:
  status: ('A' for Active; 'I' for Inactive)
    1  A    between atoms: N_11  and  C_28
    2  A    between atoms: C_28  and  O_30
                            x       y       z     vdW  Elec       q    Type
                         _______ _______ _______ _____ _____    ______ ____

>  <TORSDO>
F 2

$$$$
