=
 OpenBabel11122410463D

 32 37  0  0  1  0  0  0  0  0999 V2000
  182.1670  178.0790  140.7920 C   0  0  0  0  0  2  0  0  0  0  0  0
  186.5300  178.3120  143.7330 C   0  0  1  0  0  3  0  0  0  0  0  0
  190.1840  177.0840  140.6770 C   0  0  0  0  0  2  0  0  0  0  0  0
  190.8490  176.6870  141.9970 C   0  0  0  0  0  2  0  0  0  0  0  0
  186.5950  177.6320  146.1410 C   0  0  2  0  0  3  0  0  0  0  0  0
  187.6350  177.0920  147.1350 C   0  0  2  0  0  3  0  0  0  0  0  0
  184.3370  178.6840  142.5930 N   0  0  2  0  0  0  0  0  0  0  0  0
  186.5210  179.1350  141.4190 C   0  0  0  0  0  2  0  0  0  0  0  0
  189.8310  178.1010  147.3560 N   0  0  0  0  0  0  0  0  0  0  0  0
  184.4490  178.7860  140.1170 C   0  0  0  0  0  2  0  0  0  0  0  0
  188.6770  177.3200  140.8310 C   0  0  0  0  0  2  0  0  0  0  0  0
  186.9040  177.9460  142.2960 C   0  0  1  0  0  3  0  0  0  0  0  0
  188.3330  177.6220  142.2240 N   0  0  1  0  0  0  0  0  0  0  0  0
  188.1900  176.5640  144.4820 C   0  0  1  0  0  3  0  0  0  0  0  0
  189.1280  178.2420  148.6210 C   0  0  0  0  0  2  0  0  0  0  0  0
  181.9030  178.6120  142.2010 C   0  0  0  0  0  2  0  0  0  0  0  0
  184.9940  179.3370  141.4360 C   0  0  1  0  0  3  0  0  0  0  0  0
  187.6640  177.9630  148.3670 C   0  0  0  0  0  2  0  0  0  0  0  0
  183.0750  179.3790  142.8120 C   0  0  0  0  0  2  0  0  0  0  0  0
  182.9610  179.0570  139.9310 C   0  0  1  0  0  3  0  0  0  0  0  0
  189.9410  175.7770  142.8200 C   0  0  0  0  0  2  0  0  0  0  0  0
  188.5330  176.3790  142.9970 C   0  0  2  0  0  3  0  0  0  0  0  0
  189.1670  177.4040  145.1660 N   0  0  0  0  0  2  0  0  0  0  0  0
  185.1060  178.8880  143.8260 C   0  0  0  0  0  2  0  0  0  0  0  0
  185.3090  177.3230  146.5860 O   0  0  0  0  0  1  0  0  0  0  0  0
  191.1270  177.5180  147.6570 C   0  0  0  0  0  1  0  0  0  0  0  0
  186.7760  177.1400  144.6920 C   0  0  2  0  0  3  0  0  0  0  0  0
  189.0790  177.1100  146.5990 C   0  0  2  0  0  3  0  0  0  0  0  0
  182.6190  178.8620  138.5310 N   0  0  0  0  0  2  0  0  0  0  0  0
  181.5350  179.5480  137.9000 C   0  0  0  0  0  0  0  0  0  0  0  0
  180.8410  180.3790  138.5430 O   0  0  0  0  0  0  0  0  0  0  0  0
  181.2300  179.2820  136.4710 C   0  0  0  0  0  1  0  0  0  0  0  0
  1 16  1  0  0  0  0
  2 24  1  6  0  0  0
  2 27  1  0  0  0  0
  3 11  1  0  0  0  0
  3  4  1  0  0  0  0
  4 21  1  0  0  0  0
  5 25  1  1  0  0  0
  5  6  1  0  0  0  0
  6 18  1  1  0  0  0
  7 19  1  1  0  0  0
  7 24  1  0  0  0  0
  8 17  1  0  0  0  0
  9 26  1  0  0  0  0
  9 15  1  0  0  0  0
 12  8  1  6  0  0  0
 12  2  1  0  0  0  0
 13 11  1  6  0  0  0
 13 12  1  0  0  0  0
 13 22  1  0  0  0  0
 14 27  1  0  0  0  0
 14 23  1  6  0  0  0
 16 19  1  0  0  0  0
 17 10  1  6  0  0  0
 17  7  1  0  0  0  0
 18 15  1  0  0  0  0
 20 29  1  6  0  0  0
 20 10  1  0  0  0  0
 20  1  1  0  0  0  0
 22 21  1  1  0  0  0
 22 14  1  0  0  0  0
 23 28  1  0  0  0  0
 27  5  1  0  0  0  0
 28  6  1  0  0  0  0
 28  9  1  0  0  0  0
 30 29  1  0  0  0  0
 30 31  2  0  0  0  0
 32 30  1  0  0  0  0
M  END
>  <MODEL>
1

>  <REMARK>
 VINA RESULT:      -8.9      0.000      0.000
  Name = 
  1 active torsions:
  status: ('A' for Active; 'I' for Inactive)
    1  A    between atoms: C_20  and  N_29
                            x       y       z     vdW  Elec       q    Type
                         _______ _______ _______ _____ _____    ______ ____

>  <TORSDO>
F 1

$$$$
=
 OpenBabel11122410463D

 32 37  0  0  1  0  0  0  0  0999 V2000
  189.0850  178.4970  147.5080 C   0  0  0  0  0  2  0  0  0  0  0  0
  186.8420  177.5840  142.8300 C   0  0  1  0  0  3  0  0  0  0  0  0
  190.6040  176.9250  139.7300 C   0  0  0  0  0  2  0  0  0  0  0  0
  189.5510  177.3780  138.7160 C   0  0  0  0  0  2  0  0  0  0  0  0
  184.7460  178.7230  142.0720 C   0  0  2  0  0  3  0  0  0  0  0  0
  184.0950  179.1210  140.7380 C   0  0  2  0  0  3  0  0  0  0  0  0
  187.5140  177.6640  145.2370 N   0  0  2  0  0  0  0  0  0  0  0  0
  188.8180  176.3160  143.5530 C   0  0  0  0  0  2  0  0  0  0  0  0
  183.9220  177.5590  138.8890 N   0  0  0  0  0  0  0  0  0  0  0  0
  189.8580  176.9920  145.6920 C   0  0  0  0  0  2  0  0  0  0  0  0
  190.1790  177.2040  141.1760 C   0  0  0  0  0  2  0  0  0  0  0  0
  188.3620  177.4930  142.6930 C   0  0  1  0  0  3  0  0  0  0  0  0
  188.7220  177.3370  141.2790 N   0  0  1  0  0  0  0  0  0  0  0  0
  186.8430  178.8560  140.6500 C   0  0  1  0  0  3  0  0  0  0  0  0
  182.5790  177.9230  139.3150 C   0  0  0  0  0  2  0  0  0  0  0  0
  187.5610  178.3940  147.5920 C   0  0  0  0  0  2  0  0  0  0  0  0
  188.5290  176.6040  145.0380 C   0  0  1  0  0  3  0  0  0  0  0  0
  182.6900  178.5770  140.6740 C   0  0  0  0  0  2  0  0  0  0  0  0
  186.9370  177.4580  146.5580 C   0  0  0  0  0  2  0  0  0  0  0  0
  189.7490  177.1580  147.2020 C   0  0  1  0  0  3  0  0  0  0  0  0
  188.8870  178.6810  139.1550 C   0  0  0  0  0  2  0  0  0  0  0  0
  188.3550  178.5960  140.5990 C   0  0  2  0  0  3  0  0  0  0  0  0
  186.1010  177.9280  139.8040 N   0  0  0  0  0  2  0  0  0  0  0  0
  186.3950  177.5100  144.3010 C   0  0  0  0  0  2  0  0  0  0  0  0
  184.2240  179.5020  143.1060 O   0  0  0  0  0  1  0  0  0  0  0  0
  183.9780  177.7670  137.4530 C   0  0  0  0  0  1  0  0  0  0  0  0
  186.2840  178.8050  142.0850 C   0  0  2  0  0  3  0  0  0  0  0  0
  184.8060  178.5420  139.5000 C   0  0  2  0  0  3  0  0  0  0  0  0
  191.0870  177.1360  147.7750 N   0  0  0  0  0  2  0  0  0  0  0  0
  191.8750  175.9460  147.8440 C   0  0  0  0  0  0  0  0  0  0  0  0
  191.4400  174.8590  147.3810 O   0  0  0  0  0  0  0  0  0  0  0  0
  193.2240  175.9950  148.4630 C   0  0  0  0  0  1  0  0  0  0  0  0
  1 16  1  0  0  0  0
  2 24  1  1  0  0  0
  3 11  1  0  0  0  0
  4 21  1  0  0  0  0
  4  3  1  0  0  0  0
  5 27  1  0  0  0  0
  5 25  1  1  0  0  0
  6 18  1  1  0  0  0
  6  5  1  0  0  0  0
  7 24  1  6  0  0  0
  7 19  1  0  0  0  0
  9 15  1  0  0  0  0
  9 28  1  0  0  0  0
 10 20  1  0  0  0  0
 12  2  1  0  0  0  0
 12  8  1  1  0  0  0
 13 11  1  1  0  0  0
 13 12  1  0  0  0  0
 14 23  1  6  0  0  0
 14 27  1  0  0  0  0
 15 18  1  0  0  0  0
 17  8  1  6  0  0  0
 17  7  1  0  0  0  0
 17 10  1  0  0  0  0
 19 16  1  0  0  0  0
 20  1  1  0  0  0  0
 20 29  1  1  0  0  0
 22 21  1  6  0  0  0
 22 14  1  0  0  0  0
 22 13  1  0  0  0  0
 26  9  1  0  0  0  0
 27  2  1  0  0  0  0
 28 23  1  0  0  0  0
 28  6  1  0  0  0  0
 29 30  1  0  0  0  0
 30 32  1  0  0  0  0
 31 30  2  0  0  0  0
M  END
>  <MODEL>
2

>  <REMARK>
 VINA RESULT:      -8.6      1.999      8.087
  Name = 
  1 active torsions:
  status: ('A' for Active; 'I' for Inactive)
    1  A    between atoms: C_20  and  N_29
                            x       y       z     vdW  Elec       q    Type
                         _______ _______ _______ _____ _____    ______ ____

>  <TORSDO>
F 1

$$$$
=
 OpenBabel11122410463D

 32 37  0  0  1  0  0  0  0  0999 V2000
  187.3680  176.8070  144.1740 C   0  0  0  0  0  2  0  0  0  0  0  0
  183.5560  178.6540  141.0430 C   0  0  1  0  0  3  0  0  0  0  0  0
  179.6830  179.2960  144.0090 C   0  0  0  0  0  2  0  0  0  0  0  0
  178.9310  179.1260  142.6870 C   0  0  0  0  0  2  0  0  0  0  0  0
  183.2420  177.8990  138.6770 C   0  0  2  0  0  3  0  0  0  0  0  0
  182.0850  177.7800  137.6730 C   0  0  2  0  0  3  0  0  0  0  0  0
  185.6840  178.1440  142.2520 N   0  0  2  0  0  0  0  0  0  0  0  0
  183.8810  179.5550  143.3060 C   0  0  0  0  0  2  0  0  0  0  0  0
  180.5270  179.6030  137.3040 N   0  0  0  0  0  0  0  0  0  0  0  0
  185.5910  178.4550  144.7110 C   0  0  0  0  0  2  0  0  0  0  0  0
  181.1500  178.8630  143.9050 C   0  0  0  0  0  2  0  0  0  0  0  0
  183.0420  178.5800  142.4820 C   0  0  1  0  0  3  0  0  0  0  0  0
  181.6100  178.8950  142.5130 N   0  0  1  0  0  0  0  0  0  0  0  0
  181.3220  177.7210  140.3270 C   0  0  1  0  0  3  0  0  0  0  0  0
  181.2410  179.3470  136.0630 C   0  0  0  0  0  2  0  0  0  0  0  0
  187.8530  177.0800  142.7490 C   0  0  0  0  0  2  0  0  0  0  0  0
  185.3490  179.0920  143.3410 C   0  0  1  0  0  3  0  0  0  0  0  0
  182.4450  178.4940  136.3940 C   0  0  0  0  0  2  0  0  0  0  0  0
  187.1240  178.2250  142.0470 C   0  0  0  0  0  2  0  0  0  0  0  0
  187.0510  178.0860  144.9430 C   0  0  1  0  0  3  0  0  0  0  0  0
  179.3800  177.8630  141.9560 C   0  0  0  0  0  2  0  0  0  0  0  0
  180.9130  177.8010  141.8040 C   0  0  2  0  0  3  0  0  0  0  0  0
  180.8030  178.8450  139.5550 N   0  0  0  0  0  2  0  0  0  0  0  0
  185.0900  178.5680  140.9780 C   0  0  0  0  0  2  0  0  0  0  0  0
  184.2830  177.0470  138.3060 O   0  0  0  0  0  1  0  0  0  0  0  0
  179.1100  179.6010  136.9820 C   0  0  0  0  0  1  0  0  0  0  0  0
  182.8500  177.6310  140.1430 C   0  0  2  0  0  3  0  0  0  0  0  0
  180.7780  178.4430  138.1470 C   0  0  2  0  0  3  0  0  0  0  0  0
  187.2590  177.8620  146.3660 N   0  0  0  0  0  2  0  0  0  0  0  0
  188.5580  177.8430  146.9600 C   0  0  0  0  0  0  0  0  0  0  0  0
  189.5870  178.0460  146.2630 O   0  0  0  0  0  0  0  0  0  0  0  0
  188.6960  177.5870  148.4170 C   0  0  0  0  0  1  0  0  0  0  0  0
  1 20  1  0  0  0  0
  2 24  1  1  0  0  0
  2 12  1  0  0  0  0
  4  3  1  0  0  0  0
  5 25  1  6  0  0  0
  5 27  1  0  0  0  0
  6 18  1  6  0  0  0
  6 28  1  0  0  0  0
  6  5  1  0  0  0  0
  7 24  1  6  0  0  0
  7 17  1  0  0  0  0
  9 28  1  0  0  0  0
 10 20  1  0  0  0  0
 11  3  1  0  0  0  0
 12 13  1  0  0  0  0
 12  8  1  1  0  0  0
 13 11  1  1  0  0  0
 14 23  1  6  0  0  0
 14 22  1  0  0  0  0
 15 18  1  0  0  0  0
 15  9  1  0  0  0  0
 16  1  1  0  0  0  0
 17  8  1  1  0  0  0
 17 10  1  0  0  0  0
 19  7  1  0  0  0  0
 19 16  1  0  0  0  0
 20 29  1  1  0  0  0
 21  4  1  0  0  0  0
 22 21  1  6  0  0  0
 22 13  1  0  0  0  0
 26  9  1  0  0  0  0
 27 14  1  0  0  0  0
 27  2  1  0  0  0  0
 28 23  1  0  0  0  0
 29 30  1  0  0  0  0
 30 32  1  0  0  0  0
 31 30  2  0  0  0  0
M  END
>  <MODEL>
3

>  <REMARK>
 VINA RESULT:      -7.9      1.990      9.350
  Name = 
  1 active torsions:
  status: ('A' for Active; 'I' for Inactive)
    1  A    between atoms: C_20  and  N_29
                            x       y       z     vdW  Elec       q    Type
                         _______ _______ _______ _____ _____    ______ ____

>  <TORSDO>
F 1

$$$$
=
 OpenBabel11122410463D

 32 37  0  0  1  0  0  0  0  0999 V2000
  189.5400  178.6200  148.0720 C   0  0  0  0  0  2  0  0  0  0  0  0
  186.2420  177.7520  144.0570 C   0  0  1  0  0  3  0  0  0  0  0  0
  189.1530  177.1170  140.1420 C   0  0  0  0  0  2  0  0  0  0  0  0
  187.8900  177.5810  139.4130 C   0  0  0  0  0  2  0  0  0  0  0  0
  184.0290  178.9000  143.8310 C   0  0  2  0  0  3  0  0  0  0  0  0
  183.0800  179.3120  142.6950 C   0  0  2  0  0  3  0  0  0  0  0  0
  187.4690  177.8100  146.2340 N   0  0  2  0  0  0  0  0  0  0  0  0
  188.3290  176.4760  144.2770 C   0  0  0  0  0  2  0  0  0  0  0  0
  182.4650  177.7670  140.9270 N   0  0  0  0  0  0  0  0  0  0  0  0
  189.8520  177.1310  146.1110 C   0  0  0  0  0  2  0  0  0  0  0  0
  189.0870  177.3840  141.6510 C   0  0  0  0  0  2  0  0  0  0  0  0
  187.6850  177.6610  143.5600 C   0  0  1  0  0  3  0  0  0  0  0  0
  187.6970  177.5170  142.1000 N   0  0  1  0  0  0  0  0  0  0  0  0
  185.7260  179.0440  141.9510 C   0  0  1  0  0  3  0  0  0  0  0  0
  181.2640  178.1280  141.6640 C   0  0  0  0  0  2  0  0  0  0  0  0
  188.0800  178.5190  148.5170 C   0  0  0  0  0  2  0  0  0  0  0  0
  188.4050  176.7500  145.7900 C   0  0  1  0  0  3  0  0  0  0  0  0
  181.6980  178.7690  142.9630 C   0  0  0  0  0  2  0  0  0  0  0  0
  187.2240  177.5920  147.6530 C   0  0  0  0  0  2  0  0  0  0  0  0
  190.1080  177.2830  147.6050 C   0  0  1  0  0  3  0  0  0  0  0  0
  187.3540  178.8810  140.0090 C   0  0  0  0  0  2  0  0  0  0  0  0
  187.1820  178.7830  141.5380 C   0  0  2  0  0  3  0  0  0  0  0  0
  184.8010  178.1250  141.2980 N   0  0  0  0  0  2  0  0  0  0  0  0
  186.1580  177.6650  145.5910 C   0  0  0  0  0  2  0  0  0  0  0  0
  183.7720  179.6710  144.9660 O   0  0  0  0  0  1  0  0  0  0  0  0
  182.1780  177.9870  139.5200 C   0  0  0  0  0  1  0  0  0  0  0  0
  185.5270  178.9800  143.4770 C   0  0  2  0  0  3  0  0  0  0  0  0
  183.4730  178.7430  141.3180 C   0  0  2  0  0  3  0  0  0  0  0  0
  191.5430  177.2550  147.8420 N   0  0  0  0  0  2  0  0  0  0  0  0
  192.2570  176.0440  148.0980 C   0  0  0  0  0  0  0  0  0  0  0  0
  191.6600  174.9350  148.1040 O   0  0  0  0  0  0  0  0  0  0  0  0
  193.7190  176.0940  148.3530 C   0  0  0  0  0  1  0  0  0  0  0  0
  1 16  1  0  0  0  0
  2 24  1  1  0  0  0
  3 11  1  0  0  0  0
  4 21  1  0  0  0  0
  4  3  1  0  0  0  0
  5 25  1  1  0  0  0
  6 18  1  1  0  0  0
  6  5  1  0  0  0  0
  7 24  1  6  0  0  0
  7 19  1  0  0  0  0
  9 28  1  0  0  0  0
  9 15  1  0  0  0  0
 10 20  1  0  0  0  0
 12  2  1  0  0  0  0
 12  8  1  1  0  0  0
 13 11  1  6  0  0  0
 13 12  1  0  0  0  0
 14 23  1  6  0  0  0
 14 27  1  0  0  0  0
 15 18  1  0  0  0  0
 17  8  1  6  0  0  0
 17 10  1  0  0  0  0
 17  7  1  0  0  0  0
 19 16  1  0  0  0  0
 20 29  1  6  0  0  0
 20  1  1  0  0  0  0
 22 21  1  6  0  0  0
 22 14  1  0  0  0  0
 22 13  1  0  0  0  0
 23 28  1  0  0  0  0
 26  9  1  0  0  0  0
 27  5  1  0  0  0  0
 27  2  1  0  0  0  0
 28  6  1  0  0  0  0
 29 30  1  0  0  0  0
 30 31  2  0  0  0  0
 30 32  1  0  0  0  0
M  END
>  <MODEL>
4

>  <REMARK>
 VINA RESULT:      -7.3      1.965      8.112
  Name = 
  1 active torsions:
  status: ('A' for Active; 'I' for Inactive)
    1  A    between atoms: C_20  and  N_29
                            x       y       z     vdW  Elec       q    Type
                         _______ _______ _______ _____ _____    ______ ____

>  <TORSDO>
F 1

$$$$
=
 OpenBabel11122410463D

 32 37  0  0  1  0  0  0  0  0999 V2000
  189.8190  178.1370  146.0390 C   0  0  0  0  0  2  0  0  0  0  0  0
  187.7440  177.2480  141.2790 C   0  0  1  0  0  3  0  0  0  0  0  0
  191.6070  176.4140  138.3500 C   0  0  0  0  0  2  0  0  0  0  0  0
  190.6150  176.8930  137.2870 C   0  0  0  0  0  2  0  0  0  0  0  0
  185.7250  178.4530  140.4200 C   0  0  2  0  0  3  0  0  0  0  0  0
  185.1470  178.8590  139.0550 C   0  0  2  0  0  3  0  0  0  0  0  0
  188.3160  177.3340  143.7110 N   0  0  2  0  0  0  0  0  0  0  0  0
  189.6390  175.9190  142.1000 C   0  0  0  0  0  2  0  0  0  0  0  0
  184.9940  177.2810  137.2170 N   0  0  0  0  0  0  0  0  0  0  0  0
  190.6120  176.5820  144.2730 C   0  0  0  0  0  2  0  0  0  0  0  0
  191.1320  176.7270  139.7740 C   0  0  0  0  0  2  0  0  0  0  0  0
  189.2640  177.1000  141.2080 C   0  0  1  0  0  3  0  0  0  0  0  0
  189.6780  176.9130  139.8120 N   0  0  1  0  0  0  0  0  0  0  0  0
  187.8840  178.4920  139.0870 C   0  0  1  0  0  3  0  0  0  0  0  0
  183.6490  177.6990  137.5820 C   0  0  0  0  0  2  0  0  0  0  0  0
  188.2900  178.0910  146.0590 C   0  0  0  0  0  2  0  0  0  0  0  0
  189.2990  176.2350  143.5680 C   0  0  1  0  0  3  0  0  0  0  0  0
  183.7260  178.3650  138.9370 C   0  0  0  0  0  2  0  0  0  0  0  0
  187.6770  177.1650  145.0090 C   0  0  0  0  0  2  0  0  0  0  0  0
  190.4460  176.7710  145.7760 C   0  0  1  0  0  3  0  0  0  0  0  0
  189.9820  178.2250  137.6830 C   0  0  0  0  0  2  0  0  0  0  0  0
  189.3860  178.1760  139.1040 C   0  0  2  0  0  3  0  0  0  0  0  0
  187.1450  177.5810  138.2200 N   0  0  0  0  0  2  0  0  0  0  0  0
  187.2320  177.2090  142.7300 C   0  0  0  0  0  2  0  0  0  0  0  0
  185.1890  179.2640  141.4220 O   0  0  0  0  0  1  0  0  0  0  0  0
  185.1190  177.4690  135.7830 C   0  0  0  0  0  1  0  0  0  0  0  0
  187.2640  178.4790  140.4980 C   0  0  2  0  0  3  0  0  0  0  0  0
  185.8870  178.2380  137.8550 C   0  0  2  0  0  3  0  0  0  0  0  0
  191.7560  176.7070  146.4060 N   0  0  0  0  0  2  0  0  0  0  0  0
  192.0810  175.7470  147.4120 C   0  0  0  0  0  0  0  0  0  0  0  0
  191.2340  174.8900  147.7790 O   0  0  0  0  0  0  0  0  0  0  0  0
  193.4330  175.7560  148.0270 C   0  0  0  0  0  1  0  0  0  0  0  0
  1 16  1  0  0  0  0
  2 24  1  1  0  0  0
  3 11  1  0  0  0  0
  4 21  1  0  0  0  0
  4  3  1  0  0  0  0
  5 27  1  0  0  0  0
  5 25  1  1  0  0  0
  6 18  1  1  0  0  0
  6  5  1  0  0  0  0
  7 24  1  6  0  0  0
  7 19  1  0  0  0  0
  9 15  1  0  0  0  0
  9 28  1  0  0  0  0
 10 20  1  0  0  0  0
 12  2  1  0  0  0  0
 12  8  1  1  0  0  0
 13 11  1  1  0  0  0
 13 12  1  0  0  0  0
 14 23  1  6  0  0  0
 14 22  1  0  0  0  0
 14 27  1  0  0  0  0
 15 18  1  0  0  0  0
 17  8  1  6  0  0  0
 17  7  1  0  0  0  0
 17 10  1  0  0  0  0
 19 16  1  0  0  0  0
 20  1  1  0  0  0  0
 20 29  1  1  0  0  0
 22 21  1  6  0  0  0
 22 13  1  0  0  0  0
 26  9  1  0  0  0  0
 27  2  1  0  0  0  0
 28 23  1  0  0  0  0
 28  6  1  0  0  0  0
 29 30  1  0  0  0  0
 30 31  2  0  0  0  0
 30 32  1  0  0  0  0
M  END
>  <MODEL>
5

>  <REMARK>
 VINA RESULT:      -7.0      2.651      8.478
  Name = 
  1 active torsions:
  status: ('A' for Active; 'I' for Inactive)
    1  A    between atoms: C_20  and  N_29
                            x       y       z     vdW  Elec       q    Type
                         _______ _______ _______ _____ _____    ______ ____

>  <TORSDO>
F 1

$$$$
=
 OpenBabel11122410463D

 32 37  0  0  1  0  0  0  0  0999 V2000
  186.2630  177.0650  137.1970 C   0  0  0  0  0  2  0  0  0  0  0  0
  187.4110  178.2500  142.2000 C   0  0  1  0  0  3  0  0  0  0  0  0
  192.0560  176.7530  142.8200 C   0  0  0  0  0  2  0  0  0  0  0  0
  191.5980  176.6840  144.2790 C   0  0  0  0  0  2  0  0  0  0  0  0
  185.7510  178.0710  144.0640 C   0  0  2  0  0  3  0  0  0  0  0  0
  185.7770  177.8300  145.5810 C   0  0  2  0  0  3  0  0  0  0  0  0
  186.6390  178.1990  139.8230 N   0  0  2  0  0  0  0  0  0  0  0  0
  189.0580  178.5920  140.4090 C   0  0  0  0  0  2  0  0  0  0  0  0
  187.2900  179.0460  147.0380 N   0  0  0  0  0  0  0  0  0  0  0  0
  188.4290  177.8150  138.1490 C   0  0  0  0  0  2  0  0  0  0  0  0
  190.8800  176.8860  141.8460 C   0  0  0  0  0  2  0  0  0  0  0  0
  188.6400  177.6370  141.5260 C   0  0  1  0  0  3  0  0  0  0  0  0
  189.6970  177.4290  142.5220 N   0  0  1  0  0  0  0  0  0  0  0  0
  187.9610  176.8330  144.2150 C   0  0  1  0  0  3  0  0  0  0  0  0
  185.9230  179.3760  147.4110 C   0  0  0  0  0  2  0  0  0  0  0  0
  185.1440  177.8430  137.8930 C   0  0  0  0  0  2  0  0  0  0  0  0
  187.9590  178.6620  139.3340 C   0  0  1  0  0  3  0  0  0  0  0  0
  185.0190  178.9280  146.2850 C   0  0  0  0  0  2  0  0  0  0  0  0
  185.6310  178.8130  138.9690 C   0  0  0  0  0  2  0  0  0  0  0  0
  187.5030  177.9160  136.9430 C   0  0  1  0  0  3  0  0  0  0  0  0
  190.3060  175.8820  144.4150 C   0  0  0  0  0  2  0  0  0  0  0  0
  189.2140  176.3860  143.4500 C   0  0  2  0  0  3  0  0  0  0  0  0
  188.2610  177.8730  145.1930 N   0  0  0  0  0  2  0  0  0  0  0  0
  186.3640  178.7090  141.1700 C   0  0  0  0  0  2  0  0  0  0  0  0
  184.4920  177.7490  143.5540 O   0  0  0  0  0  1  0  0  0  0  0  0
  187.9730  178.6470  148.2560 C   0  0  0  0  0  1  0  0  0  0  0  0
  186.8390  177.3170  143.2760 C   0  0  2  0  0  3  0  0  0  0  0  0
  187.1900  177.8640  146.1940 C   0  0  2  0  0  3  0  0  0  0  0  0
  188.2030  177.4170  135.7690 N   0  0  0  0  0  2  0  0  0  0  0  0
  189.1350  176.3350  135.8300 C   0  0  0  0  0  0  0  0  0  0  0  0
  189.3690  175.7500  136.9200 O   0  0  0  0  0  0  0  0  0  0  0  0
  189.8300  175.8940  134.5940 C   0  0  0  0  0  1  0  0  0  0  0  0
  1 16  1  0  0  0  0
  2 24  1  6  0  0  0
  2 27  1  0  0  0  0
  3  4  1  0  0  0  0
  4 21  1  0  0  0  0
  5 25  1  6  0  0  0
  5  6  1  0  0  0  0
  6 28  1  0  0  0  0
  6 18  1  1  0  0  0
  7 19  1  6  0  0  0
  7 24  1  0  0  0  0
  9 15  1  0  0  0  0
  9 26  1  0  0  0  0
 11  3  1  0  0  0  0
 12  8  1  6  0  0  0
 12  2  1  0  0  0  0
 12 13  1  0  0  0  0
 13 11  1  6  0  0  0
 13 22  1  0  0  0  0
 14 23  1  1  0  0  0
 16 19  1  0  0  0  0
 17 10  1  6  0  0  0
 17  7  1  0  0  0  0
 17  8  1  0  0  0  0
 18 15  1  0  0  0  0
 20 29  1  6  0  0  0
 20  1  1  0  0  0  0
 20 10  1  0  0  0  0
 22 14  1  0  0  0  0
 22 21  1  1  0  0  0
 23 28  1  0  0  0  0
 27  5  1  0  0  0  0
 27 14  1  0  0  0  0
 28  9  1  0  0  0  0
 29 30  1  0  0  0  0
 30 31  2  0  0  0  0
 32 30  1  0  0  0  0
M  END
>  <MODEL>
6

>  <REMARK>
 VINA RESULT:      -6.8      3.120      4.263
  Name = 
  1 active torsions:
  status: ('A' for Active; 'I' for Inactive)
    1  A    between atoms: C_20  and  N_29
                            x       y       z     vdW  Elec       q    Type
                         _______ _______ _______ _____ _____    ______ ____

>  <TORSDO>
F 1

$$$$
=
 OpenBabel11122410463D

 32 37  0  0  1  0  0  0  0  0999 V2000
  189.0700  176.7470  141.3320 C   0  0  0  0  0  2  0  0  0  0  0  0
  184.5900  178.4450  139.1440 C   0  0  1  0  0  3  0  0  0  0  0  0
  181.4740  179.0020  142.9100 C   0  0  0  0  0  2  0  0  0  0  0  0
  180.4470  178.7950  141.7950 C   0  0  0  0  0  2  0  0  0  0  0  0
  183.7710  177.6570  136.9140 C   0  0  2  0  0  3  0  0  0  0  0  0
  182.4200  177.4920  136.1990 C   0  0  2  0  0  3  0  0  0  0  0  0
  186.9520  178.0130  139.8380 N   0  0  2  0  0  0  0  0  0  0  0  0
  185.3920  179.3790  141.2700 C   0  0  0  0  0  2  0  0  0  0  0  0
  180.7620  179.2640  136.1880 N   0  0  0  0  0  0  0  0  0  0  0  0
  187.4110  178.3460  142.2530 C   0  0  0  0  0  2  0  0  0  0  0  0
  182.8920  178.6120  142.4770 C   0  0  0  0  0  2  0  0  0  0  0  0
  184.4190  178.3710  140.6620 C   0  0  1  0  0  3  0  0  0  0  0  0
  183.0220  178.6430  141.0160 N   0  0  1  0  0  0  0  0  0  0  0  0
  182.2830  177.4380  138.9570 C   0  0  1  0  0  3  0  0  0  0  0  0
  181.1830  179.0160  134.8180 C   0  0  0  0  0  2  0  0  0  0  0  0
  189.2100  177.0190  139.8330 C   0  0  0  0  0  2  0  0  0  0  0  0
  186.8430  178.9610  140.9710 C   0  0  1  0  0  3  0  0  0  0  0  0
  182.4570  178.2030  134.8690 C   0  0  0  0  0  2  0  0  0  0  0  0
  188.3050  178.1340  139.3110 C   0  0  0  0  0  2  0  0  0  0  0  0
  188.8960  178.0230  142.1490 C   0  0  1  0  0  3  0  0  0  0  0  0
  180.7580  177.5380  140.9840 C   0  0  0  0  0  2  0  0  0  0  0  0
  182.2170  177.5210  140.4890 C   0  0  2  0  0  3  0  0  0  0  0  0
  181.5670  178.5380  138.3200 N   0  0  0  0  0  2  0  0  0  0  0  0
  186.0710  178.4040  138.7320 C   0  0  0  0  0  2  0  0  0  0  0  0
  184.7270  176.8320  136.3180 O   0  0  0  0  0  1  0  0  0  0  0  0
  179.3100  179.2160  136.1970 C   0  0  0  0  0  1  0  0  0  0  0  0
  183.7300  177.3920  138.4310 C   0  0  2  0  0  3  0  0  0  0  0  0
  181.2340  178.1210  136.9560 C   0  0  2  0  0  3  0  0  0  0  0  0
  189.4290  177.8210  143.4870 N   0  0  0  0  0  2  0  0  0  0  0  0
  190.8310  177.7750  143.7590 C   0  0  0  0  0  0  0  0  0  0  0  0
  191.6700  177.9350  142.8340 O   0  0  0  0  0  0  0  0  0  0  0  0
  191.3020  177.5430  145.1480 C   0  0  0  0  0  1  0  0  0  0  0  0
  1 20  1  0  0  0  0
  2 24  1  1  0  0  0
  2 12  1  0  0  0  0
  4  3  1  0  0  0  0
  5 25  1  6  0  0  0
  5 27  1  0  0  0  0
  6 18  1  6  0  0  0
  6  5  1  0  0  0  0
  6 28  1  0  0  0  0
  7 24  1  6  0  0  0
  7 17  1  0  0  0  0
  9 26  1  0  0  0  0
  9 28  1  0  0  0  0
 11  3  1  0  0  0  0
 12 13  1  0  0  0  0
 12  8  1  1  0  0  0
 13 11  1  1  0  0  0
 14 23  1  6  0  0  0
 14 22  1  0  0  0  0
 15 18  1  0  0  0  0
 15  9  1  0  0  0  0
 16  1  1  0  0  0  0
 17  8  1  1  0  0  0
 17 10  1  0  0  0  0
 19 16  1  0  0  0  0
 19  7  1  0  0  0  0
 20 10  1  0  0  0  0
 20 29  1  1  0  0  0
 21  4  1  0  0  0  0
 22 21  1  6  0  0  0
 22 13  1  0  0  0  0
 27 14  1  0  0  0  0
 27  2  1  0  0  0  0
 28 23  1  0  0  0  0
 29 30  1  0  0  0  0
 30 32  1  0  0  0  0
 31 30  2  0  0  0  0
M  END
>  <MODEL>
7

>  <REMARK>
 VINA RESULT:      -6.4      2.809      9.483
  Name = 
  1 active torsions:
  status: ('A' for Active; 'I' for Inactive)
    1  A    between atoms: C_20  and  N_29
                            x       y       z     vdW  Elec       q    Type
                         _______ _______ _______ _____ _____    ______ ____

>  <TORSDO>
F 1

$$$$
=
 OpenBabel11122410463D

 32 37  0  0  1  0  0  0  0  0999 V2000
  189.2460  176.5300  140.8920 C   0  0  0  0  0  2  0  0  0  0  0  0
  184.5990  178.8310  139.9640 C   0  0  1  0  0  3  0  0  0  0  0  0
  182.3820  179.0210  144.3520 C   0  0  0  0  0  2  0  0  0  0  0  0
  181.1350  179.0520  143.4660 C   0  0  0  0  0  2  0  0  0  0  0  0
  183.2720  178.4430  137.8770 C   0  0  2  0  0  3  0  0  0  0  0  0
  181.7950  178.4780  137.4550 C   0  0  2  0  0  3  0  0  0  0  0  0
  187.0000  178.1440  140.0700 N   0  0  2  0  0  0  0  0  0  0  0  0
  185.9030  179.3800  141.9730 C   0  0  0  0  0  2  0  0  0  0  0  0
  180.3480  180.3370  138.0360 N   0  0  0  0  0  0  0  0  0  0  0  0
  187.9700  178.0800  142.3530 C   0  0  0  0  0  2  0  0  0  0  0  0
  183.6390  178.6080  143.5760 C   0  0  0  0  0  2  0  0  0  0  0  0
  184.7340  178.5410  141.4600 C   0  0  1  0  0  3  0  0  0  0  0  0
  183.4710  178.8490  142.1390 N   0  0  1  0  0  0  0  0  0  0  0  0
  182.2160  178.0190  140.1450 C   0  0  1  0  0  3  0  0  0  0  0  0
  180.4560  180.2700  136.5860 C   0  0  0  0  0  2  0  0  0  0  0  0
  189.1030  177.0150  139.4480 C   0  0  0  0  0  2  0  0  0  0  0  0
  187.2160  178.9160  141.3170 C   0  0  1  0  0  3  0  0  0  0  0  0
  181.6300  179.3760  136.2540 C   0  0  0  0  0  2  0  0  0  0  0  0
  188.2230  178.2530  139.2860 C   0  0  0  0  0  2  0  0  0  0  0  0
  189.3650  177.6780  141.8900 C   0  0  1  0  0  3  0  0  0  0  0  0
  181.1520  177.9140  142.4480 C   0  0  0  0  0  2  0  0  0  0  0  0
  182.4720  177.8750  141.6520 C   0  0  2  0  0  3  0  0  0  0  0  0
  181.4950  179.2470  139.8290 N   0  0  0  0  0  2  0  0  0  0  0  0
  185.9550  178.7550  139.2410 C   0  0  0  0  0  2  0  0  0  0  0  0
  184.0030  177.6560  136.9860 O   0  0  0  0  0  1  0  0  0  0  0  0
  178.9310  180.3840  138.3500 C   0  0  0  0  0  1  0  0  0  0  0  0
  183.5160  177.9560  139.3190 C   0  0  2  0  0  3  0  0  0  0  0  0
  180.8540  179.0620  138.5250 C   0  0  2  0  0  3  0  0  0  0  0  0
  190.1370  177.2420  143.0430 N   0  0  0  0  0  2  0  0  0  0  0  0
  190.8960  178.1470  143.8480 C   0  0  0  0  0  0  0  0  0  0  0  0
  190.9040  179.3800  143.5950 O   0  0  0  0  0  0  0  0  0  0  0  0
  191.6780  177.6270  144.9990 C   0  0  0  0  0  1  0  0  0  0  0  0
  1 20  1  0  0  0  0
  2 24  1  6  0  0  0
  2 12  1  0  0  0  0
  4  3  1  0  0  0  0
  5 25  1  6  0  0  0
  5 27  1  0  0  0  0
  6 18  1  6  0  0  0
  6  5  1  0  0  0  0
  6 28  1  0  0  0  0
  7 24  1  6  0  0  0
  7 17  1  0  0  0  0
  9 26  1  0  0  0  0
  9 28  1  0  0  0  0
 11  3  1  0  0  0  0
 12  8  1  1  0  0  0
 12 13  1  0  0  0  0
 13 11  1  1  0  0  0
 14 23  1  1  0  0  0
 14 22  1  0  0  0  0
 15  9  1  0  0  0  0
 16  1  1  0  0  0  0
 17  8  1  1  0  0  0
 17 10  1  0  0  0  0
 18 15  1  0  0  0  0
 19 16  1  0  0  0  0
 19  7  1  0  0  0  0
 20 10  1  0  0  0  0
 20 29  1  1  0  0  0
 21  4  1  0  0  0  0
 22 13  1  0  0  0  0
 22 21  1  1  0  0  0
 27  2  1  0  0  0  0
 27 14  1  0  0  0  0
 28 23  1  0  0  0  0
 29 30  1  0  0  0  0
 30 32  1  0  0  0  0
 31 30  2  0  0  0  0
M  END
>  <MODEL>
8

>  <REMARK>
 VINA RESULT:      -6.2      2.753      9.060
  Name = 
  1 active torsions:
  status: ('A' for Active; 'I' for Inactive)
    1  A    between atoms: C_20  and  N_29
                            x       y       z     vdW  Elec       q    Type
                         _______ _______ _______ _____ _____    ______ ____

>  <TORSDO>
F 1

$$$$
=
 OpenBabel11122410463D

 32 37  0  0  1  0  0  0  0  0999 V2000
  191.1030  175.8640  138.0020 C   0  0  0  0  0  2  0  0  0  0  0  0
  188.8820  177.9180  142.3150 C   0  0  1  0  0  3  0  0  0  0  0  0
  191.9550  176.7790  145.9850 C   0  0  0  0  0  2  0  0  0  0  0  0
  190.6700  176.9300  146.8030 C   0  0  0  0  0  2  0  0  0  0  0  0
  186.4080  177.9670  142.6890 C   0  0  2  0  0  3  0  0  0  0  0  0
  185.4460  177.9830  143.8870 C   0  0  2  0  0  3  0  0  0  0  0  0
  189.7980  177.4350  140.0400 N   0  0  2  0  0  0  0  0  0  0  0  0
  191.3100  178.0400  141.9630 C   0  0  0  0  0  2  0  0  0  0  0  0
  185.7640  179.4970  145.7570 N   0  0  0  0  0  0  0  0  0  0  0  0
  192.2130  176.8690  139.9820 C   0  0  0  0  0  2  0  0  0  0  0  0
  191.6800  176.6890  144.4790 C   0  0  0  0  0  2  0  0  0  0  0  0
  190.2140  177.2650  142.6890 C   0  0  1  0  0  3  0  0  0  0  0  0
  190.3780  177.2770  144.1470 N   0  0  1  0  0  0  0  0  0  0  0  0
  187.9260  176.8840  144.4100 C   0  0  1  0  0  3  0  0  0  0  0  0
  184.4990  179.8160  145.1130 C   0  0  0  0  0  2  0  0  0  0  0  0
  189.8540  176.6900  137.6890 C   0  0  0  0  0  2  0  0  0  0  0  0
  191.1550  177.8760  140.4400 C   0  0  1  0  0  3  0  0  0  0  0  0
  184.4900  179.1420  143.7590 C   0  0  0  0  0  2  0  0  0  0  0  0
  189.6090  177.8480  138.6560 C   0  0  0  0  0  2  0  0  0  0  0  0
  192.2750  176.7220  138.4670 C   0  0  1  0  0  3  0  0  0  0  0  0
  189.5360  176.0980  146.2080 C   0  0  0  0  0  2  0  0  0  0  0  0
  189.3450  176.3800  144.7040 C   0  0  2  0  0  3  0  0  0  0  0  0
  187.6050  178.0850  145.1730 N   0  0  0  0  0  2  0  0  0  0  0  0
  188.7640  178.1470  140.7980 C   0  0  0  0  0  2  0  0  0  0  0  0
  185.7430  177.5020  141.5530 O   0  0  0  0  0  1  0  0  0  0  0  0
  185.4870  179.3400  147.1730 C   0  0  0  0  0  1  0  0  0  0  0  0
  187.6950  177.1490  142.9090 C   0  0  2  0  0  3  0  0  0  0  0  0
  186.1450  178.1880  145.2450 C   0  0  2  0  0  3  0  0  0  0  0  0
  193.5270  176.0720  138.1080 N   0  0  0  0  0  2  0  0  0  0  0  0
  193.9560  175.9220  136.7540 C   0  0  0  0  0  0  0  0  0  0  0  0
  193.2630  176.3780  135.8060 O   0  0  0  0  0  0  0  0  0  0  0  0
  195.2350  175.2270  136.4620 C   0  0  0  0  0  1  0  0  0  0  0  0
  1 20  1  0  0  0  0
  2 24  1  6  0  0  0
  2 12  1  0  0  0  0
  2 27  1  0  0  0  0
  3  4  1  0  0  0  0
  5 25  1  6  0  0  0
  5 27  1  0  0  0  0
  5  6  1  0  0  0  0
  6 18  1  6  0  0  0
  6 28  1  0  0  0  0
  7 19  1  6  0  0  0
  7 17  1  0  0  0  0
  7 24  1  0  0  0  0
  9 26  1  0  0  0  0
 11  3  1  0  0  0  0
 12  8  1  6  0  0  0
 12 13  1  0  0  0  0
 13 11  1  6  0  0  0
 13 22  1  0  0  0  0
 14 22  1  0  0  0  0
 14 23  1  1  0  0  0
 15  9  1  0  0  0  0
 16  1  1  0  0  0  0
 16 19  1  0  0  0  0
 17 10  1  1  0  0  0
 17  8  1  0  0  0  0
 18 15  1  0  0  0  0
 20 29  1  1  0  0  0
 20 10  1  0  0  0  0
 21  4  1  0  0  0  0
 22 21  1  1  0  0  0
 23 28  1  0  0  0  0
 27 14  1  0  0  0  0
 28  9  1  0  0  0  0
 30 29  1  0  0  0  0
 31 30  2  0  0  0  0
 32 30  1  0  0  0  0
M  END
>  <MODEL>
9

>  <REMARK>
 VINA RESULT:      -6.2      3.648      6.916
  Name = 
  1 active torsions:
  status: ('A' for Active; 'I' for Inactive)
    1  A    between atoms: C_20  and  N_29
                            x       y       z     vdW  Elec       q    Type
                         _______ _______ _______ _____ _____    ______ ____

>  <TORSDO>
F 1

$$$$
