=
 OpenBabel11122410433D

 32 37  0  0  1  0  0  0  0  0999 V2000
  180.6480  179.5400  141.2020 C   0  0  0  0  0  2  0  0  0  0  0  0
  185.8300  178.1790  142.7810 C   0  0  0  0  0  0  0  0  0  0  0  0
  189.0350  178.0710  139.1260 C   0  0  0  0  0  3  0  0  0  0  0  0
  190.0200  177.7790  140.0110 N   0  0  0  0  0  0  0  0  0  0  0  0
  186.6670  177.8230  145.1530 C   0  0  0  0  0  0  0  0  0  0  0  0
  187.8010  177.5760  146.0320 C   0  0  0  0  0  0  0  0  0  0  0  0
  183.4690  178.6280  142.1950 C   0  0  0  0  0  0  0  0  0  0  0  0
  185.1050  178.6030  140.4290 N   0  0  0  0  0  2  0  0  0  0  0  0
  189.8950  177.1710  146.5800 N   0  0  0  0  0  0  0  0  0  0  0  0
  182.7110  179.0310  139.8230 C   0  0  0  0  0  2  0  0  0  0  0  0
  187.7290  178.2530  139.5740 C   0  0  0  0  0  3  0  0  0  0  0  0
  186.1610  178.3040  141.3530 C   0  0  0  0  0  0  0  0  0  0  0  0
  187.4280  178.1350  140.9390 C   0  0  0  0  0  0  0  0  0  0  0  0
  188.2400  177.7070  143.1890 C   0  0  0  0  0  0  0  0  0  0  0  0
  189.1750  177.2460  147.7180 C   0  0  0  0  0  3  0  0  0  0  0  0
  181.1020  178.4060  141.9010 O   0  0  0  0  0  0  0  0  0  0  0  0
  183.7570  178.7810  140.8780 C   0  0  0  0  0  0  0  0  0  0  0  0
  187.8400  177.5030  147.4130 C   0  0  0  0  0  3  0  0  0  0  0  0
  182.0990  178.8570  142.7750 C   0  0  0  0  0  2  0  0  0  0  0  0
  181.7040  180.1030  140.2390 C   0  0  1  0  0  3  0  0  0  0  0  0
  189.7690  177.6570  141.3400 C   0  0  0  0  0  3  0  0  0  0  0  0
  188.4710  177.8300  141.8550 C   0  0  0  0  0  0  0  0  0  0  0  0
  189.4060  177.3430  144.1030 C   0  0  0  0  0  2  0  0  0  0  0  0
  184.5520  178.3370  143.1570 C   0  0  0  0  0  3  0  0  0  0  0  0
  185.5200  177.9770  145.6550 O   0  0  0  0  0  0  0  0  0  0  0  0
  191.3200  176.9060  146.4990 C   0  0  0  0  0  1  0  0  0  0  0  0
  186.8920  177.8930  143.7220 N   0  0  0  0  0  0  0  0  0  0  0  0
  189.0560  177.3760  145.5540 C   0  0  0  0  0  0  0  0  0  0  0  0
  181.0410  180.6500  139.0650 N   0  0  0  0  0  2  0  0  0  0  0  0
  181.5560  181.7710  138.3430 C   0  0  0  0  0  0  0  0  0  0  0  0
  182.6100  182.3490  138.7180 O   0  0  0  0  0  0  0  0  0  0  0  0
  180.8370  182.2610  137.1390 C   0  0  0  0  0  1  0  0  0  0  0  0
  1 16  1  0  0  0  0
  2 24  2  0  0  0  0
  2 27  1  0  0  0  0
  3 11  2  0  0  0  0
  3  4  1  0  0  0  0
  4 21  2  0  0  0  0
  5 25  2  0  0  0  0
  5  6  1  0  0  0  0
  6 18  1  0  0  0  0
  7 19  1  0  0  0  0
  7 24  1  0  0  0  0
  8 17  1  0  0  0  0
  8 12  1  0  0  0  0
  9 15  1  0  0  0  0
 10 20  1  0  0  0  0
 10 17  1  0  0  0  0
 11 13  1  0  0  0  0
 12  2  1  0  0  0  0
 13 12  2  0  0  0  0
 13 22  1  0  0  0  0
 14 27  1  0  0  0  0
 14 23  1  0  0  0  0
 16 19  1  0  0  0  0
 17  7  2  0  0  0  0
 18 15  2  0  0  0  0
 20 29  1  6  0  0  0
 20  1  1  0  0  0  0
 21 22  1  0  0  0  0
 22 14  2  0  0  0  0
 23 28  1  0  0  0  0
 26  9  1  0  0  0  0
 27  5  1  0  0  0  0
 28  6  2  0  0  0  0
 28  9  1  0  0  0  0
 30 31  2  0  0  0  0
 30 29  1  0  0  0  0
 32 30  1  0  0  0  0
M  END
>  <MODEL>
1

>  <REMARK>
 VINA RESULT:     -10.4      0.000      0.000
  Name = 
  1 active torsions:
  status: ('A' for Active; 'I' for Inactive)
    1  A    between atoms: C_20  and  N_29
                            x       y       z     vdW  Elec       q    Type
                         _______ _______ _______ _____ _____    ______ ____

>  <TORSDO>
F 1

$$$$
=
 OpenBabel11122410433D

 32 37  0  0  1  0  0  0  0  0999 V2000
  186.0370  178.0690  136.7280 C   0  0  0  0  0  2  0  0  0  0  0  0
  187.2890  178.0240  142.1720 C   0  0  0  0  0  0  0  0  0  0  0  0
  183.4990  178.9630  145.0690 C   0  0  0  0  0  3  0  0  0  0  0  0
  184.2920  178.7780  146.1530 N   0  0  0  0  0  0  0  0  0  0  0  0
  189.5100  177.3890  143.2300 C   0  0  0  0  0  0  0  0  0  0  0  0
  190.2630  177.1430  144.4510 C   0  0  0  0  0  0  0  0  0  0  0  0
  186.9010  178.1550  139.7320 C   0  0  0  0  0  0  0  0  0  0  0  0
  185.0490  178.5710  141.2130 N   0  0  0  0  0  2  0  0  0  0  0  0
  190.6360  177.0230  146.6180 N   0  0  0  0  0  0  0  0  0  0  0  0
  184.6530  178.7340  138.7430 C   0  0  0  0  0  2  0  0  0  0  0  0
  184.0250  178.8230  143.7880 C   0  0  0  0  0  3  0  0  0  0  0  0
  185.8730  178.3680  142.3700 C   0  0  0  0  0  0  0  0  0  0  0  0
  185.3770  178.4900  143.6130 C   0  0  0  0  0  0  0  0  0  0  0  0
  187.5120  177.9700  144.6500 C   0  0  0  0  0  0  0  0  0  0  0  0
  191.7660  176.6520  145.9810 C   0  0  0  0  0  3  0  0  0  0  0  0
  187.0120  178.8030  137.4290 O   0  0  0  0  0  0  0  0  0  0  0  0
  185.5840  178.4410  139.8910 C   0  0  0  0  0  0  0  0  0  0  0  0
  191.5700  176.7140  144.6030 C   0  0  0  0  0  3  0  0  0  0  0  0
  187.5430  177.9330  138.3900 C   0  0  0  0  0  2  0  0  0  0  0  0
  184.8110  177.7400  137.5930 C   0  0  1  0  0  3  0  0  0  0  0  0
  185.6050  178.4540  146.0250 C   0  0  0  0  0  3  0  0  0  0  0  0
  186.1970  178.2970  144.7580 C   0  0  0  0  0  0  0  0  0  0  0  0
  188.3340  177.8140  145.9270 C   0  0  0  0  0  2  0  0  0  0  0  0
  187.7540  177.9270  140.9180 C   0  0  0  0  0  3  0  0  0  0  0  0
  190.0760  177.2330  142.1140 O   0  0  0  0  0  0  0  0  0  0  0  0
  190.4630  177.0930  148.0580 C   0  0  0  0  0  1  0  0  0  0  0  0
  188.1230  177.8010  143.3340 N   0  0  0  0  0  0  0  0  0  0  0  0
  189.7210  177.3180  145.6830 C   0  0  0  0  0  0  0  0  0  0  0  0
  183.6190  177.7470  136.7580 N   0  0  0  0  0  2  0  0  0  0  0  0
  182.5390  176.8310  136.9520 C   0  0  0  0  0  0  0  0  0  0  0  0
  182.5930  175.9550  137.8550 O   0  0  0  0  0  0  0  0  0  0  0  0
  181.3420  176.9120  136.0750 C   0  0  0  0  0  1  0  0  0  0  0  0
  1 16  1  0  0  0  0
  1 20  1  0  0  0  0
  2 12  1  0  0  0  0
  2 27  1  0  0  0  0
  3  4  1  0  0  0  0
  5 27  1  0  0  0  0
  5  6  1  0  0  0  0
  6 18  1  0  0  0  0
  6 28  2  0  0  0  0
  7 17  2  0  0  0  0
  7 24  1  0  0  0  0
  8 12  1  0  0  0  0
  9 26  1  0  0  0  0
 10 17  1  0  0  0  0
 11  3  2  0  0  0  0
 12 13  2  0  0  0  0
 13 11  1  0  0  0  0
 13 22  1  0  0  0  0
 14 22  2  0  0  0  0
 14 23  1  0  0  0  0
 15  9  1  0  0  0  0
 16 19  1  0  0  0  0
 17  8  1  0  0  0  0
 18 15  2  0  0  0  0
 19  7  1  0  0  0  0
 20 29  1  6  0  0  0
 20 10  1  0  0  0  0
 21  4  2  0  0  0  0
 22 21  1  0  0  0  0
 24  2  2  0  0  0  0
 25  5  2  0  0  0  0
 27 14  1  0  0  0  0
 28 23  1  0  0  0  0
 28  9  1  0  0  0  0
 29 30  1  0  0  0  0
 30 31  2  0  0  0  0
 32 30  1  0  0  0  0
M  END
>  <MODEL>
2

>  <REMARK>
 VINA RESULT:     -10.2      2.777      4.612
  Name = 
  1 active torsions:
  status: ('A' for Active; 'I' for Inactive)
    1  A    between atoms: C_20  and  N_29
                            x       y       z     vdW  Elec       q    Type
                         _______ _______ _______ _____ _____    ______ ____

>  <TORSDO>
F 1

$$$$
=
 OpenBabel11122410433D

 32 37  0  0  1  0  0  0  0  0999 V2000
  188.3060  177.5250  148.4680 C   0  0  0  0  0  2  0  0  0  0  0  0
  185.6140  178.4390  143.6600 C   0  0  2  0  0  3  0  0  0  0  0  0
  188.4650  178.1710  139.7300 C   0  0  0  0  0  3  0  0  0  0  0  0
  187.3830  178.3920  138.9420 N   0  0  0  0  0  0  0  0  0  0  0  0
  183.1160  178.7680  143.3390 C   0  0  0  0  0  0  0  0  0  0  0  0
  182.0080  178.9300  142.4100 C   0  0  0  0  0  0  0  0  0  0  0  0
  186.7110  178.1960  145.8640 C   0  0  0  0  0  0  0  0  0  0  0  0
  188.0680  178.0320  143.8830 N   0  0  0  0  0  0  0  0  0  0  0  0
  181.0070  179.1530  140.4600 N   0  0  0  0  0  0  0  0  0  0  0  0
  189.1920  177.8120  146.1130 C   0  0  0  0  0  2  0  0  0  0  0  0
  188.3190  178.1210  141.1130 C   0  0  0  0  0  3  0  0  0  0  0  0
  186.9330  178.2530  143.0340 C   0  0  0  0  0  0  0  0  0  0  0  0
  187.0550  178.2960  141.6970 C   0  0  0  0  0  0  0  0  0  0  0  0
  184.6810  178.6970  141.3670 C   0  0  0  0  0  0  0  0  0  0  0  0
  180.0580  179.1690  141.4190 C   0  0  0  0  0  3  0  0  0  0  0  0
  187.5250  178.6280  148.0750 O   0  0  0  0  0  0  0  0  0  0  0  0
  187.9300  177.9890  145.3080 C   0  0  0  0  0  0  0  0  0  0  0  0
  180.6520  179.0300  142.6710 C   0  0  0  0  0  3  0  0  0  0  0  0
  186.4500  178.1060  147.3430 C   0  0  0  0  0  2  0  0  0  0  0  0
  189.0090  176.8470  147.2830 C   0  0  1  0  0  3  0  0  0  0  0  0
  186.1440  178.5650  139.4680 C   0  0  0  0  0  3  0  0  0  0  0  0
  185.9300  178.5240  140.8580 C   0  0  0  0  0  0  0  0  0  0  0  0
  183.5310  178.9720  140.4030 C   0  0  0  0  0  2  0  0  0  0  0  0
  185.5320  178.4070  144.9980 C   0  0  0  0  0  3  0  0  0  0  0  0
  182.8820  178.7320  144.5780 O   0  0  0  0  0  0  0  0  0  0  0  0
  180.7700  179.2850  139.0340 C   0  0  0  0  0  1  0  0  0  0  0  0
  184.4610  178.6470  142.8100 N   0  0  0  0  0  0  0  0  0  0  0  0
  182.1940  179.0030  141.0670 C   0  0  0  0  0  0  0  0  0  0  0  0
  190.3000  176.3370  147.7180 N   0  0  0  0  0  2  0  0  0  0  0  0
  191.3900  176.1300  146.8170 C   0  0  0  0  0  0  0  0  0  0  0  0
  191.2600  176.3650  145.5870 O   0  0  0  0  0  0  0  0  0  0  0  0
  192.6880  175.6290  147.3370 C   0  0  0  0  0  1  0  0  0  0  0  0
  2 24  1  6  0  0  0
  3 11  2  0  0  0  0
  4 21  2  0  0  0  0
  4  3  1  0  0  0  0
  5 25  2  0  0  0  0
  6 18  1  0  0  0  0
  6  5  1  0  0  0  0
  7 19  1  0  0  0  0
  8 17  2  0  0  0  0
  9 28  1  0  0  0  0
  9 15  1  0  0  0  0
 10 20  1  0  0  0  0
 11 13  1  0  0  0  0
 12  2  1  0  0  0  0
 12  8  1  0  0  0  0
 13 12  2  0  0  0  0
 14 27  1  0  0  0  0
 15 18  2  0  0  0  0
 16  1  1  0  0  0  0
 17  7  1  0  0  0  0
 17 10  1  0  0  0  0
 19 16  1  0  0  0  0
 20 29  1  1  0  0  0
 20  1  1  0  0  0  0
 21 22  1  0  0  0  0
 22 14  2  0  0  0  0
 22 13  1  0  0  0  0
 23 28  1  0  0  0  0
 23 14  1  0  0  0  0
 24  7  2  0  0  0  0
 26  9  1  0  0  0  0
 27  5  1  0  0  0  0
 27  2  1  0  0  0  0
 28  6  2  0  0  0  0
 30 32  1  0  0  0  0
 30 29  1  0  0  0  0
 31 30  2  0  0  0  0
M  END
>  <MODEL>
3

>  <REMARK>
 VINA RESULT:     -10.0      2.033      8.106
  Name = 
  1 active torsions:
  status: ('A' for Active; 'I' for Inactive)
    1  A    between atoms: C_20  and  N_29
                            x       y       z     vdW  Elec       q    Type
                         _______ _______ _______ _____ _____    ______ ____

>  <TORSDO>
F 1

$$$$
=
 OpenBabel11122410433D

 32 37  0  0  1  0  0  0  0  0999 V2000
  189.3650  177.1420  137.2140 C   0  0  0  0  0  2  0  0  0  0  0  0
  187.8410  177.9230  142.5310 C   0  0  0  0  0  0  0  0  0  0  0  0
  183.1470  179.0640  143.0830 C   0  0  0  0  0  3  0  0  0  0  0  0
  183.3160  179.0730  144.4280 N   0  0  0  0  0  0  0  0  0  0  0  0
  189.2630  177.5580  144.6040 C   0  0  0  0  0  0  0  0  0  0  0  0
  189.3300  177.5240  146.0580 C   0  0  0  0  0  0  0  0  0  0  0  0
  188.6780  177.6920  140.2150 C   0  0  0  0  0  0  0  0  0  0  0  0
  186.3520  178.2160  140.5480 N   0  0  0  0  0  2  0  0  0  0  0  0
  188.6110  177.7280  148.1290 N   0  0  0  0  0  0  0  0  0  0  0  0
  187.1980  178.0110  138.1970 C   0  0  0  0  0  2  0  0  0  0  0  0
  184.2220  178.7740  142.2480 C   0  0  0  0  0  3  0  0  0  0  0  0
  186.5120  178.2190  141.9730 C   0  0  0  0  0  0  0  0  0  0  0  0
  185.4830  178.4890  142.7930 C   0  0  0  0  0  0  0  0  0  0  0  0
  186.8420  178.2290  144.7900 C   0  0  0  0  0  0  0  0  0  0  0  0
  189.8990  177.3290  148.1740 C   0  0  0  0  0  3  0  0  0  0  0  0
  189.8990  178.0160  138.1790 O   0  0  0  0  0  0  0  0  0  0  0  0
  187.4550  177.9290  139.6790 C   0  0  0  0  0  0  0  0  0  0  0  0
  190.3920  177.1880  146.8790 C   0  0  0  0  0  3  0  0  0  0  0  0
  189.8820  177.3180  139.3930 C   0  0  0  0  0  2  0  0  0  0  0  0
  187.8670  176.8750  137.4230 C   0  0  1  0  0  3  0  0  0  0  0  0
  184.5210  178.8020  144.9950 C   0  0  0  0  0  3  0  0  0  0  0  0
  185.6460  178.5000  144.2050 C   0  0  0  0  0  0  0  0  0  0  0  0
  186.9450  178.2960  146.3110 C   0  0  0  0  0  2  0  0  0  0  0  0
  188.8500  177.6760  141.6830 C   0  0  0  0  0  3  0  0  0  0  0  0
  190.2930  177.2760  143.9320 O   0  0  0  0  0  0  0  0  0  0  0  0
  187.7680  177.9900  149.2820 C   0  0  0  0  0  1  0  0  0  0  0  0
  188.0070  177.9090  143.9690 N   0  0  0  0  0  0  0  0  0  0  0  0
  188.2660  177.8410  146.8390 C   0  0  0  0  0  0  0  0  0  0  0  0
  187.2240  176.7040  136.1290 N   0  0  0  0  0  2  0  0  0  0  0  0
  186.0870  175.8600  135.9410 C   0  0  0  0  0  0  0  0  0  0  0  0
  185.6060  175.2040  136.9020 O   0  0  0  0  0  0  0  0  0  0  0  0
  185.4680  175.7510  134.5940 C   0  0  0  0  0  1  0  0  0  0  0  0
  1 20  1  0  0  0  0
  1 16  1  0  0  0  0
  2 27  1  0  0  0  0
  3  4  1  0  0  0  0
  4 21  2  0  0  0  0
  5  6  1  0  0  0  0
  6 28  2  0  0  0  0
  6 18  1  0  0  0  0
  7 24  1  0  0  0  0
  8 12  1  0  0  0  0
  9 15  1  0  0  0  0
  9 26  1  0  0  0  0
 10 17  1  0  0  0  0
 11 13  1  0  0  0  0
 11  3  2  0  0  0  0
 12  2  1  0  0  0  0
 12 13  2  0  0  0  0
 13 22  1  0  0  0  0
 14 23  1  0  0  0  0
 16 19  1  0  0  0  0
 17  7  2  0  0  0  0
 17  8  1  0  0  0  0
 18 15  2  0  0  0  0
 19  7  1  0  0  0  0
 20 29  1  6  0  0  0
 20 10  1  0  0  0  0
 22 14  2  0  0  0  0
 22 21  1  0  0  0  0
 23 28  1  0  0  0  0
 24  2  2  0  0  0  0
 25  5  2  0  0  0  0
 27  5  1  0  0  0  0
 27 14  1  0  0  0  0
 28  9  1  0  0  0  0
 30 29  1  0  0  0  0
 30 31  2  0  0  0  0
 32 30  1  0  0  0  0
M  END
>  <MODEL>
4

>  <REMARK>
 VINA RESULT:      -9.6      3.203      5.496
  Name = 
  1 active torsions:
  status: ('A' for Active; 'I' for Inactive)
    1  A    between atoms: C_20  and  N_29
                            x       y       z     vdW  Elec       q    Type
                         _______ _______ _______ _____ _____    ______ ____

>  <TORSDO>
F 1

$$$$
=
 OpenBabel11122410433D

 32 37  0  0  1  0  0  0  0  0999 V2000
  187.8220  177.7310  147.8640 C   0  0  0  0  0  2  0  0  0  0  0  0
  185.9230  178.3120  142.6430 C   0  0  2  0  0  3  0  0  0  0  0  0
  189.4060  178.1460  139.2540 C   0  0  0  0  0  3  0  0  0  0  0  0
  188.4600  178.2640  138.2890 N   0  0  0  0  0  0  0  0  0  0  0  0
  183.4980  178.4480  141.8990 C   0  0  0  0  0  0  0  0  0  0  0  0
  182.5530  178.5020  140.7930 C   0  0  0  0  0  0  0  0  0  0  0  0
  186.6460  178.2110  145.0060 C   0  0  0  0  0  0  0  0  0  0  0  0
  188.3260  178.0920  143.2860 N   0  0  0  0  0  0  0  0  0  0  0  0
  181.8830  178.5970  138.6970 N   0  0  0  0  0  0  0  0  0  0  0  0
  189.0700  178.0170  145.6780 C   0  0  0  0  0  2  0  0  0  0  0  0
  189.0330  178.1230  140.5950 C   0  0  0  0  0  3  0  0  0  0  0  0
  187.3370  178.2060  142.2530 C   0  0  0  0  0  0  0  0  0  0  0  0
  187.6800  178.2210  140.9530 C   0  0  0  0  0  0  0  0  0  0  0  0
  185.3740  178.4370  140.2180 C   0  0  0  0  0  0  0  0  0  0  0  0
  180.7860  178.5700  139.4830 C   0  0  0  0  0  3  0  0  0  0  0  0
  187.0450  178.7620  147.3030 O   0  0  0  0  0  0  0  0  0  0  0  0
  187.9540  178.0790  144.6690 C   0  0  0  0  0  0  0  0  0  0  0  0
  181.1690  178.5090  140.8210 C   0  0  0  0  0  3  0  0  0  0  0  0
  186.1470  178.1440  146.4240 C   0  0  0  0  0  2  0  0  0  0  0  0
  188.7590  177.0740  146.8390 C   0  0  1  0  0  3  0  0  0  0  0  0
  187.1410  178.3610  138.5950 C   0  0  0  0  0  3  0  0  0  0  0  0
  186.6990  178.3420  139.9320 C   0  0  0  0  0  0  0  0  0  0  0  0
  184.3860  178.6010  139.0670 C   0  0  0  0  0  2  0  0  0  0  0  0
  185.6190  178.3110  143.9490 C   0  0  0  0  0  3  0  0  0  0  0  0
  183.0620  178.4290  143.0820 O   0  0  0  0  0  0  0  0  0  0  0  0
  181.8800  178.6720  137.2470 C   0  0  0  0  0  1  0  0  0  0  0  0
  184.9180  178.4110  141.6060 N   0  0  0  0  0  0  0  0  0  0  0  0
  182.9580  178.5510  139.4980 C   0  0  0  0  0  0  0  0  0  0  0  0
  189.9900  176.6720  147.5030 N   0  0  0  0  0  2  0  0  0  0  0  0
  191.1920  176.3830  146.7860 C   0  0  0  0  0  0  0  0  0  0  0  0
  191.2210  176.4440  145.5280 O   0  0  0  0  0  0  0  0  0  0  0  0
  192.4180  176.0010  147.5320 C   0  0  0  0  0  1  0  0  0  0  0  0
  2 24  1  6  0  0  0
  3 11  2  0  0  0  0
  4 21  2  0  0  0  0
  4  3  1  0  0  0  0
  5 25  2  0  0  0  0
  6 18  1  0  0  0  0
  6  5  1  0  0  0  0
  7 19  1  0  0  0  0
  8 17  2  0  0  0  0
  9 15  1  0  0  0  0
  9 28  1  0  0  0  0
 10 20  1  0  0  0  0
 11 13  1  0  0  0  0
 12  2  1  0  0  0  0
 12  8  1  0  0  0  0
 13 12  2  0  0  0  0
 14 27  1  0  0  0  0
 15 18  2  0  0  0  0
 16  1  1  0  0  0  0
 17  7  1  0  0  0  0
 17 10  1  0  0  0  0
 19 16  1  0  0  0  0
 20 29  1  1  0  0  0
 20  1  1  0  0  0  0
 21 22  1  0  0  0  0
 22 14  2  0  0  0  0
 22 13  1  0  0  0  0
 23 28  1  0  0  0  0
 23 14  1  0  0  0  0
 24  7  2  0  0  0  0
 26  9  1  0  0  0  0
 27  5  1  0  0  0  0
 27  2  1  0  0  0  0
 28  6  2  0  0  0  0
 30 29  1  0  0  0  0
 30 32  1  0  0  0  0
 31 30  2  0  0  0  0
M  END
>  <MODEL>
5

>  <REMARK>
 VINA RESULT:      -9.2      1.871      8.008
  Name = 
  1 active torsions:
  status: ('A' for Active; 'I' for Inactive)
    1  A    between atoms: C_20  and  N_29
                            x       y       z     vdW  Elec       q    Type
                         _______ _______ _______ _____ _____    ______ ____

>  <TORSDO>
F 1

$$$$
=
 OpenBabel11122410433D

 32 37  0  0  1  0  0  0  0  0999 V2000
  179.6320  180.3690  139.2050 C   0  0  0  0  0  2  0  0  0  0  0  0
  184.3220  178.7830  141.7910 C   0  0  0  0  0  0  0  0  0  0  0  0
  188.1080  178.1790  138.8000 C   0  0  0  0  0  3  0  0  0  0  0  0
  188.8930  177.8880  139.8670 N   0  0  0  0  0  0  0  0  0  0  0  0
  184.6920  178.5530  144.2940 C   0  0  0  0  0  0  0  0  0  0  0  0
  185.6270  178.2970  145.3790 C   0  0  0  0  0  0  0  0  0  0  0  0
  182.1480  179.3460  140.7550 C   0  0  0  0  0  0  0  0  0  0  0  0
  184.0650  179.0750  139.3240 N   0  0  0  0  0  2  0  0  0  0  0  0
  187.5510  177.7920  146.3260 N   0  0  0  0  0  0  0  0  0  0  0  0
  181.8600  179.6180  138.2630 C   0  0  0  0  0  2  0  0  0  0  0  0
  186.7630  178.4820  138.9880 C   0  0  0  0  0  3  0  0  0  0  0  0
  184.9120  178.7760  140.4430 C   0  0  0  0  0  0  0  0  0  0  0  0
  186.2140  178.4900  140.2790 C   0  0  0  0  0  0  0  0  0  0  0  0
  186.5750  178.1800  142.6620 C   0  0  0  0  0  0  0  0  0  0  0  0
  186.6470  178.0030  147.3060 C   0  0  0  0  0  3  0  0  0  0  0  0
  179.8610  179.2640  140.0450 O   0  0  0  0  0  0  0  0  0  0  0  0
  182.6770  179.3780  139.5060 C   0  0  0  0  0  0  0  0  0  0  0  0
  185.4130  178.3260  146.7460 C   0  0  0  0  0  3  0  0  0  0  0  0
  180.7200  179.7110  141.0570 C   0  0  0  0  0  2  0  0  0  0  0  0
  180.8850  180.7840  138.4190 C   0  0  1  0  0  3  0  0  0  0  0  0
  188.4010  177.8850  141.1320 C   0  0  0  0  0  3  0  0  0  0  0  0
  187.0490  178.1850  141.3890 C   0  0  0  0  0  0  0  0  0  0  0  0
  187.5260  177.8080  143.7960 C   0  0  0  0  0  2  0  0  0  0  0  0
  183.0160  179.0560  141.9150 C   0  0  0  0  0  3  0  0  0  0  0  0
  183.4900  178.8220  144.5660 O   0  0  0  0  0  0  0  0  0  0  0  0
  188.9410  177.4250  146.5250 C   0  0  0  0  0  1  0  0  0  0  0  0
  185.1740  178.4970  142.9260 N   0  0  0  0  0  0  0  0  0  0  0  0
  186.9270  177.9760  145.1530 C   0  0  0  0  0  0  0  0  0  0  0  0
  180.4880  181.2840  137.1120 N   0  0  0  0  0  2  0  0  0  0  0  0
  180.7390  182.6270  136.6940 C   0  0  0  0  0  0  0  0  0  0  0  0
  181.3020  183.4480  137.4660 O   0  0  0  0  0  0  0  0  0  0  0  0
  180.3260  183.0620  135.3340 C   0  0  0  0  0  1  0  0  0  0  0  0
  1 16  1  0  0  0  0
  2 24  2  0  0  0  0
  2 27  1  0  0  0  0
  3 11  2  0  0  0  0
  3  4  1  0  0  0  0
  4 21  2  0  0  0  0
  5 25  2  0  0  0  0
  5  6  1  0  0  0  0
  6 18  1  0  0  0  0
  7 19  1  0  0  0  0
  7 24  1  0  0  0  0
  8 17  1  0  0  0  0
  8 12  1  0  0  0  0
  9 26  1  0  0  0  0
  9 15  1  0  0  0  0
 10 20  1  0  0  0  0
 10 17  1  0  0  0  0
 11 13  1  0  0  0  0
 12  2  1  0  0  0  0
 13 12  2  0  0  0  0
 13 22  1  0  0  0  0
 14 27  1  0  0  0  0
 14 23  1  0  0  0  0
 16 19  1  0  0  0  0
 17  7  2  0  0  0  0
 18 15  2  0  0  0  0
 20 29  1  6  0  0  0
 20  1  1  0  0  0  0
 21 22  1  0  0  0  0
 22 14  2  0  0  0  0
 23 28  1  0  0  0  0
 27  5  1  0  0  0  0
 28  6  2  0  0  0  0
 28  9  1  0  0  0  0
 30 29  1  0  0  0  0
 30 31  2  0  0  0  0
 32 30  1  0  0  0  0
M  END
>  <MODEL>
6

>  <REMARK>
 VINA RESULT:      -9.2      1.468      2.032
  Name = 
  1 active torsions:
  status: ('A' for Active; 'I' for Inactive)
    1  A    between atoms: C_20  and  N_29
                            x       y       z     vdW  Elec       q    Type
                         _______ _______ _______ _____ _____    ______ ____

>  <TORSDO>
F 1

$$$$
=
 OpenBabel11122410433D

 32 37  0  0  1  0  0  0  0  0999 V2000
  186.7960  178.1270  147.7950 C   0  0  0  0  0  2  0  0  0  0  0  0
  184.6540  178.6130  142.6590 C   0  0  2  0  0  3  0  0  0  0  0  0
  187.9580  178.2570  139.1100 C   0  0  0  0  0  3  0  0  0  0  0  0
  186.9690  178.3740  138.1890 N   0  0  0  0  0  0  0  0  0  0  0  0
  182.1990  178.7930  142.0320 C   0  0  0  0  0  0  0  0  0  0  0  0
  181.2020  178.8410  140.9720 C   0  0  0  0  0  0  0  0  0  0  0  0
  185.4920  178.5580  144.9860 C   0  0  0  0  0  0  0  0  0  0  0  0
  187.0800  178.3460  143.1890 N   0  0  0  0  0  0  0  0  0  0  0  0
  180.4310  178.8960  138.9100 N   0  0  0  0  0  0  0  0  0  0  0  0
  187.9400  178.3180  145.5430 C   0  0  0  0  0  2  0  0  0  0  0  0
  187.6520  178.2810  140.4670 C   0  0  0  0  0  3  0  0  0  0  0  0
  186.0440  178.4570  142.2030 C   0  0  0  0  0  0  0  0  0  0  0  0
  186.3220  178.4260  140.8890 C   0  0  0  0  0  0  0  0  0  0  0  0
  183.9880  178.6840  140.2620 C   0  0  0  0  0  0  0  0  0  0  0  0
  179.3740  178.9210  139.7490 C   0  0  0  0  0  3  0  0  0  0  0  0
  186.0190  179.1630  147.2430 O   0  0  0  0  0  0  0  0  0  0  0  0
  186.7770  178.3810  144.5890 C   0  0  0  0  0  0  0  0  0  0  0  0
  179.8220  178.8870  141.0680 C   0  0  0  0  0  3  0  0  0  0  0  0
  185.0620  178.5440  146.4280 C   0  0  0  0  0  2  0  0  0  0  0  0
  187.6640  177.4160  146.7460 C   0  0  1  0  0  3  0  0  0  0  0  0
  185.6690  178.5150  138.5570 C   0  0  0  0  0  3  0  0  0  0  0  0
  185.2950  178.5450  139.9130 C   0  0  0  0  0  0  0  0  0  0  0  0
  182.9490  178.8420  139.1560 C   0  0  0  0  0  2  0  0  0  0  0  0
  184.4150  178.6570  143.9780 C   0  0  0  0  0  3  0  0  0  0  0  0
  181.8220  178.8190  143.2350 O   0  0  0  0  0  0  0  0  0  0  0  0
  180.3580  178.9300  137.4600 C   0  0  0  0  0  1  0  0  0  0  0  0
  183.6020  178.7100  141.6700 N   0  0  0  0  0  0  0  0  0  0  0  0
  181.5420  178.8440  139.6580 C   0  0  0  0  0  0  0  0  0  0  0  0
  188.9150  177.0000  147.3590 N   0  0  0  0  0  2  0  0  0  0  0  0
  190.0940  176.7330  146.5980 C   0  0  0  0  0  0  0  0  0  0  0  0
  190.0840  176.8280  145.3420 O   0  0  0  0  0  0  0  0  0  0  0  0
  191.3440  176.3350  147.2950 C   0  0  0  0  0  1  0  0  0  0  0  0
  2 24  1  1  0  0  0
  3 11  2  0  0  0  0
  4 21  2  0  0  0  0
  4  3  1  0  0  0  0
  5 25  2  0  0  0  0
  6 18  1  0  0  0  0
  6  5  1  0  0  0  0
  7 19  1  0  0  0  0
  8 17  2  0  0  0  0
  9 28  1  0  0  0  0
  9 15  1  0  0  0  0
 10 20  1  0  0  0  0
 11 13  1  0  0  0  0
 12  2  1  0  0  0  0
 12  8  1  0  0  0  0
 13 12  2  0  0  0  0
 14 27  1  0  0  0  0
 15 18  2  0  0  0  0
 16  1  1  0  0  0  0
 17  7  1  0  0  0  0
 17 10  1  0  0  0  0
 19 16  1  0  0  0  0
 20 29  1  1  0  0  0
 20  1  1  0  0  0  0
 21 22  1  0  0  0  0
 22 14  2  0  0  0  0
 22 13  1  0  0  0  0
 23 28  1  0  0  0  0
 23 14  1  0  0  0  0
 24  7  2  0  0  0  0
 26  9  1  0  0  0  0
 27  5  1  0  0  0  0
 27  2  1  0  0  0  0
 28  6  2  0  0  0  0
 30 32  1  0  0  0  0
 30 29  1  0  0  0  0
 31 30  2  0  0  0  0
M  END
>  <MODEL>
7

>  <REMARK>
 VINA RESULT:      -8.7      1.923      8.009
  Name = 
  1 active torsions:
  status: ('A' for Active; 'I' for Inactive)
    1  A    between atoms: C_20  and  N_29
                            x       y       z     vdW  Elec       q    Type
                         _______ _______ _______ _____ _____    ______ ____

>  <TORSDO>
F 1

$$$$
=
 OpenBabel11122410433D

 32 37  0  0  1  0  0  0  0  0999 V2000
  193.4150  176.3550  138.5210 C   0  0  0  0  0  2  0  0  0  0  0  0
  189.0260  177.6970  141.7040 C   0  0  0  0  0  0  0  0  0  0  0  0
  184.9790  178.6350  139.1770 C   0  0  0  0  0  3  0  0  0  0  0  0
  184.3050  178.8180  140.3400 N   0  0  0  0  0  0  0  0  0  0  0  0
  188.9040  177.6670  144.2410 C   0  0  0  0  0  0  0  0  0  0  0  0
  188.0830  177.8160  145.4330 C   0  0  0  0  0  0  0  0  0  0  0  0
  191.0790  177.2290  140.4070 C   0  0  0  0  0  0  0  0  0  0  0  0
  189.0370  177.6610  139.2070 N   0  0  0  0  0  2  0  0  0  0  0  0
  186.2700  178.2320  146.6120 N   0  0  0  0  0  0  0  0  0  0  0  0
  191.1200  177.2160  137.8840 C   0  0  0  0  0  2  0  0  0  0  0  0
  186.3300  178.3040  139.2000 C   0  0  0  0  0  3  0  0  0  0  0  0
  188.3080  177.8480  140.4280 C   0  0  0  0  0  0  0  0  0  0  0  0
  187.0010  178.1590  140.4230 C   0  0  0  0  0  0  0  0  0  0  0  0
  186.8790  178.2210  142.8500 C   0  0  0  0  0  0  0  0  0  0  0  0
  187.2600  177.9140  147.4720 C   0  0  0  0  0  3  0  0  0  0  0  0
  193.2880  177.3690  139.4880 O   0  0  0  0  0  0  0  0  0  0  0  0
  190.4310  177.3310  139.2190 C   0  0  0  0  0  0  0  0  0  0  0  0
  188.4280  177.6430  146.7630 C   0  0  0  0  0  3  0  0  0  0  0  0
  192.5230  176.8250  140.5290 C   0  0  0  0  0  2  0  0  0  0  0  0
  192.0850  176.0330  137.8230 C   0  0  1  0  0  3  0  0  0  0  0  0
  184.9190  178.6860  141.5450 C   0  0  0  0  0  3  0  0  0  0  0  0
  186.2830  178.3520  141.6350 C   0  0  0  0  0  0  0  0  0  0  0  0
  186.0480  178.4790  144.1040 C   0  0  0  0  0  2  0  0  0  0  0  0
  190.3330  177.4030  141.6710 C   0  0  0  0  0  3  0  0  0  0  0  0
  190.1220  177.3630  144.3650 O   0  0  0  0  0  0  0  0  0  0  0  0
  184.9110  178.5860  146.9830 C   0  0  0  0  0  1  0  0  0  0  0  0
  188.2930  177.8680  142.9410 N   0  0  0  0  0  0  0  0  0  0  0  0
  186.7730  178.1670  145.3710 C   0  0  0  0  0  0  0  0  0  0  0  0
  192.3440  175.6690  136.4390 N   0  0  0  0  0  2  0  0  0  0  0  0
  192.5950  174.3220  136.0310 C   0  0  0  0  0  0  0  0  0  0  0  0
  192.6230  173.3890  136.8760 O   0  0  0  0  0  0  0  0  0  0  0  0
  192.8290  174.0210  134.5950 C   0  0  0  0  0  1  0  0  0  0  0  0
  1 16  1  0  0  0  0
  2 27  1  0  0  0  0
  3 11  2  0  0  0  0
  3  4  1  0  0  0  0
  4 21  2  0  0  0  0
  5 25  2  0  0  0  0
  5  6  1  0  0  0  0
  6 18  1  0  0  0  0
  7 19  1  0  0  0  0
  7 24  1  0  0  0  0
  8 17  1  0  0  0  0
  8 12  1  0  0  0  0
  9 26  1  0  0  0  0
  9 15  1  0  0  0  0
 10 17  1  0  0  0  0
 11 13  1  0  0  0  0
 12  2  1  0  0  0  0
 13 12  2  0  0  0  0
 13 22  1  0  0  0  0
 14 27  1  0  0  0  0
 14 23  1  0  0  0  0
 16 19  1  0  0  0  0
 17  7  2  0  0  0  0
 18 15  2  0  0  0  0
 20 29  1  6  0  0  0
 20 10  1  0  0  0  0
 20  1  1  0  0  0  0
 21 22  1  0  0  0  0
 22 14  2  0  0  0  0
 23 28  1  0  0  0  0
 24  2  2  0  0  0  0
 27  5  1  0  0  0  0
 28  6  2  0  0  0  0
 28  9  1  0  0  0  0
 30 29  1  0  0  0  0
 30 31  2  0  0  0  0
 32 30  1  0  0  0  0
M  END
>  <MODEL>
8

>  <REMARK>
 VINA RESULT:      -8.6      3.857      7.477
  Name = 
  1 active torsions:
  status: ('A' for Active; 'I' for Inactive)
    1  A    between atoms: C_20  and  N_29
                            x       y       z     vdW  Elec       q    Type
                         _______ _______ _______ _____ _____    ______ ____

>  <TORSDO>
F 1

$$$$
=
 OpenBabel11122410433D

 32 37  0  0  1  0  0  0  0  0999 V2000
  191.3520  176.5870  137.7790 C   0  0  0  0  0  2  0  0  0  0  0  0
  188.8860  177.6140  142.6850 C   0  0  0  0  0  0  0  0  0  0  0  0
  184.1360  178.5940  142.3310 C   0  0  0  0  0  3  0  0  0  0  0  0
  184.0640  178.6890  143.6820 N   0  0  0  0  0  0  0  0  0  0  0  0
  189.9270  177.4280  144.9950 C   0  0  0  0  0  0  0  0  0  0  0  0
  189.7360  177.4810  146.4360 C   0  0  0  0  0  0  0  0  0  0  0  0
  190.1270  177.2820  140.5710 C   0  0  0  0  0  0  0  0  0  0  0  0
  187.7640  177.7300  140.4570 N   0  0  0  0  0  2  0  0  0  0  0  0
  188.6550  177.7760  148.3320 N   0  0  0  0  0  0  0  0  0  0  0  0
  189.0200  177.4230  138.3090 C   0  0  0  0  0  2  0  0  0  0  0  0
  185.3500  178.2990  141.7180 C   0  0  0  0  0  3  0  0  0  0  0  0
  187.6690  177.8230  141.8850 C   0  0  0  0  0  0  0  0  0  0  0  0
  186.5030  178.0980  142.4930 C   0  0  0  0  0  0  0  0  0  0  0  0
  187.4930  178.0100  144.7100 C   0  0  0  0  0  0  0  0  0  0  0  0
  189.9260  177.4330  148.6280 C   0  0  0  0  0  3  0  0  0  0  0  0
  191.6800  177.5360  138.7650 O   0  0  0  0  0  0  0  0  0  0  0  0
  189.0110  177.4380  139.8150 C   0  0  0  0  0  0  0  0  0  0  0  0
  190.6450  177.2370  147.4510 C   0  0  0  0  0  3  0  0  0  0  0  0
  191.4680  176.9090  140.0000 C   0  0  0  0  0  2  0  0  0  0  0  0
  189.8480  176.2720  137.7390 C   0  0  1  0  0  3  0  0  0  0  0  0
  185.1560  178.5000  144.4670 C   0  0  0  0  0  3  0  0  0  0  0  0
  186.4120  178.1980  143.9080 C   0  0  0  0  0  0  0  0  0  0  0  0
  187.3220  178.1690  146.2180 C   0  0  0  0  0  2  0  0  0  0  0  0
  190.0360  177.3580  142.0440 C   0  0  0  0  0  3  0  0  0  0  0  0
  191.0680  177.1490  144.5330 O   0  0  0  0  0  0  0  0  0  0  0  0
  187.6130  178.0700  149.3000 C   0  0  0  0  0  1  0  0  0  0  0  0
  188.7940  177.6900  144.1280 N   0  0  0  0  0  0  0  0  0  0  0  0
  188.5410  177.8000  146.9960 C   0  0  0  0  0  0  0  0  0  0  0  0
  189.4510  176.0000  136.3660 N   0  0  0  0  0  2  0  0  0  0  0  0
  188.4920  174.9970  136.0280 C   0  0  0  0  0  0  0  0  0  0  0  0
  187.9640  174.2840  136.9210 O   0  0  0  0  0  0  0  0  0  0  0  0
  188.1170  174.7900  134.6050 C   0  0  0  0  0  1  0  0  0  0  0  0
  1 16  1  0  0  0  0
  2 27  1  0  0  0  0
  3  4  1  0  0  0  0
  4 21  2  0  0  0  0
  5  6  1  0  0  0  0
  6 28  2  0  0  0  0
  6 18  1  0  0  0  0
  7 24  1  0  0  0  0
  8 12  1  0  0  0  0
  9 15  1  0  0  0  0
  9 26  1  0  0  0  0
 10 17  1  0  0  0  0
 11  3  2  0  0  0  0
 11 13  1  0  0  0  0
 12 13  2  0  0  0  0
 12  2  1  0  0  0  0
 13 22  1  0  0  0  0
 14 23  1  0  0  0  0
 16 19  1  0  0  0  0
 17  8  1  0  0  0  0
 17  7  2  0  0  0  0
 18 15  2  0  0  0  0
 19  7  1  0  0  0  0
 20 29  1  6  0  0  0
 20  1  1  0  0  0  0
 20 10  1  0  0  0  0
 22 21  1  0  0  0  0
 22 14  2  0  0  0  0
 23 28  1  0  0  0  0
 24  2  2  0  0  0  0
 25  5  2  0  0  0  0
 27 14  1  0  0  0  0
 27  5  1  0  0  0  0
 28  9  1  0  0  0  0
 30 29  1  0  0  0  0
 30 31  2  0  0  0  0
 32 30  1  0  0  0  0
M  END
>  <MODEL>
9

>  <REMARK>
 VINA RESULT:      -8.3      3.610      6.309
  Name = 
  1 active torsions:
  status: ('A' for Active; 'I' for Inactive)
    1  A    between atoms: C_20  and  N_29
                            x       y       z     vdW  Elec       q    Type
                         _______ _______ _______ _____ _____    ______ ____

>  <TORSDO>
F 1

$$$$
