=
 OpenBabel11122412283D

 34 42  0  0  1  0  0  0  0  0999 V2000
  189.4590  177.1780  141.1550 C   0  0  2  0  0  3  0  0  0  0  0  0
  190.3790  177.0970  138.9390 O   0  0  0  0  0  0  0  0  0  0  0  0
  184.7450  178.7310  145.6860 C   0  0  2  0  0  3  0  0  0  0  0  0
  188.1780  177.0260  143.2460 C   0  0  1  0  0  3  0  0  0  0  0  0
  186.0340  178.5220  143.4650 C   0  0  2  0  0  3  0  0  0  0  0  0
  183.8730  179.5420  143.6110 O   0  0  0  0  0  1  0  0  0  0  0  0
  185.9510  179.5250  146.1670 C   0  0  0  0  0  2  0  0  0  0  0  0
  186.9830  177.2960  145.5670 C   0  0  1  0  0  3  0  0  0  0  0  0
  188.6440  178.6140  139.2220 C   0  0  2  0  0  3  0  0  0  0  0  0
  186.5200  177.8430  136.9690 C   0  0  0  0  0  2  0  0  0  0  0  0
  185.9200  178.2320  141.9720 C   0  0  0  0  0  2  0  0  0  0  0  0
  186.3500  176.4130  144.6660 O   0  0  0  0  0  0  0  0  0  0  0  0
  187.2830  178.1960  139.8150 C   0  0  1  0  0  3  0  0  0  0  0  0
  190.1860  177.6820  137.7600 O   0  0  0  0  0  0  0  0  0  0  0  0
  187.0040  177.5240  144.0960 C   0  0  2  0  0  0  0  0  0  0  0  0
  185.9030  178.0210  146.4010 C   0  0  2  0  0  3  0  0  0  0  0  0
  187.8800  177.1900  137.2030 C   0  0  2  0  0  3  0  0  0  0  0  0
  188.4960  177.9510  142.0610 C   0  0  2  0  0  3  0  0  0  0  0  0
  184.6750  178.5410  144.1590 C   0  0  2  0  0  3  0  0  0  0  0  0
  187.2660  178.5340  141.3070 C   0  0  2  0  0  3  0  0  0  0  0  0
  190.2050  176.0170  143.2280 C   0  0  0  0  0  2  0  0  0  0  0  0
  185.7180  177.9090  138.2650 C   0  0  0  0  0  2  0  0  0  0  0  0
  189.3490  176.8300  144.0050 O   0  0  0  0  0  0  0  0  0  0  0  0
  186.2570  178.8630  139.1370 O   0  0  0  0  0  0  0  0  0  0  0  0
  188.8820  178.2050  137.7850 C   0  0  1  0  0  3  0  0  0  0  0  0
  190.6820  176.7570  141.9680 C   0  0  0  0  0  2  0  0  0  0  0  0
  189.8350  177.9650  139.8960 C   0  0  1  0  0  3  0  0  0  0  0  0
  188.3600  176.6960  135.9870 O   0  0  0  0  0  0  0  0  0  0  0  0
  188.0740  175.3270  136.0190 C   0  0  0  0  0  2  0  0  0  0  0  0
  191.3550  174.0640  136.9410 C   0  0  0  0  0  2  0  0  0  0  0  0
  190.3270  175.2650  135.1590 O   0  0  0  0  0  0  0  0  0  0  0  0
  189.3430  174.5100  135.8270 C   0  0  1  0  0  3  0  0  0  0  0  0
  191.5180  175.1410  135.8980 C   0  0  0  0  0  2  0  0  0  0  0  0
  189.8810  174.0250  137.1520 C   0  0  0  0  0  2  0  0  0  0  0  0
  1 26  1  1  0  0  0
  1 18  1  0  0  0  0
  2 27  1  0  0  0  0
  3  7  1  6  0  0  0
  3 16  1  0  0  0  0
  4 23  1  1  0  0  0
  4 15  1  0  0  0  0
  5 11  1  6  0  0  0
  5 15  1  0  0  0  0
  5 19  1  0  0  0  0
  6 19  1  0  0  0  0
  7 16  1  0  0  0  0
  8 12  1  6  0  0  0
  8 16  1  0  0  0  0
  9 13  1  0  0  0  0
  9 27  1  0  0  0  0
 10 17  1  0  0  0  0
 10 22  1  0  0  0  0
 13 20  1  0  0  0  0
 14 25  1  0  0  0  0
 14  2  1  0  0  0  0
 15 12  1  0  0  0  0
 15  8  1  0  0  0  0
 17 25  1  0  0  0  0
 18  4  1  0  0  0  0
 19  3  1  0  0  0  0
 20 11  1  0  0  0  0
 20 18  1  0  0  0  0
 21 23  1  0  0  0  0
 22 24  1  0  0  0  0
 24 13  1  0  0  0  0
 25  9  1  0  0  0  0
 26 21  1  0  0  0  0
 27  1  1  0  0  0  0
 28 29  1  0  0  0  0
 28 17  1  0  0  0  0
 30 34  1  0  0  0  0
 31 32  1  0  0  0  0
 31 33  1  0  0  0  0
 32 29  1  0  0  0  0
 32 34  1  0  0  0  0
 33 30  1  0  0  0  0
M  END
>  <MODEL>
1

>  <REMARK>
 VINA RESULT:      -8.8      0.000      0.000
  Name = 
  3 active torsions:
  status: ('A' for Active; 'I' for Inactive)
    1  A    between atoms: C_17  and  O_28
    2  A    between atoms: O_28  and  C_29
    3  A    between atoms: C_29  and  C_32
                            x       y       z     vdW  Elec       q    Type
                         _______ _______ _______ _____ _____    ______ ____

>  <TORSDO>
F 3

$$$$
=
 OpenBabel11122412283D

 34 42  0  0  1  0  0  0  0  0999 V2000
  189.3560  177.1760  141.2080 C   0  0  2  0  0  3  0  0  0  0  0  0
  190.2340  177.0840  138.9760 O   0  0  0  0  0  0  0  0  0  0  0  0
  184.7390  178.7740  145.8230 C   0  0  2  0  0  3  0  0  0  0  0  0
  188.1140  177.0380  143.3230 C   0  0  1  0  0  3  0  0  0  0  0  0
  185.9850  178.5510  143.5780 C   0  0  2  0  0  3  0  0  0  0  0  0
  183.8340  179.5870  143.7620 O   0  0  0  0  0  1  0  0  0  0  0  0
  185.9600  179.5610  146.2790 C   0  0  0  0  0  2  0  0  0  0  0  0
  186.9650  177.3230  145.6660 C   0  0  1  0  0  3  0  0  0  0  0  0
  188.5150  178.6140  139.2870 C   0  0  2  0  0  3  0  0  0  0  0  0
  186.3450  177.8530  137.0760 C   0  0  0  0  0  2  0  0  0  0  0  0
  185.8410  178.2590  142.0890 C   0  0  0  0  0  2  0  0  0  0  0  0
  186.3090  176.4430  144.7790 O   0  0  0  0  0  0  0  0  0  0  0  0
  187.1640  178.2070  139.9070 C   0  0  1  0  0  3  0  0  0  0  0  0
  190.0230  177.6670  137.7990 O   0  0  0  0  0  0  0  0  0  0  0  0
  186.9600  177.5470  144.1940 C   0  0  2  0  0  0  0  0  0  0  0  0
  185.9050  178.0580  146.5180 C   0  0  2  0  0  3  0  0  0  0  0  0
  187.7040  177.1900  137.2870 C   0  0  2  0  0  3  0  0  0  0  0  0
  188.4160  177.9590  142.1300 C   0  0  2  0  0  3  0  0  0  0  0  0
  184.6390  178.5820  144.2980 C   0  0  2  0  0  3  0  0  0  0  0  0
  187.1760  178.5490  141.3980 C   0  0  2  0  0  3  0  0  0  0  0  0
  190.1320  176.0140  143.2700 C   0  0  0  0  0  2  0  0  0  0  0  0
  185.5670  177.9280  138.3870 C   0  0  0  0  0  2  0  0  0  0  0  0
  189.2980  176.8360  144.0600 O   0  0  0  0  0  0  0  0  0  0  0  0
  186.1300  178.8800  139.2460 O   0  0  0  0  0  0  0  0  0  0  0  0
  188.7240  178.1990  137.8470 C   0  0  1  0  0  3  0  0  0  0  0  0
  190.5910  176.7490  142.0000 C   0  0  0  0  0  2  0  0  0  0  0  0
  189.7140  177.9580  139.9410 C   0  0  1  0  0  3  0  0  0  0  0  0
  188.1570  176.6900  136.0640 O   0  0  0  0  0  0  0  0  0  0  0  0
  187.1340  175.8440  135.6210 C   0  0  0  0  0  2  0  0  0  0  0  0
  187.9790  172.6110  137.0500 C   0  0  0  0  0  2  0  0  0  0  0  0
  189.0070  174.3310  135.7620 O   0  0  0  0  0  0  0  0  0  0  0  0
  187.6110  174.4000  135.5840 C   0  0  1  0  0  3  0  0  0  0  0  0
  189.2510  173.3670  136.7580 C   0  0  0  0  0  2  0  0  0  0  0  0
  186.9190  173.5720  136.6390 C   0  0  0  0  0  2  0  0  0  0  0  0
  1 26  1  1  0  0  0
  1 18  1  0  0  0  0
  2 27  1  0  0  0  0
  3  7  1  6  0  0  0
  3 16  1  0  0  0  0
  4 23  1  1  0  0  0
  4 15  1  0  0  0  0
  5 11  1  6  0  0  0
  5 15  1  0  0  0  0
  5 19  1  0  0  0  0
  6 19  1  0  0  0  0
  7 16  1  0  0  0  0
  8 12  1  6  0  0  0
  8 16  1  0  0  0  0
  9 13  1  0  0  0  0
  9 27  1  0  0  0  0
 10 17  1  0  0  0  0
 10 22  1  0  0  0  0
 13 20  1  0  0  0  0
 14 25  1  0  0  0  0
 14  2  1  0  0  0  0
 15 12  1  0  0  0  0
 15  8  1  0  0  0  0
 17 25  1  0  0  0  0
 18  4  1  0  0  0  0
 19  3  1  0  0  0  0
 20 11  1  0  0  0  0
 20 18  1  0  0  0  0
 21 23  1  0  0  0  0
 22 24  1  0  0  0  0
 24 13  1  0  0  0  0
 25  9  1  0  0  0  0
 26 21  1  0  0  0  0
 27  1  1  0  0  0  0
 28 17  1  0  0  0  0
 29 28  1  0  0  0  0
 31 33  1  0  0  0  0
 32 29  1  0  0  0  0
 32 31  1  0  0  0  0
 32 34  1  0  0  0  0
 33 30  1  0  0  0  0
 34 30  1  0  0  0  0
M  END
>  <MODEL>
2

>  <REMARK>
 VINA RESULT:      -8.7      0.804      1.081
  Name = 
  3 active torsions:
  status: ('A' for Active; 'I' for Inactive)
    1  A    between atoms: C_17  and  O_28
    2  A    between atoms: O_28  and  C_29
    3  A    between atoms: C_29  and  C_32
                            x       y       z     vdW  Elec       q    Type
                         _______ _______ _______ _____ _____    ______ ____

>  <TORSDO>
F 3

$$$$
=
 OpenBabel11122412283D

 34 42  0  0  1  0  0  0  0  0999 V2000
  188.2410  177.1710  137.9250 C   0  0  2  0  0  3  0  0  0  0  0  0
  186.7910  178.1590  139.5630 O   0  0  0  0  0  0  0  0  0  0  0  0
  194.1370  174.8370  135.6990 C   0  0  2  0  0  3  0  0  0  0  0  0
  189.7890  175.8400  136.5580 C   0  0  1  0  0  3  0  0  0  0  0  0
  192.3340  175.9110  137.1940 C   0  0  2  0  0  3  0  0  0  0  0  0
  194.5950  175.6020  137.9190 O   0  0  0  0  0  1  0  0  0  0  0  0
  193.8380  175.9770  134.7350 C   0  0  0  0  0  2  0  0  0  0  0  0
  191.5890  174.8380  134.9310 C   0  0  1  0  0  3  0  0  0  0  0  0
  189.0600  178.4390  139.9710 C   0  0  2  0  0  3  0  0  0  0  0  0
  189.4950  177.3170  142.9260 C   0  0  0  0  0  2  0  0  0  0  0  0
  191.7750  176.0090  138.6080 C   0  0  0  0  0  2  0  0  0  0  0  0
  191.2700  174.0310  136.0430 O   0  0  0  0  0  0  0  0  0  0  0  0
  190.0350  177.2450  140.0080 C   0  0  1  0  0  3  0  0  0  0  0  0
  186.8940  178.8500  140.6960 O   0  0  0  0  0  0  0  0  0  0  0  0
  191.2320  175.4240  136.2520 C   0  0  2  0  0  0  0  0  0  0  0  0
  193.0870  174.6600  134.5940 C   0  0  2  0  0  3  0  0  0  0  0  0
  188.1710  177.4150  142.1730 C   0  0  2  0  0  3  0  0  0  0  0  0
  189.7010  177.0730  137.4720 C   0  0  2  0  0  3  0  0  0  0  0  0
  193.5920  175.0490  137.1230 C   0  0  2  0  0  3  0  0  0  0  0  0
  190.7210  177.1190  138.6460 C   0  0  2  0  0  3  0  0  0  0  0  0
  187.6770  176.0550  135.7710 C   0  0  0  0  0  2  0  0  0  0  0  0
  190.5530  176.6190  142.0760 C   0  0  0  0  0  2  0  0  0  0  0  0
  189.0380  176.0790  135.3900 O   0  0  0  0  0  0  0  0  0  0  0  0
  190.9730  177.4450  141.0270 O   0  0  0  0  0  0  0  0  0  0  0  0
  188.1850  178.6040  141.1940 C   0  0  1  0  0  3  0  0  0  0  0  0
  187.3390  177.2370  136.6940 C   0  0  0  0  0  2  0  0  0  0  0  0
  188.0060  178.3390  138.8870 C   0  0  1  0  0  3  0  0  0  0  0  0
  187.1360  177.5780  143.0970 O   0  0  0  0  0  0  0  0  0  0  0  0
  187.7580  177.5000  144.3490 C   0  0  0  0  0  2  0  0  0  0  0  0
  185.1120  178.6320  146.5690 C   0  0  0  0  0  2  0  0  0  0  0  0
  187.2830  177.6600  146.7080 O   0  0  0  0  0  0  0  0  0  0  0  0
  186.7230  177.3480  145.4530 C   0  0  1  0  0  3  0  0  0  0  0  0
  186.4050  178.5600  147.3410 C   0  0  0  0  0  2  0  0  0  0  0  0
  185.5220  178.2250  145.1960 C   0  0  0  0  0  2  0  0  0  0  0  0
  1 26  1  6  0  0  0
  1 27  1  0  0  0  0
  2 14  1  0  0  0  0
  3  7  1  6  0  0  0
  3 19  1  0  0  0  0
  4 23  1  6  0  0  0
  4 18  1  0  0  0  0
  5 11  1  1  0  0  0
  8 12  1  1  0  0  0
  8 15  1  0  0  0  0
  9 13  1  0  0  0  0
  9 25  1  0  0  0  0
 11 20  1  0  0  0  0
 12 15  1  0  0  0  0
 13 24  1  0  0  0  0
 14 25  1  0  0  0  0
 15  4  1  0  0  0  0
 15  5  1  0  0  0  0
 16  7  1  0  0  0  0
 16  8  1  0  0  0  0
 16  3  1  0  0  0  0
 17 10  1  0  0  0  0
 17 28  1  0  0  0  0
 18  1  1  0  0  0  0
 18 20  1  0  0  0  0
 19  5  1  0  0  0  0
 19  6  1  0  0  0  0
 20 13  1  0  0  0  0
 21 26  1  0  0  0  0
 22 10  1  0  0  0  0
 23 21  1  0  0  0  0
 24 22  1  0  0  0  0
 25 17  1  0  0  0  0
 27  2  1  0  0  0  0
 27  9  1  0  0  0  0
 28 29  1  0  0  0  0
 29 32  1  0  0  0  0
 30 33  1  0  0  0  0
 31 33  1  0  0  0  0
 32 31  1  0  0  0  0
 34 32  1  0  0  0  0
 34 30  1  0  0  0  0
M  END
>  <MODEL>
3

>  <REMARK>
 VINA RESULT:      -8.5      1.712      8.853
  Name = 
  3 active torsions:
  status: ('A' for Active; 'I' for Inactive)
    1  A    between atoms: C_17  and  O_28
    2  A    between atoms: O_28  and  C_29
    3  A    between atoms: C_29  and  C_32
                            x       y       z     vdW  Elec       q    Type
                         _______ _______ _______ _____ _____    ______ ____

>  <TORSDO>
F 3

$$$$
=
 OpenBabel11122412283D

 34 42  0  0  1  0  0  0  0  0999 V2000
  182.4470  178.6280  143.8010 C   0  0  2  0  0  3  0  0  0  0  0  0
  183.7080  178.8110  145.8350 O   0  0  0  0  0  0  0  0  0  0  0  0
  181.7690  178.2880  137.1230 C   0  0  2  0  0  3  0  0  0  0  0  0
  181.4030  178.0730  141.6480 C   0  0  1  0  0  3  0  0  0  0  0  0
  182.8030  178.5140  139.4720 C   0  0  2  0  0  3  0  0  0  0  0  0
  184.1250  178.5150  137.4760 O   0  0  0  0  0  1  0  0  0  0  0  0
  180.9980  179.5530  137.4780 C   0  0  0  0  0  2  0  0  0  0  0  0
  180.2590  177.9490  139.2880 C   0  0  1  0  0  3  0  0  0  0  0  0
  184.8500  179.4500  143.9170 C   0  0  2  0  0  3  0  0  0  0  0  0
  187.5190  177.7020  143.9440 C   0  0  0  0  0  2  0  0  0  0  0  0
  183.9630  178.1100  140.3750 C   0  0  0  0  0  2  0  0  0  0  0  0
  181.0380  176.8260  139.6360 O   0  0  0  0  0  0  0  0  0  0  0  0
  184.9600  178.5270  142.6870 C   0  0  1  0  0  3  0  0  0  0  0  0
  184.9270  179.1800  146.2210 O   0  0  0  0  0  0  0  0  0  0  0  0
  181.4890  178.0710  140.1170 C   0  0  2  0  0  0  0  0  0  0  0  0
  180.3790  178.1910  137.7660 C   0  0  2  0  0  3  0  0  0  0  0  0
  186.4240  177.7120  145.0070 C   0  0  2  0  0  3  0  0  0  0  0  0
  182.4630  178.9690  142.3070 C   0  0  2  0  0  3  0  0  0  0  0  0
  182.9640  177.9920  138.0470 C   0  0  2  0  0  3  0  0  0  0  0  0
  183.8830  178.9180  141.6730 C   0  0  2  0  0  3  0  0  0  0  0  0
  180.0520  178.0320  143.4640 C   0  0  0  0  0  2  0  0  0  0  0  0
  186.9250  177.4990  142.5530 C   0  0  0  0  0  2  0  0  0  0  0  0
  180.1270  178.4470  142.1150 O   0  0  0  0  0  0  0  0  0  0  0  0
  186.2390  178.6450  142.1320 O   0  0  0  0  0  0  0  0  0  0  0  0
  185.7460  179.0930  145.0830 C   0  0  1  0  0  3  0  0  0  0  0  0
  181.0330  178.8250  144.3430 C   0  0  0  0  0  2  0  0  0  0  0  0
  183.4940  179.4190  144.5910 C   0  0  1  0  0  3  0  0  0  0  0  0
  186.9920  177.3970  146.2440 O   0  0  0  0  0  0  0  0  0  0  0  0
  188.2850  177.9290  146.1910 C   0  0  0  0  0  2  0  0  0  0  0  0
  191.4540  176.6180  147.3940 C   0  0  0  0  0  2  0  0  0  0  0  0
  190.2120  176.7360  145.3650 O   0  0  0  0  0  0  0  0  0  0  0  0
  189.3220  176.8470  146.4510 C   0  0  1  0  0  3  0  0  0  0  0  0
  191.5160  176.7540  145.8930 C   0  0  0  0  0  2  0  0  0  0  0  0
  190.0930  177.1280  147.7180 C   0  0  0  0  0  2  0  0  0  0  0  0
  1 26  1  1  0  0  0
  1 27  1  0  0  0  0
  2 14  1  0  0  0  0
  3  7  1  1  0  0  0
  3 16  1  0  0  0  0
  3 19  1  0  0  0  0
  4 23  1  6  0  0  0
  4 18  1  0  0  0  0
  5 15  1  0  0  0  0
  5 11  1  1  0  0  0
  6 19  1  0  0  0  0
  7 16  1  0  0  0  0
  8 12  1  6  0  0  0
  8 15  1  0  0  0  0
  9 27  1  0  0  0  0
  9 25  1  0  0  0  0
 10 17  1  0  0  0  0
 11 20  1  0  0  0  0
 12 15  1  0  0  0  0
 13  9  1  0  0  0  0
 15  4  1  0  0  0  0
 16  8  1  0  0  0  0
 17 25  1  0  0  0  0
 17 28  1  0  0  0  0
 18  1  1  0  0  0  0
 19  5  1  0  0  0  0
 20 18  1  0  0  0  0
 20 13  1  0  0  0  0
 21 26  1  0  0  0  0
 22 10  1  0  0  0  0
 23 21  1  0  0  0  0
 24 22  1  0  0  0  0
 24 13  1  0  0  0  0
 25 14  1  0  0  0  0
 27  2  1  0  0  0  0
 29 28  1  0  0  0  0
 29 32  1  0  0  0  0
 30 34  1  0  0  0  0
 31 33  1  0  0  0  0
 31 32  1  0  0  0  0
 32 34  1  0  0  0  0
 33 30  1  0  0  0  0
M  END
>  <MODEL>
4

>  <REMARK>
 VINA RESULT:      -8.3      4.218      8.302
  Name = 
  3 active torsions:
  status: ('A' for Active; 'I' for Inactive)
    1  A    between atoms: C_17  and  O_28
    2  A    between atoms: O_28  and  C_29
    3  A    between atoms: C_29  and  C_32
                            x       y       z     vdW  Elec       q    Type
                         _______ _______ _______ _____ _____    ______ ____

>  <TORSDO>
F 3

$$$$
=
 OpenBabel11122412283D

 34 42  0  0  1  0  0  0  0  0999 V2000
  190.7420  177.1840  143.2520 C   0  0  2  0  0  3  0  0  0  0  0  0
  192.4940  176.8710  141.6410 O   0  0  0  0  0  0  0  0  0  0  0  0
  184.4720  178.6960  145.1410 C   0  0  2  0  0  3  0  0  0  0  0  0
  188.7330  177.1890  144.6660 C   0  0  1  0  0  3  0  0  0  0  0  0
  186.5720  178.3200  143.6960 C   0  0  2  0  0  3  0  0  0  0  0  0
  184.4660  178.9730  142.7640 O   0  0  0  0  0  1  0  0  0  0  0  0
  185.3050  179.7530  145.8530 C   0  0  0  0  0  2  0  0  0  0  0  0
  186.6720  177.6580  146.2220 C   0  0  1  0  0  3  0  0  0  0  0  0
  190.6770  178.1020  140.8820 C   0  0  2  0  0  3  0  0  0  0  0  0
  189.7390  176.6030  138.2260 C   0  0  0  0  0  2  0  0  0  0  0  0
  187.1060  177.7580  142.3830 C   0  0  0  0  0  2  0  0  0  0  0  0
  186.5400  176.5380  145.3740 O   0  0  0  0  0  0  0  0  0  0  0  0
  189.2330  177.5720  140.9850 C   0  0  1  0  0  3  0  0  0  0  0  0
  192.7550  177.1990  140.3780 O   0  0  0  0  0  0  0  0  0  0  0  0
  187.2770  177.6250  144.8620 C   0  0  2  0  0  0  0  0  0  0  0  0
  185.2880  178.3270  146.3880 C   0  0  2  0  0  3  0  0  0  0  0  0
  190.9310  176.2380  139.1070 C   0  0  2  0  0  3  0  0  0  0  0  0
  189.4320  177.9320  143.5160 C   0  0  2  0  0  3  0  0  0  0  0  0
  185.0510  178.2330  143.7910 C   0  0  2  0  0  3  0  0  0  0  0  0
  188.5760  178.1590  142.2360 C   0  0  2  0  0  3  0  0  0  0  0  0
  190.6630  176.5460  145.6580 C   0  0  0  0  0  2  0  0  0  0  0  0
  188.4720  176.7600  139.0620 C   0  0  0  0  0  2  0  0  0  0  0  0
  189.5010  177.3290  145.8390 O   0  0  0  0  0  0  0  0  0  0  0  0
  188.5250  177.9290  139.8320 O   0  0  0  0  0  0  0  0  0  0  0  0
  191.5180  177.4920  139.7810 C   0  0  1  0  0  3  0  0  0  0  0  0
  191.5530  177.1240  144.5450 C   0  0  0  0  0  2  0  0  0  0  0  0
  191.5350  177.7900  142.0900 C   0  0  1  0  0  3  0  0  0  0  0  0
  191.9070  175.6260  138.3170 O   0  0  0  0  0  0  0  0  0  0  0  0
  191.9330  176.3760  137.1350 C   0  0  0  0  0  2  0  0  0  0  0  0
  194.5990  174.5130  135.5140 C   0  0  0  0  0  2  0  0  0  0  0  0
  194.3050  175.9970  137.3540 O   0  0  0  0  0  0  0  0  0  0  0  0
  193.2680  176.2110  136.4250 C   0  0  1  0  0  3  0  0  0  0  0  0
  195.0330  174.8770  136.9120 C   0  0  0  0  0  2  0  0  0  0  0  0
  193.2200  175.0700  135.4380 C   0  0  0  0  0  2  0  0  0  0  0  0
  1 18  1  0  0  0  0
  1 26  1  1  0  0  0
  2 27  1  0  0  0  0
  3  7  1  6  0  0  0
  3 16  1  0  0  0  0
  4 15  1  0  0  0  0
  4 23  1  1  0  0  0
  5 11  1  6  0  0  0
  5 19  1  0  0  0  0
  5 15  1  0  0  0  0
  6 19  1  0  0  0  0
  7 16  1  0  0  0  0
  8 12  1  6  0  0  0
  8 16  1  0  0  0  0
  9 13  1  0  0  0  0
  9 27  1  0  0  0  0
 10 22  1  0  0  0  0
 10 17  1  0  0  0  0
 13 20  1  0  0  0  0
 14  2  1  0  0  0  0
 15 12  1  0  0  0  0
 15  8  1  0  0  0  0
 17 25  1  0  0  0  0
 18  4  1  0  0  0  0
 19  3  1  0  0  0  0
 20 11  1  0  0  0  0
 20 18  1  0  0  0  0
 21 23  1  0  0  0  0
 22 24  1  0  0  0  0
 24 13  1  0  0  0  0
 25 14  1  0  0  0  0
 25  9  1  0  0  0  0
 26 21  1  0  0  0  0
 27  1  1  0  0  0  0
 28 17  1  0  0  0  0
 29 28  1  0  0  0  0
 30 33  1  0  0  0  0
 32 29  1  0  0  0  0
 32 31  1  0  0  0  0
 33 31  1  0  0  0  0
 34 30  1  0  0  0  0
 34 32  1  0  0  0  0
M  END
>  <MODEL>
5

>  <REMARK>
 VINA RESULT:      -7.9      2.015      2.751
  Name = 
  3 active torsions:
  status: ('A' for Active; 'I' for Inactive)
    1  A    between atoms: C_17  and  O_28
    2  A    between atoms: O_28  and  C_29
    3  A    between atoms: C_29  and  C_32
                            x       y       z     vdW  Elec       q    Type
                         _______ _______ _______ _____ _____    ______ ____

>  <TORSDO>
F 3

$$$$
=
 OpenBabel11122412283D

 34 42  0  0  1  0  0  0  0  0999 V2000
  185.9210  178.4690  145.1340 C   0  0  2  0  0  3  0  0  0  0  0  0
  184.0710  178.9750  143.6900 O   0  0  0  0  0  0  0  0  0  0  0  0
  192.0560  176.0770  146.4810 C   0  0  2  0  0  3  0  0  0  0  0  0
  188.0490  178.2160  146.3360 C   0  0  1  0  0  3  0  0  0  0  0  0
  189.8920  176.7090  145.2330 C   0  0  2  0  0  3  0  0  0  0  0  0
  191.7590  175.6820  144.1400 O   0  0  0  0  0  1  0  0  0  0  0  0
  191.1540  175.2030  147.3430 C   0  0  0  0  0  2  0  0  0  0  0  0
  190.1720  177.5050  147.7050 C   0  0  1  0  0  3  0  0  0  0  0  0
  185.5850  177.4340  142.8360 C   0  0  2  0  0  3  0  0  0  0  0  0
  186.4440  178.6290  140.0060 C   0  0  0  0  0  2  0  0  0  0  0  0
  189.3100  177.2810  143.9450 C   0  0  0  0  0  2  0  0  0  0  0  0
  190.3800  178.5450  146.7760 O   0  0  0  0  0  0  0  0  0  0  0  0
  187.0950  177.7320  142.7590 C   0  0  1  0  0  3  0  0  0  0  0  0
  183.6270  178.6300  142.4850 O   0  0  0  0  0  0  0  0  0  0  0  0
  189.4340  177.5650  146.4140 C   0  0  2  0  0  0  0  0  0  0  0  0
  191.4470  176.6330  147.7760 C   0  0  2  0  0  3  0  0  0  0  0  0
  185.4260  179.2230  140.9750 C   0  0  2  0  0  3  0  0  0  0  0  0
  187.1230  177.5360  145.3150 C   0  0  2  0  0  3  0  0  0  0  0  0
  191.4090  176.5570  145.1680 C   0  0  2  0  0  3  0  0  0  0  0  0
  187.7880  177.1120  143.9740 C   0  0  2  0  0  3  0  0  0  0  0  0
  186.3600  179.2070  147.4720 C   0  0  0  0  0  2  0  0  0  0  0  0
  187.7560  178.3150  140.7190 C   0  0  0  0  0  2  0  0  0  0  0  0
  187.4020  178.2600  147.5870 O   0  0  0  0  0  0  0  0  0  0  0  0
  187.6100  177.2100  141.5670 O   0  0  0  0  0  0  0  0  0  0  0  0
  184.7310  178.1130  141.7880 C   0  0  1  0  0  3  0  0  0  0  0  0
  185.2760  178.7230  146.4960 C   0  0  0  0  0  2  0  0  0  0  0  0
  184.9220  177.9390  144.1020 C   0  0  1  0  0  3  0  0  0  0  0  0
  184.4740  179.9410  140.2480 O   0  0  0  0  0  0  0  0  0  0  0  0
  184.2110  179.1500  139.1230 C   0  0  0  0  0  2  0  0  0  0  0  0
  180.7520  179.1220  140.2380 C   0  0  0  0  0  2  0  0  0  0  0  0
  182.3910  177.5970  139.4260 O   0  0  0  0  0  0  0  0  0  0  0  0
  182.7180  178.8940  138.9850 C   0  0  1  0  0  3  0  0  0  0  0  0
  181.3030  177.7210  140.3100 C   0  0  0  0  0  2  0  0  0  0  0  0
  181.9190  179.9150  139.7590 C   0  0  0  0  0  2  0  0  0  0  0  0
  1 18  1  0  0  0  0
  1 26  1  1  0  0  0
  2 27  1  0  0  0  0
  3  7  1  1  0  0  0
  3 16  1  0  0  0  0
  4 15  1  0  0  0  0
  4 23  1  1  0  0  0
  5 11  1  6  0  0  0
  5 15  1  0  0  0  0
  6 19  1  0  0  0  0
  7 16  1  0  0  0  0
  8 12  1  6  0  0  0
  8 16  1  0  0  0  0
  9 27  1  0  0  0  0
 10 22  1  0  0  0  0
 10 17  1  0  0  0  0
 11 20  1  0  0  0  0
 13  9  1  0  0  0  0
 13 20  1  0  0  0  0
 14  2  1  0  0  0  0
 15 12  1  0  0  0  0
 15  8  1  0  0  0  0
 17 25  1  0  0  0  0
 18  4  1  0  0  0  0
 19  5  1  0  0  0  0
 19  3  1  0  0  0  0
 20 18  1  0  0  0  0
 21 23  1  0  0  0  0
 22 24  1  0  0  0  0
 24 13  1  0  0  0  0
 25 14  1  0  0  0  0
 25  9  1  0  0  0  0
 26 21  1  0  0  0  0
 27  1  1  0  0  0  0
 28 17  1  0  0  0  0
 29 28  1  0  0  0  0
 30 33  1  0  0  0  0
 31 33  1  0  0  0  0
 32 29  1  0  0  0  0
 32 31  1  0  0  0  0
 32 34  1  0  0  0  0
 34 30  1  0  0  0  0
M  END
>  <MODEL>
6

>  <REMARK>
 VINA RESULT:      -7.9      3.488      6.552
  Name = 
  3 active torsions:
  status: ('A' for Active; 'I' for Inactive)
    1  A    between atoms: C_17  and  O_28
    2  A    between atoms: O_28  and  C_29
    3  A    between atoms: C_29  and  C_32
                            x       y       z     vdW  Elec       q    Type
                         _______ _______ _______ _____ _____    ______ ____

>  <TORSDO>
F 3

$$$$
=
 OpenBabel11122412283D

 34 42  0  0  1  0  0  0  0  0999 V2000
  187.4540  177.9180  140.8020 C   0  0  2  0  0  3  0  0  0  0  0  0
  187.1430  177.8970  138.4220 O   0  0  0  0  0  0  0  0  0  0  0  0
  185.3860  178.6140  147.1590 C   0  0  2  0  0  3  0  0  0  0  0  0
  187.4610  177.6180  143.2400 C   0  0  1  0  0  3  0  0  0  0  0  0
  185.4110  178.5580  144.5830 C   0  0  2  0  0  3  0  0  0  0  0  0
  183.4310  179.0270  145.8430 O   0  0  0  0  0  1  0  0  0  0  0  0
  186.4300  179.7130  147.0200 C   0  0  0  0  0  2  0  0  0  0  0  0
  187.5480  177.7640  145.8600 C   0  0  1  0  0  3  0  0  0  0  0  0
  185.4600  178.9610  139.6180 C   0  0  2  0  0  3  0  0  0  0  0  0
  182.7700  177.5250  138.6790 C   0  0  0  0  0  2  0  0  0  0  0  0
  184.6500  178.1360  143.3320 C   0  0  0  0  0  2  0  0  0  0  0  0
  186.7960  176.6880  145.3450 O   0  0  0  0  0  0  0  0  0  0  0  0
  184.7260  178.2690  140.7840 C   0  0  1  0  0  3  0  0  0  0  0  0
  186.2530  178.3250  137.5310 O   0  0  0  0  0  0  0  0  0  0  0  0
  186.7810  177.8780  144.5890 C   0  0  2  0  0  0  0  0  0  0  0  0
  186.8810  178.2650  147.1610 C   0  0  2  0  0  3  0  0  0  0  0  0
  184.1810  177.2430  138.1680 C   0  0  2  0  0  3  0  0  0  0  0  0
  186.9080  178.5000  142.1100 C   0  0  2  0  0  3  0  0  0  0  0  0
  184.6190  178.2970  145.8620 C   0  0  2  0  0  3  0  0  0  0  0  0
  185.3660  178.7060  142.1040 C   0  0  2  0  0  3  0  0  0  0  0  0
  189.3910  177.1360  142.1590 C   0  0  0  0  0  2  0  0  0  0  0  0
  182.7270  177.4910  140.2040 C   0  0  0  0  0  2  0  0  0  0  0  0
  188.8600  177.7730  143.3030 O   0  0  0  0  0  0  0  0  0  0  0  0
  183.3700  178.6120  140.7460 O   0  0  0  0  0  0  0  0  0  0  0  0
  185.0500  178.5140  138.2320 C   0  0  1  0  0  3  0  0  0  0  0  0
  188.9790  177.8730  140.8740 C   0  0  0  0  0  2  0  0  0  0  0  0
  186.9470  178.6760  139.5710 C   0  0  1  0  0  3  0  0  0  0  0  0
  184.1020  176.7910  136.8490 O   0  0  0  0  0  0  0  0  0  0  0  0
  184.0690  175.3950  136.9500 C   0  0  0  0  0  2  0  0  0  0  0  0
  186.2410  172.7870  135.6500 C   0  0  0  0  0  2  0  0  0  0  0  0
  186.0310  174.1500  137.5930 O   0  0  0  0  0  0  0  0  0  0  0  0
  185.3960  174.7940  136.5140 C   0  0  1  0  0  3  0  0  0  0  0  0
  186.4130  172.8710  137.1460 C   0  0  0  0  0  2  0  0  0  0  0  0
  185.2030  173.8200  135.3770 C   0  0  0  0  0  2  0  0  0  0  0  0
  1 26  1  1  0  0  0
  1 18  1  0  0  0  0
  2 27  1  0  0  0  0
  3  7  1  6  0  0  0
  3 16  1  0  0  0  0
  4 23  1  1  0  0  0
  4 15  1  0  0  0  0
  5 11  1  6  0  0  0
  5 15  1  0  0  0  0
  5 19  1  0  0  0  0
  6 19  1  0  0  0  0
  7 16  1  0  0  0  0
  8 12  1  1  0  0  0
  8 16  1  0  0  0  0
  9 13  1  0  0  0  0
 10 22  1  0  0  0  0
 13 20  1  0  0  0  0
 14 25  1  0  0  0  0
 14  2  1  0  0  0  0
 15 12  1  0  0  0  0
 15  8  1  0  0  0  0
 17 25  1  0  0  0  0
 17 10  1  0  0  0  0
 18  4  1  0  0  0  0
 19  3  1  0  0  0  0
 20 18  1  0  0  0  0
 20 11  1  0  0  0  0
 21 23  1  0  0  0  0
 22 24  1  0  0  0  0
 24 13  1  0  0  0  0
 25  9  1  0  0  0  0
 26 21  1  0  0  0  0
 27  9  1  0  0  0  0
 27  1  1  0  0  0  0
 28 29  1  0  0  0  0
 28 17  1  0  0  0  0
 30 33  1  0  0  0  0
 32 29  1  0  0  0  0
 32 31  1  0  0  0  0
 33 31  1  0  0  0  0
 34 30  1  0  0  0  0
 34 32  1  0  0  0  0
M  END
>  <MODEL>
7

>  <REMARK>
 VINA RESULT:      -7.5      2.419      3.128
  Name = 
  3 active torsions:
  status: ('A' for Active; 'I' for Inactive)
    1  A    between atoms: C_17  and  O_28
    2  A    between atoms: O_28  and  C_29
    3  A    between atoms: C_29  and  C_32
                            x       y       z     vdW  Elec       q    Type
                         _______ _______ _______ _____ _____    ______ ____

>  <TORSDO>
F 3

$$$$
=
 OpenBabel11122412283D

 34 42  0  0  1  0  0  0  0  0999 V2000
  187.6790  177.8330  139.9680 C   0  0  2  0  0  3  0  0  0  0  0  0
  185.8520  178.5550  138.5900 O   0  0  0  0  0  0  0  0  0  0  0  0
  190.7550  176.7570  145.8460 C   0  0  2  0  0  3  0  0  0  0  0  0
  189.2500  176.8130  141.5590 C   0  0  1  0  0  3  0  0  0  0  0  0
  189.0160  177.4770  144.0870 C   0  0  2  0  0  3  0  0  0  0  0  0
  188.6440  177.7130  146.4410 O   0  0  0  0  0  1  0  0  0  0  0  0
  191.6790  177.7530  145.1580 C   0  0  0  0  0  2  0  0  0  0  0  0
  191.1200  176.1550  143.2800 C   0  0  1  0  0  3  0  0  0  0  0  0
  185.8040  179.3500  140.7710 C   0  0  2  0  0  3  0  0  0  0  0  0
  182.9350  178.5010  141.8790 C   0  0  0  0  0  2  0  0  0  0  0  0
  187.5330  177.5190  143.7350 C   0  0  0  0  0  2  0  0  0  0  0  0
  189.9600  175.3530  143.3200 O   0  0  0  0  0  0  0  0  0  0  0  0
  185.9000  178.4060  141.9860 C   0  0  1  0  0  3  0  0  0  0  0  0
  184.7590  179.3060  138.7000 O   0  0  0  0  0  0  0  0  0  0  0  0
  189.7680  176.7120  142.9980 C   0  0  2  0  0  0  0  0  0  0  0  0
  191.6820  176.2960  144.7130 C   0  0  2  0  0  3  0  0  0  0  0  0
  183.4760  178.2660  140.4710 C   0  0  2  0  0  3  0  0  0  0  0  0
  188.3510  178.0380  141.3300 C   0  0  2  0  0  3  0  0  0  0  0  0
  189.2670  176.9130  145.4830 C   0  0  2  0  0  3  0  0  0  0  0  0
  187.3490  178.3680  142.4740 C   0  0  2  0  0  3  0  0  0  0  0  0
  189.7040  176.5150  139.3620 C   0  0  0  0  0  2  0  0  0  0  0  0
  183.9280  178.0130  142.9310 C   0  0  0  0  0  2  0  0  0  0  0  0
  190.2910  176.8210  140.6100 O   0  0  0  0  0  0  0  0  0  0  0  0
  185.0420  178.8590  142.9940 O   0  0  0  0  0  0  0  0  0  0  0  0
  184.4630  179.3780  140.0710 C   0  0  1  0  0  3  0  0  0  0  0  0
  188.7570  177.6370  138.9040 C   0  0  0  0  0  2  0  0  0  0  0  0
  186.7100  178.9660  139.6200 C   0  0  1  0  0  3  0  0  0  0  0  0
  182.4050  178.2400  139.5740 O   0  0  0  0  0  0  0  0  0  0  0  0
  181.4090  179.0120  140.1830 C   0  0  0  0  0  2  0  0  0  0  0  0
  180.8680  181.2990  137.4110 C   0  0  0  0  0  2  0  0  0  0  0  0
  180.1030  180.9660  139.6420 O   0  0  0  0  0  0  0  0  0  0  0  0
  180.5800  179.7410  139.1370 C   0  0  1  0  0  3  0  0  0  0  0  0
  180.4050  181.9550  138.6870 C   0  0  0  0  0  2  0  0  0  0  0  0
  181.3830  179.9830  137.8810 C   0  0  0  0  0  2  0  0  0  0  0  0
  1 26  1  6  0  0  0
  1 18  1  0  0  0  0
  2 14  1  0  0  0  0
  2 27  1  0  0  0  0
  3  7  1  6  0  0  0
  4 23  1  6  0  0  0
  4 15  1  0  0  0  0
  5 11  1  6  0  0  0
  5 19  1  0  0  0  0
  8 12  1  1  0  0  0
  8 16  1  0  0  0  0
  9 13  1  0  0  0  0
 10 22  1  0  0  0  0
 13 20  1  0  0  0  0
 13 24  1  0  0  0  0
 14 25  1  0  0  0  0
 15  8  1  0  0  0  0
 15 12  1  0  0  0  0
 15  5  1  0  0  0  0
 16  7  1  0  0  0  0
 16  3  1  0  0  0  0
 17 10  1  0  0  0  0
 18  4  1  0  0  0  0
 18 20  1  0  0  0  0
 19  3  1  0  0  0  0
 19  6  1  0  0  0  0
 20 11  1  0  0  0  0
 21 23  1  0  0  0  0
 22 24  1  0  0  0  0
 25 17  1  0  0  0  0
 25  9  1  0  0  0  0
 26 21  1  0  0  0  0
 27  1  1  0  0  0  0
 27  9  1  0  0  0  0
 28 29  1  0  0  0  0
 28 17  1  0  0  0  0
 30 34  1  0  0  0  0
 30 33  1  0  0  0  0
 32 31  1  0  0  0  0
 32 29  1  0  0  0  0
 33 31  1  0  0  0  0
 34 32  1  0  0  0  0
M  END
>  <MODEL>
8

>  <REMARK>
 VINA RESULT:      -7.4      2.917      6.328
  Name = 
  3 active torsions:
  status: ('A' for Active; 'I' for Inactive)
    1  A    between atoms: C_17  and  O_28
    2  A    between atoms: O_28  and  C_29
    3  A    between atoms: C_29  and  C_32
                            x       y       z     vdW  Elec       q    Type
                         _______ _______ _______ _____ _____    ______ ____

>  <TORSDO>
F 3

$$$$
=
 OpenBabel11122412283D

 34 42  0  0  1  0  0  0  0  0999 V2000
  187.5160  177.8730  139.9220 C   0  0  2  0  0  3  0  0  0  0  0  0
  185.6380  178.5470  138.5870 O   0  0  0  0  0  0  0  0  0  0  0  0
  190.7820  176.9380  145.7210 C   0  0  2  0  0  3  0  0  0  0  0  0
  189.1480  176.9010  141.4810 C   0  0  1  0  0  3  0  0  0  0  0  0
  188.9810  177.6050  144.0040 C   0  0  2  0  0  3  0  0  0  0  0  0
  188.6760  177.8760  146.3630 O   0  0  0  0  0  1  0  0  0  0  0  0
  191.6700  177.9350  144.9890 C   0  0  0  0  0  2  0  0  0  0  0  0
  191.0780  176.2990  143.1550 C   0  0  1  0  0  3  0  0  0  0  0  0
  185.6450  179.3780  140.7560 C   0  0  2  0  0  3  0  0  0  0  0  0
  182.8230  178.5080  141.9640 C   0  0  0  0  0  2  0  0  0  0  0  0
  187.4880  177.6210  143.6960 C   0  0  0  0  0  2  0  0  0  0  0  0
  189.9310  175.4820  143.2430 O   0  0  0  0  0  0  0  0  0  0  0  0
  185.7900  178.4560  141.9820 C   0  0  1  0  0  3  0  0  0  0  0  0
  184.5390  179.2850  138.7180 O   0  0  0  0  0  0  0  0  0  0  0  0
  189.7100  176.8320  142.9050 C   0  0  2  0  0  0  0  0  0  0  0  0
  191.6810  176.4720  144.5680 C   0  0  2  0  0  3  0  0  0  0  0  0
  183.3240  178.2570  140.5440 C   0  0  2  0  0  3  0  0  0  0  0  0
  188.2260  178.1110  141.2590 C   0  0  2  0  0  3  0  0  0  0  0  0
  189.2810  177.0680  145.4000 C   0  0  2  0  0  3  0  0  0  0  0  0
  187.2540  178.4460  142.4270 C   0  0  2  0  0  3  0  0  0  0  0  0
  189.5400  176.5730  139.2760 C   0  0  0  0  0  2  0  0  0  0  0  0
  183.8530  178.0520  142.9930 C   0  0  0  0  0  2  0  0  0  0  0  0
  190.1600  176.9080  140.5010 O   0  0  0  0  0  0  0  0  0  0  0  0
  184.9570  178.9140  143.0080 O   0  0  0  0  0  0  0  0  0  0  0  0
  184.2830  179.3760  140.0960 C   0  0  1  0  0  3  0  0  0  0  0  0
  188.5650  177.6740  138.8290 C   0  0  0  0  0  2  0  0  0  0  0  0
  186.5210  178.9870  139.5840 C   0  0  1  0  0  3  0  0  0  0  0  0
  182.2270  178.2020  139.6800 O   0  0  0  0  0  0  0  0  0  0  0  0
  181.8650  176.8500  139.6470 C   0  0  0  0  0  2  0  0  0  0  0  0
  183.8500  175.8550  136.7700 C   0  0  0  0  0  2  0  0  0  0  0  0
  182.0060  177.2750  137.2770 O   0  0  0  0  0  0  0  0  0  0  0  0
  182.0900  176.2690  138.2590 C   0  0  1  0  0  3  0  0  0  0  0  0
  183.1410  177.1480  136.4540 C   0  0  0  0  0  2  0  0  0  0  0  0
  183.4300  175.5780  138.1710 C   0  0  0  0  0  2  0  0  0  0  0  0
  1 26  1  6  0  0  0
  1 18  1  0  0  0  0
  2 14  1  0  0  0  0
  2 27  1  0  0  0  0
  3  7  1  6  0  0  0
  4 23  1  6  0  0  0
  4 15  1  0  0  0  0
  5 11  1  6  0  0  0
  5 19  1  0  0  0  0
  8 12  1  1  0  0  0
  8 16  1  0  0  0  0
  9 13  1  0  0  0  0
 10 22  1  0  0  0  0
 13 20  1  0  0  0  0
 13 24  1  0  0  0  0
 14 25  1  0  0  0  0
 15  8  1  0  0  0  0
 15 12  1  0  0  0  0
 15  5  1  0  0  0  0
 16  7  1  0  0  0  0
 16  3  1  0  0  0  0
 17 10  1  0  0  0  0
 18  4  1  0  0  0  0
 18 20  1  0  0  0  0
 19  3  1  0  0  0  0
 19  6  1  0  0  0  0
 20 11  1  0  0  0  0
 21 23  1  0  0  0  0
 22 24  1  0  0  0  0
 25 17  1  0  0  0  0
 25  9  1  0  0  0  0
 26 21  1  0  0  0  0
 27  1  1  0  0  0  0
 27  9  1  0  0  0  0
 28 17  1  0  0  0  0
 29 28  1  0  0  0  0
 30 34  1  0  0  0  0
 31 32  1  0  0  0  0
 32 29  1  0  0  0  0
 33 30  1  0  0  0  0
 33 31  1  0  0  0  0
 34 32  1  0  0  0  0
M  END
>  <MODEL>
9

>  <REMARK>
 VINA RESULT:      -7.3      2.507      5.297
  Name = 
  3 active torsions:
  status: ('A' for Active; 'I' for Inactive)
    1  A    between atoms: C_17  and  O_28
    2  A    between atoms: O_28  and  C_29
    3  A    between atoms: C_29  and  C_32
                            x       y       z     vdW  Elec       q    Type
                         _______ _______ _______ _____ _____    ______ ____

>  <TORSDO>
F 3

$$$$
