=
 OpenBabel11122410373D

 32 37  0  0  1  0  0  0  0  0999 V2000
  191.0020  175.5540  137.7630 C   0  0  0  0  0  2  0  0  0  0  0  0
  189.0950  177.6330  142.1200 C   0  0  1  0  0  3  0  0  0  0  0  0
  192.0930  175.8740  145.6970 C   0  0  0  0  0  3  0  0  0  0  0  0
  191.1890  176.3130  146.6650 C   0  0  0  0  0  3  0  0  0  0  0  0
  186.5980  178.0200  142.7490 C   0  0  0  0  0  0  0  0  0  0  0  0
  185.6340  177.9270  143.8740 C   0  0  2  0  0  3  0  0  0  0  0  0
  189.9910  177.7320  139.8030 C   0  0  1  0  0  3  0  0  0  0  0  0
  191.4430  177.0180  141.5690 C   0  0  0  0  0  2  0  0  0  0  0  0
  185.0560  178.6750  145.8370 N   0  0  0  0  0  0  0  0  0  0  0  0
  192.2780  177.0860  139.3760 C   0  0  0  0  0  2  0  0  0  0  0  0
  191.7910  176.0200  144.3430 C   0  0  0  0  0  3  0  0  0  0  0  0
  190.2480  176.6760  142.4600 C   0  0  1  0  0  3  0  0  0  0  0  0
  190.5900  176.6220  143.9360 C   0  0  0  0  0  0  0  0  0  0  0  0
  188.3820  177.7240  144.5120 C   0  0  2  0  0  3  0  0  0  0  0  0
  183.9510  178.7700  144.9450 C   0  0  0  0  0  2  0  0  0  0  0  0
  189.6400  176.2660  137.7110 C   0  0  0  0  0  2  0  0  0  0  0  0
  191.0800  176.8050  140.1680 N   0  0  2  0  0  0  0  0  0  0  0  0
  184.2720  178.4160  143.7410 N   0  0  0  0  0  2  0  0  0  0  0  0
  189.6300  177.6780  138.3110 C   0  0  0  0  0  2  0  0  0  0  0  0
  192.1930  176.5050  137.9530 C   0  0  1  0  0  3  0  0  0  0  0  0
  189.9770  176.8880  146.2780 C   0  0  0  0  0  3  0  0  0  0  0  0
  189.6500  177.0180  144.9190 C   0  0  0  0  0  0  0  0  0  0  0  0
  187.2240  177.6780  145.5460 C   0  0  0  0  0  2  0  0  0  0  0  0
  188.7450  177.4440  140.6440 C   0  0  0  0  0  2  0  0  0  0  0  0
  186.3300  178.5590  141.6870 O   0  0  0  0  0  0  0  0  0  0  0  0
  185.0650  179.3270  147.1330 C   0  0  0  0  0  1  0  0  0  0  0  0
  187.9290  177.3550  143.0680 C   0  0  2  0  0  3  0  0  0  0  0  0
  186.1970  178.5780  145.0370 N   0  0  1  0  0  0  0  0  0  0  0  0
  193.4970  175.7960  137.6290 C   0  0  0  0  0  2  0  0  0  0  0  0
  193.9790  176.1680  136.2690 C   0  0  0  0  0  0  0  0  0  0  0  0
  193.4730  175.5200  135.1510 O   0  0  0  0  0  0  0  0  0  0  0  0
  194.8230  177.0920  136.1300 O   0  0  0  0  0  1  0  0  0  0  0  0
  1 20  1  0  0  0  0
  2 24  1  6  0  0  0
  2 12  1  0  0  0  0
  2 27  1  0  0  0  0
  3  4  1  0  0  0  0
  6  5  1  6  0  0  0
  6 28  1  0  0  0  0
  7 19  1  6  0  0  0
  7 17  1  0  0  0  0
  7 24  1  0  0  0  0
  9 26  1  0  0  0  0
 11  3  2  0  0  0  0
 12  8  1  6  0  0  0
 12 13  1  0  0  0  0
 13 11  1  0  0  0  0
 13 22  2  0  0  0  0
 14 22  1  0  0  0  0
 14 23  1  1  0  0  0
 15  9  1  0  0  0  0
 16  1  1  0  0  0  0
 16 19  1  0  0  0  0
 17 10  1  6  0  0  0
 17  8  1  0  0  0  0
 18  6  1  0  0  0  0
 18 15  1  0  0  0  0
 20 29  1  1  0  0  0
 20 10  1  0  0  0  0
 21  4  2  0  0  0  0
 22 21  1  0  0  0  0
 25  5  2  0  0  0  0
 27  5  1  6  0  0  0
 27 14  1  0  0  0  0
 28 23  1  1  0  0  0
 28  9  1  0  0  0  0
 30 29  1  0  0  0  0
 31 30  2  0  0  0  0
 32 30  1  0  0  0  0
M  END
>  <MODEL>
1

>  <REMARK>
 VINA RESULT:      -9.8      0.000      0.000
  Name = 
  2 active torsions:
  status: ('A' for Active; 'I' for Inactive)
    1  A    between atoms: C_20  and  C_29
    2  A    between atoms: C_29  and  C_30
                            x       y       z     vdW  Elec       q    Type
                         _______ _______ _______ _____ _____    ______ ____

>  <TORSDO>
F 2

$$$$
=
 OpenBabel11122410373D

 32 37  0  0  1  0  0  0  0  0999 V2000
  181.8490  180.5800  139.5380 C   0  0  0  0  0  2  0  0  0  0  0  0
  185.7250  178.0460  141.8800 C   0  0  1  0  0  3  0  0  0  0  0  0
  184.7640  178.6190  146.7420 C   0  0  0  0  0  3  0  0  0  0  0  0
  186.0440  178.1520  147.0450 C   0  0  0  0  0  3  0  0  0  0  0  0
  188.2280  177.9400  141.1710 C   0  0  0  0  0  0  0  0  0  0  0  0
  189.6120  177.9690  141.7080 C   0  0  2  0  0  3  0  0  0  0  0  0
  183.8220  178.2430  140.2930 C   0  0  1  0  0  3  0  0  0  0  0  0
  183.3800  178.3800  142.6430 C   0  0  0  0  0  2  0  0  0  0  0  0
  191.1040  176.9670  142.9390 N   0  0  0  0  0  0  0  0  0  0  0  0
  181.5890  178.5940  141.1400 C   0  0  0  0  0  2  0  0  0  0  0  0
  184.3770  178.7770  145.4100 C   0  0  0  0  0  3  0  0  0  0  0  0
  184.8400  178.7310  142.9330 C   0  0  1  0  0  3  0  0  0  0  0  0
  185.2560  178.4550  144.3640 C   0  0  0  0  0  0  0  0  0  0  0  0
  187.5140  177.6210  143.5720 C   0  0  2  0  0  3  0  0  0  0  0  0
  191.6400  177.2130  141.6420 C   0  0  0  0  0  2  0  0  0  0  0  0
  183.0450  180.1110  138.6930 C   0  0  0  0  0  2  0  0  0  0  0  0
  183.0060  178.9050  141.3300 N   0  0  2  0  0  0  0  0  0  0  0  0
  190.7590  177.7310  140.8480 N   0  0  0  0  0  2  0  0  0  0  0  0
  183.4100  178.6300  138.8650 C   0  0  0  0  0  2  0  0  0  0  0  0
  180.9450  179.4380  140.0240 C   0  0  1  0  0  3  0  0  0  0  0  0
  186.9400  177.8540  146.0170 C   0  0  0  0  0  3  0  0  0  0  0  0
  186.5720  178.0330  144.6740 C   0  0  0  0  0  0  0  0  0  0  0  0
  189.0250  177.6520  143.9300 C   0  0  0  0  0  2  0  0  0  0  0  0
  185.3050  178.5580  140.5040 C   0  0  0  0  0  2  0  0  0  0  0  0
  187.9710  177.6570  140.0110 O   0  0  0  0  0  0  0  0  0  0  0  0
  191.7560  176.0910  143.8940 C   0  0  0  0  0  1  0  0  0  0  0  0
  187.1910  178.3190  142.2170 C   0  0  2  0  0  3  0  0  0  0  0  0
  189.7150  177.0330  142.8060 N   0  0  1  0  0  0  0  0  0  0  0  0
  179.6170  179.9830  140.5200 C   0  0  0  0  0  2  0  0  0  0  0  0
  179.5040  179.8380  141.9990 C   0  0  0  0  0  0  0  0  0  0  0  0
  180.0010  180.8290  142.8350 O   0  0  0  0  0  1  0  0  0  0  0  0
  178.9310  178.8320  142.4920 O   0  0  0  0  0  0  0  0  0  0  0  0
  1 20  1  0  0  0  0
  2 24  1  6  0  0  0
  2 27  1  0  0  0  0
  2 12  1  0  0  0  0
  3  4  1  0  0  0  0
  5  6  1  0  0  0  0
  6 18  1  6  0  0  0
  6 28  1  0  0  0  0
  7 19  1  6  0  0  0
  7 24  1  0  0  0  0
  7 17  1  0  0  0  0
  9 26  1  0  0  0  0
 11  3  2  0  0  0  0
 12  8  1  1  0  0  0
 12 13  1  0  0  0  0
 13 22  2  0  0  0  0
 13 11  1  0  0  0  0
 14 23  1  1  0  0  0
 14 22  1  0  0  0  0
 15  9  1  0  0  0  0
 16 19  1  0  0  0  0
 16  1  1  0  0  0  0
 17 10  1  6  0  0  0
 17  8  1  0  0  0  0
 18 15  1  0  0  0  0
 20 29  1  1  0  0  0
 20 10  1  0  0  0  0
 21  4  2  0  0  0  0
 22 21  1  0  0  0  0
 25  5  2  0  0  0  0
 27  5  1  6  0  0  0
 27 14  1  0  0  0  0
 28  9  1  0  0  0  0
 28 23  1  1  0  0  0
 29 30  1  0  0  0  0
 30 32  2  0  0  0  0
 30 31  1  0  0  0  0
M  END
>  <MODEL>
2

>  <REMARK>
 VINA RESULT:      -9.6      3.504      8.390
  Name = 
  2 active torsions:
  status: ('A' for Active; 'I' for Inactive)
    1  A    between atoms: C_20  and  C_29
    2  A    between atoms: C_29  and  C_30
                            x       y       z     vdW  Elec       q    Type
                         _______ _______ _______ _____ _____    ______ ____

>  <TORSDO>
F 2

$$$$
=
 OpenBabel11122410373D

 32 37  0  0  1  0  0  0  0  0999 V2000
  189.3250  178.5180  146.3850 C   0  0  0  0  0  2  0  0  0  0  0  0
  185.3550  177.9170  143.0970 C   0  0  1  0  0  3  0  0  0  0  0  0
  187.4550  178.3460  138.5930 C   0  0  0  0  0  3  0  0  0  0  0  0
  186.1890  178.4570  138.0180 C   0  0  0  0  0  3  0  0  0  0  0  0
  182.9160  178.7910  143.3560 C   0  0  0  0  0  0  0  0  0  0  0  0
  181.7950  179.4110  142.6040 C   0  0  2  0  0  3  0  0  0  0  0  0
  186.8090  177.2310  144.9930 C   0  0  1  0  0  3  0  0  0  0  0  0
  187.7510  177.3200  142.7920 C   0  0  0  0  0  2  0  0  0  0  0  0
  180.3260  179.1750  141.0130 N   0  0  0  0  0  0  0  0  0  0  0  0
  189.1290  176.6990  144.5890 C   0  0  0  0  0  2  0  0  0  0  0  0
  187.5860  178.2530  139.9800 C   0  0  0  0  0  3  0  0  0  0  0  0
  186.6350  178.2480  142.3140 C   0  0  1  0  0  3  0  0  0  0  0  0
  186.4530  178.2510  140.8090 C   0  0  0  0  0  0  0  0  0  0  0  0
  183.9370  178.3570  141.0880 C   0  0  2  0  0  3  0  0  0  0  0  0
  179.6670  179.5380  142.2230 C   0  0  0  0  0  2  0  0  0  0  0  0
  187.8920  178.5230  146.9440 C   0  0  0  0  0  2  0  0  0  0  0  0
  188.0150  177.5670  144.2090 N   0  0  2  0  0  0  0  0  0  0  0  0
  180.4930  179.6050  143.2190 N   0  0  0  0  0  2  0  0  0  0  0  0
  187.0290  177.3300  146.5100 C   0  0  0  0  0  2  0  0  0  0  0  0
  189.7990  177.1390  145.9030 C   0  0  1  0  0  3  0  0  0  0  0  0
  185.0540  178.4860  138.8300 C   0  0  0  0  0  3  0  0  0  0  0  0
  185.1730  178.4180  140.2270 C   0  0  0  0  0  0  0  0  0  0  0  0
  182.6660  179.0190  140.4890 C   0  0  0  0  0  2  0  0  0  0  0  0
  185.6420  178.1310  144.5830 C   0  0  0  0  0  2  0  0  0  0  0  0
  182.7950  178.3580  144.4910 O   0  0  0  0  0  0  0  0  0  0  0  0
  179.6020  178.6980  139.8500 C   0  0  0  0  0  1  0  0  0  0  0  0
  184.2130  178.7800  142.5610 C   0  0  2  0  0  3  0  0  0  0  0  0
  181.5720  178.6650  141.3840 N   0  0  1  0  0  0  0  0  0  0  0  0
  191.3070  177.1300  145.7170 C   0  0  0  0  0  2  0  0  0  0  0  0
  191.9710  176.3760  146.8180 C   0  0  0  0  0  0  0  0  0  0  0  0
  192.0550  176.9300  148.0880 O   0  0  0  0  0  1  0  0  0  0  0  0
  192.4300  175.2230  146.6050 O   0  0  0  0  0  0  0  0  0  0  0  0
  1 16  1  0  0  0  0
  2 24  1  1  0  0  0
  3 11  1  0  0  0  0
  4  3  2  0  0  0  0
  4 21  1  0  0  0  0
  5 25  2  0  0  0  0
  6 18  1  1  0  0  0
  6  5  1  0  0  0  0
  7 24  1  6  0  0  0
  7 19  1  0  0  0  0
  9 28  1  0  0  0  0
  9 15  1  0  0  0  0
 10 20  1  0  0  0  0
 11 13  2  0  0  0  0
 12  8  1  6  0  0  0
 12  2  1  0  0  0  0
 13 12  1  0  0  0  0
 14 23  1  6  0  0  0
 14 27  1  0  0  0  0
 15 18  1  0  0  0  0
 17  8  1  6  0  0  0
 17 10  1  0  0  0  0
 17  7  1  0  0  0  0
 19 16  1  0  0  0  0
 20 29  1  6  0  0  0
 20  1  1  0  0  0  0
 21 22  2  0  0  0  0
 22 13  1  0  0  0  0
 22 14  1  0  0  0  0
 26  9  1  0  0  0  0
 27  2  1  0  0  0  0
 27  5  1  1  0  0  0
 28 23  1  6  0  0  0
 28  6  1  0  0  0  0
 29 30  1  0  0  0  0
 30 31  1  0  0  0  0
 32 30  2  0  0  0  0
M  END
>  <MODEL>
3

>  <REMARK>
 VINA RESULT:      -9.3      4.207      7.307
  Name = 
  2 active torsions:
  status: ('A' for Active; 'I' for Inactive)
    1  A    between atoms: C_20  and  C_29
    2  A    between atoms: C_29  and  C_30
                            x       y       z     vdW  Elec       q    Type
                         _______ _______ _______ _____ _____    ______ ____

>  <TORSDO>
F 2

$$$$
=
 OpenBabel11122410373D

 32 37  0  0  1  0  0  0  0  0999 V2000
  188.6130  176.4630  138.3310 C   0  0  0  0  0  2  0  0  0  0  0  0
  184.8750  178.6640  141.1810 C   0  0  1  0  0  3  0  0  0  0  0  0
  186.4490  178.0760  145.8770 C   0  0  0  0  0  3  0  0  0  0  0  0
  185.1850  178.4420  146.3420 C   0  0  0  0  0  3  0  0  0  0  0  0
  182.3040  178.5980  140.7750 C   0  0  0  0  0  0  0  0  0  0  0  0
  181.0010  178.4580  141.4710 C   0  0  2  0  0  3  0  0  0  0  0  0
  186.5840  178.6350  139.3750 C   0  0  1  0  0  3  0  0  0  0  0  0
  187.3130  178.4890  141.6520 C   0  0  0  0  0  2  0  0  0  0  0  0
  179.5990  179.3250  142.8950 N   0  0  0  0  0  0  0  0  0  0  0  0
  188.9220  178.4340  139.9430 C   0  0  0  0  0  2  0  0  0  0  0  0
  186.6850  177.9710  144.5060 C   0  0  0  0  0  3  0  0  0  0  0  0
  185.9270  178.0270  142.1030 C   0  0  1  0  0  3  0  0  0  0  0  0
  185.6660  178.2460  143.5800 C   0  0  0  0  0  0  0  0  0  0  0  0
  183.2760  178.9250  143.0830 C   0  0  2  0  0  3  0  0  0  0  0  0
  178.9310  179.0640  141.6650 C   0  0  0  0  0  2  0  0  0  0  0  0
  187.2940  176.8580  137.6460 C   0  0  0  0  0  2  0  0  0  0  0  0
  187.5630  178.0160  140.2900 N   0  0  2  0  0  0  0  0  0  0  0  0
  179.7450  178.6260  140.7590 N   0  0  0  0  0  2  0  0  0  0  0  0
  186.8480  178.3050  137.8980 C   0  0  0  0  0  2  0  0  0  0  0  0
  189.4850  177.6600  138.7370 C   0  0  1  0  0  3  0  0  0  0  0  0
  184.1540  178.6910  145.4360 C   0  0  0  0  0  3  0  0  0  0  0  0
  184.3700  178.5640  144.0540 C   0  0  0  0  0  0  0  0  0  0  0  0
  181.8250  178.7770  143.6160 C   0  0  0  0  0  2  0  0  0  0  0  0
  185.1630  178.2080  139.7510 C   0  0  0  0  0  2  0  0  0  0  0  0
  182.4000  178.9200  139.6010 O   0  0  0  0  0  0  0  0  0  0  0  0
  179.0060  180.1340  143.9440 C   0  0  0  0  0  1  0  0  0  0  0  0
  183.4840  178.2780  141.6810 C   0  0  2  0  0  3  0  0  0  0  0  0
  180.9630  179.3640  142.5980 N   0  0  1  0  0  0  0  0  0  0  0  0
  190.8990  177.2040  139.0580 C   0  0  0  0  0  2  0  0  0  0  0  0
  191.0870  177.0590  140.5290 C   0  0  0  0  0  0  0  0  0  0  0  0
  190.4800  176.0100  141.2070 O   0  0  0  0  0  1  0  0  0  0  0  0
  191.8190  177.8690  141.1540 O   0  0  0  0  0  0  0  0  0  0  0  0
  1 20  1  0  0  0  0
  2 24  1  6  0  0  0
  2 27  1  0  0  0  0
  2 12  1  0  0  0  0
  3  4  1  0  0  0  0
  5  6  1  0  0  0  0
  6 18  1  6  0  0  0
  6 28  1  0  0  0  0
  7 19  1  6  0  0  0
  7 24  1  0  0  0  0
  7 17  1  0  0  0  0
  9 26  1  0  0  0  0
 11  3  2  0  0  0  0
 12  8  1  6  0  0  0
 12 13  1  0  0  0  0
 13 22  2  0  0  0  0
 13 11  1  0  0  0  0
 14 23  1  1  0  0  0
 14 22  1  0  0  0  0
 15  9  1  0  0  0  0
 16 19  1  0  0  0  0
 16  1  1  0  0  0  0
 17 10  1  6  0  0  0
 17  8  1  0  0  0  0
 18 15  1  0  0  0  0
 20 29  1  1  0  0  0
 20 10  1  0  0  0  0
 21  4  2  0  0  0  0
 22 21  1  0  0  0  0
 25  5  2  0  0  0  0
 27  5  1  6  0  0  0
 27 14  1  0  0  0  0
 28  9  1  0  0  0  0
 28 23  1  1  0  0  0
 29 30  1  0  0  0  0
 30 32  2  0  0  0  0
 30 31  1  0  0  0  0
M  END
>  <MODEL>
4

>  <REMARK>
 VINA RESULT:      -9.2      3.305      5.025
  Name = 
  2 active torsions:
  status: ('A' for Active; 'I' for Inactive)
    1  A    between atoms: C_20  and  C_29
    2  A    between atoms: C_29  and  C_30
                            x       y       z     vdW  Elec       q    Type
                         _______ _______ _______ _____ _____    ______ ____

>  <TORSDO>
F 2

$$$$
=
 OpenBabel11122410373D

 32 37  0  0  1  0  0  0  0  0999 V2000
  191.6810  175.0840  145.3910 C   0  0  0  0  0  2  0  0  0  0  0  0
  188.0570  178.0760  143.1870 C   0  0  1  0  0  3  0  0  0  0  0  0
  184.4170  178.2530  146.5930 C   0  0  0  0  0  3  0  0  0  0  0  0
  183.5580  178.8010  145.6400 C   0  0  0  0  0  3  0  0  0  0  0  0
  187.3430  178.1440  140.6840 C   0  0  0  0  0  0  0  0  0  0  0  0
  186.1590  178.2430  139.7950 C   0  0  2  0  0  3  0  0  0  0  0  0
  190.3600  177.5710  143.9770 C   0  0  1  0  0  3  0  0  0  0  0  0
  188.6090  177.7950  145.5970 C   0  0  0  0  0  2  0  0  0  0  0  0
  184.4930  179.4730  139.1180 N   0  0  0  0  0  0  0  0  0  0  0  0
  190.7790  177.2900  146.3390 C   0  0  0  0  0  2  0  0  0  0  0  0
  185.7110  177.8740  146.2310 C   0  0  0  0  0  3  0  0  0  0  0  0
  187.5420  177.5390  144.5320 C   0  0  1  0  0  3  0  0  0  0  0  0
  186.1690  178.0520  144.9160 C   0  0  0  0  0  0  0  0  0  0  0  0
  185.7630  178.8180  142.5350 C   0  0  2  0  0  3  0  0  0  0  0  0
  185.2560  179.0410  137.9950 C   0  0  0  0  0  2  0  0  0  0  0  0
  191.8250  175.4500  143.9040 C   0  0  0  0  0  2  0  0  0  0  0  0
  189.8240  177.0570  145.2540 N   0  0  2  0  0  0  0  0  0  0  0  0
  186.3070  178.3770  138.3550 N   0  0  0  0  0  2  0  0  0  0  0  0
  191.7120  176.9500  143.5980 C   0  0  0  0  0  2  0  0  0  0  0  0
  191.9240  176.2610  146.3470 C   0  0  1  0  0  3  0  0  0  0  0  0
  183.9880  178.9590  144.3220 C   0  0  0  0  0  3  0  0  0  0  0  0
  185.2780  178.5580  143.9380 C   0  0  0  0  0  0  0  0  0  0  0  0
  184.6600  178.8910  141.4430 C   0  0  0  0  0  2  0  0  0  0  0  0
  189.3520  177.3390  142.8490 C   0  0  0  0  0  2  0  0  0  0  0  0
  188.4910  178.2320  140.2760 O   0  0  0  0  0  0  0  0  0  0  0  0
  183.4830  180.5100  139.0160 C   0  0  0  0  0  1  0  0  0  0  0  0
  186.9600  177.9050  142.1370 C   0  0  2  0  0  3  0  0  0  0  0  0
  185.3280  179.3450  140.2300 N   0  0  1  0  0  0  0  0  0  0  0  0
  192.1300  175.7600  147.7660 C   0  0  0  0  0  2  0  0  0  0  0  0
  192.6380  176.8520  148.6450 C   0  0  0  0  0  0  0  0  0  0  0  0
  193.8980  176.7530  149.2180 O   0  0  0  0  0  1  0  0  0  0  0  0
  191.9370  177.8790  148.8430 O   0  0  0  0  0  0  0  0  0  0  0  0
  1 20  1  0  0  0  0
  2 24  1  6  0  0  0
  2 12  1  0  0  0  0
  4  3  2  0  0  0  0
  6 18  1  6  0  0  0
  6 28  1  0  0  0  0
  6  5  1  0  0  0  0
  7 24  1  6  0  0  0
  7 17  1  0  0  0  0
  9 28  1  0  0  0  0
 10 20  1  0  0  0  0
 11  3  1  0  0  0  0
 12 13  1  0  0  0  0
 12  8  1  1  0  0  0
 13 11  2  0  0  0  0
 14 23  1  6  0  0  0
 14 22  1  0  0  0  0
 15 18  1  0  0  0  0
 15  9  1  0  0  0  0
 16  1  1  0  0  0  0
 17  8  1  1  0  0  0
 17 10  1  0  0  0  0
 19 16  1  0  0  0  0
 19  7  1  0  0  0  0
 20 29  1  1  0  0  0
 21  4  1  0  0  0  0
 22 21  2  0  0  0  0
 22 13  1  0  0  0  0
 25  5  2  0  0  0  0
 26  9  1  0  0  0  0
 27  5  1  6  0  0  0
 27 14  1  0  0  0  0
 27  2  1  0  0  0  0
 28 23  1  1  0  0  0
 29 30  1  0  0  0  0
 30 32  2  0  0  0  0
 30 31  1  0  0  0  0
M  END
>  <MODEL>
5

>  <REMARK>
 VINA RESULT:      -9.1      3.716      6.919
  Name = 
  2 active torsions:
  status: ('A' for Active; 'I' for Inactive)
    1  A    between atoms: C_20  and  C_29
    2  A    between atoms: C_29  and  C_30
                            x       y       z     vdW  Elec       q    Type
                         _______ _______ _______ _____ _____    ______ ____

>  <TORSDO>
F 2

$$$$
=
 OpenBabel11122410373D

 32 37  0  0  1  0  0  0  0  0999 V2000
  190.2880  176.3620  139.6590 C   0  0  0  0  0  2  0  0  0  0  0  0
  186.1130  178.6490  141.7260 C   0  0  1  0  0  3  0  0  0  0  0  0
  186.6070  177.8420  146.6230 C   0  0  0  0  0  3  0  0  0  0  0  0
  185.2880  178.2530  146.8190 C   0  0  0  0  0  3  0  0  0  0  0  0
  183.6900  178.7190  140.7740 C   0  0  0  0  0  0  0  0  0  0  0  0
  182.2620  178.6190  141.1670 C   0  0  2  0  0  3  0  0  0  0  0  0
  188.1690  178.5950  140.3300 C   0  0  1  0  0  3  0  0  0  0  0  0
  188.3810  178.3430  142.7030 C   0  0  0  0  0  2  0  0  0  0  0  0
  180.6210  179.5080  142.2900 N   0  0  0  0  0  0  0  0  0  0  0  0
  190.3190  178.2650  141.3790 C   0  0  0  0  0  2  0  0  0  0  0  0
  187.1290  177.7680  145.3310 C   0  0  0  0  0  3  0  0  0  0  0  0
  186.9130  177.9340  142.8260 C   0  0  1  0  0  3  0  0  0  0  0  0
  186.3480  178.1200  144.2200 C   0  0  0  0  0  0  0  0  0  0  0  0
  184.1510  178.9280  143.2480 C   0  0  2  0  0  3  0  0  0  0  0  0
  180.2250  179.3180  140.9360 C   0  0  0  0  0  2  0  0  0  0  0  0
  189.1660  176.8410  138.7230 C   0  0  0  0  0  2  0  0  0  0  0  0
  188.9010  177.9020  141.4090 N   0  0  2  0  0  0  0  0  0  0  0  0
  181.1980  178.8700  140.2080 N   0  0  0  0  0  2  0  0  0  0  0  0
  188.7340  178.2990  138.9330 C   0  0  0  0  0  2  0  0  0  0  0  0
  191.0990  177.5030  140.2920 C   0  0  1  0  0  3  0  0  0  0  0  0
  184.4880  178.5790  145.7230 C   0  0  0  0  0  3  0  0  0  0  0  0
  184.9940  178.4850  144.4170 C   0  0  0  0  0  0  0  0  0  0  0  0
  182.6150  178.8320  143.4500 C   0  0  0  0  0  2  0  0  0  0  0  0
  186.6850  178.2250  140.3740 C   0  0  0  0  0  2  0  0  0  0  0  0
  184.0510  179.0720  139.6620 O   0  0  0  0  0  0  0  0  0  0  0  0
  179.8470  180.3120  143.2190 C   0  0  0  0  0  1  0  0  0  0  0  0
  184.6320  178.3150  141.8990 C   0  0  2  0  0  3  0  0  0  0  0  0
  182.0180  179.4910  142.2950 N   0  0  1  0  0  0  0  0  0  0  0  0
  192.3900  176.9710  140.8910 C   0  0  0  0  0  2  0  0  0  0  0  0
  193.4720  176.9320  139.8670 C   0  0  0  0  0  0  0  0  0  0  0  0
  193.1680  177.1280  138.5260 O   0  0  0  0  0  0  0  0  0  0  0  0
  194.6670  176.7530  140.2190 O   0  0  0  0  0  1  0  0  0  0  0  0
  1 20  1  0  0  0  0
  2 24  1  6  0  0  0
  2 27  1  0  0  0  0
  2 12  1  0  0  0  0
  3  4  1  0  0  0  0
  5  6  1  0  0  0  0
  6 18  1  6  0  0  0
  6 28  1  0  0  0  0
  7 19  1  6  0  0  0
  7 24  1  0  0  0  0
  7 17  1  0  0  0  0
  9 28  1  0  0  0  0
  9 26  1  0  0  0  0
 11  3  2  0  0  0  0
 12  8  1  1  0  0  0
 12 13  1  0  0  0  0
 13 22  2  0  0  0  0
 13 11  1  0  0  0  0
 14 23  1  1  0  0  0
 14 22  1  0  0  0  0
 15  9  1  0  0  0  0
 16 19  1  0  0  0  0
 16  1  1  0  0  0  0
 17 10  1  1  0  0  0
 17  8  1  0  0  0  0
 18 15  1  0  0  0  0
 20 29  1  1  0  0  0
 20 10  1  0  0  0  0
 21  4  2  0  0  0  0
 22 21  1  0  0  0  0
 25  5  2  0  0  0  0
 27  5  1  6  0  0  0
 27 14  1  0  0  0  0
 28 23  1  1  0  0  0
 30 32  1  0  0  0  0
 30 29  1  0  0  0  0
 31 30  2  0  0  0  0
M  END
>  <MODEL>
6

>  <REMARK>
 VINA RESULT:      -9.0      2.660      4.217
  Name = 
  2 active torsions:
  status: ('A' for Active; 'I' for Inactive)
    1  A    between atoms: C_20  and  C_29
    2  A    between atoms: C_29  and  C_30
                            x       y       z     vdW  Elec       q    Type
                         _______ _______ _______ _____ _____    ______ ____

>  <TORSDO>
F 2

$$$$
=
 OpenBabel11122410373D

 32 37  0  0  1  0  0  0  0  0999 V2000
  189.5280  178.2740  145.7880 C   0  0  0  0  0  2  0  0  0  0  0  0
  186.2750  177.8390  141.7670 C   0  0  1  0  0  3  0  0  0  0  0  0
  189.2050  178.4850  137.7820 C   0  0  0  0  0  3  0  0  0  0  0  0
  188.0720  178.6250  136.9780 C   0  0  0  0  0  3  0  0  0  0  0  0
  183.8250  178.7020  141.5900 C   0  0  0  0  0  0  0  0  0  0  0  0
  182.8660  179.3590  140.6650 C   0  0  2  0  0  3  0  0  0  0  0  0
  187.3400  177.0590  143.8730 C   0  0  1  0  0  3  0  0  0  0  0  0
  188.6900  177.2540  141.9040 C   0  0  0  0  0  2  0  0  0  0  0  0
  181.7340  179.2030  138.8110 N   0  0  0  0  0  0  0  0  0  0  0  0
  189.6990  176.5440  143.9020 C   0  0  0  0  0  2  0  0  0  0  0  0
  189.0650  178.3230  139.1610 C   0  0  0  0  0  3  0  0  0  0  0  0
  187.6790  178.2060  141.2630 C   0  0  1  0  0  3  0  0  0  0  0  0
  187.7930  178.2830  139.7530 C   0  0  0  0  0  0  0  0  0  0  0  0
  185.2700  178.3780  139.5440 C   0  0  2  0  0  3  0  0  0  0  0  0
  180.8510  179.5070  139.8860 C   0  0  0  0  0  2  0  0  0  0  0  0
  188.0140  178.2530  146.0570 C   0  0  0  0  0  2  0  0  0  0  0  0
  188.6720  177.4320  143.3560 N   0  0  2  0  0  0  0  0  0  0  0  0
  181.4680  179.5250  141.0240 N   0  0  0  0  0  2  0  0  0  0  0  0
  187.2620  177.0840  145.4070 C   0  0  0  0  0  2  0  0  0  0  0  0
  190.0980  176.9190  145.3410 C   0  0  1  0  0  3  0  0  0  0  0  0
  186.8020  178.6150  137.5540 C   0  0  0  0  0  3  0  0  0  0  0  0
  186.6480  178.4790  138.9430 C   0  0  0  0  0  0  0  0  0  0  0  0
  184.1330  179.0700  138.7430 C   0  0  0  0  0  2  0  0  0  0  0  0
  186.2670  177.9800  143.2880 C   0  0  0  0  0  2  0  0  0  0  0  0
  183.4900  178.2140  142.6580 O   0  0  0  0  0  0  0  0  0  0  0  0
  181.2540  178.7840  137.5070 C   0  0  0  0  0  1  0  0  0  0  0  0
  185.2510  178.7280  141.0620 C   0  0  2  0  0  3  0  0  0  0  0  0
  182.8890  178.6740  139.3910 N   0  0  1  0  0  0  0  0  0  0  0  0
  191.6130  176.9170  145.4510 C   0  0  0  0  0  2  0  0  0  0  0  0
  192.0560  176.1500  146.6490 C   0  0  0  0  0  0  0  0  0  0  0  0
  192.0510  176.7520  147.9000 O   0  0  0  0  0  1  0  0  0  0  0  0
  192.4060  174.9470  146.5340 O   0  0  0  0  0  0  0  0  0  0  0  0
  1 16  1  0  0  0  0
  2 24  1  1  0  0  0
  3 11  1  0  0  0  0
  4 21  1  0  0  0  0
  4  3  2  0  0  0  0
  5 25  2  0  0  0  0
  6 18  1  1  0  0  0
  6  5  1  0  0  0  0
  7 24  1  6  0  0  0
  7 19  1  0  0  0  0
  9 28  1  0  0  0  0
  9 15  1  0  0  0  0
 10 20  1  0  0  0  0
 11 13  2  0  0  0  0
 12  2  1  0  0  0  0
 12  8  1  6  0  0  0
 13 12  1  0  0  0  0
 14 23  1  6  0  0  0
 14 27  1  0  0  0  0
 15 18  1  0  0  0  0
 17  8  1  6  0  0  0
 17  7  1  0  0  0  0
 17 10  1  0  0  0  0
 19 16  1  0  0  0  0
 20 29  1  6  0  0  0
 20  1  1  0  0  0  0
 21 22  2  0  0  0  0
 22 14  1  0  0  0  0
 22 13  1  0  0  0  0
 26  9  1  0  0  0  0
 27  5  1  1  0  0  0
 27  2  1  0  0  0  0
 28 23  1  6  0  0  0
 28  6  1  0  0  0  0
 29 30  1  0  0  0  0
 30 31  1  0  0  0  0
 32 30  2  0  0  0  0
M  END
>  <MODEL>
7

>  <REMARK>
 VINA RESULT:      -8.9      3.815      7.144
  Name = 
  2 active torsions:
  status: ('A' for Active; 'I' for Inactive)
    1  A    between atoms: C_20  and  C_29
    2  A    between atoms: C_29  and  C_30
                            x       y       z     vdW  Elec       q    Type
                         _______ _______ _______ _____ _____    ______ ____

>  <TORSDO>
F 2

$$$$
=
 OpenBabel11122410373D

 32 37  0  0  1  0  0  0  0  0999 V2000
  187.4020  176.8450  143.9340 C   0  0  0  0  0  2  0  0  0  0  0  0
  190.1110  177.3330  139.5340 C   0  0  1  0  0  3  0  0  0  0  0  0
  186.6460  177.0490  135.9570 C   0  0  0  0  0  3  0  0  0  0  0  0
  187.6520  176.8960  135.0010 C   0  0  0  0  0  3  0  0  0  0  0  0
  192.4640  176.3600  138.9860 C   0  0  0  0  0  0  0  0  0  0  0  0
  193.2520  175.7070  137.9110 C   0  0  2  0  0  3  0  0  0  0  0  0
  189.3810  178.0510  141.7990 C   0  0  1  0  0  3  0  0  0  0  0  0
  187.7730  178.0290  140.0240 C   0  0  0  0  0  2  0  0  0  0  0  0
  194.1340  175.9060  135.9290 N   0  0  0  0  0  0  0  0  0  0  0  0
  187.0800  178.6800  142.1710 C   0  0  0  0  0  2  0  0  0  0  0  0
  186.9770  177.1280  137.3100 C   0  0  0  0  0  3  0  0  0  0  0  0
  188.6340  177.0640  139.2090 C   0  0  1  0  0  3  0  0  0  0  0  0
  188.3170  177.0740  137.7260 C   0  0  0  0  0  0  0  0  0  0  0  0
  190.7800  176.8650  137.1730 C   0  0  2  0  0  3  0  0  0  0  0  0
  195.1340  175.5010  136.8590 C   0  0  0  0  0  2  0  0  0  0  0  0
  188.9370  176.7760  143.9960 C   0  0  0  0  0  2  0  0  0  0  0  0
  187.9740  177.7730  141.4500 N   0  0  2  0  0  0  0  0  0  0  0  0
  194.6750  175.4530  138.0690 N   0  0  0  0  0  2  0  0  0  0  0  0
  189.6610  177.9400  143.3050 C   0  0  0  0  0  2  0  0  0  0  0  0
  186.8550  178.2480  143.6320 C   0  0  1  0  0  3  0  0  0  0  0  0
  188.9870  176.8110  135.4000 C   0  0  0  0  0  3  0  0  0  0  0  0
  189.3310  176.8640  136.7600 C   0  0  0  0  0  0  0  0  0  0  0  0
  191.7600  176.1620  136.1940 C   0  0  0  0  0  2  0  0  0  0  0  0
  190.3130  177.1110  141.0320 C   0  0  0  0  0  2  0  0  0  0  0  0
  192.9640  176.7720  140.0210 O   0  0  0  0  0  0  0  0  0  0  0  0
  194.4600  176.3700  134.5940 C   0  0  0  0  0  1  0  0  0  0  0  0
  190.9800  176.4330  138.6560 C   0  0  2  0  0  3  0  0  0  0  0  0
  193.0990  176.4600  136.6850 N   0  0  1  0  0  0  0  0  0  0  0  0
  185.3700  178.3200  143.9460 C   0  0  0  0  0  2  0  0  0  0  0  0
  185.1460  178.8460  145.3220 C   0  0  0  0  0  0  0  0  0  0  0  0
  183.8530  178.9890  145.8090 O   0  0  0  0  0  0  0  0  0  0  0  0
  186.1270  179.1340  146.0550 O   0  0  0  0  0  1  0  0  0  0  0  0
  1 16  1  0  0  0  0
  2 24  1  1  0  0  0
  3 11  1  0  0  0  0
  4 21  1  0  0  0  0
  4  3  2  0  0  0  0
  5 25  2  0  0  0  0
  6 18  1  1  0  0  0
  6  5  1  0  0  0  0
  7 24  1  6  0  0  0
  7 19  1  0  0  0  0
  9 28  1  0  0  0  0
  9 15  1  0  0  0  0
 10 20  1  0  0  0  0
 11 13  2  0  0  0  0
 12  2  1  0  0  0  0
 12  8  1  1  0  0  0
 13 12  1  0  0  0  0
 14 23  1  6  0  0  0
 14 27  1  0  0  0  0
 15 18  1  0  0  0  0
 17  8  1  6  0  0  0
 17  7  1  0  0  0  0
 17 10  1  0  0  0  0
 19 16  1  0  0  0  0
 20  1  1  0  0  0  0
 20 29  1  6  0  0  0
 21 22  2  0  0  0  0
 22 14  1  0  0  0  0
 22 13  1  0  0  0  0
 26  9  1  0  0  0  0
 27  5  1  1  0  0  0
 27  2  1  0  0  0  0
 28 23  1  6  0  0  0
 28  6  1  0  0  0  0
 29 30  1  0  0  0  0
 30 31  2  0  0  0  0
 30 32  1  0  0  0  0
M  END
>  <MODEL>
8

>  <REMARK>
 VINA RESULT:      -8.4      2.581      9.430
  Name = 
  2 active torsions:
  status: ('A' for Active; 'I' for Inactive)
    1  A    between atoms: C_20  and  C_29
    2  A    between atoms: C_29  and  C_30
                            x       y       z     vdW  Elec       q    Type
                         _______ _______ _______ _____ _____    ______ ____

>  <TORSDO>
F 2

$$$$
=
 OpenBabel11122410373D

 32 37  0  0  1  0  0  0  0  0999 V2000
  191.5760  175.2300  137.0040 C   0  0  0  0  0  2  0  0  0  0  0  0
  189.0690  177.6730  140.8360 C   0  0  1  0  0  3  0  0  0  0  0  0
  191.5630  176.3330  144.9430 C   0  0  0  0  0  3  0  0  0  0  0  0
  190.5300  176.8420  145.7310 C   0  0  0  0  0  3  0  0  0  0  0  0
  186.5060  178.0610  141.0790 C   0  0  0  0  0  0  0  0  0  0  0  0
  185.3980  178.0550  142.0670 C   0  0  2  0  0  3  0  0  0  0  0  0
  190.2740  177.5700  138.6640 C   0  0  1  0  0  3  0  0  0  0  0  0
  191.4760  177.0620  140.6730 C   0  0  0  0  0  2  0  0  0  0  0  0
  184.5480  178.9730  143.8500 N   0  0  0  0  0  0  0  0  0  0  0  0
  192.6040  176.9380  138.6170 C   0  0  0  0  0  2  0  0  0  0  0  0
  191.4490  176.3420  143.5520 C   0  0  0  0  0  3  0  0  0  0  0  0
  190.1740  176.7790  141.4220 C   0  0  1  0  0  3  0  0  0  0  0  0
  190.3090  176.8750  142.9290 C   0  0  0  0  0  0  0  0  0  0  0  0
  188.0330  177.9760  143.0890 C   0  0  2  0  0  3  0  0  0  0  0  0
  183.5750  178.9580  142.8100 C   0  0  0  0  0  2  0  0  0  0  0  0
  190.2280  175.9030  136.6970 C   0  0  0  0  0  2  0  0  0  0  0  0
  191.3120  176.7070  139.2630 N   0  0  2  0  0  0  0  0  0  0  0  0
  184.0620  178.4980  141.7020 N   0  0  0  0  0  2  0  0  0  0  0  0
  190.1220  177.3650  137.1490 C   0  0  0  0  0  2  0  0  0  0  0  0
  192.7210  176.2210  137.2600 C   0  0  1  0  0  3  0  0  0  0  0  0
  189.3780  177.3500  145.1290 C   0  0  0  0  0  3  0  0  0  0  0  0
  189.2400  177.3410  143.7310 C   0  0  0  0  0  0  0  0  0  0  0  0
  186.7440  178.0030  143.9550 C   0  0  0  0  0  2  0  0  0  0  0  0
  188.9280  177.3360  139.3520 C   0  0  0  0  0  2  0  0  0  0  0  0
  186.3820  178.4900  139.9430 O   0  0  0  0  0  0  0  0  0  0  0  0
  184.3720  179.7470  145.0650 C   0  0  0  0  0  1  0  0  0  0  0  0
  187.7870  177.4610  141.6400 C   0  0  2  0  0  3  0  0  0  0  0  0
  185.7890  178.8270  143.2260 N   0  0  1  0  0  0  0  0  0  0  0  0
  194.0640  175.5150  137.1880 C   0  0  0  0  0  2  0  0  0  0  0  0
  194.8460  175.9820  136.0080 C   0  0  0  0  0  0  0  0  0  0  0  0
  195.0510  177.3400  135.8040 O   0  0  0  0  0  1  0  0  0  0  0  0
  195.3460  175.1460  135.2110 O   0  0  0  0  0  0  0  0  0  0  0  0
  1 20  1  0  0  0  0
  2 24  1  6  0  0  0
  2 12  1  0  0  0  0
  2 27  1  0  0  0  0
  3  4  1  0  0  0  0
  6  5  1  6  0  0  0
  6 28  1  0  0  0  0
  7 19  1  6  0  0  0
  7 17  1  0  0  0  0
  7 24  1  0  0  0  0
  9 26  1  0  0  0  0
 11  3  2  0  0  0  0
 12  8  1  6  0  0  0
 12 13  1  0  0  0  0
 13 11  1  0  0  0  0
 13 22  2  0  0  0  0
 14 22  1  0  0  0  0
 14 23  1  1  0  0  0
 15  9  1  0  0  0  0
 16  1  1  0  0  0  0
 16 19  1  0  0  0  0
 17 10  1  6  0  0  0
 17  8  1  0  0  0  0
 18  6  1  0  0  0  0
 18 15  1  0  0  0  0
 20 29  1  1  0  0  0
 20 10  1  0  0  0  0
 21  4  2  0  0  0  0
 22 21  1  0  0  0  0
 25  5  2  0  0  0  0
 27  5  1  6  0  0  0
 27 14  1  0  0  0  0
 28  9  1  0  0  0  0
 28 23  1  1  0  0  0
 30 29  1  0  0  0  0
 31 30  1  0  0  0  0
 32 30  2  0  0  0  0
M  END
>  <MODEL>
9

>  <REMARK>
 VINA RESULT:      -8.3      1.184      1.501
  Name = 
  2 active torsions:
  status: ('A' for Active; 'I' for Inactive)
    1  A    between atoms: C_20  and  C_29
    2  A    between atoms: C_29  and  C_30
                            x       y       z     vdW  Elec       q    Type
                         _______ _______ _______ _____ _____    ______ ____

>  <TORSDO>
F 2

$$$$
