=
 OpenBabel11122410233D

 30 35  0  0  1  0  0  0  0  0999 V2000
  189.3770  177.4250  143.5430 C   0  0  1  0  0  3  0  0  0  0  0  0
  191.3230  176.5110  144.9160 C   0  0  0  0  0  0  0  0  0  0  0  0
  187.0450  177.9310  147.1700 C   0  0  0  0  0  2  0  0  0  0  0  0
  188.0990  178.2870  143.6520 C   0  0  1  0  0  3  0  0  0  0  0  0
  190.2490  178.0030  142.6020 O   0  0  0  0  0  0  0  0  0  0  0  0
  187.8070  178.4200  140.0180 O   0  0  0  0  0  0  0  0  0  0  0  0
  185.0340  177.9250  142.6660 C   0  0  1  0  0  3  0  0  0  0  0  0
  188.2790  178.2050  141.1670 C   0  0  0  0  0  0  0  0  0  0  0  0
  184.7700  177.9250  144.1700 C   0  0  2  0  0  3  0  0  0  0  0  0
  185.8070  178.2970  146.4360 C   0  0  0  0  0  0  0  0  0  0  0  0
  189.7190  177.7700  141.3050 C   0  0  2  0  0  3  0  0  0  0  0  0
  187.4480  178.3400  142.3370 N   0  0  0  0  0  0  0  0  0  0  0  0
  191.8900  176.1460  146.1400 C   0  0  0  0  0  3  0  0  0  0  0  0
  183.6250  178.8960  144.3690 C   0  0  0  0  0  2  0  0  0  0  0  0
  183.7020  178.2720  142.0190 C   0  0  0  0  0  2  0  0  0  0  0  0
  192.0080  176.2530  143.7730 F   0  0  0  0  0  0  0  0  0  0  0  0
  188.0330  178.0220  146.0320 C   0  0  2  0  0  3  0  0  0  0  0  0
  191.2000  176.3710  147.3330 C   0  0  0  0  0  3  0  0  0  0  0  0
  190.0580  177.1230  144.8760 C   0  0  0  0  0  0  0  0  0  0  0  0
  187.2570  177.6830  144.7730 C   0  0  1  0  0  3  0  0  0  0  0  0
  184.7270  178.5690  147.0230 O   0  0  0  0  0  0  0  0  0  0  0  0
  185.9320  178.2500  145.0080 N   0  0  0  0  0  0  0  0  0  0  0  0
  182.7770  178.7580  143.1230 C   0  0  0  0  0  2  0  0  0  0  0  0
  186.0070  180.3210  142.7090 C   0  0  0  0  0  1  0  0  0  0  0  0
  189.9320  176.9530  147.3090 C   0  0  0  0  0  3  0  0  0  0  0  0
  189.3430  177.2990  146.0880 C   0  0  0  0  0  0  0  0  0  0  0  0
  186.1090  178.8960  142.1710 C   0  0  2  0  0  3  0  0  0  0  0  0
  189.9050  176.3210  140.8660 C   0  0  0  0  0  2  0  0  0  0  0  0
  191.5060  177.0430  139.5340 C   0  0  0  0  0  1  0  0  0  0  0  0
  190.3390  176.2790  139.5420 O   0  0  0  0  0  0  0  0  0  0  0  0
  1  5  1  6  0  0  0
  1  4  1  0  0  0  0
  1 19  1  0  0  0  0
  2 13  1  0  0  0  0
  4 12  1  6  0  0  0
  4 20  1  0  0  0  0
  6  8  2  0  0  0  0
  7 15  1  6  0  0  0
  7  9  1  0  0  0  0
  8 11  1  0  0  0  0
  8 12  1  0  0  0  0
  9 14  1  6  0  0  0
  9 22  1  0  0  0  0
 10 21  2  0  0  0  0
 10  3  1  0  0  0  0
 11 28  1  1  0  0  0
 11  5  1  0  0  0  0
 13 18  2  0  0  0  0
 15 23  1  0  0  0  0
 16  2  1  0  0  0  0
 17 26  1  0  0  0  0
 17  3  1  1  0  0  0
 19  2  2  0  0  0  0
 19 26  1  0  0  0  0
 20 22  1  1  0  0  0
 20 17  1  0  0  0  0
 22 10  1  0  0  0  0
 23 14  1  0  0  0  0
 25 18  1  0  0  0  0
 26 25  2  0  0  0  0
 27 12  1  0  0  0  0
 27  7  1  0  0  0  0
 27 24  1  1  0  0  0
 29 30  1  0  0  0  0
 30 28  1  0  0  0  0
M  END
>  <MODEL>
1

>  <REMARK>
 VINA RESULT:      -9.7      0.000      0.000
  Name = 
  2 active torsions:
  status: ('A' for Active; 'I' for Inactive)
    1  A    between atoms: C_11  and  C_28
    2  A    between atoms: C_28  and  O_30
                            x       y       z     vdW  Elec       q    Type
                         _______ _______ _______ _____ _____    ______ ____

>  <TORSDO>
F 2

$$$$
=
 OpenBabel11122410233D

 30 35  0  0  1  0  0  0  0  0999 V2000
  186.4580  178.3320  142.5610 C   0  0  1  0  0  3  0  0  0  0  0  0
  187.1330  178.1620  145.0160 C   0  0  0  0  0  0  0  0  0  0  0  0
  182.3050  178.8260  143.7270 C   0  0  0  0  0  2  0  0  0  0  0  0
  185.3410  178.8550  141.6300 C   0  0  1  0  0  3  0  0  0  0  0  0
  187.6760  178.9470  142.2190 O   0  0  0  0  0  0  0  0  0  0  0  0
  187.4480  178.3210  138.7010 O   0  0  0  0  0  0  0  0  0  0  0  0
  183.6790  177.5910  139.1540 C   0  0  1  0  0  3  0  0  0  0  0  0
  187.0850  178.4200  139.9050 C   0  0  0  0  0  0  0  0  0  0  0  0
  182.5100  177.7700  140.1190 C   0  0  2  0  0  3  0  0  0  0  0  0
  181.8050  178.7500  142.3310 C   0  0  0  0  0  0  0  0  0  0  0  0
  188.1290  178.3830  140.9970 C   0  0  2  0  0  3  0  0  0  0  0  0
  185.6880  178.5320  140.2410 N   0  0  0  0  0  0  0  0  0  0  0  0
  186.8060  178.1520  146.3740 C   0  0  0  0  0  3  0  0  0  0  0  0
  181.4260  178.4470  139.3050 C   0  0  0  0  0  2  0  0  0  0  0  0
  183.0530  177.4880  137.7710 C   0  0  0  0  0  2  0  0  0  0  0  0
  188.4110  177.9000  144.6460 F   0  0  0  0  0  0  0  0  0  0  0  0
  183.7810  178.9730  143.4450 C   0  0  2  0  0  3  0  0  0  0  0  0
  185.4940  178.3900  146.7880 C   0  0  0  0  0  3  0  0  0  0  0  0
  186.1420  178.4270  144.0520 C   0  0  0  0  0  0  0  0  0  0  0  0
  184.0310  178.2520  142.1340 C   0  0  1  0  0  3  0  0  0  0  0  0
  180.5820  178.8370  142.0440 O   0  0  0  0  0  0  0  0  0  0  0  0
  182.8240  178.5040  141.3520 N   0  0  0  0  0  0  0  0  0  0  0  0
  181.5960  177.9030  137.9030 C   0  0  0  0  0  2  0  0  0  0  0  0
  184.1800  180.1280  139.0930 C   0  0  0  0  0  1  0  0  0  0  0  0
  184.4950  178.6280  145.8440 C   0  0  0  0  0  3  0  0  0  0  0  0
  184.8030  178.6150  144.4780 C   0  0  0  0  0  0  0  0  0  0  0  0
  184.7300  178.7050  139.1550 C   0  0  2  0  0  3  0  0  0  0  0  0
  188.6800  176.9730  141.1900 C   0  0  0  0  0  2  0  0  0  0  0  0
  190.1760  176.0360  142.5100 C   0  0  0  0  0  1  0  0  0  0  0  0
  190.0250  177.0370  141.5510 O   0  0  0  0  0  0  0  0  0  0  0  0
  1  5  1  1  0  0  0
  1 19  1  0  0  0  0
  2 13  1  0  0  0  0
  4 12  1  6  0  0  0
  4 20  1  0  0  0  0
  4  1  1  0  0  0  0
  6  8  2  0  0  0  0
  7 15  1  6  0  0  0
  7 27  1  0  0  0  0
  7  9  1  0  0  0  0
  8 12  1  0  0  0  0
  8 11  1  0  0  0  0
  9 14  1  6  0  0  0
  9 22  1  0  0  0  0
 10  3  1  0  0  0  0
 11 28  1  1  0  0  0
 11  5  1  0  0  0  0
 13 18  2  0  0  0  0
 15 23  1  0  0  0  0
 16  2  1  0  0  0  0
 17  3  1  1  0  0  0
 17 26  1  0  0  0  0
 19 26  1  0  0  0  0
 19  2  2  0  0  0  0
 20 22  1  6  0  0  0
 20 17  1  0  0  0  0
 21 10  2  0  0  0  0
 22 10  1  0  0  0  0
 23 14  1  0  0  0  0
 25 18  1  0  0  0  0
 26 25  2  0  0  0  0
 27 24  1  1  0  0  0
 27 12  1  0  0  0  0
 28 30  1  0  0  0  0
 30 29  1  0  0  0  0
M  END
>  <MODEL>
2

>  <REMARK>
 VINA RESULT:      -9.1      2.613      4.335
  Name = 
  2 active torsions:
  status: ('A' for Active; 'I' for Inactive)
    1  A    between atoms: C_11  and  C_28
    2  A    between atoms: C_28  and  O_30
                            x       y       z     vdW  Elec       q    Type
                         _______ _______ _______ _____ _____    ______ ____

>  <TORSDO>
F 2

$$$$
=
 OpenBabel11122410233D

 30 35  0  0  1  0  0  0  0  0999 V2000
  187.2590  178.1700  140.4580 C   0  0  1  0  0  3  0  0  0  0  0  0
  184.9740  178.9010  139.5910 C   0  0  0  0  0  0  0  0  0  0  0  0
  185.6720  177.9640  144.4940 C   0  0  0  0  0  2  0  0  0  0  0  0
  187.9490  177.4470  141.6370 C   0  0  1  0  0  3  0  0  0  0  0  0
  187.5500  177.4900  139.2600 O   0  0  0  0  0  0  0  0  0  0  0  0
  191.0860  177.2860  139.7820 O   0  0  0  0  0  0  0  0  0  0  0  0
  190.5050  178.1060  143.5150 C   0  0  1  0  0  3  0  0  0  0  0  0
  189.8660  177.4690  140.0450 C   0  0  0  0  0  0  0  0  0  0  0  0
  189.4310  178.1570  144.5990 C   0  0  2  0  0  3  0  0  0  0  0  0
  187.0030  177.7160  145.1060 C   0  0  0  0  0  0  0  0  0  0  0  0
  188.9020  177.7560  138.9180 C   0  0  2  0  0  3  0  0  0  0  0  0
  189.3990  177.4390  141.4080 N   0  0  0  0  0  0  0  0  0  0  0  0
  183.6320  179.2260  139.8070 C   0  0  0  0  0  3  0  0  0  0  0  0
  189.9750  177.3120  145.7330 C   0  0  0  0  0  2  0  0  0  0  0  0
  191.8170  177.8870  144.2510 C   0  0  0  0  0  2  0  0  0  0  0  0
  185.4980  179.0700  138.3510 F   0  0  0  0  0  0  0  0  0  0  0  0
  186.0340  177.7540  143.0430 C   0  0  2  0  0  3  0  0  0  0  0  0
  183.0680  179.0920  141.0770 C   0  0  0  0  0  3  0  0  0  0  0  0
  185.7650  178.4220  140.6500 C   0  0  0  0  0  0  0  0  0  0  0  0
  187.4920  178.1520  142.9120 C   0  0  1  0  0  3  0  0  0  0  0  0
  187.1600  177.5670  146.3460 O   0  0  0  0  0  0  0  0  0  0  0  0
  188.0920  177.7280  144.1740 N   0  0  0  0  0  0  0  0  0  0  0  0
  191.4740  177.5160  145.6860 C   0  0  0  0  0  2  0  0  0  0  0  0
  190.0200  175.6240  142.9750 C   0  0  0  0  0  1  0  0  0  0  0  0
  183.8460  178.6430  142.1450 C   0  0  0  0  0  3  0  0  0  0  0  0
  185.1990  178.3390  141.9470 C   0  0  0  0  0  0  0  0  0  0  0  0
  190.3330  177.0210  142.4480 C   0  0  2  0  0  3  0  0  0  0  0  0
  189.0850  179.1720  138.3780 C   0  0  0  0  0  2  0  0  0  0  0  0
  189.0830  178.2630  136.3690 C   0  0  0  0  0  1  0  0  0  0  0  0
  188.4920  179.2790  137.1200 O   0  0  0  0  0  0  0  0  0  0  0  0
  1  5  1  6  0  0  0
  1 19  1  0  0  0  0
  1  4  1  0  0  0  0
  2 13  2  0  0  0  0
  2 19  1  0  0  0  0
  3 10  1  0  0  0  0
  4 12  1  6  0  0  0
  4 20  1  0  0  0  0
  6  8  2  0  0  0  0
  7 15  1  1  0  0  0
  7  9  1  0  0  0  0
  8 12  1  0  0  0  0
  9 14  1  1  0  0  0
 10 21  2  0  0  0  0
 11 28  1  1  0  0  0
 11  5  1  0  0  0  0
 11  8  1  0  0  0  0
 12 27  1  0  0  0  0
 13 18  1  0  0  0  0
 15 23  1  0  0  0  0
 16  2  1  0  0  0  0
 17  3  1  1  0  0  0
 18 25  2  0  0  0  0
 19 26  2  0  0  0  0
 20 17  1  0  0  0  0
 20 22  1  1  0  0  0
 22  9  1  0  0  0  0
 22 10  1  0  0  0  0
 23 14  1  0  0  0  0
 26 25  1  0  0  0  0
 26 17  1  0  0  0  0
 27 24  1  1  0  0  0
 27  7  1  0  0  0  0
 29 30  1  0  0  0  0
 30 28  1  0  0  0  0
M  END
>  <MODEL>
3

>  <REMARK>
 VINA RESULT:      -9.0      2.468      5.761
  Name = 
  2 active torsions:
  status: ('A' for Active; 'I' for Inactive)
    1  A    between atoms: C_11  and  C_28
    2  A    between atoms: C_28  and  O_30
                            x       y       z     vdW  Elec       q    Type
                         _______ _______ _______ _____ _____    ______ ____

>  <TORSDO>
F 2

$$$$
=
 OpenBabel11122410233D

 30 35  0  0  1  0  0  0  0  0999 V2000
  188.1870  177.8160  142.4490 C   0  0  1  0  0  3  0  0  0  0  0  0
  187.0870  177.9360  144.7470 C   0  0  0  0  0  0  0  0  0  0  0  0
  184.4450  178.9900  140.5860 C   0  0  0  0  0  2  0  0  0  0  0  0
  188.0520  178.3280  140.9970 C   0  0  1  0  0  3  0  0  0  0  0  0
  189.4310  178.2180  142.9700 O   0  0  0  0  0  0  0  0  0  0  0  0
  191.3920  177.1030  140.1900 O   0  0  0  0  0  0  0  0  0  0  0  0
  188.1570  176.9210  138.0810 C   0  0  1  0  0  3  0  0  0  0  0  0
  190.3710  177.4250  140.8560 C   0  0  0  0  0  0  0  0  0  0  0  0
  186.7030  177.3870  138.0350 C   0  0  2  0  0  3  0  0  0  0  0  0
  184.9520  178.7670  139.2080 C   0  0  0  0  0  0  0  0  0  0  0  0
  190.4410  177.4240  142.3650 C   0  0  2  0  0  3  0  0  0  0  0  0
  189.1370  177.7590  140.1890 N   0  0  0  0  0  0  0  0  0  0  0  0
  185.9720  178.1700  145.5580 C   0  0  0  0  0  3  0  0  0  0  0  0
  186.5470  178.0620  136.6880 C   0  0  0  0  0  2  0  0  0  0  0  0
  188.5560  176.6900  136.6320 C   0  0  0  0  0  2  0  0  0  0  0  0
  188.2240  177.4640  145.3170 F   0  0  0  0  0  0  0  0  0  0  0  0
  185.7520  178.9090  141.3370 C   0  0  2  0  0  3  0  0  0  0  0  0
  184.7770  178.6280  145.0000 C   0  0  0  0  0  3  0  0  0  0  0  0
  187.0170  178.1730  143.3630 C   0  0  0  0  0  0  0  0  0  0  0  0
  186.6400  177.9740  140.5370 C   0  0  1  0  0  3  0  0  0  0  0  0
  184.2420  178.9610  138.1860 O   0  0  0  0  0  0  0  0  0  0  0  0
  186.2890  178.2530  139.1470 N   0  0  0  0  0  0  0  0  0  0  0  0
  187.4670  177.2970  135.7610 C   0  0  0  0  0  2  0  0  0  0  0  0
  189.0550  179.3380  138.2820 C   0  0  0  0  0  1  0  0  0  0  0  0
  184.6830  178.8430  143.6250 C   0  0  0  0  0  3  0  0  0  0  0  0
  185.7840  178.5870  142.7990 C   0  0  0  0  0  0  0  0  0  0  0  0
  189.1520  177.8850  138.7350 C   0  0  2  0  0  3  0  0  0  0  0  0
  190.4580  176.0030  142.9190 C   0  0  0  0  0  2  0  0  0  0  0  0
  191.4780  176.3800  144.8360 C   0  0  0  0  0  1  0  0  0  0  0  0
  191.6560  175.7710  143.5940 O   0  0  0  0  0  0  0  0  0  0  0  0
  1  5  1  1  0  0  0
  1 19  1  0  0  0  0
  2 16  1  0  0  0  0
  2 13  1  0  0  0  0
  4 12  1  6  0  0  0
  4  1  1  0  0  0  0
  6  8  2  0  0  0  0
  7 15  1  6  0  0  0
  7 27  1  0  0  0  0
  8 11  1  0  0  0  0
  9 14  1  6  0  0  0
  9  7  1  0  0  0  0
  9 22  1  0  0  0  0
 10  3  1  0  0  0  0
 11 28  1  1  0  0  0
 11  5  1  0  0  0  0
 12  8  1  0  0  0  0
 17  3  1  6  0  0  0
 17 26  1  0  0  0  0
 18 13  2  0  0  0  0
 19  2  2  0  0  0  0
 20 22  1  6  0  0  0
 20  4  1  0  0  0  0
 20 17  1  0  0  0  0
 21 10  2  0  0  0  0
 22 10  1  0  0  0  0
 23 15  1  0  0  0  0
 23 14  1  0  0  0  0
 25 18  1  0  0  0  0
 26 19  1  0  0  0  0
 26 25  2  0  0  0  0
 27 24  1  1  0  0  0
 27 12  1  0  0  0  0
 28 30  1  0  0  0  0
 30 29  1  0  0  0  0
M  END
>  <MODEL>
4

>  <REMARK>
 VINA RESULT:      -8.7      2.625      5.460
  Name = 
  2 active torsions:
  status: ('A' for Active; 'I' for Inactive)
    1  A    between atoms: C_11  and  C_28
    2  A    between atoms: C_28  and  O_30
                            x       y       z     vdW  Elec       q    Type
                         _______ _______ _______ _____ _____    ______ ____

>  <TORSDO>
F 2

$$$$
=
 OpenBabel11122410233D

 30 35  0  0  1  0  0  0  0  0999 V2000
  187.1820  178.1060  143.0110 C   0  0  1  0  0  3  0  0  0  0  0  0
  188.2000  177.8900  145.3400 C   0  0  0  0  0  0  0  0  0  0  0  0
  183.3260  179.0440  144.7730 C   0  0  0  0  0  2  0  0  0  0  0  0
  185.9960  178.7350  142.2450 C   0  0  1  0  0  3  0  0  0  0  0  0
  188.3900  178.5870  142.4740 O   0  0  0  0  0  0  0  0  0  0  0  0
  187.5690  177.9540  139.0470 O   0  0  0  0  0  0  0  0  0  0  0  0
  183.8570  177.6290  140.0780 C   0  0  1  0  0  3  0  0  0  0  0  0
  187.4040  178.1020  140.2890 C   0  0  0  0  0  0  0  0  0  0  0  0
  182.8720  177.9390  141.2030 C   0  0  2  0  0  3  0  0  0  0  0  0
  182.6150  179.0080  143.4700 C   0  0  0  0  0  0  0  0  0  0  0  0
  188.5920  177.9660  141.2130 C   0  0  2  0  0  3  0  0  0  0  0  0
  186.0940  178.3640  140.8280 N   0  0  0  0  0  0  0  0  0  0  0  0
  188.0840  177.9270  146.7320 C   0  0  0  0  0  3  0  0  0  0  0  0
  181.7520  178.7180  140.5440 C   0  0  0  0  0  2  0  0  0  0  0  0
  183.0220  177.5790  138.8080 C   0  0  0  0  0  2  0  0  0  0  0  0
  189.3740  177.4910  144.7900 F   0  0  0  0  0  0  0  0  0  0  0  0
  184.7490  179.0330  144.2700 C   0  0  2  0  0  3  0  0  0  0  0  0
  186.8800  178.3050  147.3320 C   0  0  0  0  0  3  0  0  0  0  0  0
  187.1070  178.2480  144.5300 C   0  0  0  0  0  0  0  0  0  0  0  0
  184.7230  178.2770  142.9540 C   0  0  1  0  0  3  0  0  0  0  0  0
  181.3780  179.2200  143.3670 O   0  0  0  0  0  0  0  0  0  0  0  0
  183.4430  178.6470  142.3560 N   0  0  0  0  0  0  0  0  0  0  0  0
  181.6520  178.1460  139.1460 C   0  0  0  0  0  2  0  0  0  0  0  0
  184.6010  180.0980  139.8790 C   0  0  0  0  0  1  0  0  0  0  0  0
  185.7790  178.6380  146.5420 C   0  0  0  0  0  3  0  0  0  0  0  0
  185.8750  178.5800  145.1470 C   0  0  0  0  0  0  0  0  0  0  0  0
  185.0040  178.6260  139.8940 C   0  0  2  0  0  3  0  0  0  0  0  0
  189.0190  176.5080  141.3570 C   0  0  0  0  0  2  0  0  0  0  0  0
  190.4960  175.7310  142.7970 C   0  0  0  0  0  1  0  0  0  0  0  0
  190.3910  176.4390  141.6000 O   0  0  0  0  0  0  0  0  0  0  0  0
  1  5  1  6  0  0  0
  1 19  1  0  0  0  0
  2 13  1  0  0  0  0
  4 12  1  6  0  0  0
  4 20  1  0  0  0  0
  4  1  1  0  0  0  0
  6  8  2  0  0  0  0
  7 15  1  6  0  0  0
  7  9  1  0  0  0  0
  8 12  1  0  0  0  0
  8 11  1  0  0  0  0
  9 14  1  6  0  0  0
  9 22  1  0  0  0  0
 10  3  1  0  0  0  0
 11 28  1  1  0  0  0
 11  5  1  0  0  0  0
 13 18  2  0  0  0  0
 15 23  1  0  0  0  0
 16  2  1  0  0  0  0
 17  3  1  1  0  0  0
 17 26  1  0  0  0  0
 19 26  1  0  0  0  0
 19  2  2  0  0  0  0
 20 22  1  6  0  0  0
 20 17  1  0  0  0  0
 21 10  2  0  0  0  0
 22 10  1  0  0  0  0
 23 14  1  0  0  0  0
 25 18  1  0  0  0  0
 26 25  2  0  0  0  0
 27 24  1  1  0  0  0
 27  7  1  0  0  0  0
 27 12  1  0  0  0  0
 28 30  1  0  0  0  0
 30 29  1  0  0  0  0
M  END
>  <MODEL>
5

>  <REMARK>
 VINA RESULT:      -7.6      2.077      3.355
  Name = 
  2 active torsions:
  status: ('A' for Active; 'I' for Inactive)
    1  A    between atoms: C_11  and  C_28
    2  A    between atoms: C_28  and  O_30
                            x       y       z     vdW  Elec       q    Type
                         _______ _______ _______ _____ _____    ______ ____

>  <TORSDO>
F 2

$$$$
=
 OpenBabel11122410233D

 30 35  0  0  1  0  0  0  0  0999 V2000
  186.9620  178.0030  140.0340 C   0  0  1  0  0  3  0  0  0  0  0  0
  188.7400  177.1650  138.4080 C   0  0  0  0  0  0  0  0  0  0  0  0
  189.7690  177.6070  143.3230 C   0  0  0  0  0  2  0  0  0  0  0  0
  186.7810  178.6500  141.4260 C   0  0  1  0  0  3  0  0  0  0  0  0
  186.3900  178.8370  139.0550 O   0  0  0  0  0  0  0  0  0  0  0  0
  183.2610  179.3080  140.7300 O   0  0  0  0  0  0  0  0  0  0  0  0
  184.8990  178.0240  143.9870 C   0  0  1  0  0  3  0  0  0  0  0  0
  184.4680  178.9840  140.5600 C   0  0  0  0  0  0  0  0  0  0  0  0
  186.2490  177.7530  144.6490 C   0  0  2  0  0  3  0  0  0  0  0  0
  188.7460  177.9070  144.3560 C   0  0  0  0  0  0  0  0  0  0  0  0
  184.9770  178.7380  139.1600 C   0  0  2  0  0  3  0  0  0  0  0  0
  185.3470  178.8180  141.6900 N   0  0  0  0  0  0  0  0  0  0  0  0
  190.0290  176.6950  138.1430 C   0  0  0  0  0  3  0  0  0  0  0  0
  186.2060  178.5120  145.9590 C   0  0  0  0  0  2  0  0  0  0  0  0
  183.9300  178.2800  145.1310 C   0  0  0  0  0  2  0  0  0  0  0  0
  187.8300  177.1860  137.4020 F   0  0  0  0  0  0  0  0  0  0  0  0
  188.9920  178.0110  142.0930 C   0  0  2  0  0  3  0  0  0  0  0  0
  190.9820  176.6330  139.1620 C   0  0  0  0  0  3  0  0  0  0  0  0
  188.3950  177.5940  139.7030 C   0  0  0  0  0  0  0  0  0  0  0  0
  187.5300  177.7670  142.4210 C   0  0  1  0  0  3  0  0  0  0  0  0
  189.0140  177.9300  145.5870 O   0  0  0  0  0  0  0  0  0  0  0  0
  187.4230  178.1010  143.8390 N   0  0  0  0  0  0  0  0  0  0  0  0
  184.7570  178.4540  146.3950 C   0  0  0  0  0  2  0  0  0  0  0  0
  185.4910  180.4960  143.5070 C   0  0  0  0  0  1  0  0  0  0  0  0
  190.6480  177.0290  140.4580 C   0  0  0  0  0  3  0  0  0  0  0  0
  189.3530  177.4770  140.7420 C   0  0  0  0  0  0  0  0  0  0  0  0
  184.8550  179.2010  143.0090 C   0  0  2  0  0  3  0  0  0  0  0  0
  184.4570  177.4150  138.6050 C   0  0  0  0  0  2  0  0  0  0  0  0
  184.7440  175.9810  136.9550 C   0  0  0  0  0  1  0  0  0  0  0  0
  184.7030  177.3470  137.2340 O   0  0  0  0  0  0  0  0  0  0  0  0
  1  5  1  6  0  0  0
  1  4  1  0  0  0  0
  2 19  1  0  0  0  0
  3 10  1  0  0  0  0
  4 12  1  1  0  0  0
  4 20  1  0  0  0  0
  5 11  1  0  0  0  0
  7  9  1  0  0  0  0
  7 15  1  1  0  0  0
  8  6  2  0  0  0  0
  8 12  1  0  0  0  0
  9 14  1  1  0  0  0
 10 21  2  0  0  0  0
 11 28  1  1  0  0  0
 11  8  1  0  0  0  0
 12 27  1  0  0  0  0
 13  2  2  0  0  0  0
 13 18  1  0  0  0  0
 14 23  1  0  0  0  0
 15 23  1  0  0  0  0
 16  2  1  0  0  0  0
 17 20  1  0  0  0  0
 17  3  1  1  0  0  0
 18 25  2  0  0  0  0
 19  1  1  0  0  0  0
 19 26  2  0  0  0  0
 20 22  1  1  0  0  0
 22 10  1  0  0  0  0
 22  9  1  0  0  0  0
 25 26  1  0  0  0  0
 26 17  1  0  0  0  0
 27 24  1  1  0  0  0
 27  7  1  0  0  0  0
 29 30  1  0  0  0  0
 30 28  1  0  0  0  0
M  END
>  <MODEL>
6

>  <REMARK>
 VINA RESULT:      -7.6      2.651      4.912
  Name = 
  2 active torsions:
  status: ('A' for Active; 'I' for Inactive)
    1  A    between atoms: C_11  and  C_28
    2  A    between atoms: C_28  and  O_30
                            x       y       z     vdW  Elec       q    Type
                         _______ _______ _______ _____ _____    ______ ____

>  <TORSDO>
F 2

$$$$
=
 OpenBabel11122410233D

 30 35  0  0  1  0  0  0  0  0999 V2000
  185.9940  178.4270  141.1610 C   0  0  1  0  0  3  0  0  0  0  0  0
  184.5520  178.8080  143.2300 C   0  0  0  0  0  0  0  0  0  0  0  0
  182.4270  178.2830  138.6900 C   0  0  0  0  0  2  0  0  0  0  0  0
  185.9860  178.5570  139.6210 C   0  0  1  0  0  3  0  0  0  0  0  0
  187.0420  179.2040  141.6890 O   0  0  0  0  0  0  0  0  0  0  0  0
  189.5840  177.9640  139.4930 O   0  0  0  0  0  0  0  0  0  0  0  0
  186.8070  176.5940  137.1780 C   0  0  1  0  0  3  0  0  0  0  0  0
  188.4300  178.1900  139.9480 C   0  0  0  0  0  0  0  0  0  0  0  0
  185.3160  176.6990  136.8690 C   0  0  2  0  0  3  0  0  0  0  0  0
  183.1720  177.8780  137.4710 C   0  0  0  0  0  0  0  0  0  0  0  0
  188.2670  178.5430  141.4080 C   0  0  2  0  0  3  0  0  0  0  0  0
  187.2720  178.0810  139.0960 N   0  0  0  0  0  0  0  0  0  0  0  0
  183.3020  178.9620  143.8370 C   0  0  0  0  0  3  0  0  0  0  0  0
  185.2410  177.0030  135.3860 C   0  0  0  0  0  2  0  0  0  0  0  0
  187.4610  176.1400  135.8820 C   0  0  0  0  0  2  0  0  0  0  0  0
  185.6580  178.7440  144.0130 F   0  0  0  0  0  0  0  0  0  0  0  0
  183.5930  178.6680  139.5670 C   0  0  2  0  0  3  0  0  0  0  0  0
  182.1410  179.0030  143.0630 C   0  0  0  0  0  3  0  0  0  0  0  0
  184.6510  178.7080  141.8310 C   0  0  0  0  0  0  0  0  0  0  0  0
  184.7570  177.8010  139.1220 C   0  0  1  0  0  3  0  0  0  0  0  0
  182.6030  177.6730  136.3660 O   0  0  0  0  0  0  0  0  0  0  0  0
  184.5760  177.6760  137.6780 N   0  0  0  0  0  0  0  0  0  0  0  0
  186.4220  176.2760  134.7800 C   0  0  0  0  0  2  0  0  0  0  0  0
  187.1800  179.1330  136.8560 C   0  0  0  0  0  1  0  0  0  0  0  0
  182.2190  178.8780  141.6760 C   0  0  0  0  0  3  0  0  0  0  0  0
  183.4620  178.6980  141.0580 C   0  0  0  0  0  0  0  0  0  0  0  0
  187.4850  177.8770  137.6680 C   0  0  2  0  0  3  0  0  0  0  0  0
  188.4720  177.3220  142.3000 C   0  0  0  0  0  2  0  0  0  0  0  0
  190.1550  176.0030  142.8370 C   0  0  0  0  0  1  0  0  0  0  0  0
  189.7580  177.3400  142.8380 O   0  0  0  0  0  0  0  0  0  0  0  0
  1  5  1  1  0  0  0
  1 19  1  0  0  0  0
  2 13  1  0  0  0  0
  2 16  1  0  0  0  0
  4 12  1  6  0  0  0
  4  1  1  0  0  0  0
  6  8  2  0  0  0  0
  7 15  1  6  0  0  0
  7 27  1  0  0  0  0
  8 11  1  0  0  0  0
  9 14  1  6  0  0  0
  9  7  1  0  0  0  0
  9 22  1  0  0  0  0
 10 22  1  0  0  0  0
 10  3  1  0  0  0  0
 11  5  1  0  0  0  0
 11 28  1  1  0  0  0
 12  8  1  0  0  0  0
 17  3  1  6  0  0  0
 17 26  1  0  0  0  0
 18 13  2  0  0  0  0
 19  2  2  0  0  0  0
 20 22  1  6  0  0  0
 20 17  1  0  0  0  0
 20  4  1  0  0  0  0
 21 10  2  0  0  0  0
 23 14  1  0  0  0  0
 23 15  1  0  0  0  0
 25 18  1  0  0  0  0
 26 25  2  0  0  0  0
 26 19  1  0  0  0  0
 27 24  1  6  0  0  0
 27 12  1  0  0  0  0
 28 30  1  0  0  0  0
 29 30  1  0  0  0  0
M  END
>  <MODEL>
7

>  <REMARK>
 VINA RESULT:      -7.3      3.717      6.909
  Name = 
  2 active torsions:
  status: ('A' for Active; 'I' for Inactive)
    1  A    between atoms: C_11  and  C_28
    2  A    between atoms: C_28  and  O_30
                            x       y       z     vdW  Elec       q    Type
                         _______ _______ _______ _____ _____    ______ ____

>  <TORSDO>
F 2

$$$$
=
 OpenBabel11122410233D

 30 35  0  0  1  0  0  0  0  0999 V2000
  189.2190  177.2930  138.3000 C   0  0  1  0  0  3  0  0  0  0  0  0
  190.8230  176.4850  136.4880 C   0  0  0  0  0  0  0  0  0  0  0  0
  192.3790  176.9590  141.2590 C   0  0  0  0  0  2  0  0  0  0  0  0
  189.1800  177.9400  139.7030 C   0  0  1  0  0  3  0  0  0  0  0  0
  188.5270  178.1120  137.3900 O   0  0  0  0  0  0  0  0  0  0  0  0
  185.5920  178.5270  139.3990 O   0  0  0  0  0  0  0  0  0  0  0  0
  187.6050  177.2840  142.4570 C   0  0  1  0  0  3  0  0  0  0  0  0
  186.7790  178.2260  139.0980 C   0  0  0  0  0  0  0  0  0  0  0  0
  189.0240  177.0410  142.9660 C   0  0  2  0  0  3  0  0  0  0  0  0
  191.4700  177.2420  142.3990 C   0  0  0  0  0  0  0  0  0  0  0  0
  187.1360  177.9860  137.6490 C   0  0  2  0  0  3  0  0  0  0  0  0
  187.7810  178.0800  140.1240 N   0  0  0  0  0  0  0  0  0  0  0  0
  192.0840  176.0400  136.0830 C   0  0  0  0  0  3  0  0  0  0  0  0
  189.1100  177.8020  144.2720 C   0  0  0  0  0  2  0  0  0  0  0  0
  186.7620  177.5230  143.7000 C   0  0  0  0  0  2  0  0  0  0  0  0
  189.8070  176.4860  135.5890 F   0  0  0  0  0  0  0  0  0  0  0  0
  191.4630  177.3450  140.1230 C   0  0  2  0  0  3  0  0  0  0  0  0
  193.1440  175.9990  136.9910 C   0  0  0  0  0  3  0  0  0  0  0  0
  190.6150  176.9100  137.8130 C   0  0  0  0  0  0  0  0  0  0  0  0
  190.0520  177.0740  140.6100 C   0  0  1  0  0  3  0  0  0  0  0  0
  191.8720  177.2740  143.5930 O   0  0  0  0  0  0  0  0  0  0  0  0
  190.0950  177.4090  142.0310 N   0  0  0  0  0  0  0  0  0  0  0  0
  187.7200  177.7170  144.8650 C   0  0  0  0  0  2  0  0  0  0  0  0
  188.0910  179.7650  141.9130 C   0  0  0  0  0  1  0  0  0  0  0  0
  192.9480  176.3920  138.3150 C   0  0  0  0  0  3  0  0  0  0  0  0
  191.6830  176.8150  138.7400 C   0  0  0  0  0  0  0  0  0  0  0  0
  187.4290  178.4570  141.4890 C   0  0  2  0  0  3  0  0  0  0  0  0
  186.5840  176.6520  137.1560 C   0  0  0  0  0  2  0  0  0  0  0  0
  186.7270  175.2370  135.4720 C   0  0  0  0  0  1  0  0  0  0  0  0
  186.6490  176.5980  135.7640 O   0  0  0  0  0  0  0  0  0  0  0  0
  1  5  1  6  0  0  0
  1  4  1  0  0  0  0
  2 19  1  0  0  0  0
  3 10  1  0  0  0  0
  4 12  1  1  0  0  0
  4 20  1  0  0  0  0
  5 11  1  0  0  0  0
  7  9  1  0  0  0  0
  7 15  1  1  0  0  0
  8  6  2  0  0  0  0
  8 12  1  0  0  0  0
  9 14  1  1  0  0  0
 10 21  2  0  0  0  0
 11 28  1  1  0  0  0
 11  8  1  0  0  0  0
 12 27  1  0  0  0  0
 13  2  2  0  0  0  0
 13 18  1  0  0  0  0
 14 23  1  0  0  0  0
 15 23  1  0  0  0  0
 16  2  1  0  0  0  0
 17 20  1  0  0  0  0
 17  3  1  1  0  0  0
 18 25  2  0  0  0  0
 19  1  1  0  0  0  0
 19 26  2  0  0  0  0
 20 22  1  1  0  0  0
 22 10  1  0  0  0  0
 22  9  1  0  0  0  0
 25 26  1  0  0  0  0
 26 17  1  0  0  0  0
 27 24  1  1  0  0  0
 27  7  1  0  0  0  0
 29 30  1  0  0  0  0
 30 28  1  0  0  0  0
M  END
>  <MODEL>
8

>  <REMARK>
 VINA RESULT:      -6.8      3.237      6.186
  Name = 
  2 active torsions:
  status: ('A' for Active; 'I' for Inactive)
    1  A    between atoms: C_11  and  C_28
    2  A    between atoms: C_28  and  O_30
                            x       y       z     vdW  Elec       q    Type
                         _______ _______ _______ _____ _____    ______ ____

>  <TORSDO>
F 2

$$$$
=
 OpenBabel11122410233D

 30 35  0  0  1  0  0  0  0  0999 V2000
  186.8180  178.2530  140.0290 C   0  0  1  0  0  3  0  0  0  0  0  0
  186.0720  178.2530  137.5900 C   0  0  0  0  0  0  0  0  0  0  0  0
  190.8770  177.3280  138.7970 C   0  0  0  0  0  2  0  0  0  0  0  0
  188.0650  178.4040  140.9300 C   0  0  1  0  0  3  0  0  0  0  0  0
  185.8770  179.2420  140.3680 O   0  0  0  0  0  0  0  0  0  0  0  0
  185.9640  178.6640  143.9010 O   0  0  0  0  0  0  0  0  0  0  0  0
  189.2750  176.7270  143.4230 C   0  0  1  0  0  3  0  0  0  0  0  0
  186.3120  178.6080  142.6900 C   0  0  0  0  0  0  0  0  0  0  0  0
  190.4170  176.4880  142.4380 C   0  0  2  0  0  3  0  0  0  0  0  0
  191.3550  177.1270  140.1890 C   0  0  0  0  0  0  0  0  0  0  0  0
  185.2910  178.8880  141.6130 C   0  0  2  0  0  3  0  0  0  0  0  0
  187.6620  178.2480  142.3320 N   0  0  0  0  0  0  0  0  0  0  0  0
  186.3470  178.1020  136.2280 C   0  0  0  0  0  3  0  0  0  0  0  0
  191.6800  176.7920  143.2180 C   0  0  0  0  0  2  0  0  0  0  0  0
  189.8630  176.4590  144.8000 C   0  0  0  0  0  2  0  0  0  0  0  0
  184.7860  178.4340  137.9840 F   0  0  0  0  0  0  0  0  0  0  0  0
  189.5380  177.9580  139.0930 C   0  0  2  0  0  3  0  0  0  0  0  0
  187.6560  177.8860  135.7910 C   0  0  0  0  0  3  0  0  0  0  0  0
  187.1150  178.2020  138.5320 C   0  0  0  0  0  0  0  0  0  0  0  0
  189.0940  177.3920  140.4290 C   0  0  1  0  0  3  0  0  0  0  0  0
  192.5450  176.8150  140.4580 O   0  0  0  0  0  0  0  0  0  0  0  0
  190.3340  177.2530  141.1870 N   0  0  0  0  0  0  0  0  0  0  0  0
  191.3720  176.3690  144.6380 C   0  0  0  0  0  2  0  0  0  0  0  0
  189.6340  179.2880  143.4120 C   0  0  0  0  0  1  0  0  0  0  0  0
  188.6980  177.8070  136.7150 C   0  0  0  0  0  3  0  0  0  0  0  0
  188.4320  177.9300  138.0840 C   0  0  0  0  0  0  0  0  0  0  0  0
  188.6480  178.1240  143.4000 C   0  0  2  0  0  3  0  0  0  0  0  0
  184.3040  177.7330  141.4700 C   0  0  0  0  0  2  0  0  0  0  0  0
  182.2930  178.6280  141.5870 C   0  0  0  0  0  1  0  0  0  0  0  0
  183.2250  178.1270  140.6790 O   0  0  0  0  0  0  0  0  0  0  0  0
  1 19  1  6  0  0  0
  1  5  1  0  0  0  0
  1  4  1  0  0  0  0
  2 16  1  0  0  0  0
  2 19  1  0  0  0  0
  3 10  1  0  0  0  0
  4 12  1  1  0  0  0
  5 11  1  0  0  0  0
  7 15  1  1  0  0  0
  8  6  2  0  0  0  0
  9 14  1  1  0  0  0
  9  7  1  0  0  0  0
 10 21  2  0  0  0  0
 10 22  1  0  0  0  0
 11 28  1  6  0  0  0
 11  8  1  0  0  0  0
 12  8  1  0  0  0  0
 12 27  1  0  0  0  0
 13  2  2  0  0  0  0
 14 23  1  0  0  0  0
 17  3  1  6  0  0  0
 17 20  1  0  0  0  0
 18 13  1  0  0  0  0
 18 25  2  0  0  0  0
 20  4  1  0  0  0  0
 20 22  1  1  0  0  0
 22  9  1  0  0  0  0
 23 15  1  0  0  0  0
 25 26  1  0  0  0  0
 26 19  2  0  0  0  0
 26 17  1  0  0  0  0
 27 24  1  6  0  0  0
 27  7  1  0  0  0  0
 30 28  1  0  0  0  0
 30 29  1  0  0  0  0
M  END
>  <MODEL>
9

>  <REMARK>
 VINA RESULT:      -6.7      3.059      7.343
  Name = 
  2 active torsions:
  status: ('A' for Active; 'I' for Inactive)
    1  A    between atoms: C_11  and  C_28
    2  A    between atoms: C_28  and  O_30
                            x       y       z     vdW  Elec       q    Type
                         _______ _______ _______ _____ _____    ______ ____

>  <TORSDO>
F 2

$$$$
