=
 OpenBabel11122412203D

 34 40  0  0  1  0  0  0  0  0999 V2000
  184.1510  178.5580  144.1040 C   0  0  0  0  0  0  0  0  0  0  0  0
  181.8630  179.0630  143.0390 C   0  0  0  0  0  2  0  0  0  0  0  0
  190.7340  178.0860  143.9000 C   0  0  2  0  0  3  0  0  0  0  0  0
  186.4060  178.1100  144.9450 C   0  0  0  0  0  0  0  0  0  0  0  0
  188.2370  177.8690  143.3560 C   0  0  0  0  0  0  0  0  0  0  0  0
  189.8180  176.2160  142.6520 O   0  0  0  0  0  1  0  0  0  0  0  0
  192.0300  178.3220  143.1500 C   0  0  0  0  0  1  0  0  0  0  0  0
  189.7080  176.6340  145.7300 C   0  0  0  0  0  2  0  0  0  0  0  0
  183.7830  178.6460  141.7120 C   0  0  0  0  0  0  0  0  0  0  0  0
  183.7540  178.4520  138.6100 C   0  0  0  0  0  3  0  0  0  0  0  0
  187.3470  178.0460  142.3440 N   0  0  0  0  0  0  0  0  0  0  0  0
  188.7020  177.7600  145.8890 C   0  0  0  0  0  2  0  0  0  0  0  0
  185.1530  178.4330  141.4470 C   0  0  0  0  0  0  0  0  0  0  0  0
  181.5310  179.3830  141.5810 C   0  0  0  0  0  2  0  0  0  0  0  0
  187.7760  177.8790  144.7020 C   0  0  0  0  0  0  0  0  0  0  0  0
  190.9910  177.1440  145.0790 C   0  0  0  0  0  2  0  0  0  0  0  0
  182.9860  179.4370  139.4410 C   0  0  2  0  0  3  0  0  0  0  0  0
  185.5200  178.2990  143.8710 C   0  0  0  0  0  0  0  0  0  0  0  0
  189.6580  177.5750  142.9410 C   0  0  2  0  0  3  0  0  0  0  0  0
  186.0190  178.2550  142.5480 C   0  0  0  0  0  0  0  0  0  0  0  0
  184.5990  178.4000  146.5840 C   0  0  0  0  0  3  0  0  0  0  0  0
  184.9920  178.0620  138.9270 C   0  0  0  0  0  3  0  0  0  0  0  0
  185.8830  178.1520  146.3270 C   0  0  0  0  0  3  0  0  0  0  0  0
  185.7590  178.6410  140.0800 C   0  0  0  0  0  2  0  0  0  0  0  0
  182.6430  178.7320  140.7530 C   0  0  1  0  0  3  0  0  0  0  0  0
  183.5910  178.6690  145.5010 C   0  0  0  0  0  3  0  0  0  0  0  0
  183.3110  178.7380  143.0020 C   0  0  1  0  0  3  0  0  0  0  0  0
  181.7250  179.8300  138.6820 C   0  0  0  0  0  2  0  0  0  0  0  0
  181.7490  181.3140  138.3530 C   0  0  0  0  0  2  0  0  0  0  0  0
  180.8680  183.5000  136.2510 O   0  0  0  0  0  0  0  0  0  0  0  0
  180.5660  181.1860  136.2000 C   0  0  0  0  0  2  0  0  0  0  0  0
  180.4890  181.7030  137.5990 C   0  0  2  0  0  3  0  0  0  0  0  0
  180.5000  182.4520  135.3980 C   0  0  0  0  0  2  0  0  0  0  0  0
  180.4020  183.1530  137.4840 N   0  0  0  0  0  2  0  0  0  0  0  0
  1 26  2  0  0  0  0
  3  7  1  6  0  0  0
  3 16  1  0  0  0  0
  4 23  1  0  0  0  0
  5 15  1  0  0  0  0
  8 12  1  0  0  0  0
  9 27  1  0  0  0  0
 10 22  2  0  0  0  0
 10 17  1  0  0  0  0
 11 20  1  0  0  0  0
 11  5  2  0  0  0  0
 13  9  2  0  0  0  0
 13 20  1  0  0  0  0
 14  2  1  0  0  0  0
 15  4  2  0  0  0  0
 15 12  1  0  0  0  0
 16  8  1  0  0  0  0
 17 28  1  6  0  0  0
 17 25  1  0  0  0  0
 18  1  1  0  0  0  0
 18  4  1  0  0  0  0
 19  6  1  1  0  0  0
 19  5  1  0  0  0  0
 19  3  1  0  0  0  0
 20 18  2  0  0  0  0
 22 24  1  0  0  0  0
 23 21  2  0  0  0  0
 24 13  1  0  0  0  0
 25 14  1  1  0  0  0
 25  9  1  0  0  0  0
 26 21  1  0  0  0  0
 27  2  1  1  0  0  0
 27  1  1  0  0  0  0
 29 28  1  0  0  0  0
 30 34  1  0  0  0  0
 31 32  1  0  0  0  0
 32 29  1  1  0  0  0
 33 31  1  0  0  0  0
 33 30  1  0  0  0  0
 34 32  1  0  0  0  0
M  END
>  <MODEL>
1

>  <REMARK>
 VINA RESULT:     -10.9      0.000      0.000
  Name = 
  3 active torsions:
  status: ('A' for Active; 'I' for Inactive)
    1  A    between atoms: C_17  and  C_28
    2  A    between atoms: C_28  and  C_29
    3  A    between atoms: C_29  and  C_32
                            x       y       z     vdW  Elec       q    Type
                         _______ _______ _______ _____ _____    ______ ____

>  <TORSDO>
F 3

$$$$
=
 OpenBabel11122412203D

 34 40  0  0  1  0  0  0  0  0999 V2000
  184.1560  178.5460  144.1290 C   0  0  0  0  0  0  0  0  0  0  0  0
  181.8530  179.0490  143.0950 C   0  0  0  0  0  2  0  0  0  0  0  0
  190.7370  178.0860  143.8380 C   0  0  2  0  0  3  0  0  0  0  0  0
  186.4220  178.1000  144.9400 C   0  0  0  0  0  0  0  0  0  0  0  0
  188.2330  177.8660  143.3250 C   0  0  0  0  0  0  0  0  0  0  0  0
  189.8070  176.2170  142.5980 O   0  0  0  0  0  1  0  0  0  0  0  0
  192.0220  178.3250  143.0710 C   0  0  0  0  0  1  0  0  0  0  0  0
  189.7370  176.6290  145.6780 C   0  0  0  0  0  2  0  0  0  0  0  0
  183.7570  178.6380  141.7420 C   0  0  0  0  0  0  0  0  0  0  0  0
  183.6870  178.4500  138.6400 C   0  0  0  0  0  3  0  0  0  0  0  0
  187.3290  178.0430  142.3260 N   0  0  0  0  0  0  0  0  0  0  0  0
  188.7310  177.7530  145.8530 C   0  0  0  0  0  2  0  0  0  0  0  0
  185.1230  178.4280  141.4590 C   0  0  0  0  0  0  0  0  0  0  0  0
  181.5010  179.3710  141.6410 C   0  0  0  0  0  2  0  0  0  0  0  0
  187.7890  177.8720  144.6780 C   0  0  0  0  0  0  0  0  0  0  0  0
  191.0100  177.1420  145.0110 C   0  0  0  0  0  2  0  0  0  0  0  0
  182.9290  179.4320  139.4830 C   0  0  2  0  0  3  0  0  0  0  0  0
  185.5220  178.2890  143.8770 C   0  0  0  0  0  0  0  0  0  0  0  0
  189.6490  177.5750  142.8910 C   0  0  2  0  0  3  0  0  0  0  0  0
  186.0040  178.2490  142.5480 C   0  0  0  0  0  0  0  0  0  0  0  0
  184.6370  178.3830  146.6020 C   0  0  0  0  0  3  0  0  0  0  0  0
  184.9300  178.0620  138.9400 C   0  0  0  0  0  3  0  0  0  0  0  0
  185.9170  178.1390  146.3280 C   0  0  0  0  0  3  0  0  0  0  0  0
  185.7110  178.6390  140.0840 C   0  0  0  0  0  2  0  0  0  0  0  0
  182.6040  178.7240  140.7980 C   0  0  1  0  0  3  0  0  0  0  0  0
  183.6140  178.6530  145.5330 C   0  0  0  0  0  3  0  0  0  0  0  0
  183.3010  178.7270  143.0380 C   0  0  1  0  0  3  0  0  0  0  0  0
  181.6570  179.8250  138.7420 C   0  0  0  0  0  2  0  0  0  0  0  0
  181.5230  179.0200  137.4600 C   0  0  0  0  0  2  0  0  0  0  0  0
  180.4160  176.4660  138.9530 O   0  0  0  0  0  0  0  0  0  0  0  0
  179.4410  178.5710  138.6910 C   0  0  0  0  0  2  0  0  0  0  0  0
  180.2440  178.2010  137.4860 C   0  0  2  0  0  3  0  0  0  0  0  0
  179.3680  177.2660  139.4270 C   0  0  0  0  0  2  0  0  0  0  0  0
  180.5570  176.7860  137.6350 N   0  0  0  0  0  2  0  0  0  0  0  0
  1 26  2  0  0  0  0
  3  7  1  6  0  0  0
  3 16  1  0  0  0  0
  4 23  1  0  0  0  0
  5 15  1  0  0  0  0
  8 12  1  0  0  0  0
  9 27  1  0  0  0  0
 10 22  2  0  0  0  0
 10 17  1  0  0  0  0
 11 20  1  0  0  0  0
 11  5  2  0  0  0  0
 13  9  2  0  0  0  0
 13 20  1  0  0  0  0
 14  2  1  0  0  0  0
 15  4  2  0  0  0  0
 15 12  1  0  0  0  0
 16  8  1  0  0  0  0
 17 28  1  6  0  0  0
 17 25  1  0  0  0  0
 18  1  1  0  0  0  0
 18  4  1  0  0  0  0
 19  6  1  1  0  0  0
 19  5  1  0  0  0  0
 19  3  1  0  0  0  0
 20 18  2  0  0  0  0
 22 24  1  0  0  0  0
 23 21  2  0  0  0  0
 24 13  1  0  0  0  0
 25 14  1  1  0  0  0
 25  9  1  0  0  0  0
 26 21  1  0  0  0  0
 27  2  1  1  0  0  0
 27  1  1  0  0  0  0
 29 28  1  0  0  0  0
 30 33  1  0  0  0  0
 31 33  1  0  0  0  0
 32 29  1  1  0  0  0
 32 34  1  0  0  0  0
 32 31  1  0  0  0  0
 34 30  1  0  0  0  0
M  END
>  <MODEL>
2

>  <REMARK>
 VINA RESULT:     -10.6      1.959      2.268
  Name = 
  3 active torsions:
  status: ('A' for Active; 'I' for Inactive)
    1  A    between atoms: C_17  and  C_28
    2  A    between atoms: C_28  and  C_29
    3  A    between atoms: C_29  and  C_32
                            x       y       z     vdW  Elec       q    Type
                         _______ _______ _______ _____ _____    ______ ____

>  <TORSDO>
F 3

$$$$
=
 OpenBabel11122412203D

 34 40  0  0  1  0  0  0  0  0999 V2000
  183.7190  178.6560  144.1950 C   0  0  0  0  0  0  0  0  0  0  0  0
  184.7500  178.6380  146.5530 C   0  0  0  0  0  2  0  0  0  0  0  0
  183.8620  177.3390  137.7260 C   0  0  2  0  0  3  0  0  0  0  0  0
  182.9030  178.6000  141.8870 C   0  0  0  0  0  0  0  0  0  0  0  0
  184.4760  178.1350  140.0850 C   0  0  0  0  0  0  0  0  0  0  0  0
  185.3630  179.2030  138.1360 O   0  0  0  0  0  1  0  0  0  0  0  0
  184.5500  176.6730  136.5510 C   0  0  0  0  0  1  0  0  0  0  0  0
  182.2590  179.2400  138.3000 C   0  0  0  0  0  2  0  0  0  0  0  0
  186.0850  178.3530  144.6140 C   0  0  0  0  0  0  0  0  0  0  0  0
  189.1850  178.1360  144.6440 C   0  0  0  0  0  3  0  0  0  0  0  0
  185.4710  178.0680  141.0080 N   0  0  0  0  0  0  0  0  0  0  0  0
  181.9710  178.4520  139.5650 C   0  0  0  0  0  2  0  0  0  0  0  0
  186.3500  178.1590  143.2410 C   0  0  0  0  0  0  0  0  0  0  0  0
  186.1590  178.2270  146.9830 C   0  0  0  0  0  2  0  0  0  0  0  0
  183.1490  178.4260  140.5100 C   0  0  0  0  0  0  0  0  0  0  0  0
  182.8130  178.3280  137.2080 C   0  0  0  0  0  2  0  0  0  0  0  0
  188.2450  177.5080  145.6310 C   0  0  2  0  0  3  0  0  0  0  0  0
  183.9590  178.5120  142.8100 C   0  0  2  0  0  3  0  0  0  0  0  0
  184.9000  177.9860  138.6450 C   0  0  2  0  0  3  0  0  0  0  0  0
  185.2660  178.2460  142.3400 C   0  0  0  0  0  0  0  0  0  0  0  0
  181.2740  179.0180  143.6780 C   0  0  0  0  0  3  0  0  0  0  0  0
  188.8990  178.2230  143.3420 C   0  0  0  0  0  3  0  0  0  0  0  0
  181.5380  178.8800  142.3790 C   0  0  0  0  0  3  0  0  0  0  0  0
  187.6660  177.6200  142.7350 C   0  0  0  0  0  2  0  0  0  0  0  0
  187.0450  178.4460  145.7520 C   0  0  1  0  0  3  0  0  0  0  0  0
  182.3310  178.8840  144.7400 C   0  0  0  0  0  3  0  0  0  0  0  0
  184.8030  178.5610  145.0710 C   0  0  0  0  0  0  0  0  0  0  0  0
  188.9690  177.3650  146.9640 C   0  0  0  0  0  2  0  0  0  0  0  0
  189.8440  176.1230  146.9590 C   0  0  0  0  0  2  0  0  0  0  0  0
  192.3860  176.8090  148.7030 O   0  0  0  0  0  0  0  0  0  0  0  0
  192.1650  175.3070  146.9300 C   0  0  0  0  0  2  0  0  0  0  0  0
  191.2950  176.5050  146.7260 C   0  0  2  0  0  3  0  0  0  0  0  0
  193.0430  175.7510  148.0620 C   0  0  0  0  0  2  0  0  0  0  0  0
  191.7220  177.4810  147.7200 N   0  0  0  0  0  2  0  0  0  0  0  0
  1 26  1  0  0  0  0
  1 27  2  0  0  0  0
  2 14  1  0  0  0  0
  3  7  1  6  0  0  0
  3 19  1  0  0  0  0
  4 23  2  0  0  0  0
  5 15  2  0  0  0  0
  5 11  1  0  0  0  0
  8 12  1  0  0  0  0
  9 27  1  0  0  0  0
  9 25  1  0  0  0  0
 10 17  1  0  0  0  0
 11 20  2  0  0  0  0
 12 15  1  0  0  0  0
 13  9  2  0  0  0  0
 15  4  1  0  0  0  0
 16  3  1  0  0  0  0
 16  8  1  0  0  0  0
 17 25  1  0  0  0  0
 17 28  1  1  0  0  0
 18  4  1  1  0  0  0
 18  1  1  0  0  0  0
 19  6  1  6  0  0  0
 19  5  1  0  0  0  0
 20 18  1  0  0  0  0
 20 13  1  0  0  0  0
 21 26  2  0  0  0  0
 22 10  2  0  0  0  0
 23 21  1  0  0  0  0
 24 13  1  0  0  0  0
 24 22  1  0  0  0  0
 25 14  1  1  0  0  0
 27  2  1  0  0  0  0
 29 28  1  0  0  0  0
 31 33  1  0  0  0  0
 32 31  1  0  0  0  0
 32 29  1  1  0  0  0
 32 34  1  0  0  0  0
 33 30  1  0  0  0  0
 34 30  1  0  0  0  0
M  END
>  <MODEL>
3

>  <REMARK>
 VINA RESULT:     -10.3      2.644      9.163
  Name = 
  3 active torsions:
  status: ('A' for Active; 'I' for Inactive)
    1  A    between atoms: C_17  and  C_28
    2  A    between atoms: C_28  and  C_29
    3  A    between atoms: C_29  and  C_32
                            x       y       z     vdW  Elec       q    Type
                         _______ _______ _______ _____ _____    ______ ____

>  <TORSDO>
F 3

$$$$
=
 OpenBabel11122412203D

 34 40  0  0  1  0  0  0  0  0999 V2000
  186.4430  178.2520  141.4480 C   0  0  0  0  0  0  0  0  0  0  0  0
  188.7350  177.8420  142.5440 C   0  0  0  0  0  2  0  0  0  0  0  0
  180.1130  180.1240  141.6260 C   0  0  2  0  0  3  0  0  0  0  0  0
  184.1960  178.6880  140.5790 C   0  0  0  0  0  0  0  0  0  0  0  0
  182.3590  179.0030  142.1500 C   0  0  0  0  0  0  0  0  0  0  0  0
  180.2800  177.9700  142.7340 O   0  0  0  0  0  1  0  0  0  0  0  0
  178.9650  180.7510  142.3930 C   0  0  0  0  0  1  0  0  0  0  0  0
  180.6060  178.5320  139.6940 C   0  0  0  0  0  2  0  0  0  0  0  0
  186.7590  178.0410  143.8400 C   0  0  0  0  0  0  0  0  0  0  0  0
  186.6420  177.6380  146.9190 C   0  0  0  0  0  3  0  0  0  0  0  0
  183.2290  178.7830  143.1700 N   0  0  0  0  0  0  0  0  0  0  0  0
  181.9480  179.2380  139.6150 C   0  0  0  0  0  2  0  0  0  0  0  0
  185.3960  178.3090  144.0900 C   0  0  0  0  0  0  0  0  0  0  0  0
  189.1230  177.9240  144.0210 C   0  0  0  0  0  2  0  0  0  0  0  0
  182.8270  178.9400  140.8070 C   0  0  0  0  0  0  0  0  0  0  0  0
  179.5690  179.4160  140.3820 C   0  0  0  0  0  2  0  0  0  0  0  0
  187.7280  178.3420  146.1610 C   0  0  2  0  0  3  0  0  0  0  0  0
  185.0640  178.4780  141.6630 C   0  0  0  0  0  0  0  0  0  0  0  0
  180.9160  179.2010  142.5440 C   0  0  2  0  0  3  0  0  0  0  0  0
  184.5500  178.5240  142.9800 C   0  0  0  0  0  0  0  0  0  0  0  0
  186.0280  178.4320  138.9640 C   0  0  0  0  0  3  0  0  0  0  0  0
  185.3540  177.7330  146.5760 C   0  0  0  0  0  3  0  0  0  0  0  0
  184.7330  178.6370  139.2040 C   0  0  0  0  0  3  0  0  0  0  0  0
  184.8690  178.6230  145.4700 C   0  0  0  0  0  2  0  0  0  0  0  0
  187.8320  177.6530  144.8010 C   0  0  1  0  0  3  0  0  0  0  0  0
  187.0390  178.2530  140.0630 C   0  0  0  0  0  2  0  0  0  0  0  0
  187.2650  178.0480  142.5600 C   0  0  0  0  0  0  0  0  0  0  0  0
  189.0280  178.2120  146.9450 C   0  0  0  0  0  2  0  0  0  0  0  0
  189.3610  176.7470  147.1760 C   0  0  0  0  0  2  0  0  0  0  0  0
  192.3130  177.0740  148.2480 O   0  0  0  0  0  0  0  0  0  0  0  0
  191.2620  175.1960  147.3440 C   0  0  0  0  0  2  0  0  0  0  0  0
  190.7700  176.4480  146.6940 C   0  0  2  0  0  3  0  0  0  0  0  0
  192.4620  175.6890  148.0960 C   0  0  0  0  0  2  0  0  0  0  0  0
  191.6800  177.5030  147.1200 N   0  0  0  0  0  2  0  0  0  0  0  0
  1 18  1  0  0  0  0
  1 27  2  0  0  0  0
  2 27  1  0  0  0  0
  2 14  1  0  0  0  0
  3  7  1  1  0  0  0
  3 19  1  0  0  0  0
  4 15  1  0  0  0  0
  4 18  2  0  0  0  0
  5 19  1  0  0  0  0
  5 11  1  0  0  0  0
  8 16  1  0  0  0  0
  9 13  2  0  0  0  0
  9 25  1  0  0  0  0
 12  8  1  0  0  0  0
 12 15  1  0  0  0  0
 13 24  1  0  0  0  0
 15  5  2  0  0  0  0
 16  3  1  0  0  0  0
 17 10  1  0  0  0  0
 17 28  1  1  0  0  0
 18 20  1  0  0  0  0
 19  6  1  6  0  0  0
 20 11  2  0  0  0  0
 20 13  1  0  0  0  0
 21 23  2  0  0  0  0
 21 26  1  0  0  0  0
 22 10  2  0  0  0  0
 23  4  1  0  0  0  0
 24 22  1  0  0  0  0
 25 14  1  6  0  0  0
 25 17  1  0  0  0  0
 26  1  1  0  0  0  0
 27  9  1  0  0  0  0
 28 29  1  0  0  0  0
 31 33  1  0  0  0  0
 32 34  1  0  0  0  0
 32 29  1  1  0  0  0
 32 31  1  0  0  0  0
 33 30  1  0  0  0  0
 34 30  1  0  0  0  0
M  END
>  <MODEL>
4

>  <REMARK>
 VINA RESULT:      -9.5      2.939      9.786
  Name = 
  3 active torsions:
  status: ('A' for Active; 'I' for Inactive)
    1  A    between atoms: C_17  and  C_28
    2  A    between atoms: C_28  and  C_29
    3  A    between atoms: C_29  and  C_32
                            x       y       z     vdW  Elec       q    Type
                         _______ _______ _______ _____ _____    ______ ____

>  <TORSDO>
F 3

$$$$
=
 OpenBabel11122412203D

 34 40  0  0  1  0  0  0  0  0999 V2000
  188.1350  177.8450  138.3640 C   0  0  0  0  0  0  0  0  0  0  0  0
  186.4870  178.7130  140.1400 C   0  0  0  0  0  2  0  0  0  0  0  0
  193.2490  174.1470  136.4230 C   0  0  2  0  0  3  0  0  0  0  0  0
  189.7910  176.9240  136.8140 C   0  0  0  0  0  0  0  0  0  0  0  0
  191.7430  175.7740  137.7120 C   0  0  0  0  0  0  0  0  0  0  0  0
  194.1250  175.9970  137.7290 O   0  0  0  0  0  1  0  0  0  0  0  0
  194.2660  173.0680  136.7400 C   0  0  0  0  0  1  0  0  0  0  0  0
  192.8600  176.1520  134.8940 C   0  0  0  0  0  2  0  0  0  0  0  0
  188.5350  177.6820  140.7460 C   0  0  0  0  0  0  0  0  0  0  0  0
  189.5680  177.4340  143.6670 C   0  0  0  0  0  3  0  0  0  0  0  0
  191.2940  176.0480  138.9650 N   0  0  0  0  0  0  0  0  0  0  0  0
  191.3840  175.9150  135.1620 C   0  0  0  0  0  2  0  0  0  0  0  0
  189.7370  176.9710  140.5430 C   0  0  0  0  0  0  0  0  0  0  0  0
  186.4870  178.4720  141.6510 C   0  0  0  0  0  2  0  0  0  0  0  0
  190.9980  176.2300  136.5880 C   0  0  0  0  0  0  0  0  0  0  0  0
  193.6660  174.8810  135.1460 C   0  0  0  0  0  2  0  0  0  0  0  0
  188.1500  177.2500  143.2130 C   0  0  2  0  0  3  0  0  0  0  0  0
  189.3560  177.1760  138.1260 C   0  0  0  0  0  0  0  0  0  0  0  0
  193.0780  175.0760  137.6260 C   0  0  2  0  0  3  0  0  0  0  0  0
  190.1420  176.7260  139.2120 C   0  0  0  0  0  0  0  0  0  0  0  0
  187.8110  178.0270  135.8660 C   0  0  0  0  0  3  0  0  0  0  0  0
  190.6100  177.0210  142.9400 C   0  0  0  0  0  3  0  0  0  0  0  0
  188.9710  177.3970  135.6790 C   0  0  0  0  0  3  0  0  0  0  0  0
  190.4580  176.2540  141.6590 C   0  0  0  0  0  2  0  0  0  0  0  0
  187.9450  178.1850  142.0210 C   0  0  1  0  0  3  0  0  0  0  0  0
  187.2410  178.2910  137.2330 C   0  0  0  0  0  2  0  0  0  0  0  0
  187.7470  178.0720  139.6870 C   0  0  0  0  0  0  0  0  0  0  0  0
  187.2210  177.6160  144.3650 C   0  0  0  0  0  2  0  0  0  0  0  0
  188.0180  178.1970  145.5210 C   0  0  0  0  0  2  0  0  0  0  0  0
  189.4890  177.7110  148.2730 O   0  0  0  0  0  0  0  0  0  0  0  0
  187.2500  178.2210  147.8570 C   0  0  0  0  0  2  0  0  0  0  0  0
  187.8110  177.3620  146.7720 C   0  0  2  0  0  3  0  0  0  0  0  0
  188.3120  178.1230  148.9110 C   0  0  0  0  0  2  0  0  0  0  0  0
  189.0920  176.8770  147.2700 N   0  0  0  0  0  2  0  0  0  0  0  0
  1 27  2  0  0  0  0
  2 14  1  0  0  0  0
  3  7  1  1  0  0  0
  3 19  1  0  0  0  0
  4 18  2  0  0  0  0
  5 11  1  0  0  0  0
  8 16  1  0  0  0  0
  8 12  1  0  0  0  0
  9 25  1  0  0  0  0
 11 20  2  0  0  0  0
 12 15  1  0  0  0  0
 13  9  2  0  0  0  0
 13 24  1  0  0  0  0
 15  4  1  0  0  0  0
 15  5  2  0  0  0  0
 16  3  1  0  0  0  0
 17 10  1  0  0  0  0
 17 28  1  1  0  0  0
 18  1  1  0  0  0  0
 18 20  1  0  0  0  0
 19  5  1  0  0  0  0
 19  6  1  6  0  0  0
 20 13  1  0  0  0  0
 21 26  1  0  0  0  0
 22 10  2  0  0  0  0
 23 21  2  0  0  0  0
 23  4  1  0  0  0  0
 24 22  1  0  0  0  0
 25 14  1  6  0  0  0
 25 17  1  0  0  0  0
 26  1  1  0  0  0  0
 27  2  1  0  0  0  0
 27  9  1  0  0  0  0
 28 29  1  0  0  0  0
 30 33  1  0  0  0  0
 31 33  1  0  0  0  0
 32 29  1  6  0  0  0
 32 34  1  0  0  0  0
 32 31  1  0  0  0  0
 34 30  1  0  0  0  0
M  END
>  <MODEL>
5

>  <REMARK>
 VINA RESULT:      -9.4      5.067      9.220
  Name = 
  3 active torsions:
  status: ('A' for Active; 'I' for Inactive)
    1  A    between atoms: C_17  and  C_28
    2  A    between atoms: C_28  and  C_29
    3  A    between atoms: C_29  and  C_32
                            x       y       z     vdW  Elec       q    Type
                         _______ _______ _______ _____ _____    ______ ____

>  <TORSDO>
F 3

$$$$
=
 OpenBabel11122412203D

 34 40  0  0  1  0  0  0  0  0999 V2000
  186.3480  178.3040  143.8730 C   0  0  0  0  0  0  0  0  0  0  0  0
  188.8950  177.9380  143.9030 C   0  0  0  0  0  2  0  0  0  0  0  0
  180.4560  178.2670  140.8920 C   0  0  2  0  0  3  0  0  0  0  0  0
  183.9280  178.6080  143.6590 C   0  0  0  0  0  0  0  0  0  0  0  0
  182.9320  178.6540  141.4350 C   0  0  0  0  0  0  0  0  0  0  0  0
  181.7110  180.1580  140.0300 O   0  0  0  0  0  1  0  0  0  0  0  0
  179.6150  177.9080  139.6830 C   0  0  0  0  0  1  0  0  0  0  0  0
  180.5290  179.8540  142.8890 C   0  0  0  0  0  2  0  0  0  0  0  0
  187.6980  178.1630  141.8680 C   0  0  0  0  0  0  0  0  0  0  0  0
  189.0280  178.2540  139.0600 C   0  0  0  0  0  3  0  0  0  0  0  0
  184.1760  178.5120  140.9050 N   0  0  0  0  0  0  0  0  0  0  0  0
  181.4330  178.8140  143.5270 C   0  0  0  0  0  2  0  0  0  0  0  0
  186.5600  178.2620  141.0390 C   0  0  0  0  0  0  0  0  0  0  0  0
  189.8310  177.5950  142.7420 C   0  0  0  0  0  2  0  0  0  0  0  0
  182.7800  178.7250  142.8480 C   0  0  0  0  0  0  0  0  0  0  0  0
  179.6730  179.2270  141.7920 C   0  0  0  0  0  2  0  0  0  0  0  0
  189.4240  177.3590  140.1970 C   0  0  2  0  0  3  0  0  0  0  0  0
  185.1940  178.4510  143.0710 C   0  0  2  0  0  3  0  0  0  0  0  0
  181.8080  178.8260  140.4440 C   0  0  2  0  0  3  0  0  0  0  0  0
  185.3010  178.4110  141.6600 C   0  0  0  0  0  0  0  0  0  0  0  0
  184.8840  178.5120  145.9190 C   0  0  0  0  0  3  0  0  0  0  0  0
  187.7530  178.5590  138.8020 C   0  0  0  0  0  3  0  0  0  0  0  0
  183.8180  178.6520  145.1310 C   0  0  0  0  0  3  0  0  0  0  0  0
  186.6020  177.9630  139.5600 C   0  0  0  0  0  2  0  0  0  0  0  0
  189.1400  178.1320  141.4840 C   0  0  1  0  0  3  0  0  0  0  0  0
  186.2690  178.2840  145.3800 C   0  0  0  0  0  3  0  0  0  0  0  0
  187.5840  178.1510  143.2390 C   0  0  0  0  0  0  0  0  0  0  0  0
  190.9070  177.0360  140.0650 C   0  0  0  0  0  2  0  0  0  0  0  0
  191.1450  176.1260  138.8720 C   0  0  0  0  0  2  0  0  0  0  0  0
  194.2050  175.5910  138.3030 O   0  0  0  0  0  0  0  0  0  0  0  0
  192.4330  175.8110  136.8000 C   0  0  0  0  0  2  0  0  0  0  0  0
  192.2390  176.6970  137.9870 C   0  0  2  0  0  3  0  0  0  0  0  0
  193.8630  175.3870  136.9600 C   0  0  0  0  0  2  0  0  0  0  0  0
  193.5110  176.6960  138.6970 N   0  0  0  0  0  2  0  0  0  0  0  0
  1 26  2  0  0  0  0
  3  7  1  6  0  0  0
  3 16  1  0  0  0  0
  4 23  1  0  0  0  0
  5 15  1  0  0  0  0
  8 12  1  0  0  0  0
  9 27  2  0  0  0  0
 10 17  1  0  0  0  0
 11  5  2  0  0  0  0
 11 20  1  0  0  0  0
 13 20  2  0  0  0  0
 13  9  1  0  0  0  0
 14  2  1  0  0  0  0
 15 12  1  0  0  0  0
 15  4  2  0  0  0  0
 16  8  1  0  0  0  0
 17 28  1  6  0  0  0
 17 25  1  0  0  0  0
 18 20  1  6  0  0  0
 18  4  1  0  0  0  0
 18  1  1  0  0  0  0
 19  6  1  1  0  0  0
 19  3  1  0  0  0  0
 19  5  1  0  0  0  0
 22 10  2  0  0  0  0
 22 24  1  0  0  0  0
 23 21  2  0  0  0  0
 24 13  1  0  0  0  0
 25  9  1  0  0  0  0
 25 14  1  1  0  0  0
 26 21  1  0  0  0  0
 27  1  1  0  0  0  0
 27  2  1  0  0  0  0
 29 28  1  0  0  0  0
 30 34  1  0  0  0  0
 31 33  1  0  0  0  0
 31 32  1  0  0  0  0
 32 34  1  0  0  0  0
 32 29  1  1  0  0  0
 33 30  1  0  0  0  0
M  END
>  <MODEL>
6

>  <REMARK>
 VINA RESULT:      -9.4      3.187      8.346
  Name = 
  3 active torsions:
  status: ('A' for Active; 'I' for Inactive)
    1  A    between atoms: C_17  and  C_28
    2  A    between atoms: C_28  and  C_29
    3  A    between atoms: C_29  and  C_32
                            x       y       z     vdW  Elec       q    Type
                         _______ _______ _______ _____ _____    ______ ____

>  <TORSDO>
F 3

$$$$
=
 OpenBabel11122412203D

 34 40  0  0  1  0  0  0  0  0999 V2000
  186.0420  178.3620  143.4560 C   0  0  0  0  0  0  0  0  0  0  0  0
  188.5780  177.9800  143.2400 C   0  0  0  0  0  2  0  0  0  0  0  0
  179.8890  178.3560  141.0590 C   0  0  2  0  0  3  0  0  0  0  0  0
  183.6150  178.6810  143.4760 C   0  0  0  0  0  0  0  0  0  0  0  0
  182.4090  178.7290  141.3590 C   0  0  0  0  0  0  0  0  0  0  0  0
  181.0670  180.2370  140.0740 O   0  0  0  0  0  1  0  0  0  0  0  0
  178.9330  178.0000  139.9390 C   0  0  0  0  0  1  0  0  0  0  0  0
  180.1650  179.9480  143.0350 C   0  0  0  0  0  2  0  0  0  0  0  0
  187.1910  178.2080  141.3300 C   0  0  0  0  0  0  0  0  0  0  0  0
  188.2430  178.2830  138.4060 C   0  0  0  0  0  3  0  0  0  0  0  0
  183.5940  178.5770  140.7110 N   0  0  0  0  0  0  0  0  0  0  0  0
  181.1200  178.9030  143.5850 C   0  0  0  0  0  2  0  0  0  0  0  0
  185.9790  178.3120  140.6150 C   0  0  0  0  0  0  0  0  0  0  0  0
  189.3950  177.6280  141.9950 C   0  0  0  0  0  2  0  0  0  0  0  0
  182.3940  178.8040  142.7800 C   0  0  0  0  0  0  0  0  0  0  0  0
  179.2030  179.3230  142.0280 C   0  0  0  0  0  2  0  0  0  0  0  0
  188.7420  177.3880  139.5030 C   0  0  2  0  0  3  0  0  0  0  0  0
  184.8170  178.5140  142.7680 C   0  0  0  0  0  0  0  0  0  0  0  0
  181.1950  178.9050  140.4810 C   0  0  2  0  0  3  0  0  0  0  0  0
  184.7870  178.4710  141.3550 C   0  0  0  0  0  0  0  0  0  0  0  0
  184.7840  178.5840  145.6340 C   0  0  0  0  0  3  0  0  0  0  0  0
  186.9510  178.5950  138.2720 C   0  0  0  0  0  3  0  0  0  0  0  0
  183.6480  178.7290  144.9520 C   0  0  0  0  0  3  0  0  0  0  0  0
  185.8760  178.0090  139.1390 C   0  0  0  0  0  2  0  0  0  0  0  0
  188.5890  178.1660  140.8090 C   0  0  1  0  0  3  0  0  0  0  0  0
  186.1090  178.3460  144.9630 C   0  0  0  0  0  3  0  0  0  0  0  0
  187.2100  178.1990  142.7060 C   0  0  1  0  0  3  0  0  0  0  0  0
  190.2040  177.0560  139.2280 C   0  0  0  0  0  2  0  0  0  0  0  0
  190.4780  177.0750  137.7340 C   0  0  0  0  0  2  0  0  0  0  0  0
  190.2940  173.9270  137.5720 O   0  0  0  0  0  0  0  0  0  0  0  0
  191.0410  175.4540  135.9720 C   0  0  0  0  0  2  0  0  0  0  0  0
  191.3820  175.9160  137.3520 C   0  0  2  0  0  3  0  0  0  0  0  0
  190.6280  174.0330  136.2150 C   0  0  0  0  0  2  0  0  0  0  0  0
  191.1340  174.7770  138.2260 N   0  0  0  0  0  2  0  0  0  0  0  0
  1 26  2  0  0  0  0
  3  7  1  6  0  0  0
  3 16  1  0  0  0  0
  4 23  1  0  0  0  0
  5 15  1  0  0  0  0
  8 12  1  0  0  0  0
  9 27  1  0  0  0  0
 10 17  1  0  0  0  0
 11 20  1  0  0  0  0
 11  5  2  0  0  0  0
 13  9  2  0  0  0  0
 13 20  1  0  0  0  0
 14  2  1  0  0  0  0
 15  4  2  0  0  0  0
 15 12  1  0  0  0  0
 16  8  1  0  0  0  0
 17 28  1  6  0  0  0
 17 25  1  0  0  0  0
 18  1  1  0  0  0  0
 18  4  1  0  0  0  0
 19  6  1  1  0  0  0
 19  3  1  0  0  0  0
 19  5  1  0  0  0  0
 20 18  2  0  0  0  0
 22 10  2  0  0  0  0
 22 24  1  0  0  0  0
 23 21  2  0  0  0  0
 24 13  1  0  0  0  0
 25  9  1  0  0  0  0
 25 14  1  1  0  0  0
 26 21  1  0  0  0  0
 27  2  1  6  0  0  0
 27  1  1  0  0  0  0
 29 28  1  0  0  0  0
 30 34  1  0  0  0  0
 31 33  1  0  0  0  0
 31 32  1  0  0  0  0
 32 29  1  1  0  0  0
 32 34  1  0  0  0  0
 33 30  1  0  0  0  0
M  END
>  <MODEL>
7

>  <REMARK>
 VINA RESULT:      -9.3      3.305      8.020
  Name = 
  3 active torsions:
  status: ('A' for Active; 'I' for Inactive)
    1  A    between atoms: C_17  and  C_28
    2  A    between atoms: C_28  and  C_29
    3  A    between atoms: C_29  and  C_32
                            x       y       z     vdW  Elec       q    Type
                         _______ _______ _______ _____ _____    ______ ____

>  <TORSDO>
F 3

$$$$
=
 OpenBabel11122412203D

 34 40  0  0  1  0  0  0  0  0999 V2000
  189.9760  176.9330  141.8580 C   0  0  0  0  0  0  0  0  0  0  0  0
  191.5230  176.4300  139.8640 C   0  0  0  0  0  2  0  0  0  0  0  0
  184.1000  178.3840  144.4990 C   0  0  2  0  0  3  0  0  0  0  0  0
  188.3650  177.4420  143.6300 C   0  0  0  0  0  0  0  0  0  0  0  0
  186.2000  178.3860  143.0270 C   0  0  0  0  0  0  0  0  0  0  0  0
  184.9310  180.3810  143.3950 O   0  0  0  0  0  1  0  0  0  0  0  0
  182.6050  178.5610  144.3220 C   0  0  0  0  0  1  0  0  0  0  0  0
  186.0430  179.0890  145.9950 C   0  0  0  0  0  2  0  0  0  0  0  0
  189.4170  177.4810  139.5670 C   0  0  0  0  0  0  0  0  0  0  0  0
  188.3660  178.5470  136.8430 C   0  0  0  0  0  3  0  0  0  0  0  0
  186.5910  178.3800  141.7250 N   0  0  0  0  0  0  0  0  0  0  0  0
  186.7290  177.8320  145.4890 C   0  0  0  0  0  2  0  0  0  0  0  0
  188.1420  177.9540  139.9420 C   0  0  0  0  0  0  0  0  0  0  0  0
  191.2140  176.4960  138.3670 C   0  0  0  0  0  2  0  0  0  0  0  0
  187.1010  177.9260  144.0280 C   0  0  0  0  0  0  0  0  0  0  0  0
  184.5280  178.9770  145.8440 C   0  0  0  0  0  2  0  0  0  0  0  0
  189.1160  177.2660  137.0610 C   0  0  2  0  0  3  0  0  0  0  0  0
  188.7250  177.4420  142.2720 C   0  0  0  0  0  0  0  0  0  0  0  0
  184.8450  178.9880  143.3070 C   0  0  2  0  0  3  0  0  0  0  0  0
  187.8070  177.9330  141.3140 C   0  0  0  0  0  0  0  0  0  0  0  0
  190.5120  176.4390  144.2760 C   0  0  0  0  0  3  0  0  0  0  0  0
  187.4640  179.0030  137.7170 C   0  0  0  0  0  3  0  0  0  0  0  0
  189.3250  176.9310  144.6300 C   0  0  0  0  0  3  0  0  0  0  0  0
  187.0500  178.2360  138.9380 C   0  0  0  0  0  2  0  0  0  0  0  0
  190.0730  177.5100  138.2270 C   0  0  1  0  0  3  0  0  0  0  0  0
  190.9590  176.3490  142.8430 C   0  0  0  0  0  3  0  0  0  0  0  0
  190.2870  176.9570  140.4960 C   0  0  1  0  0  3  0  0  0  0  0  0
  189.8780  176.9280  135.7850 C   0  0  0  0  0  2  0  0  0  0  0  0
  189.4280  175.5820  135.2420 C   0  0  0  0  0  2  0  0  0  0  0  0
  187.5210  173.0660  135.3190 O   0  0  0  0  0  0  0  0  0  0  0  0
  189.2290  173.6790  136.7880 C   0  0  0  0  0  2  0  0  0  0  0  0
  188.5300  174.8850  136.2490 C   0  0  2  0  0  3  0  0  0  0  0  0
  188.3060  172.5740  136.3710 C   0  0  0  0  0  2  0  0  0  0  0  0
  187.3290  174.3880  135.5910 N   0  0  0  0  0  2  0  0  0  0  0  0
  1 18  1  0  0  0  0
  1 26  2  0  0  0  0
  3  7  1  6  0  0  0
  3 16  1  0  0  0  0
  4 15  2  0  0  0  0
  4 23  1  0  0  0  0
  5 19  1  0  0  0  0
  5 15  1  0  0  0  0
  9 13  2  0  0  0  0
  9 27  1  0  0  0  0
 10 17  1  0  0  0  0
 10 22  2  0  0  0  0
 11  5  2  0  0  0  0
 12  8  1  0  0  0  0
 13 20  1  0  0  0  0
 14  2  1  0  0  0  0
 15 12  1  0  0  0  0
 16  8  1  0  0  0  0
 17 28  1  6  0  0  0
 17 25  1  0  0  0  0
 18  4  1  0  0  0  0
 19  6  1  1  0  0  0
 19  3  1  0  0  0  0
 20 11  1  0  0  0  0
 20 18  2  0  0  0  0
 21 23  2  0  0  0  0
 22 24  1  0  0  0  0
 24 13  1  0  0  0  0
 25 14  1  1  0  0  0
 25  9  1  0  0  0  0
 26 21  1  0  0  0  0
 27  2  1  6  0  0  0
 27  1  1  0  0  0  0
 29 28  1  0  0  0  0
 30 34  1  0  0  0  0
 30 33  1  0  0  0  0
 32 29  1  6  0  0  0
 32 31  1  0  0  0  0
 33 31  1  0  0  0  0
 34 32  1  0  0  0  0
M  END
>  <MODEL>
8

>  <REMARK>
 VINA RESULT:      -9.2      3.967      7.315
  Name = 
  3 active torsions:
  status: ('A' for Active; 'I' for Inactive)
    1  A    between atoms: C_17  and  C_28
    2  A    between atoms: C_28  and  C_29
    3  A    between atoms: C_29  and  C_32
                            x       y       z     vdW  Elec       q    Type
                         _______ _______ _______ _____ _____    ______ ____

>  <TORSDO>
F 3

$$$$
=
 OpenBabel11122412203D

 34 40  0  0  1  0  0  0  0  0999 V2000
  186.8010  178.3130  140.6710 C   0  0  0  0  0  0  0  0  0  0  0  0
  184.5770  178.7490  139.4510 C   0  0  0  0  0  2  0  0  0  0  0  0
  190.3360  176.5010  145.9460 C   0  0  2  0  0  3  0  0  0  0  0  0
  188.8150  177.8620  141.9880 C   0  0  0  0  0  0  0  0  0  0  0  0
  188.6200  177.6250  144.4070 C   0  0  0  0  0  0  0  0  0  0  0  0
  189.4020  178.6960  146.3980 O   0  0  0  0  0  1  0  0  0  0  0  0
  190.3760  175.9150  147.3440 C   0  0  0  0  0  1  0  0  0  0  0  0
  191.6500  178.0110  144.3630 C   0  0  0  0  0  2  0  0  0  0  0  0
  184.6900  178.6180  141.8170 C   0  0  0  0  0  0  0  0  0  0  0  0
  182.2830  179.1450  143.7120 C   0  0  0  0  0  3  0  0  0  0  0  0
  187.2900  177.8780  144.2970 N   0  0  0  0  0  0  0  0  0  0  0  0
  190.9030  177.2920  143.2540 C   0  0  0  0  0  2  0  0  0  0  0  0
  185.2830  178.3720  143.0730 C   0  0  0  0  0  0  0  0  0  0  0  0
  183.1530  178.7230  140.0100 C   0  0  0  0  0  2  0  0  0  0  0  0
  189.4310  177.6290  143.2360 C   0  0  0  0  0  0  0  0  0  0  0  0
  191.6810  177.1630  145.6320 C   0  0  0  0  0  2  0  0  0  0  0  0
  182.2360  178.4020  142.4090 C   0  0  2  0  0  3  0  0  0  0  0  0
  187.4330  178.1080  141.9180 C   0  0  0  0  0  0  0  0  0  0  0  0
  189.1470  177.4540  145.8100 C   0  0  2  0  0  3  0  0  0  0  0  0
  186.6720  178.1190  143.1100 C   0  0  0  0  0  0  0  0  0  0  0  0
  189.0460  178.0380  139.5500 C   0  0  0  0  0  3  0  0  0  0  0  0
  183.3160  179.0460  144.5530 C   0  0  0  0  0  3  0  0  0  0  0  0
  189.6100  177.8530  140.7430 C   0  0  0  0  0  3  0  0  0  0  0  0
  184.4710  178.1170  144.3210 C   0  0  0  0  0  2  0  0  0  0  0  0
  183.2920  179.0360  141.5040 C   0  0  1  0  0  3  0  0  0  0  0  0
  187.5680  178.2530  139.3740 C   0  0  0  0  0  2  0  0  0  0  0  0
  185.4250  178.5550  140.6550 C   0  0  0  0  0  0  0  0  0  0  0  0
  180.8410  178.5530  141.8160 C   0  0  0  0  0  2  0  0  0  0  0  0
  180.1930  179.8360  142.3100 C   0  0  0  0  0  2  0  0  0  0  0  0
  179.8780  181.6280  139.7290 O   0  0  0  0  0  0  0  0  0  0  0  0
  179.1520  179.4440  140.1170 C   0  0  0  0  0  2  0  0  0  0  0  0
  179.0810  180.2590  141.3660 C   0  0  2  0  0  3  0  0  0  0  0  0
  179.3770  180.4960  139.0720 C   0  0  0  0  0  2  0  0  0  0  0  0
  179.2750  181.6420  140.9510 N   0  0  0  0  0  2  0  0  0  0  0  0
  1 18  1  0  0  0  0
  2 14  1  0  0  0  0
  2 27  1  0  0  0  0
  3  7  1  1  0  0  0
  4 15  1  0  0  0  0
  5 19  1  0  0  0  0
  8 16  1  0  0  0  0
  9 13  2  0  0  0  0
 10 22  2  0  0  0  0
 11  5  1  0  0  0  0
 12  8  1  0  0  0  0
 13 20  1  0  0  0  0
 13 24  1  0  0  0  0
 15 12  1  0  0  0  0
 15  5  2  0  0  0  0
 16  3  1  0  0  0  0
 17 28  1  6  0  0  0
 17 10  1  0  0  0  0
 18  4  2  0  0  0  0
 18 20  1  0  0  0  0
 19  3  1  0  0  0  0
 19  6  1  6  0  0  0
 20 11  2  0  0  0  0
 21 23  2  0  0  0  0
 23  4  1  0  0  0  0
 24 22  1  0  0  0  0
 25 14  1  6  0  0  0
 25  9  1  0  0  0  0
 25 17  1  0  0  0  0
 26 21  1  0  0  0  0
 26  1  1  0  0  0  0
 27  1  2  0  0  0  0
 27  9  1  0  0  0  0
 28 29  1  0  0  0  0
 30 34  1  0  0  0  0
 31 32  1  0  0  0  0
 32 29  1  1  0  0  0
 33 30  1  0  0  0  0
 33 31  1  0  0  0  0
 34 32  1  0  0  0  0
M  END
>  <MODEL>
9

>  <REMARK>
 VINA RESULT:      -9.2      1.991      4.054
  Name = 
  3 active torsions:
  status: ('A' for Active; 'I' for Inactive)
    1  A    between atoms: C_17  and  C_28
    2  A    between atoms: C_28  and  C_29
    3  A    between atoms: C_29  and  C_32
                            x       y       z     vdW  Elec       q    Type
                         _______ _______ _______ _____ _____    ______ ____

>  <TORSDO>
F 3

$$$$
