=
 OpenBabel11122412213D

 34 40  0  0  1  0  0  0  0  0999 V2000
  187.4710  178.0990  138.7780 C   0  0  0  0  0  0  0  0  0  0  0  0
  186.0740  178.8110  140.8240 C   0  0  0  0  0  3  0  0  0  0  0  0
  192.9710  175.9430  135.8950 C   0  0  0  0  0  0  0  0  0  0  0  0
  188.9090  177.3650  136.9940 C   0  0  0  0  0  0  0  0  0  0  0  0
  191.2420  176.5900  137.5890 C   0  0  0  0  0  0  0  0  0  0  0  0
  193.5440  176.1990  138.3550 C   0  0  0  0  0  1  0  0  0  0  0  0
  194.2720  176.2910  135.5490 O   0  0  0  0  0  1  0  0  0  0  0  0
  190.8560  174.8170  135.1240 C   0  0  0  0  0  3  0  0  0  0  0  0
  188.2440  177.9600  141.1390 C   0  0  0  0  0  0  0  0  0  0  0  0
  188.8330  175.9830  143.4110 C   0  0  0  0  0  3  0  0  0  0  0  0
  190.8940  176.8100  138.9700 N   0  0  0  0  0  0  0  0  0  0  0  0
  189.9250  175.4550  135.8310 C   0  0  0  0  0  3  0  0  0  0  0  0
  189.4350  177.4570  140.7920 C   0  0  0  0  0  0  0  0  0  0  0  0
  186.4220  178.8720  142.3210 C   0  0  0  0  0  3  0  0  0  0  0  0
  190.1970  176.7600  136.5020 C   0  0  1  0  0  3  0  0  0  0  0  0
  192.2490  175.2780  134.9820 C   0  0  0  0  0  3  0  0  0  0  0  0
  187.5840  176.8240  143.2200 C   0  0  2  0  0  3  0  0  0  0  0  0
  188.6910  177.5620  138.3570 C   0  0  0  0  0  0  0  0  0  0  0  0
  192.5090  176.2500  137.2750 C   0  0  0  0  0  0  0  0  0  0  0  0
  189.7310  177.2410  139.3540 C   0  0  0  0  0  0  0  0  0  0  0  0
  186.7510  178.2370  136.5340 C   0  0  0  0  0  3  0  0  0  0  0  0
  190.0310  176.1020  142.8080 C   0  0  0  0  0  3  0  0  0  0  0  0
  187.9340  177.7100  136.1100 N   0  0  0  0  0  0  0  0  0  0  0  0
  190.4540  177.1840  141.8530 C   0  0  0  0  0  2  0  0  0  0  0  0
  187.7840  178.1800  142.5290 C   0  0  1  0  0  3  0  0  0  0  0  0
  186.5220  178.4280  137.8620 N   0  0  0  0  0  0  0  0  0  0  0  0
  187.2610  178.2950  140.1800 N   0  0  0  0  0  0  0  0  0  0  0  0
  186.9550  176.9960  144.4550 O   0  0  0  0  0  0  0  0  0  0  0  0
  187.9020  177.6380  145.2570 C   0  0  0  0  0  2  0  0  0  0  0  0
  189.6210  177.8930  148.0130 O   0  0  0  0  0  0  0  0  0  0  0  0
  187.3120  178.1520  147.6010 C   0  0  0  0  0  2  0  0  0  0  0  0
  187.8360  177.0950  146.6740 C   0  0  2  0  0  3  0  0  0  0  0  0
  188.4310  178.3520  148.5940 C   0  0  0  0  0  2  0  0  0  0  0  0
  189.2380  176.8330  147.1760 C   0  0  0  0  0  2  0  0  0  0  0  0
  1 27  1  0  0  0  0
  2 14  2  0  0  0  0
  3 19  1  0  0  0  0
  4 18  2  0  0  0  0
  5 11  1  0  0  0  0
  7  3  1  0  0  0  0
  8 12  2  0  0  0  0
  9 25  1  0  0  0  0
 11 20  2  0  0  0  0
 13  9  2  0  0  0  0
 13 24  1  0  0  0  0
 15 12  1  1  0  0  0
 15  4  1  0  0  0  0
 15  5  1  0  0  0  0
 16  8  1  0  0  0  0
 16  3  2  0  0  0  0
 17 10  1  0  0  0  0
 17 28  1  1  0  0  0
 18  1  1  0  0  0  0
 18 20  1  0  0  0  0
 19  5  2  0  0  0  0
 19  6  1  0  0  0  0
 20 13  1  0  0  0  0
 21 26  1  0  0  0  0
 22 10  2  0  0  0  0
 23 21  2  0  0  0  0
 23  4  1  0  0  0  0
 24 22  1  0  0  0  0
 25 14  1  6  0  0  0
 25 17  1  0  0  0  0
 26  1  2  0  0  0  0
 27  2  1  0  0  0  0
 27  9  1  0  0  0  0
 28 29  1  0  0  0  0
 30 33  1  0  0  0  0
 31 33  1  0  0  0  0
 32 29  1  6  0  0  0
 32 34  1  0  0  0  0
 32 31  1  0  0  0  0
 34 30  1  0  0  0  0
M  END
>  <MODEL>
1

>  <REMARK>
 VINA RESULT:      -9.6      0.000      0.000
  Name = 
  3 active torsions:
  status: ('A' for Active; 'I' for Inactive)
    1  A    between atoms: C_17  and  O_28
    2  A    between atoms: O_28  and  C_29
    3  A    between atoms: C_29  and  C_32
                            x       y       z     vdW  Elec       q    Type
                         _______ _______ _______ _____ _____    ______ ____

>  <TORSDO>
F 3

$$$$
=
 OpenBabel11122412213D

 34 40  0  0  1  0  0  0  0  0999 V2000
  191.1560  177.5970  142.0380 C   0  0  0  0  0  0  0  0  0  0  0  0
  192.9590  177.1080  140.2630 C   0  0  0  0  0  3  0  0  0  0  0  0
  185.0070  178.9330  143.9370 C   0  0  0  0  0  0  0  0  0  0  0  0
  189.3380  178.0280  143.5540 C   0  0  0  0  0  0  0  0  0  0  0  0
  187.0200  178.3120  142.5820 C   0  0  0  0  0  0  0  0  0  0  0  0
  184.9410  178.8740  141.3990 C   0  0  0  0  0  1  0  0  0  0  0  0
  184.0190  179.9110  143.9460 O   0  0  0  0  0  1  0  0  0  0  0  0
  186.1730  177.1580  145.2870 C   0  0  0  0  0  3  0  0  0  0  0  0
  190.7110  177.3130  139.6060 C   0  0  0  0  0  0  0  0  0  0  0  0
  189.5010  175.3860  137.5470 C   0  0  0  0  0  3  0  0  0  0  0  0
  187.5970  178.0340  141.2910 N   0  0  0  0  0  0  0  0  0  0  0  0
  187.3760  177.1170  144.7180 C   0  0  0  0  0  3  0  0  0  0  0  0
  189.3950  177.5100  139.7540 C   0  0  0  0  0  0  0  0  0  0  0  0
  192.8740  176.9900  138.7310 C   0  0  0  0  0  3  0  0  0  0  0  0
  187.8710  178.2150  143.8350 C   0  0  0  0  0  0  0  0  0  0  0  0
  185.1870  178.2300  145.0640 C   0  0  0  0  0  2  0  0  0  0  0  0
  190.9680  175.5720  137.8860 C   0  0  2  0  0  3  0  0  0  0  0  0
  189.7900  177.7940  142.2550 C   0  0  0  0  0  0  0  0  0  0  0  0
  185.7240  178.6770  142.6590 C   0  0  0  0  0  0  0  0  0  0  0  0
  188.8580  177.7800  141.1110 C   0  0  0  0  0  0  0  0  0  0  0  0
  191.5700  177.8780  144.3450 C   0  0  0  0  0  3  0  0  0  0  0  0
  188.4570  176.1770  137.8570 C   0  0  0  0  0  3  0  0  0  0  0  0
  190.2410  178.0680  144.5720 N   0  0  0  0  0  0  0  0  0  0  0  0
  188.5130  177.5130  138.5460 C   0  0  0  0  0  2  0  0  0  0  0  0
  191.3850  176.9810  138.3310 C   0  0  1  0  0  3  0  0  0  0  0  0
  192.0230  177.6420  143.0840 N   0  0  0  0  0  0  0  0  0  0  0  0
  191.6050  177.3570  140.7000 N   0  0  0  0  0  0  0  0  0  0  0  0
  191.7450  175.1540  136.8030 O   0  0  0  0  0  0  0  0  0  0  0  0
  192.1930  173.8770  137.1510 C   0  0  0  0  0  2  0  0  0  0  0  0
  194.9820  175.5000  136.7060 O   0  0  0  0  0  0  0  0  0  0  0  0
  194.5650  173.3600  137.6100 C   0  0  0  0  0  2  0  0  0  0  0  0
  193.5540  173.6170  136.5310 C   0  0  2  0  0  3  0  0  0  0  0  0
  195.5860  174.4550  137.4190 C   0  0  0  0  0  2  0  0  0  0  0  0
  194.0500  174.8790  135.8610 C   0  0  0  0  0  2  0  0  0  0  0  0
  1 18  2  0  0  0  0
  1 26  1  0  0  0  0
  2 27  1  0  0  0  0
  3  7  1  0  0  0  0
  3 16  1  0  0  0  0
  4 15  1  0  0  0  0
  4 23  2  0  0  0  0
  5 19  1  0  0  0  0
  5 15  2  0  0  0  0
  6 19  1  0  0  0  0
  9 13  2  0  0  0  0
  9 27  1  0  0  0  0
 10 22  2  0  0  0  0
 10 17  1  0  0  0  0
 11  5  1  0  0  0  0
 12  8  2  0  0  0  0
 13 20  1  0  0  0  0
 14  2  2  0  0  0  0
 15 12  1  0  0  0  0
 16  8  1  0  0  0  0
 17 28  1  6  0  0  0
 17 25  1  0  0  0  0
 18  4  1  0  0  0  0
 19  3  2  0  0  0  0
 20 11  2  0  0  0  0
 20 18  1  0  0  0  0
 21 23  1  0  0  0  0
 22 24  1  0  0  0  0
 24 13  1  0  0  0  0
 25 14  1  1  0  0  0
 25  9  1  0  0  0  0
 26 21  2  0  0  0  0
 27  1  1  0  0  0  0
 28 29  1  0  0  0  0
 30 33  1  0  0  0  0
 32 29  1  1  0  0  0
 32 31  1  0  0  0  0
 33 31  1  0  0  0  0
 34 32  1  0  0  0  0
 34 30  1  0  0  0  0
M  END
>  <MODEL>
2

>  <REMARK>
 VINA RESULT:      -9.2      2.472      8.767
  Name = 
  3 active torsions:
  status: ('A' for Active; 'I' for Inactive)
    1  A    between atoms: C_17  and  O_28
    2  A    between atoms: O_28  and  C_29
    3  A    between atoms: C_29  and  C_32
                            x       y       z     vdW  Elec       q    Type
                         _______ _______ _______ _____ _____    ______ ____

>  <TORSDO>
F 3

$$$$
=
 OpenBabel11122412213D

 34 40  0  0  1  0  0  0  0  0999 V2000
  183.0830  178.6090  141.1760 C   0  0  0  0  0  0  0  0  0  0  0  0
  182.9290  178.9920  143.7200 C   0  0  0  0  0  3  0  0  0  0  0  0
  186.3940  177.8930  135.5430 C   0  0  0  0  0  0  0  0  0  0  0  0
  183.4200  178.2250  138.8250 C   0  0  0  0  0  0  0  0  0  0  0  0
  185.7960  178.1130  137.9650 C   0  0  0  0  0  0  0  0  0  0  0  0
  188.1510  178.3700  137.3130 C   0  0  0  0  0  1  0  0  0  0  0  0
  187.1590  178.5610  134.5940 O   0  0  0  0  0  1  0  0  0  0  0  0
  184.5450  176.2240  135.9080 C   0  0  0  0  0  3  0  0  0  0  0  0
  185.0380  178.7550  142.7080 C   0  0  0  0  0  0  0  0  0  0  0  0
  187.2340  177.0770  144.0420 C   0  0  0  0  0  3  0  0  0  0  0  0
  186.2290  178.2770  139.3300 N   0  0  0  0  0  0  0  0  0  0  0  0
  184.0410  176.6150  137.0770 C   0  0  0  0  0  3  0  0  0  0  0  0
  185.9170  178.5730  141.7150 C   0  0  0  0  0  0  0  0  0  0  0  0
  184.0200  179.1900  144.7870 C   0  0  0  0  0  3  0  0  0  0  0  0
  184.3200  177.9670  137.6460 C   0  0  0  0  0  0  0  0  0  0  0  0
  185.4700  177.0320  135.0930 C   0  0  0  0  0  3  0  0  0  0  0  0
  185.9310  177.5520  144.6600 C   0  0  2  0  0  3  0  0  0  0  0  0
  183.9520  178.4010  140.1020 C   0  0  0  0  0  0  0  0  0  0  0  0
  186.7150  178.1110  136.9790 C   0  0  2  0  0  3  0  0  0  0  0  0
  185.4100  178.3980  140.3310 C   0  0  0  0  0  0  0  0  0  0  0  0
  181.2340  178.4810  139.7130 C   0  0  0  0  0  3  0  0  0  0  0  0
  187.8290  177.4890  142.9080 C   0  0  0  0  0  3  0  0  0  0  0  0
  182.0700  178.2720  138.6580 N   0  0  0  0  0  0  0  0  0  0  0  0
  187.3820  178.6130  142.0140 C   0  0  0  0  0  2  0  0  0  0  0  0
  185.3860  178.8900  144.1400 C   0  0  1  0  0  3  0  0  0  0  0  0
  181.7400  178.6460  140.9660 N   0  0  0  0  0  0  0  0  0  0  0  0
  183.6430  178.7870  142.4810 N   0  0  0  0  0  0  0  0  0  0  0  0
  186.0710  177.5900  146.0490 O   0  0  0  0  0  0  0  0  0  0  0  0
  187.3940  177.9810  146.2690 C   0  0  0  0  0  2  0  0  0  0  0  0
  190.2820  177.5400  147.7100 O   0  0  0  0  0  0  0  0  0  0  0  0
  188.2370  178.3520  148.5620 C   0  0  0  0  0  2  0  0  0  0  0  0
  187.9310  177.3140  147.5230 C   0  0  2  0  0  3  0  0  0  0  0  0
  189.7150  178.1850  148.8180 C   0  0  0  0  0  2  0  0  0  0  0  0
  189.2760  176.6910  147.2240 C   0  0  0  0  0  2  0  0  0  0  0  0
  1 27  1  0  0  0  0
  2 14  2  0  0  0  0
  3 19  1  0  0  0  0
  4 18  1  0  0  0  0
  5 11  1  0  0  0  0
  7  3  1  0  0  0  0
  8 12  2  0  0  0  0
  9 25  1  0  0  0  0
 10 17  1  0  0  0  0
 11 20  2  0  0  0  0
 12 15  1  0  0  0  0
 13 24  1  0  0  0  0
 13  9  2  0  0  0  0
 15  5  2  0  0  0  0
 15  4  1  0  0  0  0
 16  3  2  0  0  0  0
 16  8  1  0  0  0  0
 17 28  1  1  0  0  0
 18 20  1  0  0  0  0
 18  1  2  0  0  0  0
 19  6  1  6  0  0  0
 19  5  1  0  0  0  0
 20 13  1  0  0  0  0
 21 26  2  0  0  0  0
 22 10  2  0  0  0  0
 23  4  2  0  0  0  0
 23 21  1  0  0  0  0
 24 22  1  0  0  0  0
 25 17  1  0  0  0  0
 25 14  1  1  0  0  0
 26  1  1  0  0  0  0
 27  9  1  0  0  0  0
 27  2  1  0  0  0  0
 28 29  1  0  0  0  0
 30 33  1  0  0  0  0
 31 33  1  0  0  0  0
 32 29  1  6  0  0  0
 32 31  1  0  0  0  0
 34 32  1  0  0  0  0
 34 30  1  0  0  0  0
M  END
>  <MODEL>
3

>  <REMARK>
 VINA RESULT:      -9.0      3.119      4.674
  Name = 
  3 active torsions:
  status: ('A' for Active; 'I' for Inactive)
    1  A    between atoms: C_17  and  O_28
    2  A    between atoms: O_28  and  C_29
    3  A    between atoms: C_29  and  C_32
                            x       y       z     vdW  Elec       q    Type
                         _______ _______ _______ _____ _____    ______ ____

>  <TORSDO>
F 3

$$$$
=
 OpenBabel11122412213D

 34 40  0  0  1  0  0  0  0  0999 V2000
  182.7370  178.6290  143.7100 C   0  0  0  0  0  0  0  0  0  0  0  0
  184.1540  178.9500  145.8390 C   0  0  0  0  0  3  0  0  0  0  0  0
  181.9850  177.9080  137.2200 C   0  0  0  0  0  0  0  0  0  0  0  0
  181.5820  178.2920  141.6260 C   0  0  0  0  0  0  0  0  0  0  0  0
  182.9640  178.0920  139.5180 C   0  0  0  0  0  0  0  0  0  0  0  0
  184.4730  178.2530  137.5850 C   0  0  0  0  0  1  0  0  0  0  0  0
  182.0660  178.5650  135.9970 O   0  0  0  0  0  1  0  0  0  0  0  0
  180.6330  176.3200  138.6290 C   0  0  0  0  0  3  0  0  0  0  0  0
  185.2250  178.6400  143.7680 C   0  0  0  0  0  0  0  0  0  0  0  0
  187.6880  176.8250  143.5370 C   0  0  0  0  0  3  0  0  0  0  0  0
  184.1350  178.1980  140.3520 N   0  0  0  0  0  0  0  0  0  0  0  0
  180.9480  176.7020  139.8640 C   0  0  0  0  0  3  0  0  0  0  0  0
  185.3250  178.4440  142.4480 C   0  0  0  0  0  0  0  0  0  0  0  0
  185.6740  179.0670  146.0400 C   0  0  0  0  0  3  0  0  0  0  0  0
  181.5850  178.0240  140.1450 C   0  0  0  0  0  0  0  0  0  0  0  0
  180.9300  177.1040  137.4170 C   0  0  0  0  0  3  0  0  0  0  0  0
  187.0400  177.3450  144.8070 C   0  0  2  0  0  3  0  0  0  0  0  0
  182.7800  178.4080  142.3310 C   0  0  0  0  0  0  0  0  0  0  0  0
  183.1110  178.0720  138.1780 C   0  0  2  0  0  3  0  0  0  0  0  0
  184.0830  178.3300  141.6430 C   0  0  0  0  0  0  0  0  0  0  0  0
  180.3770  178.6280  143.6430 C   0  0  0  0  0  3  0  0  0  0  0  0
  187.5090  177.2390  142.2690 C   0  0  0  0  0  3  0  0  0  0  0  0
  180.4040  178.4080  142.2990 N   0  0  0  0  0  0  0  0  0  0  0  0
  186.6790  178.4070  141.8120 C   0  0  0  0  0  2  0  0  0  0  0  0
  186.3660  178.7200  144.7070 C   0  0  1  0  0  3  0  0  0  0  0  0
  181.5390  178.7350  144.3440 N   0  0  0  0  0  0  0  0  0  0  0  0
  183.9740  178.7450  144.4200 N   0  0  0  0  0  0  0  0  0  0  0  0
  187.9830  177.3390  145.8380 O   0  0  0  0  0  0  0  0  0  0  0  0
  189.1880  176.9880  145.2230 C   0  0  0  0  0  2  0  0  0  0  0  0
  190.9460  175.8510  147.7180 O   0  0  0  0  0  0  0  0  0  0  0  0
  191.6120  176.7480  145.6400 C   0  0  0  0  0  2  0  0  0  0  0  0
  190.3590  177.4510  146.0720 C   0  0  2  0  0  3  0  0  0  0  0  0
  192.0560  176.0030  146.8750 C   0  0  0  0  0  2  0  0  0  0  0  0
  190.1570  176.9900  147.4980 C   0  0  0  0  0  2  0  0  0  0  0  0
  1 26  1  0  0  0  0
  1 27  1  0  0  0  0
  2 14  2  0  0  0  0
  3 16  2  0  0  0  0
  3 19  1  0  0  0  0
  4 23  2  0  0  0  0
  4 18  1  0  0  0  0
  5 15  2  0  0  0  0
  5 11  1  0  0  0  0
  7  3  1  0  0  0  0
  8 12  2  0  0  0  0
  9 27  1  0  0  0  0
  9 25  1  0  0  0  0
 10 17  1  0  0  0  0
 11 20  2  0  0  0  0
 12 15  1  0  0  0  0
 13  9  2  0  0  0  0
 15  4  1  0  0  0  0
 16  8  1  0  0  0  0
 17 28  1  1  0  0  0
 18  1  2  0  0  0  0
 19  6  1  6  0  0  0
 19  5  1  0  0  0  0
 20 18  1  0  0  0  0
 20 13  1  0  0  0  0
 21 26  2  0  0  0  0
 22 10  2  0  0  0  0
 23 21  1  0  0  0  0
 24 22  1  0  0  0  0
 24 13  1  0  0  0  0
 25 17  1  0  0  0  0
 25 14  1  1  0  0  0
 27  2  1  0  0  0  0
 29 28  1  0  0  0  0
 31 32  1  0  0  0  0
 31 33  1  0  0  0  0
 32 29  1  6  0  0  0
 32 34  1  0  0  0  0
 33 30  1  0  0  0  0
 34 30  1  0  0  0  0
M  END
>  <MODEL>
4

>  <REMARK>
 VINA RESULT:      -8.9      4.842      7.081
  Name = 
  3 active torsions:
  status: ('A' for Active; 'I' for Inactive)
    1  A    between atoms: C_17  and  O_28
    2  A    between atoms: O_28  and  C_29
    3  A    between atoms: C_29  and  C_32
                            x       y       z     vdW  Elec       q    Type
                         _______ _______ _______ _____ _____    ______ ____

>  <TORSDO>
F 3

$$$$
=
 OpenBabel11122412213D

 34 40  0  0  1  0  0  0  0  0999 V2000
  188.2200  176.9940  138.2310 C   0  0  0  0  0  0  0  0  0  0  0  0
  186.8630  178.3600  139.9450 C   0  0  0  0  0  3  0  0  0  0  0  0
  193.6780  174.0050  136.1130 C   0  0  0  0  0  0  0  0  0  0  0  0
  189.6240  175.6980  136.7700 C   0  0  0  0  0  0  0  0  0  0  0  0
  191.9820  175.1870  137.5290 C   0  0  0  0  0  0  0  0  0  0  0  0
  194.3070  175.0960  138.3180 C   0  0  0  0  0  1  0  0  0  0  0  0
  194.9640  174.2190  135.6320 O   0  0  0  0  0  1  0  0  0  0  0  0
  191.5600  172.6720  135.8370 C   0  0  0  0  0  3  0  0  0  0  0  0
  189.0520  177.6810  140.4730 C   0  0  0  0  0  0  0  0  0  0  0  0
  189.7260  176.6110  143.2690 C   0  0  0  0  0  3  0  0  0  0  0  0
  191.6640  175.8680  138.7590 N   0  0  0  0  0  0  0  0  0  0  0  0
  190.6380  173.5090  136.3070 C   0  0  0  0  0  3  0  0  0  0  0  0
  190.2410  177.0950  140.2880 C   0  0  0  0  0  0  0  0  0  0  0  0
  187.2470  178.9350  141.3190 C   0  0  0  0  0  3  0  0  0  0  0  0
  190.9080  174.9670  136.4800 C   0  0  1  0  0  3  0  0  0  0  0  0
  192.9420  173.0630  135.5060 C   0  0  0  0  0  3  0  0  0  0  0  0
  188.4600  177.3290  142.8350 C   0  0  2  0  0  3  0  0  0  0  0  0
  189.4360  176.3520  137.9870 C   0  0  0  0  0  0  0  0  0  0  0  0
  193.2450  174.7670  137.3160 C   0  0  0  0  0  0  0  0  0  0  0  0
  190.5050  176.3990  139.0030 C   0  0  0  0  0  0  0  0  0  0  0  0
  187.4430  176.3470  136.0970 C   0  0  0  0  0  3  0  0  0  0  0  0
  190.9060  176.5220  142.6290 C   0  0  0  0  0  3  0  0  0  0  0  0
  188.6220  175.7130  135.8480 N   0  0  0  0  0  0  0  0  0  0  0  0
  191.2900  177.2100  141.3480 C   0  0  0  0  0  2  0  0  0  0  0  0
  188.6230  178.3650  141.7140 C   0  0  1  0  0  3  0  0  0  0  0  0
  187.2430  176.9820  137.2850 N   0  0  0  0  0  0  0  0  0  0  0  0
  188.0410  177.6600  139.4850 N   0  0  0  0  0  0  0  0  0  0  0  0
  187.8590  177.9120  143.9530 O   0  0  0  0  0  0  0  0  0  0  0  0
  188.3070  177.1570  145.0400 C   0  0  0  0  0  2  0  0  0  0  0  0
  187.1180  178.7370  147.6290 O   0  0  0  0  0  0  0  0  0  0  0  0
  186.0430  177.8920  145.7050 C   0  0  0  0  0  2  0  0  0  0  0  0
  187.1830  176.9760  146.0450 C   0  0  2  0  0  3  0  0  0  0  0  0
  185.9050  178.7670  146.9270 C   0  0  0  0  0  2  0  0  0  0  0  0
  187.6430  177.4550  147.4030 C   0  0  0  0  0  2  0  0  0  0  0  0
  1 27  1  0  0  0  0
  2 14  2  0  0  0  0
  3 19  1  0  0  0  0
  4 18  2  0  0  0  0
  5 11  1  0  0  0  0
  7  3  1  0  0  0  0
  8 12  2  0  0  0  0
  9 25  1  0  0  0  0
 11 20  2  0  0  0  0
 13  9  2  0  0  0  0
 13 24  1  0  0  0  0
 15 12  1  1  0  0  0
 15  4  1  0  0  0  0
 15  5  1  0  0  0  0
 16  8  1  0  0  0  0
 16  3  2  0  0  0  0
 17 10  1  0  0  0  0
 17 28  1  1  0  0  0
 18  1  1  0  0  0  0
 18 20  1  0  0  0  0
 19  5  2  0  0  0  0
 19  6  1  0  0  0  0
 20 13  1  0  0  0  0
 21 26  1  0  0  0  0
 22 10  2  0  0  0  0
 23 21  2  0  0  0  0
 23  4  1  0  0  0  0
 24 22  1  0  0  0  0
 25 14  1  6  0  0  0
 25 17  1  0  0  0  0
 26  1  2  0  0  0  0
 27  2  1  0  0  0  0
 27  9  1  0  0  0  0
 28 29  1  0  0  0  0
 31 32  1  0  0  0  0
 31 33  1  0  0  0  0
 32 29  1  6  0  0  0
 32 34  1  0  0  0  0
 33 30  1  0  0  0  0
 34 30  1  0  0  0  0
M  END
>  <MODEL>
5

>  <REMARK>
 VINA RESULT:      -8.5      1.501      1.702
  Name = 
  3 active torsions:
  status: ('A' for Active; 'I' for Inactive)
    1  A    between atoms: C_17  and  O_28
    2  A    between atoms: O_28  and  C_29
    3  A    between atoms: C_29  and  C_32
                            x       y       z     vdW  Elec       q    Type
                         _______ _______ _______ _____ _____    ______ ____

>  <TORSDO>
F 3

$$$$
=
 OpenBabel11122412213D

 34 40  0  0  1  0  0  0  0  0999 V2000
  188.0640  177.8340  139.6700 C   0  0  0  0  0  0  0  0  0  0  0  0
  186.0790  178.5870  138.2090 C   0  0  0  0  0  3  0  0  0  0  0  0
  191.1440  177.0430  145.4230 C   0  0  0  0  0  0  0  0  0  0  0  0
  189.8010  177.1570  141.1910 C   0  0  2  0  0  3  0  0  0  0  0  0
  189.4200  177.5090  143.6660 C   0  0  0  0  0  0  0  0  0  0  0  0
  188.9730  178.2410  145.9690 C   0  0  0  0  0  1  0  0  0  0  0  0
  191.7830  177.7140  146.4590 O   0  0  0  0  0  1  0  0  0  0  0  0
  191.2220  175.0460  143.8920 C   0  0  0  0  0  3  0  0  0  0  0  0
  185.9150  178.7260  140.5500 C   0  0  0  0  0  0  0  0  0  0  0  0
  183.3290  177.9100  141.9880 C   0  0  0  0  0  3  0  0  0  0  0  0
  188.1100  178.0050  143.3280 N   0  0  0  0  0  0  0  0  0  0  0  0
  190.5660  175.4870  142.8210 C   0  0  0  0  0  3  0  0  0  0  0  0
  186.3090  178.6100  141.8250 C   0  0  0  0  0  0  0  0  0  0  0  0
  184.7320  179.2330  138.5770 C   0  0  0  0  0  3  0  0  0  0  0  0
  190.3220  176.9410  142.5860 C   0  0  0  0  0  0  0  0  0  0  0  0
  191.7130  175.9120  144.9790 C   0  0  0  0  0  3  0  0  0  0  0  0
  183.5270  178.1360  140.5000 C   0  0  2  0  0  3  0  0  0  0  0  0
  188.5240  177.6750  140.9800 C   0  0  0  0  0  0  0  0  0  0  0  0
  189.8380  177.5740  144.9460 C   0  0  0  0  0  0  0  0  0  0  0  0
  187.6660  178.0800  142.1100 C   0  0  0  0  0  0  0  0  0  0  0  0
  190.1110  176.9960  138.8430 C   0  0  0  0  0  3  0  0  0  0  0  0
  184.1330  178.2630  143.0090 C   0  0  0  0  0  3  0  0  0  0  0  0
  190.5700  176.8310  140.1150 N   0  0  0  0  0  0  0  0  0  0  0  0
  185.4000  179.0700  142.9200 C   0  0  0  0  0  2  0  0  0  0  0  0
  184.5780  179.1850  140.1100 C   0  0  1  0  0  3  0  0  0  0  0  0
  188.8630  177.4930  138.6240 N   0  0  0  0  0  0  0  0  0  0  0  0
  186.7510  178.3650  139.4690 N   0  0  0  0  0  0  0  0  0  0  0  0
  182.2950  178.4420  139.9170 O   0  0  0  0  0  0  0  0  0  0  0  0
  181.6280  177.2180  139.8180 C   0  0  0  0  0  2  0  0  0  0  0  0
  179.3720  177.2670  142.1670 O   0  0  0  0  0  0  0  0  0  0  0  0
  179.8490  178.8130  140.4490 C   0  0  0  0  0  2  0  0  0  0  0  0
  180.1290  177.4330  139.9280 C   0  0  2  0  0  3  0  0  0  0  0  0
  179.0910  178.5700  141.7310 C   0  0  0  0  0  2  0  0  0  0  0  0
  179.5690  176.5210  140.9950 C   0  0  0  0  0  2  0  0  0  0  0  0
  1 18  1  0  0  0  0
  2 14  2  0  0  0  0
  2 27  1  0  0  0  0
  3  7  1  0  0  0  0
  4 23  1  6  0  0  0
  4 15  1  0  0  0  0
  5 19  1  0  0  0  0
  8 16  2  0  0  0  0
  9 13  2  0  0  0  0
 10 22  2  0  0  0  0
 11  5  2  0  0  0  0
 12  8  1  0  0  0  0
 13 20  1  0  0  0  0
 13 24  1  0  0  0  0
 15 12  2  0  0  0  0
 15  5  1  0  0  0  0
 16  3  1  0  0  0  0
 17 28  1  1  0  0  0
 17 10  1  0  0  0  0
 18  4  1  0  0  0  0
 18 20  2  0  0  0  0
 19  3  2  0  0  0  0
 19  6  1  0  0  0  0
 20 11  1  0  0  0  0
 21 23  2  0  0  0  0
 24 22  1  0  0  0  0
 25 14  1  6  0  0  0
 25 17  1  0  0  0  0
 25  9  1  0  0  0  0
 26 21  1  0  0  0  0
 26  1  2  0  0  0  0
 27  1  1  0  0  0  0
 27  9  1  0  0  0  0
 29 28  1  0  0  0  0
 31 33  1  0  0  0  0
 32 29  1  1  0  0  0
 32 31  1  0  0  0  0
 32 34  1  0  0  0  0
 33 30  1  0  0  0  0
 34 30  1  0  0  0  0
M  END
>  <MODEL>
6

>  <REMARK>
 VINA RESULT:      -8.5      3.417      7.108
  Name = 
  3 active torsions:
  status: ('A' for Active; 'I' for Inactive)
    1  A    between atoms: C_17  and  O_28
    2  A    between atoms: O_28  and  C_29
    3  A    between atoms: C_29  and  C_32
                            x       y       z     vdW  Elec       q    Type
                         _______ _______ _______ _____ _____    ______ ____

>  <TORSDO>
F 3

$$$$
=
 OpenBabel11122412213D

 34 40  0  0  1  0  0  0  0  0999 V2000
  187.5790  177.9990  138.7160 C   0  0  0  0  0  0  0  0  0  0  0  0
  186.0000  178.7370  140.6150 C   0  0  0  0  0  3  0  0  0  0  0  0
  193.3800  176.0020  136.3570 C   0  0  0  0  0  0  0  0  0  0  0  0
  189.1810  177.2540  137.0840 C   0  0  0  0  0  0  0  0  0  0  0  0
  191.5000  176.6390  137.8850 C   0  0  0  0  0  0  0  0  0  0  0  0
  193.7550  176.4140  138.8340 C   0  0  0  0  0  1  0  0  0  0  0  0
  194.6830  176.4020  136.0860 O   0  0  0  0  0  1  0  0  0  0  0  0
  191.3870  174.7240  135.5000 C   0  0  0  0  0  3  0  0  0  0  0  0
  188.1800  178.0230  141.1310 C   0  0  0  0  0  0  0  0  0  0  0  0
  188.6990  176.2000  143.5440 C   0  0  0  0  0  3  0  0  0  0  0  0
  191.0390  176.9100  139.2230 N   0  0  0  0  0  0  0  0  0  0  0  0
  190.3760  175.3450  136.1020 C   0  0  0  0  0  3  0  0  0  0  0  0
  189.4180  177.5690  140.8990 C   0  0  0  0  0  0  0  0  0  0  0  0
  186.2320  178.8940  142.1280 C   0  0  0  0  0  3  0  0  0  0  0  0
  190.5310  176.6960  136.7190 C   0  0  1  0  0  3  0  0  0  0  0  0
  192.7620  175.2520  135.4330 C   0  0  0  0  0  3  0  0  0  0  0  0
  187.4260  176.9610  143.2190 C   0  0  2  0  0  3  0  0  0  0  0  0
  188.8520  177.5090  138.4150 C   0  0  0  0  0  0  0  0  0  0  0  0
  192.8020  176.3530  137.6820 C   0  0  0  0  0  0  0  0  0  0  0  0
  189.8300  177.2960  139.4990 C   0  0  0  0  0  0  0  0  0  0  0  0
  187.0220  177.9830  136.4230 C   0  0  0  0  0  3  0  0  0  0  0  0
  189.9300  176.3530  143.0240 C   0  0  0  0  0  3  0  0  0  0  0  0
  188.2580  177.5010  136.1150 N   0  0  0  0  0  0  0  0  0  0  0  0
  190.3680  177.4060  142.0430 C   0  0  0  0  0  2  0  0  0  0  0  0
  187.6080  178.2890  142.4700 C   0  0  1  0  0  3  0  0  0  0  0  0
  186.6850  178.2280  137.7180 N   0  0  0  0  0  0  0  0  0  0  0  0
  187.2560  178.2550  140.0870 N   0  0  0  0  0  0  0  0  0  0  0  0
  186.6990  177.1610  144.3950 O   0  0  0  0  0  0  0  0  0  0  0  0
  187.5610  177.8690  145.2370 C   0  0  0  0  0  2  0  0  0  0  0  0
  184.4620  178.7500  145.7170 O   0  0  0  0  0  0  0  0  0  0  0  0
  185.9990  177.6620  147.1400 C   0  0  0  0  0  2  0  0  0  0  0  0
  186.7600  178.6280  146.2800 C   0  0  2  0  0  3  0  0  0  0  0  0
  184.5550  178.0470  146.9260 C   0  0  0  0  0  2  0  0  0  0  0  0
  185.6800  179.4340  145.5950 C   0  0  0  0  0  2  0  0  0  0  0  0
  1 27  1  0  0  0  0
  2 14  2  0  0  0  0
  3 19  1  0  0  0  0
  4 18  2  0  0  0  0
  5 11  1  0  0  0  0
  7  3  1  0  0  0  0
  8 12  2  0  0  0  0
  9 25  1  0  0  0  0
 11 20  2  0  0  0  0
 13  9  2  0  0  0  0
 13 24  1  0  0  0  0
 15 12  1  1  0  0  0
 15  4  1  0  0  0  0
 15  5  1  0  0  0  0
 16  8  1  0  0  0  0
 16  3  2  0  0  0  0
 17 10  1  0  0  0  0
 17 28  1  1  0  0  0
 18  1  1  0  0  0  0
 18 20  1  0  0  0  0
 19  5  2  0  0  0  0
 19  6  1  0  0  0  0
 20 13  1  0  0  0  0
 21 26  1  0  0  0  0
 22 10  2  0  0  0  0
 23 21  2  0  0  0  0
 23  4  1  0  0  0  0
 24 22  1  0  0  0  0
 25 14  1  6  0  0  0
 25 17  1  0  0  0  0
 26  1  2  0  0  0  0
 27  2  1  0  0  0  0
 27  9  1  0  0  0  0
 28 29  1  0  0  0  0
 30 33  1  0  0  0  0
 32 29  1  6  0  0  0
 32 31  1  0  0  0  0
 33 31  1  0  0  0  0
 34 30  1  0  0  0  0
 34 32  1  0  0  0  0
M  END
>  <MODEL>
7

>  <REMARK>
 VINA RESULT:      -8.4      1.181      1.560
  Name = 
  3 active torsions:
  status: ('A' for Active; 'I' for Inactive)
    1  A    between atoms: C_17  and  O_28
    2  A    between atoms: O_28  and  C_29
    3  A    between atoms: C_29  and  C_32
                            x       y       z     vdW  Elec       q    Type
                         _______ _______ _______ _____ _____    ______ ____

>  <TORSDO>
F 3

$$$$
=
 OpenBabel11122412213D

 34 40  0  0  1  0  0  0  0  0999 V2000
  189.4090  177.7680  139.9090 C   0  0  0  0  0  0  0  0  0  0  0  0
  189.7380  177.6790  137.3540 C   0  0  0  0  0  3  0  0  0  0  0  0
  185.8310  178.7770  145.3300 C   0  0  0  0  0  0  0  0  0  0  0  0
  188.9090  177.8650  142.2600 C   0  0  2  0  0  3  0  0  0  0  0  0
  186.5480  178.4500  142.9520 C   0  0  0  0  0  0  0  0  0  0  0  0
  184.3020  179.3490  143.3850 C   0  0  0  0  0  1  0  0  0  0  0  0
  185.2170  179.7520  146.1080 O   0  0  0  0  0  1  0  0  0  0  0  0
  187.2360  176.6880  145.3570 C   0  0  0  0  0  3  0  0  0  0  0  0
  187.6000  178.1080  138.2340 C   0  0  0  0  0  0  0  0  0  0  0  0
  185.1130  176.7880  137.0150 C   0  0  0  0  0  3  0  0  0  0  0  0
  186.2140  178.4830  141.5500 N   0  0  0  0  0  0  0  0  0  0  0  0
  187.8590  176.7540  144.1830 C   0  0  0  0  0  3  0  0  0  0  0  0
  186.6690  178.3010  139.1770 C   0  0  0  0  0  0  0  0  0  0  0  0
  188.7640  177.9460  136.1940 C   0  0  0  0  0  3  0  0  0  0  0  0
  187.9330  178.0210  143.3960 C   0  0  0  0  0  0  0  0  0  0  0  0
  186.5050  177.8120  145.9720 C   0  0  0  0  0  3  0  0  0  0  0  0
  186.5120  176.8400  136.4290 C   0  0  2  0  0  3  0  0  0  0  0  0
  188.4790  177.9460  140.9360 C   0  0  0  0  0  0  0  0  0  0  0  0
  185.6210  178.8240  143.8580 C   0  0  0  0  0  0  0  0  0  0  0  0
  187.0720  178.2440  140.6050 C   0  0  0  0  0  0  0  0  0  0  0  0
  191.1210  177.4580  141.5050 C   0  0  0  0  0  3  0  0  0  0  0  0
  184.5950  177.5080  138.0270 C   0  0  0  0  0  3  0  0  0  0  0  0
  190.2240  177.6250  142.5160 N   0  0  0  0  0  0  0  0  0  0  0  0
  185.2680  178.6300  138.7700 C   0  0  0  0  0  2  0  0  0  0  0  0
  187.3440  178.0820  136.7770 C   0  0  1  0  0  3  0  0  0  0  0  0
  190.7130  177.5270  140.2080 N   0  0  0  0  0  0  0  0  0  0  0  0
  188.9530  177.8530  138.5550 N   0  0  0  0  0  0  0  0  0  0  0  0
  186.4340  176.6800  135.0430 O   0  0  0  0  0  0  0  0  0  0  0  0
  186.2870  175.3040  134.8460 C   0  0  0  0  0  2  0  0  0  0  0  0
  187.4490  172.2640  134.9780 O   0  0  0  0  0  0  0  0  0  0  0  0
  188.5490  174.3260  134.6560 C   0  0  0  0  0  2  0  0  0  0  0  0
  187.3870  174.5550  135.5770 C   0  0  2  0  0  3  0  0  0  0  0  0
  188.6770  172.8230  134.5990 C   0  0  0  0  0  2  0  0  0  0  0  0
  186.9070  173.1610  135.9110 C   0  0  0  0  0  2  0  0  0  0  0  0
  1 26  2  0  0  0  0
  1 18  1  0  0  0  0
  2 27  1  0  0  0  0
  3 16  1  0  0  0  0
  3  7  1  0  0  0  0
  4 18  1  6  0  0  0
  4 23  1  0  0  0  0
  4 15  1  0  0  0  0
  5 15  1  0  0  0  0
  5 19  1  0  0  0  0
  6 19  1  0  0  0  0
  8 16  2  0  0  0  0
  9 27  1  0  0  0  0
  9 13  2  0  0  0  0
 10 22  2  0  0  0  0
 11  5  2  0  0  0  0
 12  8  1  0  0  0  0
 13 20  1  0  0  0  0
 14  2  2  0  0  0  0
 15 12  2  0  0  0  0
 17 28  1  6  0  0  0
 17 25  1  0  0  0  0
 17 10  1  0  0  0  0
 19  3  2  0  0  0  0
 20 18  2  0  0  0  0
 20 11  1  0  0  0  0
 21 23  2  0  0  0  0
 22 24  1  0  0  0  0
 24 13  1  0  0  0  0
 25 14  1  6  0  0  0
 25  9  1  0  0  0  0
 26 21  1  0  0  0  0
 27  1  1  0  0  0  0
 29 28  1  0  0  0  0
 30 34  1  0  0  0  0
 31 32  1  0  0  0  0
 32 29  1  6  0  0  0
 32 34  1  0  0  0  0
 33 31  1  0  0  0  0
 33 30  1  0  0  0  0
M  END
>  <MODEL>
8

>  <REMARK>
 VINA RESULT:      -8.3      2.748      8.837
  Name = 
  3 active torsions:
  status: ('A' for Active; 'I' for Inactive)
    1  A    between atoms: C_17  and  O_28
    2  A    between atoms: O_28  and  C_29
    3  A    between atoms: C_29  and  C_32
                            x       y       z     vdW  Elec       q    Type
                         _______ _______ _______ _____ _____    ______ ____

>  <TORSDO>
F 3

$$$$
=
 OpenBabel11122412213D

 34 40  0  0  1  0  0  0  0  0999 V2000
  188.3620  177.9690  140.2790 C   0  0  0  0  0  0  0  0  0  0  0  0
  188.0900  177.9200  137.7160 C   0  0  0  0  0  3  0  0  0  0  0  0
  186.1170  178.8150  146.3980 C   0  0  0  0  0  0  0  0  0  0  0  0
  188.4190  178.0240  142.6830 C   0  0  2  0  0  3  0  0  0  0  0  0
  186.2690  178.5370  143.9130 C   0  0  0  0  0  0  0  0  0  0  0  0
  184.1650  179.3690  144.8720 C   0  0  0  0  0  1  0  0  0  0  0  0
  185.6780  179.7630  147.3150 O   0  0  0  0  0  1  0  0  0  0  0  0
  187.5390  176.7650  146.0620 C   0  0  0  0  0  3  0  0  0  0  0  0
  186.2060  178.2800  139.0750 C   0  0  0  0  0  0  0  0  0  0  0  0
  183.5350  176.9080  138.4420 C   0  0  0  0  0  3  0  0  0  0  0  0
  185.6190  178.5770  142.6280 N   0  0  0  0  0  0  0  0  0  0  0  0
  187.8710  176.8620  144.7760 C   0  0  0  0  0  3  0  0  0  0  0  0
  185.5150  178.4370  140.2120 C   0  0  0  0  0  0  0  0  0  0  0  0
  186.8680  178.1750  136.8170 C   0  0  0  0  0  3  0  0  0  0  0  0
  187.7300  178.1400  144.0160 C   0  0  0  0  0  0  0  0  0  0  0  0
  186.9440  177.8610  146.8490 C   0  0  0  0  0  3  0  0  0  0  0  0
  184.7580  177.0050  137.5480 C   0  0  2  0  0  3  0  0  0  0  0  0
  187.6920  178.1100  141.4960 C   0  0  0  0  0  0  0  0  0  0  0  0
  185.5700  178.8740  145.0160 C   0  0  0  0  0  0  0  0  0  0  0  0
  186.2390  178.3730  141.5060 C   0  0  0  0  0  0  0  0  0  0  0  0
  190.4040  177.6860  141.4280 C   0  0  0  0  0  3  0  0  0  0  0  0
  183.2500  177.6010  139.5590 C   0  0  0  0  0  3  0  0  0  0  0  0
  189.7630  177.8170  142.6220 N   0  0  0  0  0  0  0  0  0  0  0  0
  184.0500  178.7320  140.1460 C   0  0  0  0  0  2  0  0  0  0  0  0
  185.6190  178.2650  137.7170 C   0  0  1  0  0  3  0  0  0  0  0  0
  189.7050  177.7600  140.2630 N   0  0  0  0  0  0  0  0  0  0  0  0
  187.6020  178.0580  139.0690 N   0  0  0  0  0  0  0  0  0  0  0  0
  184.3640  176.8590  136.2160 O   0  0  0  0  0  0  0  0  0  0  0  0
  184.1270  175.4920  136.0560 C   0  0  0  0  0  2  0  0  0  0  0  0
  185.0220  172.3680  136.2880 O   0  0  0  0  0  0  0  0  0  0  0  0
  185.9550  174.1580  135.0650 C   0  0  0  0  0  2  0  0  0  0  0  0
  185.3940  174.7070  136.3440 C   0  0  2  0  0  3  0  0  0  0  0  0
  185.9490  172.6630  135.2780 C   0  0  0  0  0  2  0  0  0  0  0  0
  185.0500  173.4750  137.1490 C   0  0  0  0  0  2  0  0  0  0  0  0
  1 18  1  0  0  0  0
  2 27  1  0  0  0  0
  3 16  1  0  0  0  0
  3  7  1  0  0  0  0
  4 18  1  1  0  0  0
  4 15  1  0  0  0  0
  5 15  1  0  0  0  0
  5 19  1  0  0  0  0
  6 19  1  0  0  0  0
  8 16  2  0  0  0  0
  9 13  2  0  0  0  0
 10 22  2  0  0  0  0
 11  5  2  0  0  0  0
 12  8  1  0  0  0  0
 13 20  1  0  0  0  0
 14  2  2  0  0  0  0
 15 12  2  0  0  0  0
 17 28  1  6  0  0  0
 17 25  1  0  0  0  0
 17 10  1  0  0  0  0
 18 20  2  0  0  0  0
 19  3  2  0  0  0  0
 20 11  1  0  0  0  0
 21 23  2  0  0  0  0
 22 24  1  0  0  0  0
 23  4  1  0  0  0  0
 24 13  1  0  0  0  0
 25 14  1  6  0  0  0
 25  9  1  0  0  0  0
 26  1  2  0  0  0  0
 26 21  1  0  0  0  0
 27  9  1  0  0  0  0
 27  1  1  0  0  0  0
 29 28  1  0  0  0  0
 30 34  1  0  0  0  0
 31 33  1  0  0  0  0
 31 32  1  0  0  0  0
 32 29  1  6  0  0  0
 32 34  1  0  0  0  0
 33 30  1  0  0  0  0
M  END
>  <MODEL>
9

>  <REMARK>
 VINA RESULT:      -8.2      3.357      8.893
  Name = 
  3 active torsions:
  status: ('A' for Active; 'I' for Inactive)
    1  A    between atoms: C_17  and  O_28
    2  A    between atoms: O_28  and  C_29
    3  A    between atoms: C_29  and  C_32
                            x       y       z     vdW  Elec       q    Type
                         _______ _______ _______ _____ _____    ______ ____

>  <TORSDO>
F 3

$$$$
