=
 OpenBabel11122411333D

 37 43  0  0  1  0  0  0  0  0999 V2000
  181.9840  178.0790  140.1860 C   0  0  1  0  0  0  0  0  0  0  0  0
  185.2850  178.8370  142.6720 C   0  0  0  0  0  0  0  0  0  0  0  0
  188.7890  178.2180  141.6560 N   0  0  0  0  0  2  0  0  0  0  0  0
  182.9140  179.1030  142.3710 C   0  0  0  0  0  0  0  0  0  0  0  0
  186.2600  178.3250  141.9330 C   0  0  0  0  0  0  0  0  0  0  0  0
  184.1260  179.0030  141.8470 C   0  0  0  0  0  0  0  0  0  0  0  0
  187.6290  177.9750  142.4760 C   0  0  0  0  0  0  0  0  0  0  0  0
  182.7890  179.3770  143.7770 N   0  0  0  0  0  0  0  0  0  0  0  0
  184.4270  178.6280  140.4560 C   0  0  2  0  0  3  0  0  0  0  0  0
  181.6930  179.0200  139.0310 C   0  0  0  0  0  1  0  0  0  0  0  0
  185.5760  177.7220  144.8280 C   0  0  0  0  0  3  0  0  0  0  0  0
  183.8130  179.3750  144.5940 C   0  0  0  0  0  3  0  0  0  0  0  0
  183.4300  177.5480  140.0490 C   0  0  0  0  0  2  0  0  0  0  0  0
  189.3490  177.8610  139.2320 C   0  0  1  0  0  3  0  0  0  0  0  0
  188.6030  178.6280  140.2850 C   0  0  1  0  0  3  0  0  0  0  0  0
  185.2230  179.0050  144.1590 C   0  0  2  0  0  3  0  0  0  0  0  0
  185.7990  178.1330  140.5580 N   0  0  0  0  0  0  0  0  0  0  0  0
  181.7020  178.8370  141.5150 C   0  0  0  0  0  2  0  0  0  0  0  0
  187.8160  177.4140  143.7030 C   0  0  0  0  0  0  0  0  0  0  0  0
  181.1090  176.9980  140.1010 O   0  0  0  0  0  1  0  0  0  0  0  0
  187.9460  177.4120  139.6500 C   0  0  1  0  0  3  0  0  0  0  0  0
  186.6080  178.0290  139.3330 C   0  0  0  0  0  2  0  0  0  0  0  0
  186.7160  177.0610  144.6350 C   0  0  0  0  0  3  0  0  0  0  0  0
  190.0490  176.4060  143.2170 C   0  0  0  0  0  3  0  0  0  0  0  0
  189.1610  176.9700  144.1460 C   0  0  0  0  0  0  0  0  0  0  0  0
  189.5890  177.1560  145.4710 C   0  0  0  0  0  3  0  0  0  0  0  0
  191.3830  176.9860  147.5220 Cl  0  0  0  0  0  0  0  0  0  0  0  0
  191.7410  176.1870  144.9340 C   0  0  0  0  0  3  0  0  0  0  0  0
  190.8700  176.7600  145.8640 C   0  0  0  0  0  0  0  0  0  0  0  0
  191.3310  176.0120  143.6100 C   0  0  0  0  0  3  0  0  0  0  0  0
  189.4460  178.6240  137.8950 C   0  0  2  0  0  3  0  0  0  0  0  0
  189.0550  179.9660  137.9520 O   0  0  0  0  0  1  0  0  0  0  0  0
  190.4290  176.4150  136.2850 O   0  0  0  0  0  0  0  0  0  0  0  0
  189.2680  176.8490  136.0620 C   0  0  0  0  0  0  0  0  0  0  0  0
  188.7240  177.9220  136.8380 N   0  0  0  0  0  2  0  0  0  0  0  0
  187.0720  175.9210  135.4650 C   0  0  0  0  0  1  0  0  0  0  0  0
  188.4610  176.2570  134.9620 C   0  0  0  0  0  2  0  0  0  0  0  0
  1 10  1  6  0  0  0
  1 18  1  0  0  0  0
  2 16  1  0  0  0  0
  3  7  1  0  0  0  0
  4  8  1  0  0  0  0
  5  7  1  0  0  0  0
  5  2  2  0  0  0  0
  6  4  2  0  0  0  0
  6  2  1  0  0  0  0
  7 19  2  0  0  0  0
  8 12  2  0  0  0  0
  9 13  1  1  0  0  0
  9 17  1  0  0  0  0
  9  6  1  0  0  0  0
 13  1  1  0  0  0  0
 14 31  1  6  0  0  0
 14 21  1  0  0  0  0
 14 15  1  0  0  0  0
 15  3  1  1  0  0  0
 16 12  1  6  0  0  0
 16 11  1  0  0  0  0
 17  5  1  0  0  0  0
 18  4  1  0  0  0  0
 19 25  1  0  0  0  0
 19 23  1  0  0  0  0
 20  1  1  0  0  0  0
 21 22  1  6  0  0  0
 21 15  1  0  0  0  0
 22 17  1  0  0  0  0
 23 11  2  0  0  0  0
 24 30  2  0  0  0  0
 24 25  1  0  0  0  0
 25 26  2  0  0  0  0
 26 29  1  0  0  0  0
 28 29  2  0  0  0  0
 29 27  1  0  0  0  0
 30 28  1  0  0  0  0
 31 32  1  1  0  0  0
 34 33  2  0  0  0  0
 34 35  1  0  0  0  0
 35 31  1  0  0  0  0
 37 36  1  0  0  0  0
 37 34  1  0  0  0  0
M  END
>  <MODEL>
1

>  <REMARK>
 VINA RESULT:      -9.4      0.000      0.000
  Name = 
  4 active torsions:
  status: ('A' for Active; 'I' for Inactive)
    1  A    between atoms: C_4  and  C_37
    2  A    between atoms: C_8  and  N_12
    3  A    between atoms: C_8  and  C_18
    4  A    between atoms: C_23  and  C_30
                            x       y       z     vdW  Elec       q    Type
                         _______ _______ _______ _____ _____    ______ ____

>  <TORSDO>
F 4

$$$$
=
 OpenBabel11122411333D

 37 43  0  0  1  0  0  0  0  0999 V2000
  191.4500  175.5200  137.1630 C   0  0  1  0  0  0  0  0  0  0  0  0
  188.5060  178.1780  138.5470 C   0  0  0  0  0  0  0  0  0  0  0  0
  187.7730  178.7250  142.1330 N   0  0  0  0  0  2  0  0  0  0  0  0
  189.7480  177.3970  136.6430 C   0  0  0  0  0  0  0  0  0  0  0  0
  188.5300  177.9050  139.8450 C   0  0  0  0  0  0  0  0  0  0  0  0
  189.6860  177.6370  137.9430 C   0  0  2  0  0  3  0  0  0  0  0  0
  187.4240  178.2880  140.8050 C   0  0  0  0  0  0  0  0  0  0  0  0
  188.7560  177.9830  135.7820 N   0  0  0  0  0  0  0  0  0  0  0  0
  190.5560  177.0350  138.9660 C   0  0  2  0  0  3  0  0  0  0  0  0
  192.9130  175.9050  137.2830 C   0  0  0  0  0  1  0  0  0  0  0  0
  186.1430  177.9220  137.9690 C   0  0  0  0  0  3  0  0  0  0  0  0
  187.7020  178.6130  136.2410 C   0  0  0  0  0  3  0  0  0  0  0  0
  190.7970  175.5840  138.5630 C   0  0  0  0  0  2  0  0  0  0  0  0
  189.4050  177.9500  143.8800 C   0  0  1  0  0  3  0  0  0  0  0  0
  189.1460  178.6250  142.5640 C   0  0  1  0  0  3  0  0  0  0  0  0
  187.3780  178.7190  137.7230 C   0  0  0  0  0  0  0  0  0  0  0  0
  189.7500  177.1680  140.1780 N   0  0  0  0  0  0  0  0  0  0  0  0
  190.7870  176.4470  136.1030 C   0  0  0  0  0  2  0  0  0  0  0  0
  186.1040  178.2150  140.4770 C   0  0  0  0  0  0  0  0  0  0  0  0
  191.3800  174.2060  136.7050 O   0  0  0  0  0  1  0  0  0  0  0  0
  189.3890  177.1240  142.5900 C   0  0  1  0  0  3  0  0  0  0  0  0
  190.4120  177.0500  141.4870 C   0  0  0  0  0  2  0  0  0  0  0  0
  185.5940  177.7360  139.1690 C   0  0  0  0  0  3  0  0  0  0  0  0
  183.7190  178.6570  141.0760 C   0  0  0  0  0  3  0  0  0  0  0  0
  185.0490  178.4780  141.4880 C   0  0  0  0  0  0  0  0  0  0  0  0
  185.3460  178.4960  142.8610 C   0  0  0  0  0  3  0  0  0  0  0  0
  184.7240  178.7490  145.5070 Cl  0  0  0  0  0  0  0  0  0  0  0  0
  183.0180  178.9050  143.3800 C   0  0  0  0  0  3  0  0  0  0  0  0
  184.3360  178.7160  143.8010 C   0  0  0  0  0  0  0  0  0  0  0  0
  182.7090  178.8740  142.0180 C   0  0  0  0  0  3  0  0  0  0  0  0
  190.7970  178.2790  144.4560 C   0  0  2  0  0  3  0  0  0  0  0  0
  191.6570  178.9440  143.5750 O   0  0  0  0  0  1  0  0  0  0  0  0
  190.5030  177.2100  147.1410 O   0  0  0  0  0  0  0  0  0  0  0  0
  191.2690  176.6140  146.3380 C   0  0  0  0  0  0  0  0  0  0  0  0
  191.4370  177.0840  144.9960 N   0  0  0  0  0  2  0  0  0  0  0  0
  192.6820  175.7100  148.1340 C   0  0  0  0  0  1  0  0  0  0  0  0
  192.0300  175.4220  146.7980 C   0  0  0  0  0  2  0  0  0  0  0  0
  1 10  1  1  0  0  0
  1 13  1  0  0  0  0
  2  5  2  0  0  0  0
  5 17  1  0  0  0  0
  5  7  1  0  0  0  0
  6  4  1  6  0  0  0
  6  2  1  0  0  0  0
  6  9  1  0  0  0  0
  7  3  1  0  0  0  0
  8 12  1  0  0  0  0
  8  4  2  0  0  0  0
  9 13  1  6  0  0  0
  9 17  1  0  0  0  0
 11 23  2  0  0  0  0
 12 16  2  0  0  0  0
 14 31  1  6  0  0  0
 15  3  1  1  0  0  0
 15 21  1  0  0  0  0
 15 14  1  0  0  0  0
 16 11  1  0  0  0  0
 16  2  1  0  0  0  0
 17 22  1  0  0  0  0
 18  4  1  0  0  0  0
 18  1  1  0  0  0  0
 19  7  2  0  0  0  0
 19 25  1  0  0  0  0
 20  1  1  0  0  0  0
 21 22  1  6  0  0  0
 21 14  1  0  0  0  0
 23 19  1  0  0  0  0
 24 25  2  0  0  0  0
 24 30  1  0  0  0  0
 25 26  1  0  0  0  0
 26 29  2  0  0  0  0
 28 29  1  0  0  0  0
 29 27  1  0  0  0  0
 30 28  2  0  0  0  0
 31 32  1  6  0  0  0
 31 35  1  0  0  0  0
 34 37  1  0  0  0  0
 34 33  2  0  0  0  0
 35 34  1  0  0  0  0
 37 36  1  0  0  0  0
M  END
>  <MODEL>
2

>  <REMARK>
 VINA RESULT:      -8.9      2.993      7.834
  Name = 
  4 active torsions:
  status: ('A' for Active; 'I' for Inactive)
    1  A    between atoms: C_4  and  C_37
    2  A    between atoms: C_8  and  N_12
    3  A    between atoms: C_8  and  C_18
    4  A    between atoms: C_23  and  C_30
                            x       y       z     vdW  Elec       q    Type
                         _______ _______ _______ _____ _____    ______ ____

>  <TORSDO>
F 4

$$$$
=
 OpenBabel11122411333D

 37 43  0  0  1  0  0  0  0  0999 V2000
  186.4030  176.7710  136.9260 C   0  0  1  0  0  0  0  0  0  0  0  0
  187.5150  178.3960  140.6360 C   0  0  0  0  0  0  0  0  0  0  0  0
  190.7850  177.7560  142.2470 N   0  0  0  0  0  2  0  0  0  0  0  0
  185.8970  178.4130  138.8580 C   0  0  0  0  0  0  0  0  0  0  0  0
  188.6660  177.7670  140.8350 C   0  0  0  0  0  0  0  0  0  0  0  0
  187.1480  178.2530  139.2590 C   0  0  0  0  0  0  0  0  0  0  0  0
  189.3480  177.6700  142.1830 C   0  0  0  0  0  0  0  0  0  0  0  0
  184.9620  179.0520  139.7450 N   0  0  0  0  0  0  0  0  0  0  0  0
  188.1970  177.5330  138.5200 C   0  0  2  0  0  3  0  0  0  0  0  0
  187.0080  177.3380  135.6550 C   0  0  0  0  0  1  0  0  0  0  0  0
  186.2670  177.9360  142.6880 C   0  0  0  0  0  3  0  0  0  0  0  0
  185.2490  179.3420  140.9900 C   0  0  0  0  0  3  0  0  0  0  0  0
  187.5430  176.3190  137.8680 C   0  0  0  0  0  2  0  0  0  0  0  0
  192.6770  176.7870  140.9060 C   0  0  1  0  0  3  0  0  0  0  0  0
  191.5400  177.7620  141.0180 C   0  0  1  0  0  3  0  0  0  0  0  0
  186.5660  178.9600  141.6490 C   0  0  2  0  0  3  0  0  0  0  0  0
  189.1370  177.1760  139.5820 N   0  0  0  0  0  0  0  0  0  0  0  0
  185.4540  177.8420  137.5350 C   0  0  0  0  0  2  0  0  0  0  0  0
  188.6630  177.4810  143.3450 C   0  0  0  0  0  0  0  0  0  0  0  0
  185.6440  175.6520  136.5870 O   0  0  0  0  0  1  0  0  0  0  0  0
  191.2740  176.3780  140.4460 C   0  0  1  0  0  3  0  0  0  0  0  0
  190.5100  176.7940  139.2160 C   0  0  0  0  0  2  0  0  0  0  0  0
  187.1900  177.3240  143.4300 C   0  0  0  0  0  3  0  0  0  0  0  0
  190.6530  176.6800  144.6260 C   0  0  0  0  0  3  0  0  0  0  0  0
  189.3770  177.2650  144.6280 C   0  0  0  0  0  0  0  0  0  0  0  0
  188.8250  177.6880  145.8490 C   0  0  0  0  0  3  0  0  0  0  0  0
  188.8150  178.0240  148.5580 Cl  0  0  0  0  0  0  0  0  0  0  0  0
  190.7870  176.9090  147.0320 C   0  0  0  0  0  3  0  0  0  0  0  0
  189.5230  177.5040  147.0450 C   0  0  0  0  0  0  0  0  0  0  0  0
  191.3530  176.4990  145.8220 C   0  0  0  0  0  3  0  0  0  0  0  0
  193.6740  177.1590  139.7900 C   0  0  2  0  0  3  0  0  0  0  0  0
  193.6490  178.5030  139.4010 O   0  0  0  0  0  1  0  0  0  0  0  0
  195.3870  174.9370  139.0370 O   0  0  0  0  0  0  0  0  0  0  0  0
  194.4050  175.2140  138.3000 C   0  0  0  0  0  0  0  0  0  0  0  0
  193.5150  176.2850  138.6320 N   0  0  0  0  0  2  0  0  0  0  0  0
  192.7060  174.1260  136.8960 C   0  0  0  0  0  1  0  0  0  0  0  0
  194.1800  174.4340  137.0530 C   0  0  0  0  0  2  0  0  0  0  0  0
  1 10  1  6  0  0  0
  1 18  1  0  0  0  0
  1 13  1  0  0  0  0
  2  5  2  0  0  0  0
  2 16  1  0  0  0  0
  4  6  2  0  0  0  0
  4  8  1  0  0  0  0
  5  7  1  0  0  0  0
  6  2  1  0  0  0  0
  7  3  1  0  0  0  0
  7 19  2  0  0  0  0
  8 12  2  0  0  0  0
  9 13  1  1  0  0  0
  9  6  1  0  0  0  0
  9 17  1  0  0  0  0
 11 23  2  0  0  0  0
 14 31  1  6  0  0  0
 14 15  1  0  0  0  0
 15  3  1  1  0  0  0
 16 12  1  6  0  0  0
 16 11  1  0  0  0  0
 17  5  1  0  0  0  0
 18  4  1  0  0  0  0
 19 23  1  0  0  0  0
 19 25  1  0  0  0  0
 20  1  1  0  0  0  0
 21 22  1  6  0  0  0
 21 14  1  0  0  0  0
 21 15  1  0  0  0  0
 22 17  1  0  0  0  0
 24 25  2  0  0  0  0
 24 30  1  0  0  0  0
 25 26  1  0  0  0  0
 26 29  2  0  0  0  0
 28 29  1  0  0  0  0
 29 27  1  0  0  0  0
 30 28  2  0  0  0  0
 31 32  1  6  0  0  0
 34 35  1  0  0  0  0
 34 33  2  0  0  0  0
 35 31  1  0  0  0  0
 36 37  1  0  0  0  0
 37 34  1  0  0  0  0
M  END
>  <MODEL>
3

>  <REMARK>
 VINA RESULT:      -8.8      2.836      4.077
  Name = 
  4 active torsions:
  status: ('A' for Active; 'I' for Inactive)
    1  A    between atoms: C_4  and  C_37
    2  A    between atoms: C_8  and  N_12
    3  A    between atoms: C_8  and  C_18
    4  A    between atoms: C_23  and  C_30
                            x       y       z     vdW  Elec       q    Type
                         _______ _______ _______ _____ _____    ______ ____

>  <TORSDO>
F 4

$$$$
=
 OpenBabel11122411333D

 37 43  0  0  1  0  0  0  0  0999 V2000
  190.4060  178.7340  143.6420 C   0  0  1  0  0  0  0  0  0  0  0  0
  186.3970  177.5920  144.1580 C   0  0  0  0  0  0  0  0  0  0  0  0
  183.8380  177.8630  141.4970 N   0  0  0  0  0  2  0  0  0  0  0  0
  188.6090  177.5780  145.0980 C   0  0  0  0  0  0  0  0  0  0  0  0
  185.8800  178.0140  143.0110 C   0  0  0  0  0  0  0  0  0  0  0  0
  187.8230  177.5620  144.0330 C   0  0  0  0  0  0  0  0  0  0  0  0
  184.3970  178.2100  142.7800 C   0  0  0  0  0  0  0  0  0  0  0  0
  188.0360  177.2920  146.3860 N   0  0  0  0  0  0  0  0  0  0  0  0
  188.2270  177.9300  142.6670 C   0  0  2  0  0  3  0  0  0  0  0  0
  191.3300  177.8510  142.8240 C   0  0  0  0  0  1  0  0  0  0  0  0
  184.9510  178.6300  145.8350 C   0  0  0  0  0  3  0  0  0  0  0  0
  186.7450  177.1730  146.5780 C   0  0  0  0  0  3  0  0  0  0  0  0
  189.1810  179.1150  142.7780 C   0  0  0  0  0  2  0  0  0  0  0  0
  184.5430  178.2070  139.1090 C   0  0  1  0  0  3  0  0  0  0  0  0
  184.7290  177.5010  140.4220 C   0  0  1  0  0  3  0  0  0  0  0  0
  185.7180  177.4030  145.4800 C   0  0  2  0  0  3  0  0  0  0  0  0
  186.9500  178.2790  142.0480 N   0  0  0  0  0  0  0  0  0  0  0  0
  190.0540  177.9850  144.9590 C   0  0  0  0  0  2  0  0  0  0  0  0
  183.5640  178.7250  143.7270 C   0  0  0  0  0  0  0  0  0  0  0  0
  191.0930  179.9010  143.9690 O   0  0  0  0  0  1  0  0  0  0  0  0
  185.4920  178.7900  140.1600 C   0  0  1  0  0  3  0  0  0  0  0  0
  186.8610  178.3220  140.5800 C   0  0  0  0  0  2  0  0  0  0  0  0
  184.0040  179.1730  145.0710 C   0  0  0  0  0  3  0  0  0  0  0  0
  181.1430  178.6760  144.3400 C   0  0  0  0  0  3  0  0  0  0  0  0
  182.1420  179.0190  143.4170 C   0  0  0  0  0  0  0  0  0  0  0  0
  181.7790  179.6900  142.2370 C   0  0  0  0  0  3  0  0  0  0  0  0
  180.0010  180.8100  140.4940 Cl  0  0  0  0  0  0  0  0  0  0  0  0
  179.4510  179.6270  142.8940 C   0  0  0  0  0  3  0  0  0  0  0  0
  180.4390  179.9860  141.9740 C   0  0  0  0  0  0  0  0  0  0  0  0
  179.8020  178.9740  144.0770 C   0  0  0  0  0  3  0  0  0  0  0  0
  185.2080  177.4630  137.9330 C   0  0  2  0  0  3  0  0  0  0  0  0
  185.4610  178.2520  136.8060 O   0  0  0  0  0  1  0  0  0  0  0  0
  186.2850  174.8630  137.2170 O   0  0  0  0  0  0  0  0  0  0  0  0
  185.0360  175.0180  137.2050 C   0  0  0  0  0  0  0  0  0  0  0  0
  184.4480  176.2720  137.5680 N   0  0  0  0  0  2  0  0  0  0  0  0
  184.5420  172.6330  137.5310 C   0  0  0  0  0  1  0  0  0  0  0  0
  184.1600  173.8930  136.7830 C   0  0  0  0  0  2  0  0  0  0  0  0
  1 10  1  6  0  0  0
  1 20  1  0  0  0  0
  1 18  1  0  0  0  0
  2 16  1  0  0  0  0
  3  7  1  0  0  0  0
  4  8  1  0  0  0  0
  5  2  2  0  0  0  0
  6  2  1  0  0  0  0
  6  4  2  0  0  0  0
  7  5  1  0  0  0  0
  7 19  2  0  0  0  0
  8 12  2  0  0  0  0
  9 13  1  1  0  0  0
  9  6  1  0  0  0  0
 13  1  1  0  0  0  0
 14 31  1  6  0  0  0
 14 21  1  0  0  0  0
 14 15  1  0  0  0  0
 15  3  1  1  0  0  0
 16 11  1  1  0  0  0
 16 12  1  0  0  0  0
 17  9  1  0  0  0  0
 17  5  1  0  0  0  0
 18  4  1  0  0  0  0
 19 23  1  0  0  0  0
 21 15  1  0  0  0  0
 21 22  1  6  0  0  0
 22 17  1  0  0  0  0
 23 11  2  0  0  0  0
 25 19  1  0  0  0  0
 25 24  2  0  0  0  0
 26 25  1  0  0  0  0
 27 29  1  0  0  0  0
 28 30  2  0  0  0  0
 29 26  2  0  0  0  0
 29 28  1  0  0  0  0
 30 24  1  0  0  0  0
 31 32  1  6  0  0  0
 34 33  2  0  0  0  0
 34 35  1  0  0  0  0
 35 31  1  0  0  0  0
 37 34  1  0  0  0  0
 37 36  1  0  0  0  0
M  END
>  <MODEL>
4

>  <REMARK>
 VINA RESULT:      -8.6      3.409      6.811
  Name = 
  4 active torsions:
  status: ('A' for Active; 'I' for Inactive)
    1  A    between atoms: C_4  and  C_37
    2  A    between atoms: C_8  and  N_12
    3  A    between atoms: C_8  and  C_18
    4  A    between atoms: C_23  and  C_30
                            x       y       z     vdW  Elec       q    Type
                         _______ _______ _______ _____ _____    ______ ____

>  <TORSDO>
F 4

$$$$
=
 OpenBabel11122411333D

 37 43  0  0  1  0  0  0  0  0999 V2000
  188.6580  176.7270  147.5600 C   0  0  1  0  0  0  0  0  0  0  0  0
  189.4840  178.2840  143.7480 C   0  0  0  0  0  0  0  0  0  0  0  0
  186.9040  178.7780  141.1410 N   0  0  0  0  0  2  0  0  0  0  0  0
  190.3380  177.8590  145.9540 C   0  0  0  0  0  0  0  0  0  0  0  0
  188.3040  178.1220  143.1640 C   0  0  1  0  0  3  0  0  0  0  0  0
  189.3170  178.1470  145.1630 C   0  0  0  0  0  0  0  0  0  0  0  0
  188.0960  178.1600  141.6650 C   0  0  0  0  0  0  0  0  0  0  0  0
  191.6750  178.0070  145.4420 N   0  0  0  0  0  0  0  0  0  0  0  0
  187.8970  177.9540  145.4960 C   0  0  2  0  0  3  0  0  0  0  0  0
  187.9580  177.6020  148.5840 C   0  0  0  0  0  1  0  0  0  0  0  0
  191.0260  177.1880  142.1980 C   0  0  0  0  0  3  0  0  0  0  0  0
  191.9270  178.2610  144.1810 C   0  0  0  0  0  3  0  0  0  0  0  0
  187.7870  176.6520  146.2850 C   0  0  0  0  0  2  0  0  0  0  0  0
  184.4690  178.7330  141.7610 C   0  0  1  0  0  3  0  0  0  0  0  0
  185.8690  179.1880  142.0580 C   0  0  1  0  0  3  0  0  0  0  0  0
  190.8420  178.3460  143.1180 C   0  0  0  0  0  0  0  0  0  0  0  0
  187.2750  177.8780  144.1750 N   0  0  1  0  0  0  0  0  0  0  0  0
  190.0880  177.2950  147.3300 C   0  0  0  0  0  2  0  0  0  0  0  0
  188.9780  177.6130  140.7830 C   0  0  0  0  0  0  0  0  0  0  0  0
  188.7730  175.4430  148.0890 O   0  0  0  0  0  1  0  0  0  0  0  0
  185.3810  177.8700  142.6380 C   0  0  1  0  0  3  0  0  0  0  0  0
  185.8220  178.0830  144.0620 C   0  0  0  0  0  2  0  0  0  0  0  0
  190.2200  176.9020  141.1770 C   0  0  0  0  0  3  0  0  0  0  0  0
  189.0510  178.6290  138.5020 C   0  0  0  0  0  3  0  0  0  0  0  0
  188.6750  177.5600  139.3310 C   0  0  0  0  0  0  0  0  0  0  0  0
  188.0690  176.4320  138.7550 C   0  0  0  0  0  3  0  0  0  0  0  0
  187.0480  174.9780  136.6820 Cl  0  0  0  0  0  0  0  0  0  0  0  0
  188.1830  177.4600  136.5680 C   0  0  0  0  0  3  0  0  0  0  0  0
  187.8170  176.3850  137.3810 C   0  0  0  0  0  0  0  0  0  0  0  0
  188.8010  178.5810  137.1270 C   0  0  0  0  0  3  0  0  0  0  0  0
  183.4020  179.5620  142.5040 C   0  0  2  0  0  3  0  0  0  0  0  0
  183.8550  180.2020  143.6630 O   0  0  0  0  0  1  0  0  0  0  0  0
  180.6580  180.5000  142.6690 O   0  0  0  0  0  0  0  0  0  0  0  0
  180.8880  179.2800  142.8770 C   0  0  0  0  0  0  0  0  0  0  0  0
  182.2180  178.7580  142.7900 N   0  0  0  0  0  2  0  0  0  0  0  0
  178.9340  179.0030  144.3420 C   0  0  0  0  0  1  0  0  0  0  0  0
  179.7670  178.3730  143.2450 C   0  0  0  0  0  2  0  0  0  0  0  0
  1 20  1  0  0  0  0
  1 10  1  1  0  0  0
  2  6  1  0  0  0  0
  3  7  1  0  0  0  0
  4 18  1  0  0  0  0
  5  7  1  6  0  0  0
  5  2  1  0  0  0  0
  5 17  1  0  0  0  0
  6  9  1  0  0  0  0
  6  4  2  0  0  0  0
  8  4  1  0  0  0  0
  9 13  1  6  0  0  0
 11 16  1  0  0  0  0
 12  8  2  0  0  0  0
 13  1  1  0  0  0  0
 14 15  1  0  0  0  0
 14 31  1  1  0  0  0
 14 21  1  0  0  0  0
 15  3  1  6  0  0  0
 15 21  1  0  0  0  0
 16  2  2  0  0  0  0
 16 12  1  0  0  0  0
 17 22  1  1  0  0  0
 17  9  1  0  0  0  0
 18  1  1  0  0  0  0
 19 23  1  0  0  0  0
 19  7  2  0  0  0  0
 21 22  1  1  0  0  0
 23 11  2  0  0  0  0
 24 25  1  0  0  0  0
 25 19  1  0  0  0  0
 26 25  2  0  0  0  0
 27 29  1  0  0  0  0
 28 30  1  0  0  0  0
 28 29  2  0  0  0  0
 29 26  1  0  0  0  0
 30 24  2  0  0  0  0
 31 35  1  0  0  0  0
 31 32  1  1  0  0  0
 33 34  2  0  0  0  0
 34 37  1  0  0  0  0
 35 34  1  0  0  0  0
 37 36  1  0  0  0  0
M  END
>  <MODEL>
5

>  <REMARK>
 VINA RESULT:      -8.5      3.458      7.862
  Name = 
  4 active torsions:
  status: ('A' for Active; 'I' for Inactive)
    1  A    between atoms: C_4  and  C_37
    2  A    between atoms: C_8  and  N_12
    3  A    between atoms: C_8  and  C_18
    4  A    between atoms: C_23  and  C_30
                            x       y       z     vdW  Elec       q    Type
                         _______ _______ _______ _____ _____    ______ ____

>  <TORSDO>
F 4

$$$$
=
 OpenBabel11122411333D

 37 43  0  0  1  0  0  0  0  0999 V2000
  190.7200  178.6250  143.6180 C   0  0  1  0  0  0  0  0  0  0  0  0
  186.6690  177.5500  143.8930 C   0  0  0  0  0  0  0  0  0  0  0  0
  184.2760  177.8780  141.0890 N   0  0  0  0  0  2  0  0  0  0  0  0
  188.8220  177.4930  144.9610 C   0  0  0  0  0  0  0  0  0  0  0  0
  186.2280  177.9860  142.7200 C   0  0  0  0  0  0  0  0  0  0  0  0
  188.0990  177.4960  143.8520 C   0  0  0  0  0  0  0  0  0  0  0  0
  184.7640  178.2090  142.4040 C   0  0  0  0  0  0  0  0  0  0  0  0
  188.1700  177.2110  146.2110 N   0  0  0  0  0  0  0  0  0  0  0  0
  188.5890  177.8630  142.5130 C   0  0  2  0  0  3  0  0  0  0  0  0
  191.6760  177.7290  142.8510 C   0  0  0  0  0  1  0  0  0  0  0  0
  185.1450  178.6050  145.4880 C   0  0  0  0  0  3  0  0  0  0  0  0
  186.8680  177.1130  146.3260 C   0  0  0  0  0  3  0  0  0  0  0  0
  189.5550  179.0310  142.6860 C   0  0  0  0  0  2  0  0  0  0  0  0
  185.1240  178.2200  138.7480 C   0  0  1  0  0  3  0  0  0  0  0  0
  185.2210  177.5050  140.0650 C   0  0  1  0  0  3  0  0  0  0  0  0
  185.9110  177.3670  145.1720 C   0  0  2  0  0  3  0  0  0  0  0  0
  187.3560  178.2370  141.8230 N   0  0  0  0  0  0  0  0  0  0  0  0
  190.2790  177.8760  144.9080 C   0  0  0  0  0  2  0  0  0  0  0  0
  183.8860  178.7340  143.3030 C   0  0  0  0  0  0  0  0  0  0  0  0
  191.4070  179.7780  143.9910 O   0  0  0  0  0  1  0  0  0  0  0  0
  186.0200  178.7820  139.8550 C   0  0  1  0  0  3  0  0  0  0  0  0
  187.3540  178.2880  140.3520 C   0  0  0  0  0  2  0  0  0  0  0  0
  184.2540  179.1680  144.6740 C   0  0  0  0  0  3  0  0  0  0  0  0
  182.1480  179.1340  141.5540 C   0  0  0  0  0  3  0  0  0  0  0  0
  182.4900  179.0540  142.9120 C   0  0  0  0  0  0  0  0  0  0  0  0
  181.4850  179.2220  143.8790 C   0  0  0  0  0  3  0  0  0  0  0  0
  178.9310  179.7140  144.7110 Cl  0  0  0  0  0  0  0  0  0  0  0  0
  179.8430  179.5850  142.1390 C   0  0  0  0  0  3  0  0  0  0  0  0
  180.1690  179.4940  143.4940 C   0  0  0  0  0  0  0  0  0  0  0  0
  180.8310  179.4040  141.1690 C   0  0  0  0  0  3  0  0  0  0  0  0
  185.8440  177.4710  137.6080 C   0  0  2  0  0  3  0  0  0  0  0  0
  186.1330  178.2480  136.4820 O   0  0  0  0  0  1  0  0  0  0  0  0
  186.9610  174.8280  137.1550 O   0  0  0  0  0  0  0  0  0  0  0  0
  185.7220  174.9900  137.0000 C   0  0  0  0  0  0  0  0  0  0  0  0
  185.1140  176.2660  137.2290 N   0  0  0  0  0  2  0  0  0  0  0  0
  184.6850  172.8710  137.6880 C   0  0  0  0  0  1  0  0  0  0  0  0
  184.8830  173.8490  136.5480 C   0  0  0  0  0  2  0  0  0  0  0  0
  1 10  1  6  0  0  0
  1 20  1  0  0  0  0
  1 18  1  0  0  0  0
  2 16  1  0  0  0  0
  3  7  1  0  0  0  0
  4  8  1  0  0  0  0
  5  2  2  0  0  0  0
  6  2  1  0  0  0  0
  6  4  2  0  0  0  0
  7  5  1  0  0  0  0
  7 19  2  0  0  0  0
  8 12  2  0  0  0  0
  9 13  1  1  0  0  0
  9  6  1  0  0  0  0
 13  1  1  0  0  0  0
 14 31  1  6  0  0  0
 14 21  1  0  0  0  0
 14 15  1  0  0  0  0
 15  3  1  1  0  0  0
 16 11  1  1  0  0  0
 16 12  1  0  0  0  0
 17  9  1  0  0  0  0
 17  5  1  0  0  0  0
 18  4  1  0  0  0  0
 19 23  1  0  0  0  0
 21 15  1  0  0  0  0
 21 22  1  6  0  0  0
 22 17  1  0  0  0  0
 23 11  2  0  0  0  0
 24 25  1  0  0  0  0
 25 19  1  0  0  0  0
 25 26  2  0  0  0  0
 28 29  2  0  0  0  0
 29 26  1  0  0  0  0
 29 27  1  0  0  0  0
 30 24  2  0  0  0  0
 30 28  1  0  0  0  0
 31 32  1  6  0  0  0
 34 33  2  0  0  0  0
 34 35  1  0  0  0  0
 35 31  1  0  0  0  0
 37 34  1  0  0  0  0
 37 36  1  0  0  0  0
M  END
>  <MODEL>
6

>  <REMARK>
 VINA RESULT:      -8.2      3.178      6.620
  Name = 
  4 active torsions:
  status: ('A' for Active; 'I' for Inactive)
    1  A    between atoms: C_4  and  C_37
    2  A    between atoms: C_8  and  N_12
    3  A    between atoms: C_8  and  C_18
    4  A    between atoms: C_23  and  C_30
                            x       y       z     vdW  Elec       q    Type
                         _______ _______ _______ _____ _____    ______ ____

>  <TORSDO>
F 4

$$$$
=
 OpenBabel11122411333D

 37 43  0  0  1  0  0  0  0  0999 V2000
  190.3860  178.7510  143.5740 C   0  0  1  0  0  0  0  0  0  0  0  0
  186.3860  177.5560  144.0440 C   0  0  0  0  0  0  0  0  0  0  0  0
  183.8090  177.9770  141.4210 N   0  0  0  0  0  2  0  0  0  0  0  0
  188.6050  177.4970  144.9680 C   0  0  0  0  0  0  0  0  0  0  0  0
  185.8600  178.0450  142.9290 C   0  0  0  0  0  0  0  0  0  0  0  0
  187.8120  177.5420  143.9090 C   0  0  0  0  0  0  0  0  0  0  0  0
  184.3740  178.2470  142.7190 C   0  0  0  0  0  0  0  0  0  0  0  0
  188.0410  177.1280  146.2390 N   0  0  0  0  0  0  0  0  0  0  0  0
  188.2050  177.9970  142.5660 C   0  0  2  0  0  3  0  0  0  0  0  0
  191.3090  177.9250  142.6980 C   0  0  0  0  0  1  0  0  0  0  0  0
  184.9460  178.4800  145.7910 C   0  0  0  0  0  3  0  0  0  0  0  0
  186.7530  176.9900  146.4310 C   0  0  0  0  0  3  0  0  0  0  0  0
  189.1530  179.1780  142.7440 C   0  0  0  0  0  2  0  0  0  0  0  0
  184.4950  178.4720  139.0550 C   0  0  1  0  0  3  0  0  0  0  0  0
  184.6940  177.6880  140.3200 C   0  0  1  0  0  3  0  0  0  0  0  0
  185.7170  177.2820  145.3560 C   0  0  2  0  0  3  0  0  0  0  0  0
  186.9210  178.3760  141.9770 N   0  0  0  0  0  0  0  0  0  0  0  0
  190.0470  177.9190  144.8450 C   0  0  0  0  0  2  0  0  0  0  0  0
  183.5440  178.6980  143.7010 C   0  0  0  0  0  0  0  0  0  0  0  0
  191.0690  179.8990  143.9690 O   0  0  0  0  0  1  0  0  0  0  0  0
  185.4490  178.9950  140.1330 C   0  0  1  0  0  3  0  0  0  0  0  0
  186.8220  178.5090  140.5150 C   0  0  0  0  0  2  0  0  0  0  0  0
  183.9910  179.0640  145.0680 C   0  0  0  0  0  3  0  0  0  0  0  0
  181.1310  178.6330  144.3460 C   0  0  0  0  0  3  0  0  0  0  0  0
  182.1190  179.0020  143.4190 C   0  0  0  0  0  0  0  0  0  0  0  0
  181.7410  179.7070  142.2650 C   0  0  0  0  0  3  0  0  0  0  0  0
  179.9420  180.8790  140.5780 Cl  0  0  0  0  0  0  0  0  0  0  0  0
  179.4220  179.6280  142.9510 C   0  0  0  0  0  3  0  0  0  0  0  0
  180.3980  180.0120  142.0280 C   0  0  0  0  0  0  0  0  0  0  0  0
  179.7880  178.9400  144.1100 C   0  0  0  0  0  3  0  0  0  0  0  0
  185.1570  177.8070  137.8300 C   0  0  2  0  0  3  0  0  0  0  0  0
  185.0280  176.4150  137.7750 O   0  0  0  0  0  1  0  0  0  0  0  0
  186.7170  177.9860  135.3870 O   0  0  0  0  0  0  0  0  0  0  0  0
  187.2820  178.2520  136.4800 C   0  0  0  0  0  0  0  0  0  0  0  0
  186.5580  178.2000  137.7140 N   0  0  0  0  0  2  0  0  0  0  0  0
  189.2620  178.5310  137.9100 C   0  0  0  0  0  1  0  0  0  0  0  0
  188.7280  178.5990  136.4940 C   0  0  0  0  0  2  0  0  0  0  0  0
  1 10  1  6  0  0  0
  1 20  1  0  0  0  0
  1 18  1  0  0  0  0
  2 16  1  0  0  0  0
  3  7  1  0  0  0  0
  4  8  1  0  0  0  0
  5  2  2  0  0  0  0
  6  2  1  0  0  0  0
  6  4  2  0  0  0  0
  7  5  1  0  0  0  0
  7 19  2  0  0  0  0
  8 12  2  0  0  0  0
  9 13  1  1  0  0  0
  9  6  1  0  0  0  0
 13  1  1  0  0  0  0
 14 31  1  6  0  0  0
 14 21  1  0  0  0  0
 14 15  1  0  0  0  0
 15  3  1  1  0  0  0
 16 11  1  1  0  0  0
 16 12  1  0  0  0  0
 17  9  1  0  0  0  0
 17  5  1  0  0  0  0
 18  4  1  0  0  0  0
 19 23  1  0  0  0  0
 21 15  1  0  0  0  0
 21 22  1  6  0  0  0
 22 17  1  0  0  0  0
 23 11  2  0  0  0  0
 25 19  1  0  0  0  0
 25 24  2  0  0  0  0
 26 25  1  0  0  0  0
 27 29  1  0  0  0  0
 28 30  2  0  0  0  0
 29 26  2  0  0  0  0
 29 28  1  0  0  0  0
 30 24  1  0  0  0  0
 31 32  1  1  0  0  0
 33 34  2  0  0  0  0
 34 37  1  0  0  0  0
 34 35  1  0  0  0  0
 35 31  1  0  0  0  0
 37 36  1  0  0  0  0
M  END
>  <MODEL>
7

>  <REMARK>
 VINA RESULT:      -8.1      3.226      6.712
  Name = 
  4 active torsions:
  status: ('A' for Active; 'I' for Inactive)
    1  A    between atoms: C_4  and  C_37
    2  A    between atoms: C_8  and  N_12
    3  A    between atoms: C_8  and  C_18
    4  A    between atoms: C_23  and  C_30
                            x       y       z     vdW  Elec       q    Type
                         _______ _______ _______ _____ _____    ______ ____

>  <TORSDO>
F 4

$$$$
=
 OpenBabel11122411333D

 37 43  0  0  1  0  0  0  0  0999 V2000
  192.0520  174.9240  137.0070 C   0  0  1  0  0  0  0  0  0  0  0  0
  188.9410  177.7210  137.3800 C   0  0  0  0  0  0  0  0  0  0  0  0
  187.4130  178.6540  140.6190 N   0  0  0  0  0  2  0  0  0  0  0  0
  190.5690  176.7360  135.9110 C   0  0  0  0  0  0  0  0  0  0  0  0
  188.6570  177.5890  138.6700 C   0  0  0  0  0  0  0  0  0  0  0  0
  190.2140  177.1150  137.1290 C   0  0  2  0  0  3  0  0  0  0  0  0
  187.3700  178.0760  139.2990 C   0  0  0  0  0  0  0  0  0  0  0  0
  189.8190  177.2280  134.7860 N   0  0  0  0  0  0  0  0  0  0  0  0
  190.8070  176.6260  138.3830 C   0  0  2  0  0  3  0  0  0  0  0  0
  193.4580  175.3160  137.4250 C   0  0  0  0  0  1  0  0  0  0  0  0
  186.7710  177.4090  136.2980 C   0  0  0  0  0  3  0  0  0  0  0  0
  188.7060  177.9050  134.9180 C   0  0  0  0  0  3  0  0  0  0  0  0
  191.0950  175.1390  138.2020 C   0  0  0  0  0  2  0  0  0  0  0  0
  188.5740  178.0690  142.7700 C   0  0  1  0  0  3  0  0  0  0  0  0
  188.6450  178.5990  141.3670 C   0  0  1  0  0  3  0  0  0  0  0  0
  188.0500  178.1720  136.2640 C   0  0  0  0  0  0  0  0  0  0  0  0
  189.7460  176.8910  139.3530 N   0  0  0  0  0  0  0  0  0  0  0  0
  191.6790  175.7310  135.7310 C   0  0  0  0  0  2  0  0  0  0  0  0
  186.1600  177.9710  138.6830 C   0  0  0  0  0  0  0  0  0  0  0  0
  192.0550  173.5680  136.6860 O   0  0  0  0  0  1  0  0  0  0  0  0
  188.8350  177.1090  141.6060 C   0  0  1  0  0  3  0  0  0  0  0  0
  190.0830  176.9140  140.7850 C   0  0  0  0  0  2  0  0  0  0  0  0
  185.9540  177.3540  137.3490 C   0  0  0  0  0  3  0  0  0  0  0  0
  184.7660  178.0640  140.7540 C   0  0  0  0  0  3  0  0  0  0  0  0
  184.9070  178.3440  139.3860 C   0  0  0  0  0  0  0  0  0  0  0  0
  183.8760  179.0280  138.7210 C   0  0  0  0  0  3  0  0  0  0  0  0
  181.4330  180.2380  138.5590 Cl  0  0  0  0  0  0  0  0  0  0  0  0
  182.5800  179.1030  140.7640 C   0  0  0  0  0  3  0  0  0  0  0  0
  182.7150  179.3990  139.4050 C   0  0  0  0  0  0  0  0  0  0  0  0
  183.6060  178.4380  141.4390 C   0  0  0  0  0  3  0  0  0  0  0  0
  189.8040  178.4570  143.6170 C   0  0  2  0  0  3  0  0  0  0  0  0
  191.0250  178.4180  142.9350 O   0  0  0  0  0  1  0  0  0  0  0  0
  187.7670  178.2560  145.6780 O   0  0  0  0  0  0  0  0  0  0  0  0
  188.8400  177.6150  145.8310 C   0  0  0  0  0  0  0  0  0  0  0  0
  189.8710  177.6610  144.8380 N   0  0  0  0  0  2  0  0  0  0  0  0
  188.5570  177.6020  148.2720 C   0  0  0  0  0  1  0  0  0  0  0  0
  189.0510  176.8220  147.0710 C   0  0  0  0  0  2  0  0  0  0  0  0
  1 10  1  1  0  0  0
  1 13  1  0  0  0  0
  2  5  2  0  0  0  0
  5  7  1  0  0  0  0
  5 17  1  0  0  0  0
  6  4  1  6  0  0  0
  6  2  1  0  0  0  0
  6  9  1  0  0  0  0
  7  3  1  0  0  0  0
  8 12  1  0  0  0  0
  8  4  2  0  0  0  0
  9 13  1  6  0  0  0
  9 17  1  0  0  0  0
 11 23  2  0  0  0  0
 12 16  2  0  0  0  0
 14 31  1  1  0  0  0
 15  3  1  6  0  0  0
 15 21  1  0  0  0  0
 15 14  1  0  0  0  0
 16 11  1  0  0  0  0
 16  2  1  0  0  0  0
 17 22  1  0  0  0  0
 18  4  1  0  0  0  0
 18  1  1  0  0  0  0
 19  7  2  0  0  0  0
 19 25  1  0  0  0  0
 20  1  1  0  0  0  0
 21 22  1  1  0  0  0
 21 14  1  0  0  0  0
 23 19  1  0  0  0  0
 24 30  1  0  0  0  0
 25 24  2  0  0  0  0
 26 25  1  0  0  0  0
 26 29  2  0  0  0  0
 27 29  1  0  0  0  0
 28 30  2  0  0  0  0
 29 28  1  0  0  0  0
 31 32  1  6  0  0  0
 31 35  1  0  0  0  0
 33 34  2  0  0  0  0
 34 37  1  0  0  0  0
 35 34  1  0  0  0  0
 37 36  1  0  0  0  0
M  END
>  <MODEL>
8

>  <REMARK>
 VINA RESULT:      -7.8      3.516      8.609
  Name = 
  4 active torsions:
  status: ('A' for Active; 'I' for Inactive)
    1  A    between atoms: C_4  and  C_37
    2  A    between atoms: C_8  and  N_12
    3  A    between atoms: C_8  and  C_18
    4  A    between atoms: C_23  and  C_30
                            x       y       z     vdW  Elec       q    Type
                         _______ _______ _______ _____ _____    ______ ____

>  <TORSDO>
F 4

$$$$
=
 OpenBabel11122411333D

 37 43  0  0  1  0  0  0  0  0999 V2000
  190.9220  178.6750  143.9850 C   0  0  1  0  0  0  0  0  0  0  0  0
  187.0010  177.6760  142.8570 C   0  0  0  0  0  0  0  0  0  0  0  0
  185.7750  177.8430  139.3690 N   0  0  0  0  0  2  0  0  0  0  0  0
  188.6300  177.6640  144.6250 C   0  0  0  0  0  0  0  0  0  0  0  0
  187.0220  178.0370  141.5810 C   0  0  0  0  0  0  0  0  0  0  0  0
  188.3490  177.6010  143.3330 C   0  0  0  0  0  0  0  0  0  0  0  0
  185.7760  178.2570  140.7500 C   0  0  0  0  0  0  0  0  0  0  0  0
  187.5650  177.4780  145.5750 N   0  0  0  0  0  0  0  0  0  0  0  0
  189.2960  177.8680  142.2390 C   0  0  2  0  0  3  0  0  0  0  0  0
  192.0540  177.7160  143.6650 C   0  0  0  0  0  1  0  0  0  0  0  0
  185.0500  178.8590  143.7370 C   0  0  0  0  0  3  0  0  0  0  0  0
  186.3050  177.4050  145.2230 C   0  0  0  0  0  3  0  0  0  0  0  0
  190.1800  179.0320  142.6760 C   0  0  0  0  0  2  0  0  0  0  0  0
  187.4130  178.0120  137.4700 C   0  0  1  0  0  3  0  0  0  0  0  0
  187.0090  177.3890  138.7750 C   0  0  1  0  0  3  0  0  0  0  0  0
  185.8310  177.5910  143.7890 C   0  0  2  0  0  3  0  0  0  0  0  0
  188.4040  178.2100  141.1320 N   0  0  0  0  0  0  0  0  0  0  0  0
  190.0230  178.0230  145.0750 C   0  0  0  0  0  2  0  0  0  0  0  0
  184.6560  178.8540  141.2420 C   0  0  0  0  0  0  0  0  0  0  0  0
  191.4730  179.8420  144.5100 O   0  0  0  0  0  1  0  0  0  0  0  0
  187.8770  178.6370  138.7890 C   0  0  1  0  0  3  0  0  0  0  0  0
  188.9270  178.1600  139.7580 C   0  0  0  0  0  2  0  0  0  0  0  0
  184.5280  179.3760  142.6260 C   0  0  0  0  0  3  0  0  0  0  0  0
  183.6990  179.9370  139.2040 C   0  0  0  0  0  3  0  0  0  0  0  0
  183.5030  179.1650  140.3600 C   0  0  0  0  0  0  0  0  0  0  0  0
  182.2230  178.6530  140.6290 C   0  0  0  0  0  3  0  0  0  0  0  0
  179.5630  178.2960  140.1280 Cl  0  0  0  0  0  0  0  0  0  0  0  0
  181.3580  179.7100  138.6310 C   0  0  0  0  0  3  0  0  0  0  0  0
  181.1540  178.9300  139.7720 C   0  0  0  0  0  0  0  0  0  0  0  0
  182.6300  180.2120  138.3460 C   0  0  0  0  0  3  0  0  0  0  0  0
  188.4630  177.1770  136.7100 C   0  0  2  0  0  3  0  0  0  0  0  0
  189.0090  177.8010  135.5830 O   0  0  0  0  0  1  0  0  0  0  0  0
  189.5720  174.6040  137.4760 O   0  0  0  0  0  0  0  0  0  0  0  0
  188.5380  174.6210  136.7570 C   0  0  0  0  0  0  0  0  0  0  0  0
  187.9370  175.8600  136.3650 N   0  0  0  0  0  2  0  0  0  0  0  0
  186.8940  172.8670  137.2640 C   0  0  0  0  0  1  0  0  0  0  0  0
  187.9500  173.3400  136.2860 C   0  0  0  0  0  2  0  0  0  0  0  0
  1 10  1  6  0  0  0
  1 20  1  0  0  0  0
  1 18  1  0  0  0  0
  2  6  1  0  0  0  0
  2 16  1  0  0  0  0
  3  7  1  0  0  0  0
  4 18  1  0  0  0  0
  4  8  1  0  0  0  0
  5  2  2  0  0  0  0
  6  4  2  0  0  0  0
  7 19  2  0  0  0  0
  7  5  1  0  0  0  0
  9 13  1  1  0  0  0
  9  6  1  0  0  0  0
 12  8  2  0  0  0  0
 13  1  1  0  0  0  0
 14 31  1  6  0  0  0
 14 15  1  0  0  0  0
 14 21  1  0  0  0  0
 15 21  1  0  0  0  0
 15  3  1  1  0  0  0
 16 11  1  1  0  0  0
 16 12  1  0  0  0  0
 17  5  1  0  0  0  0
 17  9  1  0  0  0  0
 19 23  1  0  0  0  0
 21 22  1  6  0  0  0
 22 17  1  0  0  0  0
 23 11  2  0  0  0  0
 24 25  1  0  0  0  0
 25 26  2  0  0  0  0
 25 19  1  0  0  0  0
 28 29  2  0  0  0  0
 29 27  1  0  0  0  0
 29 26  1  0  0  0  0
 30 28  1  0  0  0  0
 30 24  2  0  0  0  0
 31 32  1  6  0  0  0
 34 33  2  0  0  0  0
 35 31  1  0  0  0  0
 35 34  1  0  0  0  0
 37 34  1  0  0  0  0
 37 36  1  0  0  0  0
M  END
>  <MODEL>
9

>  <REMARK>
 VINA RESULT:      -7.6      3.206      6.548
  Name = 
  4 active torsions:
  status: ('A' for Active; 'I' for Inactive)
    1  A    between atoms: C_4  and  C_37
    2  A    between atoms: C_8  and  N_12
    3  A    between atoms: C_8  and  C_18
    4  A    between atoms: C_23  and  C_30
                            x       y       z     vdW  Elec       q    Type
                         _______ _______ _______ _____ _____    ______ ____

>  <TORSDO>
F 4

$$$$
