=
 OpenBabel11122411543D

 28 32  0  0  1  0  0  0  0  0999 V2000
  181.0160  179.2970  141.0860 C   0  0  0  0  0  0  0  0  0  0  0  0
  180.8590  176.1100  140.1790 O   0  0  0  0  0  0  0  0  0  0  0  0
  186.3400  178.8940  138.1930 O   0  0  0  0  0  0  0  0  0  0  0  0
  179.2100  180.8600  139.6180 C   0  0  0  0  0  3  0  0  0  0  0  0
  184.8490  177.1140  137.8310 N   0  0  0  0  0  0  0  0  0  0  0  0
  181.9700  178.5400  141.9460 C   0  0  0  0  0  2  0  0  0  0  0  0
  178.9310  176.8120  138.8280 O   0  0  0  0  0  0  0  0  0  0  0  0
  180.3510  176.3230  138.7800 S   0  0  0  0  0  0  0  0  0  0  0  0
  181.3270  174.6670  136.8590 C   0  0  0  0  0  0  0  0  0  0  0  0
  181.3280  177.4790  137.9010 N   0  0  2  0  0  0  0  0  0  0  0  0
  184.9620  178.4360  143.4040 C   0  0  0  0  0  1  0  0  0  0  0  0
  183.1970  177.7090  139.4320 C   0  0  1  0  0  3  0  0  0  0  0  0
  182.2100  175.5750  136.5710 N   0  0  0  0  0  0  0  0  0  0  0  0
  180.4090  174.8310  137.9340 N   0  0  0  0  0  2  0  0  0  0  0  0
  184.1600  178.3330  142.1230 C   0  0  2  0  0  3  0  0  0  0  0  0
  181.0370  179.2490  139.6670 C   0  0  0  0  0  0  0  0  0  0  0  0
  185.2830  178.2810  138.4970 C   0  0  0  0  0  0  0  0  0  0  0  0
  181.2370  173.4490  136.0140 C   0  0  0  0  0  1  0  0  0  0  0  0
  185.0890  178.5250  140.9250 C   0  0  0  0  0  2  0  0  0  0  0  0
  180.1260  180.0440  138.9550 C   0  0  0  0  0  3  0  0  0  0  0  0
  180.0960  180.1250  141.7390 C   0  0  0  0  0  3  0  0  0  0  0  0
  179.1930  180.9000  141.0110 C   0  0  0  0  0  3  0  0  0  0  0  0
  183.1380  179.2860  142.1280 O   0  0  0  0  0  0  0  0  0  0  0  0
  183.5780  176.6670  138.3680 C   0  0  1  0  0  3  0  0  0  0  0  0
  184.3670  178.6960  139.5820 C   0  0  2  0  0  3  0  0  0  0  0  0
  182.4930  176.8140  137.3080 C   0  0  2  0  0  3  0  0  0  0  0  0
  185.6170  176.3940  136.8280 C   0  0  0  0  0  1  0  0  0  0  0  0
  181.9810  178.4070  138.8270 C   0  0  2  0  0  3  0  0  0  0  0  0
  1 21  1  0  0  0  0
  1  6  1  0  0  0  0
  3 17  2  0  0  0  0
  4 22  1  0  0  0  0
  5 24  1  0  0  0  0
  5 17  1  0  0  0  0
  6 23  1  0  0  0  0
  8  7  2  0  0  0  0
  8  2  2  0  0  0  0
  9 14  1  0  0  0  0
 10  8  1  1  0  0  0
 10 28  1  0  0  0  0
 12 25  1  0  0  0  0
 13  9  2  0  0  0  0
 13 26  1  0  0  0  0
 14  8  1  0  0  0  0
 15 23  1  0  0  0  0
 15 11  1  0  0  0  0
 16  1  2  0  0  0  0
 17 25  1  0  0  0  0
 18  9  1  0  0  0  0
 19 15  1  0  0  0  0
 20  4  2  0  0  0  0
 20 16  1  0  0  0  0
 22 21  2  0  0  0  0
 24 12  1  0  0  0  0
 25 19  1  0  0  0  0
 26 10  1  0  0  0  0
 26 24  1  0  0  0  0
 27  5  1  0  0  0  0
 28 12  1  0  0  0  0
 28 16  1  0  0  0  0
M  END
>  <MODEL>
1

>  <REMARK>
 VINA RESULT:      -5.7      0.000      0.000
  Name = 
  0 active torsions:
  status: ('A' for Active; 'I' for Inactive)
                            x       y       z     vdW  Elec       q    Type
                         _______ _______ _______ _____ _____    ______ ____

>  <TORSDO>
F 0

$$$$
=
 OpenBabel11122411543D

 28 32  0  0  1  0  0  0  0  0999 V2000
  181.9390  179.6930  138.6640 C   0  0  0  0  0  0  0  0  0  0  0  0
  181.1690  176.5420  139.3580 O   0  0  0  0  0  0  0  0  0  0  0  0
  187.0500  177.0450  136.7310 O   0  0  0  0  0  0  0  0  0  0  0  0
  180.4410  180.6510  136.4960 C   0  0  0  0  0  3  0  0  0  0  0  0
  185.2440  175.5960  137.1340 N   0  0  0  0  0  0  0  0  0  0  0  0
  182.7440  179.2870  139.8510 C   0  0  0  0  0  2  0  0  0  0  0  0
  179.3900  176.8350  137.6880 O   0  0  0  0  0  0  0  0  0  0  0  0
  180.6910  176.1460  137.9880 S   0  0  0  0  0  0  0  0  0  0  0  0
  181.3090  173.6320  137.1580 C   0  0  0  0  0  0  0  0  0  0  0  0
  181.8570  176.5520  136.7470 N   0  0  2  0  0  0  0  0  0  0  0  0
  185.6820  179.3780  141.4160 C   0  0  0  0  0  1  0  0  0  0  0  0
  183.7560  177.1590  138.1310 C   0  0  1  0  0  3  0  0  0  0  0  0
  182.3450  174.1250  136.5460 N   0  0  0  0  0  0  0  0  0  0  0  0
  180.4550  174.4460  137.9530 N   0  0  0  0  0  2  0  0  0  0  0  0
  184.8570  178.8160  140.2760 C   0  0  2  0  0  3  0  0  0  0  0  0
  181.9310  178.9710  137.4420 C   0  0  0  0  0  0  0  0  0  0  0  0
  185.9000  176.8440  137.2030 C   0  0  0  0  0  0  0  0  0  0  0  0
  180.9790  172.1950  136.9820 C   0  0  0  0  0  1  0  0  0  0  0  0
  185.7900  178.2480  139.2060 C   0  0  0  0  0  2  0  0  0  0  0  0
  181.1770  179.4730  136.3700 C   0  0  0  0  0  3  0  0  0  0  0  0
  181.2010  180.8780  138.7750 C   0  0  0  0  0  3  0  0  0  0  0  0
  180.4510  181.3530  137.7000 C   0  0  0  0  0  3  0  0  0  0  0  0
  184.0350  179.8150  139.7510 O   0  0  0  0  0  0  0  0  0  0  0  0
  183.9190  175.6870  137.7170 C   0  0  1  0  0  3  0  0  0  0  0  0
  185.0950  177.8780  137.8890 C   0  0  2  0  0  3  0  0  0  0  0  0
  182.8660  175.4950  136.6320 C   0  0  2  0  0  3  0  0  0  0  0  0
  185.8490  174.3640  136.6530 C   0  0  0  0  0  1  0  0  0  0  0  0
  182.6860  177.6810  137.1750 C   0  0  2  0  0  3  0  0  0  0  0  0
  1 21  1  0  0  0  0
  1  6  1  0  0  0  0
  3 17  2  0  0  0  0
  4 22  1  0  0  0  0
  5 17  1  0  0  0  0
  5 24  1  0  0  0  0
  7  8  2  0  0  0  0
  8  2  2  0  0  0  0
  9 14  1  0  0  0  0
 10 28  1  0  0  0  0
 10  8  1  1  0  0  0
 13 26  1  0  0  0  0
 13  9  2  0  0  0  0
 14  8  1  0  0  0  0
 15 11  1  0  0  0  0
 16  1  2  0  0  0  0
 17 25  1  0  0  0  0
 18  9  1  0  0  0  0
 19 15  1  0  0  0  0
 20  4  2  0  0  0  0
 20 16  1  0  0  0  0
 22 21  2  0  0  0  0
 23  6  1  0  0  0  0
 23 15  1  0  0  0  0
 24 12  1  0  0  0  0
 25 12  1  0  0  0  0
 25 19  1  0  0  0  0
 26 10  1  0  0  0  0
 26 24  1  0  0  0  0
 27  5  1  0  0  0  0
 28 16  1  0  0  0  0
 28 12  1  0  0  0  0
M  END
>  <MODEL>
2

>  <REMARK>
 VINA RESULT:      -5.5      1.692      2.102
  Name = 
  0 active torsions:
  status: ('A' for Active; 'I' for Inactive)
                            x       y       z     vdW  Elec       q    Type
                         _______ _______ _______ _____ _____    ______ ____

>  <TORSDO>
F 0

$$$$
=
 OpenBabel11122411543D

 28 32  0  0  1  0  0  0  0  0999 V2000
  188.2660  177.1620  137.1040 C   0  0  0  0  0  0  0  0  0  0  0  0
  188.3140  173.8460  137.1710 O   0  0  0  0  0  0  0  0  0  0  0  0
  194.2790  176.3250  137.2420 O   0  0  0  0  0  0  0  0  0  0  0  0
  187.4590  178.1150  134.5940 C   0  0  0  0  0  3  0  0  0  0  0  0
  192.9980  174.4160  136.7530 N   0  0  0  0  0  0  0  0  0  0  0  0
  188.6580  176.7480  138.4810 C   0  0  0  0  0  2  0  0  0  0  0  0
  187.2830  174.0000  134.9460 O   0  0  0  0  0  0  0  0  0  0  0  0
  188.5250  173.6170  135.7000 S   0  0  0  0  0  0  0  0  0  0  0  0
  190.1540  171.5560  135.0030 C   0  0  0  0  0  0  0  0  0  0  0  0
  189.8780  174.5410  135.0840 N   0  0  2  0  0  0  0  0  0  0  0  0
  190.6250  177.2700  141.1170 C   0  0  0  0  0  1  0  0  0  0  0  0
  190.8420  175.3250  137.1690 C   0  0  1  0  0  3  0  0  0  0  0  0
  191.1330  172.4040  134.9120 N   0  0  0  0  0  0  0  0  0  0  0  0
  188.8590  171.9540  135.4370 N   0  0  0  0  0  2  0  0  0  0  0  0
  190.4980  176.7530  139.6990 C   0  0  2  0  0  3  0  0  0  0  0  0
  188.9350  176.7150  135.9340 C   0  0  0  0  0  0  0  0  0  0  0  0
  193.1600  175.7510  137.1830 C   0  0  0  0  0  0  0  0  0  0  0  0
  190.3760  170.1450  134.5960 C   0  0  0  0  0  1  0  0  0  0  0  0
  191.8870  176.6610  139.0660 C   0  0  0  0  0  2  0  0  0  0  0  0
  188.5160  177.2100  134.6900 C   0  0  0  0  0  3  0  0  0  0  0  0
  187.2120  178.0750  136.9940 C   0  0  0  0  0  3  0  0  0  0  0  0
  186.8050  178.5460  135.7460 C   0  0  0  0  0  3  0  0  0  0  0  0
  189.6620  177.5940  138.9630 O   0  0  0  0  0  0  0  0  0  0  0  0
  191.5940  174.0530  136.7450 C   0  0  1  0  0  3  0  0  0  0  0  0
  191.8800  176.3920  137.5560 C   0  0  2  0  0  3  0  0  0  0  0  0
  191.1330  173.8180  135.3110 C   0  0  2  0  0  3  0  0  0  0  0  0
  194.0880  173.4970  136.4690 C   0  0  0  0  0  1  0  0  0  0  0  0
  190.0960  175.7360  135.9010 C   0  0  2  0  0  3  0  0  0  0  0  0
  1  6  1  0  0  0  0
  4 20  2  0  0  0  0
  4 22  1  0  0  0  0
  5 17  1  0  0  0  0
  6 23  1  0  0  0  0
  7  8  2  0  0  0  0
  8  2  2  0  0  0  0
  9 14  1  0  0  0  0
 10 26  1  0  0  0  0
 10  8  1  1  0  0  0
 10 28  1  0  0  0  0
 12 25  1  0  0  0  0
 13  9  2  0  0  0  0
 13 26  1  0  0  0  0
 14  8  1  0  0  0  0
 15 11  1  0  0  0  0
 16  1  2  0  0  0  0
 17  3  2  0  0  0  0
 17 25  1  0  0  0  0
 18  9  1  0  0  0  0
 19 15  1  0  0  0  0
 20 16  1  0  0  0  0
 21  1  1  0  0  0  0
 22 21  2  0  0  0  0
 23 15  1  0  0  0  0
 24  5  1  0  0  0  0
 24 12  1  0  0  0  0
 25 19  1  0  0  0  0
 26 24  1  0  0  0  0
 27  5  1  0  0  0  0
 28 16  1  0  0  0  0
 28 12  1  0  0  0  0
M  END
>  <MODEL>
3

>  <REMARK>
 VINA RESULT:      -5.3      6.978      8.769
  Name = 
  0 active torsions:
  status: ('A' for Active; 'I' for Inactive)
                            x       y       z     vdW  Elec       q    Type
                         _______ _______ _______ _____ _____    ______ ____

>  <TORSDO>
F 0

$$$$
=
 OpenBabel11122411543D

 28 32  0  0  1  0  0  0  0  0999 V2000
  188.1450  177.0420  137.1640 C   0  0  0  0  0  0  0  0  0  0  0  0
  188.9540  173.8280  137.0310 O   0  0  0  0  0  0  0  0  0  0  0  0
  193.9270  177.4680  138.9700 O   0  0  0  0  0  0  0  0  0  0  0  0
  187.8310  178.1170  134.5940 C   0  0  0  0  0  3  0  0  0  0  0  0
  193.3100  175.4110  138.0130 N   0  0  0  0  0  0  0  0  0  0  0  0
  188.2440  176.5480  138.5670 C   0  0  0  0  0  2  0  0  0  0  0  0
  188.5430  174.0450  134.6180 O   0  0  0  0  0  0  0  0  0  0  0  0
  189.5950  173.8380  135.6710 S   0  0  0  0  0  0  0  0  0  0  0  0
  191.7890  172.2670  135.3420 C   0  0  0  0  0  0  0  0  0  0  0  0
  190.8060  175.0940  135.5300 N   0  0  2  0  0  0  0  0  0  0  0  0
  189.2600  177.1300  141.6840 C   0  0  0  0  0  1  0  0  0  0  0  0
  190.9690  175.7900  137.8490 C   0  0  1  0  0  3  0  0  0  0  0  0
  192.5290  173.3050  135.5900 N   0  0  0  0  0  0  0  0  0  0  0  0
  190.3690  172.3280  135.4110 N   0  0  0  0  0  2  0  0  0  0  0  0
  189.6400  176.7810  140.2600 C   0  0  2  0  0  3  0  0  0  0  0  0
  189.1860  176.8970  136.2100 C   0  0  0  0  0  0  0  0  0  0  0  0
  193.0320  176.6850  138.5550 C   0  0  0  0  0  0  0  0  0  0  0  0
  192.4370  170.9970  134.9270 C   0  0  0  0  0  1  0  0  0  0  0  0
  191.1280  177.0620  140.0480 C   0  0  0  0  0  2  0  0  0  0  0  0
  189.0070  177.4480  134.9320 C   0  0  0  0  0  3  0  0  0  0  0  0
  186.9730  177.7220  136.8140 C   0  0  0  0  0  3  0  0  0  0  0  0
  186.8130  178.2530  135.5350 C   0  0  0  0  0  3  0  0  0  0  0  0
  188.8550  177.5170  139.3690 O   0  0  0  0  0  0  0  0  0  0  0  0
  192.0850  174.7680  137.5790 C   0  0  1  0  0  3  0  0  0  0  0  0
  191.5850  176.9930  138.5850 C   0  0  2  0  0  3  0  0  0  0  0  0
  192.0890  174.6250  136.0620 C   0  0  2  0  0  3  0  0  0  0  0  0
  194.6210  174.7830  137.9960 C   0  0  0  0  0  1  0  0  0  0  0  0
  190.5110  176.1950  136.4500 C   0  0  2  0  0  3  0  0  0  0  0  0
  1  6  1  0  0  0  0
  4 20  2  0  0  0  0
  4 22  1  0  0  0  0
  5 17  1  0  0  0  0
  6 23  1  0  0  0  0
  7  8  2  0  0  0  0
  8  2  2  0  0  0  0
  9 14  1  0  0  0  0
  9 13  2  0  0  0  0
 10  8  1  1  0  0  0
 10 26  1  0  0  0  0
 10 28  1  0  0  0  0
 12 25  1  0  0  0  0
 13 26  1  0  0  0  0
 14  8  1  0  0  0  0
 15 11  1  0  0  0  0
 16 28  1  0  0  0  0
 16  1  2  0  0  0  0
 17 25  1  0  0  0  0
 17  3  2  0  0  0  0
 18  9  1  0  0  0  0
 19 15  1  0  0  0  0
 20 16  1  0  0  0  0
 21  1  1  0  0  0  0
 22 21  2  0  0  0  0
 23 15  1  0  0  0  0
 24 12  1  0  0  0  0
 24  5  1  0  0  0  0
 25 19  1  0  0  0  0
 26 24  1  0  0  0  0
 27  5  1  0  0  0  0
 28 12  1  0  0  0  0
M  END
>  <MODEL>
4

>  <REMARK>
 VINA RESULT:      -5.3      7.027      9.007
  Name = 
  0 active torsions:
  status: ('A' for Active; 'I' for Inactive)
                            x       y       z     vdW  Elec       q    Type
                         _______ _______ _______ _____ _____    ______ ____

>  <TORSDO>
F 0

$$$$
=
 OpenBabel11122411543D

 28 32  0  0  1  0  0  0  0  0999 V2000
  180.4350  176.8660  136.8230 C   0  0  0  0  0  0  0  0  0  0  0  0
  183.5570  175.9080  137.4050 O   0  0  0  0  0  0  0  0  0  0  0  0
  181.1020  179.2140  142.3830 O   0  0  0  0  0  0  0  0  0  0  0  0
  180.3410  178.9010  134.8960 C   0  0  0  0  0  3  0  0  0  0  0  0
  183.0850  178.5230  141.3260 N   0  0  0  0  0  0  0  0  0  0  0  0
  180.3840  175.7570  137.8180 C   0  0  0  0  0  2  0  0  0  0  0  0
  184.1320  177.3770  135.5220 O   0  0  0  0  0  0  0  0  0  0  0  0
  184.2380  177.1880  137.0080 S   0  0  0  0  0  0  0  0  0  0  0  0
  186.3920  177.9360  138.4880 C   0  0  0  0  0  0  0  0  0  0  0  0
  183.5400  178.5750  137.8160 N   0  0  2  0  0  0  0  0  0  0  0  0
  179.0240  174.5470  140.6060 C   0  0  0  0  0  1  0  0  0  0  0  0
  182.1210  177.4550  139.4350 C   0  0  1  0  0  3  0  0  0  0  0  0
  185.6030  178.6900  139.1940 N   0  0  0  0  0  0  0  0  0  0  0  0
  185.8930  177.0980  137.4520 N   0  0  0  0  0  2  0  0  0  0  0  0
  179.9670  175.5500  139.9750 C   0  0  2  0  0  3  0  0  0  0  0  0
  181.2220  178.0350  136.9960 C   0  0  0  0  0  0  0  0  0  0  0  0
  181.6810  178.6020  141.4460 C   0  0  0  0  0  0  0  0  0  0  0  0
  187.8550  177.9890  138.7320 C   0  0  0  0  0  1  0  0  0  0  0  0
  180.2370  176.6850  140.9630 C   0  0  0  0  0  2  0  0  0  0  0  0
  181.1540  179.0410  136.0200 C   0  0  0  0  0  3  0  0  0  0  0  0
  179.6180  176.7400  135.6930 C   0  0  0  0  0  3  0  0  0  0  0  0
  179.5740  177.7490  134.7310 C   0  0  0  0  0  3  0  0  0  0  0  0
  179.4150  176.0350  138.7870 O   0  0  0  0  0  0  0  0  0  0  0  0
  183.4510  177.7990  140.1250 C   0  0  1  0  0  3  0  0  0  0  0  0
  180.9720  177.8900  140.3610 C   0  0  2  0  0  3  0  0  0  0  0  0
  184.1360  178.7440  139.1440 C   0  0  2  0  0  3  0  0  0  0  0  0
  184.0330  178.9980  142.3220 C   0  0  0  0  0  1  0  0  0  0  0  0
  182.1440  178.3120  138.1710 C   0  0  2  0  0  3  0  0  0  0  0  0
  1 16  1  0  0  0  0
  1  6  1  0  0  0  0
  4 20  1  0  0  0  0
  5 17  1  0  0  0  0
  5 27  1  0  0  0  0
  6 23  1  0  0  0  0
  7  8  2  0  0  0  0
  8  2  2  0  0  0  0
  8 14  1  0  0  0  0
  9 18  1  0  0  0  0
  9 13  2  0  0  0  0
 10  8  1  1  0  0  0
 10 28  1  0  0  0  0
 10 26  1  0  0  0  0
 12 24  1  0  0  0  0
 12 25  1  0  0  0  0
 14  9  1  0  0  0  0
 15 11  1  0  0  0  0
 15 19  1  0  0  0  0
 16 28  1  0  0  0  0
 17  3  2  0  0  0  0
 20 16  2  0  0  0  0
 21  1  2  0  0  0  0
 22  4  2  0  0  0  0
 22 21  1  0  0  0  0
 23 15  1  0  0  0  0
 24  5  1  0  0  0  0
 25 19  1  0  0  0  0
 25 17  1  0  0  0  0
 26 13  1  0  0  0  0
 26 24  1  0  0  0  0
 28 12  1  0  0  0  0
M  END
>  <MODEL>
5

>  <REMARK>
 VINA RESULT:      -5.1      2.609      5.182
  Name = 
  0 active torsions:
  status: ('A' for Active; 'I' for Inactive)
                            x       y       z     vdW  Elec       q    Type
                         _______ _______ _______ _____ _____    ______ ____

>  <TORSDO>
F 0

$$$$
=
 OpenBabel11122411543D

 28 32  0  0  1  0  0  0  0  0999 V2000
  182.2380  177.8640  137.7110 C   0  0  0  0  0  0  0  0  0  0  0  0
  183.3050  174.7310  137.9350 O   0  0  0  0  0  0  0  0  0  0  0  0
  188.2080  178.8850  137.2690 O   0  0  0  0  0  0  0  0  0  0  0  0
  180.9710  178.3320  135.2540 C   0  0  0  0  0  3  0  0  0  0  0  0
  187.5370  176.6470  137.0090 N   0  0  0  0  0  0  0  0  0  0  0  0
  182.8510  177.6960  139.0590 C   0  0  0  0  0  2  0  0  0  0  0  0
  182.0940  174.3950  135.8230 O   0  0  0  0  0  0  0  0  0  0  0  0
  183.4520  174.4630  136.4620 S   0  0  0  0  0  0  0  0  0  0  0  0
  185.5700  172.9380  135.7030 C   0  0  0  0  0  0  0  0  0  0  0  0
  184.4010  175.6990  135.6660 N   0  0  2  0  0  0  0  0  0  0  0  0
  184.7760  178.9880  141.4490 C   0  0  0  0  0  1  0  0  0  0  0  0
  185.2480  176.8970  137.6000 C   0  0  1  0  0  3  0  0  0  0  0  0
  186.2320  174.0310  135.4700 N   0  0  0  0  0  0  0  0  0  0  0  0
  184.2560  172.9620  136.2490 N   0  0  0  0  0  2  0  0  0  0  0  0
  184.6970  178.3480  140.0790 C   0  0  2  0  0  3  0  0  0  0  0  0
  182.9120  177.5490  136.5020 C   0  0  0  0  0  0  0  0  0  0  0  0
  187.3170  177.9990  137.3540 C   0  0  0  0  0  0  0  0  0  0  0  0
  186.1780  171.6320  135.3450 C   0  0  0  0  0  1  0  0  0  0  0  0
  185.9890  178.6280  139.3120 C   0  0  0  0  0  2  0  0  0  0  0  0
  182.2590  177.7970  135.2850 C   0  0  0  0  0  3  0  0  0  0  0  0
  180.9490  178.4080  137.6660 C   0  0  0  0  0  3  0  0  0  0  0  0
  180.3150  178.6360  136.4450 C   0  0  0  0  0  3  0  0  0  0  0  0
  183.5840  178.8390  139.3930 O   0  0  0  0  0  0  0  0  0  0  0  0
  186.3160  175.8800  137.1630 C   0  0  1  0  0  3  0  0  0  0  0  0
  185.9380  178.2530  137.8250 C   0  0  2  0  0  3  0  0  0  0  0  0
  185.8320  175.4060  135.7980 C   0  0  2  0  0  3  0  0  0  0  0  0
  188.8280  176.0780  136.6580 C   0  0  0  0  0  1  0  0  0  0  0  0
  184.3100  176.9650  136.3970 C   0  0  2  0  0  3  0  0  0  0  0  0
  1  6  1  0  0  0  0
  3 17  2  0  0  0  0
  4 20  2  0  0  0  0
  4 22  1  0  0  0  0
  5 24  1  0  0  0  0
  5 17  1  0  0  0  0
  6 23  1  0  0  0  0
  7  8  2  0  0  0  0
  8  2  2  0  0  0  0
  9 14  1  0  0  0  0
 10 26  1  0  0  0  0
 10 28  1  0  0  0  0
 10  8  1  1  0  0  0
 12 25  1  0  0  0  0
 13  9  2  0  0  0  0
 13 26  1  0  0  0  0
 14  8  1  0  0  0  0
 15 11  1  0  0  0  0
 16  1  2  0  0  0  0
 17 25  1  0  0  0  0
 18  9  1  0  0  0  0
 19 15  1  0  0  0  0
 20 16  1  0  0  0  0
 21  1  1  0  0  0  0
 22 21  2  0  0  0  0
 23 15  1  0  0  0  0
 24 12  1  0  0  0  0
 25 19  1  0  0  0  0
 26 24  1  0  0  0  0
 27  5  1  0  0  0  0
 28 16  1  0  0  0  0
 28 12  1  0  0  0  0
M  END
>  <MODEL>
6

>  <REMARK>
 VINA RESULT:      -4.9      2.953      3.809
  Name = 
  0 active torsions:
  status: ('A' for Active; 'I' for Inactive)
                            x       y       z     vdW  Elec       q    Type
                         _______ _______ _______ _____ _____    ______ ____

>  <TORSDO>
F 0

$$$$
=
 OpenBabel11122411543D

 28 32  0  0  1  0  0  0  0  0999 V2000
  191.6200  174.1810  135.6430 C   0  0  0  0  0  0  0  0  0  0  0  0
  190.7190  174.8820  138.7570 O   0  0  0  0  0  0  0  0  0  0  0  0
  185.8520  175.7710  134.6020 O   0  0  0  0  0  0  0  0  0  0  0  0
  193.3770  176.1200  134.6340 C   0  0  0  0  0  3  0  0  0  0  0  0
  186.6960  176.3380  136.7220 N   0  0  0  0  0  0  0  0  0  0  0  0
  190.7300  173.0800  136.1100 C   0  0  0  0  0  2  0  0  0  0  0  0
  192.3910  176.6760  138.6100 O   0  0  0  0  0  0  0  0  0  0  0  0
  190.9220  176.3700  138.6960 S   0  0  0  0  0  0  0  0  0  0  0  0
  189.1240  177.9070  140.0350 C   0  0  0  0  0  0  0  0  0  0  0  0
  190.1040  177.0840  137.3230 N   0  0  2  0  0  0  0  0  0  0  0  0
  188.2440  170.9840  135.3930 C   0  0  0  0  0  1  0  0  0  0  0  0
  188.7750  175.1910  136.5890 C   0  0  1  0  0  3  0  0  0  0  0  0
  188.4680  178.0500  138.9230 N   0  0  0  0  0  0  0  0  0  0  0  0
  190.2780  177.0790  140.1200 N   0  0  0  0  0  2  0  0  0  0  0  0
  188.6680  172.4020  135.7150 C   0  0  2  0  0  3  0  0  0  0  0  0
  191.2550  175.5520  135.6900 C   0  0  0  0  0  0  0  0  0  0  0  0
  186.7520  175.6720  135.4780 C   0  0  0  0  0  0  0  0  0  0  0  0
  188.6900  178.6660  141.2350 C   0  0  0  0  0  1  0  0  0  0  0  0
  187.5670  173.3710  135.2840 C   0  0  0  0  0  2  0  0  0  0  0  0
  192.1490  176.5030  135.1750 C   0  0  0  0  0  3  0  0  0  0  0  0
  192.8510  173.8090  135.0920 C   0  0  0  0  0  3  0  0  0  0  0  0
  193.7290  174.7720  134.5940 C   0  0  0  0  0  3  0  0  0  0  0  0
  189.8740  172.6910  135.0740 O   0  0  0  0  0  0  0  0  0  0  0  0
  187.8950  176.0700  137.4930 C   0  0  1  0  0  3  0  0  0  0  0  0
  187.9720  174.8500  135.3210 C   0  0  2  0  0  3  0  0  0  0  0  0
  188.7010  177.3540  137.6510 C   0  0  2  0  0  3  0  0  0  0  0  0
  185.5530  177.0910  137.2110 C   0  0  0  0  0  1  0  0  0  0  0  0
  189.9540  176.1010  136.2490 C   0  0  2  0  0  3  0  0  0  0  0  0
  1 16  1  0  0  0  0
  1  6  1  0  0  0  0
  3 17  2  0  0  0  0
  4 20  1  0  0  0  0
  5 27  1  0  0  0  0
  5 24  1  0  0  0  0
  7  8  2  0  0  0  0
  8  2  2  0  0  0  0
  8 14  1  0  0  0  0
  9 14  1  0  0  0  0
  9 18  1  0  0  0  0
 10 26  1  0  0  0  0
 10  8  1  1  0  0  0
 11 15  1  0  0  0  0
 12 24  1  0  0  0  0
 13  9  2  0  0  0  0
 16 28  1  0  0  0  0
 17  5  1  0  0  0  0
 19 25  1  0  0  0  0
 19 15  1  0  0  0  0
 20 16  2  0  0  0  0
 21  1  2  0  0  0  0
 22  4  2  0  0  0  0
 22 21  1  0  0  0  0
 23 15  1  0  0  0  0
 23  6  1  0  0  0  0
 24 26  1  0  0  0  0
 25 17  1  0  0  0  0
 25 12  1  0  0  0  0
 26 13  1  0  0  0  0
 28 12  1  0  0  0  0
 28 10  1  0  0  0  0
M  END
>  <MODEL>
7

>  <REMARK>
 VINA RESULT:      -4.9      5.796     10.216
  Name = 
  0 active torsions:
  status: ('A' for Active; 'I' for Inactive)
                            x       y       z     vdW  Elec       q    Type
                         _______ _______ _______ _____ _____    ______ ____

>  <TORSDO>
F 0

$$$$
=
 OpenBabel11122411543D

 28 32  0  0  1  0  0  0  0  0999 V2000
  183.3040  178.6250  138.3820 C   0  0  0  0  0  0  0  0  0  0  0  0
  183.1690  175.3310  138.7540 O   0  0  0  0  0  0  0  0  0  0  0  0
  188.0030  177.1010  134.8510 O   0  0  0  0  0  0  0  0  0  0  0  0
  181.1630  179.5580  136.8290 C   0  0  0  0  0  3  0  0  0  0  0  0
  186.5790  175.3350  135.4660 N   0  0  0  0  0  0  0  0  0  0  0  0
  184.4450  178.2270  139.2530 C   0  0  0  0  0  2  0  0  0  0  0  0
  180.9830  175.5110  137.6470 O   0  0  0  0  0  0  0  0  0  0  0  0
  182.3950  175.0180  137.5040 S   0  0  0  0  0  0  0  0  0  0  0  0
  183.0900  172.7540  136.1700 C   0  0  0  0  0  0  0  0  0  0  0  0
  183.1190  175.7510  136.0880 N   0  0  2  0  0  0  0  0  0  0  0  0
  187.6580  178.6270  140.0290 C   0  0  0  0  0  1  0  0  0  0  0  0
  185.2250  176.5050  137.0300 C   0  0  1  0  0  3  0  0  0  0  0  0
  183.8470  173.4780  135.4030 N   0  0  0  0  0  0  0  0  0  0  0  0
  182.3830  173.3180  137.2680 N   0  0  0  0  0  2  0  0  0  0  0  0
  186.6370  178.0680  139.0590 C   0  0  2  0  0  3  0  0  0  0  0  0
  183.0600  178.0540  137.1040 C   0  0  0  0  0  0  0  0  0  0  0  0
  187.0600  176.6590  135.5590 C   0  0  0  0  0  0  0  0  0  0  0  0
  182.9160  171.3110  135.8650 C   0  0  0  0  0  1  0  0  0  0  0  0
  187.3120  177.7890  137.7170 C   0  0  0  0  0  2  0  0  0  0  0  0
  181.9860  178.5410  136.3450 C   0  0  0  0  0  3  0  0  0  0  0  0
  182.4750  179.6490  138.8530 C   0  0  0  0  0  3  0  0  0  0  0  0
  181.4070  180.1120  138.0850 C   0  0  0  0  0  3  0  0  0  0  0  0
  185.5810  178.9700  138.9160 O   0  0  0  0  0  0  0  0  0  0  0  0
  185.4610  175.1380  136.3680 C   0  0  1  0  0  3  0  0  0  0  0  0
  186.3420  177.4600  136.5750 C   0  0  2  0  0  3  0  0  0  0  0  0
  184.1890  174.8970  135.5640 C   0  0  2  0  0  3  0  0  0  0  0  0
  187.1870  174.2840  134.6670 C   0  0  0  0  0  1  0  0  0  0  0  0
  183.8770  176.9470  136.4630 C   0  0  2  0  0  3  0  0  0  0  0  0
  1 21  1  0  0  0  0
  1  6  1  0  0  0  0
  3 17  2  0  0  0  0
  4 22  1  0  0  0  0
  5 17  1  0  0  0  0
  5 24  1  0  0  0  0
  8  7  2  0  0  0  0
  8  2  2  0  0  0  0
  9 14  1  0  0  0  0
 10 28  1  0  0  0  0
 10  8  1  1  0  0  0
 13 26  1  0  0  0  0
 13  9  2  0  0  0  0
 14  8  1  0  0  0  0
 15 11  1  0  0  0  0
 16  1  2  0  0  0  0
 17 25  1  0  0  0  0
 18  9  1  0  0  0  0
 19 15  1  0  0  0  0
 20  4  2  0  0  0  0
 20 16  1  0  0  0  0
 22 21  2  0  0  0  0
 23 15  1  0  0  0  0
 23  6  1  0  0  0  0
 24 12  1  0  0  0  0
 25 12  1  0  0  0  0
 25 19  1  0  0  0  0
 26 10  1  0  0  0  0
 26 24  1  0  0  0  0
 27  5  1  0  0  0  0
 28 12  1  0  0  0  0
 28 16  1  0  0  0  0
M  END
>  <MODEL>
8

>  <REMARK>
 VINA RESULT:      -4.9      2.502      3.447
  Name = 
  0 active torsions:
  status: ('A' for Active; 'I' for Inactive)
                            x       y       z     vdW  Elec       q    Type
                         _______ _______ _______ _____ _____    ______ ____

>  <TORSDO>
F 0

$$$$
=
 OpenBabel11122411543D

 28 32  0  0  1  0  0  0  0  0999 V2000
  189.0270  177.5610  137.8860 C   0  0  0  0  0  0  0  0  0  0  0  0
  191.3490  176.7390  135.6640 O   0  0  0  0  0  0  0  0  0  0  0  0
  186.8360  172.1490  136.2180 O   0  0  0  0  0  0  0  0  0  0  0  0
  190.0400  177.4550  140.4980 C   0  0  0  0  0  3  0  0  0  0  0  0
  189.0440  172.6020  135.5500 N   0  0  0  0  0  0  0  0  0  0  0  0
  188.4170  177.6910  136.5330 C   0  0  0  0  0  2  0  0  0  0  0  0
  192.8840  176.7520  137.5820 O   0  0  0  0  0  0  0  0  0  0  0  0
  192.1970  175.8850  136.5650 S   0  0  0  0  0  0  0  0  0  0  0  0
  193.3090  173.6660  135.4580 C   0  0  0  0  0  0  0  0  0  0  0  0
  191.2500  174.6690  137.3930 N   0  0  2  0  0  0  0  0  0  0  0  0
  185.7550  177.1950  134.5940 C   0  0  0  0  0  1  0  0  0  0  0  0
  189.1460  174.8850  136.2020 C   0  0  1  0  0  3  0  0  0  0  0  0
  192.3060  172.9770  135.9120 N   0  0  0  0  0  0  0  0  0  0  0  0
  193.3780  175.0780  135.6170 N   0  0  0  0  0  2  0  0  0  0  0  0
  186.9350  176.5880  135.3240 C   0  0  2  0  0  3  0  0  0  0  0  0
  189.6660  176.3790  138.3450 C   0  0  0  0  0  0  0  0  0  0  0  0
  187.7850  172.9650  136.0770 C   0  0  0  0  0  0  0  0  0  0  0  0
  194.4360  172.9580  134.8000 C   0  0  0  0  0  1  0  0  0  0  0  0
  186.7090  175.0860  135.4960 C   0  0  0  0  0  2  0  0  0  0  0  0
  190.1600  176.3480  139.6570 C   0  0  0  0  0  3  0  0  0  0  0  0
  188.9070  178.6620  138.7420 C   0  0  0  0  0  3  0  0  0  0  0  0
  189.4140  178.6130  140.0400 C   0  0  0  0  0  3  0  0  0  0  0  0
  187.1000  177.2190  136.5590 O   0  0  0  0  0  0  0  0  0  0  0  0
  189.9430  173.7390  135.5570 C   0  0  1  0  0  3  0  0  0  0  0  0
  187.7060  174.3970  136.4370 C   0  0  2  0  0  3  0  0  0  0  0  0
  191.0800  173.4880  136.5400 C   0  0  2  0  0  3  0  0  0  0  0  0
  189.3610  171.3050  134.9750 C   0  0  0  0  0  1  0  0  0  0  0  0
  189.8600  175.1100  137.5330 C   0  0  2  0  0  3  0  0  0  0  0  0
  1 16  2  0  0  0  0
  1 21  1  0  0  0  0
  2  8  2  0  0  0  0
  5 24  1  0  0  0  0
  5 17  1  0  0  0  0
  6 23  1  0  0  0  0
  6  1  1  0  0  0  0
  8  7  2  0  0  0  0
  9 14  1  0  0  0  0
  9 13  2  0  0  0  0
 10  8  1  6  0  0  0
 10 28  1  0  0  0  0
 11 15  1  0  0  0  0
 12 25  1  0  0  0  0
 12 28  1  0  0  0  0
 13 26  1  0  0  0  0
 14  8  1  0  0  0  0
 15 19  1  0  0  0  0
 15 23  1  0  0  0  0
 16 20  1  0  0  0  0
 17  3  2  0  0  0  0
 17 25  1  0  0  0  0
 18  9  1  0  0  0  0
 19 25  1  0  0  0  0
 20  4  2  0  0  0  0
 21 22  2  0  0  0  0
 22  4  1  0  0  0  0
 24 12  1  0  0  0  0
 24 26  1  0  0  0  0
 26 10  1  0  0  0  0
 27  5  1  0  0  0  0
 28 16  1  0  0  0  0
M  END
>  <MODEL>
9

>  <REMARK>
 VINA RESULT:      -4.8      7.056      9.599
  Name = 
  0 active torsions:
  status: ('A' for Active; 'I' for Inactive)
                            x       y       z     vdW  Elec       q    Type
                         _______ _______ _______ _____ _____    ______ ____

>  <TORSDO>
F 0

$$$$
