=
 OpenBabel11122410333D

 30 35  0  0  1  0  0  0  0  0999 V2000
  189.3150  176.6510  143.4510 C   0  0  0  0  0  0  0  0  0  0  0  0
  191.2940  176.2450  144.8320 C   0  0  0  0  0  0  0  0  0  0  0  0
  187.1420  177.9860  146.8210 N   0  0  0  0  0  0  0  0  0  0  0  0
  187.8810  177.1130  143.2390 C   0  0  0  0  0  0  0  0  0  0  0  0
  189.9620  176.1170  142.2080 C   0  0  0  0  0  2  0  0  0  0  0  0
  188.3890  178.4720  139.8750 O   0  0  0  0  0  0  0  0  0  0  0  0
  185.2240  177.9510  142.3930 C   0  0  1  0  0  3  0  0  0  0  0  0
  188.6440  177.9040  140.9730 C   0  0  0  0  0  0  0  0  0  0  0  0
  185.0310  178.2090  143.8110 N   0  0  0  0  0  0  0  0  0  0  0  0
  186.0090  178.2550  146.2430 C   0  0  1  0  0  3  0  0  0  0  0  0
  189.7790  177.0210  141.0710 N   0  0  0  0  0  0  0  0  0  0  0  0
  187.8370  178.2500  142.2040 C   0  0  1  0  0  3  0  0  0  0  0  0
  191.9090  176.2720  146.0860 C   0  0  0  0  0  3  0  0  0  0  0  0
  183.6880  178.6430  144.1310 C   0  0  0  0  0  2  0  0  0  0  0  0
  183.9280  178.3770  141.7170 C   0  0  0  0  0  2  0  0  0  0  0  0
  192.0460  175.8130  143.7890 F   0  0  0  0  0  0  0  0  0  0  0  0
  187.9830  177.5180  145.7670 C   0  0  0  0  0  0  0  0  0  0  0  0
  191.2170  176.7110  147.2100 C   0  0  0  0  0  3  0  0  0  0  0  0
  189.9450  176.6680  144.6760 C   0  0  0  0  0  0  0  0  0  0  0  0
  187.2680  177.5330  144.5320 C   0  0  0  0  0  0  0  0  0  0  0  0
  184.8400  178.7870  146.9960 C   0  0  0  0  0  1  0  0  0  0  0  0
  186.0530  177.9770  144.7940 C   0  0  0  0  0  0  0  0  0  0  0  0
  182.9060  178.5610  142.8320 C   0  0  0  0  0  2  0  0  0  0  0  0
  186.2750  179.7590  141.2700 O   0  0  0  0  0  0  0  0  0  0  0  0
  189.8970  177.1300  147.0930 C   0  0  0  0  0  3  0  0  0  0  0  0
  189.2530  177.1170  145.8500 C   0  0  0  0  0  0  0  0  0  0  0  0
  186.4270  178.7080  141.8740 C   0  0  0  0  0  0  0  0  0  0  0  0
  190.6960  176.8900  139.9460 C   0  0  0  0  0  2  0  0  0  0  0  0
  193.1010  176.9870  139.2890 C   0  0  0  0  0  1  0  0  0  0  0  0
  192.0720  177.4250  140.3130 C   0  0  0  0  0  2  0  0  0  0  0  0
  1 19  1  0  0  0  0
  2 13  1  0  0  0  0
  4  1  2  0  0  0  0
  4 20  1  0  0  0  0
  5  1  1  0  0  0  0
  6  8  2  0  0  0  0
  7 15  1  6  0  0  0
  7  9  1  0  0  0  0
  8 11  1  0  0  0  0
  9 14  1  0  0  0  0
  9 22  1  0  0  0  0
 10  3  1  0  0  0  0
 10 21  1  6  0  0  0
 11  5  1  0  0  0  0
 12  8  1  6  0  0  0
 12  4  1  0  0  0  0
 13 18  2  0  0  0  0
 15 23  1  0  0  0  0
 16  2  1  0  0  0  0
 17 26  1  0  0  0  0
 17  3  2  0  0  0  0
 19  2  2  0  0  0  0
 19 26  1  0  0  0  0
 20 22  2  0  0  0  0
 20 17  1  0  0  0  0
 22 10  1  0  0  0  0
 23 14  1  0  0  0  0
 24 27  2  0  0  0  0
 25 18  1  0  0  0  0
 26 25  2  0  0  0  0
 27 12  1  0  0  0  0
 27  7  1  0  0  0  0
 28 30  1  0  0  0  0
 28 11  1  0  0  0  0
 29 30  1  0  0  0  0
M  END
>  <MODEL>
1

>  <REMARK>
 VINA RESULT:     -11.7      0.000      0.000
  Name = 
  2 active torsions:
  status: ('A' for Active; 'I' for Inactive)
    1  A    between atoms: N_11  and  C_28
    2  A    between atoms: C_28  and  C_30
                            x       y       z     vdW  Elec       q    Type
                         _______ _______ _______ _____ _____    ______ ____

>  <TORSDO>
F 2

$$$$
=
 OpenBabel11122410333D

 30 35  0  0  1  0  0  0  0  0999 V2000
  186.9870  177.5470  143.6090 C   0  0  0  0  0  0  0  0  0  0  0  0
  188.1180  177.6520  145.7780 C   0  0  0  0  0  0  0  0  0  0  0  0
  183.4040  178.9960  145.3200 N   0  0  0  0  0  0  0  0  0  0  0  0
  185.7880  177.7470  142.6940 C   0  0  0  0  0  0  0  0  0  0  0  0
  188.1760  176.9480  142.9180 C   0  0  0  0  0  2  0  0  0  0  0  0
  187.7080  178.6760  139.7140 O   0  0  0  0  0  0  0  0  0  0  0  0
  183.7800  178.0360  140.6050 C   0  0  1  0  0  3  0  0  0  0  0  0
  187.4610  178.3160  140.8990 C   0  0  0  0  0  0  0  0  0  0  0  0
  182.9310  178.4600  141.7070 N   0  0  0  0  0  0  0  0  0  0  0  0
  182.6560  179.0020  144.2570 C   0  0  0  0  0  0  0  0  0  0  0  0
  188.4790  177.6420  141.6650 N   0  0  0  0  0  0  0  0  0  0  0  0
  186.1510  178.7050  141.5460 C   0  0  1  0  0  3  0  0  0  0  0  0
  188.0730  177.9520  147.1410 C   0  0  0  0  0  3  0  0  0  0  0  0
  181.5660  178.7220  141.3020 C   0  0  0  0  0  2  0  0  0  0  0  0
  182.9220  178.1550  139.3540 C   0  0  0  0  0  2  0  0  0  0  0  0
  189.2980  177.1980  145.2870 F   0  0  0  0  0  0  0  0  0  0  0  0
  184.6710  178.5180  144.8660 C   0  0  1  0  0  3  0  0  0  0  0  0
  186.9070  178.4340  147.7280 C   0  0  0  0  0  3  0  0  0  0  0  0
  186.9710  177.8350  144.9560 C   0  0  0  0  0  0  0  0  0  0  0  0
  184.6150  178.2470  143.4670 C   0  0  0  0  0  0  0  0  0  0  0  0
  181.2360  179.4480  144.2890 C   0  0  0  0  0  1  0  0  0  0  0  0
  183.3900  178.5310  143.0670 C   0  0  0  0  0  0  0  0  0  0  0  0
  181.4880  178.3360  139.8360 C   0  0  0  0  0  2  0  0  0  0  0  0
  185.1010  179.8060  139.7360 O   0  0  0  0  0  0  0  0  0  0  0  0
  185.7680  178.6230  146.9540 C   0  0  0  0  0  3  0  0  0  0  0  0
  185.7810  178.3340  145.5840 C   0  0  0  0  0  0  0  0  0  0  0  0
  185.0290  178.8880  140.5400 C   0  0  0  0  0  0  0  0  0  0  0  0
  189.8220  177.4960  141.1170 C   0  0  0  0  0  2  0  0  0  0  0  0
  191.6420  177.7250  142.8080 C   0  0  0  0  0  1  0  0  0  0  0  0
  190.7200  176.7540  142.0950 C   0  0  0  0  0  2  0  0  0  0  0  0
  1 19  1  0  0  0  0
  2 13  1  0  0  0  0
  4 20  1  0  0  0  0
  4  1  2  0  0  0  0
  5  1  1  0  0  0  0
  6  8  2  0  0  0  0
  7 15  1  6  0  0  0
  7  9  1  0  0  0  0
  8 12  1  0  0  0  0
  8 11  1  0  0  0  0
  9 22  1  0  0  0  0
 10 21  1  0  0  0  0
 10  3  2  0  0  0  0
 11  5  1  0  0  0  0
 12 27  1  6  0  0  0
 12  4  1  0  0  0  0
 13 18  2  0  0  0  0
 14  9  1  0  0  0  0
 15 23  1  0  0  0  0
 16  2  1  0  0  0  0
 17 20  1  6  0  0  0
 17  3  1  0  0  0  0
 17 26  1  0  0  0  0
 19 26  1  0  0  0  0
 19  2  2  0  0  0  0
 22 20  2  0  0  0  0
 22 10  1  0  0  0  0
 23 14  1  0  0  0  0
 24 27  2  0  0  0  0
 25 18  1  0  0  0  0
 26 25  2  0  0  0  0
 27  7  1  0  0  0  0
 28 11  1  0  0  0  0
 28 30  1  0  0  0  0
 30 29  1  0  0  0  0
M  END
>  <MODEL>
2

>  <REMARK>
 VINA RESULT:     -11.2      1.975      3.123
  Name = 
  2 active torsions:
  status: ('A' for Active; 'I' for Inactive)
    1  A    between atoms: N_11  and  C_28
    2  A    between atoms: C_28  and  C_30
                            x       y       z     vdW  Elec       q    Type
                         _______ _______ _______ _____ _____    ______ ____

>  <TORSDO>
F 2

$$$$
=
 OpenBabel11122410333D

 30 35  0  0  1  0  0  0  0  0999 V2000
  187.2590  178.3420  142.1490 C   0  0  0  0  0  0  0  0  0  0  0  0
  184.9580  178.8540  141.4860 C   0  0  0  0  0  0  0  0  0  0  0  0
  186.0520  177.7470  146.1560 N   0  0  0  0  0  0  0  0  0  0  0  0
  188.3200  177.9430  143.1630 C   0  0  2  0  0  3  0  0  0  0  0  0
  187.8080  178.6130  140.7800 C   0  0  0  0  0  2  0  0  0  0  0  0
  190.3800  175.9960  140.8410 O   0  0  0  0  0  0  0  0  0  0  0  0
  190.6280  177.1420  144.7470 C   0  0  1  0  0  3  0  0  0  0  0  0
  189.4420  176.7270  141.2630 C   0  0  0  0  0  0  0  0  0  0  0  0
  189.6720  177.1440  145.8430 N   0  0  0  0  0  0  0  0  0  0  0  0
  187.2070  177.4550  146.6780 C   0  0  0  0  0  0  0  0  0  0  0  0
  188.6990  177.5400  140.3340 N   0  0  0  0  0  0  0  0  0  0  0  0
  189.0220  176.6500  142.7140 C   0  0  1  0  0  3  0  0  0  0  0  0
  183.6140  179.0040  141.8330 C   0  0  0  0  0  3  0  0  0  0  0  0
  190.2800  176.8580  147.1250 C   0  0  0  0  0  2  0  0  0  0  0  0
  191.9490  176.6900  145.3540 C   0  0  0  0  0  2  0  0  0  0  0  0
  185.2820  179.0510  140.1830 F   0  0  0  0  0  0  0  0  0  0  0  0
  186.3280  177.9730  144.7730 C   0  0  0  0  0  0  0  0  0  0  0  0
  183.1910  178.8100  143.1440 C   0  0  0  0  0  3  0  0  0  0  0  0
  185.9270  178.4970  142.4650 C   0  0  0  0  0  0  0  0  0  0  0  0
  187.7200  177.7910  144.5190 C   0  0  0  0  0  0  0  0  0  0  0  0
  187.3660  177.1370  148.1230 C   0  0  0  0  0  1  0  0  0  0  0  0
  188.2850  177.4770  145.6700 C   0  0  0  0  0  0  0  0  0  0  0  0
  191.7720  176.7650  146.8650 C   0  0  0  0  0  2  0  0  0  0  0  0
  190.6160  175.1050  143.5290 O   0  0  0  0  0  0  0  0  0  0  0  0
  184.1110  178.4610  144.1260 C   0  0  0  0  0  3  0  0  0  0  0  0
  185.4650  178.3010  143.8100 C   0  0  0  0  0  0  0  0  0  0  0  0
  190.1570  176.2330  143.6340 C   0  0  0  0  0  0  0  0  0  0  0  0
  188.9480  177.4170  138.9030 C   0  0  0  0  0  2  0  0  0  0  0  0
  188.6240  178.7820  136.8400 C   0  0  0  0  0  1  0  0  0  0  0  0
  189.1240  178.7890  138.2710 C   0  0  0  0  0  2  0  0  0  0  0  0
  1 19  2  0  0  0  0
  2 13  2  0  0  0  0
  2 19  1  0  0  0  0
  3 10  2  0  0  0  0
  4  1  1  6  0  0  0
  4 20  1  0  0  0  0
  5  1  1  0  0  0  0
  6  8  2  0  0  0  0
  7 15  1  1  0  0  0
  7  9  1  0  0  0  0
  9 14  1  0  0  0  0
 10 21  1  0  0  0  0
 11  5  1  0  0  0  0
 11  8  1  0  0  0  0
 12  8  1  6  0  0  0
 12  4  1  0  0  0  0
 12 27  1  0  0  0  0
 13 18  1  0  0  0  0
 15 23  1  0  0  0  0
 16  2  1  0  0  0  0
 17  3  1  0  0  0  0
 18 25  2  0  0  0  0
 19 26  1  0  0  0  0
 20 17  1  0  0  0  0
 20 22  2  0  0  0  0
 22  9  1  0  0  0  0
 22 10  1  0  0  0  0
 23 14  1  0  0  0  0
 24 27  2  0  0  0  0
 26 25  1  0  0  0  0
 26 17  2  0  0  0  0
 27  7  1  0  0  0  0
 28 11  1  0  0  0  0
 29 30  1  0  0  0  0
 30 28  1  0  0  0  0
M  END
>  <MODEL>
3

>  <REMARK>
 VINA RESULT:     -10.4      2.395      5.402
  Name = 
  2 active torsions:
  status: ('A' for Active; 'I' for Inactive)
    1  A    between atoms: N_11  and  C_28
    2  A    between atoms: C_28  and  C_30
                            x       y       z     vdW  Elec       q    Type
                         _______ _______ _______ _____ _____    ______ ____

>  <TORSDO>
F 2

$$$$
=
 OpenBabel11122410333D

 30 35  0  0  1  0  0  0  0  0999 V2000
  187.3520  177.5140  144.2510 C   0  0  0  0  0  0  0  0  0  0  0  0
  185.2990  178.3220  145.3120 C   0  0  0  0  0  0  0  0  0  0  0  0
  185.9830  178.7810  140.4590 N   0  0  0  0  0  0  0  0  0  0  0  0
  188.2640  177.2970  143.0530 C   0  0  0  0  0  0  0  0  0  0  0  0
  187.8970  176.9490  145.5300 C   0  0  0  0  0  2  0  0  0  0  0  0
  191.4180  177.7390  144.8650 O   0  0  0  0  0  0  0  0  0  0  0  0
  190.3200  176.7520  141.0640 C   0  0  1  0  0  3  0  0  0  0  0  0
  190.1770  177.6510  144.6540 C   0  0  0  0  0  0  0  0  0  0  0  0
  189.3410  177.3020  140.1400 N   0  0  0  0  0  0  0  0  0  0  0  0
  186.9990  178.4100  139.7380 C   0  0  0  0  0  0  0  0  0  0  0  0
  189.2880  177.3490  145.7480 N   0  0  0  0  0  0  0  0  0  0  0  0
  189.6200  177.9840  143.2880 C   0  0  1  0  0  3  0  0  0  0  0  0
  184.0520  178.9400  145.1970 C   0  0  0  0  0  3  0  0  0  0  0  0
  189.7720  177.2450  138.7590 C   0  0  0  0  0  2  0  0  0  0  0  0
  191.5450  176.4270  140.2210 C   0  0  0  0  0  2  0  0  0  0  0  0
  185.6860  177.9450  146.5560 F   0  0  0  0  0  0  0  0  0  0  0  0
  186.3290  178.4030  141.7910 C   0  0  1  0  0  3  0  0  0  0  0  0
  183.5800  179.3700  143.9610 C   0  0  0  0  0  3  0  0  0  0  0  0
  186.1180  178.1200  144.1660 C   0  0  0  0  0  0  0  0  0  0  0  0
  187.6170  177.7890  141.8040 C   0  0  0  0  0  0  0  0  0  0  0  0
  187.0510  178.6300  138.2670 C   0  0  0  0  0  1  0  0  0  0  0  0
  188.0500  177.7750  140.5570 C   0  0  0  0  0  0  0  0  0  0  0  0
  191.0950  176.5020  138.7680 C   0  0  0  0  0  2  0  0  0  0  0  0
  191.6260  178.4310  142.1180 O   0  0  0  0  0  0  0  0  0  0  0  0
  184.3550  179.1870  142.8210 C   0  0  0  0  0  3  0  0  0  0  0  0
  185.6100  178.5730  142.9020 C   0  0  0  0  0  0  0  0  0  0  0  0
  190.6190  177.7400  142.1700 C   0  0  0  0  0  0  0  0  0  0  0  0
  189.8090  177.2770  147.1070 C   0  0  0  0  0  2  0  0  0  0  0  0
  188.3050  178.2530  148.8430 C   0  0  0  0  0  1  0  0  0  0  0  0
  188.6870  176.9910  148.0940 C   0  0  0  0  0  2  0  0  0  0  0  0
  1  5  1  0  0  0  0
  2 16  1  0  0  0  0
  4 12  1  0  0  0  0
  4  1  2  0  0  0  0
  5 11  1  0  0  0  0
  7 15  1  6  0  0  0
  7 27  1  0  0  0  0
  8  6  2  0  0  0  0
  8 11  1  0  0  0  0
  9 22  1  0  0  0  0
  9  7  1  0  0  0  0
 10  3  2  0  0  0  0
 10 22  1  0  0  0  0
 11 28  1  0  0  0  0
 12 27  1  6  0  0  0
 12  8  1  0  0  0  0
 13  2  1  0  0  0  0
 14 23  1  0  0  0  0
 14  9  1  0  0  0  0
 17  3  1  1  0  0  0
 17 20  1  0  0  0  0
 17 26  1  0  0  0  0
 18 13  2  0  0  0  0
 19  1  1  0  0  0  0
 19  2  2  0  0  0  0
 20  4  1  0  0  0  0
 21 10  1  0  0  0  0
 22 20  2  0  0  0  0
 23 15  1  0  0  0  0
 24 27  2  0  0  0  0
 25 26  2  0  0  0  0
 25 18  1  0  0  0  0
 26 19  1  0  0  0  0
 28 30  1  0  0  0  0
 30 29  1  0  0  0  0
M  END
>  <MODEL>
4

>  <REMARK>
 VINA RESULT:      -9.9      2.361      6.375
  Name = 
  2 active torsions:
  status: ('A' for Active; 'I' for Inactive)
    1  A    between atoms: N_11  and  C_28
    2  A    between atoms: C_28  and  C_30
                            x       y       z     vdW  Elec       q    Type
                         _______ _______ _______ _____ _____    ______ ____

>  <TORSDO>
F 2

$$$$
=
 OpenBabel11122410333D

 30 35  0  0  1  0  0  0  0  0999 V2000
  187.9530  177.3310  144.9710 C   0  0  0  0  0  0  0  0  0  0  0  0
  186.1140  178.0000  146.4430 C   0  0  0  0  0  0  0  0  0  0  0  0
  185.8160  178.6520  141.5730 N   0  0  0  0  0  0  0  0  0  0  0  0
  188.6220  177.2000  143.6110 C   0  0  0  0  0  0  0  0  0  0  0  0
  188.7610  176.7530  146.0950 C   0  0  0  0  0  2  0  0  0  0  0  0
  192.0470  177.7420  144.7940 O   0  0  0  0  0  0  0  0  0  0  0  0
  190.2700  176.8260  141.2400 C   0  0  1  0  0  3  0  0  0  0  0  0
  190.7940  177.5980  144.8240 C   0  0  0  0  0  0  0  0  0  0  0  0
  189.1070  177.3560  140.5470 N   0  0  0  0  0  0  0  0  0  0  0  0
  186.6860  178.3570  140.6530 C   0  0  0  0  0  0  0  0  0  0  0  0
  190.1490  177.2160  146.0560 N   0  0  0  0  0  0  0  0  0  0  0  0
  189.9670  177.9470  143.6070 C   0  0  1  0  0  3  0  0  0  0  0  0
  184.8430  178.5570  146.5980 C   0  0  0  0  0  3  0  0  0  0  0  0
  189.2610  177.3670  139.1080 C   0  0  0  0  0  2  0  0  0  0  0  0
  191.3190  176.5910  140.1630 C   0  0  0  0  0  2  0  0  0  0  0  0
  186.7530  177.6010  147.5710 F   0  0  0  0  0  0  0  0  0  0  0  0
  186.4310  178.2490  142.7960 C   0  0  1  0  0  3  0  0  0  0  0  0
  184.1210  179.0030  145.4960 C   0  0  0  0  0  3  0  0  0  0  0  0
  186.7010  177.8770  145.1520 C   0  0  0  0  0  0  0  0  0  0  0  0
  187.7220  177.7010  142.5320 C   0  0  0  0  0  0  0  0  0  0  0  0
  186.4400  178.6280  139.2110 C   0  0  0  0  0  1  0  0  0  0  0  0
  187.9030  177.7500  141.2260 C   0  0  0  0  0  0  0  0  0  0  0  0
  190.5910  176.6920  138.8280 C   0  0  0  0  0  2  0  0  0  0  0  0
  191.6830  178.5340  142.0900 O   0  0  0  0  0  0  0  0  0  0  0  0
  184.6640  178.8970  144.2210 C   0  0  0  0  0  3  0  0  0  0  0  0
  185.9370  178.3450  144.0310 C   0  0  0  0  0  0  0  0  0  0  0  0
  190.7370  177.7910  142.3080 C   0  0  0  0  0  0  0  0  0  0  0  0
  190.9280  177.1250  147.2840 C   0  0  0  0  0  2  0  0  0  0  0  0
  192.8060  175.8650  148.3400 C   0  0  0  0  0  1  0  0  0  0  0  0
  191.6490  175.7870  147.3620 C   0  0  0  0  0  2  0  0  0  0  0  0
  1 19  1  0  0  0  0
  1  5  1  0  0  0  0
  2 13  1  0  0  0  0
  2 16  1  0  0  0  0
  4  1  2  0  0  0  0
  6  8  2  0  0  0  0
  7 15  1  6  0  0  0
  7 27  1  0  0  0  0
  8 11  1  0  0  0  0
  9 22  1  0  0  0  0
  9  7  1  0  0  0  0
 10 22  1  0  0  0  0
 10  3  2  0  0  0  0
 11  5  1  0  0  0  0
 11 28  1  0  0  0  0
 12 27  1  6  0  0  0
 12  4  1  0  0  0  0
 12  8  1  0  0  0  0
 14  9  1  0  0  0  0
 17  3  1  1  0  0  0
 17 26  1  0  0  0  0
 18 13  2  0  0  0  0
 19  2  2  0  0  0  0
 20 17  1  0  0  0  0
 20  4  1  0  0  0  0
 21 10  1  0  0  0  0
 22 20  2  0  0  0  0
 23 14  1  0  0  0  0
 23 15  1  0  0  0  0
 24 27  2  0  0  0  0
 25 18  1  0  0  0  0
 26 25  2  0  0  0  0
 26 19  1  0  0  0  0
 28 30  1  0  0  0  0
 30 29  1  0  0  0  0
M  END
>  <MODEL>
5

>  <REMARK>
 VINA RESULT:      -9.9      2.259      5.833
  Name = 
  2 active torsions:
  status: ('A' for Active; 'I' for Inactive)
    1  A    between atoms: N_11  and  C_28
    2  A    between atoms: C_28  and  C_30
                            x       y       z     vdW  Elec       q    Type
                         _______ _______ _______ _____ _____    ______ ____

>  <TORSDO>
F 2

$$$$
=
 OpenBabel11122410333D

 30 35  0  0  1  0  0  0  0  0999 V2000
  187.5260  177.3710  143.2410 C   0  0  0  0  0  0  0  0  0  0  0  0
  186.7180  177.7960  145.5120 C   0  0  0  0  0  0  0  0  0  0  0  0
  184.1740  179.3500  141.5950 N   0  0  0  0  0  0  0  0  0  0  0  0
  187.4340  177.4800  141.7260 C   0  0  0  0  0  0  0  0  0  0  0  0
  188.7070  176.5760  143.7140 C   0  0  0  0  0  2  0  0  0  0  0  0
  191.0400  177.7130  141.1190 O   0  0  0  0  0  0  0  0  0  0  0  0
  187.6740  177.5160  138.8240 C   0  0  1  0  0  3  0  0  0  0  0  0
  189.9500  177.5950  141.7450 C   0  0  0  0  0  0  0  0  0  0  0  0
  186.3880  178.1920  138.8890 N   0  0  0  0  0  0  0  0  0  0  0  0
  184.4510  179.2110  140.3320 C   0  0  0  0  0  0  0  0  0  0  0  0
  189.9440  177.0050  143.0600 N   0  0  0  0  0  0  0  0  0  0  0  0
  188.6820  178.1830  141.1680 C   0  0  1  0  0  3  0  0  0  0  0  0
  185.7520  178.3430  146.3600 C   0  0  0  0  0  3  0  0  0  0  0  0
  185.8270  178.4670  137.5840 C   0  0  0  0  0  2  0  0  0  0  0  0
  188.0370  177.4610  137.3480 C   0  0  0  0  0  2  0  0  0  0  0  0
  187.7740  177.1800  146.1000 F   0  0  0  0  0  0  0  0  0  0  0  0
  185.2550  178.7110  142.2740 C   0  0  1  0  0  3  0  0  0  0  0  0
  184.6420  179.0030  145.8430 C   0  0  0  0  0  3  0  0  0  0  0  0
  186.5890  177.9020  144.0990 C   0  0  0  0  0  0  0  0  0  0  0  0
  186.1860  178.1930  141.3260 C   0  0  0  0  0  0  0  0  0  0  0  0
  183.5700  179.7510  139.2620 C   0  0  0  0  0  1  0  0  0  0  0  0
  185.7170  178.4800  140.1260 C   0  0  0  0  0  0  0  0  0  0  0  0
  186.7700  177.8250  136.5830 C   0  0  0  0  0  2  0  0  0  0  0  0
  189.5030  179.0020  139.1070 O   0  0  0  0  0  0  0  0  0  0  0  0
  184.4840  179.1240  144.4670 C   0  0  0  0  0  3  0  0  0  0  0  0
  185.4350  178.5880  143.5910 C   0  0  0  0  0  0  0  0  0  0  0  0
  188.7040  178.2540  139.6510 C   0  0  0  0  0  0  0  0  0  0  0  0
  191.2050  176.6700  143.7100 C   0  0  0  0  0  2  0  0  0  0  0  0
  191.6800  176.3780  146.1420 C   0  0  0  0  0  1  0  0  0  0  0  0
  191.3160  177.3710  145.0550 C   0  0  0  0  0  2  0  0  0  0  0  0
  1  5  1  0  0  0  0
  1 19  1  0  0  0  0
  2 16  1  0  0  0  0
  2 13  1  0  0  0  0
  3 17  1  0  0  0  0
  4  1  2  0  0  0  0
  6  8  2  0  0  0  0
  7 15  1  6  0  0  0
  7  9  1  0  0  0  0
  7 27  1  0  0  0  0
  8 11  1  0  0  0  0
  9 22  1  0  0  0  0
 10  3  2  0  0  0  0
 11 28  1  0  0  0  0
 11  5  1  0  0  0  0
 12 27  1  6  0  0  0
 12  4  1  0  0  0  0
 12  8  1  0  0  0  0
 14  9  1  0  0  0  0
 17 20  1  1  0  0  0
 17 26  1  0  0  0  0
 18 13  2  0  0  0  0
 19  2  2  0  0  0  0
 20  4  1  0  0  0  0
 21 10  1  0  0  0  0
 22 10  1  0  0  0  0
 22 20  2  0  0  0  0
 23 15  1  0  0  0  0
 23 14  1  0  0  0  0
 24 27  2  0  0  0  0
 25 18  1  0  0  0  0
 26 19  1  0  0  0  0
 26 25  2  0  0  0  0
 28 30  1  0  0  0  0
 30 29  1  0  0  0  0
M  END
>  <MODEL>
6

>  <REMARK>
 VINA RESULT:      -9.6      2.288      4.950
  Name = 
  2 active torsions:
  status: ('A' for Active; 'I' for Inactive)
    1  A    between atoms: N_11  and  C_28
    2  A    between atoms: C_28  and  C_30
                            x       y       z     vdW  Elec       q    Type
                         _______ _______ _______ _____ _____    ______ ____

>  <TORSDO>
F 2

$$$$
=
 OpenBabel11122410333D

 30 35  0  0  1  0  0  0  0  0999 V2000
  186.8710  178.4780  140.9360 C   0  0  0  0  0  0  0  0  0  0  0  0
  184.9550  178.7400  139.4340 C   0  0  0  0  0  0  0  0  0  0  0  0
  184.3140  178.3460  144.2980 N   0  0  0  0  0  0  0  0  0  0  0  0
  187.5020  178.2900  142.3070 C   0  0  2  0  0  3  0  0  0  0  0  0
  187.8710  178.5980  139.8250 C   0  0  0  0  0  2  0  0  0  0  0  0
  190.2870  176.1910  141.1810 O   0  0  0  0  0  0  0  0  0  0  0  0
  189.0980  177.8650  144.7050 C   0  0  1  0  0  3  0  0  0  0  0  0
  189.2490  176.9080  141.1300 C   0  0  0  0  0  0  0  0  0  0  0  0
  187.8120  177.9500  145.3790 N   0  0  0  0  0  0  0  0  0  0  0  0
  185.2070  178.2050  145.2320 C   0  0  0  0  0  0  0  0  0  0  0  0
  188.8780  177.5370  139.8880 N   0  0  0  0  0  0  0  0  0  0  0  0
  188.3370  176.9980  142.3340 C   0  0  1  0  0  3  0  0  0  0  0  0
  183.5730  178.8450  139.2580 C   0  0  0  0  0  3  0  0  0  0  0  0
  187.9220  177.8800  146.8200 C   0  0  0  0  0  2  0  0  0  0  0  0
  190.1190  177.5880  145.7990 C   0  0  0  0  0  2  0  0  0  0  0  0
  185.7220  178.7820  138.3160 F   0  0  0  0  0  0  0  0  0  0  0  0
  185.0640  178.4020  143.0860 C   0  0  0  0  0  0  0  0  0  0  0  0
  182.7100  178.8010  140.3480 C   0  0  0  0  0  3  0  0  0  0  0  0
  185.5120  178.5830  140.7340 C   0  0  0  0  0  0  0  0  0  0  0  0
  186.4570  178.2810  143.3700 C   0  0  0  0  0  0  0  0  0  0  0  0
  184.8420  178.0940  146.6700 C   0  0  0  0  0  1  0  0  0  0  0  0
  186.5750  178.1630  144.6800 C   0  0  0  0  0  0  0  0  0  0  0  0
  189.4100  177.8530  147.1210 C   0  0  0  0  0  2  0  0  0  0  0  0
  189.5540  175.6860  143.8790 O   0  0  0  0  0  0  0  0  0  0  0  0
  183.2210  178.6490  141.6320 C   0  0  0  0  0  3  0  0  0  0  0  0
  184.6010  178.5390  141.8420 C   0  0  0  0  0  0  0  0  0  0  0  0
  189.0710  176.7850  143.6460 C   0  0  0  0  0  0  0  0  0  0  0  0
  189.6260  177.2410  138.6730 C   0  0  0  0  0  2  0  0  0  0  0  0
  188.8050  177.6550  136.3540 C   0  0  0  0  0  1  0  0  0  0  0  0
  189.3610  178.2970  137.6110 C   0  0  0  0  0  2  0  0  0  0  0  0
  2 19  1  0  0  0  0
  3 10  2  0  0  0  0
  4  1  1  6  0  0  0
  4 12  1  0  0  0  0
  4 20  1  0  0  0  0
  5 11  1  0  0  0  0
  5  1  1  0  0  0  0
  7  9  1  0  0  0  0
  7 15  1  1  0  0  0
  8  6  2  0  0  0  0
  9 14  1  0  0  0  0
 10 21  1  0  0  0  0
 11  8  1  0  0  0  0
 12  8  1  6  0  0  0
 12 27  1  0  0  0  0
 13  2  2  0  0  0  0
 13 18  1  0  0  0  0
 14 23  1  0  0  0  0
 15 23  1  0  0  0  0
 16  2  1  0  0  0  0
 17 20  1  0  0  0  0
 17  3  1  0  0  0  0
 18 25  2  0  0  0  0
 19  1  2  0  0  0  0
 19 26  1  0  0  0  0
 20 22  2  0  0  0  0
 22 10  1  0  0  0  0
 22  9  1  0  0  0  0
 25 26  1  0  0  0  0
 26 17  2  0  0  0  0
 27 24  2  0  0  0  0
 27  7  1  0  0  0  0
 28 11  1  0  0  0  0
 29 30  1  0  0  0  0
 30 28  1  0  0  0  0
M  END
>  <MODEL>
7

>  <REMARK>
 VINA RESULT:      -9.3      2.482      5.507
  Name = 
  2 active torsions:
  status: ('A' for Active; 'I' for Inactive)
    1  A    between atoms: N_11  and  C_28
    2  A    between atoms: C_28  and  C_30
                            x       y       z     vdW  Elec       q    Type
                         _______ _______ _______ _____ _____    ______ ____

>  <TORSDO>
F 2

$$$$
=
 OpenBabel11122410333D

 30 35  0  0  1  0  0  0  0  0999 V2000
  184.5240  178.8900  143.1780 C   0  0  0  0  0  0  0  0  0  0  0  0
  184.6920  178.6280  145.6060 C   0  0  0  0  0  0  0  0  0  0  0  0
  188.4690  177.4580  142.6740 N   0  0  0  0  0  0  0  0  0  0  0  0
  185.0690  178.7800  141.7620 C   0  0  0  0  0  0  0  0  0  0  0  0
  183.1520  179.4900  143.2480 C   0  0  0  0  0  2  0  0  0  0  0  0
  181.8740  177.9620  140.1660 O   0  0  0  0  0  0  0  0  0  0  0  0
  185.6910  178.6720  138.9190 C   0  0  1  0  0  3  0  0  0  0  0  0
  182.7030  178.2610  141.0690 C   0  0  0  0  0  0  0  0  0  0  0  0
  186.9890  178.2120  139.3870 N   0  0  0  0  0  0  0  0  0  0  0  0
  188.5530  177.5360  141.3790 C   0  0  0  0  0  0  0  0  0  0  0  0
  182.2370  178.8590  142.2940 N   0  0  0  0  0  0  0  0  0  0  0  0
  184.1580  177.8780  140.9120 C   0  0  1  0  0  3  0  0  0  0  0  0
  185.4400  178.2530  146.7240 C   0  0  0  0  0  3  0  0  0  0  0  0
  187.9410  178.0160  138.3140 C   0  0  0  0  0  2  0  0  0  0  0  0
  185.7700  178.6500  137.3990 C   0  0  0  0  0  2  0  0  0  0  0  0
  183.4300  179.0730  145.8320 F   0  0  0  0  0  0  0  0  0  0  0  0
  187.1530  177.9220  142.9790 C   0  0  1  0  0  3  0  0  0  0  0  0
  186.7390  177.7750  146.5850 C   0  0  0  0  0  3  0  0  0  0  0  0
  185.2410  178.5270  144.2970 C   0  0  0  0  0  0  0  0  0  0  0  0
  186.4710  178.2730  141.7760 C   0  0  0  0  0  0  0  0  0  0  0  0
  189.7790  177.1330  140.6380 C   0  0  0  0  0  1  0  0  0  0  0  0
  187.3070  178.0510  140.7790 C   0  0  0  0  0  0  0  0  0  0  0  0
  187.2440  178.4860  137.0510 C   0  0  0  0  0  2  0  0  0  0  0  0
  184.1050  176.9130  138.7540 O   0  0  0  0  0  0  0  0  0  0  0  0
  187.3060  177.6650  145.3200 C   0  0  0  0  0  3  0  0  0  0  0  0
  186.5820  178.0300  144.1800 C   0  0  0  0  0  0  0  0  0  0  0  0
  184.5890  177.7870  139.4590 C   0  0  0  0  0  0  0  0  0  0  0  0
  180.8060  178.9950  142.5370 C   0  0  0  0  0  2  0  0  0  0  0  0
  179.0900  179.1290  144.3430 C   0  0  0  0  0  1  0  0  0  0  0  0
  180.4700  178.6210  143.9730 C   0  0  0  0  0  2  0  0  0  0  0  0
  1  5  1  0  0  0  0
  1 19  1  0  0  0  0
  2 16  1  0  0  0  0
  2 13  1  0  0  0  0
  3 17  1  0  0  0  0
  4 20  1  0  0  0  0
  4  1  2  0  0  0  0
  6  8  2  0  0  0  0
  7 15  1  6  0  0  0
  7  9  1  0  0  0  0
  7 27  1  0  0  0  0
  8 11  1  0  0  0  0
  9 22  1  0  0  0  0
 10  3  2  0  0  0  0
 11 28  1  0  0  0  0
 11  5  1  0  0  0  0
 12 27  1  6  0  0  0
 12  8  1  0  0  0  0
 12  4  1  0  0  0  0
 14  9  1  0  0  0  0
 17 20  1  6  0  0  0
 17 26  1  0  0  0  0
 18 13  2  0  0  0  0
 19  2  2  0  0  0  0
 21 10  1  0  0  0  0
 22 10  1  0  0  0  0
 22 20  2  0  0  0  0
 23 15  1  0  0  0  0
 23 14  1  0  0  0  0
 24 27  2  0  0  0  0
 25 18  1  0  0  0  0
 26 19  1  0  0  0  0
 26 25  2  0  0  0  0
 28 30  1  0  0  0  0
 30 29  1  0  0  0  0
M  END
>  <MODEL>
8

>  <REMARK>
 VINA RESULT:      -8.9      3.103      6.678
  Name = 
  2 active torsions:
  status: ('A' for Active; 'I' for Inactive)
    1  A    between atoms: N_11  and  C_28
    2  A    between atoms: C_28  and  C_30
                            x       y       z     vdW  Elec       q    Type
                         _______ _______ _______ _____ _____    ______ ____

>  <TORSDO>
F 2

$$$$
=
 OpenBabel11122410333D

 30 35  0  0  1  0  0  0  0  0999 V2000
  189.6350  178.1100  143.6230 C   0  0  0  0  0  0  0  0  0  0  0  0
  191.5360  177.6170  142.1630 C   0  0  0  0  0  0  0  0  0  0  0  0
  186.9990  178.1150  140.3200 N   0  0  0  0  0  0  0  0  0  0  0  0
  188.1580  178.3590  143.8880 C   0  0  2  0  0  3  0  0  0  0  0  0
  190.4910  178.2160  144.8500 C   0  0  0  0  0  2  0  0  0  0  0  0
  188.0620  176.7500  147.1790 O   0  0  0  0  0  0  0  0  0  0  0  0
  185.4410  178.8140  144.8330 C   0  0  1  0  0  3  0  0  0  0  0  0
  188.5230  177.1890  146.0890 C   0  0  0  0  0  0  0  0  0  0  0  0
  185.1120  178.7480  143.4180 N   0  0  0  0  0  0  0  0  0  0  0  0
  185.8880  178.3760  140.9420 C   0  0  0  0  0  0  0  0  0  0  0  0
  189.9360  177.4450  145.9650 N   0  0  0  0  0  0  0  0  0  0  0  0
  187.6150  177.3230  144.8870 C   0  0  1  0  0  3  0  0  0  0  0  0
  192.0330  177.3700  140.8800 C   0  0  0  0  0  3  0  0  0  0  0  0
  183.7140  179.0070  143.1490 C   0  0  0  0  0  2  0  0  0  0  0  0
  184.1160  179.0070  145.5560 C   0  0  0  0  0  2  0  0  0  0  0  0
  192.4310  177.5940  143.1820 F   0  0  0  0  0  0  0  0  0  0  0  0
  187.9900  178.0830  141.3470 C   0  0  0  0  0  0  0  0  0  0  0  0
  191.1850  177.3630  139.7770 C   0  0  0  0  0  3  0  0  0  0  0  0
  190.1510  177.8640  142.3700 C   0  0  0  0  0  0  0  0  0  0  0  0
  187.3850  178.3390  142.6130 C   0  0  0  0  0  0  0  0  0  0  0  0
  184.5870  178.4900  140.2290 C   0  0  0  0  0  1  0  0  0  0  0  0
  186.0960  178.5270  142.3950 C   0  0  0  0  0  0  0  0  0  0  0  0
  183.0970  179.3780  144.4860 C   0  0  0  0  0  2  0  0  0  0  0  0
  185.5550  176.6690  145.8450 O   0  0  0  0  0  0  0  0  0  0  0  0
  189.8260  177.6010  139.9440 C   0  0  0  0  0  3  0  0  0  0  0  0
  189.2970  177.8500  141.2160 C   0  0  0  0  0  0  0  0  0  0  0  0
  186.1650  177.5580  145.2680 C   0  0  0  0  0  0  0  0  0  0  0  0
  190.8380  177.0760  147.0480 C   0  0  0  0  0  2  0  0  0  0  0  0
  192.7570  175.6280  147.7150 C   0  0  0  0  0  1  0  0  0  0  0  0
  191.8350  176.0260  146.5800 C   0  0  0  0  0  2  0  0  0  0  0  0
  1  4  1  0  0  0  0
  1  5  1  0  0  0  0
  2 19  1  0  0  0  0
  2 16  1  0  0  0  0
  3 10  2  0  0  0  0
  3 17  1  0  0  0  0
  4 20  1  6  0  0  0
  4 12  1  0  0  0  0
  5 11  1  0  0  0  0
  7 27  1  0  0  0  0
  7 15  1  1  0  0  0
  8  6  2  0  0  0  0
  9  7  1  0  0  0  0
 10 22  1  0  0  0  0
 11  8  1  0  0  0  0
 11 28  1  0  0  0  0
 12 27  1  1  0  0  0
 12  8  1  0  0  0  0
 13  2  2  0  0  0  0
 14  9  1  0  0  0  0
 14 23  1  0  0  0  0
 17 20  1  0  0  0  0
 18 25  2  0  0  0  0
 18 13  1  0  0  0  0
 19  1  2  0  0  0  0
 21 10  1  0  0  0  0
 22 20  2  0  0  0  0
 22  9  1  0  0  0  0
 23 15  1  0  0  0  0
 25 26  1  0  0  0  0
 26 17  2  0  0  0  0
 26 19  1  0  0  0  0
 27 24  2  0  0  0  0
 30 28  1  0  0  0  0
 30 29  1  0  0  0  0
M  END
>  <MODEL>
9

>  <REMARK>
 VINA RESULT:      -8.8      2.108      4.797
  Name = 
  2 active torsions:
  status: ('A' for Active; 'I' for Inactive)
    1  A    between atoms: N_11  and  C_28
    2  A    between atoms: C_28  and  C_30
                            x       y       z     vdW  Elec       q    Type
                         _______ _______ _______ _____ _____    ______ ____

>  <TORSDO>
F 2

$$$$
