=
 OpenBabel11122412073D

 34 40  0  0  1  0  0  0  0  0999 V2000
  187.9930  178.1530  138.7050 C   0  0  0  0  0  0  0  0  0  0  0  0
  186.5670  178.6050  140.7310 C   0  0  0  0  0  3  0  0  0  0  0  0
  192.2080  174.1240  135.8860 C   0  0  2  0  0  3  0  0  0  0  0  0
  189.2430  177.1230  136.9000 C   0  0  0  0  0  0  0  0  0  0  0  0
  191.2230  175.7940  137.5260 C   0  0  0  0  0  0  0  0  0  0  0  0
  193.7030  175.7720  137.1360 C   0  0  0  0  0  1  0  0  0  0  0  0
  193.0100  172.8400  135.9630 C   0  0  0  0  0  1  0  0  0  0  0  0
  191.8650  176.0560  134.5940 C   0  0  0  0  0  2  0  0  0  0  0  0
  188.8690  178.2520  141.0730 C   0  0  2  0  0  3  0  0  0  0  0  0
  189.6590  176.6680  143.7860 C   0  0  0  0  0  2  0  0  0  0  0  0
  191.0400  176.0480  138.8290 C   0  0  0  0  0  3  0  0  0  0  0  0
  190.4050  176.0260  135.0400 C   0  0  0  0  0  2  0  0  0  0  0  0
  189.6790  176.9760  140.7460 C   0  0  1  0  0  3  0  0  0  0  0  0
  186.6930  178.5040  142.0410 C   0  0  0  0  0  3  0  0  0  0  0  0
  190.2810  176.3660  136.5020 C   0  0  0  0  0  0  0  0  0  0  0  0
  192.5230  174.8050  134.6840 O   0  0  0  0  0  0  0  0  0  0  0  0
  188.2590  176.8950  143.1900 C   0  0  2  0  0  3  0  0  0  0  0  0
  189.0500  177.4190  138.3280 C   0  0  0  0  0  0  0  0  0  0  0  0
  192.4180  174.9520  137.1630 C   0  0  2  0  0  3  0  0  0  0  0  0
  189.9680  176.8820  139.3010 N   0  0  0  0  0  0  0  0  0  0  0  0
  187.1730  178.3980  136.4590 C   0  0  0  0  0  3  0  0  0  0  0  0
  190.8010  177.3550  143.0350 C   0  0  0  0  0  2  0  0  0  0  0  0
  188.2840  177.6380  135.9710 N   0  0  0  0  0  2  0  0  0  0  0  0
  190.9600  176.8760  141.5910 C   0  0  0  0  0  2  0  0  0  0  0  0
  188.1210  178.2320  142.4300 C   0  0  1  0  0  3  0  0  0  0  0  0
  187.0430  178.6320  137.7340 N   0  0  0  0  0  0  0  0  0  0  0  0
  187.8180  178.4410  140.0910 N   0  0  0  0  0  0  0  0  0  0  0  0
  187.2750  176.8020  144.2580 N   0  0  0  0  0  2  0  0  0  0  0  0
  187.5480  177.8900  145.1830 C   0  0  0  0  0  2  0  0  0  0  0  0
  189.3160  177.8430  148.3370 C   0  0  0  0  0  2  0  0  0  0  0  0
  187.0790  178.3150  147.5940 C   0  0  0  0  0  2  0  0  0  0  0  0
  187.6810  177.3510  146.5940 C   0  0  0  0  0  3  0  0  0  0  0  0
  187.9270  178.1750  148.8350 C   0  0  0  0  0  2  0  0  0  0  0  0
  189.1460  177.2160  146.9640 C   0  0  0  0  0  2  0  0  0  0  0  0
  1 27  1  0  0  0  0
  2 14  2  0  0  0  0
  3  7  1  1  0  0  0
  3 19  1  0  0  0  0
  4 18  1  0  0  0  0
  5 11  2  0  0  0  0
  8 16  1  0  0  0  0
  8 12  1  0  0  0  0
  9 27  1  6  0  0  0
  9 25  1  0  0  0  0
 11 20  1  0  0  0  0
 12 15  1  0  0  0  0
 13  9  1  0  0  0  0
 13 24  1  1  0  0  0
 15  4  2  0  0  0  0
 15  5  1  0  0  0  0
 16  3  1  0  0  0  0
 17 10  1  0  0  0  0
 17 28  1  1  0  0  0
 18  1  2  0  0  0  0
 18 20  1  0  0  0  0
 19  6  1  6  0  0  0
 19  5  1  0  0  0  0
 20 13  1  0  0  0  0
 21 26  2  0  0  0  0
 22 10  1  0  0  0  0
 23 21  1  0  0  0  0
 23  4  1  0  0  0  0
 24 22  1  0  0  0  0
 25 14  1  6  0  0  0
 25 17  1  0  0  0  0
 26  1  1  0  0  0  0
 27  2  1  0  0  0  0
 28 29  1  0  0  0  0
 29 32  1  0  0  0  0
 30 33  1  0  0  0  0
 31 33  1  0  0  0  0
 32 34  1  0  0  0  0
 32 31  1  0  0  0  0
 34 30  1  0  0  0  0
M  END
>  <MODEL>
1

>  <REMARK>
 VINA RESULT:      -9.9      0.000      0.000
  Name = 
  3 active torsions:
  status: ('A' for Active; 'I' for Inactive)
    1  A    between atoms: C_17  and  N_28
    2  A    between atoms: N_28  and  C_29
    3  A    between atoms: C_29  and  C_32
                            x       y       z     vdW  Elec       q    Type
                         _______ _______ _______ _____ _____    ______ ____

>  <TORSDO>
F 3

$$$$
=
 OpenBabel11122412073D

 34 40  0  0  1  0  0  0  0  0999 V2000
  182.0530  178.8130  143.4480 C   0  0  0  0  0  0  0  0  0  0  0  0
  183.7220  178.6930  145.3300 C   0  0  0  0  0  3  0  0  0  0  0  0
  180.3730  176.5940  137.6000 C   0  0  2  0  0  3  0  0  0  0  0  0
  180.5980  178.3270  141.5700 C   0  0  0  0  0  0  0  0  0  0  0  0
  181.6840  177.7760  139.4270 C   0  0  0  0  0  0  0  0  0  0  0  0
  181.8030  178.6420  137.0740 C   0  0  0  0  0  1  0  0  0  0  0  0
  180.6830  175.6770  136.4330 C   0  0  0  0  0  1  0  0  0  0  0  0
  178.9310  178.3030  138.3220 C   0  0  0  0  0  2  0  0  0  0  0  0
  184.5390  179.1730  143.1770 C   0  0  2  0  0  3  0  0  0  0  0  0
  187.4410  177.9210  142.4640 C   0  0  0  0  0  2  0  0  0  0  0  0
  182.9070  177.9240  139.9540 C   0  0  0  0  0  3  0  0  0  0  0  0
  179.0760  177.7490  139.7380 C   0  0  0  0  0  2  0  0  0  0  0  0
  184.4550  178.2730  141.9220 C   0  0  1  0  0  3  0  0  0  0  0  0
  185.0340  178.6180  145.4530 C   0  0  0  0  0  3  0  0  0  0  0  0
  180.4600  177.9960  140.2740 C   0  0  0  0  0  0  0  0  0  0  0  0
  179.2220  177.3650  137.3010 O   0  0  0  0  0  0  0  0  0  0  0  0
  186.5640  177.6480  143.6990 C   0  0  2  0  0  3  0  0  0  0  0  0
  181.9390  178.5090  142.1470 C   0  0  2  0  0  3  0  0  0  0  0  0
  181.6170  177.4190  137.9640 C   0  0  2  0  0  3  0  0  0  0  0  0
  183.1060  178.3140  141.3240 N   0  0  0  0  0  0  0  0  0  0  0  0
  179.6780  178.7930  143.8160 C   0  0  0  0  0  3  0  0  0  0  0  0
  186.8980  178.9840  141.5060 C   0  0  0  0  0  2  0  0  0  0  0  0
  179.4670  178.4850  142.4330 N   0  0  0  0  0  0  0  0  0  0  0  0
  185.5450  178.6190  140.8920 C   0  0  0  0  0  2  0  0  0  0  0  0
  185.7180  178.8640  144.1350 C   0  0  1  0  0  3  0  0  0  0  0  0
  180.8850  178.9420  144.2820 N   0  0  0  0  0  0  0  0  0  0  0  0
  183.3570  178.9950  143.9980 N   0  0  0  0  0  0  0  0  0  0  0  0
  187.4160  177.1920  144.7860 N   0  0  0  0  0  2  0  0  0  0  0  0
  188.7420  176.9820  144.2270 C   0  0  0  0  0  2  0  0  0  0  0  0
  190.4890  176.7190  147.3820 C   0  0  0  0  0  2  0  0  0  0  0  0
  191.0800  176.7170  145.0510 C   0  0  0  0  0  2  0  0  0  0  0  0
  189.7970  177.5100  145.1800 C   0  0  0  0  0  3  0  0  0  0  0  0
  191.6730  176.7000  146.4400 C   0  0  0  0  0  2  0  0  0  0  0  0
  189.3340  177.3390  146.6140 C   0  0  0  0  0  2  0  0  0  0  0  0
  1 27  1  0  0  0  0
  1 26  2  0  0  0  0
  2 14  2  0  0  0  0
  3  7  1  6  0  0  0
  3 19  1  0  0  0  0
  4 23  1  0  0  0  0
  5 11  2  0  0  0  0
  5 15  1  0  0  0  0
  8 12  1  0  0  0  0
  9 27  1  1  0  0  0
  9 25  1  0  0  0  0
 10 17  1  0  0  0  0
 11 20  1  0  0  0  0
 12 15  1  0  0  0  0
 13 24  1  6  0  0  0
 13  9  1  0  0  0  0
 15  4  2  0  0  0  0
 16  3  1  0  0  0  0
 16  8  1  0  0  0  0
 17 25  1  0  0  0  0
 17 28  1  1  0  0  0
 18  4  1  1  0  0  0
 18  1  1  0  0  0  0
 19  6  1  6  0  0  0
 19  5  1  0  0  0  0
 20 13  1  0  0  0  0
 20 18  1  0  0  0  0
 21 26  1  0  0  0  0
 22 10  1  0  0  0  0
 23 21  2  0  0  0  0
 24 22  1  0  0  0  0
 25 14  1  1  0  0  0
 27  2  1  0  0  0  0
 29 28  1  0  0  0  0
 29 32  1  0  0  0  0
 31 32  1  0  0  0  0
 31 33  1  0  0  0  0
 32 34  1  0  0  0  0
 33 30  1  0  0  0  0
 34 30  1  0  0  0  0
M  END
>  <MODEL>
2

>  <REMARK>
 VINA RESULT:      -9.6      5.543      8.137
  Name = 
  3 active torsions:
  status: ('A' for Active; 'I' for Inactive)
    1  A    between atoms: C_17  and  N_28
    2  A    between atoms: N_28  and  C_29
    3  A    between atoms: C_29  and  C_32
                            x       y       z     vdW  Elec       q    Type
                         _______ _______ _______ _____ _____    ______ ____

>  <TORSDO>
F 3

$$$$
=
 OpenBabel11122412073D

 34 40  0  0  1  0  0  0  0  0999 V2000
  188.2020  178.0690  138.5250 C   0  0  0  0  0  0  0  0  0  0  0  0
  186.6920  178.5210  140.4890 C   0  0  0  0  0  3  0  0  0  0  0  0
  192.5960  174.0840  135.9240 C   0  0  2  0  0  3  0  0  0  0  0  0
  189.5390  177.0390  136.7830 C   0  0  0  0  0  0  0  0  0  0  0  0
  191.5180  175.7570  137.5020 C   0  0  0  0  0  0  0  0  0  0  0  0
  194.0110  175.7770  137.2080 C   0  0  0  0  0  1  0  0  0  0  0  0
  193.4190  172.8170  136.0500 C   0  0  0  0  0  1  0  0  0  0  0  0
  192.2670  175.9920  134.5940 C   0  0  0  0  0  2  0  0  0  0  0  0
  188.9840  178.2160  140.9230 C   0  0  2  0  0  3  0  0  0  0  0  0
  189.6990  176.6830  143.6860 C   0  0  0  0  0  2  0  0  0  0  0  0
  191.2810  176.0240  138.7940 C   0  0  0  0  0  3  0  0  0  0  0  0
  190.7920  175.9410  134.9850 C   0  0  0  0  0  2  0  0  0  0  0  0
  189.8300  176.9520  140.6450 C   0  0  1  0  0  3  0  0  0  0  0  0
  186.7680  178.4390  141.8040 C   0  0  0  0  0  3  0  0  0  0  0  0
  190.6050  176.2980  136.4360 C   0  0  0  0  0  0  0  0  0  0  0  0
  192.9440  174.7560  134.7260 O   0  0  0  0  0  0  0  0  0  0  0  0
  188.3190  176.8760  143.0340 C   0  0  2  0  0  3  0  0  0  0  0  0
  189.2870  177.3500  138.1990 C   0  0  0  0  0  0  0  0  0  0  0  0
  192.7420  174.9330  137.1970 C   0  0  2  0  0  3  0  0  0  0  0  0
  190.1760  176.8440  139.2140 N   0  0  0  0  0  0  0  0  0  0  0  0
  187.4640  178.2690  136.2470 C   0  0  0  0  0  3  0  0  0  0  0  0
  190.8570  177.3830  142.9690 C   0  0  0  0  0  2  0  0  0  0  0  0
  188.6070  177.5230  135.8110 N   0  0  0  0  0  2  0  0  0  0  0  0
  191.0800  176.8880  141.5390 C   0  0  0  0  0  2  0  0  0  0  0  0
  188.1850  178.2000  142.2510 C   0  0  1  0  0  3  0  0  0  0  0  0
  187.2810  178.5170  137.5120 N   0  0  0  0  0  0  0  0  0  0  0  0
  187.9680  178.3730  139.8990 N   0  0  0  0  0  0  0  0  0  0  0  0
  187.2970  176.7780  144.0650 N   0  0  0  0  0  2  0  0  0  0  0  0
  187.8660  177.3380  145.2810 C   0  0  0  0  0  2  0  0  0  0  0  0
  184.5200  178.5310  145.9600 C   0  0  0  0  0  2  0  0  0  0  0  0
  186.5070  178.0780  147.2360 C   0  0  0  0  0  2  0  0  0  0  0  0
  186.9540  178.4180  145.8300 C   0  0  0  0  0  3  0  0  0  0  0  0
  185.1090  178.6360  147.3500 C   0  0  0  0  0  2  0  0  0  0  0  0
  185.6920  178.5080  144.9940 C   0  0  0  0  0  2  0  0  0  0  0  0
  1 27  1  0  0  0  0
  2 14  2  0  0  0  0
  3  7  1  1  0  0  0
  3 19  1  0  0  0  0
  4 18  1  0  0  0  0
  5 11  2  0  0  0  0
  8 16  1  0  0  0  0
  8 12  1  0  0  0  0
  9 27  1  6  0  0  0
  9 25  1  0  0  0  0
 11 20  1  0  0  0  0
 12 15  1  0  0  0  0
 13  9  1  0  0  0  0
 13 24  1  1  0  0  0
 15  4  2  0  0  0  0
 15  5  1  0  0  0  0
 16  3  1  0  0  0  0
 17 10  1  0  0  0  0
 17 28  1  1  0  0  0
 18  1  2  0  0  0  0
 18 20  1  0  0  0  0
 19  6  1  6  0  0  0
 19  5  1  0  0  0  0
 20 13  1  0  0  0  0
 21 26  2  0  0  0  0
 22 10  1  0  0  0  0
 23 21  1  0  0  0  0
 23  4  1  0  0  0  0
 24 22  1  0  0  0  0
 25 14  1  6  0  0  0
 25 17  1  0  0  0  0
 26  1  1  0  0  0  0
 27  2  1  0  0  0  0
 28 29  1  0  0  0  0
 29 32  1  0  0  0  0
 30 33  1  0  0  0  0
 31 33  1  0  0  0  0
 32 31  1  0  0  0  0
 34 32  1  0  0  0  0
 34 30  1  0  0  0  0
M  END
>  <MODEL>
3

>  <REMARK>
 VINA RESULT:      -9.5      0.829      1.357
  Name = 
  3 active torsions:
  status: ('A' for Active; 'I' for Inactive)
    1  A    between atoms: C_17  and  N_28
    2  A    between atoms: N_28  and  C_29
    3  A    between atoms: C_29  and  C_32
                            x       y       z     vdW  Elec       q    Type
                         _______ _______ _______ _____ _____    ______ ____

>  <TORSDO>
F 3

$$$$
=
 OpenBabel11122412073D

 34 40  0  0  1  0  0  0  0  0999 V2000
  181.2640  178.3350  141.5750 C   0  0  0  0  0  0  0  0  0  0  0  0
  182.1530  178.8000  143.8850 C   0  0  0  0  0  3  0  0  0  0  0  0
  182.0220  174.9580  136.1010 C   0  0  2  0  0  3  0  0  0  0  0  0
  180.6350  177.3160  139.4660 C   0  0  0  0  0  0  0  0  0  0  0  0
  182.4660  176.6200  137.9690 C   0  0  0  0  0  0  0  0  0  0  0  0
  183.3290  177.1060  135.6630 C   0  0  0  0  0  1  0  0  0  0  0  0
  182.8210  173.9310  135.3220 C   0  0  0  0  0  1  0  0  0  0  0  0
  180.2510  176.4920  135.9300 C   0  0  0  0  0  2  0  0  0  0  0  0
  183.6330  179.0600  142.0740 C   0  0  2  0  0  3  0  0  0  0  0  0
  186.7090  178.2180  142.6420 C   0  0  0  0  0  2  0  0  0  0  0  0
  183.3980  177.0550  138.8290 C   0  0  0  0  0  3  0  0  0  0  0  0
  179.9360  176.2040  137.3960 C   0  0  0  0  0  2  0  0  0  0  0  0
  184.0950  177.9700  141.0790 C   0  0  1  0  0  3  0  0  0  0  0  0
  183.3340  178.9690  144.4490 C   0  0  0  0  0  3  0  0  0  0  0  0
  181.0040  176.7630  138.2980 C   0  0  0  0  0  0  0  0  0  0  0  0
  180.9820  175.4650  135.2830 O   0  0  0  0  0  0  0  0  0  0  0  0
  185.4810  178.0020  143.5440 C   0  0  2  0  0  3  0  0  0  0  0  0
  181.6550  177.8110  140.4040 C   0  0  0  0  0  0  0  0  0  0  0  0
  182.9630  176.0280  136.6760 C   0  0  2  0  0  3  0  0  0  0  0  0
  183.0520  177.6870  140.0730 N   0  0  0  0  0  0  0  0  0  0  0  0
  178.9310  177.9740  141.1300 C   0  0  0  0  0  3  0  0  0  0  0  0
  186.4390  179.0060  141.3590 C   0  0  0  0  0  2  0  0  0  0  0  0
  179.2600  177.4180  139.8520 N   0  0  0  0  0  2  0  0  0  0  0  0
  185.4390  178.3250  140.4210 C   0  0  0  0  0  2  0  0  0  0  0  0
  184.4150  179.1120  143.4110 C   0  0  1  0  0  3  0  0  0  0  0  0
  179.8690  178.3970  141.9280 N   0  0  0  0  0  0  0  0  0  0  0  0
  182.2600  178.8200  142.4750 N   0  0  0  0  0  0  0  0  0  0  0  0
  185.9300  177.8770  144.9220 N   0  0  0  0  0  2  0  0  0  0  0  0
  187.2690  177.3110  144.8830 C   0  0  0  0  0  2  0  0  0  0  0  0
  188.3010  177.5640  148.3400 C   0  0  0  0  0  2  0  0  0  0  0  0
  189.3590  177.1140  146.2280 C   0  0  0  0  0  2  0  0  0  0  0  0
  188.1400  177.9640  145.9380 C   0  0  0  0  0  3  0  0  0  0  0  0
  189.6490  177.3290  147.6940 C   0  0  0  0  0  2  0  0  0  0  0  0
  187.3790  178.0750  147.2450 C   0  0  0  0  0  2  0  0  0  0  0  0
  1 26  1  0  0  0  0
  1 27  1  0  0  0  0
  2 14  2  0  0  0  0
  3  7  1  6  0  0  0
  3 19  1  0  0  0  0
  4 23  1  0  0  0  0
  4 18  1  0  0  0  0
  5 15  1  0  0  0  0
  5 11  2  0  0  0  0
  8 12  1  0  0  0  0
  9 27  1  1  0  0  0
  9 25  1  0  0  0  0
 10 17  1  0  0  0  0
 11 20  1  0  0  0  0
 12 15  1  0  0  0  0
 13 24  1  6  0  0  0
 13  9  1  0  0  0  0
 15  4  2  0  0  0  0
 16  8  1  0  0  0  0
 16  3  1  0  0  0  0
 17 28  1  1  0  0  0
 18  1  2  0  0  0  0
 19  6  1  6  0  0  0
 19  5  1  0  0  0  0
 20 18  1  0  0  0  0
 20 13  1  0  0  0  0
 21 26  2  0  0  0  0
 22 10  1  0  0  0  0
 23 21  1  0  0  0  0
 24 22  1  0  0  0  0
 25 17  1  0  0  0  0
 25 14  1  1  0  0  0
 27  2  1  0  0  0  0
 29 28  1  0  0  0  0
 29 32  1  0  0  0  0
 31 33  1  0  0  0  0
 32 31  1  0  0  0  0
 32 34  1  0  0  0  0
 33 30  1  0  0  0  0
 34 30  1  0  0  0  0
M  END
>  <MODEL>
4

>  <REMARK>
 VINA RESULT:      -8.7      5.462      7.249
  Name = 
  3 active torsions:
  status: ('A' for Active; 'I' for Inactive)
    1  A    between atoms: C_17  and  N_28
    2  A    between atoms: N_28  and  C_29
    3  A    between atoms: C_29  and  C_32
                            x       y       z     vdW  Elec       q    Type
                         _______ _______ _______ _____ _____    ______ ____

>  <TORSDO>
F 3

$$$$
=
 OpenBabel11122412073D

 34 40  0  0  1  0  0  0  0  0999 V2000
  187.7690  178.2950  140.5940 C   0  0  0  0  0  0  0  0  0  0  0  0
  185.7750  178.3220  139.0560 C   0  0  0  0  0  3  0  0  0  0  0  0
  190.1530  176.2950  146.2740 C   0  0  2  0  0  3  0  0  0  0  0  0
  189.4570  177.7110  142.2340 C   0  0  0  0  0  0  0  0  0  0  0  0
  188.7250  177.5380  144.5810 C   0  0  0  0  0  0  0  0  0  0  0  0
  189.1970  178.6010  146.8060 C   0  0  0  0  0  1  0  0  0  0  0  0
  189.9280  175.5450  147.5730 C   0  0  0  0  0  1  0  0  0  0  0  0
  191.6870  177.6540  145.1250 C   0  0  0  0  0  2  0  0  0  0  0  0
  185.4700  179.1130  141.2510 C   0  0  2  0  0  3  0  0  0  0  0  0
  182.5940  178.4610  142.5920 C   0  0  0  0  0  2  0  0  0  0  0  0
  187.4640  177.8590  144.2610 C   0  0  0  0  0  3  0  0  0  0  0  0
  191.1880  177.0210  143.8270 C   0  0  0  0  0  2  0  0  0  0  0  0
  185.6460  178.3180  142.5650 C   0  0  1  0  0  3  0  0  0  0  0  0
  184.4690  178.4720  139.1710 C   0  0  0  0  0  3  0  0  0  0  0  0
  189.7840  177.4670  143.5150 C   0  0  0  0  0  0  0  0  0  0  0  0
  191.4480  176.8690  146.2800 O   0  0  0  0  0  0  0  0  0  0  0  0
  183.1650  177.9370  141.2630 C   0  0  2  0  0  3  0  0  0  0  0  0
  188.0780  178.0820  141.8820 C   0  0  0  0  0  0  0  0  0  0  0  0
  189.0110  177.2960  146.0400 C   0  0  2  0  0  3  0  0  0  0  0  0
  187.0730  178.1660  142.9120 N   0  0  0  0  0  0  0  0  0  0  0  0
  189.9960  177.8220  139.8240 C   0  0  0  0  0  3  0  0  0  0  0  0
  183.4730  179.4840  143.3160 C   0  0  0  0  0  2  0  0  0  0  0  0
  190.4140  177.5940  141.1750 N   0  0  0  0  0  2  0  0  0  0  0  0
  184.8420  178.9350  143.7230 C   0  0  0  0  0  2  0  0  0  0  0  0
  184.0970  178.9420  140.5520 C   0  0  1  0  0  3  0  0  0  0  0  0
  188.7620  178.1450  139.5610 N   0  0  0  0  0  0  0  0  0  0  0  0
  186.4300  178.6610  140.2620 N   0  0  0  0  0  0  0  0  0  0  0  0
  182.0590  177.5530  140.3990 N   0  0  0  0  0  2  0  0  0  0  0  0
  180.9390  178.4180  140.7330 C   0  0  0  0  0  2  0  0  0  0  0  0
  181.4220  180.7150  137.9820 C   0  0  0  0  0  2  0  0  0  0  0  0
  180.9170  178.3780  138.2400 C   0  0  0  0  0  2  0  0  0  0  0  0
  180.4020  179.0800  139.4790 C   0  0  0  0  0  3  0  0  0  0  0  0
  181.0650  179.4670  137.2050 C   0  0  0  0  0  2  0  0  0  0  0  0
  180.8980  180.5110  139.3930 C   0  0  0  0  0  2  0  0  0  0  0  0
  1 18  2  0  0  0  0
  2 14  2  0  0  0  0
  2 27  1  0  0  0  0
  3 16  1  0  0  0  0
  3  7  1  1  0  0  0
  4 15  2  0  0  0  0
  5 19  1  0  0  0  0
  8 16  1  0  0  0  0
  9 27  1  6  0  0  0
  9 13  1  0  0  0  0
 10 22  1  0  0  0  0
 11  5  2  0  0  0  0
 12  8  1  0  0  0  0
 13 20  1  0  0  0  0
 13 24  1  1  0  0  0
 15 12  1  0  0  0  0
 15  5  1  0  0  0  0
 17 28  1  6  0  0  0
 17 10  1  0  0  0  0
 18  4  1  0  0  0  0
 18 20  1  0  0  0  0
 19  3  1  0  0  0  0
 19  6  1  6  0  0  0
 20 11  1  0  0  0  0
 21 23  1  0  0  0  0
 22 24  1  0  0  0  0
 23  4  1  0  0  0  0
 25 14  1  6  0  0  0
 25  9  1  0  0  0  0
 25 17  1  0  0  0  0
 26 21  2  0  0  0  0
 26  1  1  0  0  0  0
 27  1  1  0  0  0  0
 28 29  1  0  0  0  0
 30 34  1  0  0  0  0
 31 32  1  0  0  0  0
 32 29  1  0  0  0  0
 33 30  1  0  0  0  0
 33 31  1  0  0  0  0
 34 32  1  0  0  0  0
M  END
>  <MODEL>
5

>  <REMARK>
 VINA RESULT:      -8.5      3.840      8.044
  Name = 
  3 active torsions:
  status: ('A' for Active; 'I' for Inactive)
    1  A    between atoms: C_17  and  N_28
    2  A    between atoms: N_28  and  C_29
    3  A    between atoms: C_29  and  C_32
                            x       y       z     vdW  Elec       q    Type
                         _______ _______ _______ _____ _____    ______ ____

>  <TORSDO>
F 3

$$$$
=
 OpenBabel11122412073D

 34 40  0  0  1  0  0  0  0  0999 V2000
  184.8240  178.6270  144.1620 C   0  0  0  0  0  0  0  0  0  0  0  0
  186.9630  177.7300  145.1430 C   0  0  0  0  0  3  0  0  0  0  0  0
  180.6910  178.4210  139.1800 C   0  0  2  0  0  3  0  0  0  0  0  0
  182.7280  178.9150  142.9770 C   0  0  0  0  0  0  0  0  0  0  0  0
  182.8120  178.8280  140.5150 C   0  0  0  0  0  0  0  0  0  0  0  0
  182.3060  180.2920  138.5400 C   0  0  0  0  0  1  0  0  0  0  0  0
  180.3300  177.8320  137.8300 C   0  0  0  0  0  1  0  0  0  0  0  0
  180.0720  180.0580  140.7480 C   0  0  0  0  0  2  0  0  0  0  0  0
  187.0600  178.6650  142.9860 C   0  0  2  0  0  3  0  0  0  0  0  0
  189.1130  177.2360  140.9270 C   0  0  0  0  0  2  0  0  0  0  0  0
  184.1390  178.6350  140.5210 C   0  0  0  0  0  3  0  0  0  0  0  0
  180.5640  179.1130  141.8430 C   0  0  0  0  0  2  0  0  0  0  0  0
  186.3160  178.1770  141.7200 C   0  0  1  0  0  3  0  0  0  0  0  0
  188.1710  177.4250  144.7070 C   0  0  0  0  0  3  0  0  0  0  0  0
  182.0640  178.9850  141.8110 C   0  0  0  0  0  0  0  0  0  0  0  0
  179.7400  179.4110  139.5320 O   0  0  0  0  0  0  0  0  0  0  0  0
  188.6900  176.7650  142.3290 C   0  0  2  0  0  3  0  0  0  0  0  0
  184.1860  178.7210  142.9860 C   0  0  2  0  0  3  0  0  0  0  0  0
  182.1480  178.9110  139.1660 C   0  0  2  0  0  3  0  0  0  0  0  0
  184.8990  178.5900  141.7410 N   0  0  0  0  0  0  0  0  0  0  0  0
  182.8070  178.8660  145.4470 C   0  0  0  0  0  3  0  0  0  0  0  0
  188.5500  178.5950  140.5030 C   0  0  0  0  0  2  0  0  0  0  0  0
  182.0520  178.9950  144.2370 N   0  0  0  0  0  0  0  0  0  0  0  0
  187.0220  178.6280  140.4300 C   0  0  0  0  0  2  0  0  0  0  0  0
  188.3840  177.9230  143.3030 C   0  0  1  0  0  3  0  0  0  0  0  0
  184.0970  178.6930  145.4040 N   0  0  0  0  0  0  0  0  0  0  0  0
  186.2390  178.4460  144.1620 N   0  0  0  0  0  0  0  0  0  0  0  0
  189.7280  175.8980  142.8640 N   0  0  0  0  0  2  0  0  0  0  0  0
  191.0040  176.5120  142.5360 C   0  0  0  0  0  2  0  0  0  0  0  0
  191.6030  176.7530  146.0940 C   0  0  0  0  0  2  0  0  0  0  0  0
  191.7770  175.0520  144.4040 C   0  0  0  0  0  2  0  0  0  0  0  0
  191.9580  176.3850  143.7090 C   0  0  0  0  0  3  0  0  0  0  0  0
  192.0560  175.3290  145.8620 C   0  0  0  0  0  2  0  0  0  0  0  0
  191.6520  177.4490  144.7450 C   0  0  0  0  0  2  0  0  0  0  0  0
  1 27  1  0  0  0  0
  1 26  2  0  0  0  0
  3  7  1  6  0  0  0
  3 16  1  0  0  0  0
  4 23  1  0  0  0  0
  5 11  2  0  0  0  0
  5 15  1  0  0  0  0
  8 12  1  0  0  0  0
  9 25  1  0  0  0  0
  9 27  1  1  0  0  0
 10 17  1  0  0  0  0
 11 20  1  0  0  0  0
 13 24  1  6  0  0  0
 13 20  1  0  0  0  0
 13  9  1  0  0  0  0
 14  2  2  0  0  0  0
 15 12  1  0  0  0  0
 15  4  2  0  0  0  0
 16  8  1  0  0  0  0
 17 28  1  1  0  0  0
 17 25  1  0  0  0  0
 18  4  1  1  0  0  0
 18  1  1  0  0  0  0
 19  6  1  1  0  0  0
 19  3  1  0  0  0  0
 19  5  1  0  0  0  0
 20 18  1  0  0  0  0
 22 10  1  0  0  0  0
 23 21  2  0  0  0  0
 24 22  1  0  0  0  0
 25 14  1  1  0  0  0
 26 21  1  0  0  0  0
 27  2  1  0  0  0  0
 29 28  1  0  0  0  0
 29 32  1  0  0  0  0
 31 33  1  0  0  0  0
 32 31  1  0  0  0  0
 32 34  1  0  0  0  0
 33 30  1  0  0  0  0
 34 30  1  0  0  0  0
M  END
>  <MODEL>
6

>  <REMARK>
 VINA RESULT:      -8.2      4.545      8.013
  Name = 
  3 active torsions:
  status: ('A' for Active; 'I' for Inactive)
    1  A    between atoms: C_17  and  N_28
    2  A    between atoms: N_28  and  C_29
    3  A    between atoms: C_29  and  C_32
                            x       y       z     vdW  Elec       q    Type
                         _______ _______ _______ _____ _____    ______ ____

>  <TORSDO>
F 3

$$$$
=
 OpenBabel11122412073D

 34 40  0  0  1  0  0  0  0  0999 V2000
  186.5030  178.5420  140.7720 C   0  0  0  0  0  0  0  0  0  0  0  0
  184.7360  178.3980  138.9820 C   0  0  0  0  0  3  0  0  0  0  0  0
  188.2640  176.7640  146.7450 C   0  0  2  0  0  3  0  0  0  0  0  0
  187.9990  178.1050  142.6290 C   0  0  0  0  0  0  0  0  0  0  0  0
  186.9780  177.8800  144.8610 C   0  0  0  0  0  0  0  0  0  0  0  0
  187.0590  178.9840  147.1140 C   0  0  0  0  0  1  0  0  0  0  0  0
  187.9300  176.0030  148.0130 C   0  0  0  0  0  1  0  0  0  0  0  0
  189.8200  178.2430  145.7910 C   0  0  0  0  0  2  0  0  0  0  0  0
  184.0770  179.1680  141.1060 C   0  0  2  0  0  3  0  0  0  0  0  0
  181.1120  178.2830  142.0640 C   0  0  0  0  0  2  0  0  0  0  0  0
  185.7480  178.0940  144.3720 C   0  0  0  0  0  3  0  0  0  0  0  0
  189.5530  177.5670  144.4480 C   0  0  0  0  0  2  0  0  0  0  0  0
  184.1420  178.3940  142.4440 C   0  0  1  0  0  3  0  0  0  0  0  0
  183.4180  178.4400  138.9220 C   0  0  0  0  0  3  0  0  0  0  0  0
  188.1710  177.8930  143.9460 C   0  0  0  0  0  0  0  0  0  0  0  0
  189.4950  177.4450  146.9150 O   0  0  0  0  0  0  0  0  0  0  0  0
  181.8960  177.8040  140.8290 C   0  0  2  0  0  3  0  0  0  0  0  0
  186.6540  178.3590  142.0920 C   0  0  0  0  0  0  0  0  0  0  0  0
  187.0850  177.6660  146.3480 C   0  0  2  0  0  3  0  0  0  0  0  0
  185.5170  178.3630  142.9780 N   0  0  0  0  0  0  0  0  0  0  0  0
  188.8430  178.2530  140.3110 C   0  0  0  0  0  3  0  0  0  0  0  0
  181.8000  179.3780  142.8820 C   0  0  0  0  0  2  0  0  0  0  0  0
  189.0950  178.0650  141.7090 N   0  0  0  0  0  2  0  0  0  0  0  0
  183.1420  178.9460  143.4750 C   0  0  0  0  0  2  0  0  0  0  0  0
  182.8280  178.8810  140.2340 C   0  0  1  0  0  3  0  0  0  0  0  0
  187.6330  178.4720  139.8820 N   0  0  0  0  0  0  0  0  0  0  0  0
  185.1950  178.7940  140.2600 N   0  0  0  0  0  0  0  0  0  0  0  0
  180.9510  177.3270  139.8310 N   0  0  0  0  0  2  0  0  0  0  0  0
  180.9560  175.8750  139.9010 C   0  0  0  0  0  2  0  0  0  0  0  0
  181.7600  176.3570  136.4090 C   0  0  0  0  0  2  0  0  0  0  0  0
  182.6170  175.0500  138.2350 C   0  0  0  0  0  2  0  0  0  0  0  0
  181.1490  175.2890  138.5160 C   0  0  0  0  0  3  0  0  0  0  0  0
  182.7800  175.2940  136.7550 C   0  0  0  0  0  2  0  0  0  0  0  0
  180.6710  176.2730  137.4640 C   0  0  0  0  0  2  0  0  0  0  0  0
  1 18  2  0  0  0  0
  2 27  1  0  0  0  0
  3 16  1  0  0  0  0
  3  7  1  1  0  0  0
  4 15  2  0  0  0  0
  5 19  1  0  0  0  0
  8 16  1  0  0  0  0
  9 27  1  6  0  0  0
  9 13  1  0  0  0  0
 10 22  1  0  0  0  0
 11  5  2  0  0  0  0
 12  8  1  0  0  0  0
 13 20  1  0  0  0  0
 13 24  1  1  0  0  0
 14  2  2  0  0  0  0
 15 12  1  0  0  0  0
 15  5  1  0  0  0  0
 17 28  1  6  0  0  0
 17 10  1  0  0  0  0
 18  4  1  0  0  0  0
 18 20  1  0  0  0  0
 19  3  1  0  0  0  0
 19  6  1  1  0  0  0
 20 11  1  0  0  0  0
 21 23  1  0  0  0  0
 22 24  1  0  0  0  0
 23  4  1  0  0  0  0
 25 14  1  6  0  0  0
 25 17  1  0  0  0  0
 25  9  1  0  0  0  0
 26 21  2  0  0  0  0
 26  1  1  0  0  0  0
 27  1  1  0  0  0  0
 28 29  1  0  0  0  0
 30 33  1  0  0  0  0
 30 34  1  0  0  0  0
 31 32  1  0  0  0  0
 32 29  1  0  0  0  0
 33 31  1  0  0  0  0
 34 32  1  0  0  0  0
M  END
>  <MODEL>
7

>  <REMARK>
 VINA RESULT:      -8.2      4.253      8.846
  Name = 
  3 active torsions:
  status: ('A' for Active; 'I' for Inactive)
    1  A    between atoms: C_17  and  N_28
    2  A    between atoms: N_28  and  C_29
    3  A    between atoms: C_29  and  C_32
                            x       y       z     vdW  Elec       q    Type
                         _______ _______ _______ _____ _____    ______ ____

>  <TORSDO>
F 3

$$$$
=
 OpenBabel11122412073D

 34 40  0  0  1  0  0  0  0  0999 V2000
  186.8280  178.5870  141.2710 C   0  0  0  0  0  0  0  0  0  0  0  0
  187.1010  178.3870  143.7670 C   0  0  0  0  0  3  0  0  0  0  0  0
  188.0750  175.9330  135.4960 C   0  0  2  0  0  3  0  0  0  0  0  0
  186.5610  178.1540  138.9000 C   0  0  0  0  0  0  0  0  0  0  0  0
  188.4420  177.0590  137.7430 C   0  0  0  0  0  0  0  0  0  0  0  0
  190.0470  177.5110  135.8670 C   0  0  0  0  0  1  0  0  0  0  0  0
  188.7100  174.8040  134.7080 C   0  0  0  0  0  1  0  0  0  0  0  0
  186.9920  178.0060  135.2770 C   0  0  0  0  0  2  0  0  0  0  0  0
  189.0500  178.3430  142.4490 C   0  0  2  0  0  3  0  0  0  0  0  0
  191.4110  176.3900  143.4990 C   0  0  0  0  0  2  0  0  0  0  0  0
  189.1680  177.0120  138.8680 C   0  0  0  0  0  3  0  0  0  0  0  0
  186.1900  177.6550  136.5280 C   0  0  0  0  0  2  0  0  0  0  0  0
  189.4240  177.3050  141.3660 C   0  0  1  0  0  3  0  0  0  0  0  0
  188.0580  178.0450  144.6090 C   0  0  0  0  0  3  0  0  0  0  0  0
  187.0660  177.6690  137.7530 C   0  0  0  0  0  0  0  0  0  0  0  0
  187.5280  176.8840  134.6000 O   0  0  0  0  0  0  0  0  0  0  0  0
  189.9700  176.5070  144.0240 C   0  0  2  0  0  3  0  0  0  0  0  0
  187.3630  178.1210  140.1330 C   0  0  0  0  0  0  0  0  0  0  0  0
  189.0880  176.5080  136.4980 C   0  0  2  0  0  3  0  0  0  0  0  0
  188.6870  177.5520  140.1110 N   0  0  0  0  0  0  0  0  0  0  0  0
  184.7330  179.1460  140.2350 C   0  0  0  0  0  3  0  0  0  0  0  0
  191.7830  177.3880  142.4010 C   0  0  0  0  0  2  0  0  0  0  0  0
  185.2340  178.6870  138.9740 N   0  0  0  0  0  2  0  0  0  0  0  0
  190.9430  177.2420  141.1310 C   0  0  0  0  0  2  0  0  0  0  0  0
  189.3840  177.9310  143.9060 C   0  0  1  0  0  3  0  0  0  0  0  0
  185.4800  179.0940  141.3000 N   0  0  0  0  0  0  0  0  0  0  0  0
  187.6150  178.5570  142.4610 N   0  0  0  0  0  0  0  0  0  0  0  0
  189.9350  176.0440  145.4030 N   0  0  0  0  0  2  0  0  0  0  0  0
  190.6860  177.0070  146.1920 C   0  0  0  0  0  2  0  0  0  0  0  0
  188.3880  178.6260  148.4660 C   0  0  0  0  0  2  0  0  0  0  0  0
  188.7600  176.3940  147.6530 C   0  0  0  0  0  2  0  0  0  0  0  0
  190.0890  177.1170  147.5820 C   0  0  0  0  0  3  0  0  0  0  0  0
  187.9300  177.1930  148.6280 C   0  0  0  0  0  2  0  0  0  0  0  0
  189.8000  178.5690  147.9100 C   0  0  0  0  0  2  0  0  0  0  0  0
  1 26  1  0  0  0  0
  1 27  1  0  0  0  0
  2 14  2  0  0  0  0
  3  7  1  6  0  0  0
  3 19  1  0  0  0  0
  4 23  1  0  0  0  0
  4 18  1  0  0  0  0
  5 15  1  0  0  0  0
  5 11  2  0  0  0  0
  8 12  1  0  0  0  0
  9 27  1  1  0  0  0
  9 25  1  0  0  0  0
 10 17  1  0  0  0  0
 11 20  1  0  0  0  0
 12 15  1  0  0  0  0
 13 24  1  6  0  0  0
 13  9  1  0  0  0  0
 15  4  2  0  0  0  0
 16  8  1  0  0  0  0
 16  3  1  0  0  0  0
 17 28  1  1  0  0  0
 18  1  2  0  0  0  0
 19  6  1  6  0  0  0
 19  5  1  0  0  0  0
 20 18  1  0  0  0  0
 20 13  1  0  0  0  0
 21 26  2  0  0  0  0
 22 10  1  0  0  0  0
 23 21  1  0  0  0  0
 24 22  1  0  0  0  0
 25 17  1  0  0  0  0
 25 14  1  1  0  0  0
 27  2  1  0  0  0  0
 28 29  1  0  0  0  0
 29 32  1  0  0  0  0
 30 33  1  0  0  0  0
 31 33  1  0  0  0  0
 32 31  1  0  0  0  0
 32 34  1  0  0  0  0
 34 30  1  0  0  0  0
M  END
>  <MODEL>
8

>  <REMARK>
 VINA RESULT:      -8.0      2.277      3.197
  Name = 
  3 active torsions:
  status: ('A' for Active; 'I' for Inactive)
    1  A    between atoms: C_17  and  N_28
    2  A    between atoms: N_28  and  C_29
    3  A    between atoms: C_29  and  C_32
                            x       y       z     vdW  Elec       q    Type
                         _______ _______ _______ _____ _____    ______ ____

>  <TORSDO>
F 3

$$$$
=
 OpenBabel11122412073D

 34 40  0  0  1  0  0  0  0  0999 V2000
  186.6340  178.2950  142.0960 C   0  0  0  0  0  0  0  0  0  0  0  0
  189.0180  177.4850  142.0490 C   0  0  0  0  0  3  0  0  0  0  0  0
  180.8270  178.0880  139.2350 C   0  0  2  0  0  3  0  0  0  0  0  0
  184.2270  178.5120  141.8940 C   0  0  0  0  0  0  0  0  0  0  0  0
  183.2940  178.5580  139.6130 C   0  0  0  0  0  0  0  0  0  0  0  0
  181.9660  180.0870  138.1300 C   0  0  0  0  0  1  0  0  0  0  0  0
  179.9640  177.5480  138.1120 C   0  0  0  0  0  1  0  0  0  0  0  0
  180.8490  179.5990  141.0340 C   0  0  0  0  0  2  0  0  0  0  0  0
  188.1840  178.5350  140.1150 C   0  0  2  0  0  3  0  0  0  0  0  0
  189.2580  177.3470  137.2990 C   0  0  0  0  0  2  0  0  0  0  0  0
  184.5110  178.4480  139.0620 C   0  0  0  0  0  3  0  0  0  0  0  0
  181.7820  178.6320  141.7600 C   0  0  0  0  0  2  0  0  0  0  0  0
  187.0040  178.0680  139.2320 C   0  0  1  0  0  3  0  0  0  0  0  0
  189.9500  177.2800  141.1370 C   0  0  0  0  0  3  0  0  0  0  0  0
  183.1390  178.6000  141.1090 C   0  0  0  0  0  0  0  0  0  0  0  0
  180.0700  178.9960  140.0160 O   0  0  0  0  0  0  0  0  0  0  0  0
  189.4670  176.7780  138.7130 C   0  0  2  0  0  3  0  0  0  0  0  0
  185.5650  178.4100  141.2930 C   0  0  2  0  0  3  0  0  0  0  0  0
  182.1300  178.6680  138.6630 C   0  0  2  0  0  3  0  0  0  0  0  0
  185.7070  178.3880  139.8590 N   0  0  0  0  0  0  0  0  0  0  0  0
  185.3180  178.3400  144.1060 C   0  0  0  0  0  3  0  0  0  0  0  0
  188.5220  178.6870  137.2420 C   0  0  0  0  0  2  0  0  0  0  0  0
  184.1270  178.4840  143.3230 N   0  0  0  0  0  0  0  0  0  0  0  0
  187.0990  178.6280  137.8020 C   0  0  0  0  0  2  0  0  0  0  0  0
  189.5470  177.8630  139.8090 C   0  0  1  0  0  3  0  0  0  0  0  0
  186.4810  178.2510  143.5270 N   0  0  0  0  0  0  0  0  0  0  0  0
  187.9290  178.2040  141.5040 N   0  0  0  0  0  0  0  0  0  0  0  0
  190.6640  175.9510  138.7120 N   0  0  0  0  0  2  0  0  0  0  0  0
  190.6640  175.2050  137.4650 C   0  0  0  0  0  2  0  0  0  0  0  0
  194.2420  175.0900  137.9730 C   0  0  0  0  0  2  0  0  0  0  0  0
  192.5930  173.7530  136.8430 C   0  0  0  0  0  2  0  0  0  0  0  0
  192.0620  175.1700  136.8790 C   0  0  0  0  0  3  0  0  0  0  0  0
  194.0790  173.8840  137.0730 C   0  0  0  0  0  2  0  0  0  0  0  0
  193.0140  175.9580  137.7600 C   0  0  0  0  0  2  0  0  0  0  0  0
  1 26  2  0  0  0  0
  3  7  1  6  0  0  0
  3 16  1  0  0  0  0
  4 23  1  0  0  0  0
  5 15  1  0  0  0  0
  8 12  1  0  0  0  0
  9 27  1  1  0  0  0
 10 17  1  0  0  0  0
 11  5  2  0  0  0  0
 11 20  1  0  0  0  0
 13 24  1  6  0  0  0
 13 20  1  0  0  0  0
 13  9  1  0  0  0  0
 14  2  2  0  0  0  0
 15 12  1  0  0  0  0
 15  4  2  0  0  0  0
 16  8  1  0  0  0  0
 17 28  1  6  0  0  0
 17 25  1  0  0  0  0
 18  4  1  1  0  0  0
 18  1  1  0  0  0  0
 19  6  1  1  0  0  0
 19  3  1  0  0  0  0
 19  5  1  0  0  0  0
 20 18  1  0  0  0  0
 22 10  1  0  0  0  0
 22 24  1  0  0  0  0
 23 21  2  0  0  0  0
 25  9  1  0  0  0  0
 25 14  1  1  0  0  0
 26 21  1  0  0  0  0
 27  2  1  0  0  0  0
 27  1  1  0  0  0  0
 29 28  1  0  0  0  0
 31 32  1  0  0  0  0
 31 33  1  0  0  0  0
 32 29  1  0  0  0  0
 32 34  1  0  0  0  0
 33 30  1  0  0  0  0
 34 30  1  0  0  0  0
M  END
>  <MODEL>
9

>  <REMARK>
 VINA RESULT:      -8.0      3.793      8.802
  Name = 
  3 active torsions:
  status: ('A' for Active; 'I' for Inactive)
    1  A    between atoms: C_17  and  N_28
    2  A    between atoms: N_28  and  C_29
    3  A    between atoms: C_29  and  C_32
                            x       y       z     vdW  Elec       q    Type
                         _______ _______ _______ _____ _____    ______ ____

>  <TORSDO>
F 3

$$$$
