=
 OpenBabel11122410313D

 30 35  0  0  1  0  0  0  0  0999 V2000
  186.5460  178.5020  142.7920 C   0  0  2  0  0  3  0  0  0  0  0  0
  185.0780  178.7400  144.8620 C   0  0  0  0  0  0  0  0  0  0  0  0
  183.0510  178.7580  140.4060 N   0  0  0  0  0  2  0  0  0  0  0  0
  186.6070  178.7360  141.3030 N   0  0  1  0  0  0  0  0  0  0  0  0
  187.0980  177.1310  143.2070 C   0  0  0  0  0  2  0  0  0  0  0  0
  189.4580  179.0610  141.9450 O   0  0  0  0  0  1  0  0  0  0  0  0
  187.2770  177.9530  138.2040 N   0  0  0  0  0  0  0  0  0  0  0  0
  188.9490  177.8060  141.6050 C   0  0  1  0  0  3  0  0  0  0  0  0
  185.9060  177.4970  138.3520 C   0  0  2  0  0  3  0  0  0  0  0  0
  183.6450  178.4850  139.1440 C   0  0  0  0  0  0  0  0  0  0  0  0
  188.5890  177.0410  142.8800 C   0  0  2  0  0  3  0  0  0  0  0  0
  187.7170  177.9510  140.6960 C   0  0  2  0  0  3  0  0  0  0  0  0
  183.8590  178.8790  145.4490 N   0  0  0  0  0  0  0  0  0  0  0  0
  185.3740  177.4080  136.9260 C   0  0  0  0  0  2  0  0  0  0  0  0
  187.6990  178.1010  136.8270 C   0  0  0  0  0  2  0  0  0  0  0  0
  186.1790  178.6050  145.6420 F   0  0  0  0  0  0  0  0  0  0  0  0
  184.1830  179.1020  141.2410 C   0  0  2  0  0  3  0  0  0  0  0  0
  182.7230  179.0300  144.7180 C   0  0  0  0  0  3  0  0  0  0  0  0
  185.1910  178.7320  143.4600 C   0  0  0  0  0  0  0  0  0  0  0  0
  185.3380  178.2940  140.6940 C   0  0  1  0  0  3  0  0  0  0  0  0
  182.9590  178.3110  138.1030 O   0  0  0  0  0  0  0  0  0  0  0  0
  185.1440  178.5300  139.1920 C   0  0  1  0  0  3  0  0  0  0  0  0
  186.5710  177.5290  135.9950 C   0  0  0  0  0  2  0  0  0  0  0  0
  189.0500  179.1720  139.1110 O   0  0  0  0  0  0  0  0  0  0  0  0
  182.7860  179.0530  143.3260 C   0  0  0  0  0  3  0  0  0  0  0  0
  184.0220  178.8790  142.6970 C   0  0  0  0  0  0  0  0  0  0  0  0
  188.0730  178.3990  139.3070 C   0  0  0  0  0  0  0  0  0  0  0  0
  188.9540  175.7010  142.7460 O   0  0  0  0  0  0  0  0  0  0  0  0
  190.7510  176.3410  144.1640 C   0  0  0  0  0  1  0  0  0  0  0  0
  190.3460  175.6960  142.8560 C   0  0  0  0  0  2  0  0  0  0  0  0
  1  5  1  6  0  0  0
  1 19  1  0  0  0  0
  2 13  1  0  0  0  0
  2 16  1  0  0  0  0
  3 17  1  0  0  0  0
  4  1  1  0  0  0  0
  7  9  1  0  0  0  0
  7 27  1  0  0  0  0
  8  6  1  0  0  0  0
  8 11  1  0  0  0  0
  9 22  1  0  0  0  0
 10 22  1  0  0  0  0
 10  3  1  0  0  0  0
 11  5  1  0  0  0  0
 12  4  1  0  0  0  0
 12  8  1  0  0  0  0
 14  9  1  0  0  0  0
 15  7  1  0  0  0  0
 17 26  1  0  0  0  0
 18 13  2  0  0  0  0
 19  2  2  0  0  0  0
 20 17  1  0  0  0  0
 20  4  1  0  0  0  0
 21 10  2  0  0  0  0
 22 20  1  0  0  0  0
 23 15  1  0  0  0  0
 23 14  1  0  0  0  0
 24 27  2  0  0  0  0
 25 18  1  0  0  0  0
 26 25  2  0  0  0  0
 26 19  1  0  0  0  0
 27 12  1  0  0  0  0
 28 30  1  0  0  0  0
 28 11  1  0  0  0  0
 30 29  1  0  0  0  0
M  END
>  <MODEL>
1

>  <REMARK>
 VINA RESULT:      -8.1      0.000      0.000
  Name = 
  2 active torsions:
  status: ('A' for Active; 'I' for Inactive)
    1  A    between atoms: C_11  and  O_28
    2  A    between atoms: O_28  and  C_30
                            x       y       z     vdW  Elec       q    Type
                         _______ _______ _______ _____ _____    ______ ____

>  <TORSDO>
F 2

$$$$
=
 OpenBabel11122410313D

 30 35  0  0  1  0  0  0  0  0999 V2000
  186.8490  178.3080  138.1400 C   0  0  2  0  0  3  0  0  0  0  0  0
  187.9300  177.9040  135.8670 C   0  0  0  0  0  0  0  0  0  0  0  0
  190.4140  176.9250  139.9700 N   0  0  0  0  0  2  0  0  0  0  0  0
  187.1290  178.5150  139.6080 N   0  0  1  0  0  0  0  0  0  0  0  0
  185.6870  177.3370  137.8820 C   0  0  0  0  0  2  0  0  0  0  0  0
  184.6600  180.0950  139.3750 O   0  0  0  0  0  1  0  0  0  0  0  0
  186.6690  178.0550  142.8080 N   0  0  0  0  0  0  0  0  0  0  0  0
  184.6030  178.7380  139.7010 C   0  0  1  0  0  3  0  0  0  0  0  0
  187.6530  177.0360  142.4840 C   0  0  2  0  0  3  0  0  0  0  0  0
  189.9650  176.9230  141.3180 C   0  0  0  0  0  0  0  0  0  0  0  0
  184.3830  177.9180  138.4280 C   0  0  2  0  0  3  0  0  0  0  0  0
  185.8960  178.2990  140.4110 C   0  0  2  0  0  3  0  0  0  0  0  0
  188.9760  177.4930  135.1010 N   0  0  0  0  0  0  0  0  0  0  0  0
  188.3030  176.6900  143.8190 C   0  0  0  0  0  2  0  0  0  0  0  0
  186.5750  178.3490  144.2220 C   0  0  0  0  0  2  0  0  0  0  0  0
  186.7780  178.2910  135.2650 F   0  0  0  0  0  0  0  0  0  0  0  0
  189.4400  177.7560  139.2930 C   0  0  2  0  0  3  0  0  0  0  0  0
  190.1590  177.1060  135.6490 C   0  0  0  0  0  3  0  0  0  0  0  0
  188.0430  177.9200  137.2700 C   0  0  0  0  0  0  0  0  0  0  0  0
  188.1470  177.5400  140.0460 C   0  0  1  0  0  3  0  0  0  0  0  0
  190.6530  176.4400  142.2550 O   0  0  0  0  0  0  0  0  0  0  0  0
  188.6550  177.6350  141.4880 C   0  0  1  0  0  3  0  0  0  0  0  0
  187.4440  177.3160  144.9080 C   0  0  0  0  0  2  0  0  0  0  0  0
  185.5070  179.9560  142.1090 O   0  0  0  0  0  0  0  0  0  0  0  0
  190.3280  177.1280  137.0320 C   0  0  0  0  0  3  0  0  0  0  0  0
  189.2580  177.5130  137.8440 C   0  0  0  0  0  0  0  0  0  0  0  0
  185.9950  178.8320  141.8120 C   0  0  0  0  0  0  0  0  0  0  0  0
  183.4850  176.8800  138.6840 O   0  0  0  0  0  0  0  0  0  0  0  0
  181.3940  176.4520  139.7300 C   0  0  0  0  0  1  0  0  0  0  0  0
  182.3680  177.5040  139.2440 C   0  0  0  0  0  2  0  0  0  0  0  0
  1  5  1  1  0  0  0
  1  4  1  0  0  0  0
  2 19  1  0  0  0  0
  3 10  1  0  0  0  0
  4 20  1  0  0  0  0
  4 12  1  0  0  0  0
  5 11  1  0  0  0  0
  6  8  1  0  0  0  0
  7 15  1  0  0  0  0
  8 12  1  0  0  0  0
  9  7  1  0  0  0  0
  9 14  1  0  0  0  0
 10 22  1  0  0  0  0
 10 21  2  0  0  0  0
 11 28  1  0  0  0  0
 11  8  1  0  0  0  0
 12 27  1  0  0  0  0
 13 18  1  0  0  0  0
 13  2  2  0  0  0  0
 14 23  1  0  0  0  0
 15 23  1  0  0  0  0
 16  2  1  0  0  0  0
 17  3  1  0  0  0  0
 17 20  1  0  0  0  0
 18 25  2  0  0  0  0
 19 26  2  0  0  0  0
 19  1  1  0  0  0  0
 20 22  1  0  0  0  0
 22  9  1  0  0  0  0
 25 26  1  0  0  0  0
 26 17  1  0  0  0  0
 27 24  2  0  0  0  0
 27  7  1  0  0  0  0
 28 30  1  0  0  0  0
 30 29  1  0  0  0  0
M  END
>  <MODEL>
2

>  <REMARK>
 VINA RESULT:      -8.0      2.848      7.243
  Name = 
  2 active torsions:
  status: ('A' for Active; 'I' for Inactive)
    1  A    between atoms: C_11  and  O_28
    2  A    between atoms: O_28  and  C_30
                            x       y       z     vdW  Elec       q    Type
                         _______ _______ _______ _____ _____    ______ ____

>  <TORSDO>
F 2

$$$$
=
 OpenBabel11122410313D

 30 35  0  0  1  0  0  0  0  0999 V2000
  188.4920  177.6330  138.2670 C   0  0  2  0  0  3  0  0  0  0  0  0
  190.7240  176.9160  137.2680 C   0  0  0  0  0  0  0  0  0  0  0  0
  190.3070  177.5930  142.0980 N   0  0  0  0  0  2  0  0  0  0  0  0
  187.8370  178.2640  139.4710 N   0  0  1  0  0  0  0  0  0  0  0  0
  187.7410  176.3950  137.7560 C   0  0  0  0  0  2  0  0  0  0  0  0
  185.9460  179.1400  137.3980 O   0  0  0  0  0  1  0  0  0  0  0  0
  185.5770  178.5420  141.8120 N   0  0  0  0  0  0  0  0  0  0  0  0
  185.7460  177.9340  138.0720 C   0  0  1  0  0  3  0  0  0  0  0  0
  186.5900  177.7200  142.4520 C   0  0  2  0  0  3  0  0  0  0  0  0
  189.1440  177.8330  142.8780 C   0  0  0  0  0  0  0  0  0  0  0  0
  186.3510  176.7890  137.2560 C   0  0  2  0  0  3  0  0  0  0  0  0
  186.3750  177.9890  139.4750 C   0  0  2  0  0  3  0  0  0  0  0  0
  192.0330  176.5680  137.4000 N   0  0  0  0  0  0  0  0  0  0  0  0
  186.3280  177.8790  143.9450 C   0  0  0  0  0  2  0  0  0  0  0  0
  184.6510  179.1570  142.7390 C   0  0  0  0  0  2  0  0  0  0  0  0
  190.1460  176.8700  136.0420 F   0  0  0  0  0  0  0  0  0  0  0  0
  189.9020  177.9860  140.7630 C   0  0  2  0  0  3  0  0  0  0  0  0
  192.6680  176.6070  138.6010 C   0  0  0  0  0  3  0  0  0  0  0  0
  189.9800  177.3140  138.3940 C   0  0  0  0  0  0  0  0  0  0  0  0
  188.4220  177.6840  140.6960 C   0  0  1  0  0  3  0  0  0  0  0  0
  189.1540  177.7700  144.1350 O   0  0  0  0  0  0  0  0  0  0  0  0
  187.9690  178.2540  142.0440 C   0  0  1  0  0  3  0  0  0  0  0  0
  184.9720  178.5540  144.0900 C   0  0  0  0  0  2  0  0  0  0  0  0
  185.0030  179.8940  139.9960 O   0  0  0  0  0  0  0  0  0  0  0  0
  191.9800  177.0170  139.7420 C   0  0  0  0  0  3  0  0  0  0  0  0
  190.6260  177.3470  139.6400 C   0  0  0  0  0  0  0  0  0  0  0  0
  185.6050  178.8690  140.4180 C   0  0  0  0  0  0  0  0  0  0  0  0
  185.5080  175.6770  137.3050 O   0  0  0  0  0  0  0  0  0  0  0  0
  185.6030  173.3100  137.4980 C   0  0  0  0  0  1  0  0  0  0  0  0
  186.3570  174.5780  137.1570 C   0  0  0  0  0  2  0  0  0  0  0  0
  1  5  1  1  0  0  0
  1 19  1  0  0  0  0
  1  4  1  0  0  0  0
  2 13  2  0  0  0  0
  2 19  1  0  0  0  0
  3 10  1  0  0  0  0
  4 12  1  0  0  0  0
  4 20  1  0  0  0  0
  6  8  1  0  0  0  0
  7  9  1  0  0  0  0
  7 15  1  0  0  0  0
  8 12  1  0  0  0  0
  9 14  1  0  0  0  0
 10 21  2  0  0  0  0
 11 28  1  0  0  0  0
 11  5  1  0  0  0  0
 11  8  1  0  0  0  0
 12 27  1  0  0  0  0
 13 18  1  0  0  0  0
 14 23  1  0  0  0  0
 15 23  1  0  0  0  0
 16  2  1  0  0  0  0
 17  3  1  0  0  0  0
 18 25  2  0  0  0  0
 19 26  2  0  0  0  0
 20 17  1  0  0  0  0
 20 22  1  0  0  0  0
 22  9  1  0  0  0  0
 22 10  1  0  0  0  0
 24 27  2  0  0  0  0
 26 25  1  0  0  0  0
 26 17  1  0  0  0  0
 27  7  1  0  0  0  0
 30 28  1  0  0  0  0
 30 29  1  0  0  0  0
M  END
>  <MODEL>
3

>  <REMARK>
 VINA RESULT:      -8.0      3.164      7.021
  Name = 
  2 active torsions:
  status: ('A' for Active; 'I' for Inactive)
    1  A    between atoms: C_11  and  O_28
    2  A    between atoms: O_28  and  C_30
                            x       y       z     vdW  Elec       q    Type
                         _______ _______ _______ _____ _____    ______ ____

>  <TORSDO>
F 2

$$$$
=
 OpenBabel11122410313D

 30 35  0  0  1  0  0  0  0  0999 V2000
  188.4870  177.1160  143.6850 C   0  0  2  0  0  3  0  0  0  0  0  0
  186.2540  178.0720  142.9140 C   0  0  0  0  0  0  0  0  0  0  0  0
  187.4930  178.2570  147.6460 N   0  0  0  0  0  2  0  0  0  0  0  0
  189.2510  176.6060  144.8820 N   0  0  1  0  0  0  0  0  0  0  0  0
  189.3190  178.0540  142.7980 C   0  0  0  0  0  2  0  0  0  0  0  0
  190.5240  174.9820  142.7880 O   0  0  0  0  0  1  0  0  0  0  0  0
  191.8480  176.3220  146.8410 N   0  0  0  0  0  0  0  0  0  0  0  0
  191.0510  176.2280  143.1340 C   0  0  1  0  0  3  0  0  0  0  0  0
  191.1330  177.4410  147.4320 C   0  0  2  0  0  3  0  0  0  0  0  0
  188.7300  177.9360  148.2670 C   0  0  0  0  0  0  0  0  0  0  0  0
  190.4980  177.2960  142.1880 C   0  0  2  0  0  3  0  0  0  0  0  0
  190.7100  176.5710  144.5950 C   0  0  2  0  0  3  0  0  0  0  0  0
  185.0740  178.6990  143.1680 N   0  0  0  0  0  0  0  0  0  0  0  0
  191.6530  177.5190  148.8620 C   0  0  0  0  0  2  0  0  0  0  0  0
  192.8220  175.7190  147.7260 C   0  0  0  0  0  2  0  0  0  0  0  0
  186.5790  177.7640  141.6340 F   0  0  0  0  0  0  0  0  0  0  0  0
  187.5560  177.5430  146.3870 C   0  0  2  0  0  3  0  0  0  0  0  0
  184.6900  179.0200  144.4310 C   0  0  0  0  0  3  0  0  0  0  0  0
  187.1280  177.7520  143.9690 C   0  0  0  0  0  0  0  0  0  0  0  0
  189.0230  177.5160  146.0220 C   0  0  1  0  0  3  0  0  0  0  0  0
  188.9780  178.2390  149.4640 O   0  0  0  0  0  0  0  0  0  0  0  0
  189.6310  177.1330  147.3760 C   0  0  1  0  0  3  0  0  0  0  0  0
  192.8790  176.6210  148.9400 C   0  0  0  0  0  2  0  0  0  0  0  0
  191.8190  174.5610  145.3090 O   0  0  0  0  0  0  0  0  0  0  0  0
  185.5100  178.7040  145.5130 C   0  0  0  0  0  3  0  0  0  0  0  0
  186.7430  178.0900  145.2760 C   0  0  0  0  0  0  0  0  0  0  0  0
  191.4920  175.7480  145.5790 C   0  0  0  0  0  0  0  0  0  0  0  0
  191.5070  178.1990  141.8530 O   0  0  0  0  0  0  0  0  0  0  0  0
  191.1740  177.2440  139.7030 C   0  0  0  0  0  1  0  0  0  0  0  0
  192.1750  177.6090  140.7780 C   0  0  0  0  0  2  0  0  0  0  0  0
  1  5  1  1  0  0  0
  1 19  1  0  0  0  0
  1  4  1  0  0  0  0
  2 13  2  0  0  0  0
  2 19  1  0  0  0  0
  3 10  1  0  0  0  0
  4 20  1  0  0  0  0
  6  8  1  0  0  0  0
  7  9  1  0  0  0  0
  7 15  1  0  0  0  0
  8 12  1  0  0  0  0
  9 14  1  0  0  0  0
 10 21  2  0  0  0  0
 11  5  1  0  0  0  0
 11  8  1  0  0  0  0
 12  4  1  0  0  0  0
 12 27  1  0  0  0  0
 13 18  1  0  0  0  0
 14 23  1  0  0  0  0
 15 23  1  0  0  0  0
 16  2  1  0  0  0  0
 17  3  1  0  0  0  0
 18 25  2  0  0  0  0
 19 26  2  0  0  0  0
 20 17  1  0  0  0  0
 20 22  1  0  0  0  0
 22  9  1  0  0  0  0
 22 10  1  0  0  0  0
 24 27  2  0  0  0  0
 26 25  1  0  0  0  0
 26 17  1  0  0  0  0
 27  7  1  0  0  0  0
 28 11  1  0  0  0  0
 29 30  1  0  0  0  0
 30 28  1  0  0  0  0
M  END
>  <MODEL>
4

>  <REMARK>
 VINA RESULT:      -7.7      3.570      7.300
  Name = 
  2 active torsions:
  status: ('A' for Active; 'I' for Inactive)
    1  A    between atoms: C_11  and  O_28
    2  A    between atoms: O_28  and  C_30
                            x       y       z     vdW  Elec       q    Type
                         _______ _______ _______ _____ _____    ______ ____

>  <TORSDO>
F 2

$$$$
=
 OpenBabel11122410313D

 30 35  0  0  1  0  0  0  0  0999 V2000
  190.3070  176.5890  140.0200 C   0  0  2  0  0  3  0  0  0  0  0  0
  191.4500  176.3580  137.7540 C   0  0  0  0  0  0  0  0  0  0  0  0
  186.9500  178.2640  138.0450 N   0  0  0  0  0  2  0  0  0  0  0  0
  188.9730  176.7550  140.7050 N   0  0  1  0  0  0  0  0  0  0  0  0
  191.3960  177.5030  140.5990 C   0  0  0  0  0  2  0  0  0  0  0  0
  190.3940  175.2590  142.8010 O   0  0  0  0  0  1  0  0  0  0  0  0
  186.8920  178.0350  142.8710 N   0  0  0  0  0  0  0  0  0  0  0  0
  190.4230  176.6550  142.7860 C   0  0  1  0  0  3  0  0  0  0  0  0
  186.7140  178.9010  141.7190 C   0  0  2  0  0  3  0  0  0  0  0  0
  186.1980  178.6280  139.1930 C   0  0  0  0  0  0  0  0  0  0  0  0
  191.6800  177.1290  142.0540 C   0  0  2  0  0  3  0  0  0  0  0  0
  189.1600  177.2140  142.1080 C   0  0  2  0  0  3  0  0  0  0  0  0
  191.4630  176.5210  136.4030 N   0  0  0  0  0  0  0  0  0  0  0  0
  185.3530  179.5540  141.9320 C   0  0  0  0  0  2  0  0  0  0  0  0
  185.8150  178.1170  143.8350 C   0  0  0  0  0  2  0  0  0  0  0  0
  192.5530  175.8720  138.3740 F   0  0  0  0  0  0  0  0  0  0  0  0
  187.9210  177.3230  138.5650 C   0  0  2  0  0  3  0  0  0  0  0  0
  190.3830  176.9920  135.7260 C   0  0  0  0  0  3  0  0  0  0  0  0
  190.3040  176.6970  138.4960 C   0  0  0  0  0  0  0  0  0  0  0  0
  188.1840  177.7720  139.9840 C   0  0  1  0  0  3  0  0  0  0  0  0
  185.1420  179.3100  139.1160 O   0  0  0  0  0  0  0  0  0  0  0  0
  186.7490  178.0310  140.4550 C   0  0  1  0  0  3  0  0  0  0  0  0
  184.9380  179.2590  143.3660 C   0  0  0  0  0  2  0  0  0  0  0  0
  187.8030  176.0620  143.7240 O   0  0  0  0  0  0  0  0  0  0  0  0
  189.2150  177.3190  136.4140 C   0  0  0  0  0  3  0  0  0  0  0  0
  189.1870  177.1940  137.8060 C   0  0  0  0  0  0  0  0  0  0  0  0
  187.9310  177.0550  142.9570 C   0  0  0  0  0  0  0  0  0  0  0  0
  192.2260  178.2290  142.7170 O   0  0  0  0  0  0  0  0  0  0  0  0
  191.3020  179.6960  144.3430 C   0  0  0  0  0  1  0  0  0  0  0  0
  191.5780  178.2590  143.9540 C   0  0  0  0  0  2  0  0  0  0  0  0
  1  5  1  1  0  0  0
  1  4  1  0  0  0  0
  2 16  1  0  0  0  0
  2 19  1  0  0  0  0
  3 17  1  0  0  0  0
  3 10  1  0  0  0  0
  4 12  1  0  0  0  0
  5 11  1  0  0  0  0
  7 27  1  0  0  0  0
  7 15  1  0  0  0  0
  8  6  1  0  0  0  0
  9 14  1  0  0  0  0
  9  7  1  0  0  0  0
 10 22  1  0  0  0  0
 11 28  1  0  0  0  0
 11  8  1  0  0  0  0
 12  8  1  0  0  0  0
 12 27  1  0  0  0  0
 13  2  2  0  0  0  0
 14 23  1  0  0  0  0
 17 20  1  0  0  0  0
 18 13  1  0  0  0  0
 18 25  2  0  0  0  0
 19  1  1  0  0  0  0
 20 22  1  0  0  0  0
 20  4  1  0  0  0  0
 21 10  2  0  0  0  0
 22  9  1  0  0  0  0
 23 15  1  0  0  0  0
 25 26  1  0  0  0  0
 26 19  2  0  0  0  0
 26 17  1  0  0  0  0
 27 24  2  0  0  0  0
 28 30  1  0  0  0  0
 30 29  1  0  0  0  0
M  END
>  <MODEL>
5

>  <REMARK>
 VINA RESULT:      -7.5      2.859      6.109
  Name = 
  2 active torsions:
  status: ('A' for Active; 'I' for Inactive)
    1  A    between atoms: C_11  and  O_28
    2  A    between atoms: O_28  and  C_30
                            x       y       z     vdW  Elec       q    Type
                         _______ _______ _______ _____ _____    ______ ____

>  <TORSDO>
F 2

$$$$
=
 OpenBabel11122410313D

 30 35  0  0  1  0  0  0  0  0999 V2000
  188.8920  177.8280  142.5290 C   0  0  2  0  0  3  0  0  0  0  0  0
  186.6990  178.3650  143.7120 C   0  0  0  0  0  0  0  0  0  0  0  0
  186.8300  178.0260  138.8300 N   0  0  0  0  0  2  0  0  0  0  0  0
  189.6180  177.9000  141.2090 N   0  0  1  0  0  0  0  0  0  0  0  0
  189.0720  176.4790  143.2410 C   0  0  0  0  0  2  0  0  0  0  0  0
  191.9200  178.1300  143.0230 O   0  0  0  0  0  1  0  0  0  0  0  0
  191.4930  176.7580  138.7910 N   0  0  0  0  0  0  0  0  0  0  0  0
  191.4910  176.8770  142.5820 C   0  0  1  0  0  3  0  0  0  0  0  0
  190.1570  176.3980  138.3470 C   0  0  2  0  0  3  0  0  0  0  0  0
  187.8850  177.5900  137.9850 C   0  0  0  0  0  0  0  0  0  0  0  0
  190.5390  176.2720  143.6150 C   0  0  2  0  0  3  0  0  0  0  0  0
  190.7990  176.9940  141.2130 C   0  0  2  0  0  3  0  0  0  0  0  0
  185.3650  178.6330  143.6870 N   0  0  0  0  0  0  0  0  0  0  0  0
  190.2940  176.1890  136.8430 C   0  0  0  0  0  2  0  0  0  0  0  0
  192.4850  176.7360  137.7370 C   0  0  0  0  0  2  0  0  0  0  0  0
  187.3300  178.2520  144.9060 F   0  0  0  0  0  0  0  0  0  0  0  0
  187.5120  178.3930  140.0540 C   0  0  2  0  0  3  0  0  0  0  0  0
  184.6830  178.7710  142.5190 C   0  0  0  0  0  3  0  0  0  0  0  0
  187.4110  178.2030  142.5090 C   0  0  0  0  0  0  0  0  0  0  0  0
  188.7050  177.4680  140.1330 C   0  0  1  0  0  3  0  0  0  0  0  0
  187.7080  177.3450  136.7620 O   0  0  0  0  0  0  0  0  0  0  0  0
  189.2090  177.5550  138.6880 C   0  0  1  0  0  3  0  0  0  0  0  0
  191.7830  176.1430  136.5330 C   0  0  0  0  0  2  0  0  0  0  0  0
  192.8020  177.9640  140.3020 O   0  0  0  0  0  0  0  0  0  0  0  0
  185.3480  178.6430  141.3010 C   0  0  0  0  0  3  0  0  0  0  0  0
  186.7110  178.3340  141.2990 C   0  0  0  0  0  0  0  0  0  0  0  0
  191.7670  177.2730  140.0980 C   0  0  0  0  0  0  0  0  0  0  0  0
  190.7940  174.9070  143.7510 O   0  0  0  0  0  0  0  0  0  0  0  0
  192.0170  175.5260  145.6930 C   0  0  0  0  0  1  0  0  0  0  0  0
  192.0550  174.8360  144.3470 C   0  0  0  0  0  2  0  0  0  0  0  0
  1  5  1  6  0  0  0
  2 16  1  0  0  0  0
  3 17  1  0  0  0  0
  4 12  1  0  0  0  0
  4  1  1  0  0  0  0
  5 11  1  0  0  0  0
  7 27  1  0  0  0  0
  8  6  1  0  0  0  0
  8 11  1  0  0  0  0
  9 22  1  0  0  0  0
  9  7  1  0  0  0  0
 10 22  1  0  0  0  0
 10  3  1  0  0  0  0
 11 28  1  0  0  0  0
 12  8  1  0  0  0  0
 13  2  1  0  0  0  0
 14  9  1  0  0  0  0
 15  7  1  0  0  0  0
 17 20  1  0  0  0  0
 17 26  1  0  0  0  0
 18 13  2  0  0  0  0
 19  1  1  0  0  0  0
 19  2  2  0  0  0  0
 20  4  1  0  0  0  0
 21 10  2  0  0  0  0
 22 20  1  0  0  0  0
 23 14  1  0  0  0  0
 23 15  1  0  0  0  0
 25 18  1  0  0  0  0
 26 25  2  0  0  0  0
 26 19  1  0  0  0  0
 27 24  2  0  0  0  0
 27 12  1  0  0  0  0
 28 30  1  0  0  0  0
 30 29  1  0  0  0  0
M  END
>  <MODEL>
6

>  <REMARK>
 VINA RESULT:      -7.4      2.447      3.522
  Name = 
  2 active torsions:
  status: ('A' for Active; 'I' for Inactive)
    1  A    between atoms: C_11  and  O_28
    2  A    between atoms: O_28  and  C_30
                            x       y       z     vdW  Elec       q    Type
                         _______ _______ _______ _____ _____    ______ ____

>  <TORSDO>
F 2

$$$$
=
 OpenBabel11122410313D

 30 35  0  0  1  0  0  0  0  0999 V2000
  188.3670  178.0210  139.3550 C   0  0  2  0  0  3  0  0  0  0  0  0
  190.7810  177.4030  139.8890 C   0  0  0  0  0  0  0  0  0  0  0  0
  187.5540  178.0330  143.5160 N   0  0  0  0  0  2  0  0  0  0  0  0
  187.1030  178.6160  139.9230 N   0  0  1  0  0  0  0  0  0  0  0  0
  188.1130  176.7550  138.5230 C   0  0  0  0  0  2  0  0  0  0  0  0
  186.7810  179.4260  137.1150 O   0  0  0  0  0  1  0  0  0  0  0  0
  183.8870  178.7860  140.4600 N   0  0  0  0  0  0  0  0  0  0  0  0
  186.2650  178.2080  137.5630 C   0  0  1  0  0  3  0  0  0  0  0  0
  184.3510  178.0030  141.5930 C   0  0  2  0  0  3  0  0  0  0  0  0
  186.1480  178.2200  143.4480 C   0  0  0  0  0  0  0  0  0  0  0  0
  187.2770  177.0940  137.2880 C   0  0  2  0  0  3  0  0  0  0  0  0
  185.9350  178.2810  139.0640 C   0  0  2  0  0  3  0  0  0  0  0  0
  191.7680  177.1090  140.7790 N   0  0  0  0  0  0  0  0  0  0  0  0
  183.2480  178.1420  142.6360 C   0  0  0  0  0  2  0  0  0  0  0  0
  182.5690  179.3570  140.6450 C   0  0  0  0  0  2  0  0  0  0  0  0
  191.0460  177.3410  138.5610 F   0  0  0  0  0  0  0  0  0  0  0  0
  188.0070  178.4160  142.1940 C   0  0  2  0  0  3  0  0  0  0  0  0
  191.5640  177.1670  142.1210 C   0  0  0  0  0  3  0  0  0  0  0  0
  189.5000  177.7620  140.3460 C   0  0  0  0  0  0  0  0  0  0  0  0
  186.8680  178.0540  141.2670 C   0  0  1  0  0  3  0  0  0  0  0  0
  185.4110  178.1500  144.4680 O   0  0  0  0  0  0  0  0  0  0  0  0
  185.6820  178.5970  142.0720 C   0  0  1  0  0  3  0  0  0  0  0  0
  182.0470  178.7590  141.9350 C   0  0  0  0  0  2  0  0  0  0  0  0
  184.4530  180.1240  138.6320 O   0  0  0  0  0  0  0  0  0  0  0  0
  190.3190  177.5410  142.6240 C   0  0  0  0  0  3  0  0  0  0  0  0
  189.2790  177.8150  141.7320 C   0  0  0  0  0  0  0  0  0  0  0  0
  184.7240  179.1220  139.3490 C   0  0  0  0  0  0  0  0  0  0  0  0
  186.6120  175.9480  136.8500 O   0  0  0  0  0  0  0  0  0  0  0  0
  186.7150  173.5890  137.1160 C   0  0  0  0  0  1  0  0  0  0  0  0
  187.4790  174.8950  137.1490 C   0  0  0  0  0  2  0  0  0  0  0  0
  1  5  1  1  0  0  0
  1  4  1  0  0  0  0
  1 19  1  0  0  0  0
  2 19  2  0  0  0  0
  2 13  1  0  0  0  0
  4 20  1  0  0  0  0
  6  8  1  0  0  0  0
  7 15  1  0  0  0  0
  7  9  1  0  0  0  0
  8 12  1  0  0  0  0
  9 22  1  0  0  0  0
  9 14  1  0  0  0  0
 10  3  1  0  0  0  0
 10 21  2  0  0  0  0
 11  8  1  0  0  0  0
 11  5  1  0  0  0  0
 12 27  1  0  0  0  0
 12  4  1  0  0  0  0
 13 18  2  0  0  0  0
 15 23  1  0  0  0  0
 16  2  1  0  0  0  0
 17  3  1  0  0  0  0
 18 25  1  0  0  0  0
 19 26  1  0  0  0  0
 20 22  1  0  0  0  0
 20 17  1  0  0  0  0
 22 10  1  0  0  0  0
 23 14  1  0  0  0  0
 24 27  2  0  0  0  0
 26 17  1  0  0  0  0
 26 25  2  0  0  0  0
 27  7  1  0  0  0  0
 28 30  1  0  0  0  0
 28 11  1  0  0  0  0
 29 30  1  0  0  0  0
M  END
>  <MODEL>
7

>  <REMARK>
 VINA RESULT:      -7.2      2.772      5.913
  Name = 
  2 active torsions:
  status: ('A' for Active; 'I' for Inactive)
    1  A    between atoms: C_11  and  O_28
    2  A    between atoms: O_28  and  C_30
                            x       y       z     vdW  Elec       q    Type
                         _______ _______ _______ _____ _____    ______ ____

>  <TORSDO>
F 2

$$$$
=
 OpenBabel11122410313D

 30 35  0  0  1  0  0  0  0  0999 V2000
  184.1930  178.7950  139.2750 C   0  0  2  0  0  3  0  0  0  0  0  0
  186.6750  178.3790  138.8750 C   0  0  0  0  0  0  0  0  0  0  0  0
  184.9690  178.8060  143.4430 N   0  0  0  0  0  2  0  0  0  0  0  0
  183.1830  179.2970  140.2780 N   0  0  1  0  0  0  0  0  0  0  0  0
  183.7520  177.5010  138.5760 C   0  0  0  0  0  2  0  0  0  0  0  0
  181.7870  180.0350  137.7970 O   0  0  0  0  0  1  0  0  0  0  0  0
  180.3870  179.2180  141.9630 N   0  0  0  0  0  0  0  0  0  0  0  0
  181.5710  178.7870  138.3860 C   0  0  1  0  0  3  0  0  0  0  0  0
  181.2970  178.4920  142.8330 C   0  0  2  0  0  3  0  0  0  0  0  0
  183.6270  178.8800  143.9010 C   0  0  0  0  0  0  0  0  0  0  0  0
  182.4970  177.7530  137.7410 C   0  0  2  0  0  3  0  0  0  0  0  0
  181.8120  178.8560  139.9030 C   0  0  2  0  0  3  0  0  0  0  0  0
  187.9400  178.1790  139.3340 N   0  0  0  0  0  0  0  0  0  0  0  0
  180.6480  178.5600  144.2110 C   0  0  0  0  0  2  0  0  0  0  0  0
  179.1900  179.6850  142.6280 C   0  0  0  0  0  2  0  0  0  0  0  0
  186.4370  178.3180  137.5410 F   0  0  0  0  0  0  0  0  0  0  0  0
  184.8720  179.2040  142.0530 C   0  0  2  0  0  3  0  0  0  0  0  0
  188.2410  178.2410  140.6580 C   0  0  0  0  0  3  0  0  0  0  0  0
  185.6280  178.6430  139.7760 C   0  0  0  0  0  0  0  0  0  0  0  0
  183.5050  178.7390  141.6050 C   0  0  1  0  0  3  0  0  0  0  0  0
  183.3250  178.7670  145.1180 O   0  0  0  0  0  0  0  0  0  0  0  0
  182.6590  179.1970  142.7980 C   0  0  1  0  0  3  0  0  0  0  0  0
  179.2280  179.0680  144.0100 C   0  0  0  0  0  2  0  0  0  0  0  0
  180.1330  180.5690  140.0750 O   0  0  0  0  0  0  0  0  0  0  0  0
  187.2420  178.5220  141.5890 C   0  0  0  0  0  3  0  0  0  0  0  0
  185.9290  178.6990  141.1470 C   0  0  0  0  0  0  0  0  0  0  0  0
  180.7280  179.6030  140.6270 C   0  0  0  0  0  0  0  0  0  0  0  0
  181.8100  176.5510  137.5600 O   0  0  0  0  0  0  0  0  0  0  0  0
  182.5440  174.3450  137.0690 C   0  0  0  0  0  1  0  0  0  0  0  0
  182.7130  175.5610  137.9540 C   0  0  0  0  0  2  0  0  0  0  0  0
  1  5  1  1  0  0  0
  1 19  1  0  0  0  0
  1  4  1  0  0  0  0
  2 13  2  0  0  0  0
  2 19  1  0  0  0  0
  3 10  1  0  0  0  0
  4 20  1  0  0  0  0
  6  8  1  0  0  0  0
  7 15  1  0  0  0  0
  7  9  1  0  0  0  0
  8 12  1  0  0  0  0
  9 14  1  0  0  0  0
 10 21  2  0  0  0  0
 11  8  1  0  0  0  0
 11  5  1  0  0  0  0
 12  4  1  0  0  0  0
 12 27  1  0  0  0  0
 13 18  1  0  0  0  0
 15 23  1  0  0  0  0
 16  2  1  0  0  0  0
 17  3  1  0  0  0  0
 18 25  2  0  0  0  0
 19 26  2  0  0  0  0
 20 17  1  0  0  0  0
 20 22  1  0  0  0  0
 22  9  1  0  0  0  0
 22 10  1  0  0  0  0
 23 14  1  0  0  0  0
 24 27  2  0  0  0  0
 26 25  1  0  0  0  0
 26 17  1  0  0  0  0
 27  7  1  0  0  0  0
 28 11  1  0  0  0  0
 28 30  1  0  0  0  0
 29 30  1  0  0  0  0
M  END
>  <MODEL>
8

>  <REMARK>
 VINA RESULT:      -7.1      3.263      7.072
  Name = 
  2 active torsions:
  status: ('A' for Active; 'I' for Inactive)
    1  A    between atoms: C_11  and  O_28
    2  A    between atoms: O_28  and  C_30
                            x       y       z     vdW  Elec       q    Type
                         _______ _______ _______ _____ _____    ______ ____

>  <TORSDO>
F 2

$$$$
=
 OpenBabel11122410313D

 30 35  0  0  1  0  0  0  0  0999 V2000
  186.4800  177.7500  142.4670 C   0  0  2  0  0  3  0  0  0  0  0  0
  184.0890  178.6280  142.3800 C   0  0  0  0  0  0  0  0  0  0  0  0
  186.3590  178.1260  146.6880 N   0  0  0  0  0  2  0  0  0  0  0  0
  187.5180  177.1150  143.3580 N   0  0  1  0  0  0  0  0  0  0  0  0
  187.0450  178.8900  141.6060 C   0  0  0  0  0  2  0  0  0  0  0  0
  188.3560  175.9770  140.7800 O   0  0  0  0  0  1  0  0  0  0  0  0
  190.5020  176.7300  144.6270 N   0  0  0  0  0  0  0  0  0  0  0  0
  188.8900  177.1880  141.2250 C   0  0  1  0  0  3  0  0  0  0  0  0
  189.8890  177.6690  145.5510 C   0  0  2  0  0  3  0  0  0  0  0  0
  187.7180  177.8130  146.9600 C   0  0  0  0  0  0  0  0  0  0  0  0
  188.0880  178.3470  140.6300 C   0  0  2  0  0  3  0  0  0  0  0  0
  188.8740  177.2520  142.7620 C   0  0  2  0  0  3  0  0  0  0  0  0
  182.9690  179.1010  142.9920 N   0  0  0  0  0  0  0  0  0  0  0  0
  190.7150  177.5520  146.8260 C   0  0  0  0  0  2  0  0  0  0  0  0
  191.6770  176.0720  145.1580 C   0  0  0  0  0  2  0  0  0  0  0  0
  184.1290  178.5660  141.0260 F   0  0  0  0  0  0  0  0  0  0  0  0
  186.1670  177.6400  145.3360 C   0  0  2  0  0  3  0  0  0  0  0  0
  182.8680  179.1740  144.3450 C   0  0  0  0  0  3  0  0  0  0  0  0
  185.1930  178.2120  143.1470 C   0  0  0  0  0  0  0  0  0  0  0  0
  187.5130  177.7990  144.6660 C   0  0  1  0  0  3  0  0  0  0  0  0
  188.2170  177.9310  148.1100 O   0  0  0  0  0  0  0  0  0  0  0  0
  188.4290  177.2480  145.7650 C   0  0  1  0  0  3  0  0  0  0  0  0
  191.9670  176.7610  146.4740 C   0  0  0  0  0  2  0  0  0  0  0  0
  190.2070  175.2530  142.8430 O   0  0  0  0  0  0  0  0  0  0  0  0
  183.9250  178.7520  145.1490 C   0  0  0  0  0  3  0  0  0  0  0  0
  185.0990  178.2930  144.5450 C   0  0  0  0  0  0  0  0  0  0  0  0
  189.8950  176.3460  143.3890 C   0  0  0  0  0  0  0  0  0  0  0  0
  188.9530  179.3760  140.2550 O   0  0  0  0  0  0  0  0  0  0  0  0
  188.2650  178.6250  138.1080 C   0  0  0  0  0  1  0  0  0  0  0  0
  189.4300  179.0030  138.9970 C   0  0  0  0  0  2  0  0  0  0  0  0
  1  5  1  1  0  0  0
  1 19  1  0  0  0  0
  1  4  1  0  0  0  0
  2 13  2  0  0  0  0
  2 19  1  0  0  0  0
  3 10  1  0  0  0  0
  4 20  1  0  0  0  0
  6  8  1  0  0  0  0
  7 15  1  0  0  0  0
  7  9  1  0  0  0  0
  8 12  1  0  0  0  0
  9 22  1  0  0  0  0
  9 14  1  0  0  0  0
 10 21  2  0  0  0  0
 11  8  1  0  0  0  0
 11  5  1  0  0  0  0
 12  4  1  0  0  0  0
 12 27  1  0  0  0  0
 13 18  1  0  0  0  0
 15 23  1  0  0  0  0
 16  2  1  0  0  0  0
 17  3  1  0  0  0  0
 18 25  2  0  0  0  0
 19 26  2  0  0  0  0
 20 17  1  0  0  0  0
 20 22  1  0  0  0  0
 22 10  1  0  0  0  0
 23 14  1  0  0  0  0
 24 27  2  0  0  0  0
 26 25  1  0  0  0  0
 26 17  1  0  0  0  0
 27  7  1  0  0  0  0
 28 11  1  0  0  0  0
 29 30  1  0  0  0  0
 30 28  1  0  0  0  0
M  END
>  <MODEL>
9

>  <REMARK>
 VINA RESULT:      -7.1      2.489      5.975
  Name = 
  2 active torsions:
  status: ('A' for Active; 'I' for Inactive)
    1  A    between atoms: C_11  and  O_28
    2  A    between atoms: O_28  and  C_30
                            x       y       z     vdW  Elec       q    Type
                         _______ _______ _______ _____ _____    ______ ____

>  <TORSDO>
F 2

$$$$
