=
 OpenBabel11122411583D

 28 32  0  0  1  0  0  0  0  0999 V2000
  191.3260  174.6560  137.6510 C   0  0  0  0  0  0  0  0  0  0  0  0
  190.3510  175.8010  141.2480 O   0  0  0  0  0  0  0  0  0  0  0  0
  185.3950  176.0250  137.3360 C   0  0  0  0  0  1  0  0  0  0  0  0
  193.5260  176.2930  137.2280 C   0  0  0  0  0  3  0  0  0  0  0  0
  186.8820  177.9290  137.9210 C   0  0  0  0  0  0  0  0  0  0  0  0
  190.1970  173.8490  137.7750 O   0  0  0  0  0  0  0  0  0  0  0  0
  192.1960  177.4100  141.0600 O   0  0  0  0  0  0  0  0  0  0  0  0
  190.7080  177.2340  140.9600 S   0  0  0  0  0  0  0  0  0  0  0  0
  188.1940  177.9650  141.6570 C   0  0  0  0  0  0  0  0  0  0  0  0
  190.1720  177.7170  139.3710 N   0  0  2  0  0  0  0  0  0  0  0  0
  189.9380  174.7700  134.7930 O   0  0  0  0  0  0  0  0  0  0  0  0
  189.0250  177.0530  137.3740 C   0  0  2  0  0  3  0  0  0  0  0  0
  187.9680  177.9660  140.3890 N   0  0  0  0  0  0  0  0  0  0  0  0
  189.7700  178.4900  142.3290 S   0  0  0  0  0  0  0  0  0  0  0  0
  189.1810  174.4620  135.7000 C   0  0  0  0  0  0  0  0  0  0  0  0
  191.2370  176.0150  137.9720 C   0  0  0  0  0  0  0  0  0  0  0  0
  186.7230  176.6920  137.4940 C   0  0  0  0  0  0  0  0  0  0  0  0
  187.1930  177.3530  142.5720 C   0  0  0  0  0  1  0  0  0  0  0  0
  187.9250  175.2450  135.9010 C   0  0  0  0  0  2  0  0  0  0  0  0
  192.3470  176.8380  137.7390 C   0  0  0  0  0  3  0  0  0  0  0  0
  192.4840  174.1460  137.1480 N   0  0  0  0  0  0  0  0  0  0  0  0
  193.5770  174.9280  136.9400 C   0  0  0  0  0  3  0  0  0  0  0  0
  189.5510  173.3360  136.6190 C   0  0  0  0  0  2  0  0  0  0  0  0
  188.3310  178.2950  137.9580 C   0  0  2  0  0  3  0  0  0  0  0  0
  187.9500  176.0910  137.0970 N   0  0  0  0  0  0  0  0  0  0  0  0
  188.9030  178.4600  139.3800 C   0  0  2  0  0  3  0  0  0  0  0  0
  185.7750  178.8450  138.3220 C   0  0  0  0  0  1  0  0  0  0  0  0
  189.9410  176.5700  138.5010 C   0  0  1  0  0  3  0  0  0  0  0  0
  1  6  1  0  0  0  0
  1 16  1  0  0  0  0
  3 17  1  0  0  0  0
  4 20  1  0  0  0  0
  5 27  1  0  0  0  0
  8  7  2  0  0  0  0
  8  2  2  0  0  0  0
  8 14  1  0  0  0  0
  9 14  1  0  0  0  0
  9 18  1  0  0  0  0
 10 26  1  0  0  0  0
 10  8  1  1  0  0  0
 11 15  2  0  0  0  0
 12 25  1  1  0  0  0
 12 24  1  0  0  0  0
 12 28  1  0  0  0  0
 13  9  2  0  0  0  0
 15 19  1  0  0  0  0
 15 23  1  0  0  0  0
 17  5  2  0  0  0  0
 19 25  1  0  0  0  0
 20 16  2  0  0  0  0
 21  1  2  0  0  0  0
 22 21  1  0  0  0  0
 22  4  2  0  0  0  0
 23  6  1  0  0  0  0
 24  5  1  1  0  0  0
 24 26  1  0  0  0  0
 25 17  1  0  0  0  0
 26 13  1  1  0  0  0
 28 16  1  6  0  0  0
 28 10  1  0  0  0  0
M  END
>  <MODEL>
1

>  <REMARK>
 VINA RESULT:      -6.5      0.000      0.000
  Name = 
  0 active torsions:
  status: ('A' for Active; 'I' for Inactive)
                            x       y       z     vdW  Elec       q    Type
                         _______ _______ _______ _____ _____    ______ ____

>  <TORSDO>
F 0

$$$$
=
 OpenBabel11122411583D

 28 32  0  0  1  0  0  0  0  0999 V2000
  181.9610  178.3000  140.0490 C   0  0  0  0  0  0  0  0  0  0  0  0
  180.8890  174.6740  139.1020 O   0  0  0  0  0  0  0  0  0  0  0  0
  186.7490  175.9400  137.1080 C   0  0  0  0  0  1  0  0  0  0  0  0
  179.7950  179.7010  139.0280 C   0  0  0  0  0  3  0  0  0  0  0  0
  184.6720  176.1250  135.7540 C   0  0  0  0  0  0  0  0  0  0  0  0
  183.1030  177.6650  140.5320 O   0  0  0  0  0  0  0  0  0  0  0  0
  178.9310  175.7040  138.0390 O   0  0  0  0  0  0  0  0  0  0  0  0
  180.2930  175.1200  137.7950 S   0  0  0  0  0  0  0  0  0  0  0  0
  181.9160  173.3820  136.4990 C   0  0  0  0  0  0  0  0  0  0  0  0
  181.3010  176.3070  137.0080 N   0  0  2  0  0  0  0  0  0  0  0  0
  184.3550  180.2290  139.2420 O   0  0  0  0  0  0  0  0  0  0  0  0
  183.3410  177.5610  137.1060 C   0  0  2  0  0  3  0  0  0  0  0  0
  182.6610  174.4120  136.2930 N   0  0  0  0  0  0  0  0  0  0  0  0
  180.1280  173.5010  136.4980 S   0  0  0  0  0  0  0  0  0  0  0  0
  184.6940  179.0730  139.4350 C   0  0  0  0  0  0  0  0  0  0  0  0
  181.5010  178.0010  138.7630 C   0  0  0  0  0  0  0  0  0  0  0  0
  185.3540  176.4100  136.8450 C   0  0  0  0  0  0  0  0  0  0  0  0
  182.5480  172.1010  136.9180 C   0  0  0  0  0  1  0  0  0  0  0  0
  185.4470  178.3440  138.3710 C   0  0  0  0  0  2  0  0  0  0  0  0
  180.4170  178.7260  138.2480 C   0  0  0  0  0  3  0  0  0  0  0  0
  181.3430  179.2600  140.7920 N   0  0  0  0  0  0  0  0  0  0  0  0
  180.2750  179.9540  140.3150 C   0  0  0  0  0  3  0  0  0  0  0  0
  184.3070  178.3960  140.7160 C   0  0  0  0  0  2  0  0  0  0  0  0
  183.3160  176.7510  135.7990 C   0  0  2  0  0  3  0  0  0  0  0  0
  184.6580  177.3040  137.7050 N   0  0  0  0  0  0  0  0  0  0  0  0
  182.1600  175.7430  135.9570 C   0  0  2  0  0  3  0  0  0  0  0  0
  185.1730  175.2870  134.6260 C   0  0  0  0  0  1  0  0  0  0  0  0
  182.2120  176.9570  137.9430 C   0  0  1  0  0  3  0  0  0  0  0  0
  1  6  1  0  0  0  0
  1 21  2  0  0  0  0
  4 22  2  0  0  0  0
  5 17  2  0  0  0  0
  6 23  1  0  0  0  0
  8  7  2  0  0  0  0
  8  2  2  0  0  0  0
  9 18  1  0  0  0  0
 10  8  1  1  0  0  0
 10 28  1  0  0  0  0
 11 15  2  0  0  0  0
 12 25  1  1  0  0  0
 12 28  1  0  0  0  0
 13  9  2  0  0  0  0
 14  9  1  0  0  0  0
 14  8  1  0  0  0  0
 15 23  1  0  0  0  0
 16  1  1  0  0  0  0
 17  3  1  0  0  0  0
 17 25  1  0  0  0  0
 19 15  1  0  0  0  0
 20 16  2  0  0  0  0
 20  4  1  0  0  0  0
 22 21  1  0  0  0  0
 24  5  1  1  0  0  0
 24 26  1  0  0  0  0
 24 12  1  0  0  0  0
 25 19  1  0  0  0  0
 26 13  1  1  0  0  0
 26 10  1  0  0  0  0
 27  5  1  0  0  0  0
 28 16  1  6  0  0  0
M  END
>  <MODEL>
2

>  <REMARK>
 VINA RESULT:      -5.4      5.915      9.160
  Name = 
  0 active torsions:
  status: ('A' for Active; 'I' for Inactive)
                            x       y       z     vdW  Elec       q    Type
                         _______ _______ _______ _____ _____    ______ ____

>  <TORSDO>
F 0

$$$$
=
 OpenBabel11122411583D

 28 32  0  0  1  0  0  0  0  0999 V2000
  182.6290  176.8710  138.2700 C   0  0  0  0  0  0  0  0  0  0  0  0
  184.9500  174.0640  136.8810 O   0  0  0  0  0  0  0  0  0  0  0  0
  188.1930  178.2280  140.3540 C   0  0  0  0  0  1  0  0  0  0  0  0
  181.4010  177.6620  135.9110 C   0  0  0  0  0  3  0  0  0  0  0  0
  187.9650  178.2530  137.8790 C   0  0  0  0  0  0  0  0  0  0  0  0
  183.2490  176.5640  139.4790 O   0  0  0  0  0  0  0  0  0  0  0  0
  184.0740  174.6600  134.6660 O   0  0  0  0  0  0  0  0  0  0  0  0
  185.2270  174.8270  135.6140 S   0  0  0  0  0  0  0  0  0  0  0  0
  187.8790  174.6910  136.1510 C   0  0  0  0  0  0  0  0  0  0  0  0
  185.4730  176.5250  135.9350 N   0  0  2  0  0  0  0  0  0  0  0  0
  183.0850  179.6840  139.6790 O   0  0  0  0  0  0  0  0  0  0  0  0
  185.6010  178.2330  137.6120 C   0  0  2  0  0  3  0  0  0  0  0  0
  187.7280  175.8850  136.6120 N   0  0  0  0  0  0  0  0  0  0  0  0
  186.9670  174.1170  134.7200 S   0  0  0  0  0  0  0  0  0  0  0  0
  183.8300  178.8040  140.0780 C   0  0  0  0  0  0  0  0  0  0  0  0
  183.4140  177.0870  137.1320 C   0  0  0  0  0  0  0  0  0  0  0  0
  187.4180  178.2040  139.0760 C   0  0  0  0  0  0  0  0  0  0  0  0
  188.6940  173.7130  136.9220 C   0  0  0  0  0  1  0  0  0  0  0  0
  185.3060  179.0270  140.0480 C   0  0  0  0  0  2  0  0  0  0  0  0
  182.7880  177.5030  135.9490 C   0  0  0  0  0  3  0  0  0  0  0  0
  181.2790  177.0380  138.2120 N   0  0  0  0  0  0  0  0  0  0  0  0
  180.6550  177.4170  137.0650 C   0  0  0  0  0  3  0  0  0  0  0  0
  183.2490  177.5030  140.5450 C   0  0  0  0  0  2  0  0  0  0  0  0
  186.9150  178.2180  136.8150 C   0  0  2  0  0  3  0  0  0  0  0  0
  185.9960  178.2320  139.0280 N   0  0  0  0  0  0  0  0  0  0  0  0
  186.8910  176.9110  135.9960 C   0  0  2  0  0  3  0  0  0  0  0  0
  189.4310  178.3260  137.6090 C   0  0  0  0  0  1  0  0  0  0  0  0
  184.9080  176.9260  137.2190 C   0  0  1  0  0  3  0  0  0  0  0  0
  1  6  1  0  0  0  0
  4 20  1  0  0  0  0
  4 22  2  0  0  0  0
  5 17  2  0  0  0  0
  6 23  1  0  0  0  0
  7  8  2  0  0  0  0
  8  2  2  0  0  0  0
  9 13  2  0  0  0  0
  9 18  1  0  0  0  0
 10  8  1  1  0  0  0
 10 26  1  0  0  0  0
 10 28  1  0  0  0  0
 11 15  2  0  0  0  0
 12 25  1  1  0  0  0
 14  8  1  0  0  0  0
 14  9  1  0  0  0  0
 15 23  1  0  0  0  0
 16  1  1  0  0  0  0
 17  3  1  0  0  0  0
 19 15  1  0  0  0  0
 20 16  2  0  0  0  0
 21  1  2  0  0  0  0
 22 21  1  0  0  0  0
 24 12  1  0  0  0  0
 24  5  1  1  0  0  0
 25 17  1  0  0  0  0
 25 19  1  0  0  0  0
 26 13  1  1  0  0  0
 26 24  1  0  0  0  0
 27  5  1  0  0  0  0
 28 16  1  6  0  0  0
 28 12  1  0  0  0  0
M  END
>  <MODEL>
3

>  <REMARK>
 VINA RESULT:      -5.4      4.142      7.565
  Name = 
  0 active torsions:
  status: ('A' for Active; 'I' for Inactive)
                            x       y       z     vdW  Elec       q    Type
                         _______ _______ _______ _____ _____    ______ ____

>  <TORSDO>
F 0

$$$$
=
 OpenBabel11122411583D

 28 32  0  0  1  0  0  0  0  0999 V2000
  183.2990  178.1040  140.6780 C   0  0  0  0  0  0  0  0  0  0  0  0
  183.6230  175.2210  138.0740 O   0  0  0  0  0  0  0  0  0  0  0  0
  189.2900  177.1440  140.1030 C   0  0  0  0  0  1  0  0  0  0  0  0
  181.6560  179.8280  139.2540 C   0  0  0  0  0  3  0  0  0  0  0  0
  188.1440  177.9020  138.0300 C   0  0  0  0  0  0  0  0  0  0  0  0
  184.1700  177.3130  141.4240 O   0  0  0  0  0  0  0  0  0  0  0  0
  182.2570  176.6240  136.5930 O   0  0  0  0  0  0  0  0  0  0  0  0
  183.6550  176.1810  136.9160 S   0  0  0  0  0  0  0  0  0  0  0  0
  186.0320  175.1290  136.1530 C   0  0  0  0  0  0  0  0  0  0  0  0
  184.6380  177.5780  137.2750 N   0  0  2  0  0  0  0  0  0  0  0  0
  185.3090  180.1680  142.0220 O   0  0  0  0  0  0  0  0  0  0  0  0
  186.0540  178.6530  138.8820 C   0  0  2  0  0  3  0  0  0  0  0  0
  186.5440  176.1430  136.7610 N   0  0  0  0  0  0  0  0  0  0  0  0
  184.4910  175.2580  135.2490 S   0  0  0  0  0  0  0  0  0  0  0  0
  185.7500  179.0340  141.9330 C   0  0  0  0  0  0  0  0  0  0  0  0
  183.5960  178.3770  139.3390 C   0  0  0  0  0  0  0  0  0  0  0  0
  188.1340  177.6950  139.3320 C   0  0  0  0  0  0  0  0  0  0  0  0
  186.6390  173.7840  136.3480 C   0  0  0  0  0  1  0  0  0  0  0  0
  187.0600  178.8100  141.2510 C   0  0  0  0  0  2  0  0  0  0  0  0
  182.7710  179.2630  138.6320 C   0  0  0  0  0  3  0  0  0  0  0  0
  182.2100  178.6710  141.2680 N   0  0  0  0  0  0  0  0  0  0  0  0
  181.3870  179.5120  140.5860 C   0  0  0  0  0  3  0  0  0  0  0  0
  184.9460  177.8860  142.4670 C   0  0  0  0  0  2  0  0  0  0  0  0
  186.8380  178.4670  137.5730 C   0  0  2  0  0  3  0  0  0  0  0  0
  186.9360  178.1540  139.9470 N   0  0  0  0  0  0  0  0  0  0  0  0
  185.9970  177.4970  136.7180 C   0  0  2  0  0  3  0  0  0  0  0  0
  189.2950  177.6100  137.1260 C   0  0  0  0  0  1  0  0  0  0  0  0
  184.8190  177.7650  138.7090 C   0  0  1  0  0  3  0  0  0  0  0  0
  1 21  2  0  0  0  0
  1  6  1  0  0  0  0
  4 22  2  0  0  0  0
  5 17  2  0  0  0  0
  6 23  1  0  0  0  0
  7  8  2  0  0  0  0
  8  2  2  0  0  0  0
  9 18  1  0  0  0  0
  9 13  2  0  0  0  0
 10  8  1  1  0  0  0
 10 28  1  0  0  0  0
 12 25  1  1  0  0  0
 14  9  1  0  0  0  0
 14  8  1  0  0  0  0
 15 11  2  0  0  0  0
 15 23  1  0  0  0  0
 16  1  1  0  0  0  0
 17 25  1  0  0  0  0
 17  3  1  0  0  0  0
 19 15  1  0  0  0  0
 20  4  1  0  0  0  0
 20 16  2  0  0  0  0
 22 21  1  0  0  0  0
 24  5  1  1  0  0  0
 24 12  1  0  0  0  0
 25 19  1  0  0  0  0
 26 13  1  1  0  0  0
 26 10  1  0  0  0  0
 26 24  1  0  0  0  0
 27  5  1  0  0  0  0
 28 12  1  0  0  0  0
 28 16  1  6  0  0  0
M  END
>  <MODEL>
4

>  <REMARK>
 VINA RESULT:      -5.1      4.215      7.763
  Name = 
  0 active torsions:
  status: ('A' for Active; 'I' for Inactive)
                            x       y       z     vdW  Elec       q    Type
                         _______ _______ _______ _____ _____    ______ ____

>  <TORSDO>
F 0

$$$$
=
 OpenBabel11122411583D

 28 32  0  0  1  0  0  0  0  0999 V2000
  182.3180  177.8350  138.9170 C   0  0  0  0  0  0  0  0  0  0  0  0
  182.2470  174.1690  137.5930 O   0  0  0  0  0  0  0  0  0  0  0  0
  188.1570  176.3700  137.9680 C   0  0  0  0  0  1  0  0  0  0  0  0
  180.4960  178.9890  137.1730 C   0  0  0  0  0  3  0  0  0  0  0  0
  186.7280  176.3580  135.9340 C   0  0  0  0  0  0  0  0  0  0  0  0
  183.2840  177.3330  139.7870 O   0  0  0  0  0  0  0  0  0  0  0  0
  180.6880  174.9890  135.8830 O   0  0  0  0  0  0  0  0  0  0  0  0
  182.1160  174.6180  136.1630 S   0  0  0  0  0  0  0  0  0  0  0  0
  184.3520  173.2150  135.5530 C   0  0  0  0  0  0  0  0  0  0  0  0
  183.1480  175.9850  135.8280 N   0  0  2  0  0  0  0  0  0  0  0  0
  184.5130  180.1280  139.0940 O   0  0  0  0  0  0  0  0  0  0  0  0
  184.7870  177.4990  136.7020 C   0  0  2  0  0  3  0  0  0  0  0  0
  184.9510  174.3500  135.6550 N   0  0  0  0  0  0  0  0  0  0  0  0
  182.6960  173.0850  134.8800 S   0  0  0  0  0  0  0  0  0  0  0  0
  184.9300  179.0200  139.3870 C   0  0  0  0  0  0  0  0  0  0  0  0
  182.4190  177.5650  137.5490 C   0  0  0  0  0  0  0  0  0  0  0  0
  186.9050  176.6590  137.2050 C   0  0  0  0  0  0  0  0  0  0  0  0
  184.9730  172.0090  136.1650 C   0  0  0  0  0  1  0  0  0  0  0  0
  186.1260  178.4780  138.6770 C   0  0  0  0  0  2  0  0  0  0  0  0
  181.5050  178.1660  136.6730 C   0  0  0  0  0  3  0  0  0  0  0  0
  181.3290  178.6470  139.3840 N   0  0  0  0  0  0  0  0  0  0  0  0
  180.4200  179.2170  138.5480 C   0  0  0  0  0  3  0  0  0  0  0  0
  184.2050  178.2090  140.4200 C   0  0  0  0  0  2  0  0  0  0  0  0
  185.3730  176.7860  135.4720 C   0  0  2  0  0  3  0  0  0  0  0  0
  185.8110  177.3870  137.7500 N   0  0  0  0  0  0  0  0  0  0  0  0
  184.4120  175.6190  135.1710 C   0  0  2  0  0  3  0  0  0  0  0  0
  187.7340  175.6780  135.0670 C   0  0  0  0  0  1  0  0  0  0  0  0
  183.5350  176.6880  137.0450 C   0  0  1  0  0  3  0  0  0  0  0  0
  1 21  2  0  0  0  0
  1  6  1  0  0  0  0
  4 22  2  0  0  0  0
  5 17  2  0  0  0  0
  6 23  1  0  0  0  0
  7  8  2  0  0  0  0
  8  2  2  0  0  0  0
  9 13  2  0  0  0  0
  9 18  1  0  0  0  0
 10  8  1  1  0  0  0
 10 28  1  0  0  0  0
 11 15  2  0  0  0  0
 12 28  1  0  0  0  0
 12 25  1  1  0  0  0
 14  9  1  0  0  0  0
 14  8  1  0  0  0  0
 15 23  1  0  0  0  0
 16  1  1  0  0  0  0
 17 25  1  0  0  0  0
 17  3  1  0  0  0  0
 19 15  1  0  0  0  0
 20  4  1  0  0  0  0
 20 16  2  0  0  0  0
 22 21  1  0  0  0  0
 24  5  1  1  0  0  0
 24 12  1  0  0  0  0
 25 19  1  0  0  0  0
 26 24  1  0  0  0  0
 26 13  1  1  0  0  0
 26 10  1  0  0  0  0
 27  5  1  0  0  0  0
 28 16  1  6  0  0  0
M  END
>  <MODEL>
5

>  <REMARK>
 VINA RESULT:      -4.9      5.138      8.473
  Name = 
  0 active torsions:
  status: ('A' for Active; 'I' for Inactive)
                            x       y       z     vdW  Elec       q    Type
                         _______ _______ _______ _____ _____    ______ ____

>  <TORSDO>
F 0

$$$$
=
 OpenBabel11122411583D

 28 32  0  0  1  0  0  0  0  0999 V2000
  182.1500  176.3350  138.7770 C   0  0  0  0  0  0  0  0  0  0  0  0
  184.2830  173.2820  137.6270 O   0  0  0  0  0  0  0  0  0  0  0  0
  187.9320  178.2460  139.0280 C   0  0  0  0  0  1  0  0  0  0  0  0
  180.3530  176.4620  136.6670 C   0  0  0  0  0  3  0  0  0  0  0  0
  187.1330  177.6130  136.7610 C   0  0  0  0  0  0  0  0  0  0  0  0
  183.0550  176.3650  139.8370 O   0  0  0  0  0  0  0  0  0  0  0  0
  182.8760  173.2630  135.6160 O   0  0  0  0  0  0  0  0  0  0  0  0
  184.2020  173.6850  136.1800 S   0  0  0  0  0  0  0  0  0  0  0  0
  186.9080  173.7200  136.0710 C   0  0  0  0  0  0  0  0  0  0  0  0
  184.3910  175.4100  135.9890 N   0  0  2  0  0  0  0  0  0  0  0  0
  182.7140  179.4250  139.2690 O   0  0  0  0  0  0  0  0  0  0  0  0
  184.7800  177.5010  137.0920 C   0  0  2  0  0  3  0  0  0  0  0  0
  186.7820  174.9920  136.2360 N   0  0  0  0  0  0  0  0  0  0  0  0
  185.7330  172.7790  135.1000 S   0  0  0  0  0  0  0  0  0  0  0  0
  183.5940  178.6890  139.6860 C   0  0  0  0  0  0  0  0  0  0  0  0
  182.6310  176.2490  137.4670 C   0  0  0  0  0  0  0  0  0  0  0  0
  186.8850  177.8780  138.0280 C   0  0  0  0  0  0  0  0  0  0  0  0
  187.9490  172.9890  136.8430 C   0  0  0  0  0  1  0  0  0  0  0  0
  185.0020  178.9090  139.2410 C   0  0  0  0  0  2  0  0  0  0  0  0
  181.7180  176.3320  136.4060 C   0  0  0  0  0  3  0  0  0  0  0  0
  180.8150  176.4690  139.0100 N   0  0  0  0  0  0  0  0  0  0  0  0
  179.9160  176.5250  137.9910 C   0  0  0  0  0  3  0  0  0  0  0  0
  183.2340  177.5520  140.5950 C   0  0  0  0  0  2  0  0  0  0  0  0
  185.8710  177.2880  136.0300 C   0  0  2  0  0  3  0  0  0  0  0  0
  185.4930  177.8790  138.3210 N   0  0  0  0  0  0  0  0  0  0  0  0
  185.7520  175.8120  135.6020 C   0  0  2  0  0  3  0  0  0  0  0  0
  188.4870  177.6260  136.1330 C   0  0  0  0  0  1  0  0  0  0  0  0
  184.1130  176.1310  137.2250 C   0  0  1  0  0  3  0  0  0  0  0  0
  1 21  2  0  0  0  0
  1  6  1  0  0  0  0
  4 22  2  0  0  0  0
  5 17  2  0  0  0  0
  6 23  1  0  0  0  0
  7  8  2  0  0  0  0
  8  2  2  0  0  0  0
  9 13  2  0  0  0  0
  9 18  1  0  0  0  0
 10  8  1  1  0  0  0
 10 28  1  0  0  0  0
 11 15  2  0  0  0  0
 12 28  1  0  0  0  0
 12 25  1  1  0  0  0
 14  9  1  0  0  0  0
 14  8  1  0  0  0  0
 15 23  1  0  0  0  0
 16  1  1  0  0  0  0
 17 25  1  0  0  0  0
 17  3  1  0  0  0  0
 19 15  1  0  0  0  0
 20  4  1  0  0  0  0
 20 16  2  0  0  0  0
 22 21  1  0  0  0  0
 24  5  1  1  0  0  0
 24 12  1  0  0  0  0
 25 19  1  0  0  0  0
 26 10  1  0  0  0  0
 26 24  1  0  0  0  0
 26 13  1  1  0  0  0
 27  5  1  0  0  0  0
 28 16  1  6  0  0  0
M  END
>  <MODEL>
6

>  <REMARK>
 VINA RESULT:      -4.9      4.694      8.022
  Name = 
  0 active torsions:
  status: ('A' for Active; 'I' for Inactive)
                            x       y       z     vdW  Elec       q    Type
                         _______ _______ _______ _____ _____    ______ ____

>  <TORSDO>
F 0

$$$$
=
 OpenBabel11122411583D

 28 32  0  0  1  0  0  0  0  0999 V2000
  187.1480  175.8110  136.4580 C   0  0  0  0  0  0  0  0  0  0  0  0
  188.3100  176.7570  140.0570 O   0  0  0  0  0  0  0  0  0  0  0  0
  182.0520  175.9210  139.8000 C   0  0  0  0  0  1  0  0  0  0  0  0
  188.3530  177.8640  135.0320 C   0  0  0  0  0  3  0  0  0  0  0  0
  183.2450  178.0960  139.6320 C   0  0  0  0  0  0  0  0  0  0  0  0
  186.4700  174.7890  137.1190 O   0  0  0  0  0  0  0  0  0  0  0  0
  189.3780  178.7110  139.0240 O   0  0  0  0  0  0  0  0  0  0  0  0
  188.1760  178.2310  139.7850 S   0  0  0  0  0  0  0  0  0  0  0  0
  186.4810  178.4320  141.8890 C   0  0  0  0  0  0  0  0  0  0  0  0
  186.7310  178.5800  138.8700 N   0  0  2  0  0  0  0  0  0  0  0  0
  184.3460  175.6130  134.9710 O   0  0  0  0  0  0  0  0  0  0  0  0
  184.7610  177.6790  137.8460 C   0  0  2  0  0  3  0  0  0  0  0  0
  185.5530  178.3760  140.9970 N   0  0  0  0  0  0  0  0  0  0  0  0
  188.0300  179.2760  141.5790 S   0  0  0  0  0  0  0  0  0  0  0  0
  184.3370  175.1630  136.1050 C   0  0  0  0  0  0  0  0  0  0  0  0
  187.0350  177.1240  136.9270 C   0  0  0  0  0  0  0  0  0  0  0  0
  183.0790  176.8500  139.2360 C   0  0  0  0  0  0  0  0  0  0  0  0
  186.3360  177.6330  143.1360 C   0  0  0  0  0  1  0  0  0  0  0  0
  183.3330  175.6710  137.0860 C   0  0  0  0  0  2  0  0  0  0  0  0
  187.6320  178.1570  136.1910 C   0  0  0  0  0  3  0  0  0  0  0  0
  187.8510  175.5470  135.3220 N   0  0  0  0  0  0  0  0  0  0  0  0
  188.4560  176.5370  134.6120 C   0  0  0  0  0  3  0  0  0  0  0  0
  185.3650  174.1450  136.5010 C   0  0  0  0  0  2  0  0  0  0  0  0
  184.3460  178.7540  138.8650 C   0  0  2  0  0  3  0  0  0  0  0  0
  183.9140  176.5130  138.1350 N   0  0  0  0  0  0  0  0  0  0  0  0
  185.6090  179.0450  139.6990 C   0  0  2  0  0  3  0  0  0  0  0  0
  182.4520  178.7670  140.7030 C   0  0  0  0  0  1  0  0  0  0  0  0
  186.2310  177.4030  138.1690 C   0  0  1  0  0  3  0  0  0  0  0  0
  1 16  1  0  0  0  0
  1  6  1  0  0  0  0
  4 20  1  0  0  0  0
  5 27  1  0  0  0  0
  7  8  2  0  0  0  0
  8  2  2  0  0  0  0
  8 14  1  0  0  0  0
  9 18  1  0  0  0  0
 10 26  1  0  0  0  0
 10  8  1  1  0  0  0
 11 15  2  0  0  0  0
 12 25  1  1  0  0  0
 12 28  1  0  0  0  0
 12 24  1  0  0  0  0
 13  9  2  0  0  0  0
 14  9  1  0  0  0  0
 15 23  1  0  0  0  0
 15 19  1  0  0  0  0
 17  5  2  0  0  0  0
 17  3  1  0  0  0  0
 19 25  1  0  0  0  0
 20 16  2  0  0  0  0
 21  1  2  0  0  0  0
 22  4  2  0  0  0  0
 22 21  1  0  0  0  0
 23  6  1  0  0  0  0
 24  5  1  1  0  0  0
 24 26  1  0  0  0  0
 25 17  1  0  0  0  0
 26 13  1  1  0  0  0
 28 16  1  6  0  0  0
 28 10  1  0  0  0  0
M  END
>  <MODEL>
7

>  <REMARK>
 VINA RESULT:      -4.6      3.287      4.124
  Name = 
  0 active torsions:
  status: ('A' for Active; 'I' for Inactive)
                            x       y       z     vdW  Elec       q    Type
                         _______ _______ _______ _____ _____    ______ ____

>  <TORSDO>
F 0

$$$$
=
 OpenBabel11122411583D

 28 32  0  0  1  0  0  0  0  0999 V2000
  181.5800  179.1250  141.4290 C   0  0  0  0  0  0  0  0  0  0  0  0
  183.7140  179.5150  138.1910 O   0  0  0  0  0  0  0  0  0  0  0  0
  178.9310  175.4780  137.3270 C   0  0  0  0  0  1  0  0  0  0  0  0
  183.5980  178.5460  143.2430 C   0  0  0  0  0  3  0  0  0  0  0  0
  181.2680  174.8700  137.9180 C   0  0  0  0  0  0  0  0  0  0  0  0
  180.5130  179.3530  140.5620 O   0  0  0  0  0  0  0  0  0  0  0  0
  185.6450  178.9220  139.5860 O   0  0  0  0  0  0  0  0  0  0  0  0
  184.6460  178.4040  138.5910 S   0  0  0  0  0  0  0  0  0  0  0  0
  184.0720  177.1290  136.2710 C   0  0  0  0  0  0  0  0  0  0  0  0
  183.7750  177.0620  139.2890 N   0  0  2  0  0  0  0  0  0  0  0  0
  179.3060  177.1300  142.4070 O   0  0  0  0  0  0  0  0  0  0  0  0
  181.6260  176.1770  139.8740 C   0  0  2  0  0  3  0  0  0  0  0  0
  183.2510  176.4420  136.9880 N   0  0  0  0  0  0  0  0  0  0  0  0
  185.6500  177.6780  136.9190 S   0  0  0  0  0  0  0  0  0  0  0  0
  179.1870  177.4850  141.2460 C   0  0  0  0  0  0  0  0  0  0  0  0
  182.5490  178.1750  141.0900 C   0  0  0  0  0  0  0  0  0  0  0  0
  180.1770  175.5730  138.1470 C   0  0  0  0  0  0  0  0  0  0  0  0
  183.6320  177.6260  134.9400 C   0  0  0  0  0  1  0  0  0  0  0  0
  179.0790  176.4520  140.1730 C   0  0  0  0  0  2  0  0  0  0  0  0
  183.5550  177.8760  142.0190 C   0  0  0  0  0  3  0  0  0  0  0  0
  181.6370  179.7630  142.6310 N   0  0  0  0  0  0  0  0  0  0  0  0
  182.6210  179.5010  143.5320 C   0  0  0  0  0  3  0  0  0  0  0  0
  179.1990  178.9490  140.9180 C   0  0  0  0  0  2  0  0  0  0  0  0
  182.3270  175.1950  138.9210 C   0  0  2  0  0  3  0  0  0  0  0  0
  180.2740  176.3600  139.3280 N   0  0  0  0  0  0  0  0  0  0  0  0
  183.5300  175.9650  138.3400 C   0  0  2  0  0  3  0  0  0  0  0  0
  181.4350  173.8880  136.8080 C   0  0  0  0  0  1  0  0  0  0  0  0
  182.4560  177.4580  139.7700 C   0  0  1  0  0  3  0  0  0  0  0  0
  1 21  2  0  0  0  0
  2  8  2  0  0  0  0
  3 17  1  0  0  0  0
  4 22  2  0  0  0  0
  5 17  2  0  0  0  0
  6 23  1  0  0  0  0
  6  1  1  0  0  0  0
  8  7  2  0  0  0  0
  9 14  1  0  0  0  0
  9 13  2  0  0  0  0
 10  8  1  6  0  0  0
 10 28  1  0  0  0  0
 12 25  1  6  0  0  0
 14  8  1  0  0  0  0
 15 11  2  0  0  0  0
 16  1  1  0  0  0  0
 16 20  2  0  0  0  0
 17 25  1  0  0  0  0
 18  9  1  0  0  0  0
 19 15  1  0  0  0  0
 20  4  1  0  0  0  0
 21 22  1  0  0  0  0
 23 15  1  0  0  0  0
 24  5  1  6  0  0  0
 24 12  1  0  0  0  0
 25 19  1  0  0  0  0
 26 13  1  6  0  0  0
 26 24  1  0  0  0  0
 26 10  1  0  0  0  0
 27  5  1  0  0  0  0
 28 12  1  0  0  0  0
 28 16  1  1  0  0  0
M  END
>  <MODEL>
8

>  <REMARK>
 VINA RESULT:      -4.6      6.288      9.187
  Name = 
  0 active torsions:
  status: ('A' for Active; 'I' for Inactive)
                            x       y       z     vdW  Elec       q    Type
                         _______ _______ _______ _____ _____    ______ ____

>  <TORSDO>
F 0

$$$$
=
 OpenBabel11122411583D

 28 32  0  0  1  0  0  0  0  0999 V2000
  190.7170  178.2960  142.2410 C   0  0  0  0  0  0  0  0  0  0  0  0
  187.2910  180.0790  141.7130 O   0  0  0  0  0  0  0  0  0  0  0  0
  188.1260  178.4330  147.7560 C   0  0  0  0  0  1  0  0  0  0  0  0
  190.5340  176.3540  140.2670 C   0  0  0  0  0  3  0  0  0  0  0  0
  186.8830  177.1280  146.0440 C   0  0  0  0  0  0  0  0  0  0  0  0
  190.8490  179.2070  143.2870 O   0  0  0  0  0  0  0  0  0  0  0  0
  186.8640  178.3920  139.9810 O   0  0  0  0  0  0  0  0  0  0  0  0
  186.5890  178.7840  141.4050 S   0  0  0  0  0  0  0  0  0  0  0  0
  184.8490  179.2840  143.4190 C   0  0  0  0  0  0  0  0  0  0  0  0
  187.1150  177.5060  142.4700 N   0  0  2  0  0  0  0  0  0  0  0  0
  192.0550  176.6310  144.5950 O   0  0  0  0  0  0  0  0  0  0  0  0
  188.5120  176.9120  144.3240 C   0  0  2  0  0  3  0  0  0  0  0  0
  185.5990  178.4940  144.1070 N   0  0  0  0  0  0  0  0  0  0  0  0
  184.5380  179.0030  141.6780 S   0  0  0  0  0  0  0  0  0  0  0  0
  191.4490  177.6200  144.9720 C   0  0  0  0  0  0  0  0  0  0  0  0
  189.5360  177.5570  142.1190 C   0  0  0  0  0  0  0  0  0  0  0  0
  187.9710  177.7640  146.4280 C   0  0  0  0  0  0  0  0  0  0  0  0
  184.3720  180.5520  144.0370 C   0  0  0  0  0  1  0  0  0  0  0  0
  190.3830  177.4740  146.0080 C   0  0  0  0  0  2  0  0  0  0  0  0
  189.4580  176.5670  141.1300 C   0  0  0  0  0  3  0  0  0  0  0  0
  191.7580  178.0690  141.3920 N   0  0  0  0  0  0  0  0  0  0  0  0
  191.6870  177.1280  140.4130 C   0  0  0  0  0  3  0  0  0  0  0  0
  191.7530  178.9520  144.3520 C   0  0  0  0  0  2  0  0  0  0  0  0
  187.0540  176.5680  144.6690 C   0  0  2  0  0  3  0  0  0  0  0  0
  189.0270  177.6570  145.4820 N   0  0  0  0  0  0  0  0  0  0  0  0
  186.1970  177.2640  143.5930 C   0  0  2  0  0  3  0  0  0  0  0  0
  185.6410  176.9860  146.8590 C   0  0  0  0  0  1  0  0  0  0  0  0
  188.4050  177.8000  143.0830 C   0  0  1  0  0  3  0  0  0  0  0  0
  1  6  1  0  0  0  0
  4 22  2  0  0  0  0
  4 20  1  0  0  0  0
  5 17  2  0  0  0  0
  5 27  1  0  0  0  0
  6 23  1  0  0  0  0
  7  8  2  0  0  0  0
  8 14  1  0  0  0  0
  8  2  2  0  0  0  0
  9 18  1  0  0  0  0
  9 13  2  0  0  0  0
 10  8  1  1  0  0  0
 10 28  1  0  0  0  0
 10 26  1  0  0  0  0
 11 15  2  0  0  0  0
 12 24  1  0  0  0  0
 12 25  1  1  0  0  0
 14  9  1  0  0  0  0
 15 19  1  0  0  0  0
 16  1  1  0  0  0  0
 17  3  1  0  0  0  0
 20 16  2  0  0  0  0
 21  1  2  0  0  0  0
 22 21  1  0  0  0  0
 23 15  1  0  0  0  0
 24  5  1  1  0  0  0
 25 19  1  0  0  0  0
 25 17  1  0  0  0  0
 26 13  1  1  0  0  0
 26 24  1  0  0  0  0
 28 16  1  6  0  0  0
 28 12  1  0  0  0  0
M  END
>  <MODEL>
9

>  <REMARK>
 VINA RESULT:      -4.5      4.189      7.009
  Name = 
  0 active torsions:
  status: ('A' for Active; 'I' for Inactive)
                            x       y       z     vdW  Elec       q    Type
                         _______ _______ _______ _____ _____    ______ ____

>  <TORSDO>
F 0

$$$$
