=
 OpenBabel11122410563D

 31 35  0  0  1  0  0  0  0  0999 V2000
  193.4630  176.0030  135.9890 C   0  0  0  0  0  0  0  0  0  0  0  0
  189.7700  176.7100  136.4750 C   0  0  2  0  0  3  0  0  0  0  0  0
  188.4630  175.9430  136.4270 C   0  0  0  0  0  0  0  0  0  0  0  0
  187.1200  174.1740  135.4340 C   0  0  0  0  0  0  0  0  0  0  0  0
  190.9970  175.7800  136.4620 C   0  0  1  0  0  3  0  0  0  0  0  0
  193.7620  175.0150  137.0600 C   0  0  0  0  0  2  0  0  0  0  0  0
  188.3330  174.8550  135.5500 C   0  0  0  0  0  3  0  0  0  0  0  0
  190.3050  177.1430  138.9220 C   0  0  0  0  0  0  0  0  0  0  0  0
  194.3860  176.4560  135.2660 O   0  0  0  0  0  0  0  0  0  0  0  0
  187.3980  177.5220  138.1180 C   0  0  0  0  0  2  0  0  0  0  0  0
  187.0150  173.1180  134.5940 F   0  0  0  0  0  0  0  0  0  0  0  0
  190.4840  175.6530  138.9970 C   0  0  0  0  0  2  0  0  0  0  0  0
  189.8510  177.7470  137.6180 C   0  0  2  0  0  3  0  0  0  0  0  0
  190.5540  177.9310  139.9270 N   0  0  0  0  0  0  0  0  0  0  0  0
  192.1200  176.4430  135.7980 N   0  0  0  0  0  2  0  0  0  0  0  0
  186.0150  174.5840  136.1820 C   0  0  0  0  0  3  0  0  0  0  0  0
  191.3700  175.1650  137.8510 C   0  0  2  0  0  3  0  0  0  0  0  0
  192.8460  175.3050  138.2400 C   0  0  0  0  0  2  0  0  0  0  0  0
  188.5250  178.4910  137.7690 C   0  0  0  0  0  2  0  0  0  0  0  0
  187.3280  176.3760  137.1540 C   0  0  0  0  0  0  0  0  0  0  0  0
  186.1210  175.6810  137.0390 C   0  0  0  0  0  3  0  0  0  0  0  0
  192.1850  177.1610  141.4400 O   0  0  0  0  0  0  0  0  0  0  0  0
  191.0080  177.5650  141.2420 C   0  0  0  0  0  0  0  0  0  0  0  0
  191.5900  177.3780  144.8530 C   0  0  0  0  0  0  0  0  0  0  0  0
  190.3580  178.8700  143.2960 C   0  0  0  0  0  2  0  0  0  0  0  0
  189.7580  175.2500  142.4380 O   0  0  0  0  0  1  0  0  0  0  0  0
  191.8870  177.3140  146.0340 O   0  0  0  0  0  0  0  0  0  0  0  0
  191.6260  178.6920  144.1350 C   0  0  0  0  0  2  0  0  0  0  0  0
  190.0000  176.3590  143.2500 C   0  0  2  0  0  3  0  0  0  0  0  0
  190.0700  177.6500  142.4110 C   0  0  2  0  0  3  0  0  0  0  0  0
  191.2590  176.1340  144.0880 C   0  0  0  0  0  2  0  0  0  0  0  0
  1  6  1  0  0  0  0
  2  3  1  1  0  0  0
  2 13  1  0  0  0  0
  3 20  1  0  0  0  0
  4  7  1  0  0  0  0
  4 16  2  0  0  0  0
  5 15  1  1  0  0  0
  5  2  1  0  0  0  0
  5 17  1  0  0  0  0
  6 18  1  0  0  0  0
  7  3  2  0  0  0  0
  8 12  1  0  0  0  0
  8 14  2  0  0  0  0
  9  1  2  0  0  0  0
 11  4  1  0  0  0  0
 13 19  1  1  0  0  0
 13  8  1  0  0  0  0
 14 23  1  0  0  0  0
 15  1  1  0  0  0  0
 16 21  1  0  0  0  0
 17 18  1  1  0  0  0
 17 12  1  0  0  0  0
 19 10  1  0  0  0  0
 20 10  1  0  0  0  0
 21 20  2  0  0  0  0
 23 22  2  0  0  0  0
 24 27  2  0  0  0  0
 25 28  1  0  0  0  0
 28 24  1  0  0  0  0
 29 26  1  6  0  0  0
 29 31  1  0  0  0  0
 30 23  1  6  0  0  0
 30 29  1  0  0  0  0
 30 25  1  0  0  0  0
 31 24  1  0  0  0  0
M  END
>  <MODEL>
1

>  <REMARK>
 VINA RESULT:      -6.7      0.000      0.000
  Name = 
  2 active torsions:
  status: ('A' for Active; 'I' for Inactive)
    1  A    between atoms: C_5  and  N_16
    2  A    between atoms: C_5  and  C_30
                            x       y       z     vdW  Elec       q    Type
                         _______ _______ _______ _____ _____    ______ ____

>  <TORSDO>
F 2

$$$$
=
 OpenBabel11122410563D

 31 35  0  0  1  0  0  0  0  0999 V2000
  185.5840  178.8720  145.5550 C   0  0  0  0  0  0  0  0  0  0  0  0
  189.3190  178.2350  145.4300 C   0  0  2  0  0  3  0  0  0  0  0  0
  190.2850  177.1300  145.8120 C   0  0  0  0  0  0  0  0  0  0  0  0
  190.8920  175.3240  147.3250 C   0  0  0  0  0  0  0  0  0  0  0  0
  187.8510  177.7730  145.4740 C   0  0  1  0  0  3  0  0  0  0  0  0
  185.0290  177.7990  144.6860 C   0  0  0  0  0  2  0  0  0  0  0  0
  189.9890  176.3040  146.9070 C   0  0  0  0  0  3  0  0  0  0  0  0
  189.1010  178.2070  142.8970 C   0  0  0  0  0  0  0  0  0  0  0  0
  184.8300  179.7540  146.0380 O   0  0  0  0  0  0  0  0  0  0  0  0
  191.9140  177.8320  143.9840 C   0  0  0  0  0  2  0  0  0  0  0  0
  190.5860  174.5260  148.3760 F   0  0  0  0  0  0  0  0  0  0  0  0
  188.4320  176.8790  143.1150 C   0  0  0  0  0  2  0  0  0  0  0  0
  189.6580  178.9340  144.0940 C   0  0  2  0  0  3  0  0  0  0  0  0
  189.1900  178.7640  141.7250 N   0  0  0  0  0  0  0  0  0  0  0  0
  186.9840  178.8970  145.8270 N   0  0  0  0  0  2  0  0  0  0  0  0
  192.1110  175.1700  146.6630 C   0  0  0  0  0  3  0  0  0  0  0  0
  187.3710  176.9890  144.2080 C   0  0  2  0  0  3  0  0  0  0  0  0
  186.0530  177.4900  143.6050 C   0  0  0  0  0  2  0  0  0  0  0  0
  191.1650  179.1610  143.9680 C   0  0  0  0  0  2  0  0  0  0  0  0
  191.5390  176.9930  145.1680 C   0  0  0  0  0  0  0  0  0  0  0  0
  192.4300  176.0010  145.5870 C   0  0  0  0  0  3  0  0  0  0  0  0
  187.5360  177.8230  140.3390 O   0  0  0  0  0  0  0  0  0  0  0  0
  188.7130  178.2530  140.4680 C   0  0  0  0  0  0  0  0  0  0  0  0
  188.2940  176.8330  137.1180 C   0  0  0  0  0  0  0  0  0  0  0  0
  189.0560  178.9900  138.0840 C   0  0  0  0  0  2  0  0  0  0  0  0
  190.5510  176.0820  139.9560 O   0  0  0  0  0  1  0  0  0  0  0  0
  188.0550  176.3390  136.0290 O   0  0  0  0  0  0  0  0  0  0  0  0
  187.9000  178.2490  137.4080 C   0  0  0  0  0  2  0  0  0  0  0  0
  190.0510  176.7920  138.8630 C   0  0  2  0  0  3  0  0  0  0  0  0
  189.6270  178.2130  139.2780 C   0  0  2  0  0  3  0  0  0  0  0  0
  188.9160  176.0090  138.2020 C   0  0  0  0  0  2  0  0  0  0  0  0
  1 15  1  0  0  0  0
  1  9  2  0  0  0  0
  2  5  1  0  0  0  0
  2  3  1  6  0  0  0
  3  7  1  0  0  0  0
  4 11  1  0  0  0  0
  5 15  1  6  0  0  0
  6  1  1  0  0  0  0
  7  4  2  0  0  0  0
  8 12  1  0  0  0  0
  8 13  1  0  0  0  0
 10 20  1  0  0  0  0
 13 19  1  6  0  0  0
 13  2  1  0  0  0  0
 14  8  2  0  0  0  0
 16  4  1  0  0  0  0
 17 12  1  6  0  0  0
 17  5  1  0  0  0  0
 18 17  1  0  0  0  0
 18  6  1  0  0  0  0
 19 10  1  0  0  0  0
 20 21  1  0  0  0  0
 20  3  2  0  0  0  0
 21 16  2  0  0  0  0
 22 23  2  0  0  0  0
 23 14  1  0  0  0  0
 24 28  1  0  0  0  0
 24 31  1  0  0  0  0
 25 30  1  0  0  0  0
 27 24  2  0  0  0  0
 28 25  1  0  0  0  0
 29 30  1  0  0  0  0
 29 26  1  1  0  0  0
 30 23  1  1  0  0  0
 31 29  1  0  0  0  0
M  END
>  <MODEL>
2

>  <REMARK>
 VINA RESULT:      -6.4      4.136      8.938
  Name = 
  2 active torsions:
  status: ('A' for Active; 'I' for Inactive)
    1  A    between atoms: C_5  and  N_16
    2  A    between atoms: C_5  and  C_30
                            x       y       z     vdW  Elec       q    Type
                         _______ _______ _______ _____ _____    ______ ____

>  <TORSDO>
F 2

$$$$
=
 OpenBabel11122410563D

 31 35  0  0  1  0  0  0  0  0999 V2000
  185.0170  178.3750  142.8570 C   0  0  0  0  0  0  0  0  0  0  0  0
  182.0230  177.9850  140.5650 C   0  0  2  0  0  3  0  0  0  0  0  0
  180.9770  178.8750  139.9200 C   0  0  0  0  0  0  0  0  0  0  0  0
  179.5470  180.8390  140.0470 C   0  0  0  0  0  0  0  0  0  0  0  0
  183.1780  178.7920  141.1850 C   0  0  1  0  0  3  0  0  0  0  0  0
  185.9360  179.2400  142.0690 C   0  0  0  0  0  2  0  0  0  0  0  0
  180.5580  180.0380  140.5830 C   0  0  0  0  0  3  0  0  0  0  0  0
  183.6630  177.3050  138.7470 C   0  0  0  0  0  0  0  0  0  0  0  0
  185.3830  177.8970  143.9610 O   0  0  0  0  0  0  0  0  0  0  0  0
  180.7280  177.2710  137.9580 C   0  0  0  0  0  2  0  0  0  0  0  0
  179.1630  181.9660  140.6920 F   0  0  0  0  0  0  0  0  0  0  0  0
  184.0390  178.7600  138.7430 C   0  0  0  0  0  2  0  0  0  0  0  0
  182.5410  176.8560  139.6480 C   0  0  2  0  0  3  0  0  0  0  0  0
  184.2870  176.4170  138.0280 N   0  0  0  0  0  0  0  0  0  0  0  0
  183.7190  178.0820  142.3440 N   0  0  0  0  0  2  0  0  0  0  0  0
  178.9320  180.4770  138.8490 C   0  0  0  0  0  3  0  0  0  0  0  0
  184.2760  179.2530  140.1690 C   0  0  2  0  0  3  0  0  0  0  0  0
  185.7160  178.9420  140.5940 C   0  0  0  0  0  2  0  0  0  0  0  0
  181.3940  176.2310  138.8550 C   0  0  0  0  0  2  0  0  0  0  0  0
  180.3230  178.4940  138.7240 C   0  0  0  0  0  0  0  0  0  0  0  0
  179.3200  179.3080  138.1900 C   0  0  0  0  0  3  0  0  0  0  0  0
  185.1910  176.8690  135.9020 O   0  0  0  0  0  0  0  0  0  0  0  0
  185.3850  176.6290  137.1240 C   0  0  0  0  0  0  0  0  0  0  0  0
  188.6010  177.1100  135.4390 C   0  0  0  0  0  0  0  0  0  0  0  0
  187.5160  177.9110  137.5240 C   0  0  0  0  0  2  0  0  0  0  0  0
  186.9660  174.2110  137.0640 O   0  0  0  0  0  1  0  0  0  0  0  0
  189.6180  177.2980  134.7920 O   0  0  0  0  0  0  0  0  0  0  0  0
  187.8900  178.2610  136.0820 C   0  0  0  0  0  2  0  0  0  0  0  0
  187.6330  175.4350  136.9860 C   0  0  2  0  0  3  0  0  0  0  0  0
  186.7980  176.5590  137.6270 C   0  0  2  0  0  3  0  0  0  0  0  0
  188.0100  175.7370  135.5350 C   0  0  0  0  0  2  0  0  0  0  0  0
  1  9  2  0  0  0  0
  2  3  1  6  0  0  0
  2  5  1  0  0  0  0
  3  7  1  0  0  0  0
  4  7  2  0  0  0  0
  4 11  1  0  0  0  0
  5 15  1  1  0  0  0
  6  1  1  0  0  0  0
  8 13  1  0  0  0  0
 10 20  1  0  0  0  0
 10 19  1  0  0  0  0
 12  8  1  0  0  0  0
 13 19  1  6  0  0  0
 13  2  1  0  0  0  0
 14  8  2  0  0  0  0
 15  1  1  0  0  0  0
 16  4  1  0  0  0  0
 17 12  1  6  0  0  0
 17 18  1  0  0  0  0
 17  5  1  0  0  0  0
 18  6  1  0  0  0  0
 20  3  2  0  0  0  0
 21 20  1  0  0  0  0
 21 16  2  0  0  0  0
 22 23  2  0  0  0  0
 23 14  1  0  0  0  0
 24 31  1  0  0  0  0
 24 28  1  0  0  0  0
 25 30  1  0  0  0  0
 27 24  2  0  0  0  0
 28 25  1  0  0  0  0
 29 26  1  6  0  0  0
 29 30  1  0  0  0  0
 30 23  1  6  0  0  0
 31 29  1  0  0  0  0
M  END
>  <MODEL>
3

>  <REMARK>
 VINA RESULT:      -6.3      5.809      8.975
  Name = 
  2 active torsions:
  status: ('A' for Active; 'I' for Inactive)
    1  A    between atoms: C_5  and  N_16
    2  A    between atoms: C_5  and  C_30
                            x       y       z     vdW  Elec       q    Type
                         _______ _______ _______ _____ _____    ______ ____

>  <TORSDO>
F 2

$$$$
=
 OpenBabel11122410563D

 31 35  0  0  1  0  0  0  0  0999 V2000
  179.6570  179.3530  139.1290 C   0  0  0  0  0  0  0  0  0  0  0  0
  183.1590  179.2320  140.5740 C   0  0  2  0  0  3  0  0  0  0  0  0
  183.8220  178.8650  141.8880 C   0  0  0  0  0  0  0  0  0  0  0  0
  183.7380  178.8070  144.3190 C   0  0  0  0  0  0  0  0  0  0  0  0
  181.6840  178.7940  140.5170 C   0  0  1  0  0  3  0  0  0  0  0  0
  179.2130  177.9350  139.1970 C   0  0  0  0  0  2  0  0  0  0  0  0
  183.1280  179.0700  143.0900 C   0  0  0  0  0  3  0  0  0  0  0  0
  183.6320  177.3470  138.9350 C   0  0  0  0  0  0  0  0  0  0  0  0
  178.9310  180.2210  138.5810 O   0  0  0  0  0  0  0  0  0  0  0  0
  185.9660  178.1850  140.6930 C   0  0  0  0  0  2  0  0  0  0  0  0
  183.0510  178.9980  145.4700 F   0  0  0  0  0  0  0  0  0  0  0  0
  182.7510  176.5330  139.8410 C   0  0  0  0  0  2  0  0  0  0  0  0
  183.9410  178.7700  139.3240 C   0  0  2  0  0  3  0  0  0  0  0  0
  184.1130  176.8810  137.8190 N   0  0  0  0  0  0  0  0  0  0  0  0
  180.9200  179.7190  139.6810 N   0  0  0  0  0  2  0  0  0  0  0  0
  185.0560  178.3510  144.3600 C   0  0  0  0  0  3  0  0  0  0  0  0
  181.4600  177.2900  140.1480 C   0  0  2  0  0  3  0  0  0  0  0  0
  180.4380  177.0480  139.0300 C   0  0  0  0  0  2  0  0  0  0  0  0
  185.4420  178.9940  139.5100 C   0  0  0  0  0  2  0  0  0  0  0  0
  185.1700  178.4380  141.9390 C   0  0  0  0  0  0  0  0  0  0  0  0
  185.7680  178.1660  143.1730 C   0  0  0  0  0  3  0  0  0  0  0  0
  184.5190  174.5640  137.7370 O   0  0  0  0  0  0  0  0  0  0  0  0
  183.9270  175.5690  137.2600 C   0  0  0  0  0  0  0  0  0  0  0  0
  182.2000  172.6090  135.9670 C   0  0  0  0  0  0  0  0  0  0  0  0
  181.6050  174.9610  136.4970 C   0  0  0  0  0  2  0  0  0  0  0  0
  184.8830  174.7940  134.6450 O   0  0  0  0  0  1  0  0  0  0  0  0
  181.6600  171.5720  135.6220 O   0  0  0  0  0  0  0  0  0  0  0  0
  181.5430  173.5070  136.9700 C   0  0  0  0  0  2  0  0  0  0  0  0
  183.5870  174.4240  135.0080 C   0  0  2  0  0  3  0  0  0  0  0  0
  183.0220  175.3770  136.0780 C   0  0  2  0  0  3  0  0  0  0  0  0
  183.5620  172.9610  135.4510 C   0  0  0  0  0  2  0  0  0  0  0  0
  1  6  1  0  0  0  0
  1 15  1  0  0  0  0
  2  3  1  1  0  0  0
  3 20  2  0  0  0  0
  3  7  1  0  0  0  0
  4 16  1  0  0  0  0
  4 11  1  0  0  0  0
  5 15  1  6  0  0  0
  5  2  1  0  0  0  0
  7  4  2  0  0  0  0
  8 13  1  0  0  0  0
  8 12  1  0  0  0  0
  9  1  2  0  0  0  0
 10 20  1  0  0  0  0
 12 17  1  0  0  0  0
 13 19  1  1  0  0  0
 13  2  1  0  0  0  0
 14  8  2  0  0  0  0
 17 18  1  6  0  0  0
 17  5  1  0  0  0  0
 18  6  1  0  0  0  0
 19 10  1  0  0  0  0
 20 21  1  0  0  0  0
 21 16  2  0  0  0  0
 23 22  2  0  0  0  0
 23 14  1  0  0  0  0
 24 28  1  0  0  0  0
 25 28  1  0  0  0  0
 27 24  2  0  0  0  0
 29 26  1  1  0  0  0
 29 31  1  0  0  0  0
 29 30  1  0  0  0  0
 30 25  1  0  0  0  0
 30 23  1  1  0  0  0
 31 24  1  0  0  0  0
M  END
>  <MODEL>
4

>  <REMARK>
 VINA RESULT:      -6.2      6.647     10.548
  Name = 
  2 active torsions:
  status: ('A' for Active; 'I' for Inactive)
    1  A    between atoms: C_5  and  N_16
    2  A    between atoms: C_5  and  C_30
                            x       y       z     vdW  Elec       q    Type
                         _______ _______ _______ _____ _____    ______ ____

>  <TORSDO>
F 2

$$$$
=
 OpenBabel11122410563D

 31 35  0  0  1  0  0  0  0  0999 V2000
  186.9580  178.5560  140.2530 C   0  0  0  0  0  0  0  0  0  0  0  0
  183.2040  178.6840  139.7390 C   0  0  2  0  0  3  0  0  0  0  0  0
  182.2020  179.5300  138.9780 C   0  0  0  0  0  0  0  0  0  0  0  0
  181.5330  181.7120  138.1330 C   0  0  0  0  0  0  0  0  0  0  0  0
  184.6560  178.9690  139.3140 C   0  0  1  0  0  3  0  0  0  0  0  0
  187.4800  178.3140  138.8810 C   0  0  0  0  0  2  0  0  0  0  0  0
  182.4680  180.8920  138.7690 C   0  0  0  0  0  3  0  0  0  0  0  0
  183.4270  176.4770  138.4970 C   0  0  0  0  0  0  0  0  0  0  0  0
  187.7400  178.5710  141.2380 O   0  0  0  0  0  0  0  0  0  0  0  0
  180.6010  177.5610  138.7660 C   0  0  0  0  0  2  0  0  0  0  0  0
  181.8100  183.0210  137.9260 F   0  0  0  0  0  0  0  0  0  0  0  0
  184.0520  177.3140  137.4170 C   0  0  0  0  0  2  0  0  0  0  0  0
  182.8910  177.1710  139.7230 C   0  0  2  0  0  3  0  0  0  0  0  0
  183.3590  175.1790  138.4290 N   0  0  0  0  0  0  0  0  0  0  0  0
  185.5590  178.7580  140.4450 N   0  0  0  0  0  2  0  0  0  0  0  0
  180.3110  181.1820  137.7150 C   0  0  0  0  0  3  0  0  0  0  0  0
  185.1130  178.2400  138.0070 C   0  0  2  0  0  3  0  0  0  0  0  0
  186.4480  177.4940  138.1210 C   0  0  0  0  0  2  0  0  0  0  0  0
  181.3940  176.9250  139.9050 C   0  0  0  0  0  2  0  0  0  0  0  0
  180.9460  179.0090  138.5850 C   0  0  0  0  0  0  0  0  0  0  0  0
  180.0210  179.8340  137.9390 C   0  0  0  0  0  3  0  0  0  0  0  0
  185.0050  173.8970  137.3390 O   0  0  0  0  0  0  0  0  0  0  0  0
  183.8210  174.3280  137.3660 C   0  0  0  0  0  0  0  0  0  0  0  0
  180.8980  172.1230  137.2810 C   0  0  0  0  0  0  0  0  0  0  0  0
  181.4540  174.4170  136.5100 C   0  0  0  0  0  2  0  0  0  0  0  0
  184.2370  172.0150  135.6830 O   0  0  0  0  0  1  0  0  0  0  0  0
  179.9340  171.3790  137.3580 O   0  0  0  0  0  0  0  0  0  0  0  0
  180.7520  173.5820  137.5840 C   0  0  0  0  0  2  0  0  0  0  0  0
  182.9270  172.4450  135.8970 C   0  0  2  0  0  3  0  0  0  0  0  0
  182.8910  173.9440  136.2520 C   0  0  2  0  0  3  0  0  0  0  0  0
  182.2530  171.5730  136.9570 C   0  0  0  0  0  2  0  0  0  0  0  0
  1 15  1  0  0  0  0
  1  9  2  0  0  0  0
  2  3  1  6  0  0  0
  4  7  2  0  0  0  0
  5  2  1  0  0  0  0
  5 15  1  1  0  0  0
  6  1  1  0  0  0  0
  7  3  1  0  0  0  0
  8 13  1  0  0  0  0
 10 19  1  0  0  0  0
 11  4  1  0  0  0  0
 12  8  1  0  0  0  0
 13  2  1  0  0  0  0
 13 19  1  6  0  0  0
 14  8  2  0  0  0  0
 16 21  2  0  0  0  0
 16  4  1  0  0  0  0
 17 12  1  1  0  0  0
 17 18  1  0  0  0  0
 17  5  1  0  0  0  0
 18  6  1  0  0  0  0
 20 10  1  0  0  0  0
 20  3  2  0  0  0  0
 21 20  1  0  0  0  0
 22 23  2  0  0  0  0
 23 14  1  0  0  0  0
 24 27  2  0  0  0  0
 24 28  1  0  0  0  0
 25 28  1  0  0  0  0
 29 26  1  1  0  0  0
 29 30  1  0  0  0  0
 29 31  1  0  0  0  0
 30 25  1  0  0  0  0
 30 23  1  1  0  0  0
 31 24  1  0  0  0  0
M  END
>  <MODEL>
5

>  <REMARK>
 VINA RESULT:      -6.1      5.918      9.431
  Name = 
  2 active torsions:
  status: ('A' for Active; 'I' for Inactive)
    1  A    between atoms: C_5  and  N_16
    2  A    between atoms: C_5  and  C_30
                            x       y       z     vdW  Elec       q    Type
                         _______ _______ _______ _____ _____    ______ ____

>  <TORSDO>
F 2

$$$$
=
 OpenBabel11122410563D

 31 35  0  0  1  0  0  0  0  0999 V2000
  185.5540  178.9150  145.4450 C   0  0  0  0  0  0  0  0  0  0  0  0
  189.2800  178.2280  145.3020 C   0  0  2  0  0  3  0  0  0  0  0  0
  190.2370  177.1260  145.7140 C   0  0  0  0  0  0  0  0  0  0  0  0
  190.8390  175.3690  147.2860 C   0  0  0  0  0  0  0  0  0  0  0  0
  187.8070  177.7860  145.3790 C   0  0  1  0  0  3  0  0  0  0  0  0
  184.9760  177.8180  144.6210 C   0  0  0  0  0  2  0  0  0  0  0  0
  189.9430  176.3440  146.8420 C   0  0  0  0  0  3  0  0  0  0  0  0
  189.0320  178.1100  142.7750 C   0  0  0  0  0  0  0  0  0  0  0  0
  184.8160  179.8240  145.9020 O   0  0  0  0  0  0  0  0  0  0  0  0
  191.8530  177.7400  143.8450 C   0  0  0  0  0  2  0  0  0  0  0  0
  190.5350  174.6140  148.3680 F   0  0  0  0  0  0  0  0  0  0  0  0
  188.3500  176.7990  143.0480 C   0  0  0  0  0  2  0  0  0  0  0  0
  189.6120  178.8730  143.9380 C   0  0  2  0  0  3  0  0  0  0  0  0
  189.1150  178.6240  141.5820 N   0  0  0  0  0  0  0  0  0  0  0  0
  186.9570  178.9330  145.7000 N   0  0  0  0  0  2  0  0  0  0  0  0
  192.0480  175.1750  146.6160 C   0  0  0  0  0  3  0  0  0  0  0  0
  187.3030  176.9630  144.1480 C   0  0  2  0  0  3  0  0  0  0  0  0
  185.9850  177.4570  143.5410 C   0  0  0  0  0  2  0  0  0  0  0  0
  191.1190  179.0770  143.7880 C   0  0  0  0  0  2  0  0  0  0  0  0
  191.4810  176.9490  145.0620 C   0  0  0  0  0  0  0  0  0  0  0  0
  192.3650  175.9630  145.5070 C   0  0  0  0  0  3  0  0  0  0  0  0
  187.7910  178.7010  139.6370 O   0  0  0  0  0  0  0  0  0  0  0  0
  188.6180  178.0720  140.3500 C   0  0  0  0  0  0  0  0  0  0  0  0
  191.3690  177.0360  138.1650 C   0  0  0  0  0  0  0  0  0  0  0  0
  190.4890  176.3870  140.3940 C   0  0  0  0  0  2  0  0  0  0  0  0
  187.6790  176.8200  137.9210 O   0  0  0  0  0  1  0  0  0  0  0  0
  192.3150  176.7920  137.4350 O   0  0  0  0  0  0  0  0  0  0  0  0
  191.5690  177.1690  139.6430 C   0  0  0  0  0  2  0  0  0  0  0  0
  188.9600  176.4980  138.3740 C   0  0  2  0  0  3  0  0  0  0  0  0
  189.0770  176.7170  139.8940 C   0  0  2  0  0  3  0  0  0  0  0  0
  190.0100  177.2810  137.5840 C   0  0  0  0  0  2  0  0  0  0  0  0
  1 15  1  0  0  0  0
  1  9  2  0  0  0  0
  2  5  1  0  0  0  0
  2  3  1  6  0  0  0
  3  7  1  0  0  0  0
  4 11  1  0  0  0  0
  5 15  1  6  0  0  0
  6  1  1  0  0  0  0
  7  4  2  0  0  0  0
  8 12  1  0  0  0  0
  8 13  1  0  0  0  0
 10 20  1  0  0  0  0
 13 19  1  6  0  0  0
 13  2  1  0  0  0  0
 14  8  2  0  0  0  0
 16  4  1  0  0  0  0
 17 12  1  6  0  0  0
 17  5  1  0  0  0  0
 18 17  1  0  0  0  0
 18  6  1  0  0  0  0
 19 10  1  0  0  0  0
 20 21  1  0  0  0  0
 20  3  2  0  0  0  0
 21 16  2  0  0  0  0
 22 23  2  0  0  0  0
 23 14  1  0  0  0  0
 24 28  1  0  0  0  0
 27 24  2  0  0  0  0
 28 25  1  0  0  0  0
 29 26  1  6  0  0  0
 29 30  1  0  0  0  0
 30 23  1  6  0  0  0
 30 25  1  0  0  0  0
 31 24  1  0  0  0  0
 31 29  1  0  0  0  0
M  END
>  <MODEL>
6

>  <REMARK>
 VINA RESULT:      -6.1      4.132      8.722
  Name = 
  2 active torsions:
  status: ('A' for Active; 'I' for Inactive)
    1  A    between atoms: C_5  and  N_16
    2  A    between atoms: C_5  and  C_30
                            x       y       z     vdW  Elec       q    Type
                         _______ _______ _______ _____ _____    ______ ____

>  <TORSDO>
F 2

$$$$
=
 OpenBabel11122410563D

 31 35  0  0  1  0  0  0  0  0999 V2000
  190.8430  176.6060  141.8450 C   0  0  0  0  0  0  0  0  0  0  0  0
  189.9790  175.7660  138.2510 C   0  0  2  0  0  3  0  0  0  0  0  0
  189.4910  176.4930  137.0120 C   0  0  0  0  0  0  0  0  0  0  0  0
  188.1300  178.2550  136.0310 C   0  0  0  0  0  0  0  0  0  0  0  0
  190.4210  176.7340  139.3640 C   0  0  1  0  0  3  0  0  0  0  0  0
  191.9740  177.5640  141.7060 C   0  0  0  0  0  2  0  0  0  0  0  0
  188.6510  177.6080  137.1540 C   0  0  0  0  0  3  0  0  0  0  0  0
  192.4470  175.2610  137.9090 C   0  0  0  0  0  0  0  0  0  0  0  0
  190.4820  176.2090  142.9820 O   0  0  0  0  0  0  0  0  0  0  0  0
  190.6610  174.8200  135.4890 C   0  0  0  0  0  2  0  0  0  0  0  0
  187.3310  179.3370  136.1830 F   0  0  0  0  0  0  0  0  0  0  0  0
  192.6140  176.7520  137.9880 C   0  0  0  0  0  2  0  0  0  0  0  0
  191.0520  174.6920  137.9690 C   0  0  2  0  0  3  0  0  0  0  0  0
  193.4570  174.4440  137.8220 N   0  0  0  0  0  0  0  0  0  0  0  0
  190.1810  176.1310  140.6750 N   0  0  0  0  0  2  0  0  0  0  0  0
  188.4300  177.7830  134.7520 C   0  0  0  0  0  3  0  0  0  0  0  0
  191.8670  177.3090  139.1980 C   0  0  2  0  0  3  0  0  0  0  0  0
  192.7480  177.2010  140.4480 C   0  0  0  0  0  2  0  0  0  0  0  0
  190.7090  173.9010  136.7070 C   0  0  0  0  0  2  0  0  0  0  0  0
  189.7610  175.9980  135.7140 C   0  0  0  0  0  0  0  0  0  0  0  0
  189.2440  176.6590  134.5960 C   0  0  0  0  0  3  0  0  0  0  0  0
  195.5190  174.9870  138.8190 O   0  0  0  0  0  0  0  0  0  0  0  0
  194.8550  174.7760  137.7690 C   0  0  0  0  0  0  0  0  0  0  0  0
  196.5720  172.2900  135.6990 C   0  0  0  0  0  0  0  0  0  0  0  0
  194.8600  174.0550  135.3560 C   0  0  0  0  0  2  0  0  0  0  0  0
  197.6800  175.3270  137.5070 O   0  0  0  0  0  1  0  0  0  0  0  0
  197.1120  171.3890  135.0780 O   0  0  0  0  0  0  0  0  0  0  0  0
  195.1080  172.5550  135.5270 C   0  0  0  0  0  2  0  0  0  0  0  0
  197.0590  174.5820  136.5030 C   0  0  2  0  0  3  0  0  0  0  0  0
  195.5510  174.8880  136.4430 C   0  0  2  0  0  3  0  0  0  0  0  0
  197.3500  173.0930  136.6950 C   0  0  0  0  0  2  0  0  0  0  0  0
  1  9  2  0  0  0  0
  2  3  1  6  0  0  0
  2  5  1  0  0  0  0
  3  7  1  0  0  0  0
  4 11  1  0  0  0  0
  4  7  2  0  0  0  0
  5 15  1  1  0  0  0
  6  1  1  0  0  0  0
  8 13  1  0  0  0  0
  8 12  1  0  0  0  0
 10 20  1  0  0  0  0
 10 19  1  0  0  0  0
 13 19  1  6  0  0  0
 13  2  1  0  0  0  0
 14  8  2  0  0  0  0
 15  1  1  0  0  0  0
 16  4  1  0  0  0  0
 17 12  1  6  0  0  0
 17  5  1  0  0  0  0
 17 18  1  0  0  0  0
 18  6  1  0  0  0  0
 20  3  2  0  0  0  0
 21 16  2  0  0  0  0
 21 20  1  0  0  0  0
 23 14  1  0  0  0  0
 23 22  2  0  0  0  0
 24 31  1  0  0  0  0
 25 28  1  0  0  0  0
 25 30  1  0  0  0  0
 27 24  2  0  0  0  0
 28 24  1  0  0  0  0
 29 31  1  0  0  0  0
 29 26  1  1  0  0  0
 30 29  1  0  0  0  0
 30 23  1  1  0  0  0
M  END
>  <MODEL>
7

>  <REMARK>
 VINA RESULT:      -6.1      2.681      6.688
  Name = 
  2 active torsions:
  status: ('A' for Active; 'I' for Inactive)
    1  A    between atoms: C_5  and  N_16
    2  A    between atoms: C_5  and  C_30
                            x       y       z     vdW  Elec       q    Type
                         _______ _______ _______ _____ _____    ______ ____

>  <TORSDO>
F 2

$$$$
=
 OpenBabel11122410563D

 31 35  0  0  1  0  0  0  0  0999 V2000
  184.7490  178.3420  142.1060 C   0  0  0  0  0  0  0  0  0  0  0  0
  182.4560  178.3420  139.0870 C   0  0  2  0  0  3  0  0  0  0  0  0
  181.8030  179.3590  138.1710 C   0  0  0  0  0  0  0  0  0  0  0  0
  180.7800  181.5470  137.8790 C   0  0  0  0  0  0  0  0  0  0  0  0
  183.5330  178.9710  139.9900 C   0  0  1  0  0  3  0  0  0  0  0  0
  185.9890  178.9830  141.5890 C   0  0  0  0  0  2  0  0  0  0  0  0
  181.4450  180.6160  138.6800 C   0  0  0  0  0  3  0  0  0  0  0  0
  184.3670  177.2740  137.7950 C   0  0  0  0  0  0  0  0  0  0  0  0
  184.7130  177.8760  143.2730 O   0  0  0  0  0  0  0  0  0  0  0  0
  181.7950  177.7050  136.2340 C   0  0  0  0  0  2  0  0  0  0  0  0
  180.4530  182.7610  138.3820 F   0  0  0  0  0  0  0  0  0  0  0  0
  184.9920  178.6380  137.8760 C   0  0  0  0  0  2  0  0  0  0  0  0
  182.9820  177.0850  138.3600 C   0  0  2  0  0  3  0  0  0  0  0  0
  184.9840  176.2480  137.2840 N   0  0  0  0  0  0  0  0  0  0  0  0
  183.6040  178.2490  141.2600 N   0  0  0  0  0  2  0  0  0  0  0  0
  180.4500  181.2240  136.5620 C   0  0  0  0  0  3  0  0  0  0  0  0
  184.9270  179.1690  139.3070 C   0  0  2  0  0  3  0  0  0  0  0  0
  186.1180  178.6380  140.1130 C   0  0  0  0  0  2  0  0  0  0  0  0
  181.9920  176.6220  137.2910 C   0  0  0  0  0  2  0  0  0  0  0  0
  181.4320  179.0250  136.8460 C   0  0  0  0  0  0  0  0  0  0  0  0
  180.7770  179.9680  136.0480 C   0  0  0  0  0  3  0  0  0  0  0  0
  186.5080  176.5470  135.5150 O   0  0  0  0  0  0  0  0  0  0  0  0
  186.3030  176.2100  136.7120 C   0  0  0  0  0  0  0  0  0  0  0  0
  189.9080  176.2170  136.0650 C   0  0  0  0  0  0  0  0  0  0  0  0
  188.4030  176.9090  137.9140 C   0  0  0  0  0  2  0  0  0  0  0  0
  187.3970  173.5390  136.5600 O   0  0  0  0  0  1  0  0  0  0  0  0
  191.0880  176.2720  135.7600 O   0  0  0  0  0  0  0  0  0  0  0  0
  189.2430  177.3840  136.7270 C   0  0  0  0  0  2  0  0  0  0  0  0
  188.2540  174.5820  136.9170 C   0  0  2  0  0  3  0  0  0  0  0  0
  187.4680  175.7510  137.5400 C   0  0  2  0  0  3  0  0  0  0  0  0
  189.0910  175.0110  135.7130 C   0  0  0  0  0  2  0  0  0  0  0  0
  1  9  2  0  0  0  0
  2  3  1  6  0  0  0
  2  5  1  0  0  0  0
  3  7  1  0  0  0  0
  4 11  1  0  0  0  0
  4  7  2  0  0  0  0
  5 15  1  1  0  0  0
  6  1  1  0  0  0  0
  8 12  1  0  0  0  0
  8 13  1  0  0  0  0
 10 20  1  0  0  0  0
 10 19  1  0  0  0  0
 13 19  1  6  0  0  0
 13  2  1  0  0  0  0
 14  8  2  0  0  0  0
 15  1  1  0  0  0  0
 16  4  1  0  0  0  0
 17 12  1  6  0  0  0
 17  5  1  0  0  0  0
 17 18  1  0  0  0  0
 18  6  1  0  0  0  0
 20  3  2  0  0  0  0
 21 16  2  0  0  0  0
 21 20  1  0  0  0  0
 22 23  2  0  0  0  0
 23 14  1  0  0  0  0
 24 28  1  0  0  0  0
 27 24  2  0  0  0  0
 28 25  1  0  0  0  0
 29 26  1  6  0  0  0
 29 30  1  0  0  0  0
 30 23  1  6  0  0  0
 30 25  1  0  0  0  0
 31 24  1  0  0  0  0
 31 29  1  0  0  0  0
M  END
>  <MODEL>
8

>  <REMARK>
 VINA RESULT:      -6.1      5.232      8.335
  Name = 
  2 active torsions:
  status: ('A' for Active; 'I' for Inactive)
    1  A    between atoms: C_5  and  N_16
    2  A    between atoms: C_5  and  C_30
                            x       y       z     vdW  Elec       q    Type
                         _______ _______ _______ _____ _____    ______ ____

>  <TORSDO>
F 2

$$$$
=
 OpenBabel11122410563D

 31 35  0  0  1  0  0  0  0  0999 V2000
  179.7270  179.1940  139.6090 C   0  0  0  0  0  0  0  0  0  0  0  0
  183.3220  179.1680  140.8120 C   0  0  2  0  0  3  0  0  0  0  0  0
  184.0870  178.7790  142.0630 C   0  0  0  0  0  0  0  0  0  0  0  0
  184.1700  178.6220  144.4890 C   0  0  0  0  0  0  0  0  0  0  0  0
  181.8660  178.6680  140.8350 C   0  0  1  0  0  3  0  0  0  0  0  0
  179.3480  177.7550  139.6460 C   0  0  0  0  0  2  0  0  0  0  0  0
  183.4680  178.9060  143.3160 C   0  0  0  0  0  3  0  0  0  0  0  0
  183.7590  177.3710  139.0680 C   0  0  0  0  0  0  0  0  0  0  0  0
  178.9310  180.0500  139.1470 O   0  0  0  0  0  0  0  0  0  0  0  0
  186.1710  178.2410  140.7020 C   0  0  0  0  0  2  0  0  0  0  0  0
  183.5560  178.7360  145.6900 F   0  0  0  0  0  0  0  0  0  0  0  0
  182.9760  176.4850  139.9940 C   0  0  0  0  0  2  0  0  0  0  0  0
  184.0350  178.7900  139.4950 C   0  0  2  0  0  3  0  0  0  0  0  0
  184.1810  176.9720  137.9030 N   0  0  0  0  0  0  0  0  0  0  0  0
  181.0090  179.5920  140.0910 N   0  0  0  0  0  2  0  0  0  0  0  0
  185.5060  178.2220  144.4240 C   0  0  0  0  0  3  0  0  0  0  0  0
  181.6790  177.1720  140.4180 C   0  0  2  0  0  3  0  0  0  0  0  0
  180.5940  176.9310  139.3610 C   0  0  0  0  0  2  0  0  0  0  0  0
  185.5350  179.0720  139.5900 C   0  0  0  0  0  2  0  0  0  0  0  0
  185.4520  178.4090  142.0060 C   0  0  0  0  0  0  0  0  0  0  0  0
  186.1430  178.1150  143.1850 C   0  0  0  0  0  3  0  0  0  0  0  0
  183.1010  174.8920  137.6820 O   0  0  0  0  0  0  0  0  0  0  0  0
  184.0120  175.6760  137.3030 C   0  0  0  0  0  0  0  0  0  0  0  0
  187.2390  176.9730  136.1530 C   0  0  0  0  0  0  0  0  0  0  0  0
  186.2920  174.7570  136.7530 C   0  0  0  0  0  2  0  0  0  0  0  0
  183.8850  176.7040  134.6050 O   0  0  0  0  0  1  0  0  0  0  0  0
  188.3100  177.4720  135.8520 O   0  0  0  0  0  0  0  0  0  0  0  0
  187.1670  175.9230  137.2190 C   0  0  0  0  0  2  0  0  0  0  0  0
  185.1200  176.2640  135.0830 C   0  0  2  0  0  3  0  0  0  0  0  0
  184.9370  175.2280  136.2080 C   0  0  2  0  0  3  0  0  0  0  0  0
  185.9730  177.4570  135.5160 C   0  0  0  0  0  2  0  0  0  0  0  0
  1  6  1  0  0  0  0
  1 15  1  0  0  0  0
  2  5  1  0  0  0  0
  2  3  1  1  0  0  0
  3  7  1  0  0  0  0
  4 11  1  0  0  0  0
  5 15  1  6  0  0  0
  7  4  2  0  0  0  0
  8 13  1  0  0  0  0
  8 12  1  0  0  0  0
  9  1  2  0  0  0  0
 10 20  1  0  0  0  0
 12 17  1  0  0  0  0
 13 19  1  1  0  0  0
 13  2  1  0  0  0  0
 14  8  2  0  0  0  0
 16  4  1  0  0  0  0
 17 18  1  6  0  0  0
 17  5  1  0  0  0  0
 18  6  1  0  0  0  0
 19 10  1  0  0  0  0
 20  3  2  0  0  0  0
 20 21  1  0  0  0  0
 21 16  2  0  0  0  0
 23 22  2  0  0  0  0
 23 14  1  0  0  0  0
 24 28  1  0  0  0  0
 25 28  1  0  0  0  0
 27 24  2  0  0  0  0
 29 26  1  1  0  0  0
 29 31  1  0  0  0  0
 29 30  1  0  0  0  0
 30 25  1  0  0  0  0
 30 23  1  1  0  0  0
 31 24  1  0  0  0  0
M  END
>  <MODEL>
9

>  <REMARK>
 VINA RESULT:      -6.0      6.141      9.809
  Name = 
  2 active torsions:
  status: ('A' for Active; 'I' for Inactive)
    1  A    between atoms: C_5  and  N_16
    2  A    between atoms: C_5  and  C_30
                            x       y       z     vdW  Elec       q    Type
                         _______ _______ _______ _____ _____    ______ ____

>  <TORSDO>
F 2

$$$$
