=
 OpenBabel11122412163D

 34 41  0  0  1  0  0  0  0  0999 V2000
  190.4020  177.2800  142.9320 C   0  0  2  0  0  3  0  0  0  0  0  0
  192.4280  177.0960  141.3460 C   0  0  0  0  0  3  0  0  0  0  0  0
  184.0460  178.2710  144.0390 C   0  0  2  0  0  3  0  0  0  0  0  0
  188.3160  177.2870  144.3090 C   0  0  1  0  0  3  0  0  0  0  0  0
  186.3440  178.3320  143.1910 C   0  0  0  0  0  0  0  0  0  0  0  0
  184.0820  179.0040  142.0420 C   0  0  0  0  0  2  0  0  0  0  0  0
  182.9910  178.4860  142.9770 C   0  0  0  0  0  2  0  0  0  0  0  0
  185.3060  179.1380  146.0170 C   0  0  0  0  0  2  0  0  0  0  0  0
  190.3090  177.5810  140.4560 C   0  0  0  0  0  0  0  0  0  0  0  0
  189.3720  175.8070  138.4310 C   0  0  0  0  0  2  0  0  0  0  0  0
  187.0350  178.2260  141.8890 C   0  0  0  0  0  3  0  0  0  0  0  0
  186.2630  177.9640  145.7180 C   0  0  0  0  0  2  0  0  0  0  0  0
  188.9930  177.8180  140.4720 C   0  0  0  0  0  0  0  0  0  0  0  0
  192.5450  177.1460  139.8120 C   0  0  0  0  0  3  0  0  0  0  0  0
  186.9700  177.9840  144.3580 C   0  0  1  0  0  3  0  0  0  0  0  0
  183.9060  178.9550  145.3870 C   0  0  0  0  0  2  0  0  0  0  0  0
  190.7340  176.4860  138.1890 C   0  0  2  0  0  3  0  0  0  0  0  0
  189.0680  177.4980  143.0130 C   0  0  0  0  0  0  0  0  0  0  0  0
  185.0320  179.0550  143.2240 C   0  0  1  0  0  3  0  0  0  0  0  0
  188.3040  177.8300  141.7850 C   0  0  0  0  0  0  0  0  0  0  0  0
  190.4490  176.7350  145.4180 C   0  0  0  0  0  2  0  0  0  0  0  0
  188.1580  176.7470  138.3380 C   0  0  0  0  0  2  0  0  0  0  0  0
  189.2000  177.5980  145.5130 C   0  0  0  0  0  2  0  0  0  0  0  0
  188.2630  178.0290  139.1770 C   0  0  0  0  0  2  0  0  0  0  0  0
  191.1700  177.5220  139.2440 C   0  0  1  0  0  3  0  0  0  0  0  0
  191.2520  177.1040  144.1700 C   0  0  0  0  0  2  0  0  0  0  0  0
  191.0330  177.3510  141.6440 N   0  0  0  0  0  0  0  0  0  0  0  0
  190.7880  177.0770  136.8610 N   0  0  0  0  0  2  0  0  0  0  0  0
  190.9850  175.9910  135.9160 C   0  0  0  0  0  2  0  0  0  0  0  0
  187.8610  175.7030  135.0600 O   0  0  0  0  0  0  0  0  0  0  0  0
  189.3670  177.5030  134.8150 C   0  0  0  0  0  2  0  0  0  0  0  0
  190.1400  176.2230  134.6760 C   0  0  2  0  0  3  0  0  0  0  0  0
  187.9240  177.0660  134.7410 C   0  0  0  0  0  2  0  0  0  0  0  0
  189.0670  175.1600  134.5940 C   0  0  0  0  0  2  0  0  0  0  0  0
  1 18  1  0  0  0  0
  1 26  1  1  0  0  0
  2 27  1  0  0  0  0
  3  7  1  6  0  0  0
  3 16  1  0  0  0  0
  4 15  1  0  0  0  0
  4 23  1  1  0  0  0
  5 19  1  0  0  0  0
  5 15  1  0  0  0  0
  6  7  1  0  0  0  0
  9 13  2  0  0  0  0
  9 27  1  0  0  0  0
 11  5  2  0  0  0  0
 12  8  1  0  0  0  0
 13 20  1  0  0  0  0
 14  2  2  0  0  0  0
 15 12  1  6  0  0  0
 16  8  1  0  0  0  0
 17 28  1  6  0  0  0
 17 10  1  0  0  0  0
 17 25  1  0  0  0  0
 18  4  1  0  0  0  0
 19  6  1  6  0  0  0
 19  3  1  0  0  0  0
 20 11  1  0  0  0  0
 20 18  2  0  0  0  0
 21 23  1  0  0  0  0
 22 10  1  0  0  0  0
 22 24  1  0  0  0  0
 24 13  1  0  0  0  0
 25 14  1  1  0  0  0
 25  9  1  0  0  0  0
 26 21  1  0  0  0  0
 27  1  1  0  0  0  0
 29 28  1  0  0  0  0
 32 31  1  0  0  0  0
 32 29  1  1  0  0  0
 33 31  1  0  0  0  0
 33 30  1  0  0  0  0
 34 32  1  0  0  0  0
 34 30  1  0  0  0  0
M  END
>  <MODEL>
1

>  <REMARK>
 VINA RESULT:      -9.7      0.000      0.000
  Name = 
  3 active torsions:
  status: ('A' for Active; 'I' for Inactive)
    1  A    between atoms: C_17  and  N_28
    2  A    between atoms: N_28  and  C_29
    3  A    between atoms: C_29  and  C_32
                            x       y       z     vdW  Elec       q    Type
                         _______ _______ _______ _____ _____    ______ ____

>  <TORSDO>
F 3

$$$$
=
 OpenBabel11122412163D

 34 41  0  0  1  0  0  0  0  0999 V2000
  188.1900  177.6800  140.5190 C   0  0  2  0  0  3  0  0  0  0  0  0
  186.7380  178.4630  138.5360 C   0  0  0  0  0  3  0  0  0  0  0  0
  189.1840  176.7790  146.9070 C   0  0  2  0  0  3  0  0  0  0  0  0
  189.3870  176.7830  142.5210 C   0  0  1  0  0  3  0  0  0  0  0  0
  188.5230  177.6290  144.7050 C   0  0  0  0  0  0  0  0  0  0  0  0
  187.5030  178.0720  147.0830 C   0  0  0  0  0  2  0  0  0  0  0  0
  188.1770  177.0550  148.0010 C   0  0  0  0  0  2  0  0  0  0  0  0
  191.3980  177.2730  145.8550 C   0  0  0  0  0  2  0  0  0  0  0  0
  185.9160  178.6880  140.7250 C   0  0  0  0  0  0  0  0  0  0  0  0
  183.4040  177.4470  141.2460 C   0  0  0  0  0  2  0  0  0  0  0  0
  187.2900  178.0870  144.0320 C   0  0  0  0  0  3  0  0  0  0  0  0
  190.8160  176.5030  144.6510 C   0  0  0  0  0  2  0  0  0  0  0  0
  185.9280  178.5960  142.0580 C   0  0  0  0  0  0  0  0  0  0  0  0
  185.2980  179.0030  138.4610 C   0  0  0  0  0  3  0  0  0  0  0  0
  189.5660  177.0980  143.9940 C   0  0  1  0  0  3  0  0  0  0  0  0
  190.6640  176.9700  147.1820 C   0  0  0  0  0  2  0  0  0  0  0  0
  183.4530  178.4650  140.0910 C   0  0  2  0  0  3  0  0  0  0  0  0
  188.2570  177.5470  141.8640 C   0  0  0  0  0  0  0  0  0  0  0  0
  188.6970  177.9810  146.1510 C   0  0  1  0  0  3  0  0  0  0  0  0
  187.1430  178.0480  142.7080 C   0  0  0  0  0  0  0  0  0  0  0  0
  190.3970  176.4330  140.2990 C   0  0  0  0  0  2  0  0  0  0  0  0
  183.5280  178.0600  142.6510 C   0  0  0  0  0  2  0  0  0  0  0  0
  190.6760  176.9100  141.7160 C   0  0  0  0  0  2  0  0  0  0  0  0
  184.7160  179.0140  142.8410 C   0  0  0  0  0  2  0  0  0  0  0  0
  184.7920  179.2020  139.8960 C   0  0  1  0  0  3  0  0  0  0  0  0
  189.3650  177.3400  139.6290 C   0  0  0  0  0  2  0  0  0  0  0  0
  187.0200  178.2840  139.9450 N   0  0  0  0  0  0  0  0  0  0  0  0
  182.3680  179.4260  140.2030 N   0  0  0  0  0  2  0  0  0  0  0  0
  181.2120  178.8490  139.5380 C   0  0  0  0  0  2  0  0  0  0  0  0
  179.6320  177.4080  141.9890 O   0  0  0  0  0  0  0  0  0  0  0  0
  180.3360  179.6430  141.7100 C   0  0  0  0  0  2  0  0  0  0  0  0
  179.9610  179.0980  140.3620 C   0  0  2  0  0  3  0  0  0  0  0  0
  179.8020  178.6150  142.6790 C   0  0  0  0  0  2  0  0  0  0  0  0
  179.2960  177.7770  140.6780 C   0  0  0  0  0  2  0  0  0  0  0  0
  1 26  1  1  0  0  0
  1 18  1  0  0  0  0
  2 27  1  0  0  0  0
  3 16  1  1  0  0  0
  3  7  1  0  0  0  0
  4 23  1  6  0  0  0
  4 15  1  0  0  0  0
  5 19  1  0  0  0  0
  6  7  1  0  0  0  0
  8 16  1  0  0  0  0
  9 13  2  0  0  0  0
 10 22  1  0  0  0  0
 11  5  2  0  0  0  0
 12  8  1  0  0  0  0
 13 20  1  0  0  0  0
 13 24  1  0  0  0  0
 14  2  2  0  0  0  0
 15 12  1  1  0  0  0
 15  5  1  0  0  0  0
 17 28  1  1  0  0  0
 17 10  1  0  0  0  0
 18  4  1  0  0  0  0
 18 20  2  0  0  0  0
 19  3  1  0  0  0  0
 19  6  1  1  0  0  0
 20 11  1  0  0  0  0
 21 23  1  0  0  0  0
 22 24  1  0  0  0  0
 25 14  1  6  0  0  0
 25 17  1  0  0  0  0
 25  9  1  0  0  0  0
 26 21  1  0  0  0  0
 27  1  1  0  0  0  0
 27  9  1  0  0  0  0
 29 28  1  0  0  0  0
 30 33  1  0  0  0  0
 31 33  1  0  0  0  0
 32 29  1  6  0  0  0
 32 34  1  0  0  0  0
 32 31  1  0  0  0  0
 34 30  1  0  0  0  0
M  END
>  <MODEL>
2

>  <REMARK>
 VINA RESULT:      -9.6      3.209      6.904
  Name = 
  3 active torsions:
  status: ('A' for Active; 'I' for Inactive)
    1  A    between atoms: C_17  and  N_28
    2  A    between atoms: N_28  and  C_29
    3  A    between atoms: C_29  and  C_32
                            x       y       z     vdW  Elec       q    Type
                         _______ _______ _______ _____ _____    ______ ____

>  <TORSDO>
F 3

$$$$
=
 OpenBabel11122412163D

 34 41  0  0  1  0  0  0  0  0999 V2000
  190.3250  177.3130  142.8300 C   0  0  2  0  0  3  0  0  0  0  0  0
  192.4230  177.0930  141.3450 C   0  0  0  0  0  3  0  0  0  0  0  0
  183.9250  178.3240  143.6160 C   0  0  2  0  0  3  0  0  0  0  0  0
  188.1780  177.3490  144.1070 C   0  0  1  0  0  3  0  0  0  0  0  0
  186.2600  178.3670  142.8750 C   0  0  0  0  0  0  0  0  0  0  0  0
  184.0540  179.0110  141.6060 C   0  0  0  0  0  2  0  0  0  0  0  0
  182.9210  178.5140  142.5010 C   0  0  0  0  0  2  0  0  0  0  0  0
  185.0920  179.2370  145.6300 C   0  0  0  0  0  2  0  0  0  0  0  0
  190.3480  177.5560  140.3460 C   0  0  0  0  0  0  0  0  0  0  0  0
  189.5060  175.7360  138.3210 C   0  0  0  0  0  2  0  0  0  0  0  0
  187.0120  178.2320  141.6100 C   0  0  0  0  0  3  0  0  0  0  0  0
  186.0610  178.0580  145.4030 C   0  0  0  0  0  2  0  0  0  0  0  0
  189.0330  177.7930  140.2950 C   0  0  0  0  0  0  0  0  0  0  0  0
  192.6120  177.1080  139.8170 C   0  0  0  0  0  3  0  0  0  0  0  0
  186.8310  178.0460  144.0780 C   0  0  1  0  0  3  0  0  0  0  0  0
  183.7230  179.0390  144.9400 C   0  0  0  0  0  2  0  0  0  0  0  0
  190.8780  176.4110  138.1270 C   0  0  2  0  0  3  0  0  0  0  0  0
  188.9900  177.5320  142.8430 C   0  0  0  0  0  0  0  0  0  0  0  0
  184.9480  179.0900  142.8300 C   0  0  1  0  0  3  0  0  0  0  0  0
  188.2830  177.8350  141.5730 C   0  0  0  0  0  0  0  0  0  0  0  0
  190.2560  176.8250  145.3270 C   0  0  0  0  0  2  0  0  0  0  0  0
  188.2980  176.6720  138.1500 C   0  0  0  0  0  2  0  0  0  0  0  0
  189.0040  177.6880  145.3440 C   0  0  0  0  0  2  0  0  0  0  0  0
  188.3640  177.9730  138.9630 C   0  0  0  0  0  2  0  0  0  0  0  0
  191.2650  177.4700  139.1770 C   0  0  1  0  0  3  0  0  0  0  0  0
  191.1170  177.1660  144.1100 C   0  0  0  0  0  2  0  0  0  0  0  0
  191.0160  177.3540  141.5710 N   0  0  0  0  0  0  0  0  0  0  0  0
  190.9940  176.9710  136.7900 N   0  0  0  0  0  2  0  0  0  0  0  0
  191.5150  175.9220  135.9290 C   0  0  0  0  0  2  0  0  0  0  0  0
  194.0860  174.2150  134.9010 O   0  0  0  0  0  0  0  0  0  0  0  0
  193.9610  176.2010  136.1700 C   0  0  0  0  0  2  0  0  0  0  0  0
  192.7830  175.3410  136.5280 C   0  0  2  0  0  3  0  0  0  0  0  0
  194.8610  175.2760  135.3870 C   0  0  0  0  0  2  0  0  0  0  0  0
  193.0890  174.0150  135.8680 C   0  0  0  0  0  2  0  0  0  0  0  0
  1 18  1  0  0  0  0
  1 26  1  1  0  0  0
  2 27  1  0  0  0  0
  3  7  1  6  0  0  0
  3 16  1  0  0  0  0
  4 23  1  1  0  0  0
  5 15  1  0  0  0  0
  6  7  1  0  0  0  0
  9 27  1  0  0  0  0
 11  5  2  0  0  0  0
 12  8  1  0  0  0  0
 13  9  2  0  0  0  0
 13 20  1  0  0  0  0
 14  2  2  0  0  0  0
 15  4  1  0  0  0  0
 15 12  1  6  0  0  0
 16  8  1  0  0  0  0
 17 28  1  6  0  0  0
 17 10  1  0  0  0  0
 17 25  1  0  0  0  0
 18  4  1  0  0  0  0
 19  6  1  6  0  0  0
 19  5  1  0  0  0  0
 19  3  1  0  0  0  0
 20 11  1  0  0  0  0
 20 18  2  0  0  0  0
 21 23  1  0  0  0  0
 22 10  1  0  0  0  0
 22 24  1  0  0  0  0
 24 13  1  0  0  0  0
 25 14  1  1  0  0  0
 25  9  1  0  0  0  0
 26 21  1  0  0  0  0
 27  1  1  0  0  0  0
 29 28  1  0  0  0  0
 30 33  1  0  0  0  0
 30 34  1  0  0  0  0
 31 32  1  0  0  0  0
 32 29  1  6  0  0  0
 33 31  1  0  0  0  0
 34 32  1  0  0  0  0
M  END
>  <MODEL>
3

>  <REMARK>
 VINA RESULT:      -9.5      1.541      2.102
  Name = 
  3 active torsions:
  status: ('A' for Active; 'I' for Inactive)
    1  A    between atoms: C_17  and  N_28
    2  A    between atoms: N_28  and  C_29
    3  A    between atoms: C_29  and  C_32
                            x       y       z     vdW  Elec       q    Type
                         _______ _______ _______ _____ _____    ______ ____

>  <TORSDO>
F 3

$$$$
=
 OpenBabel11122412163D

 34 41  0  0  1  0  0  0  0  0999 V2000
  188.1680  177.7060  140.3200 C   0  0  2  0  0  3  0  0  0  0  0  0
  186.6810  178.4970  138.3660 C   0  0  0  0  0  3  0  0  0  0  0  0
  189.2710  176.7740  146.6860 C   0  0  2  0  0  3  0  0  0  0  0  0
  189.4000  176.8010  142.2970 C   0  0  1  0  0  3  0  0  0  0  0  0
  188.5720  177.6330  144.5000 C   0  0  0  0  0  0  0  0  0  0  0  0
  187.5900  178.0610  146.8960 C   0  0  0  0  0  2  0  0  0  0  0  0
  188.2820  177.0410  147.7980 C   0  0  0  0  0  2  0  0  0  0  0  0
  191.4660  177.2790  145.6000 C   0  0  0  0  0  2  0  0  0  0  0  0
  185.8950  178.7080  140.5700 C   0  0  0  0  0  0  0  0  0  0  0  0
  183.3960  177.4580  141.1260 C   0  0  0  0  0  2  0  0  0  0  0  0
  187.3260  178.0930  143.8500 C   0  0  0  0  0  3  0  0  0  0  0  0
  190.8650  176.5130  144.4010 C   0  0  0  0  0  2  0  0  0  0  0  0
  185.9300  178.6090  141.9020 C   0  0  0  0  0  0  0  0  0  0  0  0
  185.2380  179.0330  138.3180 C   0  0  0  0  0  3  0  0  0  0  0  0
  189.6040  177.1090  143.7680 C   0  0  1  0  0  3  0  0  0  0  0  0
  190.7550  176.9660  146.9360 C   0  0  0  0  0  2  0  0  0  0  0  0
  183.4230  178.4820  139.9760 C   0  0  2  0  0  3  0  0  0  0  0  0
  188.2580  177.5660  141.6630 C   0  0  0  0  0  0  0  0  0  0  0  0
  188.7680  177.9780  145.9450 C   0  0  1  0  0  3  0  0  0  0  0  0
  187.1570  178.0600  142.5280 C   0  0  0  0  0  0  0  0  0  0  0  0
  190.3740  176.4660  140.0560 C   0  0  0  0  0  2  0  0  0  0  0  0
  183.5420  178.0640  142.5320 C   0  0  0  0  0  2  0  0  0  0  0  0
  190.6760  176.9360  141.4710 C   0  0  0  0  0  2  0  0  0  0  0  0
  184.7310  179.0200  142.7070 C   0  0  0  0  0  2  0  0  0  0  0  0
  184.7560  179.2240  139.7630 C   0  0  1  0  0  3  0  0  0  0  0  0
  189.3280  177.3740  139.4090 C   0  0  0  0  0  2  0  0  0  0  0  0
  186.9870  178.3100  139.7700 N   0  0  0  0  0  0  0  0  0  0  0  0
  182.3370  179.4400  140.1110 N   0  0  0  0  0  2  0  0  0  0  0  0
  181.3800  179.1580  139.0550 C   0  0  0  0  0  2  0  0  0  0  0  0
  179.6000  181.4500  137.5860 O   0  0  0  0  0  0  0  0  0  0  0  0
  181.7850  181.5270  138.4740 C   0  0  0  0  0  2  0  0  0  0  0  0
  181.5530  180.1510  137.9190 C   0  0  2  0  0  3  0  0  0  0  0  0
  180.6270  182.3350  137.9380 C   0  0  0  0  0  2  0  0  0  0  0  0
  180.2500  180.2810  137.1630 C   0  0  0  0  0  2  0  0  0  0  0  0
  1 26  1  1  0  0  0
  1 18  1  0  0  0  0
  2 27  1  0  0  0  0
  3 16  1  1  0  0  0
  3  7  1  0  0  0  0
  4 23  1  6  0  0  0
  4 15  1  0  0  0  0
  5 19  1  0  0  0  0
  6  7  1  0  0  0  0
  8 16  1  0  0  0  0
  9 13  2  0  0  0  0
 10 22  1  0  0  0  0
 11  5  2  0  0  0  0
 12  8  1  0  0  0  0
 13 20  1  0  0  0  0
 13 24  1  0  0  0  0
 14  2  2  0  0  0  0
 15 12  1  1  0  0  0
 15  5  1  0  0  0  0
 17 28  1  1  0  0  0
 17 10  1  0  0  0  0
 18  4  1  0  0  0  0
 18 20  2  0  0  0  0
 19  3  1  0  0  0  0
 19  6  1  1  0  0  0
 20 11  1  0  0  0  0
 21 23  1  0  0  0  0
 22 24  1  0  0  0  0
 25 14  1  6  0  0  0
 25 17  1  0  0  0  0
 25  9  1  0  0  0  0
 26 21  1  0  0  0  0
 27  1  1  0  0  0  0
 27  9  1  0  0  0  0
 29 28  1  0  0  0  0
 30 33  1  0  0  0  0
 32 31  1  0  0  0  0
 32 29  1  1  0  0  0
 33 31  1  0  0  0  0
 34 30  1  0  0  0  0
 34 32  1  0  0  0  0
M  END
>  <MODEL>
4

>  <REMARK>
 VINA RESULT:      -9.4      3.495      6.539
  Name = 
  3 active torsions:
  status: ('A' for Active; 'I' for Inactive)
    1  A    between atoms: C_17  and  N_28
    2  A    between atoms: N_28  and  C_29
    3  A    between atoms: C_29  and  C_32
                            x       y       z     vdW  Elec       q    Type
                         _______ _______ _______ _____ _____    ______ ____

>  <TORSDO>
F 3

$$$$
=
 OpenBabel11122412163D

 34 41  0  0  1  0  0  0  0  0999 V2000
  189.7070  177.4430  143.2890 C   0  0  2  0  0  3  0  0  0  0  0  0
  192.0640  177.2100  142.2680 C   0  0  0  0  0  3  0  0  0  0  0  0
  183.2710  178.3760  142.7280 C   0  0  2  0  0  3  0  0  0  0  0  0
  187.3440  177.4850  144.1030 C   0  0  1  0  0  3  0  0  0  0  0  0
  185.7080  178.4330  142.4740 C   0  0  0  0  0  0  0  0  0  0  0  0
  183.7990  179.0020  140.7640 C   0  0  0  0  0  2  0  0  0  0  0  0
  182.5120  178.5140  141.4270 C   0  0  0  0  0  2  0  0  0  0  0  0
  183.9960  179.3700  144.9040 C   0  0  0  0  0  2  0  0  0  0  0  0
  190.2310  177.6090  140.8540 C   0  0  0  0  0  0  0  0  0  0  0  0
  189.8350  175.7130  138.7640 C   0  0  0  0  0  2  0  0  0  0  0  0
  186.7010  178.2710  141.3920 C   0  0  0  0  0  3  0  0  0  0  0  0
  185.0030  178.2000  144.9180 C   0  0  0  0  0  2  0  0  0  0  0  0
  188.9520  177.8220  140.5300 C   0  0  0  0  0  0  0  0  0  0  0  0
  192.5590  177.1800  140.8100 C   0  0  0  0  0  3  0  0  0  0  0  0
  186.0250  178.1590  143.7780 C   0  0  1  0  0  3  0  0  0  0  0  0
  182.7980  179.1280  143.9580 C   0  0  0  0  0  2  0  0  0  0  0  0
  191.2100  176.4030  138.8290 C   0  0  2  0  0  3  0  0  0  0  0  0
  188.3940  177.6410  143.0240 C   0  0  0  0  0  0  0  0  0  0  0  0
  184.4250  179.1330  142.1400 C   0  0  1  0  0  3  0  0  0  0  0  0
  187.9570  177.8920  141.6280 C   0  0  0  0  0  0  0  0  0  0  0  0
  189.1370  177.0320  145.7350 C   0  0  0  0  0  2  0  0  0  0  0  0
  188.6770  176.6240  138.3200 C   0  0  0  0  0  2  0  0  0  0  0  0
  187.8990  177.8760  145.4690 C   0  0  0  0  0  2  0  0  0  0  0  0
  188.5650  177.9510  139.0840 C   0  0  0  0  0  2  0  0  0  0  0  0
  191.3660  177.5000  139.8990 C   0  0  1  0  0  3  0  0  0  0  0  0
  190.2240  177.3480  144.7070 C   0  0  0  0  0  2  0  0  0  0  0  0
  190.6380  177.4560  142.1960 N   0  0  0  0  0  0  0  0  0  0  0  0
  191.5900  176.9220  137.5240 N   0  0  0  0  0  2  0  0  0  0  0  0
  192.8930  176.3630  137.2020 C   0  0  0  0  0  2  0  0  0  0  0  0
  191.5120  173.5130  136.4610 O   0  0  0  0  0  0  0  0  0  0  0  0
  191.4240  175.6010  135.3650 C   0  0  0  0  0  2  0  0  0  0  0  0
  192.7820  175.4570  135.9890 C   0  0  2  0  0  3  0  0  0  0  0  0
  190.8320  174.2140  135.4570 C   0  0  0  0  0  2  0  0  0  0  0  0
  192.8230  174.0130  136.4360 C   0  0  0  0  0  2  0  0  0  0  0  0
  1 26  1  1  0  0  0
  3  7  1  6  0  0  0
  3 16  1  0  0  0  0
  4 23  1  1  0  0  0
  5 15  1  0  0  0  0
  6  7  1  0  0  0  0
  8 12  1  0  0  0  0
  9 27  1  0  0  0  0
 10 17  1  0  0  0  0
 11 20  1  0  0  0  0
 11  5  2  0  0  0  0
 13  9  2  0  0  0  0
 13 20  1  0  0  0  0
 14  2  2  0  0  0  0
 15  4  1  0  0  0  0
 15 12  1  6  0  0  0
 16  8  1  0  0  0  0
 17 28  1  6  0  0  0
 17 25  1  0  0  0  0
 18  1  1  0  0  0  0
 18  4  1  0  0  0  0
 19  6  1  6  0  0  0
 19  5  1  0  0  0  0
 19  3  1  0  0  0  0
 20 18  2  0  0  0  0
 22 10  1  0  0  0  0
 22 24  1  0  0  0  0
 23 21  1  0  0  0  0
 24 13  1  0  0  0  0
 25 14  1  1  0  0  0
 25  9  1  0  0  0  0
 26 21  1  0  0  0  0
 27  2  1  0  0  0  0
 27  1  1  0  0  0  0
 29 28  1  0  0  0  0
 31 33  1  0  0  0  0
 31 32  1  0  0  0  0
 32 34  1  0  0  0  0
 32 29  1  1  0  0  0
 33 30  1  0  0  0  0
 34 30  1  0  0  0  0
M  END
>  <MODEL>
5

>  <REMARK>
 VINA RESULT:      -9.3      1.426      1.808
  Name = 
  3 active torsions:
  status: ('A' for Active; 'I' for Inactive)
    1  A    between atoms: C_17  and  N_28
    2  A    between atoms: N_28  and  C_29
    3  A    between atoms: C_29  and  C_32
                            x       y       z     vdW  Elec       q    Type
                         _______ _______ _______ _____ _____    ______ ____

>  <TORSDO>
F 3

$$$$
=
 OpenBabel11122412163D

 34 41  0  0  1  0  0  0  0  0999 V2000
  183.1160  178.5890  143.5450 C   0  0  2  0  0  3  0  0  0  0  0  0
  184.2120  179.0030  145.8430 C   0  0  0  0  0  3  0  0  0  0  0  0
  183.4840  177.3780  137.1410 C   0  0  2  0  0  3  0  0  0  0  0  0
  182.2080  177.9720  141.3000 C   0  0  1  0  0  3  0  0  0  0  0  0
  183.8490  178.1730  139.4300 C   0  0  0  0  0  0  0  0  0  0  0  0
  185.5210  177.9230  137.4230 C   0  0  0  0  0  2  0  0  0  0  0  0
  184.7570  177.1290  136.3650 C   0  0  0  0  0  2  0  0  0  0  0  0
  181.4510  178.7800  137.5350 C   0  0  0  0  0  2  0  0  0  0  0  0
  185.5770  178.6470  143.9640 C   0  0  0  0  0  0  0  0  0  0  0  0
  187.4490  176.5090  144.1700 C   0  0  0  0  0  2  0  0  0  0  0  0
  184.9520  178.2160  140.4130 C   0  0  0  0  0  3  0  0  0  0  0  0
  181.3650  177.9950  138.8610 C   0  0  0  0  0  2  0  0  0  0  0  0
  185.8640  178.4100  142.6800 C   0  0  0  0  0  0  0  0  0  0  0  0
  185.6810  178.9730  146.3070 C   0  0  0  0  0  3  0  0  0  0  0  0
  182.5400  178.1560  139.8320 C   0  0  1  0  0  3  0  0  0  0  0  0
  182.3150  178.0710  136.4660 C   0  0  0  0  0  2  0  0  0  0  0  0
  187.5130  177.6000  145.2560 C   0  0  2  0  0  3  0  0  0  0  0  0
  183.3420  178.3330  142.2350 C   0  0  0  0  0  0  0  0  0  0  0  0
  184.1950  178.3920  137.9890 C   0  0  1  0  0  3  0  0  0  0  0  0
  184.7360  178.2810  141.7260 C   0  0  0  0  0  0  0  0  0  0  0  0
  180.6190  178.2860  143.1600 C   0  0  0  0  0  2  0  0  0  0  0  0
  187.9300  176.9550  142.7790 C   0  0  0  0  0  2  0  0  0  0  0  0
  180.9130  178.6630  141.7160 C   0  0  0  0  0  2  0  0  0  0  0  0
  187.2960  178.2530  142.2580 C   0  0  0  0  0  2  0  0  0  0  0  0
  186.5660  178.8000  145.0650 C   0  0  1  0  0  3  0  0  0  0  0  0
  181.7200  178.8160  144.0790 C   0  0  0  0  0  2  0  0  0  0  0  0
  184.2460  178.7770  144.4130 N   0  0  0  0  0  0  0  0  0  0  0  0
  188.8780  178.0690  145.4370 N   0  0  0  0  0  2  0  0  0  0  0  0
  189.6960  176.9050  145.7380 C   0  0  0  0  0  2  0  0  0  0  0  0
  191.4150  176.3810  143.0280 O   0  0  0  0  0  0  0  0  0  0  0  0
  191.1650  178.3240  144.3440 C   0  0  0  0  0  2  0  0  0  0  0  0
  191.1170  177.1310  145.2550 C   0  0  2  0  0  3  0  0  0  0  0  0
  191.6600  177.7600  143.0330 C   0  0  0  0  0  2  0  0  0  0  0  0
  191.5350  175.9810  144.3670 C   0  0  0  0  0  2  0  0  0  0  0  0
  1 26  1  6  0  0  0
  1 27  1  0  0  0  0
  2 14  2  0  0  0  0
  3  7  1  6  0  0  0
  3 19  1  0  0  0  0
  4 23  1  1  0  0  0
  4 18  1  0  0  0  0
  5 15  1  0  0  0  0
  5 11  2  0  0  0  0
  7  6  1  0  0  0  0
  8 12  1  0  0  0  0
  9 27  1  0  0  0  0
  9 25  1  0  0  0  0
 10 17  1  0  0  0  0
 11 20  1  0  0  0  0
 13  9  2  0  0  0  0
 15 12  1  6  0  0  0
 15  4  1  0  0  0  0
 16  3  1  0  0  0  0
 16  8  1  0  0  0  0
 17 28  1  6  0  0  0
 18  1  1  0  0  0  0
 19  6  1  1  0  0  0
 19  5  1  0  0  0  0
 20 18  2  0  0  0  0
 20 13  1  0  0  0  0
 21 26  1  0  0  0  0
 22 10  1  0  0  0  0
 23 21  1  0  0  0  0
 24 13  1  0  0  0  0
 24 22  1  0  0  0  0
 25 17  1  0  0  0  0
 25 14  1  1  0  0  0
 27  2  1  0  0  0  0
 28 29  1  0  0  0  0
 30 33  1  0  0  0  0
 30 34  1  0  0  0  0
 31 32  1  0  0  0  0
 32 29  1  6  0  0  0
 33 31  1  0  0  0  0
 34 32  1  0  0  0  0
M  END
>  <MODEL>
6

>  <REMARK>
 VINA RESULT:      -9.1      3.552      7.696
  Name = 
  3 active torsions:
  status: ('A' for Active; 'I' for Inactive)
    1  A    between atoms: C_17  and  N_28
    2  A    between atoms: N_28  and  C_29
    3  A    between atoms: C_29  and  C_32
                            x       y       z     vdW  Elec       q    Type
                         _______ _______ _______ _____ _____    ______ ____

>  <TORSDO>
F 3

$$$$
=
 OpenBabel11122412163D

 34 41  0  0  1  0  0  0  0  0999 V2000
  187.8950  177.5460  138.5070 C   0  0  2  0  0  3  0  0  0  0  0  0
  186.4340  178.6220  140.3400 C   0  0  0  0  0  3  0  0  0  0  0  0
  193.4000  174.6700  136.5010 C   0  0  2  0  0  3  0  0  0  0  0  0
  189.3420  176.2990  136.8960 C   0  0  1  0  0  3  0  0  0  0  0  0
  191.7240  176.0720  137.6090 C   0  0  0  0  0  0  0  0  0  0  0  0
  194.1380  175.3740  138.3680 C   0  0  0  0  0  2  0  0  0  0  0  0
  194.5650  174.2860  137.3850 C   0  0  0  0  0  2  0  0  0  0  0  0
  192.5090  176.0190  134.5940 C   0  0  0  0  0  2  0  0  0  0  0  0
  188.5810  177.8420  140.8890 C   0  0  0  0  0  0  0  0  0  0  0  0
  188.7130  175.9390  143.0050 C   0  0  0  0  0  2  0  0  0  0  0  0
  191.3370  176.4360  138.9880 C   0  0  0  0  0  3  0  0  0  0  0  0
  191.1320  175.6190  135.1660 C   0  0  0  0  0  2  0  0  0  0  0  0
  189.7760  177.2820  140.6790 C   0  0  0  0  0  0  0  0  0  0  0  0
  186.6410  178.7940  141.8570 C   0  0  0  0  0  3  0  0  0  0  0  0
  190.8130  176.0960  136.5860 C   0  0  1  0  0  3  0  0  0  0  0  0
  193.6540  175.0940  135.0660 C   0  0  0  0  0  2  0  0  0  0  0  0
  188.0320  177.2840  143.3180 C   0  0  2  0  0  3  0  0  0  0  0  0
  189.0830  176.9570  138.2330 C   0  0  0  0  0  0  0  0  0  0  0  0
  193.1840  175.9110  137.3170 C   0  0  1  0  0  3  0  0  0  0  0  0
  190.1070  176.8420  139.3010 C   0  0  0  0  0  0  0  0  0  0  0  0
  187.1080  177.0220  136.1440 C   0  0  0  0  0  2  0  0  0  0  0  0
  190.2380  176.0160  142.8190 C   0  0  0  0  0  2  0  0  0  0  0  0
  188.5840  177.0090  135.7780 C   0  0  0  0  0  2  0  0  0  0  0  0
  190.7180  177.0900  141.8330 C   0  0  0  0  0  2  0  0  0  0  0  0
  188.0670  178.3380  142.1940 C   0  0  1  0  0  3  0  0  0  0  0  0
  186.8850  177.8370  137.4190 C   0  0  0  0  0  2  0  0  0  0  0  0
  187.6530  178.0190  139.8410 N   0  0  0  0  0  0  0  0  0  0  0  0
  188.5550  177.8540  144.5500 N   0  0  0  0  0  2  0  0  0  0  0  0
  187.4380  177.9910  145.4690 C   0  0  0  0  0  2  0  0  0  0  0  0
  189.8770  177.8100  147.6120 O   0  0  0  0  0  0  0  0  0  0  0  0
  187.5690  178.1820  147.9310 C   0  0  0  0  0  2  0  0  0  0  0  0
  187.7370  177.2540  146.7620 C   0  0  2  0  0  3  0  0  0  0  0  0
  188.9370  178.2150  148.5690 C   0  0  0  0  0  2  0  0  0  0  0  0
  189.2030  176.8850  146.8020 C   0  0  0  0  0  2  0  0  0  0  0  0
  1 26  1  6  0  0  0
  1 27  1  0  0  0  0
  2 14  2  0  0  0  0
  3 16  1  6  0  0  0
  3 19  1  0  0  0  0
  3  7  1  0  0  0  0
  4 23  1  6  0  0  0
  4 18  1  0  0  0  0
  5 11  2  0  0  0  0
  7  6  1  0  0  0  0
  8 16  1  0  0  0  0
  8 12  1  0  0  0  0
  9 25  1  0  0  0  0
 10 17  1  0  0  0  0
 11 20  1  0  0  0  0
 13  9  2  0  0  0  0
 13 24  1  0  0  0  0
 15 12  1  1  0  0  0
 15  4  1  0  0  0  0
 15  5  1  0  0  0  0
 17 28  1  1  0  0  0
 18  1  1  0  0  0  0
 18 20  2  0  0  0  0
 19  5  1  0  0  0  0
 19  6  1  1  0  0  0
 20 13  1  0  0  0  0
 21 26  1  0  0  0  0
 22 10  1  0  0  0  0
 23 21  1  0  0  0  0
 24 22  1  0  0  0  0
 25 14  1  6  0  0  0
 25 17  1  0  0  0  0
 27  2  1  0  0  0  0
 27  9  1  0  0  0  0
 28 29  1  0  0  0  0
 30 33  1  0  0  0  0
 31 33  1  0  0  0  0
 32 29  1  6  0  0  0
 32 34  1  0  0  0  0
 32 31  1  0  0  0  0
 34 30  1  0  0  0  0
M  END
>  <MODEL>
7

>  <REMARK>
 VINA RESULT:      -9.1      2.978      9.241
  Name = 
  3 active torsions:
  status: ('A' for Active; 'I' for Inactive)
    1  A    between atoms: C_17  and  N_28
    2  A    between atoms: N_28  and  C_29
    3  A    between atoms: C_29  and  C_32
                            x       y       z     vdW  Elec       q    Type
                         _______ _______ _______ _____ _____    ______ ____

>  <TORSDO>
F 3

$$$$
=
 OpenBabel11122412163D

 34 41  0  0  1  0  0  0  0  0999 V2000
  189.1460  177.7780  144.4050 C   0  0  2  0  0  3  0  0  0  0  0  0
  187.5640  177.8780  146.4410 C   0  0  0  0  0  3  0  0  0  0  0  0
  190.2180  177.5930  137.9690 C   0  0  2  0  0  3  0  0  0  0  0  0
  190.5450  177.8900  142.3370 C   0  0  1  0  0  3  0  0  0  0  0  0
  189.3290  177.3110  140.2350 C   0  0  0  0  0  0  0  0  0  0  0  0
  188.1390  177.1450  137.9010 C   0  0  0  0  0  2  0  0  0  0  0  0
  189.1550  177.6850  136.8970 C   0  0  0  0  0  2  0  0  0  0  0  0
  192.0360  176.2860  139.0800 C   0  0  0  0  0  2  0  0  0  0  0  0
  186.6530  177.8380  144.2750 C   0  0  0  0  0  0  0  0  0  0  0  0
  184.9070  179.9920  143.6190 C   0  0  0  0  0  2  0  0  0  0  0  0
  188.0420  177.4920  140.9380 C   0  0  0  0  0  3  0  0  0  0  0  0
  191.8840  177.3350  140.2020 C   0  0  0  0  0  2  0  0  0  0  0  0
  186.6600  177.7980  142.9390 C   0  0  0  0  0  0  0  0  0  0  0  0
  186.0350  178.0230  146.5530 C   0  0  0  0  0  3  0  0  0  0  0  0
  190.5220  177.3990  140.9020 C   0  0  1  0  0  3  0  0  0  0  0  0
  191.4620  176.7580  137.7250 C   0  0  0  0  0  2  0  0  0  0  0  0
  184.5500  179.1600  144.8650 C   0  0  2  0  0  3  0  0  0  0  0  0
  189.2190  177.7500  143.0540 C   0  0  0  0  0  0  0  0  0  0  0  0
  189.2860  176.7920  138.8300 C   0  0  1  0  0  3  0  0  0  0  0  0
  187.9700  177.7070  142.2510 C   0  0  0  0  0  0  0  0  0  0  0  0
  191.6810  177.9620  144.5250 C   0  0  0  0  0  2  0  0  0  0  0  0
  184.7080  179.2650  142.2790 C   0  0  0  0  0  2  0  0  0  0  0  0
  191.6790  177.2890  143.1610 C   0  0  0  0  0  2  0  0  0  0  0  0
  185.3610  177.8780  142.1890 C   0  0  0  0  0  2  0  0  0  0  0  0
  185.4460  177.9360  145.1390 C   0  0  1  0  0  3  0  0  0  0  0  0
  190.3810  177.6540  145.2690 C   0  0  0  0  0  2  0  0  0  0  0  0
  187.8490  177.7930  145.0230 N   0  0  0  0  0  0  0  0  0  0  0  0
  183.1530  178.7560  144.8350 N   0  0  0  0  0  2  0  0  0  0  0  0
  182.4540  179.6910  143.9690 C   0  0  0  0  0  2  0  0  0  0  0  0
  180.0340  180.5040  141.9540 O   0  0  0  0  0  0  0  0  0  0  0  0
  181.4660  178.6280  141.9670 C   0  0  0  0  0  2  0  0  0  0  0  0
  181.2140  179.0350  143.3900 C   0  0  2  0  0  3  0  0  0  0  0  0
  180.4440  179.4110  141.1780 C   0  0  0  0  0  2  0  0  0  0  0  0
  180.1070  180.0600  143.2820 C   0  0  0  0  0  2  0  0  0  0  0  0
  1 27  1  0  0  0  0
  1 26  1  1  0  0  0
  2 14  2  0  0  0  0
  3  7  1  6  0  0  0
  3 19  1  0  0  0  0
  4 18  1  0  0  0  0
  4 23  1  1  0  0  0
  5 15  1  0  0  0  0
  5 11  2  0  0  0  0
  7  6  1  0  0  0  0
  8 12  1  0  0  0  0
  9 27  1  0  0  0  0
  9 25  1  0  0  0  0
 10 17  1  0  0  0  0
 11 20  1  0  0  0  0
 13  9  2  0  0  0  0
 15 12  1  6  0  0  0
 15  4  1  0  0  0  0
 16  3  1  0  0  0  0
 16  8  1  0  0  0  0
 17 28  1  6  0  0  0
 17 25  1  0  0  0  0
 18  1  1  0  0  0  0
 19  6  1  6  0  0  0
 19  5  1  0  0  0  0
 20 13  1  0  0  0  0
 20 18  2  0  0  0  0
 21 26  1  0  0  0  0
 22 10  1  0  0  0  0
 23 21  1  0  0  0  0
 24 22  1  0  0  0  0
 24 13  1  0  0  0  0
 25 14  1  1  0  0  0
 27  2  1  0  0  0  0
 29 28  1  0  0  0  0
 30 34  1  0  0  0  0
 31 32  1  0  0  0  0
 32 29  1  6  0  0  0
 33 30  1  0  0  0  0
 33 31  1  0  0  0  0
 34 32  1  0  0  0  0
M  END
>  <MODEL>
8

>  <REMARK>
 VINA RESULT:      -9.0      2.920      7.736
  Name = 
  3 active torsions:
  status: ('A' for Active; 'I' for Inactive)
    1  A    between atoms: C_17  and  N_28
    2  A    between atoms: N_28  and  C_29
    3  A    between atoms: C_29  and  C_32
                            x       y       z     vdW  Elec       q    Type
                         _______ _______ _______ _____ _____    ______ ____

>  <TORSDO>
F 3

$$$$
=
 OpenBabel11122412163D

 34 41  0  0  1  0  0  0  0  0999 V2000
  185.6290  178.5320  141.4960 C   0  0  2  0  0  3  0  0  0  0  0  0
  184.7890  178.5760  139.0580 C   0  0  0  0  0  3  0  0  0  0  0  0
  190.2600  177.4010  145.9560 C   0  0  2  0  0  3  0  0  0  0  0  0
  186.6520  178.6280  143.7740 C   0  0  1  0  0  3  0  0  0  0  0  0
  188.7700  177.3280  144.0110 C   0  0  0  0  0  0  0  0  0  0  0  0
  191.1950  176.3780  144.3420 C   0  0  0  0  0  2  0  0  0  0  0  0
  191.6800  176.9760  145.6610 C   0  0  0  0  0  2  0  0  0  0  0  0
  188.0490  176.9060  147.0130 C   0  0  0  0  0  2  0  0  0  0  0  0
  186.9800  177.8560  139.5080 C   0  0  0  0  0  0  0  0  0  0  0  0
  189.0560  179.2550  138.1460 C   0  0  0  0  0  2  0  0  0  0  0  0
  188.8910  177.2710  142.5390 C   0  0  0  0  0  3  0  0  0  0  0  0
  187.5480  178.0680  146.1290 C   0  0  0  0  0  2  0  0  0  0  0  0
  188.0470  177.5590  140.2560 C   0  0  0  0  0  0  0  0  0  0  0  0
  185.4960  178.3010  137.7170 C   0  0  0  0  0  3  0  0  0  0  0  0
  187.6710  177.8800  144.6130 C   0  0  1  0  0  3  0  0  0  0  0  0
  189.5800  176.9220  147.2250 C   0  0  0  0  0  2  0  0  0  0  0  0
  187.9570  178.6170  137.2750 C   0  0  2  0  0  3  0  0  0  0  0  0
  186.6800  178.2610  142.3060 C   0  0  0  0  0  0  0  0  0  0  0  0
  189.7660  176.5540  144.8200 C   0  0  1  0  0  3  0  0  0  0  0  0
  187.9300  177.7100  141.7270 C   0  0  0  0  0  0  0  0  0  0  0  0
  184.3430  179.4470  143.4920 C   0  0  0  0  0  2  0  0  0  0  0  0
  190.0080  178.2530  138.8180 C   0  0  0  0  0  2  0  0  0  0  0  0
  185.2350  178.5470  144.3340 C   0  0  0  0  0  2  0  0  0  0  0  0
  189.3190  177.1190  139.5910 C   0  0  0  0  0  2  0  0  0  0  0  0
  186.9050  177.7760  138.0240 C   0  0  1  0  0  3  0  0  0  0  0  0
  184.2820  178.9350  142.0530 C   0  0  0  0  0  2  0  0  0  0  0  0
  185.7710  178.2990  140.0860 N   0  0  0  0  0  0  0  0  0  0  0  0
  188.5400  177.8360  136.1960 N   0  0  0  0  0  2  0  0  0  0  0  0
  187.9950  176.4920  136.2930 C   0  0  0  0  0  2  0  0  0  0  0  0
  191.1350  175.8160  136.8050 O   0  0  0  0  0  0  0  0  0  0  0  0
  189.2300  174.4220  136.8430 C   0  0  0  0  0  2  0  0  0  0  0  0
  189.0150  175.4810  135.8010 C   0  0  2  0  0  3  0  0  0  0  0  0
  190.6970  174.5400  137.1830 C   0  0  0  0  0  2  0  0  0  0  0  0
  190.3660  176.1490  135.6800 C   0  0  0  0  0  2  0  0  0  0  0  0
  1 26  1  1  0  0  0
  1 18  1  0  0  0  0
  2 27  1  0  0  0  0
  3  7  1  1  0  0  0
  3 16  1  0  0  0  0
  4 23  1  1  0  0  0
  4 15  1  0  0  0  0
  5 15  1  0  0  0  0
  5 19  1  0  0  0  0
  6  7  1  0  0  0  0
  8 16  1  0  0  0  0
  9 27  1  0  0  0  0
  9 13  2  0  0  0  0
 10 22  1  0  0  0  0
 11  5  2  0  0  0  0
 12  8  1  0  0  0  0
 13 20  1  0  0  0  0
 14  2  2  0  0  0  0
 15 12  1  1  0  0  0
 17 28  1  6  0  0  0
 17 25  1  0  0  0  0
 17 10  1  0  0  0  0
 18  4  1  0  0  0  0
 19  6  1  6  0  0  0
 19  3  1  0  0  0  0
 20 18  2  0  0  0  0
 20 11  1  0  0  0  0
 21 23  1  0  0  0  0
 22 24  1  0  0  0  0
 24 13  1  0  0  0  0
 25 14  1  6  0  0  0
 25  9  1  0  0  0  0
 26 21  1  0  0  0  0
 27  1  1  0  0  0  0
 28 29  1  0  0  0  0
 30 33  1  0  0  0  0
 31 33  1  0  0  0  0
 32 29  1  1  0  0  0
 32 31  1  0  0  0  0
 34 32  1  0  0  0  0
 34 30  1  0  0  0  0
M  END
>  <MODEL>
9

>  <REMARK>
 VINA RESULT:      -8.9      1.874      4.662
  Name = 
  3 active torsions:
  status: ('A' for Active; 'I' for Inactive)
    1  A    between atoms: C_17  and  N_28
    2  A    between atoms: N_28  and  C_29
    3  A    between atoms: C_29  and  C_32
                            x       y       z     vdW  Elec       q    Type
                         _______ _______ _______ _____ _____    ______ ____

>  <TORSDO>
F 3

$$$$
