=
 OpenBabel11122410543D

 31 35  0  0  1  0  0  0  0  0999 V2000
  190.1360  176.0000  142.8440 C   0  0  0  0  0  0  0  0  0  0  0  0
  186.7050  177.4860  143.2170 N   0  0  0  0  0  0  0  0  0  0  0  0
  186.5070  177.8520  144.6050 C   0  0  0  0  0  0  0  0  0  0  0  0
  187.2840  178.0030  146.9080 C   0  0  0  0  0  0  0  0  0  0  0  0
  188.0140  177.1740  142.6950 C   0  0  0  0  0  0  0  0  0  0  0  0
  190.5560  176.5990  141.6540 C   0  0  0  0  0  3  0  0  0  0  0  0
  187.4710  177.5780  145.5910 C   0  0  0  0  0  3  0  0  0  0  0  0
  186.2510  179.0780  141.4290 C   0  0  2  0  0  3  0  0  0  0  0  0
  190.9570  175.1430  143.4960 F   0  0  0  0  0  0  0  0  0  0  0  0
  184.3840  178.8520  144.0110 O   0  0  0  0  0  0  0  0  0  0  0  0
  188.3120  177.7010  147.9380 C   0  0  0  0  0  1  0  0  0  0  0  0
  187.5260  178.6630  140.6830 C   0  0  0  0  0  2  0  0  0  0  0  0
  185.7110  177.8780  142.2060 C   0  0  2  0  0  3  0  0  0  0  0  0
  188.8690  176.2820  143.3590 C   0  0  0  0  0  3  0  0  0  0  0  0
  186.1400  178.7250  147.2540 C   0  0  0  0  0  3  0  0  0  0  0  0
  188.4410  177.7730  141.4870 C   0  0  0  0  0  0  0  0  0  0  0  0
  189.7080  177.4770  140.9760 C   0  0  0  0  0  3  0  0  0  0  0  0
  184.3170  178.1060  142.8020 C   0  0  0  0  0  2  0  0  0  0  0  0
  185.3520  178.5670  144.9710 C   0  0  0  0  0  0  0  0  0  0  0  0
  185.1750  179.0080  146.2850 C   0  0  0  0  0  3  0  0  0  0  0  0
  185.3050  179.5320  140.5040 O   0  0  0  0  0  0  0  0  0  0  0  0
  186.4830  178.6280  138.7620 O   0  0  0  0  0  1  0  0  0  0  0  0
  185.2960  178.5670  139.4930 C   0  0  2  0  0  3  0  0  0  0  0  0
  181.9250  178.0440  140.3450 C   0  0  0  0  0  0  0  0  0  0  0  0
  183.1190  179.8140  139.0960 C   0  0  0  0  0  2  0  0  0  0  0  0
  184.0700  176.4200  137.7930 C   0  0  0  0  0  1  0  0  0  0  0  0
  181.0300  177.7460  141.1770 O   0  0  0  0  0  0  0  0  0  0  0  0
  182.3140  179.3780  140.1910 O   0  0  0  0  0  0  0  0  0  0  0  0
  183.2500  177.4700  138.3780 N   0  0  0  0  0  0  0  0  0  0  0  0
  184.0390  178.6990  138.6010 C   0  0  2  0  0  3  0  0  0  0  0  0
  182.6490  176.9570  139.6100 C   0  0  0  0  0  2  0  0  0  0  0  0
  1 14  1  0  0  0  0
  1  9  1  0  0  0  0
  2  3  1  0  0  0  0
  3 19  2  0  0  0  0
  3  7  1  0  0  0  0
  4 15  1  0  0  0  0
  4 11  1  0  0  0  0
  5  2  1  0  0  0  0
  5 14  2  0  0  0  0
  6  1  2  0  0  0  0
  7  4  2  0  0  0  0
  8 21  1  6  0  0  0
  8 13  1  0  0  0  0
 10 19  1  0  0  0  0
 12  8  1  0  0  0  0
 12 16  1  0  0  0  0
 13 18  1  1  0  0  0
 13  2  1  0  0  0  0
 16  5  1  0  0  0  0
 17 16  2  0  0  0  0
 17  6  1  0  0  0  0
 18 10  1  0  0  0  0
 19 20  1  0  0  0  0
 20 15  2  0  0  0  0
 23 22  1  6  0  0  0
 23 21  1  0  0  0  0
 24 27  2  0  0  0  0
 25 28  1  0  0  0  0
 26 29  1  0  0  0  0
 28 24  1  0  0  0  0
 29 30  1  0  0  0  0
 29 31  1  0  0  0  0
 30 25  1  0  0  0  0
 30 23  1  1  0  0  0
 31 24  1  0  0  0  0
M  END
>  <MODEL>
1

>  <REMARK>
 VINA RESULT:     -10.2      0.000      0.000
  Name = 
  3 active torsions:
  status: ('A' for Active; 'I' for Inactive)
    1  A    between atoms: C_5  and  O_16
    2  A    between atoms: C_5  and  C_30
    3  A    between atoms: C_10  and  O_16
                            x       y       z     vdW  Elec       q    Type
                         _______ _______ _______ _____ _____    ______ ____

>  <TORSDO>
F 3

$$$$
=
 OpenBabel11122410543D

 31 35  0  0  1  0  0  0  0  0999 V2000
  189.9300  175.9520  142.6370 C   0  0  0  0  0  0  0  0  0  0  0  0
  186.6450  177.5450  143.5280 N   0  0  0  0  0  0  0  0  0  0  0  0
  186.6590  177.8810  144.9380 C   0  0  0  0  0  0  0  0  0  0  0  0
  187.7610  177.9440  147.1090 C   0  0  0  0  0  0  0  0  0  0  0  0
  187.8530  177.2020  142.8180 C   0  0  0  0  0  0  0  0  0  0  0  0
  190.1980  176.5680  141.4120 C   0  0  0  0  0  3  0  0  0  0  0  0
  187.7420  177.5480  145.7700 C   0  0  0  0  0  3  0  0  0  0  0  0
  186.0010  179.1980  141.8570 C   0  0  2  0  0  3  0  0  0  0  0  0
  190.8020  175.0510  143.1470 F   0  0  0  0  0  0  0  0  0  0  0  0
  184.5130  178.9680  144.6740 O   0  0  0  0  0  0  0  0  0  0  0  0
  188.9130  177.5800  147.9740 C   0  0  0  0  0  1  0  0  0  0  0  0
  187.1410  178.7590  140.9290 C   0  0  0  0  0  2  0  0  0  0  0  0
  185.5330  177.9960  142.6780 C   0  0  2  0  0  3  0  0  0  0  0  0
  188.7600  176.2640  143.3340 C   0  0  0  0  0  3  0  0  0  0  0  0
  186.7060  178.6950  147.6300 C   0  0  0  0  0  3  0  0  0  0  0  0
  188.1260  177.8180  141.5740 C   0  0  0  0  0  0  0  0  0  0  0  0
  189.2960  177.4930  140.8810 C   0  0  0  0  0  3  0  0  0  0  0  0
  184.2470  178.2560  143.4720 C   0  0  0  0  0  2  0  0  0  0  0  0
  185.5960  178.6250  145.4800 C   0  0  0  0  0  0  0  0  0  0  0  0
  185.6240  179.0370  146.8150 C   0  0  0  0  0  3  0  0  0  0  0  0
  184.9510  179.7080  141.0870 O   0  0  0  0  0  0  0  0  0  0  0  0
  185.2570  179.1330  138.8930 O   0  0  0  0  0  1  0  0  0  0  0  0
  184.7110  178.7340  140.1130 C   0  0  2  0  0  3  0  0  0  0  0  0
  183.0400  176.7920  137.7050 C   0  0  0  0  0  0  0  0  0  0  0  0
  182.9530  176.9020  140.1740 C   0  0  0  0  0  2  0  0  0  0  0  0
  182.6100  180.3400  138.6950 C   0  0  0  0  0  1  0  0  0  0  0  0
  183.0400  176.0780  136.6690 O   0  0  0  0  0  0  0  0  0  0  0  0
  183.2050  176.1960  138.9580 O   0  0  0  0  0  0  0  0  0  0  0  0
  182.4920  178.8940  138.8150 N   0  0  0  0  0  0  0  0  0  0  0  0
  183.2040  178.4000  140.0120 C   0  0  2  0  0  3  0  0  0  0  0  0
  182.9830  178.2840  137.5780 C   0  0  0  0  0  2  0  0  0  0  0  0
  1  9  1  0  0  0  0
  1 14  1  0  0  0  0
  2  3  1  0  0  0  0
  3 19  2  0  0  0  0
  3  7  1  0  0  0  0
  4 15  1  0  0  0  0
  4 11  1  0  0  0  0
  5 14  2  0  0  0  0
  5  2  1  0  0  0  0
  6  1  2  0  0  0  0
  7  4  2  0  0  0  0
  8 21  1  6  0  0  0
  8 13  1  0  0  0  0
 10 19  1  0  0  0  0
 12 16  1  0  0  0  0
 12  8  1  0  0  0  0
 13 18  1  1  0  0  0
 13  2  1  0  0  0  0
 16  5  1  0  0  0  0
 17  6  1  0  0  0  0
 17 16  2  0  0  0  0
 18 10  1  0  0  0  0
 19 20  1  0  0  0  0
 20 15  2  0  0  0  0
 23 22  1  6  0  0  0
 23 21  1  0  0  0  0
 24 28  1  0  0  0  0
 26 29  1  0  0  0  0
 27 24  2  0  0  0  0
 28 25  1  0  0  0  0
 29 30  1  0  0  0  0
 30 23  1  6  0  0  0
 30 25  1  0  0  0  0
 31 24  1  0  0  0  0
 31 29  1  0  0  0  0
M  END
>  <MODEL>
2

>  <REMARK>
 VINA RESULT:     -10.1      1.294      1.766
  Name = 
  3 active torsions:
  status: ('A' for Active; 'I' for Inactive)
    1  A    between atoms: C_5  and  O_16
    2  A    between atoms: C_5  and  C_30
    3  A    between atoms: C_10  and  O_16
                            x       y       z     vdW  Elec       q    Type
                         _______ _______ _______ _____ _____    ______ ____

>  <TORSDO>
F 3

$$$$
=
 OpenBabel11122410543D

 31 35  0  0  1  0  0  0  0  0999 V2000
  184.8880  178.6080  144.6490 C   0  0  0  0  0  0  0  0  0  0  0  0
  188.5930  178.4940  144.0320 N   0  0  0  0  0  0  0  0  0  0  0  0
  189.2290  177.8270  145.1510 C   0  0  0  0  0  0  0  0  0  0  0  0
  189.1260  176.7000  147.3070 C   0  0  0  0  0  0  0  0  0  0  0  0
  187.1670  178.4310  143.8230 C   0  0  0  0  0  0  0  0  0  0  0  0
  184.3990  178.2870  143.3800 C   0  0  0  0  0  3  0  0  0  0  0  0
  188.5000  177.4020  146.2750 C   0  0  0  0  0  3  0  0  0  0  0  0
  189.0700  177.8190  141.7400 C   0  0  2  0  0  3  0  0  0  0  0  0
  184.0260  178.8480  145.6660 F   0  0  0  0  0  0  0  0  0  0  0  0
  191.3440  177.9380  143.9800 O   0  0  0  0  0  0  0  0  0  0  0  0
  188.3390  176.2620  148.4900 C   0  0  0  0  0  1  0  0  0  0  0  0
  187.5880  177.9260  141.3600 C   0  0  0  0  0  2  0  0  0  0  0  0
  189.3800  178.8360  142.8380 C   0  0  2  0  0  3  0  0  0  0  0  0
  186.2650  178.6850  144.8680 C   0  0  0  0  0  3  0  0  0  0  0  0
  190.4860  176.3980  147.2220 C   0  0  0  0  0  3  0  0  0  0  0  0
  186.6660  178.1130  142.5390 C   0  0  0  0  0  0  0  0  0  0  0  0
  185.2860  178.0470  142.3290 C   0  0  0  0  0  3  0  0  0  0  0  0
  190.8770  178.9830  143.1370 C   0  0  0  0  0  2  0  0  0  0  0  0
  190.6020  177.5280  145.0850 C   0  0  0  0  0  0  0  0  0  0  0  0
  191.2230  176.8100  146.1090 C   0  0  0  0  0  3  0  0  0  0  0  0
  189.8540  178.0620  140.6080 O   0  0  0  0  0  0  0  0  0  0  0  0
  190.5830  175.9500  140.1120 O   0  0  0  0  0  1  0  0  0  0  0  0
  189.6610  176.9460  139.7880 C   0  0  2  0  0  3  0  0  0  0  0  0
  186.9920  177.7440  137.6420 C   0  0  0  0  0  0  0  0  0  0  0  0
  189.2050  178.7620  138.0720 C   0  0  0  0  0  2  0  0  0  0  0  0
  189.5580  175.0730  137.4470 C   0  0  0  0  0  1  0  0  0  0  0  0
  185.7650  177.9140  137.4230 O   0  0  0  0  0  0  0  0  0  0  0  0
  187.7780  178.8210  138.0610 O   0  0  0  0  0  0  0  0  0  0  0  0
  189.0230  176.4230  137.3480 N   0  0  0  0  0  0  0  0  0  0  0  0
  189.7030  177.3350  138.2920 C   0  0  2  0  0  3  0  0  0  0  0  0
  187.5760  176.3660  137.5680 C   0  0  0  0  0  2  0  0  0  0  0  0
  1 14  1  0  0  0  0
  1  9  1  0  0  0  0
  2  3  1  0  0  0  0
  3  7  1  0  0  0  0
  4 11  1  0  0  0  0
  5  2  1  0  0  0  0
  5 14  2  0  0  0  0
  6  1  2  0  0  0  0
  7  4  2  0  0  0  0
  8 21  1  6  0  0  0
  8 13  1  0  0  0  0
 10 19  1  0  0  0  0
 12  8  1  0  0  0  0
 12 16  1  0  0  0  0
 13 18  1  1  0  0  0
 13  2  1  0  0  0  0
 15  4  1  0  0  0  0
 16  5  1  0  0  0  0
 17 16  2  0  0  0  0
 17  6  1  0  0  0  0
 18 10  1  0  0  0  0
 19  3  2  0  0  0  0
 19 20  1  0  0  0  0
 20 15  2  0  0  0  0
 23 22  1  6  0  0  0
 23 21  1  0  0  0  0
 24 28  1  0  0  0  0
 25 30  1  0  0  0  0
 27 24  2  0  0  0  0
 28 25  1  0  0  0  0
 29 26  1  0  0  0  0
 29 31  1  0  0  0  0
 29 30  1  0  0  0  0
 30 23  1  1  0  0  0
 31 24  1  0  0  0  0
M  END
>  <MODEL>
3

>  <REMARK>
 VINA RESULT:      -9.2      3.297      4.990
  Name = 
  3 active torsions:
  status: ('A' for Active; 'I' for Inactive)
    1  A    between atoms: C_5  and  O_16
    2  A    between atoms: C_5  and  C_30
    3  A    between atoms: C_10  and  O_16
                            x       y       z     vdW  Elec       q    Type
                         _______ _______ _______ _____ _____    ______ ____

>  <TORSDO>
F 3

$$$$
=
 OpenBabel11122410543D

 31 35  0  0  1  0  0  0  0  0999 V2000
  191.2560  177.2750  141.9490 C   0  0  0  0  0  0  0  0  0  0  0  0
  189.8180  177.8050  138.5180 N   0  0  0  0  0  0  0  0  0  0  0  0
  190.4260  176.8550  137.6070 C   0  0  0  0  0  0  0  0  0  0  0  0
  191.9620  175.0230  137.1420 C   0  0  0  0  0  0  0  0  0  0  0  0
  189.9300  177.6620  139.9490 C   0  0  0  0  0  0  0  0  0  0  0  0
  190.1070  177.3800  142.7360 C   0  0  0  0  0  3  0  0  0  0  0  0
  191.4410  175.9750  138.0220 C   0  0  0  0  0  3  0  0  0  0  0  0
  187.3970  178.0580  138.6230 C   0  0  2  0  0  3  0  0  0  0  0  0
  192.4560  177.0340  142.5300 F   0  0  0  0  0  0  0  0  0  0  0  0
  188.9360  177.6150  135.8590 O   0  0  0  0  0  0  0  0  0  0  0  0
  193.0370  174.1030  137.5970 C   0  0  0  0  0  1  0  0  0  0  0  0
  187.4320  178.1290  140.1550 C   0  0  0  0  0  2  0  0  0  0  0  0
  188.6950  178.6390  138.0640 C   0  0  2  0  0  3  0  0  0  0  0  0
  191.1690  177.4200  140.5620 C   0  0  0  0  0  3  0  0  0  0  0  0
  191.4620  174.9250  135.8420 C   0  0  0  0  0  3  0  0  0  0  0  0
  188.7710  177.7740  140.7520 C   0  0  0  0  0  0  0  0  0  0  0  0
  188.8710  177.6350  142.1390 C   0  0  0  0  0  3  0  0  0  0  0  0
  188.6790  178.8350  136.5430 C   0  0  0  0  0  2  0  0  0  0  0  0
  189.9420  176.7550  136.2910 C   0  0  0  0  0  0  0  0  0  0  0  0
  190.4510  175.7900  135.4180 C   0  0  0  0  0  3  0  0  0  0  0  0
  186.2930  178.7790  138.1550 O   0  0  0  0  0  0  0  0  0  0  0  0
  185.3930  177.3080  136.6500 O   0  0  0  0  0  1  0  0  0  0  0  0
  185.2980  177.8210  137.9450 C   0  0  2  0  0  3  0  0  0  0  0  0
  183.8410  178.4850  141.0750 C   0  0  0  0  0  0  0  0  0  0  0  0
  183.9860  179.7480  138.9530 C   0  0  0  0  0  2  0  0  0  0  0  0
  182.7690  176.2500  138.3180 C   0  0  0  0  0  1  0  0  0  0  0  0
  183.8870  178.5040  142.3330 O   0  0  0  0  0  0  0  0  0  0  0  0
  184.2570  179.6040  140.3480 O   0  0  0  0  0  0  0  0  0  0  0  0
  182.9740  177.5120  139.0130 N   0  0  0  0  0  0  0  0  0  0  0  0
  183.8950  178.3890  138.2600 C   0  0  2  0  0  3  0  0  0  0  0  0
  183.4550  177.2230  140.3650 C   0  0  0  0  0  2  0  0  0  0  0  0
  1  9  1  0  0  0  0
  1  6  1  0  0  0  0
  2  5  1  0  0  0  0
  3  7  1  0  0  0  0
  3  2  1  0  0  0  0
  4 11  1  0  0  0  0
  4  7  2  0  0  0  0
  5 14  1  0  0  0  0
  5 16  2  0  0  0  0
  8 21  1  6  0  0  0
  8 12  1  0  0  0  0
 10 19  1  0  0  0  0
 10 18  1  0  0  0  0
 12 16  1  0  0  0  0
 13 18  1  6  0  0  0
 13  2  1  0  0  0  0
 13  8  1  0  0  0  0
 14  1  2  0  0  0  0
 15  4  1  0  0  0  0
 16 17  1  0  0  0  0
 17  6  2  0  0  0  0
 19  3  2  0  0  0  0
 20 15  2  0  0  0  0
 20 19  1  0  0  0  0
 23 22  1  6  0  0  0
 23 21  1  0  0  0  0
 24 27  2  0  0  0  0
 25 28  1  0  0  0  0
 26 29  1  0  0  0  0
 28 24  1  0  0  0  0
 29 31  1  0  0  0  0
 30 23  1  1  0  0  0
 30 25  1  0  0  0  0
 30 29  1  0  0  0  0
 31 24  1  0  0  0  0
M  END
>  <MODEL>
4

>  <REMARK>
 VINA RESULT:      -8.9      3.055      6.055
  Name = 
  3 active torsions:
  status: ('A' for Active; 'I' for Inactive)
    1  A    between atoms: C_5  and  O_16
    2  A    between atoms: C_5  and  C_30
    3  A    between atoms: C_10  and  O_16
                            x       y       z     vdW  Elec       q    Type
                         _______ _______ _______ _____ _____    ______ ____

>  <TORSDO>
F 3

$$$$
=
 OpenBabel11122410543D

 31 35  0  0  1  0  0  0  0  0999 V2000
  185.1070  179.3840  145.1100 C   0  0  0  0  0  0  0  0  0  0  0  0
  185.5210  179.1300  141.3840 N   0  0  0  0  0  0  0  0  0  0  0  0
  186.8330  178.5820  141.0990 C   0  0  0  0  0  0  0  0  0  0  0  0
  188.9870  177.7080  141.8230 C   0  0  0  0  0  0  0  0  0  0  0  0
  184.9460  179.0710  142.7050 C   0  0  0  0  0  0  0  0  0  0  0  0
  183.7940  178.9310  145.2610 C   0  0  0  0  0  3  0  0  0  0  0  0
  187.7580  178.3000  142.1190 C   0  0  0  0  0  3  0  0  0  0  0  0
  183.5240  178.1920  140.3510 C   0  0  2  0  0  3  0  0  0  0  0  0
  185.8250  179.7530  146.1970 F   0  0  0  0  0  0  0  0  0  0  0  0
  186.2660  178.5190  138.7470 O   0  0  0  0  0  0  0  0  0  0  0  0
  189.9540  177.4200  142.9140 C   0  0  0  0  0  1  0  0  0  0  0  0
  182.7510  178.2830  141.6730 C   0  0  0  0  0  2  0  0  0  0  0  0
  184.5530  179.3200  140.2930 C   0  0  2  0  0  3  0  0  0  0  0  0
  185.6780  179.4580  143.8380 C   0  0  0  0  0  3  0  0  0  0  0  0
  189.3010  177.3710  140.5050 C   0  0  0  0  0  3  0  0  0  0  0  0
  183.6150  178.6200  142.8630 C   0  0  0  0  0  0  0  0  0  0  0  0
  183.0500  178.5570  144.1410 C   0  0  0  0  0  3  0  0  0  0  0  0
  185.2250  179.4720  138.9230 C   0  0  0  0  0  2  0  0  0  0  0  0
  187.1680  178.2510  139.7730 C   0  0  0  0  0  0  0  0  0  0  0  0
  188.3900  177.6410  139.4810 C   0  0  0  0  0  3  0  0  0  0  0  0
  182.6240  178.2910  139.2850 O   0  0  0  0  0  0  0  0  0  0  0  0
  181.9010  176.1340  139.0270 O   0  0  0  0  0  1  0  0  0  0  0  0
  181.6070  177.3790  139.5840 C   0  0  2  0  0  3  0  0  0  0  0  0
  179.7690  180.0680  140.9100 C   0  0  0  0  0  0  0  0  0  0  0  0
  180.3250  179.3440  138.6110 C   0  0  0  0  0  2  0  0  0  0  0  0
  178.9310  176.4690  140.5890 C   0  0  0  0  0  1  0  0  0  0  0  0
  179.6320  181.0160  141.7250 O   0  0  0  0  0  0  0  0  0  0  0  0
  180.3760  180.2980  139.6720 O   0  0  0  0  0  0  0  0  0  0  0  0
  179.1350  177.8390  140.1430 N   0  0  0  0  0  0  0  0  0  0  0  0
  180.2250  177.9170  139.1470 C   0  0  2  0  0  3  0  0  0  0  0  0
  179.3870  178.6770  141.3170 C   0  0  0  0  0  2  0  0  0  0  0  0
  1  6  1  0  0  0  0
  1  9  1  0  0  0  0
  2  5  1  0  0  0  0
  3  2  1  0  0  0  0
  3  7  1  0  0  0  0
  4  7  2  0  0  0  0
  4 11  1  0  0  0  0
  5 16  2  0  0  0  0
  5 14  1  0  0  0  0
  8 21  1  6  0  0  0
  8 12  1  0  0  0  0
 10 18  1  0  0  0  0
 10 19  1  0  0  0  0
 12 16  1  0  0  0  0
 13 18  1  6  0  0  0
 13  8  1  0  0  0  0
 13  2  1  0  0  0  0
 14  1  2  0  0  0  0
 15  4  1  0  0  0  0
 16 17  1  0  0  0  0
 17  6  2  0  0  0  0
 19  3  2  0  0  0  0
 20 19  1  0  0  0  0
 20 15  2  0  0  0  0
 21 23  1  0  0  0  0
 23 22  1  6  0  0  0
 24 31  1  0  0  0  0
 24 27  2  0  0  0  0
 25 30  1  0  0  0  0
 25 28  1  0  0  0  0
 28 24  1  0  0  0  0
 29 26  1  0  0  0  0
 29 31  1  0  0  0  0
 30 23  1  1  0  0  0
 30 29  1  0  0  0  0
M  END
>  <MODEL>
5

>  <REMARK>
 VINA RESULT:      -8.8      2.569      5.002
  Name = 
  3 active torsions:
  status: ('A' for Active; 'I' for Inactive)
    1  A    between atoms: C_5  and  O_16
    2  A    between atoms: C_5  and  C_30
    3  A    between atoms: C_10  and  O_16
                            x       y       z     vdW  Elec       q    Type
                         _______ _______ _______ _____ _____    ______ ____

>  <TORSDO>
F 3

$$$$
=
 OpenBabel11122410543D

 31 35  0  0  1  0  0  0  0  0999 V2000
  184.8950  179.3790  144.9070 C   0  0  0  0  0  0  0  0  0  0  0  0
  185.3990  179.1240  141.1920 N   0  0  0  0  0  0  0  0  0  0  0  0
  186.7200  178.5820  140.9390 C   0  0  0  0  0  0  0  0  0  0  0  0
  188.8610  177.7210  141.7150 C   0  0  0  0  0  0  0  0  0  0  0  0
  184.7920  179.0630  142.5000 C   0  0  0  0  0  0  0  0  0  0  0  0
  183.5820  178.9190  145.0280 C   0  0  0  0  0  3  0  0  0  0  0  0
  187.6220  178.3070  141.9810 C   0  0  0  0  0  3  0  0  0  0  0  0
  183.4320  178.1730  140.1140 C   0  0  2  0  0  3  0  0  0  0  0  0
  185.5850  179.7540  146.0110 F   0  0  0  0  0  0  0  0  0  0  0  0
  186.2100  178.5140  138.5740 O   0  0  0  0  0  0  0  0  0  0  0  0
  189.8040  177.4400  142.8300 C   0  0  0  0  0  1  0  0  0  0  0  0
  182.6270  178.2620  141.4170 C   0  0  0  0  0  2  0  0  0  0  0  0
  184.4560  179.3070  140.0790 C   0  0  2  0  0  3  0  0  0  0  0  0
  185.4960  179.4550  143.6490 C   0  0  0  0  0  3  0  0  0  0  0  0
  189.2080  177.3850  140.4050 C   0  0  0  0  0  3  0  0  0  0  0  0
  183.4610  178.6040  142.6270 C   0  0  0  0  0  0  0  0  0  0  0  0
  182.8660  178.5390  143.8900 C   0  0  0  0  0  3  0  0  0  0  0  0
  185.1600  179.4610  138.7250 C   0  0  0  0  0  2  0  0  0  0  0  0
  187.0880  178.2520  139.6220 C   0  0  0  0  0  0  0  0  0  0  0  0
  188.3210  177.6490  139.3600 C   0  0  0  0  0  3  0  0  0  0  0  0
  182.5570  178.2660  139.0260 O   0  0  0  0  0  0  0  0  0  0  0  0
  183.4730  176.7470  137.5790 O   0  0  0  0  0  1  0  0  0  0  0  0
  182.4680  176.9650  138.5220 C   0  0  2  0  0  3  0  0  0  0  0  0
  179.5450  176.0930  140.2730 C   0  0  0  0  0  0  0  0  0  0  0  0
  180.0380  177.7020  138.4610 C   0  0  0  0  0  2  0  0  0  0  0  0
  181.4110  174.3090  137.6110 C   0  0  0  0  0  1  0  0  0  0  0  0
  178.9320  175.8480  141.3440 O   0  0  0  0  0  0  0  0  0  0  0  0
  179.5940  177.4010  139.7840 O   0  0  0  0  0  0  0  0  0  0  0  0
  180.5230  175.3120  138.1780 N   0  0  0  0  0  0  0  0  0  0  0  0
  181.0540  176.6740  137.9660 C   0  0  2  0  0  3  0  0  0  0  0  0
  180.3190  175.0030  139.5950 C   0  0  0  0  0  2  0  0  0  0  0  0
  1  6  1  0  0  0  0
  1  9  1  0  0  0  0
  2  5  1  0  0  0  0
  3  2  1  0  0  0  0
  3  7  1  0  0  0  0
  4  7  2  0  0  0  0
  4 11  1  0  0  0  0
  5 16  2  0  0  0  0
  5 14  1  0  0  0  0
  8 21  1  6  0  0  0
  8 12  1  0  0  0  0
 10 18  1  0  0  0  0
 10 19  1  0  0  0  0
 12 16  1  0  0  0  0
 13 18  1  6  0  0  0
 13  8  1  0  0  0  0
 13  2  1  0  0  0  0
 14  1  2  0  0  0  0
 15  4  1  0  0  0  0
 16 17  1  0  0  0  0
 17  6  2  0  0  0  0
 19  3  2  0  0  0  0
 20 19  1  0  0  0  0
 20 15  2  0  0  0  0
 23 22  1  6  0  0  0
 23 21  1  0  0  0  0
 24 27  2  0  0  0  0
 25 28  1  0  0  0  0
 26 29  1  0  0  0  0
 28 24  1  0  0  0  0
 29 31  1  0  0  0  0
 30 29  1  0  0  0  0
 30 25  1  0  0  0  0
 30 23  1  1  0  0  0
 31 24  1  0  0  0  0
M  END
>  <MODEL>
6

>  <REMARK>
 VINA RESULT:      -8.8      2.579      4.917
  Name = 
  3 active torsions:
  status: ('A' for Active; 'I' for Inactive)
    1  A    between atoms: C_5  and  O_16
    2  A    between atoms: C_5  and  C_30
    3  A    between atoms: C_10  and  O_16
                            x       y       z     vdW  Elec       q    Type
                         _______ _______ _______ _____ _____    ______ ____

>  <TORSDO>
F 3

$$$$
=
 OpenBabel11122410543D

 31 35  0  0  1  0  0  0  0  0999 V2000
  191.3860  176.2090  144.6300 C   0  0  0  0  0  0  0  0  0  0  0  0
  187.9450  177.3210  143.6090 N   0  0  0  0  0  0  0  0  0  0  0  0
  187.2550  177.8300  144.7780 C   0  0  0  0  0  0  0  0  0  0  0  0
  187.1780  178.3520  147.1550 C   0  0  0  0  0  0  0  0  0  0  0  0
  189.3700  177.1010  143.6060 C   0  0  0  0  0  0  0  0  0  0  0  0
  192.1480  176.7030  143.5690 C   0  0  0  0  0  3  0  0  0  0  0  0
  187.8360  177.7930  146.0570 C   0  0  0  0  0  3  0  0  0  0  0  0
  188.0290  178.6170  141.5470 C   0  0  2  0  0  3  0  0  0  0  0  0
  191.9870  175.5400  145.6430 F   0  0  0  0  0  0  0  0  0  0  0  0
  185.4060  178.4950  143.3650 O   0  0  0  0  0  0  0  0  0  0  0  0
  187.8060  178.3010  148.5010 C   0  0  0  0  0  1  0  0  0  0  0  0
  189.5080  178.2650  141.3410 C   0  0  0  0  0  2  0  0  0  0  0  0
  187.3360  177.4670  142.2780 C   0  0  2  0  0  3  0  0  0  0  0  0
  190.0030  176.4030  144.6460 C   0  0  0  0  0  3  0  0  0  0  0  0
  185.9390  178.9730  146.9860 C   0  0  0  0  0  3  0  0  0  0  0  0
  190.1470  177.5930  142.5300 C   0  0  0  0  0  0  0  0  0  0  0  0
  191.5290  177.3860  142.5210 C   0  0  0  0  0  3  0  0  0  0  0  0
  185.8100  177.6030  142.3350 C   0  0  0  0  0  2  0  0  0  0  0  0
  185.9990  178.4450  144.6240 C   0  0  0  0  0  0  0  0  0  0  0  0
  185.3510  179.0210  145.7200 C   0  0  0  0  0  3  0  0  0  0  0  0
  187.4320  178.8410  140.3020 O   0  0  0  0  0  0  0  0  0  0  0  0
  188.7790  179.4000  138.5380 O   0  0  0  0  0  1  0  0  0  0  0  0
  188.3540  178.3610  139.3670 C   0  0  2  0  0  3  0  0  0  0  0  0
  188.7870  177.5520  135.9730 C   0  0  0  0  0  0  0  0  0  0  0  0
  188.8920  176.2450  138.0700 C   0  0  0  0  0  2  0  0  0  0  0  0
  185.7200  178.2550  137.9350 C   0  0  0  0  0  1  0  0  0  0  0  0
  189.2730  177.7840  134.8360 O   0  0  0  0  0  0  0  0  0  0  0  0
  189.4940  176.7600  136.8820 O   0  0  0  0  0  0  0  0  0  0  0  0
  186.8580  177.4790  137.4650 N   0  0  0  0  0  0  0  0  0  0  0  0
  187.7800  177.1630  138.5760 C   0  0  2  0  0  3  0  0  0  0  0  0
  187.5120  178.2220  136.3860 C   0  0  0  0  0  2  0  0  0  0  0  0
  1 14  1  0  0  0  0
  1  9  1  0  0  0  0
  2  3  1  0  0  0  0
  3  7  1  0  0  0  0
  4 11  1  0  0  0  0
  5  2  1  0  0  0  0
  5 14  2  0  0  0  0
  6  1  2  0  0  0  0
  7  4  2  0  0  0  0
  8 21  1  6  0  0  0
  8 13  1  0  0  0  0
 10 19  1  0  0  0  0
 12  8  1  0  0  0  0
 12 16  1  0  0  0  0
 13 18  1  1  0  0  0
 13  2  1  0  0  0  0
 15  4  1  0  0  0  0
 16  5  1  0  0  0  0
 17 16  2  0  0  0  0
 17  6  1  0  0  0  0
 18 10  1  0  0  0  0
 19  3  2  0  0  0  0
 19 20  1  0  0  0  0
 20 15  2  0  0  0  0
 23 22  1  6  0  0  0
 23 21  1  0  0  0  0
 24 31  1  0  0  0  0
 24 28  1  0  0  0  0
 25 30  1  0  0  0  0
 27 24  2  0  0  0  0
 28 25  1  0  0  0  0
 29 26  1  0  0  0  0
 29 30  1  0  0  0  0
 30 23  1  6  0  0  0
 31 29  1  0  0  0  0
M  END
>  <MODEL>
7

>  <REMARK>
 VINA RESULT:      -8.7      2.259      3.748
  Name = 
  3 active torsions:
  status: ('A' for Active; 'I' for Inactive)
    1  A    between atoms: C_5  and  O_16
    2  A    between atoms: C_5  and  C_30
    3  A    between atoms: C_10  and  O_16
                            x       y       z     vdW  Elec       q    Type
                         _______ _______ _______ _____ _____    ______ ____

>  <TORSDO>
F 3

$$$$
=
 OpenBabel11122410543D

 31 35  0  0  1  0  0  0  0  0999 V2000
  188.9000  177.8810  143.5940 C   0  0  0  0  0  0  0  0  0  0  0  0
  186.5700  178.6530  140.7480 N   0  0  0  0  0  0  0  0  0  0  0  0
  187.1380  178.1200  139.5260 C   0  0  0  0  0  0  0  0  0  0  0  0
  188.8930  176.9350  138.3240 C   0  0  0  0  0  0  0  0  0  0  0  0
  187.0650  178.2650  142.0470 C   0  0  0  0  0  0  0  0  0  0  0  0
  187.9910  177.4940  144.5810 C   0  0  0  0  0  3  0  0  0  0  0  0
  188.4000  177.5030  139.5010 C   0  0  0  0  0  3  0  0  0  0  0  0
  184.2610  178.1770  141.3650 C   0  0  2  0  0  3  0  0  0  0  0  0
  190.2280  177.8830  143.8590 F   0  0  0  0  0  0  0  0  0  0  0  0
  185.1230  178.7560  138.3440 O   0  0  0  0  0  0  0  0  0  0  0  0
  190.2320  176.2900  138.3150 C   0  0  0  0  0  1  0  0  0  0  0  0
  184.6590  177.9470  142.8280 C   0  0  0  0  0  2  0  0  0  0  0  0
  185.2070  179.2050  140.7440 C   0  0  2  0  0  3  0  0  0  0  0  0
  188.4390  178.2700  142.3340 C   0  0  0  0  0  3  0  0  0  0  0  0
  188.1230  176.9610  137.1600 C   0  0  0  0  0  3  0  0  0  0  0  0
  186.1490  177.8780  143.0520 C   0  0  0  0  0  0  0  0  0  0  0  0
  186.6210  177.4980  144.3120 C   0  0  0  0  0  3  0  0  0  0  0  0
  184.7670  179.6880  139.3560 C   0  0  0  0  0  2  0  0  0  0  0  0
  186.3780  178.1510  138.3420 C   0  0  0  0  0  0  0  0  0  0  0  0
  186.8640  177.5670  137.1700 C   0  0  0  0  0  3  0  0  0  0  0  0
  182.9390  178.6300  141.3140 O   0  0  0  0  0  0  0  0  0  0  0  0
  183.0490  176.7520  140.0100 O   0  0  0  0  0  1  0  0  0  0  0  0
  182.2120  177.5650  140.7760 C   0  0  2  0  0  3  0  0  0  0  0  0
  179.6470  179.7280  141.8280 C   0  0  0  0  0  0  0  0  0  0  0  0
  181.0290  179.5820  139.7820 C   0  0  0  0  0  2  0  0  0  0  0  0
  179.5300  176.2320  140.5940 C   0  0  0  0  0  1  0  0  0  0  0  0
  179.1050  180.4560  142.6990 O   0  0  0  0  0  0  0  0  0  0  0  0
  180.5820  180.2770  140.9460 O   0  0  0  0  0  0  0  0  0  0  0  0
  179.6530  177.6790  140.5010 N   0  0  0  0  0  0  0  0  0  0  0  0
  180.9820  178.0680  139.9840 C   0  0  2  0  0  3  0  0  0  0  0  0
  179.3740  178.2540  141.8190 C   0  0  0  0  0  2  0  0  0  0  0  0
  1  9  1  0  0  0  0
  1  6  1  0  0  0  0
  2  5  1  0  0  0  0
  3  2  1  0  0  0  0
  4  7  2  0  0  0  0
  5 14  1  0  0  0  0
  5 16  2  0  0  0  0
  7  3  1  0  0  0  0
  8 21  1  1  0  0  0
  8 12  1  0  0  0  0
 10 18  1  0  0  0  0
 11  4  1  0  0  0  0
 12 16  1  0  0  0  0
 13 18  1  6  0  0  0
 13  2  1  0  0  0  0
 13  8  1  0  0  0  0
 14  1  2  0  0  0  0
 15 20  2  0  0  0  0
 15  4  1  0  0  0  0
 16 17  1  0  0  0  0
 17  6  2  0  0  0  0
 19 10  1  0  0  0  0
 19  3  2  0  0  0  0
 20 19  1  0  0  0  0
 23 22  1  6  0  0  0
 23 21  1  0  0  0  0
 24 27  2  0  0  0  0
 25 30  1  0  0  0  0
 25 28  1  0  0  0  0
 28 24  1  0  0  0  0
 29 26  1  0  0  0  0
 29 31  1  0  0  0  0
 30 29  1  0  0  0  0
 30 23  1  1  0  0  0
 31 24  1  0  0  0  0
M  END
>  <MODEL>
8

>  <REMARK>
 VINA RESULT:      -8.6      2.246      4.980
  Name = 
  3 active torsions:
  status: ('A' for Active; 'I' for Inactive)
    1  A    between atoms: C_5  and  O_16
    2  A    between atoms: C_5  and  C_30
    3  A    between atoms: C_10  and  O_16
                            x       y       z     vdW  Elec       q    Type
                         _______ _______ _______ _____ _____    ______ ____

>  <TORSDO>
F 3

$$$$
=
 OpenBabel11122410543D

 31 35  0  0  1  0  0  0  0  0999 V2000
  189.1410  178.0790  137.2590 C   0  0  0  0  0  0  0  0  0  0  0  0
  186.5920  178.6200  139.9660 N   0  0  0  0  0  0  0  0  0  0  0  0
  185.2790  178.3050  139.4370 C   0  0  0  0  0  0  0  0  0  0  0  0
  183.8230  177.5780  137.6260 C   0  0  0  0  0  0  0  0  0  0  0  0
  187.7990  178.2300  139.2800 C   0  0  0  0  0  0  0  0  0  0  0  0
  190.1590  177.4470  137.9770 C   0  0  0  0  0  3  0  0  0  0  0  0
  185.0880  177.9440  138.0920 C   0  0  0  0  0  3  0  0  0  0  0  0
  187.3510  177.6650  142.0750 C   0  0  2  0  0  3  0  0  0  0  0  0
  189.2920  178.3120  135.9330 F   0  0  0  0  0  0  0  0  0  0  0  0
  184.3400  178.6390  141.6420 O   0  0  0  0  0  0  0  0  0  0  0  0
  183.6390  177.2020  136.2000 C   0  0  0  0  0  1  0  0  0  0  0  0
  188.7460  177.3970  141.4960 C   0  0  0  0  0  2  0  0  0  0  0  0
  186.7560  178.9010  141.4000 C   0  0  2  0  0  3  0  0  0  0  0  0
  187.9690  178.4730  137.9080 C   0  0  0  0  0  3  0  0  0  0  0  0
  182.7360  177.5500  138.5020 C   0  0  0  0  0  3  0  0  0  0  0  0
  188.8360  177.5960  140.0030 C   0  0  0  0  0  0  0  0  0  0  0  0
  190.0080  177.2120  139.3450 C   0  0  0  0  0  3  0  0  0  0  0  0
  185.4650  179.4020  142.0590 C   0  0  0  0  0  2  0  0  0  0  0  0
  184.1730  178.2870  140.3050 C   0  0  0  0  0  0  0  0  0  0  0  0
  182.9120  177.9020  139.8420 C   0  0  0  0  0  3  0  0  0  0  0  0
  187.4560  177.8600  143.4560 O   0  0  0  0  0  0  0  0  0  0  0  0
  188.6670  176.0790  144.2300 O   0  0  0  0  0  1  0  0  0  0  0  0
  188.7340  177.4020  143.7900 C   0  0  2  0  0  3  0  0  0  0  0  0
  191.4050  176.7100  145.9690 C   0  0  0  0  0  0  0  0  0  0  0  0
  190.8800  178.5890  144.4490 C   0  0  0  0  0  2  0  0  0  0  0  0
  187.9330  177.8190  146.6510 C   0  0  0  0  0  1  0  0  0  0  0  0
  192.2730  175.9290  146.4390 O   0  0  0  0  0  0  0  0  0  0  0  0
  191.7140  177.5060  144.8630 O   0  0  0  0  0  0  0  0  0  0  0  0
  189.3210  177.9510  146.2360 N   0  0  0  0  0  0  0  0  0  0  0  0
  189.4170  178.3380  144.8130 C   0  0  2  0  0  3  0  0  0  0  0  0
  190.0130  176.6930  146.5240 C   0  0  0  0  0  2  0  0  0  0  0  0
  1 14  2  0  0  0  0
  1  6  1  0  0  0  0
  2 13  1  0  0  0  0
  3  2  1  0  0  0  0
  3 19  1  0  0  0  0
  4  7  1  0  0  0  0
  4 15  2  0  0  0  0
  5  2  1  0  0  0  0
  5 16  2  0  0  0  0
  6 17  2  0  0  0  0
  7  3  2  0  0  0  0
  8 21  1  1  0  0  0
  9  1  1  0  0  0  0
 10 18  1  0  0  0  0
 11  4  1  0  0  0  0
 12  8  1  0  0  0  0
 13 18  1  1  0  0  0
 13  8  1  0  0  0  0
 14  5  1  0  0  0  0
 15 20  1  0  0  0  0
 16 12  1  0  0  0  0
 17 16  1  0  0  0  0
 19 10  1  0  0  0  0
 20 19  2  0  0  0  0
 21 23  1  0  0  0  0
 23 22  1  1  0  0  0
 24 27  2  0  0  0  0
 24 31  1  0  0  0  0
 25 30  1  0  0  0  0
 25 28  1  0  0  0  0
 28 24  1  0  0  0  0
 29 31  1  0  0  0  0
 29 26  1  0  0  0  0
 30 23  1  6  0  0  0
 30 29  1  0  0  0  0
M  END
>  <MODEL>
9

>  <REMARK>
 VINA RESULT:      -8.2      3.398      7.301
  Name = 
  3 active torsions:
  status: ('A' for Active; 'I' for Inactive)
    1  A    between atoms: C_5  and  O_16
    2  A    between atoms: C_5  and  C_30
    3  A    between atoms: C_10  and  O_16
                            x       y       z     vdW  Elec       q    Type
                         _______ _______ _______ _____ _____    ______ ____

>  <TORSDO>
F 3

$$$$
