=
 OpenBabel11122412103D

 34 41  0  0  1  0  0  0  0  0999 V2000
  187.3900  178.3430  140.2440 C   0  0  1  0  0  3  0  0  0  0  0  0
  185.4690  179.4270  138.9060 C   0  0  0  0  0  2  0  0  0  0  0  0
  190.2840  177.8140  145.3690 C   0  0  2  0  0  0  0  0  0  0  0  0
  189.0590  177.2330  141.7160 C   0  0  2  0  0  3  0  0  0  0  0  0
  188.4770  176.6090  144.1000 N   0  0  1  0  0  0  0  0  0  0  0  0
  190.0030  178.6730  144.1540 C   0  0  0  0  0  2  0  0  0  0  0  0
  190.4400  178.5510  146.5420 O   0  0  0  0  0  1  0  0  0  0  0  0
  191.5810  176.3300  143.7480 C   0  0  0  0  0  2  0  0  0  0  0  0
  185.2230  179.0380  141.2290 C   0  0  2  0  0  3  0  0  0  0  0  0
  182.3840  178.1740  142.4700 C   0  0  0  0  0  2  0  0  0  0  0  0
  187.0460  176.7460  143.7810 C   0  0  0  0  0  2  0  0  0  0  0  0
  190.5190  175.4930  143.0640 C   0  0  0  0  0  2  0  0  0  0  0  0
  185.3220  178.0450  142.3980 C   0  0  1  0  0  3  0  0  0  0  0  0
  184.0240  179.7800  139.2560 C   0  0  0  0  0  2  0  0  0  0  0  0
  189.1860  176.2190  142.8580 C   0  0  2  0  0  3  0  0  0  0  0  0
  191.1900  176.5910  145.1950 C   0  0  0  0  0  2  0  0  0  0  0  0
  182.7220  178.3980  140.9850 C   0  0  1  0  0  3  0  0  0  0  0  0
  187.5730  177.3800  141.4190 C   0  0  1  0  0  3  0  0  0  0  0  0
  188.8730  177.8600  144.7980 C   0  0  2  0  0  3  0  0  0  0  0  0
  186.8140  177.8080  142.6880 C   0  0  2  0  0  3  0  0  0  0  0  0
  189.3980  177.0760  139.3270 C   0  0  0  0  0  3  0  0  0  0  0  0
  183.1770  179.0520  143.4410 C   0  0  0  0  0  2  0  0  0  0  0  0
  189.7870  176.8120  140.5320 N   0  0  0  0  0  0  0  0  0  0  0  0
  184.6130  178.5590  143.6590 C   0  0  0  0  0  2  0  0  0  0  0  0
  183.8370  179.4480  140.7390 C   0  0  1  0  0  3  0  0  0  0  0  0
  188.0770  177.7460  139.0110 C   0  0  0  0  0  2  0  0  0  0  0  0
  185.8910  178.4780  140.0010 C   0  0  2  0  0  3  0  0  0  0  0  0
  182.9990  177.0480  140.3330 C   0  0  0  0  0  2  0  0  0  0  0  0
  181.9790  176.7500  139.2510 C   0  0  0  0  0  2  0  0  0  0  0  0
  178.9320  175.7480  141.0770 N   0  0  0  0  0  0  0  0  0  0  0  0
  180.5860  174.7990  139.6940 N   0  0  0  0  0  0  0  0  0  0  0  0
  180.8110  176.0490  139.8490 C   0  0  0  0  0  0  0  0  0  0  0  0
  179.3750  174.4930  140.4490 C   0  0  0  0  0  3  0  0  0  0  0  0
  179.8790  176.6510  140.6520 O   0  0  0  0  0  0  0  0  0  0  0  0
  1 26  1  6  0  0  0
  1 18  1  0  0  0  0
  2 14  1  0  0  0  0
  2 27  1  0  0  0  0
  3  7  1  1  0  0  0
  4 23  1  6  0  0  0
  4 15  1  0  0  0  0
  5 11  1  6  0  0  0
  5 19  1  0  0  0  0
  6 19  1  0  0  0  0
  6  3  1  0  0  0  0
  8 16  1  0  0  0  0
  9 13  1  0  0  0  0
 10 22  1  0  0  0  0
 12  8  1  0  0  0  0
 13 20  1  0  0  0  0
 13 24  1  0  0  0  0
 14 25  1  0  0  0  0
 15 12  1  0  0  0  0
 15  5  1  0  0  0  0
 16  3  1  0  0  0  0
 17 10  1  0  0  0  0
 18  4  1  0  0  0  0
 18 20  1  0  0  0  0
 19  3  1  0  0  0  0
 20 11  1  0  0  0  0
 21 23  2  0  0  0  0
 22 24  1  0  0  0  0
 25 17  1  0  0  0  0
 25  9  1  0  0  0  0
 26 21  1  0  0  0  0
 27  1  1  0  0  0  0
 27  9  1  0  0  0  0
 28 17  1  0  0  0  0
 29 32  1  0  0  0  0
 29 28  1  0  0  0  0
 31 32  2  0  0  0  0
 31 33  1  0  0  0  0
 32 34  1  0  0  0  0
 33 30  2  0  0  0  0
 34 30  1  0  0  0  0
M  END
>  <MODEL>
1

>  <REMARK>
 VINA RESULT:      -7.2      0.000      0.000
  Name = 
  3 active torsions:
  status: ('A' for Active; 'I' for Inactive)
    1  A    between atoms: C_17  and  C_28
    2  A    between atoms: C_28  and  C_29
    3  A    between atoms: C_29  and  C_32
                            x       y       z     vdW  Elec       q    Type
                         _______ _______ _______ _____ _____    ______ ____

>  <TORSDO>
F 3

$$$$
=
 OpenBabel11122412103D

 34 41  0  0  1  0  0  0  0  0999 V2000
  187.3900  178.3520  140.2440 C   0  0  1  0  0  3  0  0  0  0  0  0
  185.4710  179.4190  138.8910 C   0  0  0  0  0  2  0  0  0  0  0  0
  190.2360  177.8330  145.3980 C   0  0  2  0  0  0  0  0  0  0  0  0
  189.0560  177.2550  141.7290 C   0  0  2  0  0  3  0  0  0  0  0  0
  188.4560  176.6130  144.1040 N   0  0  1  0  0  0  0  0  0  0  0  0
  189.9570  178.6940  144.1830 C   0  0  0  0  0  2  0  0  0  0  0  0
  190.3700  178.5660  146.5760 O   0  0  0  0  0  1  0  0  0  0  0  0
  191.5660  176.3720  143.7840 C   0  0  0  0  0  2  0  0  0  0  0  0
  185.2050  179.0170  141.2090 C   0  0  2  0  0  3  0  0  0  0  0  0
  182.3620  178.1130  142.4160 C   0  0  0  0  0  2  0  0  0  0  0  0
  187.0270  176.7340  143.7700 C   0  0  0  0  0  2  0  0  0  0  0  0
  190.5220  175.5250  143.0840 C   0  0  0  0  0  2  0  0  0  0  0  0
  185.3030  178.0190  142.3740 C   0  0  1  0  0  3  0  0  0  0  0  0
  184.0180  179.7530  139.2270 C   0  0  0  0  0  2  0  0  0  0  0  0
  189.1830  176.2370  142.8680 C   0  0  2  0  0  3  0  0  0  0  0  0
  191.1580  176.6220  145.2280 C   0  0  0  0  0  2  0  0  0  0  0  0
  182.7140  178.3480  140.9360 C   0  0  1  0  0  3  0  0  0  0  0  0
  187.5720  177.3850  141.4170 C   0  0  1  0  0  3  0  0  0  0  0  0
  188.8300  177.8640  144.8120 C   0  0  2  0  0  3  0  0  0  0  0  0
  186.7940  177.7980  142.6790 C   0  0  2  0  0  3  0  0  0  0  0  0
  189.4220  177.1120  139.3430 C   0  0  0  0  0  3  0  0  0  0  0  0
  183.1350  178.9960  143.4000 C   0  0  0  0  0  2  0  0  0  0  0  0
  189.8010  176.8480  140.5510 N   0  0  0  0  0  0  0  0  0  0  0  0
  184.5740  178.5190  143.6310 C   0  0  0  0  0  2  0  0  0  0  0  0
  183.8190  179.4120  140.7070 C   0  0  1  0  0  3  0  0  0  0  0  0
  188.0970  177.7690  139.0160 C   0  0  0  0  0  2  0  0  0  0  0  0
  185.8920  178.4700  139.9860 C   0  0  2  0  0  3  0  0  0  0  0  0
  183.0140  177.0040  140.2800 C   0  0  0  0  0  2  0  0  0  0  0  0
  181.7970  176.4770  139.5450 C   0  0  0  0  0  2  0  0  0  0  0  0
  182.0510  173.6700  137.1640 N   0  0  0  0  0  0  0  0  0  0  0  0
  183.4270  175.2940  138.1720 N   0  0  0  0  0  0  0  0  0  0  0  0
  182.2180  175.4400  138.5660 C   0  0  0  0  0  0  0  0  0  0  0  0
  183.4340  174.1680  137.2450 C   0  0  0  0  0  3  0  0  0  0  0  0
  181.3740  174.5150  138.0120 O   0  0  0  0  0  0  0  0  0  0  0  0
  1 26  1  6  0  0  0
  1 18  1  0  0  0  0
  2 14  1  0  0  0  0
  2 27  1  0  0  0  0
  3  7  1  1  0  0  0
  4 23  1  6  0  0  0
  4 15  1  0  0  0  0
  5 11  1  6  0  0  0
  5 19  1  0  0  0  0
  6 19  1  0  0  0  0
  6  3  1  0  0  0  0
  8 16  1  0  0  0  0
  9 13  1  0  0  0  0
 10 22  1  0  0  0  0
 12  8  1  0  0  0  0
 13 20  1  0  0  0  0
 13 24  1  0  0  0  0
 14 25  1  0  0  0  0
 15 12  1  0  0  0  0
 15  5  1  0  0  0  0
 16  3  1  0  0  0  0
 17 10  1  0  0  0  0
 18  4  1  0  0  0  0
 18 20  1  0  0  0  0
 19  3  1  0  0  0  0
 20 11  1  0  0  0  0
 21 23  2  0  0  0  0
 22 24  1  0  0  0  0
 25 17  1  0  0  0  0
 25  9  1  0  0  0  0
 26 21  1  0  0  0  0
 27  1  1  0  0  0  0
 27  9  1  0  0  0  0
 28 17  1  0  0  0  0
 29 28  1  0  0  0  0
 30 33  2  0  0  0  0
 30 34  1  0  0  0  0
 31 32  2  0  0  0  0
 32 29  1  0  0  0  0
 33 31  1  0  0  0  0
 34 32  1  0  0  0  0
M  END
>  <MODEL>
2

>  <REMARK>
 VINA RESULT:      -7.0      1.378      1.580
  Name = 
  3 active torsions:
  status: ('A' for Active; 'I' for Inactive)
    1  A    between atoms: C_17  and  C_28
    2  A    between atoms: C_28  and  C_29
    3  A    between atoms: C_29  and  C_32
                            x       y       z     vdW  Elec       q    Type
                         _______ _______ _______ _____ _____    ______ ____

>  <TORSDO>
F 3

$$$$
=
 OpenBabel11122412103D

 34 41  0  0  1  0  0  0  0  0999 V2000
  185.1220  178.1070  140.1620 C   0  0  1  0  0  3  0  0  0  0  0  0
  182.7890  178.3940  141.2250 C   0  0  0  0  0  2  0  0  0  0  0  0
  188.5280  175.4390  136.1360 C   0  0  2  0  0  0  0  0  0  0  0  0
  187.2530  177.8700  138.9020 C   0  0  2  0  0  3  0  0  0  0  0  0
  187.2490  177.5920  136.3850 N   0  0  1  0  0  0  0  0  0  0  0  0
  187.7840  175.3170  137.4500 C   0  0  0  0  0  2  0  0  0  0  0  0
  188.4960  174.2730  135.3730 O   0  0  0  0  0  1  0  0  0  0  0  0
  190.1320  176.9400  137.4350 C   0  0  0  0  0  2  0  0  0  0  0  0
  182.9860  177.8300  138.9330 C   0  0  2  0  0  3  0  0  0  0  0  0
  180.9130  178.9860  136.7610 C   0  0  0  0  0  2  0  0  0  0  0  0
  185.8640  178.0870  136.3370 C   0  0  0  0  0  2  0  0  0  0  0  0
  189.4410  178.2880  137.4820 C   0  0  0  0  0  2  0  0  0  0  0  0
  183.6150  178.1460  137.5670 C   0  0  1  0  0  3  0  0  0  0  0  0
  181.3760  178.4310  140.6440 C   0  0  0  0  0  2  0  0  0  0  0  0
  187.9140  178.2050  137.5600 C   0  0  2  0  0  3  0  0  0  0  0  0
  189.8320  176.2420  136.1170 C   0  0  0  0  0  2  0  0  0  0  0  0
  180.9620  179.3070  138.2660 C   0  0  1  0  0  3  0  0  0  0  0  0
  185.8160  178.3670  138.8230 C   0  0  1  0  0  3  0  0  0  0  0  0
  187.1700  176.1110  136.2890 C   0  0  2  0  0  3  0  0  0  0  0  0
  185.0940  177.7260  137.6230 C   0  0  2  0  0  3  0  0  0  0  0  0
  187.3580  178.8920  141.0910 C   0  0  0  0  0  3  0  0  0  0  0  0
  181.3770  177.5730  136.3990 C   0  0  0  0  0  2  0  0  0  0  0  0
  187.9530  178.4790  140.0190 N   0  0  0  0  0  0  0  0  0  0  0  0
  182.9030  177.4190  136.4170 C   0  0  0  0  0  2  0  0  0  0  0  0
  181.5090  178.1510  139.1450 C   0  0  1  0  0  3  0  0  0  0  0  0
  185.8520  178.8990  141.2520 C   0  0  0  0  0  2  0  0  0  0  0  0
  183.6840  178.5950  140.0260 C   0  0  2  0  0  3  0  0  0  0  0  0
  181.6970  180.6280  138.4660 C   0  0  0  0  0  2  0  0  0  0  0  0
  180.7160  181.7740  138.6260 C   0  0  0  0  0  2  0  0  0  0  0  0
  181.5270  184.6470  136.4570 N   0  0  0  0  0  0  0  0  0  0  0  0
  180.4550  182.5530  136.3320 N   0  0  0  0  0  0  0  0  0  0  0  0
  180.9010  182.7450  137.5150 C   0  0  0  0  0  0  0  0  0  0  0  0
  180.8140  183.7320  135.5500 C   0  0  0  0  0  3  0  0  0  0  0  0
  181.5310  183.9540  137.6450 O   0  0  0  0  0  0  0  0  0  0  0  0
  1 26  1  1  0  0  0
  3  7  1  6  0  0  0
  3 19  1  0  0  0  0
  3  6  1  0  0  0  0
  4 23  1  1  0  0  0
  5 11  1  1  0  0  0
  5 15  1  0  0  0  0
  8 12  1  0  0  0  0
  9 25  1  0  0  0  0
  9 27  1  0  0  0  0
 10 17  1  0  0  0  0
 11 20  1  0  0  0  0
 12 15  1  0  0  0  0
 13 20  1  0  0  0  0
 13  9  1  0  0  0  0
 14  2  1  0  0  0  0
 15  4  1  0  0  0  0
 16  3  1  0  0  0  0
 16  8  1  0  0  0  0
 17 28  1  0  0  0  0
 17 25  1  0  0  0  0
 18  4  1  0  0  0  0
 18  1  1  0  0  0  0
 19  5  1  0  0  0  0
 19  6  1  0  0  0  0
 20 18  1  0  0  0  0
 21 26  1  0  0  0  0
 22 24  1  0  0  0  0
 22 10  1  0  0  0  0
 23 21  2  0  0  0  0
 24 13  1  0  0  0  0
 25 14  1  0  0  0  0
 27  1  1  0  0  0  0
 27  2  1  0  0  0  0
 28 29  1  0  0  0  0
 30 34  1  0  0  0  0
 31 32  2  0  0  0  0
 32 34  1  0  0  0  0
 32 29  1  0  0  0  0
 33 31  1  0  0  0  0
 33 30  2  0  0  0  0
M  END
>  <MODEL>
3

>  <REMARK>
 VINA RESULT:      -6.7      4.287      6.580
  Name = 
  3 active torsions:
  status: ('A' for Active; 'I' for Inactive)
    1  A    between atoms: C_17  and  C_28
    2  A    between atoms: C_28  and  C_29
    3  A    between atoms: C_29  and  C_32
                            x       y       z     vdW  Elec       q    Type
                         _______ _______ _______ _____ _____    ______ ____

>  <TORSDO>
F 3

$$$$
=
 OpenBabel11122412103D

 34 41  0  0  1  0  0  0  0  0999 V2000
  186.3920  178.7170  139.6060 C   0  0  1  0  0  3  0  0  0  0  0  0
  188.7990  178.4620  138.7120 C   0  0  0  0  0  2  0  0  0  0  0  0
  180.7350  180.0470  138.5300 C   0  0  2  0  0  0  0  0  0  0  0  0
  183.9960  178.8070  140.2660 C   0  0  2  0  0  3  0  0  0  0  0  0
  182.1840  177.9960  138.6940 N   0  0  1  0  0  0  0  0  0  0  0  0
  182.1470  180.5640  138.7170 C   0  0  0  0  0  2  0  0  0  0  0  0
  180.0100  180.7540  137.5720 O   0  0  0  0  0  1  0  0  0  0  0  0
  180.8140  179.5690  141.0350 C   0  0  0  0  0  2  0  0  0  0  0  0
  186.9540  178.0380  137.2880 C   0  0  2  0  0  3  0  0  0  0  0  0
  187.0730  175.7020  135.0790 C   0  0  0  0  0  2  0  0  0  0  0  0
  183.1970  177.2710  137.9090 C   0  0  0  0  0  2  0  0  0  0  0  0
  181.5690  178.2610  141.1520 C   0  0  0  0  0  2  0  0  0  0  0  0
  185.6210  177.3040  137.0740 C   0  0  1  0  0  3  0  0  0  0  0  0
  189.3730  177.9140  137.4060 C   0  0  0  0  0  2  0  0  0  0  0  0
  182.6620  178.0740  140.0950 C   0  0  2  0  0  3  0  0  0  0  0  0
  179.9690  179.5760  139.7700 C   0  0  0  0  0  2  0  0  0  0  0  0
  188.1530  176.0580  136.1170 C   0  0  1  0  0  3  0  0  0  0  0  0
  185.0230  178.0580  139.4280 C   0  0  1  0  0  3  0  0  0  0  0  0
  181.9020  179.2550  137.9550 C   0  0  2  0  0  3  0  0  0  0  0  0
  184.5640  177.9830  137.9610 C   0  0  2  0  0  3  0  0  0  0  0  0
  185.6440  178.8410  142.0350 C   0  0  0  0  0  3  0  0  0  0  0  0
  186.2410  176.8920  134.5940 C   0  0  0  0  0  2  0  0  0  0  0  0
  184.4080  178.8710  141.6570 N   0  0  0  0  0  0  0  0  0  0  0  0
  185.1730  177.3290  135.6040 C   0  0  0  0  0  2  0  0  0  0  0  0
  188.1790  177.5570  136.5160 C   0  0  1  0  0  3  0  0  0  0  0  0
  186.7970  178.6130  141.0800 C   0  0  0  0  0  2  0  0  0  0  0  0
  187.3780  177.9510  138.7310 C   0  0  2  0  0  3  0  0  0  0  0  0
  188.0270  175.1120  137.3060 C   0  0  0  0  0  2  0  0  0  0  0  0
  188.6330  173.7580  136.9860 C   0  0  0  0  0  2  0  0  0  0  0  0
  192.1670  174.4580  137.7850 N   0  0  0  0  0  0  0  0  0  0  0  0
  190.8860  173.3440  136.1520 N   0  0  0  0  0  0  0  0  0  0  0  0
  190.1160  173.8530  137.0390 C   0  0  0  0  0  0  0  0  0  0  0  0
  192.2530  173.6720  136.5440 C   0  0  0  0  0  3  0  0  0  0  0  0
  190.8120  174.5190  138.0130 O   0  0  0  0  0  0  0  0  0  0  0  0
  1 26  1  1  0  0  0
  2 27  1  0  0  0  0
  3  7  1  6  0  0  0
  3  6  1  0  0  0  0
  3 16  1  0  0  0  0
  4 23  1  1  0  0  0
  5 11  1  6  0  0  0
  5 15  1  0  0  0  0
  8 12  1  0  0  0  0
  9 27  1  0  0  0  0
 10 17  1  0  0  0  0
 11 20  1  0  0  0  0
 13  9  1  0  0  0  0
 13 20  1  0  0  0  0
 14  2  1  0  0  0  0
 15  4  1  0  0  0  0
 15 12  1  0  0  0  0
 16  8  1  0  0  0  0
 17 25  1  0  0  0  0
 17 28  1  0  0  0  0
 18  1  1  0  0  0  0
 18  4  1  0  0  0  0
 19  3  1  0  0  0  0
 19  5  1  0  0  0  0
 19  6  1  0  0  0  0
 20 18  1  0  0  0  0
 22 10  1  0  0  0  0
 22 24  1  0  0  0  0
 23 21  2  0  0  0  0
 24 13  1  0  0  0  0
 25  9  1  0  0  0  0
 25 14  1  0  0  0  0
 26 21  1  0  0  0  0
 27  1  1  0  0  0  0
 29 32  1  0  0  0  0
 29 28  1  0  0  0  0
 30 34  1  0  0  0  0
 31 33  1  0  0  0  0
 31 32  2  0  0  0  0
 32 34  1  0  0  0  0
 33 30  2  0  0  0  0
M  END
>  <MODEL>
4

>  <REMARK>
 VINA RESULT:      -6.5      3.691      8.552
  Name = 
  3 active torsions:
  status: ('A' for Active; 'I' for Inactive)
    1  A    between atoms: C_17  and  C_28
    2  A    between atoms: C_28  and  C_29
    3  A    between atoms: C_29  and  C_32
                            x       y       z     vdW  Elec       q    Type
                         _______ _______ _______ _____ _____    ______ ____

>  <TORSDO>
F 3

$$$$
=
 OpenBabel11122412103D

 34 41  0  0  1  0  0  0  0  0999 V2000
  186.1750  176.2690  135.1670 C   0  0  1  0  0  3  0  0  0  0  0  0
  188.2600  177.6790  134.6030 C   0  0  0  0  0  2  0  0  0  0  0  0
  183.7160  170.9270  135.7630 C   0  0  2  0  0  0  0  0  0  0  0  0
  184.3190  174.7760  135.8810 C   0  0  2  0  0  3  0  0  0  0  0  0
  184.7810  172.6780  137.2220 N   0  0  1  0  0  0  0  0  0  0  0  0
  184.2260  171.9910  134.8110 C   0  0  0  0  0  2  0  0  0  0  0  0
  183.9620  169.6280  135.3200 O   0  0  0  0  0  1  0  0  0  0  0  0
  181.8110  172.5620  136.2210 C   0  0  0  0  0  2  0  0  0  0  0  0
  188.5060  175.5410  135.5920 C   0  0  2  0  0  3  0  0  0  0  0  0
  190.8430  174.9660  137.7280 C   0  0  0  0  0  2  0  0  0  0  0  0
  186.1160  173.1970  137.5630 C   0  0  0  0  0  2  0  0  0  0  0  0
  182.3890  173.5550  137.2090 C   0  0  0  0  0  2  0  0  0  0  0  0
  188.1060  174.5780  136.7210 C   0  0  1  0  0  3  0  0  0  0  0  0
  189.7470  177.5100  134.9130 C   0  0  0  0  0  2  0  0  0  0  0  0
  183.8810  173.8380  137.0110 C   0  0  2  0  0  3  0  0  0  0  0  0
  182.3840  171.1750  136.4760 C   0  0  0  0  0  2  0  0  0  0  0  0
  190.5100  176.3070  137.0490 C   0  0  1  0  0  3  0  0  0  0  0  0
  185.7100  175.2800  136.2390 C   0  0  1  0  0  3  0  0  0  0  0  0
  184.9780  171.7040  136.1180 C   0  0  2  0  0  3  0  0  0  0  0  0
  186.6720  174.0960  136.4400 C   0  0  2  0  0  3  0  0  0  0  0  0
  183.7620  177.0630  135.3300 C   0  0  0  0  0  3  0  0  0  0  0  0
  190.5480  173.7310  136.8720 C   0  0  0  0  0  2  0  0  0  0  0  0
  183.3940  175.8810  135.7040 N   0  0  0  0  0  0  0  0  0  0  0  0
  189.0570  173.3760  136.8250 C   0  0  0  0  0  2  0  0  0  0  0  0
  189.8980  176.1660  135.6310 C   0  0  1  0  0  3  0  0  0  0  0  0
  185.2130  177.4610  135.1520 C   0  0  0  0  0  2  0  0  0  0  0  0
  187.5770  176.7250  135.5530 C   0  0  2  0  0  3  0  0  0  0  0  0
  189.6630  177.1450  138.0000 C   0  0  0  0  0  2  0  0  0  0  0  0
  189.9540  176.7840  139.4450 C   0  0  0  0  0  2  0  0  0  0  0  0
  187.3210  178.8730  140.9700 N   0  0  0  0  0  0  0  0  0  0  0  0
  188.8420  177.1810  141.5780 N   0  0  0  0  0  0  0  0  0  0  0  0
  188.9620  177.4480  140.3320 C   0  0  0  0  0  0  0  0  0  0  0  0
  187.7910  178.0500  142.0960 C   0  0  0  0  0  3  0  0  0  0  0  0
  188.1000  178.4320  139.9260 O   0  0  0  0  0  0  0  0  0  0  0  0
  1 26  1  1  0  0  0
  1 27  1  0  0  0  0
  1 18  1  0  0  0  0
  2 14  1  0  0  0  0
  2 27  1  0  0  0  0
  3  7  1  6  0  0  0
  3 19  1  0  0  0  0
  3 16  1  0  0  0  0
  4 23  1  1  0  0  0
  4 18  1  0  0  0  0
  4 15  1  0  0  0  0
  5 11  1  6  0  0  0
  6  3  1  0  0  0  0
  6 19  1  0  0  0  0
  8 16  1  0  0  0  0
  8 12  1  0  0  0  0
  9 25  1  0  0  0  0
  9 13  1  0  0  0  0
 13 24  1  0  0  0  0
 14 25  1  0  0  0  0
 15 12  1  0  0  0  0
 15  5  1  0  0  0  0
 17 10  1  0  0  0  0
 17 28  1  0  0  0  0
 18 20  1  0  0  0  0
 19  5  1  0  0  0  0
 20 13  1  0  0  0  0
 20 11  1  0  0  0  0
 21 23  2  0  0  0  0
 22 10  1  0  0  0  0
 24 22  1  0  0  0  0
 25 17  1  0  0  0  0
 26 21  1  0  0  0  0
 27  9  1  0  0  0  0
 28 29  1  0  0  0  0
 29 32  1  0  0  0  0
 30 33  2  0  0  0  0
 31 33  1  0  0  0  0
 32 31  2  0  0  0  0
 34 32  1  0  0  0  0
 34 30  1  0  0  0  0
M  END
>  <MODEL>
5

>  <REMARK>
 VINA RESULT:      -6.4      4.690      9.211
  Name = 
  3 active torsions:
  status: ('A' for Active; 'I' for Inactive)
    1  A    between atoms: C_17  and  C_28
    2  A    between atoms: C_28  and  C_29
    3  A    between atoms: C_29  and  C_32
                            x       y       z     vdW  Elec       q    Type
                         _______ _______ _______ _____ _____    ______ ____

>  <TORSDO>
F 3

$$$$
=
 OpenBabel11122412103D

 34 41  0  0  1  0  0  0  0  0999 V2000
  184.1560  177.8760  139.2650 C   0  0  1  0  0  3  0  0  0  0  0  0
  181.6470  177.8670  139.8650 C   0  0  0  0  0  2  0  0  0  0  0  0
  188.5790  175.6070  136.0690 C   0  0  2  0  0  0  0  0  0  0  0  0
  186.4990  177.9040  138.4320 C   0  0  2  0  0  3  0  0  0  0  0  0
  187.0080  177.5700  135.9740 N   0  0  1  0  0  0  0  0  0  0  0  0
  187.6210  175.4150  137.2270 C   0  0  0  0  0  2  0  0  0  0  0  0
  188.8420  174.4300  135.3690 O   0  0  0  0  0  1  0  0  0  0  0  0
  189.6990  177.3410  137.5680 C   0  0  0  0  0  2  0  0  0  0  0  0
  182.3450  177.2830  137.6790 C   0  0  2  0  0  3  0  0  0  0  0  0
  180.5890  178.0970  135.1090 C   0  0  0  0  0  2  0  0  0  0  0  0
  185.6040  177.8710  135.6480 C   0  0  0  0  0  2  0  0  0  0  0  0
  188.8430  178.5830  137.4220 C   0  0  0  0  0  2  0  0  0  0  0  0
  183.1750  177.6510  136.4380 C   0  0  1  0  0  3  0  0  0  0  0  0
  180.3770  177.6980  139.0320 C   0  0  0  0  0  2  0  0  0  0  0  0
  187.3530  178.2950  137.2210 C   0  0  2  0  0  3  0  0  0  0  0  0
  189.7470  176.5800  136.2520 C   0  0  0  0  0  2  0  0  0  0  0  0
  180.3090  178.4550  136.5800 C   0  0  1  0  0  3  0  0  0  0  0  0
  185.0510  178.1980  138.0660 C   0  0  1  0  0  3  0  0  0  0  0  0
  187.1400  176.0910  135.9370 C   0  0  2  0  0  3  0  0  0  0  0  0
  184.6580  177.4380  136.7860 C   0  0  2  0  0  3  0  0  0  0  0  0
  186.0550  178.9790  140.5520 C   0  0  0  0  0  3  0  0  0  0  0  0
  181.2920  176.7520  134.9060 C   0  0  0  0  0  2  0  0  0  0  0  0
  186.8900  178.6280  139.6290 N   0  0  0  0  0  0  0  0  0  0  0  0
  182.7930  176.8080  135.2120 C   0  0  0  0  0  2  0  0  0  0  0  0
  180.8260  177.4050  137.5980 C   0  0  1  0  0  3  0  0  0  0  0  0
  184.5580  178.7850  140.4320 C   0  0  0  0  0  2  0  0  0  0  0  0
  182.7190  178.1610  138.8440 C   0  0  2  0  0  3  0  0  0  0  0  0
  180.8160  179.8680  136.8480 C   0  0  0  0  0  2  0  0  0  0  0  0
  180.5700  180.7670  135.6520 C   0  0  0  0  0  2  0  0  0  0  0  0
  181.1180  184.4140  135.8030 N   0  0  0  0  0  0  0  0  0  0  0  0
  180.9580  182.5640  137.2530 N   0  0  0  0  0  0  0  0  0  0  0  0
  180.7940  182.1850  136.0420 C   0  0  0  0  0  0  0  0  0  0  0  0
  181.1710  184.0070  137.2170 C   0  0  0  0  0  3  0  0  0  0  0  0
  180.8820  183.2240  135.1540 O   0  0  0  0  0  0  0  0  0  0  0  0
  1 26  1  1  0  0  0
  3  7  1  6  0  0  0
  3 16  1  0  0  0  0
  3  6  1  0  0  0  0
  4 23  1  1  0  0  0
  5 11  1  1  0  0  0
  5 15  1  0  0  0  0
  9 27  1  0  0  0  0
 10 17  1  0  0  0  0
 11 20  1  0  0  0  0
 12  8  1  0  0  0  0
 13 20  1  0  0  0  0
 13  9  1  0  0  0  0
 14  2  1  0  0  0  0
 15 12  1  0  0  0  0
 15  4  1  0  0  0  0
 16  8  1  0  0  0  0
 17 28  1  0  0  0  0
 17 25  1  0  0  0  0
 18  4  1  0  0  0  0
 18  1  1  0  0  0  0
 19  5  1  0  0  0  0
 19  3  1  0  0  0  0
 19  6  1  0  0  0  0
 20 18  1  0  0  0  0
 22 10  1  0  0  0  0
 22 24  1  0  0  0  0
 23 21  2  0  0  0  0
 24 13  1  0  0  0  0
 25  9  1  0  0  0  0
 25 14  1  0  0  0  0
 26 21  1  0  0  0  0
 27  1  1  0  0  0  0
 27  2  1  0  0  0  0
 29 32  1  0  0  0  0
 29 28  1  0  0  0  0
 30 33  2  0  0  0  0
 32 31  2  0  0  0  0
 33 31  1  0  0  0  0
 34 30  1  0  0  0  0
 34 32  1  0  0  0  0
M  END
>  <MODEL>
6

>  <REMARK>
 VINA RESULT:      -6.1      4.681      7.079
  Name = 
  3 active torsions:
  status: ('A' for Active; 'I' for Inactive)
    1  A    between atoms: C_17  and  C_28
    2  A    between atoms: C_28  and  C_29
    3  A    between atoms: C_29  and  C_32
                            x       y       z     vdW  Elec       q    Type
                         _______ _______ _______ _____ _____    ______ ____

>  <TORSDO>
F 3

$$$$
=
 OpenBabel11122412103D

 34 41  0  0  1  0  0  0  0  0999 V2000
  182.2080  179.0060  142.8720 C   0  0  1  0  0  3  0  0  0  0  0  0
  183.8130  179.8370  144.7130 C   0  0  0  0  0  2  0  0  0  0  0  0
  180.8620  178.6990  137.1260 C   0  0  2  0  0  0  0  0  0  0  0  0
  180.8750  178.1030  140.9770 C   0  0  2  0  0  3  0  0  0  0  0  0
  182.0080  177.2870  138.8650 N   0  0  1  0  0  0  0  0  0  0  0  0
  180.9180  179.5590  138.3720 C   0  0  0  0  0  2  0  0  0  0  0  0
  181.1710  179.3960  135.9600 O   0  0  0  0  0  1  0  0  0  0  0  0
  178.9310  177.5110  138.2980 C   0  0  0  0  0  2  0  0  0  0  0  0
  184.6490  179.3090  142.5610 C   0  0  2  0  0  3  0  0  0  0  0  0
  187.5460  177.9560  142.1980 C   0  0  0  0  0  2  0  0  0  0  0  0
  183.2890  177.2130  139.5860 C   0  0  0  0  0  2  0  0  0  0  0  0
  179.6010  176.5510  139.2610 C   0  0  0  0  0  2  0  0  0  0  0  0
  184.7300  178.2900  141.4130 C   0  0  1  0  0  3  0  0  0  0  0  0
  185.3350  179.9440  144.7980 C   0  0  0  0  0  2  0  0  0  0  0  0
  180.9180  177.0700  139.8460 C   0  0  2  0  0  3  0  0  0  0  0  0
  179.7580  177.6420  137.0270 C   0  0  0  0  0  2  0  0  0  0  0  0
  186.8360  178.2980  143.5210 C   0  0  1  0  0  3  0  0  0  0  0  0
  182.2160  178.0300  141.6940 C   0  0  1  0  0  3  0  0  0  0  0  0
  182.0370  178.5500  138.0830 C   0  0  2  0  0  3  0  0  0  0  0  0
  183.3670  178.2750  140.7010 C   0  0  2  0  0  3  0  0  0  0  0  0
  179.8440  178.1110  143.1640 C   0  0  0  0  0  3  0  0  0  0  0  0
  187.2180  178.9010  141.0390 C   0  0  0  0  0  2  0  0  0  0  0  0
  179.7790  177.8560  141.8980 N   0  0  0  0  0  0  0  0  0  0  0  0
  185.8460  178.6280  140.4130 C   0  0  0  0  0  2  0  0  0  0  0  0
  185.8840  179.5190  143.4330 C   0  0  1  0  0  3  0  0  0  0  0  0
  181.1090  178.5810  143.8510 C   0  0  0  0  0  2  0  0  0  0  0  0
  183.5750  178.9160  143.5410 C   0  0  2  0  0  3  0  0  0  0  0  0
  186.1680  177.0390  144.0630 C   0  0  0  0  0  2  0  0  0  0  0  0
  186.2280  177.0040  145.5780 C   0  0  0  0  0  2  0  0  0  0  0  0
  189.8900  177.1090  146.0320 N   0  0  0  0  0  0  0  0  0  0  0  0
  187.9300  177.8800  147.0880 N   0  0  0  0  0  0  0  0  0  0  0  0
  187.6280  177.2350  146.0240 C   0  0  0  0  0  0  0  0  0  0  0  0
  189.3860  177.8660  147.1890 C   0  0  0  0  0  3  0  0  0  0  0  0
  188.7340  176.7590  145.3720 O   0  0  0  0  0  0  0  0  0  0  0  0
  1 27  1  0  0  0  0
  1 26  1  1  0  0  0
  2 14  1  0  0  0  0
  3  7  1  6  0  0  0
  3 19  1  0  0  0  0
  3  6  1  0  0  0  0
  4 18  1  0  0  0  0
  4 23  1  1  0  0  0
  5 11  1  1  0  0  0
  5 15  1  0  0  0  0
  8 12  1  0  0  0  0
  9 25  1  0  0  0  0
  9 27  1  0  0  0  0
 10 17  1  0  0  0  0
 11 20  1  0  0  0  0
 12 15  1  0  0  0  0
 13  9  1  0  0  0  0
 15  4  1  0  0  0  0
 16  3  1  0  0  0  0
 16  8  1  0  0  0  0
 17 28  1  0  0  0  0
 18  1  1  0  0  0  0
 19  6  1  0  0  0  0
 19  5  1  0  0  0  0
 20 13  1  0  0  0  0
 20 18  1  0  0  0  0
 21 26  1  0  0  0  0
 22 10  1  0  0  0  0
 23 21  2  0  0  0  0
 24 22  1  0  0  0  0
 24 13  1  0  0  0  0
 25 17  1  0  0  0  0
 25 14  1  0  0  0  0
 27  2  1  0  0  0  0
 28 29  1  0  0  0  0
 29 32  1  0  0  0  0
 30 33  2  0  0  0  0
 31 33  1  0  0  0  0
 32 31  2  0  0  0  0
 34 32  1  0  0  0  0
 34 30  1  0  0  0  0
M  END
>  <MODEL>
7

>  <REMARK>
 VINA RESULT:      -6.0      2.453      8.706
  Name = 
  3 active torsions:
  status: ('A' for Active; 'I' for Inactive)
    1  A    between atoms: C_17  and  C_28
    2  A    between atoms: C_28  and  C_29
    3  A    between atoms: C_29  and  C_32
                            x       y       z     vdW  Elec       q    Type
                         _______ _______ _______ _____ _____    ______ ____

>  <TORSDO>
F 3

$$$$
=
 OpenBabel11122412103D

 34 41  0  0  1  0  0  0  0  0999 V2000
  186.3850  178.6850  139.6530 C   0  0  1  0  0  3  0  0  0  0  0  0
  188.8060  178.4070  138.8080 C   0  0  0  0  0  2  0  0  0  0  0  0
  180.7780  180.1470  138.4870 C   0  0  2  0  0  0  0  0  0  0  0  0
  183.9760  178.8020  140.2620 C   0  0  2  0  0  3  0  0  0  0  0  0
  182.1860  178.0660  138.6290 N   0  0  1  0  0  0  0  0  0  0  0  0
  182.1950  180.6330  138.7180 C   0  0  0  0  0  2  0  0  0  0  0  0
  180.0890  180.8930  137.5320 O   0  0  0  0  0  1  0  0  0  0  0  0
  180.7910  179.6030  140.9800 C   0  0  0  0  0  2  0  0  0  0  0  0
  186.9870  178.0550  137.3320 C   0  0  2  0  0  3  0  0  0  0  0  0
  187.1140  175.7750  135.0660 C   0  0  0  0  0  2  0  0  0  0  0  0
  183.2030  177.3430  137.8480 C   0  0  0  0  0  2  0  0  0  0  0  0
  181.5190  178.2780  141.0790 C   0  0  0  0  0  2  0  0  0  0  0  0
  185.6460  177.3520  137.0680 C   0  0  1  0  0  3  0  0  0  0  0  0
  189.4000  177.8830  137.5010 C   0  0  0  0  0  2  0  0  0  0  0  0
  182.6330  178.0980  140.0420 C   0  0  2  0  0  3  0  0  0  0  0  0
  179.9750  179.6590  139.6960 C   0  0  0  0  0  2  0  0  0  0  0  0
  188.1760  176.0850  136.1360 C   0  0  1  0  0  3  0  0  0  0  0  0
  185.0080  178.0560  139.4280 C   0  0  1  0  0  3  0  0  0  0  0  0
  181.9440  179.3480  137.9170 C   0  0  2  0  0  3  0  0  0  0  0  0
  184.5810  178.0280  137.9490 C   0  0  2  0  0  3  0  0  0  0  0  0
  185.5830  178.7590  142.0680 C   0  0  0  0  0  3  0  0  0  0  0  0
  186.3150  176.9920  134.5940 C   0  0  0  0  0  2  0  0  0  0  0  0
  184.3560  178.8220  141.6630 N   0  0  0  0  0  0  0  0  0  0  0  0
  185.2330  177.4230  135.5910 C   0  0  0  0  0  2  0  0  0  0  0  0
  188.2210  177.5720  136.5750 C   0  0  1  0  0  3  0  0  0  0  0  0
  186.7530  178.5350  141.1330 C   0  0  0  0  0  2  0  0  0  0  0  0
  187.3760  177.9230  138.7810 C   0  0  2  0  0  3  0  0  0  0  0  0
  188.0060  175.1100  137.2970 C   0  0  0  0  0  2  0  0  0  0  0  0
  188.0510  173.6750  136.8080 C   0  0  0  0  0  2  0  0  0  0  0  0
  184.5990  172.6320  137.5960 N   0  0  0  0  0  0  0  0  0  0  0  0
  186.2310  172.3140  135.9270 N   0  0  0  0  0  0  0  0  0  0  0  0
  186.6800  173.0990  136.8320 C   0  0  0  0  0  0  0  0  0  0  0  0
  184.8730  171.9510  136.3210 C   0  0  0  0  0  3  0  0  0  0  0  0
  185.7700  173.3150  137.8330 O   0  0  0  0  0  0  0  0  0  0  0  0
  1 26  1  1  0  0  0
  3  7  1  6  0  0  0
  3  6  1  0  0  0  0
  3 16  1  0  0  0  0
  4 23  1  1  0  0  0
  5 11  1  6  0  0  0
  5 15  1  0  0  0  0
  8 12  1  0  0  0  0
  9 27  1  0  0  0  0
 10 17  1  0  0  0  0
 11 20  1  0  0  0  0
 13  9  1  0  0  0  0
 13 20  1  0  0  0  0
 14  2  1  0  0  0  0
 15  4  1  0  0  0  0
 15 12  1  0  0  0  0
 16  8  1  0  0  0  0
 17 25  1  0  0  0  0
 17 28  1  0  0  0  0
 18  1  1  0  0  0  0
 18  4  1  0  0  0  0
 19  3  1  0  0  0  0
 19  5  1  0  0  0  0
 19  6  1  0  0  0  0
 20 18  1  0  0  0  0
 22 10  1  0  0  0  0
 22 24  1  0  0  0  0
 23 21  2  0  0  0  0
 24 13  1  0  0  0  0
 25  9  1  0  0  0  0
 25 14  1  0  0  0  0
 26 21  1  0  0  0  0
 27  2  1  0  0  0  0
 27  1  1  0  0  0  0
 29 32  1  0  0  0  0
 29 28  1  0  0  0  0
 30 34  1  0  0  0  0
 31 33  1  0  0  0  0
 31 32  2  0  0  0  0
 32 34  1  0  0  0  0
 33 30  2  0  0  0  0
M  END
>  <MODEL>
8

>  <REMARK>
 VINA RESULT:      -6.0      3.891      7.731
  Name = 
  3 active torsions:
  status: ('A' for Active; 'I' for Inactive)
    1  A    between atoms: C_17  and  C_28
    2  A    between atoms: C_28  and  C_29
    3  A    between atoms: C_29  and  C_32
                            x       y       z     vdW  Elec       q    Type
                         _______ _______ _______ _____ _____    ______ ____

>  <TORSDO>
F 3

$$$$
=
 OpenBabel11122412103D

 34 41  0  0  1  0  0  0  0  0999 V2000
  185.4020  177.8760  137.3580 C   0  0  1  0  0  3  0  0  0  0  0  0
  187.7150  178.9080  136.8670 C   0  0  0  0  0  2  0  0  0  0  0  0
  181.2600  173.9010  135.9520 C   0  0  2  0  0  0  0  0  0  0  0  0
  183.2940  176.6440  137.8310 C   0  0  2  0  0  3  0  0  0  0  0  0
  183.1740  174.1280  137.5700 N   0  0  1  0  0  0  0  0  0  0  0  0
  181.9410  175.2060  135.5930 C   0  0  0  0  0  2  0  0  0  0  0  0
  180.9010  173.1410  134.8400 O   0  0  0  0  0  1  0  0  0  0  0  0
  180.2500  175.2170  137.8920 C   0  0  0  0  0  2  0  0  0  0  0  0
  187.3140  176.6210  136.4010 C   0  0  2  0  0  3  0  0  0  0  0  0
  189.6220  174.4190  136.8220 C   0  0  0  0  0  2  0  0  0  0  0  0
  184.6440  174.0610  137.5870 C   0  0  0  0  0  2  0  0  0  0  0  0
  181.3430  175.2510  138.9410 C   0  0  0  0  0  2  0  0  0  0  0  0
  186.8050  175.2620  136.9070 C   0  0  1  0  0  3  0  0  0  0  0  0
  189.0540  178.3090  136.4430 C   0  0  0  0  0  2  0  0  0  0  0  0
  182.7610  175.3100  138.3650 C   0  0  2  0  0  3  0  0  0  0  0  0
  180.2890  173.8960  137.1370 C   0  0  0  0  0  2  0  0  0  0  0  0
  189.7010  175.9240  137.1390 C   0  0  1  0  0  3  0  0  0  0  0  0
  184.8130  176.5450  137.8320 C   0  0  1  0  0  3  0  0  0  0  0  0
  182.7650  174.0350  136.1440 C   0  0  2  0  0  3  0  0  0  0  0  0
  185.2710  175.3380  136.9930 C   0  0  2  0  0  3  0  0  0  0  0  0
  183.5560  178.8310  138.8280 C   0  0  0  0  0  3  0  0  0  0  0  0
  188.7190  174.0660  135.6380 C   0  0  0  0  0  2  0  0  0  0  0  0
  182.8460  177.7680  138.6330 N   0  0  0  0  0  0  0  0  0  0  0  0
  187.2270  174.1040  135.9900 C   0  0  0  0  0  2  0  0  0  0  0  0
  188.8180  176.8120  136.2240 C   0  0  1  0  0  3  0  0  0  0  0  0
  184.9840  178.9730  138.3430 C   0  0  0  0  0  2  0  0  0  0  0  0
  186.9180  177.7200  137.3510 C   0  0  2  0  0  3  0  0  0  0  0  0
  189.4400  176.1290  138.6270 C   0  0  0  0  0  2  0  0  0  0  0  0
  190.6540  176.7270  139.3120 C   0  0  0  0  0  2  0  0  0  0  0  0
  190.5140  177.7460  142.8570 N   0  0  0  0  0  0  0  0  0  0  0  0
  189.0780  177.4950  141.0060 N   0  0  0  0  0  0  0  0  0  0  0  0
  190.2760  177.1950  140.6730 C   0  0  0  0  0  0  0  0  0  0  0  0
  189.1160  177.8780  142.4140 C   0  0  0  0  0  3  0  0  0  0  0  0
  191.1540  177.3200  141.7160 O   0  0  0  0  0  0  0  0  0  0  0  0
  1 18  1  0  0  0  0
  1 26  1  1  0  0  0
  2 27  1  0  0  0  0
  3  7  1  6  0  0  0
  3 19  1  0  0  0  0
  3 16  1  0  0  0  0
  4 18  1  0  0  0  0
  4 15  1  0  0  0  0
  4 23  1  1  0  0  0
  5 11  1  6  0  0  0
  5 15  1  0  0  0  0
  6  3  1  0  0  0  0
  6 19  1  0  0  0  0
  8 12  1  0  0  0  0
  9 13  1  0  0  0  0
  9 27  1  0  0  0  0
 10 17  1  0  0  0  0
 13 20  1  0  0  0  0
 14  2  1  0  0  0  0
 15 12  1  0  0  0  0
 16  8  1  0  0  0  0
 17 28  1  0  0  0  0
 19  5  1  0  0  0  0
 20 11  1  0  0  0  0
 20 18  1  0  0  0  0
 22 24  1  0  0  0  0
 22 10  1  0  0  0  0
 23 21  2  0  0  0  0
 24 13  1  0  0  0  0
 25  9  1  0  0  0  0
 25 14  1  0  0  0  0
 25 17  1  0  0  0  0
 26 21  1  0  0  0  0
 27  1  1  0  0  0  0
 28 29  1  0  0  0  0
 29 32  1  0  0  0  0
 31 33  1  0  0  0  0
 32 31  2  0  0  0  0
 32 34  1  0  0  0  0
 33 30  2  0  0  0  0
 34 30  1  0  0  0  0
M  END
>  <MODEL>
9

>  <REMARK>
 VINA RESULT:      -6.0      3.244      9.098
  Name = 
  3 active torsions:
  status: ('A' for Active; 'I' for Inactive)
    1  A    between atoms: C_17  and  C_28
    2  A    between atoms: C_28  and  C_29
    3  A    between atoms: C_29  and  C_32
                            x       y       z     vdW  Elec       q    Type
                         _______ _______ _______ _____ _____    ______ ____

>  <TORSDO>
F 3

$$$$
