=
 OpenBabel11122412033D

 34 40  0  0  1  0  0  0  0  0999 V2000
  182.2150  178.7790  143.5330 C   0  0  0  0  0  0  0  0  0  0  0  0
  183.7740  178.8820  145.5380 C   0  0  0  0  0  2  0  0  0  0  0  0
  180.5670  176.9520  137.4790 C   0  0  0  0  0  0  0  0  0  0  0  0
  180.8650  178.3430  141.5820 C   0  0  0  0  0  0  0  0  0  0  0  0
  181.9880  178.1890  139.2610 C   0  0  2  0  0  3  0  0  0  0  0  0
  182.7710  177.9280  136.8960 C   0  0  0  0  0  1  0  0  0  0  0  0
  180.3810  175.8020  137.0040 O   0  0  0  0  0  0  0  0  0  0  0  0
  179.5860  179.2240  138.0420 C   0  0  0  0  0  2  0  0  0  0  0  0
  184.6750  179.3000  143.3350 C   0  0  2  0  0  3  0  0  0  0  0  0
  187.4000  177.6220  142.8350 C   0  0  0  0  0  3  0  0  0  0  0  0
  183.2250  177.8200  140.0750 C   0  0  0  0  0  2  0  0  0  0  0  0
  179.6600  179.1580  139.5680 C   0  0  0  0  0  2  0  0  0  0  0  0
  184.6470  178.4690  142.0420 C   0  0  1  0  0  3  0  0  0  0  0  0
  185.2660  179.1340  145.6770 C   0  0  0  0  0  2  0  0  0  0  0  0
  180.6830  178.1440  140.0950 C   0  0  2  0  0  3  0  0  0  0  0  0
  179.4850  177.8900  137.4690 N   0  0  0  0  0  2  0  0  0  0  0  0
  186.4900  177.6450  144.0370 C   0  0  2  0  0  3  0  0  0  0  0  0
  182.1260  178.6140  142.1420 C   0  0  0  0  0  0  0  0  0  0  0  0
  181.9380  177.3050  138.0020 C   0  0  2  0  0  3  0  0  0  0  0  0
  183.3500  178.7570  141.2680 C   0  0  2  0  0  3  0  0  0  0  0  0
  179.8990  178.3610  143.7480 C   0  0  0  0  0  3  0  0  0  0  0  0
  187.1120  178.0970  141.6110 C   0  0  0  0  0  3  0  0  0  0  0  0
  179.7870  178.2130  142.4020 N   0  0  0  0  0  0  0  0  0  0  0  0
  185.8630  178.8350  141.2040 C   0  0  0  0  0  2  0  0  0  0  0  0
  185.8640  179.0330  144.2700 C   0  0  1  0  0  3  0  0  0  0  0  0
  181.1050  178.6410  144.3050 N   0  0  0  0  0  0  0  0  0  0  0  0
  183.4890  179.0460  144.1290 N   0  0  0  0  0  0  0  0  0  0  0  0
  187.2160  177.2280  145.1560 O   0  0  0  0  0  0  0  0  0  0  0  0
  188.5280  177.0780  144.6980 C   0  0  0  0  0  2  0  0  0  0  0  0
  190.2050  176.3540  147.3980 O   0  0  0  0  0  0  0  0  0  0  0  0
  190.8950  177.3270  145.3620 C   0  0  0  0  0  2  0  0  0  0  0  0
  189.4900  177.7760  145.6420 C   0  0  2  0  0  3  0  0  0  0  0  0
  191.3450  176.7100  146.6650 C   0  0  0  0  0  2  0  0  0  0  0  0
  189.2360  177.3100  147.0570 C   0  0  0  0  0  2  0  0  0  0  0  0
  1 27  1  0  0  0  0
  1 26  1  0  0  0  0
  2 14  1  0  0  0  0
  3 19  1  0  0  0  0
  4 18  1  0  0  0  0
  4 23  2  0  0  0  0
  5 11  1  1  0  0  0
  5 15  1  0  0  0  0
  7  3  2  0  0  0  0
  8 12  1  0  0  0  0
  9 27  1  1  0  0  0
  9 25  1  0  0  0  0
 10 17  1  0  0  0  0
 13 24  1  6  0  0  0
 13  9  1  0  0  0  0
 15 12  1  6  0  0  0
 15  4  1  0  0  0  0
 16  3  1  0  0  0  0
 16  8  1  0  0  0  0
 17 25  1  0  0  0  0
 17 28  1  1  0  0  0
 18  1  2  0  0  0  0
 19  6  1  6  0  0  0
 19  5  1  0  0  0  0
 20 11  1  6  0  0  0
 20 13  1  0  0  0  0
 20 18  1  0  0  0  0
 21 26  2  0  0  0  0
 22 10  2  0  0  0  0
 23 21  1  0  0  0  0
 24 22  1  0  0  0  0
 25 14  1  1  0  0  0
 27  2  1  0  0  0  0
 29 28  1  0  0  0  0
 31 32  1  0  0  0  0
 31 33  1  0  0  0  0
 32 29  1  6  0  0  0
 32 34  1  0  0  0  0
 33 30  1  0  0  0  0
 34 30  1  0  0  0  0
M  END
>  <MODEL>
1

>  <REMARK>
 VINA RESULT:      -9.3      0.000      0.000
  Name = 
  3 active torsions:
  status: ('A' for Active; 'I' for Inactive)
    1  A    between atoms: C_17  and  O_28
    2  A    between atoms: O_28  and  C_29
    3  A    between atoms: C_29  and  C_32
                            x       y       z     vdW  Elec       q    Type
                         _______ _______ _______ _____ _____    ______ ____

>  <TORSDO>
F 3

$$$$
=
 OpenBabel11122412033D

 34 40  0  0  1  0  0  0  0  0999 V2000
  187.8430  177.9990  140.3980 C   0  0  0  0  0  0  0  0  0  0  0  0
  185.9190  178.2040  138.7500 C   0  0  0  0  0  2  0  0  0  0  0  0
  190.4330  176.6740  146.2500 C   0  0  0  0  0  0  0  0  0  0  0  0
  189.4880  177.5180  142.0950 C   0  0  0  0  0  0  0  0  0  0  0  0
  188.9270  177.9630  144.5780 C   0  0  2  0  0  3  0  0  0  0  0  0
  188.6790  178.2290  147.0560 C   0  0  0  0  0  1  0  0  0  0  0  0
  190.4790  175.5900  146.8860 O   0  0  0  0  0  0  0  0  0  0  0  0
  191.7090  178.5370  145.0910 C   0  0  0  0  0  2  0  0  0  0  0  0
  185.6620  179.1280  140.9680 C   0  0  2  0  0  3  0  0  0  0  0  0
  182.8380  178.2530  142.2930 C   0  0  0  0  0  3  0  0  0  0  0  0
  187.4870  177.8010  144.1040 C   0  0  0  0  0  2  0  0  0  0  0  0
  191.2710  178.2830  143.6490 C   0  0  0  0  0  2  0  0  0  0  0  0
  185.8150  178.5010  142.3640 C   0  0  1  0  0  3  0  0  0  0  0  0
  184.5210  178.7910  138.8590 C   0  0  0  0  0  2  0  0  0  0  0  0
  189.9640  177.4870  143.5300 C   0  0  2  0  0  3  0  0  0  0  0  0
  191.6600  177.3110  145.8740 N   0  0  0  0  0  2  0  0  0  0  0  0
  183.4290  177.8870  140.9550 C   0  0  2  0  0  3  0  0  0  0  0  0
  188.2170  178.0090  141.7510 C   0  0  0  0  0  0  0  0  0  0  0  0
  189.0830  177.2760  145.9460 C   0  0  2  0  0  3  0  0  0  0  0  0
  187.2860  178.5670  142.8030 C   0  0  2  0  0  3  0  0  0  0  0  0
  189.9060  177.0010  139.8190 C   0  0  0  0  0  3  0  0  0  0  0  0
  183.4950  178.8070  143.3270 C   0  0  0  0  0  3  0  0  0  0  0  0
  190.2940  177.0170  141.1210 N   0  0  0  0  0  0  0  0  0  0  0  0
  184.9300  179.2650  143.3390 C   0  0  0  0  0  2  0  0  0  0  0  0
  184.2590  179.0340  140.3490 C   0  0  1  0  0  3  0  0  0  0  0  0
  188.6900  177.4890  139.4650 N   0  0  0  0  0  0  0  0  0  0  0  0
  186.5500  178.4850  140.0210 N   0  0  0  0  0  0  0  0  0  0  0  0
  182.3910  177.5110  140.0960 O   0  0  0  0  0  0  0  0  0  0  0  0
  181.2230  177.9220  140.7430 C   0  0  0  0  0  2  0  0  0  0  0  0
  181.2900  180.7330  139.0940 O   0  0  0  0  0  0  0  0  0  0  0  0
  180.8580  178.5280  138.3750 C   0  0  0  0  0  2  0  0  0  0  0  0
  180.3300  178.6750  139.7720 C   0  0  2  0  0  3  0  0  0  0  0  0
  181.1440  179.9470  137.9440 C   0  0  0  0  0  2  0  0  0  0  0  0
  180.4310  180.1590  140.0430 C   0  0  0  0  0  2  0  0  0  0  0  0
  1 18  1  0  0  0  0
  2 14  1  0  0  0  0
  2 27  1  0  0  0  0
  3  7  2  0  0  0  0
  4 15  1  0  0  0  0
  5 11  1  6  0  0  0
  5 19  1  0  0  0  0
  8 16  1  0  0  0  0
  9 27  1  6  0  0  0
  9 13  1  0  0  0  0
 10 22  2  0  0  0  0
 12  8  1  0  0  0  0
 13 20  1  0  0  0  0
 13 24  1  1  0  0  0
 15 12  1  6  0  0  0
 15  5  1  0  0  0  0
 16  3  1  0  0  0  0
 17 28  1  6  0  0  0
 17 10  1  0  0  0  0
 18  4  2  0  0  0  0
 18 20  1  0  0  0  0
 19  3  1  0  0  0  0
 19  6  1  1  0  0  0
 20 11  1  1  0  0  0
 21 23  2  0  0  0  0
 22 24  1  0  0  0  0
 23  4  1  0  0  0  0
 25 14  1  6  0  0  0
 25 17  1  0  0  0  0
 25  9  1  0  0  0  0
 26 21  1  0  0  0  0
 26  1  2  0  0  0  0
 27  1  1  0  0  0  0
 28 29  1  0  0  0  0
 30 34  1  0  0  0  0
 31 32  1  0  0  0  0
 32 34  1  0  0  0  0
 32 29  1  1  0  0  0
 33 31  1  0  0  0  0
 33 30  1  0  0  0  0
M  END
>  <MODEL>
2

>  <REMARK>
 VINA RESULT:      -8.9      3.059      9.371
  Name = 
  3 active torsions:
  status: ('A' for Active; 'I' for Inactive)
    1  A    between atoms: C_17  and  O_28
    2  A    between atoms: O_28  and  C_29
    3  A    between atoms: C_29  and  C_32
                            x       y       z     vdW  Elec       q    Type
                         _______ _______ _______ _____ _____    ______ ____

>  <TORSDO>
F 3

$$$$
=
 OpenBabel11122412033D

 34 40  0  0  1  0  0  0  0  0999 V2000
  187.9260  177.9020  140.0970 C   0  0  0  0  0  0  0  0  0  0  0  0
  185.9960  178.0600  138.4510 C   0  0  0  0  0  2  0  0  0  0  0  0
  190.5400  176.7150  145.9680 C   0  0  0  0  0  0  0  0  0  0  0  0
  189.5780  177.4680  141.8000 C   0  0  0  0  0  0  0  0  0  0  0  0
  189.0200  177.9590  144.2740 C   0  0  2  0  0  3  0  0  0  0  0  0
  188.7750  178.2720  146.7470 C   0  0  0  0  0  1  0  0  0  0  0  0
  190.5960  175.6440  146.6260 O   0  0  0  0  0  0  0  0  0  0  0  0
  191.7990  178.5640  144.7690 C   0  0  0  0  0  2  0  0  0  0  0  0
  185.7370  179.0260  140.6500 C   0  0  2  0  0  3  0  0  0  0  0  0
  182.9230  178.1560  142.0000 C   0  0  0  0  0  3  0  0  0  0  0  0
  187.5790  177.7760  143.8070 C   0  0  0  0  0  2  0  0  0  0  0  0
  191.3590  178.2770  143.3330 C   0  0  0  0  0  2  0  0  0  0  0  0
  185.8980  178.4280  142.0580 C   0  0  1  0  0  3  0  0  0  0  0  0
  184.5940  178.6380  138.5510 C   0  0  0  0  0  2  0  0  0  0  0  0
  190.0580  177.4700  143.2330 C   0  0  2  0  0  3  0  0  0  0  0  0
  191.7600  177.3530  145.5760 N   0  0  0  0  0  2  0  0  0  0  0  0
  183.5140  177.7680  140.6680 C   0  0  2  0  0  3  0  0  0  0  0  0
  188.3020  177.9420  141.4490 C   0  0  0  0  0  0  0  0  0  0  0  0
  189.1840  177.3000  145.6550 C   0  0  2  0  0  3  0  0  0  0  0  0
  187.3700  178.5140  142.4920 C   0  0  2  0  0  3  0  0  0  0  0  0
  189.9950  176.9090  139.5330 C   0  0  0  0  0  3  0  0  0  0  0  0
  183.5780  178.7360  143.0210 C   0  0  0  0  0  3  0  0  0  0  0  0
  190.3860  176.9530  140.8340 N   0  0  0  0  0  0  0  0  0  0  0  0
  185.0100  179.2050  143.0190 C   0  0  0  0  0  2  0  0  0  0  0  0
  184.3340  178.9090  140.0360 C   0  0  1  0  0  3  0  0  0  0  0  0
  188.7740  177.3800  139.1720 N   0  0  0  0  0  0  0  0  0  0  0  0
  186.6290  178.3710  139.7140 N   0  0  0  0  0  0  0  0  0  0  0  0
  182.4770  177.3670  139.8190 O   0  0  0  0  0  0  0  0  0  0  0  0
  181.3540  178.0660  140.2680 C   0  0  0  0  0  2  0  0  0  0  0  0
  180.3260  174.9960  139.8900 O   0  0  0  0  0  0  0  0  0  0  0  0
  179.3580  176.8220  141.0270 C   0  0  0  0  0  2  0  0  0  0  0  0
  180.0880  177.3530  139.8270 C   0  0  2  0  0  3  0  0  0  0  0  0
  179.3070  175.3320  140.7900 C   0  0  0  0  0  2  0  0  0  0  0  0
  180.4550  176.1110  139.0470 C   0  0  0  0  0  2  0  0  0  0  0  0
  1 18  1  0  0  0  0
  2 14  1  0  0  0  0
  2 27  1  0  0  0  0
  3  7  2  0  0  0  0
  4 15  1  0  0  0  0
  5 11  1  6  0  0  0
  5 19  1  0  0  0  0
  8 16  1  0  0  0  0
  9 27  1  6  0  0  0
  9 13  1  0  0  0  0
 10 22  2  0  0  0  0
 12  8  1  0  0  0  0
 13 20  1  0  0  0  0
 13 24  1  1  0  0  0
 15 12  1  6  0  0  0
 15  5  1  0  0  0  0
 16  3  1  0  0  0  0
 17 28  1  6  0  0  0
 17 10  1  0  0  0  0
 18  4  2  0  0  0  0
 18 20  1  0  0  0  0
 19  3  1  0  0  0  0
 19  6  1  1  0  0  0
 20 11  1  1  0  0  0
 21 23  2  0  0  0  0
 23  4  1  0  0  0  0
 24 22  1  0  0  0  0
 25 14  1  6  0  0  0
 25  9  1  0  0  0  0
 25 17  1  0  0  0  0
 26 21  1  0  0  0  0
 26  1  2  0  0  0  0
 27  1  1  0  0  0  0
 28 29  1  0  0  0  0
 30 33  1  0  0  0  0
 32 29  1  1  0  0  0
 32 31  1  0  0  0  0
 33 31  1  0  0  0  0
 34 32  1  0  0  0  0
 34 30  1  0  0  0  0
M  END
>  <MODEL>
3

>  <REMARK>
 VINA RESULT:      -8.7      3.106      9.379
  Name = 
  3 active torsions:
  status: ('A' for Active; 'I' for Inactive)
    1  A    between atoms: C_17  and  O_28
    2  A    between atoms: O_28  and  C_29
    3  A    between atoms: C_29  and  C_32
                            x       y       z     vdW  Elec       q    Type
                         _______ _______ _______ _____ _____    ______ ____

>  <TORSDO>
F 3

$$$$
=
 OpenBabel11122412033D

 34 40  0  0  1  0  0  0  0  0999 V2000
  183.4360  178.6620  143.6030 C   0  0  0  0  0  0  0  0  0  0  0  0
  181.1330  179.2740  142.7170 C   0  0  0  0  0  2  0  0  0  0  0  0
  189.9610  178.4560  143.3150 C   0  0  0  0  0  0  0  0  0  0  0  0
  185.7310  178.3970  144.2960 C   0  0  0  0  0  0  0  0  0  0  0  0
  187.5500  177.9130  142.5280 C   0  0  2  0  0  3  0  0  0  0  0  0
  189.5420  177.4950  141.0680 C   0  0  0  0  0  1  0  0  0  0  0  0
  190.8000  179.3930  143.3160 O   0  0  0  0  0  0  0  0  0  0  0  0
  189.0370  176.4030  144.4870 C   0  0  0  0  0  2  0  0  0  0  0  0
  182.7340  178.2670  141.2130 C   0  0  2  0  0  3  0  0  0  0  0  0
  182.9080  179.8880  138.4130 C   0  0  0  0  0  3  0  0  0  0  0  0
  186.5660  178.5910  141.5790 C   0  0  0  0  0  2  0  0  0  0  0  0
  187.6550  176.9330  144.8700 C   0  0  0  0  0  2  0  0  0  0  0  0
  184.1690  178.6630  140.8290 C   0  0  1  0  0  3  0  0  0  0  0  0
  180.4930  179.1740  141.3420 C   0  0  0  0  0  2  0  0  0  0  0  0
  187.1910  178.1230  144.0200 C   0  0  2  0  0  3  0  0  0  0  0  0
  189.9970  177.4910  144.3730 N   0  0  0  0  0  2  0  0  0  0  0  0
  182.0790  180.1710  139.6410 C   0  0  2  0  0  3  0  0  0  0  0  0
  184.7720  178.3920  143.2680 C   0  0  0  0  0  0  0  0  0  0  0  0
  188.9770  178.3680  142.1740 C   0  0  2  0  0  3  0  0  0  0  0  0
  185.1600  178.0700  141.8440 C   0  0  2  0  0  3  0  0  0  0  0  0
  184.0470  178.9750  145.8640 C   0  0  0  0  0  3  0  0  0  0  0  0
  183.9530  179.0460  138.3370 C   0  0  0  0  0  3  0  0  0  0  0  0
  185.3440  178.7000  145.5650 N   0  0  0  0  0  0  0  0  0  0  0  0
  184.4590  178.1400  139.4290 C   0  0  0  0  0  2  0  0  0  0  0  0
  181.6220  178.8820  140.3490 C   0  0  1  0  0  3  0  0  0  0  0  0
  183.1040  178.9550  144.8880 N   0  0  0  0  0  0  0  0  0  0  0  0
  182.4410  178.6720  142.5730 N   0  0  0  0  0  0  0  0  0  0  0  0
  180.9820  180.9550  139.2690 O   0  0  0  0  0  0  0  0  0  0  0  0
  181.5050  181.9150  138.4000 C   0  0  0  0  0  2  0  0  0  0  0  0
  181.1870  184.2050  136.1020 O   0  0  0  0  0  0  0  0  0  0  0  0
  180.4850  181.9540  136.1490 C   0  0  0  0  0  2  0  0  0  0  0  0
  180.3950  182.5000  137.5440 C   0  0  2  0  0  3  0  0  0  0  0  0
  180.6820  183.1800  135.2910 C   0  0  0  0  0  2  0  0  0  0  0  0
  180.6230  183.9840  137.3680 C   0  0  0  0  0  2  0  0  0  0  0  0
  1 26  1  0  0  0  0
  3  7  2  0  0  0  0
  3 16  1  0  0  0  0
  4 23  2  0  0  0  0
  5 11  1  6  0  0  0
  5 15  1  0  0  0  0
  8 12  1  0  0  0  0
  9 27  1  1  0  0  0
 10 17  1  0  0  0  0
 13 24  1  6  0  0  0
 13  9  1  0  0  0  0
 13 20  1  0  0  0  0
 14  2  1  0  0  0  0
 15  4  1  0  0  0  0
 15 12  1  1  0  0  0
 16  8  1  0  0  0  0
 17 28  1  6  0  0  0
 17 25  1  0  0  0  0
 18  1  2  0  0  0  0
 18  4  1  0  0  0  0
 19  6  1  6  0  0  0
 19  5  1  0  0  0  0
 19  3  1  0  0  0  0
 20 11  1  6  0  0  0
 20 18  1  0  0  0  0
 22 10  2  0  0  0  0
 22 24  1  0  0  0  0
 23 21  1  0  0  0  0
 25  9  1  0  0  0  0
 25 14  1  1  0  0  0
 26 21  2  0  0  0  0
 27  2  1  0  0  0  0
 27  1  1  0  0  0  0
 29 28  1  0  0  0  0
 30 34  1  0  0  0  0
 31 32  1  0  0  0  0
 32 29  1  1  0  0  0
 33 30  1  0  0  0  0
 33 31  1  0  0  0  0
 34 32  1  0  0  0  0
M  END
>  <MODEL>
4

>  <REMARK>
 VINA RESULT:      -8.6      3.002      8.766
  Name = 
  3 active torsions:
  status: ('A' for Active; 'I' for Inactive)
    1  A    between atoms: C_17  and  O_28
    2  A    between atoms: O_28  and  C_29
    3  A    between atoms: C_29  and  C_32
                            x       y       z     vdW  Elec       q    Type
                         _______ _______ _______ _____ _____    ______ ____

>  <TORSDO>
F 3

$$$$
=
 OpenBabel11122412033D

 34 40  0  0  1  0  0  0  0  0999 V2000
  188.0580  177.8760  140.1700 C   0  0  0  0  0  0  0  0  0  0  0  0
  186.2000  178.0630  138.4450 C   0  0  0  0  0  2  0  0  0  0  0  0
  190.4090  176.6480  146.1420 C   0  0  0  0  0  0  0  0  0  0  0  0
  189.6310  177.4170  141.9390 C   0  0  0  0  0  0  0  0  0  0  0  0
  188.9800  177.9160  144.3880 C   0  0  2  0  0  3  0  0  0  0  0  0
  188.6380  178.2330  146.8490 C   0  0  0  0  0  1  0  0  0  0  0  0
  190.4210  175.5760  146.8010 O   0  0  0  0  0  0  0  0  0  0  0  0
  191.7440  178.4780  144.9980 C   0  0  0  0  0  2  0  0  0  0  0  0
  185.8650  179.0340  140.6330 C   0  0  2  0  0  3  0  0  0  0  0  0
  182.9850  178.2060  141.8650 C   0  0  0  0  0  3  0  0  0  0  0  0
  187.5570  177.7550  143.8620 C   0  0  0  0  0  2  0  0  0  0  0  0
  191.3600  178.1980  143.5450 C   0  0  0  0  0  2  0  0  0  0  0  0
  185.9590  178.4330  142.0460 C   0  0  1  0  0  3  0  0  0  0  0  0
  184.8040  178.6640  138.4880 C   0  0  0  0  0  2  0  0  0  0  0  0
  190.0520  177.4110  143.3910 C   0  0  2  0  0  3  0  0  0  0  0  0
  191.6540  177.2680  145.8020 N   0  0  0  0  0  2  0  0  0  0  0  0
  183.6240  177.8100  140.5580 C   0  0  2  0  0  3  0  0  0  0  0  0
  188.3780  177.9110  141.5360 C   0  0  0  0  0  0  0  0  0  0  0  0
  189.0760  177.2540  145.7750 C   0  0  2  0  0  3  0  0  0  0  0  0
  187.4130  178.4970  142.5400 C   0  0  2  0  0  3  0  0  0  0  0  0
  190.1320  176.8520  139.6910 C   0  0  0  0  0  3  0  0  0  0  0  0
  183.6060  178.7760  142.9130 C   0  0  0  0  0  3  0  0  0  0  0  0
  190.4710  176.8900  141.0070 N   0  0  0  0  0  0  0  0  0  0  0  0
  185.0440  179.2230  142.9710 C   0  0  0  0  0  2  0  0  0  0  0  0
  184.4870  178.9380  139.9620 C   0  0  1  0  0  3  0  0  0  0  0  0
  188.9350  177.3410  139.2800 N   0  0  0  0  0  0  0  0  0  0  0  0
  186.7840  178.3650  139.7340 N   0  0  0  0  0  0  0  0  0  0  0  0
  182.6170  177.4240  139.6670 O   0  0  0  0  0  0  0  0  0  0  0  0
  182.5290  176.0370  139.8050 C   0  0  0  0  0  2  0  0  0  0  0  0
  182.5830  176.9120  136.6650 O   0  0  0  0  0  0  0  0  0  0  0  0
  183.5290  175.0540  137.7690 C   0  0  0  0  0  2  0  0  0  0  0  0
  182.2400  175.3990  138.4560 C   0  0  2  0  0  3  0  0  0  0  0  0
  183.4810  175.8520  136.4880 C   0  0  0  0  0  2  0  0  0  0  0  0
  181.6030  176.4210  137.5420 C   0  0  0  0  0  2  0  0  0  0  0  0
  1 18  1  0  0  0  0
  2 14  1  0  0  0  0
  2 27  1  0  0  0  0
  3  7  2  0  0  0  0
  4 15  1  0  0  0  0
  5 11  1  6  0  0  0
  5 19  1  0  0  0  0
  8 16  1  0  0  0  0
  9 27  1  6  0  0  0
  9 13  1  0  0  0  0
 10 22  2  0  0  0  0
 12  8  1  0  0  0  0
 13 20  1  0  0  0  0
 13 24  1  1  0  0  0
 15 12  1  6  0  0  0
 15  5  1  0  0  0  0
 16  3  1  0  0  0  0
 17 28  1  6  0  0  0
 17 10  1  0  0  0  0
 18  4  2  0  0  0  0
 18 20  1  0  0  0  0
 19  3  1  0  0  0  0
 19  6  1  1  0  0  0
 20 11  1  1  0  0  0
 21 23  2  0  0  0  0
 22 24  1  0  0  0  0
 23  4  1  0  0  0  0
 25 14  1  6  0  0  0
 25 17  1  0  0  0  0
 25  9  1  0  0  0  0
 26 21  1  0  0  0  0
 26  1  2  0  0  0  0
 27  1  1  0  0  0  0
 28 29  1  0  0  0  0
 30 34  1  0  0  0  0
 31 32  1  0  0  0  0
 32 29  1  1  0  0  0
 33 30  1  0  0  0  0
 33 31  1  0  0  0  0
 34 32  1  0  0  0  0
M  END
>  <MODEL>
5

>  <REMARK>
 VINA RESULT:      -8.5      3.107      9.331
  Name = 
  3 active torsions:
  status: ('A' for Active; 'I' for Inactive)
    1  A    between atoms: C_17  and  O_28
    2  A    between atoms: O_28  and  C_29
    3  A    between atoms: C_29  and  C_32
                            x       y       z     vdW  Elec       q    Type
                         _______ _______ _______ _____ _____    ______ ____

>  <TORSDO>
F 3

$$$$
=
 OpenBabel11122412033D

 34 40  0  0  1  0  0  0  0  0999 V2000
  182.4160  178.8750  143.0620 C   0  0  0  0  0  0  0  0  0  0  0  0
  183.4310  179.0030  145.3890 C   0  0  0  0  0  2  0  0  0  0  0  0
  182.1840  176.7800  136.8770 C   0  0  0  0  0  0  0  0  0  0  0  0
  181.5620  178.4060  140.8560 C   0  0  0  0  0  0  0  0  0  0  0  0
  183.2110  178.0320  138.9030 C   0  0  2  0  0  3  0  0  0  0  0  0
  184.5330  177.5710  136.8260 C   0  0  0  0  0  1  0  0  0  0  0  0
  182.0320  175.6170  136.4230 O   0  0  0  0  0  0  0  0  0  0  0  0
  181.2760  179.1420  137.0720 C   0  0  0  0  0  2  0  0  0  0  0  0
  184.8800  179.2210  143.4690 C   0  0  2  0  0  3  0  0  0  0  0  0
  187.5040  177.3400  143.7480 C   0  0  0  0  0  3  0  0  0  0  0  0
  184.1740  177.6360  140.0180 C   0  0  0  0  0  2  0  0  0  0  0  0
  180.9630  179.1690  138.5680 C   0  0  0  0  0  2  0  0  0  0  0  0
  185.1090  178.3130  142.2490 C   0  0  1  0  0  3  0  0  0  0  0  0
  184.8570  179.1650  145.8890 C   0  0  0  0  0  2  0  0  0  0  0  0
  181.7400  178.1250  139.3810 C   0  0  2  0  0  3  0  0  0  0  0  0
  181.2150  177.7840  136.5520 N   0  0  0  0  0  2  0  0  0  0  0  0
  186.3280  177.4990  144.6790 C   0  0  2  0  0  3  0  0  0  0  0  0
  182.6620  178.6280  141.7030 C   0  0  0  0  0  0  0  0  0  0  0  0
  183.4060  177.0750  137.7130 C   0  0  2  0  0  3  0  0  0  0  0  0
  184.0730  178.6360  141.1610 C   0  0  2  0  0  3  0  0  0  0  0  0
  180.0940  178.6230  142.7050 C   0  0  0  0  0  3  0  0  0  0  0  0
  187.5670  177.7550  142.4710 C   0  0  0  0  0  3  0  0  0  0  0  0
  180.3070  178.3980  141.3820 N   0  0  0  0  0  0  0  0  0  0  0  0
  186.5210  178.5450  141.7290 C   0  0  0  0  0  2  0  0  0  0  0  0
  185.7750  178.9370  144.6850 C   0  0  1  0  0  3  0  0  0  0  0  0
  181.1410  178.8590  143.5350 N   0  0  0  0  0  0  0  0  0  0  0  0
  183.5190  179.0960  143.9490 N   0  0  0  0  0  0  0  0  0  0  0  0
  186.7180  177.1070  145.9630 O   0  0  0  0  0  0  0  0  0  0  0  0
  188.0930  177.3510  146.0110 C   0  0  0  0  0  2  0  0  0  0  0  0
  190.7470  177.8780  147.8300 O   0  0  0  0  0  0  0  0  0  0  0  0
  188.4550  177.9160  148.3900 C   0  0  0  0  0  2  0  0  0  0  0  0
  188.6610  176.8680  147.3340 C   0  0  2  0  0  3  0  0  0  0  0  0
  189.8560  178.2530  148.8430 C   0  0  0  0  0  2  0  0  0  0  0  0
  190.1640  176.7530  147.2260 C   0  0  0  0  0  2  0  0  0  0  0  0
  1 26  1  0  0  0  0
  1 27  1  0  0  0  0
  2 14  1  0  0  0  0
  3 19  1  0  0  0  0
  4 23  2  0  0  0  0
  4 18  1  0  0  0  0
  5 15  1  0  0  0  0
  5 11  1  1  0  0  0
  7  3  2  0  0  0  0
  8 12  1  0  0  0  0
  9 27  1  1  0  0  0
  9 25  1  0  0  0  0
 10 17  1  0  0  0  0
 13 24  1  6  0  0  0
 13  9  1  0  0  0  0
 15 12  1  6  0  0  0
 15  4  1  0  0  0  0
 16  3  1  0  0  0  0
 16  8  1  0  0  0  0
 17 25  1  0  0  0  0
 17 28  1  1  0  0  0
 18  1  2  0  0  0  0
 19  6  1  6  0  0  0
 19  5  1  0  0  0  0
 20 11  1  6  0  0  0
 20 18  1  0  0  0  0
 20 13  1  0  0  0  0
 21 26  2  0  0  0  0
 22 10  2  0  0  0  0
 23 21  1  0  0  0  0
 24 22  1  0  0  0  0
 25 14  1  1  0  0  0
 27  2  1  0  0  0  0
 28 29  1  0  0  0  0
 30 33  1  0  0  0  0
 31 33  1  0  0  0  0
 32 29  1  6  0  0  0
 32 31  1  0  0  0  0
 34 32  1  0  0  0  0
 34 30  1  0  0  0  0
M  END
>  <MODEL>
6

>  <REMARK>
 VINA RESULT:      -8.5      1.153      1.455
  Name = 
  3 active torsions:
  status: ('A' for Active; 'I' for Inactive)
    1  A    between atoms: C_17  and  O_28
    2  A    between atoms: O_28  and  C_29
    3  A    between atoms: C_29  and  C_32
                            x       y       z     vdW  Elec       q    Type
                         _______ _______ _______ _____ _____    ______ ____

>  <TORSDO>
F 3

$$$$
=
 OpenBabel11122412033D

 34 40  0  0  1  0  0  0  0  0999 V2000
  188.2880  177.6710  139.5640 C   0  0  0  0  0  0  0  0  0  0  0  0
  186.5310  177.6980  137.7270 C   0  0  0  0  0  2  0  0  0  0  0  0
  190.3210  176.8410  145.7190 C   0  0  0  0  0  0  0  0  0  0  0  0
  189.7690  177.3640  141.4430 C   0  0  0  0  0  0  0  0  0  0  0  0
  188.9550  177.9610  143.8200 C   0  0  2  0  0  3  0  0  0  0  0  0
  188.4560  178.3900  146.2370 C   0  0  0  0  0  1  0  0  0  0  0  0
  190.3320  175.8060  146.4330 O   0  0  0  0  0  0  0  0  0  0  0  0
  191.6560  178.6610  144.5580 C   0  0  0  0  0  2  0  0  0  0  0  0
  186.0320  178.7650  139.8380 C   0  0  2  0  0  3  0  0  0  0  0  0
  183.1150  177.8900  140.9430 C   0  0  0  0  0  3  0  0  0  0  0  0
  187.5720  177.7190  143.2220 C   0  0  0  0  0  2  0  0  0  0  0  0
  191.3690  178.2920  143.1020 C   0  0  0  0  0  2  0  0  0  0  0  0
  186.0630  178.2410  141.2830 C   0  0  1  0  0  3  0  0  0  0  0  0
  185.1150  178.2450  137.6580 C   0  0  0  0  0  2  0  0  0  0  0  0
  190.1020  177.4480  142.9150 C   0  0  2  0  0  3  0  0  0  0  0  0
  191.5620  177.4900  145.4180 N   0  0  0  0  0  2  0  0  0  0  0  0
  183.8440  177.4530  139.6980 C   0  0  2  0  0  3  0  0  0  0  0  0
  188.5260  177.7870  140.9420 C   0  0  0  0  0  0  0  0  0  0  0  0
  188.9920  177.3760  145.2430 C   0  0  2  0  0  3  0  0  0  0  0  0
  187.4820  178.3860  141.8570 C   0  0  2  0  0  3  0  0  0  0  0  0
  190.4230  176.7040  139.2610 C   0  0  0  0  0  3  0  0  0  0  0  0
  183.6520  178.5370  141.9930 C   0  0  0  0  0  3  0  0  0  0  0  0
  190.6810  176.8230  140.5900 N   0  0  0  0  0  0  0  0  0  0  0  0
  185.0670  179.0410  142.1100 C   0  0  0  0  0  2  0  0  0  0  0  0
  184.7000  178.5820  139.0940 C   0  0  1  0  0  3  0  0  0  0  0  0
  189.2360  177.1260  138.7560 N   0  0  0  0  0  0  0  0  0  0  0  0
  187.0270  178.0870  139.0290 N   0  0  0  0  0  0  0  0  0  0  0  0
  182.9070  176.9840  138.7730 O   0  0  0  0  0  0  0  0  0  0  0  0
  182.9990  175.5910  138.8430 C   0  0  0  0  0  2  0  0  0  0  0  0
  184.5650  173.0100  137.6120 O   0  0  0  0  0  0  0  0  0  0  0  0
  182.4120  173.8680  137.1710 C   0  0  0  0  0  2  0  0  0  0  0  0
  183.3220  175.0230  137.4720 C   0  0  2  0  0  3  0  0  0  0  0  0
  183.3550  172.7050  136.9760 C   0  0  0  0  0  2  0  0  0  0  0  0
  184.7000  174.4020  137.4950 C   0  0  0  0  0  2  0  0  0  0  0  0
  1 18  1  0  0  0  0
  2 27  1  0  0  0  0
  3  7  2  0  0  0  0
  4 15  1  0  0  0  0
  5 11  1  6  0  0  0
  5 19  1  0  0  0  0
  8 16  1  0  0  0  0
  9 27  1  6  0  0  0
  9 13  1  0  0  0  0
 10 22  2  0  0  0  0
 12  8  1  0  0  0  0
 13 20  1  0  0  0  0
 13 24  1  1  0  0  0
 14  2  1  0  0  0  0
 15 12  1  6  0  0  0
 15  5  1  0  0  0  0
 16  3  1  0  0  0  0
 17 28  1  6  0  0  0
 17 10  1  0  0  0  0
 18  4  2  0  0  0  0
 18 20  1  0  0  0  0
 19  3  1  0  0  0  0
 19  6  1  1  0  0  0
 20 11  1  1  0  0  0
 21 23  2  0  0  0  0
 22 24  1  0  0  0  0
 23  4  1  0  0  0  0
 25 14  1  6  0  0  0
 25 17  1  0  0  0  0
 25  9  1  0  0  0  0
 26 21  1  0  0  0  0
 26  1  2  0  0  0  0
 27  1  1  0  0  0  0
 28 29  1  0  0  0  0
 31 32  1  0  0  0  0
 32 34  1  0  0  0  0
 32 29  1  1  0  0  0
 33 31  1  0  0  0  0
 33 30  1  0  0  0  0
 34 30  1  0  0  0  0
M  END
>  <MODEL>
7

>  <REMARK>
 VINA RESULT:      -8.1      3.556      9.350
  Name = 
  3 active torsions:
  status: ('A' for Active; 'I' for Inactive)
    1  A    between atoms: C_17  and  O_28
    2  A    between atoms: O_28  and  C_29
    3  A    between atoms: C_29  and  C_32
                            x       y       z     vdW  Elec       q    Type
                         _______ _______ _______ _____ _____    ______ ____

>  <TORSDO>
F 3

$$$$
=
 OpenBabel11122412033D

 34 40  0  0  1  0  0  0  0  0999 V2000
  186.2890  178.2060  141.0480 C   0  0  0  0  0  0  0  0  0  0  0  0
  188.7190  177.8290  141.6950 C   0  0  0  0  0  2  0  0  0  0  0  0
  180.1450  180.1090  142.1980 C   0  0  0  0  0  0  0  0  0  0  0  0
  184.0030  178.8590  140.6450 C   0  0  0  0  0  0  0  0  0  0  0  0
  182.2630  178.6540  142.5430 C   0  0  2  0  0  3  0  0  0  0  0  0
  180.3630  178.6280  144.1740 C   0  0  0  0  0  1  0  0  0  0  0  0
  179.6900  181.2500  142.4690 O   0  0  0  0  0  0  0  0  0  0  0  0
  180.2030  178.1500  140.5850 C   0  0  0  0  0  2  0  0  0  0  0  0
  186.9800  177.1230  143.2190 C   0  0  2  0  0  3  0  0  0  0  0  0
  187.5910  178.1060  146.2450 C   0  0  0  0  0  3  0  0  0  0  0  0
  183.4890  178.7600  143.4450 C   0  0  0  0  0  2  0  0  0  0  0  0
  181.6520  178.2610  140.1080 C   0  0  0  0  0  2  0  0  0  0  0  0
  185.8070  177.8840  143.8580 C   0  0  1  0  0  3  0  0  0  0  0  0
  189.3820  177.2460  142.9330 C   0  0  0  0  0  2  0  0  0  0  0  0
  182.5630  179.0320  141.0710 C   0  0  2  0  0  3  0  0  0  0  0  0
  179.6960  179.4460  141.0100 N   0  0  0  0  0  2  0  0  0  0  0  0
  188.3740  178.3430  144.9790 C   0  0  2  0  0  3  0  0  0  0  0  0
  184.9720  178.3290  141.5150 C   0  0  0  0  0  0  0  0  0  0  0  0
  181.1160  179.4720  143.1620 C   0  0  2  0  0  3  0  0  0  0  0  0
  184.6000  177.8700  142.9060 C   0  0  2  0  0  3  0  0  0  0  0  0
  185.6630  179.1550  138.9770 C   0  0  0  0  0  3  0  0  0  0  0  0
  186.3250  177.6580  146.3250 C   0  0  0  0  0  3  0  0  0  0  0  0
  184.3770  179.2690  139.4020 N   0  0  0  0  0  0  0  0  0  0  0  0
  185.4550  177.2130  145.1780 C   0  0  0  0  0  2  0  0  0  0  0  0
  188.2970  177.1480  144.0100 C   0  0  1  0  0  3  0  0  0  0  0  0
  186.6080  178.6280  139.7960 N   0  0  0  0  0  0  0  0  0  0  0  0
  187.2970  177.6770  141.9170 N   0  0  0  0  0  0  0  0  0  0  0  0
  189.7000  178.6280  145.3200 O   0  0  0  0  0  0  0  0  0  0  0  0
  189.9590  177.8380  146.4430 C   0  0  0  0  0  2  0  0  0  0  0  0
  191.7610  175.3650  147.5670 O   0  0  0  0  0  0  0  0  0  0  0  0
  191.6800  176.3770  145.4380 C   0  0  0  0  0  2  0  0  0  0  0  0
  191.4240  177.4380  146.4690 C   0  0  2  0  0  3  0  0  0  0  0  0
  192.1870  175.2040  146.2420 C   0  0  0  0  0  2  0  0  0  0  0  0
  191.7360  176.7520  147.7790 C   0  0  0  0  0  2  0  0  0  0  0  0
  1 18  1  0  0  0  0
  1 27  1  0  0  0  0
  2 27  1  0  0  0  0
  2 14  1  0  0  0  0
  3  7  2  0  0  0  0
  3 19  1  0  0  0  0
  4 15  1  0  0  0  0
  4 18  2  0  0  0  0
  5 19  1  0  0  0  0
  5 11  1  1  0  0  0
  8 16  1  0  0  0  0
  9 27  1  6  0  0  0
  9 13  1  0  0  0  0
  9 25  1  0  0  0  0
 10 22  2  0  0  0  0
 12  8  1  0  0  0  0
 13 24  1  1  0  0  0
 15 12  1  6  0  0  0
 15  5  1  0  0  0  0
 16  3  1  0  0  0  0
 17 28  1  1  0  0  0
 17 10  1  0  0  0  0
 18 20  1  0  0  0  0
 19  6  1  1  0  0  0
 20 11  1  1  0  0  0
 20 13  1  0  0  0  0
 21 23  2  0  0  0  0
 21 26  1  0  0  0  0
 23  4  1  0  0  0  0
 24 22  1  0  0  0  0
 25 14  1  6  0  0  0
 25 17  1  0  0  0  0
 26  1  2  0  0  0  0
 28 29  1  0  0  0  0
 30 34  1  0  0  0  0
 31 33  1  0  0  0  0
 31 32  1  0  0  0  0
 32 29  1  1  0  0  0
 32 34  1  0  0  0  0
 33 30  1  0  0  0  0
M  END
>  <MODEL>
8

>  <REMARK>
 VINA RESULT:      -8.0      2.389      4.314
  Name = 
  3 active torsions:
  status: ('A' for Active; 'I' for Inactive)
    1  A    between atoms: C_17  and  O_28
    2  A    between atoms: O_28  and  C_29
    3  A    between atoms: C_29  and  C_32
                            x       y       z     vdW  Elec       q    Type
                         _______ _______ _______ _____ _____    ______ ____

>  <TORSDO>
F 3

$$$$
=
 OpenBabel11122412033D

 34 40  0  0  1  0  0  0  0  0999 V2000
  186.5770  178.0340  138.9260 C   0  0  0  0  0  0  0  0  0  0  0  0
  184.2070  178.4990  138.1350 C   0  0  0  0  0  2  0  0  0  0  0  0
  191.0230  176.1500  143.3300 C   0  0  0  0  0  0  0  0  0  0  0  0
  188.6800  177.3170  139.8630 C   0  0  0  0  0  0  0  0  0  0  0  0
  189.1380  177.6590  142.3820 C   0  0  2  0  0  3  0  0  0  0  0  0
  189.8640  177.7970  144.7760 C   0  0  0  0  0  1  0  0  0  0  0  0
  191.1950  175.0300  143.8760 O   0  0  0  0  0  0  0  0  0  0  0  0
  191.9520  177.9640  141.8180 C   0  0  0  0  0  2  0  0  0  0  0  0
  184.8930  179.3070  140.3060 C   0  0  2  0  0  3  0  0  0  0  0  0
  182.6990  178.5960  142.5810 C   0  0  0  0  0  3  0  0  0  0  0  0
  187.6160  177.6470  142.4850 C   0  0  0  0  0  2  0  0  0  0  0  0
  190.9820  177.8340  140.6430 C   0  0  0  0  0  2  0  0  0  0  0  0
  185.4940  178.5880  141.5250 C   0  0  1  0  0  3  0  0  0  0  0  0
  183.0180  179.1940  138.7780 C   0  0  0  0  0  2  0  0  0  0  0  0
  189.6540  177.1600  141.0090 C   0  0  2  0  0  3  0  0  0  0  0  0
  192.0760  176.7020  142.5320 N   0  0  0  0  0  2  0  0  0  0  0  0
  182.7050  178.2620  141.1100 C   0  0  2  0  0  3  0  0  0  0  0  0
  187.4290  177.9330  140.0370 C   0  0  0  0  0  0  0  0  0  0  0  0
  189.7250  176.8810  143.5740 C   0  0  2  0  0  3  0  0  0  0  0  0
  187.0210  178.5030  141.3760 C   0  0  2  0  0  3  0  0  0  0  0  0
  188.1610  176.9030  137.5870 C   0  0  0  0  0  3  0  0  0  0  0  0
  183.7470  179.0300  143.3020 C   0  0  0  0  0  3  0  0  0  0  0  0
  189.0090  176.8080  138.6450 N   0  0  0  0  0  0  0  0  0  0  0  0
  185.1210  179.3640  142.7800 C   0  0  0  0  0  2  0  0  0  0  0  0
  183.3590  179.3690  140.2620 C   0  0  1  0  0  3  0  0  0  0  0  0
  186.9560  177.5110  137.7300 N   0  0  0  0  0  0  0  0  0  0  0  0
  185.2930  178.6490  139.0780 N   0  0  0  0  0  0  0  0  0  0  0  0
  181.3900  178.0260  140.7000 O   0  0  0  0  0  0  0  0  0  0  0  0
  180.6150  178.2250  141.8450 C   0  0  0  0  0  2  0  0  0  0  0  0
  179.6660  181.3220  141.4750 O   0  0  0  0  0  0  0  0  0  0  0  0
  179.4130  179.4480  140.0650 C   0  0  0  0  0  2  0  0  0  0  0  0
  179.3430  178.9750  141.4870 C   0  0  2  0  0  3  0  0  0  0  0  0
  179.2970  180.9500  140.1760 C   0  0  0  0  0  2  0  0  0  0  0  0
  179.2680  180.2520  142.2910 C   0  0  0  0  0  2  0  0  0  0  0  0
  1 27  1  0  0  0  0
  1 18  1  0  0  0  0
  2 14  1  0  0  0  0
  2 27  1  0  0  0  0
  3 19  1  0  0  0  0
  3  7  2  0  0  0  0
  4 18  2  0  0  0  0
  4 15  1  0  0  0  0
  5 11  1  6  0  0  0
  5 19  1  0  0  0  0
  8 16  1  0  0  0  0
  9 27  1  6  0  0  0
  9 13  1  0  0  0  0
 10 22  2  0  0  0  0
 12  8  1  0  0  0  0
 13 24  1  1  0  0  0
 15 12  1  6  0  0  0
 15  5  1  0  0  0  0
 16  3  1  0  0  0  0
 17 28  1  6  0  0  0
 17 10  1  0  0  0  0
 18 20  1  0  0  0  0
 19  6  1  1  0  0  0
 20 13  1  0  0  0  0
 20 11  1  1  0  0  0
 21 26  1  0  0  0  0
 21 23  2  0  0  0  0
 23  4  1  0  0  0  0
 24 22  1  0  0  0  0
 25 14  1  6  0  0  0
 25  9  1  0  0  0  0
 25 17  1  0  0  0  0
 26  1  2  0  0  0  0
 28 29  1  0  0  0  0
 30 34  1  0  0  0  0
 31 33  1  0  0  0  0
 31 32  1  0  0  0  0
 32 29  1  1  0  0  0
 32 34  1  0  0  0  0
 33 30  1  0  0  0  0
M  END
>  <MODEL>
9

>  <REMARK>
 VINA RESULT:      -7.8      3.545      9.012
  Name = 
  3 active torsions:
  status: ('A' for Active; 'I' for Inactive)
    1  A    between atoms: C_17  and  O_28
    2  A    between atoms: O_28  and  C_29
    3  A    between atoms: C_29  and  C_32
                            x       y       z     vdW  Elec       q    Type
                         _______ _______ _______ _____ _____    ______ ____

>  <TORSDO>
F 3

$$$$
