=
 OpenBabel11122412293D

 34 38  0  0  1  0  0  0  0  0999 V2000
  182.9130  178.6810  143.3270 C   0  0  2  0  0  3  0  0  0  0  0  0
  184.0300  179.2860  145.3780 O   0  0  0  0  0  0  0  0  0  0  0  0
  181.8890  178.0510  141.1250 C   0  0  0  0  0  2  0  0  0  0  0  0
  185.3850  179.3020  143.4720 C   0  0  2  0  0  3  0  0  0  0  0  0
  188.1180  177.8820  143.5930 C   0  0  0  0  0  2  0  0  0  0  0  0
  185.4360  178.4150  142.2040 C   0  0  1  0  0  3  0  0  0  0  0  0
  184.9460  178.3380  145.5400 O   0  0  0  0  0  0  0  0  0  0  0  0
  186.9580  177.5090  144.5070 C   0  0  2  0  0  3  0  0  0  0  0  0
  182.9160  178.9400  141.8160 C   0  0  2  0  0  3  0  0  0  0  0  0
  184.3100  178.7450  141.1940 C   0  0  1  0  0  3  0  0  0  0  0  0
  180.4870  178.0900  143.2060 C   0  0  0  0  0  2  0  0  0  0  0  0
  187.7890  177.5060  142.1590 C   0  0  0  0  0  2  0  0  0  0  0  0
  180.4990  178.3240  141.6960 C   0  0  0  0  0  2  0  0  0  0  0  0
  186.8070  178.4850  141.5360 C   0  0  0  0  0  2  0  0  0  0  0  0
  186.0180  178.7030  144.7140 C   0  0  1  0  0  3  0  0  0  0  0  0
  181.5250  178.9780  143.8910 C   0  0  0  0  0  2  0  0  0  0  0  0
  183.9810  179.5490  144.0000 C   0  0  1  0  0  3  0  0  0  0  0  0
  184.6360  179.7410  140.2440 O   0  0  0  0  0  0  0  0  0  0  0  0
  184.2020  179.3200  138.9760 C   0  0  0  0  0  2  0  0  0  0  0  0
  186.3270  178.8120  138.0100 O   0  0  0  0  0  1  0  0  0  0  0  0
  185.1270  178.2420  138.4410 C   0  0  2  0  0  3  0  0  0  0  0  0
  184.4500  177.4880  137.2980 C   0  0  1  0  0  3  0  0  0  0  0  0
  185.2150  176.3810  136.9220 O   0  0  0  0  0  1  0  0  0  0  0  0
  183.0560  177.0300  137.6960 C   0  0  0  0  0  2  0  0  0  0  0  0
  183.1120  175.6620  138.3500 C   0  0  1  0  0  3  0  0  0  0  0  0
  181.8590  175.3810  138.9240 O   0  0  0  0  0  0  0  0  0  0  0  0
  182.1430  174.7540  137.6980 C   0  0  0  0  0  2  0  0  0  0  0  0
  187.5080  177.0520  145.8490 C   0  0  0  0  0  2  0  0  0  0  0  0
  189.0060  177.2980  145.9170 C   0  0  0  0  0  2  0  0  0  0  0  0
  189.5240  177.0460  147.3290 C   0  0  1  0  0  3  0  0  0  0  0  0
  191.6400  177.0940  146.1660 O   0  0  0  0  0  1  0  0  0  0  0  0
  191.0020  176.6660  147.3340 C   0  0  0  0  0  2  0  0  0  0  0  0
  189.2010  178.1820  148.3040 C   0  0  0  0  0  2  0  0  0  0  0  0
  187.8930  177.9670  149.0530 C   0  0  0  0  0  1  0  0  0  0  0  0
  1 16  1  1  0  0  0
  1 17  1  0  0  0  0
  2  7  1  0  0  0  0
  3 13  1  0  0  0  0
  3  9  1  0  0  0  0
  4 17  1  0  0  0  0
  4 15  1  0  0  0  0
  5  8  1  0  0  0  0
  6  4  1  0  0  0  0
  8 15  1  0  0  0  0
  8 28  1  0  0  0  0
  9  1  1  0  0  0  0
 10  9  1  0  0  0  0
 10  6  1  0  0  0  0
 11 16  1  0  0  0  0
 12  5  1  0  0  0  0
 13 11  1  0  0  0  0
 14 12  1  0  0  0  0
 14  6  1  0  0  0  0
 15  7  1  0  0  0  0
 17  2  1  0  0  0  0
 18 10  1  0  0  0  0
 19 18  1  0  0  0  0
 20 21  1  0  0  0  0
 21 19  1  0  0  0  0
 22 24  1  0  0  0  0
 22 21  1  0  0  0  0
 23 22  1  0  0  0  0
 24 25  1  0  0  0  0
 25 26  1  0  0  0  0
 27 25  1  0  0  0  0
 27 26  1  0  0  0  0
 28 29  1  0  0  0  0
 29 30  1  0  0  0  0
 30 32  1  0  0  0  0
 30 33  1  0  0  0  0
 31 32  1  0  0  0  0
 33 34  1  0  0  0  0
M  END
>  <MODEL>
1

>  <REMARK>
 VINA RESULT:      -8.1      0.000      0.000
  Name = 
  11 active torsions:
  status: ('A' for Active; 'I' for Inactive)
    1  A    between atoms: C_3  and  C_16
    2  A    between atoms: C_3  and  C_19
    3  A    between atoms: C_5  and  O_11
    4  A    between atoms: C_5  and  C_19
    5  A    between atoms: C_8  and  C_16
    6  A    between atoms: O_11  and  C_20
    7  A    between atoms: C_17  and  C_28
    8  A    between atoms: C_28  and  C_29
    9  A    between atoms: C_29  and  C_32
   10  A    between atoms: C_31  and  C_32
   11  A    between atoms: C_32  and  C_34
                            x       y       z     vdW  Elec       q    Type
                         _______ _______ _______ _____ _____    ______ ____

>  <TORSDO>
F 11

$$$$
=
 OpenBabel11122412293D

 34 38  0  0  1  0  0  0  0  0999 V2000
  182.7430  178.7000  143.1350 C   0  0  2  0  0  3  0  0  0  0  0  0
  183.7850  179.3380  145.2170 O   0  0  0  0  0  0  0  0  0  0  0  0
  181.8000  178.0400  140.9070 C   0  0  0  0  0  2  0  0  0  0  0  0
  185.1950  179.3810  143.3510 C   0  0  2  0  0  3  0  0  0  0  0  0
  187.9560  178.0260  143.5580 C   0  0  0  0  0  2  0  0  0  0  0  0
  185.3040  178.4910  142.0880 C   0  0  1  0  0  3  0  0  0  0  0  0
  184.7180  178.4120  145.4090 O   0  0  0  0  0  0  0  0  0  0  0  0
  186.7790  177.6290  144.4390 C   0  0  2  0  0  3  0  0  0  0  0  0
  182.7850  178.9550  141.6250 C   0  0  2  0  0  3  0  0  0  0  0  0
  184.2000  178.7920  141.0450 C   0  0  1  0  0  3  0  0  0  0  0  0
  180.3370  178.0520  142.9460 C   0  0  0  0  0  2  0  0  0  0  0  0
  187.6780  177.6380  142.1160 C   0  0  0  0  0  2  0  0  0  0  0  0
  180.3880  178.2810  141.4360 C   0  0  0  0  0  2  0  0  0  0  0  0
  186.6920  178.5920  141.4610 C   0  0  0  0  0  2  0  0  0  0  0  0
  185.8040  178.8000  144.6140 C   0  0  1  0  0  3  0  0  0  0  0  0
  181.3330  178.9660  143.6570 C   0  0  0  0  0  2  0  0  0  0  0  0
  183.7710  179.5960  143.8370 C   0  0  1  0  0  3  0  0  0  0  0  0
  184.5310  179.7920  140.1010 O   0  0  0  0  0  0  0  0  0  0  0  0
  184.1160  179.3720  138.8270 C   0  0  0  0  0  2  0  0  0  0  0  0
  186.1870  178.6830  137.8570 O   0  0  0  0  0  1  0  0  0  0  0  0
  184.9720  178.2100  138.3580 C   0  0  2  0  0  3  0  0  0  0  0  0
  184.2290  177.4060  137.2930 C   0  0  1  0  0  3  0  0  0  0  0  0
  185.0050  177.2930  136.1360 O   0  0  0  0  0  1  0  0  0  0  0  0
  183.8730  176.0180  137.8030 C   0  0  0  0  0  2  0  0  0  0  0  0
  184.4460  174.9520  136.8880 C   0  0  1  0  0  3  0  0  0  0  0  0
  185.6230  174.4430  137.4650 O   0  0  0  0  0  0  0  0  0  0  0  0
  184.4690  173.6500  137.5880 C   0  0  0  0  0  2  0  0  0  0  0  0
  187.2990  177.1890  145.7980 C   0  0  0  0  0  2  0  0  0  0  0  0
  188.8170  177.1170  145.7840 C   0  0  0  0  0  2  0  0  0  0  0  0
  189.3780  177.4210  147.1690 C   0  0  1  0  0  3  0  0  0  0  0  0
  188.0570  178.2680  149.0050 O   0  0  0  0  0  1  0  0  0  0  0  0
  188.3670  177.1190  148.2710 C   0  0  0  0  0  2  0  0  0  0  0  0
  190.7440  176.7760  147.4240 C   0  0  0  0  0  2  0  0  0  0  0  0
  191.5620  176.5980  146.1530 C   0  0  0  0  0  1  0  0  0  0  0  0
  1 16  1  1  0  0  0
  1 17  1  0  0  0  0
  2  7  1  0  0  0  0
  3 13  1  0  0  0  0
  3  9  1  0  0  0  0
  4 17  1  0  0  0  0
  4 15  1  0  0  0  0
  5  8  1  0  0  0  0
  6  4  1  0  0  0  0
  8 15  1  0  0  0  0
  8 28  1  0  0  0  0
  9  1  1  0  0  0  0
 10  9  1  0  0  0  0
 10  6  1  0  0  0  0
 11 16  1  0  0  0  0
 12  5  1  0  0  0  0
 13 11  1  0  0  0  0
 14  6  1  0  0  0  0
 14 12  1  0  0  0  0
 15  7  1  0  0  0  0
 17  2  1  0  0  0  0
 18 10  1  0  0  0  0
 19 18  1  0  0  0  0
 20 21  1  0  0  0  0
 21 19  1  0  0  0  0
 22 24  1  0  0  0  0
 22 21  1  0  0  0  0
 23 22  1  0  0  0  0
 25 26  1  0  0  0  0
 25 27  1  0  0  0  0
 25 24  1  0  0  0  0
 26 27  1  0  0  0  0
 29 28  1  0  0  0  0
 29 30  1  0  0  0  0
 30 33  1  0  0  0  0
 30 32  1  0  0  0  0
 32 31  1  0  0  0  0
 34 33  1  0  0  0  0
M  END
>  <MODEL>
2

>  <REMARK>
 VINA RESULT:      -7.9      1.252      1.647
  Name = 
  11 active torsions:
  status: ('A' for Active; 'I' for Inactive)
    1  A    between atoms: C_3  and  C_16
    2  A    between atoms: C_3  and  C_19
    3  A    between atoms: C_5  and  O_11
    4  A    between atoms: C_5  and  C_19
    5  A    between atoms: C_8  and  C_16
    6  A    between atoms: O_11  and  C_20
    7  A    between atoms: C_17  and  C_28
    8  A    between atoms: C_28  and  C_29
    9  A    between atoms: C_29  and  C_32
   10  A    between atoms: C_31  and  C_32
   11  A    between atoms: C_32  and  C_34
                            x       y       z     vdW  Elec       q    Type
                         _______ _______ _______ _____ _____    ______ ____

>  <TORSDO>
F 11

$$$$
=
 OpenBabel11122412293D

 34 38  0  0  1  0  0  0  0  0999 V2000
  187.3530  177.5640  138.8360 C   0  0  2  0  0  3  0  0  0  0  0  0
  186.5520  178.9500  140.6410 O   0  0  0  0  0  0  0  0  0  0  0  0
  188.3090  176.0880  137.0460 C   0  0  0  0  0  2  0  0  0  0  0  0
  188.7210  178.1190  140.9190 C   0  0  2  0  0  3  0  0  0  0  0  0
  189.4640  176.8100  143.6080 C   0  0  0  0  0  2  0  0  0  0  0  0
  189.3950  176.7770  140.5420 C   0  0  1  0  0  3  0  0  0  0  0  0
  186.5280  178.1350  141.6890 O   0  0  0  0  0  0  0  0  0  0  0  0
  188.0290  176.8920  143.1040 C   0  0  2  0  0  3  0  0  0  0  0  0
  188.6260  177.1580  138.0840 C   0  0  2  0  0  3  0  0  0  0  0  0
  189.7370  176.6790  139.0350 C   0  0  1  0  0  3  0  0  0  0  0  0
  186.0020  177.0450  136.7980 C   0  0  0  0  0  2  0  0  0  0  0  0
  190.2700  175.8700  142.7280 C   0  0  0  0  0  2  0  0  0  0  0  0
  187.2690  176.6160  136.0600 C   0  0  0  0  0  2  0  0  0  0  0  0
  190.6300  176.5200  141.4010 C   0  0  0  0  0  2  0  0  0  0  0  0
  187.8480  178.0860  142.1590 C   0  0  1  0  0  3  0  0  0  0  0  0
  186.3290  178.1100  137.8430 C   0  0  0  0  0  2  0  0  0  0  0  0
  187.6980  178.6060  139.9050 C   0  0  1  0  0  3  0  0  0  0  0  0
  191.0160  177.1690  138.6830 O   0  0  0  0  0  0  0  0  0  0  0  0
  191.5940  176.2990  137.7440 C   0  0  0  0  0  2  0  0  0  0  0  0
  193.6350  177.1220  138.6740 O   0  0  0  0  0  1  0  0  0  0  0  0
  193.0260  175.9850  138.1380 C   0  0  2  0  0  3  0  0  0  0  0  0
  193.8060  175.4780  136.9250 C   0  0  1  0  0  3  0  0  0  0  0  0
  194.8780  176.3290  136.6450 O   0  0  0  0  0  1  0  0  0  0  0  0
  194.3220  174.0680  137.1570 C   0  0  0  0  0  2  0  0  0  0  0  0
  195.5050  174.0840  138.1080 C   0  0  1  0  0  3  0  0  0  0  0  0
  195.3840  173.0050  139.0020 O   0  0  0  0  0  0  0  0  0  0  0  0
  196.2970  172.8460  137.9440 C   0  0  0  0  0  2  0  0  0  0  0  0
  187.0910  177.0320  144.2930 C   0  0  0  0  0  2  0  0  0  0  0  0
  187.8320  177.6130  145.4850 C   0  0  0  0  0  2  0  0  0  0  0  0
  186.9170  178.5330  146.2850 C   0  0  1  0  0  3  0  0  0  0  0  0
  184.5650  178.4820  146.8340 O   0  0  0  0  0  1  0  0  0  0  0  0
  185.4780  178.4870  145.7760 C   0  0  0  0  0  2  0  0  0  0  0  0
  187.0160  178.3210  147.7980 C   0  0  0  0  0  2  0  0  0  0  0  0
  188.2460  177.5210  148.2050 C   0  0  0  0  0  1  0  0  0  0  0  0
  1 16  1  6  0  0  0
  1 17  1  0  0  0  0
  2  7  1  0  0  0  0
  3  9  1  0  0  0  0
  4 15  1  0  0  0  0
  6  4  1  0  0  0  0
  6 14  1  0  0  0  0
  7 15  1  0  0  0  0
  8  5  1  0  0  0  0
  8 28  1  0  0  0  0
  9  1  1  0  0  0  0
  9 10  1  0  0  0  0
 10  6  1  0  0  0  0
 11 16  1  0  0  0  0
 12  5  1  0  0  0  0
 13 11  1  0  0  0  0
 13  3  1  0  0  0  0
 14 12  1  0  0  0  0
 15  8  1  0  0  0  0
 17  2  1  0  0  0  0
 17  4  1  0  0  0  0
 18 10  1  0  0  0  0
 19 21  1  0  0  0  0
 19 18  1  0  0  0  0
 21 20  1  0  0  0  0
 22 24  1  0  0  0  0
 22 21  1  0  0  0  0
 23 22  1  0  0  0  0
 24 25  1  0  0  0  0
 25 26  1  0  0  0  0
 27 25  1  0  0  0  0
 27 26  1  0  0  0  0
 28 29  1  0  0  0  0
 29 30  1  0  0  0  0
 30 33  1  0  0  0  0
 32 30  1  0  0  0  0
 32 31  1  0  0  0  0
 33 34  1  0  0  0  0
M  END
>  <MODEL>
3

>  <REMARK>
 VINA RESULT:      -7.6      4.840      7.246
  Name = 
  11 active torsions:
  status: ('A' for Active; 'I' for Inactive)
    1  A    between atoms: C_3  and  C_16
    2  A    between atoms: C_3  and  C_19
    3  A    between atoms: C_5  and  O_11
    4  A    between atoms: C_5  and  C_19
    5  A    between atoms: C_8  and  C_16
    6  A    between atoms: O_11  and  C_20
    7  A    between atoms: C_17  and  C_28
    8  A    between atoms: C_28  and  C_29
    9  A    between atoms: C_29  and  C_32
   10  A    between atoms: C_31  and  C_32
   11  A    between atoms: C_32  and  C_34
                            x       y       z     vdW  Elec       q    Type
                         _______ _______ _______ _____ _____    ______ ____

>  <TORSDO>
F 11

$$$$
=
 OpenBabel11122412293D

 34 38  0  0  1  0  0  0  0  0999 V2000
  188.2120  176.8650  138.3170 C   0  0  2  0  0  3  0  0  0  0  0  0
  187.0050  178.6540  139.3970 O   0  0  0  0  0  0  0  0  0  0  0  0
  189.5720  175.0150  137.3060 C   0  0  0  0  0  2  0  0  0  0  0  0
  189.1240  178.2130  140.2840 C   0  0  2  0  0  3  0  0  0  0  0  0
  189.4140  177.9300  143.3390 C   0  0  0  0  0  2  0  0  0  0  0  0
  189.9320  176.9090  140.4930 C   0  0  1  0  0  3  0  0  0  0  0  0
  186.8280  178.2200  140.6400 O   0  0  0  0  0  0  0  0  0  0  0  0
  188.1000  177.6790  142.6130 C   0  0  2  0  0  3  0  0  0  0  0  0
  189.6250  176.3910  137.9610 C   0  0  2  0  0  3  0  0  0  0  0  0
  190.5590  176.3740  139.1830 C   0  0  1  0  0  3  0  0  0  0  0  0
  187.3040  175.5680  136.3820 C   0  0  0  0  0  2  0  0  0  0  0  0
  190.4240  176.8570  142.9670 C   0  0  0  0  0  2  0  0  0  0  0  0
  188.7110  175.0750  136.0460 C   0  0  0  0  0  2  0  0  0  0  0  0
  190.9940  177.0850  141.5760 C   0  0  0  0  0  2  0  0  0  0  0  0
  188.0340  178.4780  141.3050 C   0  0  1  0  0  3  0  0  0  0  0  0
  187.3660  176.9420  137.0470 C   0  0  0  0  0  2  0  0  0  0  0  0
  188.2880  178.2270  139.0150 C   0  0  1  0  0  3  0  0  0  0  0  0
  191.8530  176.8700  138.8970 O   0  0  0  0  0  0  0  0  0  0  0  0
  192.2200  176.4680  137.6030 C   0  0  0  0  0  2  0  0  0  0  0  0
  194.2670  176.0050  138.7450 O   0  0  0  0  0  1  0  0  0  0  0  0
  193.4780  175.6200  137.6590 C   0  0  2  0  0  3  0  0  0  0  0  0
  194.2600  175.7540  136.3530 C   0  0  1  0  0  3  0  0  0  0  0  0
  194.6180  177.0870  136.1330 O   0  0  0  0  0  1  0  0  0  0  0  0
  195.5100  174.8890  136.3720 C   0  0  0  0  0  2  0  0  0  0  0  0
  196.6260  175.5500  135.5850 C   0  0  1  0  0  3  0  0  0  0  0  0
  197.6120  175.9980  136.4830 O   0  0  0  0  0  0  0  0  0  0  0  0
  197.8890  174.8090  135.7870 C   0  0  0  0  0  2  0  0  0  0  0  0
  186.9460  178.0820  143.5180 C   0  0  0  0  0  2  0  0  0  0  0  0
  186.8570  177.1440  144.7100 C   0  0  0  0  0  2  0  0  0  0  0  0
  186.9620  177.9280  146.0140 C   0  0  1  0  0  3  0  0  0  0  0  0
  185.0440  179.3870  146.1770 O   0  0  0  0  0  1  0  0  0  0  0  0
  185.5920  178.1850  146.6350 C   0  0  0  0  0  2  0  0  0  0  0  0
  187.9580  177.3220  147.0060 C   0  0  0  0  0  2  0  0  0  0  0  0
  188.1860  178.2000  148.2280 C   0  0  0  0  0  1  0  0  0  0  0  0
  1 16  1  6  0  0  0
  1 17  1  0  0  0  0
  2  7  1  0  0  0  0
  3  9  1  0  0  0  0
  4  6  1  0  0  0  0
  4 15  1  0  0  0  0
  6 14  1  0  0  0  0
  7 15  1  0  0  0  0
  8  5  1  0  0  0  0
  8 28  1  0  0  0  0
  9  1  1  0  0  0  0
  9 10  1  0  0  0  0
 10  6  1  0  0  0  0
 11 16  1  0  0  0  0
 12  5  1  0  0  0  0
 13 11  1  0  0  0  0
 13  3  1  0  0  0  0
 14 12  1  0  0  0  0
 15  8  1  0  0  0  0
 17  2  1  0  0  0  0
 17  4  1  0  0  0  0
 18 10  1  0  0  0  0
 19 21  1  0  0  0  0
 19 18  1  0  0  0  0
 21 20  1  0  0  0  0
 22 24  1  0  0  0  0
 22 21  1  0  0  0  0
 23 22  1  0  0  0  0
 25 27  1  0  0  0  0
 25 24  1  0  0  0  0
 25 26  1  0  0  0  0
 27 26  1  0  0  0  0
 28 29  1  0  0  0  0
 29 30  1  0  0  0  0
 30 32  1  0  0  0  0
 30 33  1  0  0  0  0
 31 32  1  0  0  0  0
 33 34  1  0  0  0  0
M  END
>  <MODEL>
4

>  <REMARK>
 VINA RESULT:      -7.5      5.554      8.058
  Name = 
  11 active torsions:
  status: ('A' for Active; 'I' for Inactive)
    1  A    between atoms: C_3  and  C_16
    2  A    between atoms: C_3  and  C_19
    3  A    between atoms: C_5  and  O_11
    4  A    between atoms: C_5  and  C_19
    5  A    between atoms: C_8  and  C_16
    6  A    between atoms: O_11  and  C_20
    7  A    between atoms: C_17  and  C_28
    8  A    between atoms: C_28  and  C_29
    9  A    between atoms: C_29  and  C_32
   10  A    between atoms: C_31  and  C_32
   11  A    between atoms: C_32  and  C_34
                            x       y       z     vdW  Elec       q    Type
                         _______ _______ _______ _____ _____    ______ ____

>  <TORSDO>
F 11

$$$$
=
 OpenBabel11122412293D

 34 38  0  0  1  0  0  0  0  0999 V2000
  188.7020  177.7150  144.6500 C   0  0  2  0  0  3  0  0  0  0  0  0
  186.5400  177.1340  145.5510 O   0  0  0  0  0  0  0  0  0  0  0  0
  190.8820  178.3360  143.5760 C   0  0  0  0  0  2  0  0  0  0  0  0
  186.6250  177.3120  143.2200 C   0  0  2  0  0  3  0  0  0  0  0  0
  184.4540  178.9640  141.7870 C   0  0  0  0  0  2  0  0  0  0  0  0
  187.3990  178.2480  142.2600 C   0  0  1  0  0  3  0  0  0  0  0  0
  185.7610  178.1530  145.2070 O   0  0  0  0  0  0  0  0  0  0  0  0
  184.8340  179.1970  143.2430 C   0  0  2  0  0  3  0  0  0  0  0  0
  189.6060  177.5150  143.4290 C   0  0  2  0  0  3  0  0  0  0  0  0
  188.8890  177.8580  142.1120 C   0  0  1  0  0  3  0  0  0  0  0  0
  190.7250  178.0910  146.0700 C   0  0  0  0  0  2  0  0  0  0  0  0
  185.6050  179.3650  140.8810 C   0  0  0  0  0  2  0  0  0  0  0  0
  191.6230  177.9180  144.8450 C   0  0  0  0  0  2  0  0  0  0  0  0
  186.7150  178.3260  140.8970 C   0  0  0  0  0  2  0  0  0  0  0  0
  185.3970  177.9170  143.8740 C   0  0  1  0  0  3  0  0  0  0  0  0
  189.4440  177.2740  145.9100 C   0  0  0  0  0  2  0  0  0  0  0  0
  187.4050  176.9200  144.4650 C   0  0  1  0  0  3  0  0  0  0  0  0
  189.1620  176.9320  141.0770 O   0  0  0  0  0  0  0  0  0  0  0  0
  190.0920  177.5000  140.1910 C   0  0  0  0  0  2  0  0  0  0  0  0
  191.8050  176.3050  139.0330 O   0  0  0  0  0  1  0  0  0  0  0  0
  190.4260  176.5150  139.0850 C   0  0  2  0  0  3  0  0  0  0  0  0
  189.9100  177.0360  137.7440 C   0  0  1  0  0  3  0  0  0  0  0  0
  189.3380  175.9970  137.0050 O   0  0  0  0  0  1  0  0  0  0  0  0
  188.8860  178.1410  137.9430 C   0  0  0  0  0  2  0  0  0  0  0  0
  187.5430  177.7330  137.3670 C   0  0  1  0  0  3  0  0  0  0  0  0
  186.6330  178.7900  137.5420 O   0  0  0  0  0  0  0  0  0  0  0  0
  187.1780  178.6370  136.2560 C   0  0  0  0  0  2  0  0  0  0  0  0
  183.6040  179.6490  144.0140 C   0  0  0  0  0  2  0  0  0  0  0  0
  182.5640  178.5420  144.0450 C   0  0  0  0  0  2  0  0  0  0  0  0
  181.2350  179.0430  143.4890 C   0  0  1  0  0  3  0  0  0  0  0  0
  180.5990  180.1500  141.4390 O   0  0  0  0  0  1  0  0  0  0  0  0
  181.2070  179.0060  141.9630 C   0  0  0  0  0  2  0  0  0  0  0  0
  180.0180  178.3600  144.1210 C   0  0  0  0  0  2  0  0  0  0  0  0
  178.9310  179.3450  144.5260 C   0  0  0  0  0  1  0  0  0  0  0  0
  1 16  1  1  0  0  0
  3 13  1  0  0  0  0
  4 15  1  0  0  0  0
  4 17  1  0  0  0  0
  5  8  1  0  0  0  0
  6  4  1  0  0  0  0
  7  2  1  0  0  0  0
  8 15  1  0  0  0  0
  8 28  1  0  0  0  0
  9  3  1  0  0  0  0
  9  1  1  0  0  0  0
 10  6  1  0  0  0  0
 10  9  1  0  0  0  0
 12 14  1  0  0  0  0
 12  5  1  0  0  0  0
 13 11  1  0  0  0  0
 14  6  1  0  0  0  0
 15  7  1  0  0  0  0
 16 11  1  0  0  0  0
 17  1  1  0  0  0  0
 17  2  1  0  0  0  0
 18 10  1  0  0  0  0
 19 18  1  0  0  0  0
 20 21  1  0  0  0  0
 21 19  1  0  0  0  0
 22 24  1  0  0  0  0
 22 21  1  0  0  0  0
 23 22  1  0  0  0  0
 25 26  1  0  0  0  0
 25 24  1  0  0  0  0
 27 25  1  0  0  0  0
 27 26  1  0  0  0  0
 28 29  1  0  0  0  0
 30 29  1  0  0  0  0
 30 33  1  0  0  0  0
 31 32  1  0  0  0  0
 32 30  1  0  0  0  0
 33 34  1  0  0  0  0
M  END
>  <MODEL>
5

>  <REMARK>
 VINA RESULT:      -7.2      2.600      6.778
  Name = 
  11 active torsions:
  status: ('A' for Active; 'I' for Inactive)
    1  A    between atoms: C_3  and  C_16
    2  A    between atoms: C_3  and  C_19
    3  A    between atoms: C_5  and  O_11
    4  A    between atoms: C_5  and  C_19
    5  A    between atoms: C_8  and  C_16
    6  A    between atoms: O_11  and  C_20
    7  A    between atoms: C_17  and  C_28
    8  A    between atoms: C_28  and  C_29
    9  A    between atoms: C_29  and  C_32
   10  A    between atoms: C_31  and  C_32
   11  A    between atoms: C_32  and  C_34
                            x       y       z     vdW  Elec       q    Type
                         _______ _______ _______ _____ _____    ______ ____

>  <TORSDO>
F 11

$$$$
=
 OpenBabel11122412293D

 34 38  0  0  1  0  0  0  0  0999 V2000
  188.6000  176.8550  137.9500 C   0  0  2  0  0  3  0  0  0  0  0  0
  187.2900  178.6210  138.9450 O   0  0  0  0  0  0  0  0  0  0  0  0
  190.0530  175.0250  137.0370 C   0  0  0  0  0  2  0  0  0  0  0  0
  189.2980  178.1370  140.0450 C   0  0  2  0  0  3  0  0  0  0  0  0
  189.2500  177.7600  143.1030 C   0  0  0  0  0  2  0  0  0  0  0  0
  190.0710  176.8200  140.3010 C   0  0  1  0  0  3  0  0  0  0  0  0
  186.9760  178.1520  140.1480 O   0  0  0  0  0  0  0  0  0  0  0  0
  188.0220  177.5420  142.2300 C   0  0  2  0  0  3  0  0  0  0  0  0
  190.0410  176.3800  137.7360 C   0  0  2  0  0  3  0  0  0  0  0  0
  190.8360  176.3200  139.0520 C   0  0  1  0  0  3  0  0  0  0  0  0
  187.9030  175.6240  135.8890 C   0  0  0  0  0  2  0  0  0  0  0  0
  190.2900  176.6910  142.8120 C   0  0  0  0  0  2  0  0  0  0  0  0
  189.3350  175.1290  135.6930 C   0  0  0  0  0  2  0  0  0  0  0  0
  191.0090  176.9560  141.4990 C   0  0  0  0  0  2  0  0  0  0  0  0
  188.1040  178.3800  140.9490 C   0  0  1  0  0  3  0  0  0  0  0  0
  187.8990  176.9770  136.5980 C   0  0  0  0  0  2  0  0  0  0  0  0
  188.6050  178.1950  138.6930 C   0  0  1  0  0  3  0  0  0  0  0  0
  192.1560  176.8130  138.9250 O   0  0  0  0  0  0  0  0  0  0  0  0
  192.6500  176.4710  137.6560 C   0  0  0  0  0  2  0  0  0  0  0  0
  194.6490  175.6060  138.6370 O   0  0  0  0  0  1  0  0  0  0  0  0
  193.6010  175.2930  137.7680 C   0  0  2  0  0  3  0  0  0  0  0  0
  194.1410  174.9210  136.3880 C   0  0  1  0  0  3  0  0  0  0  0  0
  193.7790  175.8860  135.4450 O   0  0  0  0  0  1  0  0  0  0  0  0
  195.6550  174.7770  136.4130 C   0  0  0  0  0  2  0  0  0  0  0  0
  196.2950  175.7270  135.4180 C   0  0  1  0  0  3  0  0  0  0  0  0
  197.2880  176.4740  136.0770 O   0  0  0  0  0  0  0  0  0  0  0  0
  197.7320  175.4090  135.2740 C   0  0  0  0  0  2  0  0  0  0  0  0
  186.7780  177.9270  143.0150 C   0  0  0  0  0  2  0  0  0  0  0  0
  186.9350  177.5410  144.4770 C   0  0  0  0  0  2  0  0  0  0  0  0
  185.7500  178.0480  145.2920 C   0  0  1  0  0  3  0  0  0  0  0  0
  187.4790  178.0330  146.9770 O   0  0  0  0  0  1  0  0  0  0  0  0
  186.1430  178.3620  146.7330 C   0  0  0  0  0  2  0  0  0  0  0  0
  184.9990  179.2010  144.6180 C   0  0  0  0  0  2  0  0  0  0  0  0
  183.4870  179.0300  144.6640 C   0  0  0  0  0  1  0  0  0  0  0  0
  1 16  1  6  0  0  0
  1 17  1  0  0  0  0
  2  7  1  0  0  0  0
  3  9  1  0  0  0  0
  4  6  1  0  0  0  0
  4 15  1  0  0  0  0
  6 14  1  0  0  0  0
  7 15  1  0  0  0  0
  8 28  1  0  0  0  0
  8  5  1  0  0  0  0
  9  1  1  0  0  0  0
  9 10  1  0  0  0  0
 10  6  1  0  0  0  0
 11 16  1  0  0  0  0
 12  5  1  0  0  0  0
 13 11  1  0  0  0  0
 13  3  1  0  0  0  0
 14 12  1  0  0  0  0
 15  8  1  0  0  0  0
 17  2  1  0  0  0  0
 17  4  1  0  0  0  0
 18 10  1  0  0  0  0
 19 21  1  0  0  0  0
 19 18  1  0  0  0  0
 21 20  1  0  0  0  0
 22 24  1  0  0  0  0
 22 21  1  0  0  0  0
 23 22  1  0  0  0  0
 25 26  1  0  0  0  0
 25 24  1  0  0  0  0
 27 25  1  0  0  0  0
 27 26  1  0  0  0  0
 28 29  1  0  0  0  0
 29 30  1  0  0  0  0
 30 32  1  0  0  0  0
 32 31  1  0  0  0  0
 33 34  1  0  0  0  0
 33 30  1  0  0  0  0
M  END
>  <MODEL>
6

>  <REMARK>
 VINA RESULT:      -7.2      5.681      8.316
  Name = 
  11 active torsions:
  status: ('A' for Active; 'I' for Inactive)
    1  A    between atoms: C_3  and  C_16
    2  A    between atoms: C_3  and  C_19
    3  A    between atoms: C_5  and  O_11
    4  A    between atoms: C_5  and  C_19
    5  A    between atoms: C_8  and  C_16
    6  A    between atoms: O_11  and  C_20
    7  A    between atoms: C_17  and  C_28
    8  A    between atoms: C_28  and  C_29
    9  A    between atoms: C_29  and  C_32
   10  A    between atoms: C_31  and  C_32
   11  A    between atoms: C_32  and  C_34
                            x       y       z     vdW  Elec       q    Type
                         _______ _______ _______ _____ _____    ______ ____

>  <TORSDO>
F 11

$$$$
=
 OpenBabel11122412293D

 34 38  0  0  1  0  0  0  0  0999 V2000
  188.7610  177.6510  144.4630 C   0  0  2  0  0  3  0  0  0  0  0  0
  186.6060  177.0450  145.3670 O   0  0  0  0  0  0  0  0  0  0  0  0
  190.9320  178.2990  143.3870 C   0  0  0  0  0  2  0  0  0  0  0  0
  186.6720  177.2850  143.0410 C   0  0  2  0  0  3  0  0  0  0  0  0
  184.4880  178.9750  141.6710 C   0  0  0  0  0  2  0  0  0  0  0  0
  187.4370  178.2470  142.0990 C   0  0  1  0  0  3  0  0  0  0  0  0
  185.8250  178.0730  145.0560 O   0  0  0  0  0  0  0  0  0  0  0  0
  184.8810  179.1690  143.1290 C   0  0  2  0  0  3  0  0  0  0  0  0
  189.6540  177.4830  143.2290 C   0  0  2  0  0  3  0  0  0  0  0  0
  188.9260  177.8600  141.9270 C   0  0  1  0  0  3  0  0  0  0  0  0
  190.7960  177.9880  145.8740 C   0  0  0  0  0  2  0  0  0  0  0  0
  185.6320  179.4000  140.7650 C   0  0  0  0  0  2  0  0  0  0  0  0
  191.6830  177.8480  144.6380 C   0  0  0  0  0  2  0  0  0  0  0  0
  186.7420  178.3610  140.7440 C   0  0  0  0  0  2  0  0  0  0  0  0
  185.4490  177.8730  143.7210 C   0  0  1  0  0  3  0  0  0  0  0  0
  189.5130  177.1760  145.7040 C   0  0  0  0  0  2  0  0  0  0  0  0
  187.4620  176.8610  144.2680 C   0  0  1  0  0  3  0  0  0  0  0  0
  189.1900  176.9630  140.8660 O   0  0  0  0  0  0  0  0  0  0  0  0
  190.4270  177.2910  140.2880 C   0  0  0  0  0  2  0  0  0  0  0  0
  189.2270  177.7720  138.2780 O   0  0  0  0  0  1  0  0  0  0  0  0
  190.3580  177.1230  138.7810 C   0  0  2  0  0  3  0  0  0  0  0  0
  190.3310  175.6390  138.4180 C   0  0  1  0  0  3  0  0  0  0  0  0
  189.3450  175.3890  137.4600 O   0  0  0  0  0  1  0  0  0  0  0  0
  191.6800  175.1810  137.8890 C   0  0  0  0  0  2  0  0  0  0  0  0
  192.5390  176.3750  137.5150 C   0  0  1  0  0  3  0  0  0  0  0  0
  193.8520  176.1480  137.9630 O   0  0  0  0  0  0  0  0  0  0  0  0
  193.6130  175.9500  136.5930 C   0  0  0  0  0  2  0  0  0  0  0  0
  183.6580  179.6000  143.9220 C   0  0  0  0  0  2  0  0  0  0  0  0
  182.6120  178.4980  143.9200 C   0  0  0  0  0  2  0  0  0  0  0  0
  181.2840  179.0240  143.3870 C   0  0  1  0  0  3  0  0  0  0  0  0
  180.5340  177.9140  141.3780 O   0  0  0  0  0  1  0  0  0  0  0  0
  181.2410  179.0180  141.8610 C   0  0  0  0  0  2  0  0  0  0  0  0
  180.0650  178.3430  144.0170 C   0  0  0  0  0  2  0  0  0  0  0  0
  178.9310  179.3140  144.3140 C   0  0  0  0  0  1  0  0  0  0  0  0
  1 16  1  1  0  0  0
  3 13  1  0  0  0  0
  4 15  1  0  0  0  0
  4 17  1  0  0  0  0
  5  8  1  0  0  0  0
  6  4  1  0  0  0  0
  7  2  1  0  0  0  0
  8 15  1  0  0  0  0
  8 28  1  0  0  0  0
  9  3  1  0  0  0  0
  9  1  1  0  0  0  0
 10  6  1  0  0  0  0
 10  9  1  0  0  0  0
 12  5  1  0  0  0  0
 13 11  1  0  0  0  0
 14 12  1  0  0  0  0
 14  6  1  0  0  0  0
 15  7  1  0  0  0  0
 16 11  1  0  0  0  0
 17  1  1  0  0  0  0
 17  2  1  0  0  0  0
 18 10  1  0  0  0  0
 19 18  1  0  0  0  0
 20 21  1  0  0  0  0
 21 19  1  0  0  0  0
 22 21  1  0  0  0  0
 23 22  1  0  0  0  0
 24 22  1  0  0  0  0
 25 24  1  0  0  0  0
 25 26  1  0  0  0  0
 27 25  1  0  0  0  0
 27 26  1  0  0  0  0
 29 28  1  0  0  0  0
 30 29  1  0  0  0  0
 30 33  1  0  0  0  0
 31 32  1  0  0  0  0
 32 30  1  0  0  0  0
 33 34  1  0  0  0  0
M  END
>  <MODEL>
7

>  <REMARK>
 VINA RESULT:      -7.0      3.339      7.386
  Name = 
  11 active torsions:
  status: ('A' for Active; 'I' for Inactive)
    1  A    between atoms: C_3  and  C_16
    2  A    between atoms: C_3  and  C_19
    3  A    between atoms: C_5  and  O_11
    4  A    between atoms: C_5  and  C_19
    5  A    between atoms: C_8  and  C_16
    6  A    between atoms: O_11  and  C_20
    7  A    between atoms: C_17  and  C_28
    8  A    between atoms: C_28  and  C_29
    9  A    between atoms: C_29  and  C_32
   10  A    between atoms: C_31  and  C_32
   11  A    between atoms: C_32  and  C_34
                            x       y       z     vdW  Elec       q    Type
                         _______ _______ _______ _____ _____    ______ ____

>  <TORSDO>
F 11

$$$$
=
 OpenBabel11122412293D

 34 38  0  0  1  0  0  0  0  0999 V2000
  184.6070  178.0880  139.5270 C   0  0  2  0  0  3  0  0  0  0  0  0
  184.4590  178.9290  141.7840 O   0  0  0  0  0  0  0  0  0  0  0  0
  184.9140  177.2160  137.1950 C   0  0  0  0  0  2  0  0  0  0  0  0
  186.6190  178.8750  140.8880 C   0  0  2  0  0  3  0  0  0  0  0  0
  188.8860  177.6460  142.5760 C   0  0  0  0  0  2  0  0  0  0  0  0
  187.3440  177.8910  139.9360 C   0  0  1  0  0  3  0  0  0  0  0  0
  185.1600  178.0580  142.5010 O   0  0  0  0  0  0  0  0  0  0  0  0
  187.4220  177.2770  142.7750 C   0  0  2  0  0  3  0  0  0  0  0  0
  185.4080  178.2220  138.2280 C   0  0  2  0  0  3  0  0  0  0  0  0
  186.9210  178.0660  138.4570 C   0  0  1  0  0  3  0  0  0  0  0  0
  182.6200  177.3370  138.2090 C   0  0  0  0  0  2  0  0  0  0  0  0
  189.3720  177.1330  141.2320 C   0  0  0  0  0  2  0  0  0  0  0  0
  183.4290  177.4460  136.9170 C   0  0  0  0  0  2  0  0  0  0  0  0
  188.8600  177.9930  140.0880 C   0  0  0  0  0  2  0  0  0  0  0  0
  186.5030  178.4210  142.3310 C   0  0  1  0  0  3  0  0  0  0  0  0
  183.1280  178.3420  139.2410 C   0  0  0  0  0  2  0  0  0  0  0  0
  185.1470  179.0750  140.5680 C   0  0  1  0  0  3  0  0  0  0  0  0
  187.6920  178.9990  137.7240 O   0  0  0  0  0  0  0  0  0  0  0  0
  187.7280  178.6020  136.3780 C   0  0  0  0  0  2  0  0  0  0  0  0
  189.4180  177.8000  134.8910 O   0  0  0  0  0  1  0  0  0  0  0  0
  188.8580  177.6130  136.1570 C   0  0  2  0  0  3  0  0  0  0  0  0
  188.3420  176.1830  136.3090 C   0  0  1  0  0  3  0  0  0  0  0  0
  187.8330  175.7150  135.0950 O   0  0  0  0  0  1  0  0  0  0  0  0
  189.4430  175.2520  136.7910 C   0  0  0  0  0  2  0  0  0  0  0  0
  190.5050  176.0300  137.5460 C   0  0  1  0  0  3  0  0  0  0  0  0
  190.9240  175.2690  138.6520 O   0  0  0  0  0  0  0  0  0  0  0  0
  191.7780  175.2790  137.5360 C   0  0  0  0  0  2  0  0  0  0  0  0
  187.1810  176.9670  144.2440 C   0  0  0  0  0  2  0  0  0  0  0  0
  188.3550  177.4420  145.0830 C   0  0  0  0  0  2  0  0  0  0  0  0
  187.8670  178.0120  146.4100 C   0  0  1  0  0  3  0  0  0  0  0  0
  185.7690  179.1230  146.8550 O   0  0  0  0  0  1  0  0  0  0  0  0
  186.3530  177.8880  146.5600 C   0  0  0  0  0  2  0  0  0  0  0  0
  188.6280  177.4660  147.6220 C   0  0  0  0  0  2  0  0  0  0  0  0
  188.3180  178.2220  148.9060 C   0  0  0  0  0  1  0  0  0  0  0  0
  1 16  1  6  0  0  0
  1 17  1  0  0  0  0
  2  7  1  0  0  0  0
  3  9  1  0  0  0  0
  4 15  1  0  0  0  0
  5  8  1  0  0  0  0
  6 14  1  0  0  0  0
  6  4  1  0  0  0  0
  8 28  1  0  0  0  0
  9 10  1  0  0  0  0
  9  1  1  0  0  0  0
 10  6  1  0  0  0  0
 11 16  1  0  0  0  0
 12  5  1  0  0  0  0
 13  3  1  0  0  0  0
 13 11  1  0  0  0  0
 14 12  1  0  0  0  0
 15  7  1  0  0  0  0
 15  8  1  0  0  0  0
 17  4  1  0  0  0  0
 17  2  1  0  0  0  0
 18 10  1  0  0  0  0
 19 18  1  0  0  0  0
 20 21  1  0  0  0  0
 21 22  1  0  0  0  0
 21 19  1  0  0  0  0
 22 24  1  0  0  0  0
 23 22  1  0  0  0  0
 24 25  1  0  0  0  0
 25 26  1  0  0  0  0
 27 25  1  0  0  0  0
 27 26  1  0  0  0  0
 28 29  1  0  0  0  0
 29 30  1  0  0  0  0
 30 32  1  0  0  0  0
 30 33  1  0  0  0  0
 32 31  1  0  0  0  0
 33 34  1  0  0  0  0
M  END
>  <MODEL>
8

>  <REMARK>
 VINA RESULT:      -7.0      2.795      4.509
  Name = 
  11 active torsions:
  status: ('A' for Active; 'I' for Inactive)
    1  A    between atoms: C_3  and  C_16
    2  A    between atoms: C_3  and  C_19
    3  A    between atoms: C_5  and  O_11
    4  A    between atoms: C_5  and  C_19
    5  A    between atoms: C_8  and  C_16
    6  A    between atoms: O_11  and  C_20
    7  A    between atoms: C_17  and  C_28
    8  A    between atoms: C_28  and  C_29
    9  A    between atoms: C_29  and  C_32
   10  A    between atoms: C_31  and  C_32
   11  A    between atoms: C_32  and  C_34
                            x       y       z     vdW  Elec       q    Type
                         _______ _______ _______ _____ _____    ______ ____

>  <TORSDO>
F 11

$$$$
=
 OpenBabel11122412293D

 34 38  0  0  1  0  0  0  0  0999 V2000
  190.5060  176.8940  141.3520 C   0  0  2  0  0  3  0  0  0  0  0  0
  192.0750  176.8370  139.5190 O   0  0  0  0  0  0  0  0  0  0  0  0
  188.7660  176.9880  143.1560 C   0  0  0  0  0  2  0  0  0  0  0  0
  189.9470  177.6430  138.9760 C   0  0  2  0  0  3  0  0  0  0  0  0
  188.5400  176.5200  136.4740 C   0  0  0  0  0  2  0  0  0  0  0  0
  188.5220  177.2650  139.4490 C   0  0  1  0  0  3  0  0  0  0  0  0
  191.5380  175.9790  138.6600 O   0  0  0  0  0  0  0  0  0  0  0  0
  189.6170  175.7480  137.2260 C   0  0  2  0  0  3  0  0  0  0  0  0
  189.3010  177.6660  141.9000 C   0  0  2  0  0  3  0  0  0  0  0  0
  188.1870  177.8270  140.8520 C   0  0  1  0  0  3  0  0  0  0  0  0
  191.0810  176.1690  143.6740 C   0  0  0  0  0  2  0  0  0  0  0  0
  187.2950  176.6430  137.3340 C   0  0  0  0  0  2  0  0  0  0  0  0
  189.8640  176.9180  144.2150 C   0  0  0  0  0  2  0  0  0  0  0  0
  187.4710  177.6870  138.4250 C   0  0  0  0  0  2  0  0  0  0  0  0
  190.5670  176.7050  137.9570 C   0  0  1  0  0  3  0  0  0  0  0  0
  191.6060  176.8490  142.4110 C   0  0  0  0  0  2  0  0  0  0  0  0
  191.0030  177.5630  140.0660 C   0  0  1  0  0  3  0  0  0  0  0  0
  187.6070  179.1180  140.8530 O   0  0  0  0  0  0  0  0  0  0  0  0
  186.5870  179.1590  141.8170 C   0  0  0  0  0  2  0  0  0  0  0  0
  185.0130  179.7630  140.1250 O   0  0  0  0  0  1  0  0  0  0  0  0
  185.2470  178.8650  141.1690 C   0  0  2  0  0  3  0  0  0  0  0  0
  184.1300  178.9490  142.2090 C   0  0  1  0  0  3  0  0  0  0  0  0
  182.9660  178.3460  141.7250 O   0  0  0  0  0  1  0  0  0  0  0  0
  184.5440  178.2810  143.5110 C   0  0  0  0  0  2  0  0  0  0  0  0
  184.5540  179.2890  144.6450 C   0  0  1  0  0  3  0  0  0  0  0  0
  183.4800  179.0110  145.5100 O   0  0  0  0  0  0  0  0  0  0  0  0
  184.7530  178.5920  145.9330 C   0  0  0  0  0  2  0  0  0  0  0  0
  190.4030  174.9010  136.2390 C   0  0  0  0  0  2  0  0  0  0  0  0
  190.2130  173.4240  136.5420 C   0  0  0  0  0  2  0  0  0  0  0  0
  188.8810  172.9330  135.9870 C   0  0  1  0  0  3  0  0  0  0  0  0
  190.3620  171.5370  134.6870 O   0  0  0  0  0  1  0  0  0  0  0  0
  189.0670  172.0580  134.7500 C   0  0  0  0  0  2  0  0  0  0  0  0
  187.9870  172.2790  137.0460 C   0  0  0  0  0  2  0  0  0  0  0  0
  186.6680  173.0120  137.2420 C   0  0  0  0  0  1  0  0  0  0  0  0
  1  9  1  0  0  0  0
  1 16  1  1  0  0  0
  2 17  1  0  0  0  0
  3 13  1  0  0  0  0
  4  6  1  0  0  0  0
  4 17  1  0  0  0  0
  5  8  1  0  0  0  0
  5 12  1  0  0  0  0
  6 10  1  0  0  0  0
  7  2  1  0  0  0  0
  8 15  1  0  0  0  0
  9  3  1  0  0  0  0
 10 18  1  0  0  0  0
 10  9  1  0  0  0  0
 11 13  1  0  0  0  0
 12 14  1  0  0  0  0
 14  6  1  0  0  0  0
 15  7  1  0  0  0  0
 15  4  1  0  0  0  0
 16 11  1  0  0  0  0
 17  1  1  0  0  0  0
 18 19  1  0  0  0  0
 20 21  1  0  0  0  0
 21 19  1  0  0  0  0
 21 22  1  0  0  0  0
 22 24  1  0  0  0  0
 23 22  1  0  0  0  0
 24 25  1  0  0  0  0
 25 26  1  0  0  0  0
 25 27  1  0  0  0  0
 26 27  1  0  0  0  0
 28 29  1  0  0  0  0
 28  8  1  0  0  0  0
 30 29  1  0  0  0  0
 30 33  1  0  0  0  0
 31 32  1  0  0  0  0
 32 30  1  0  0  0  0
 33 34  1  0  0  0  0
M  END
>  <MODEL>
9

>  <REMARK>
 VINA RESULT:      -6.9      4.105      8.436
  Name = 
  11 active torsions:
  status: ('A' for Active; 'I' for Inactive)
    1  A    between atoms: C_3  and  C_16
    2  A    between atoms: C_3  and  C_19
    3  A    between atoms: C_5  and  O_11
    4  A    between atoms: C_5  and  C_19
    5  A    between atoms: C_8  and  C_16
    6  A    between atoms: O_11  and  C_20
    7  A    between atoms: C_17  and  C_28
    8  A    between atoms: C_28  and  C_29
    9  A    between atoms: C_29  and  C_32
   10  A    between atoms: C_31  and  C_32
   11  A    between atoms: C_32  and  C_34
                            x       y       z     vdW  Elec       q    Type
                         _______ _______ _______ _____ _____    ______ ____

>  <TORSDO>
F 11

$$$$
