=
 OpenBabel11122411153D

 31 35  0  0  1  0  0  0  0  0999 V2000
  191.4740  176.4300  145.2040 C   0  0  1  0  0  3  0  0  0  0  0  0
  187.7680  176.8750  144.0270 C   0  0  2  0  0  3  0  0  0  0  0  0
  187.1160  177.7270  145.1190 C   0  0  0  0  0  0  0  0  0  0  0  0
  187.0210  178.4510  147.4460 C   0  0  0  0  0  0  0  0  0  0  0  0
  189.3100  176.8740  143.9990 C   0  0  2  0  0  3  0  0  0  0  0  0
  191.9290  177.8440  144.8720 C   0  0  0  0  0  2  0  0  0  0  0  0
  187.6510  177.7500  146.4170 C   0  0  0  0  0  3  0  0  0  0  0  0
  187.9050  178.5890  142.1630 C   0  0  2  0  0  3  0  0  0  0  0  0
  192.0720  176.0060  146.5300 C   0  0  0  0  0  1  0  0  0  0  0  0
  185.2350  178.4220  143.5350 C   0  0  0  0  0  2  0  0  0  0  0  0
  187.7270  178.4790  149.0460 Cl  0  0  0  0  0  0  0  0  0  0  0  0
  189.3660  178.4930  142.1680 N   0  0  0  0  0  2  0  0  0  0  0  0
  187.2700  177.2600  142.6220 C   0  0  2  0  0  3  0  0  0  0  0  0
  189.9550  176.3810  145.2980 C   0  0  0  0  0  2  0  0  0  0  0  0
  185.8240  179.1230  147.1990 C   0  0  0  0  0  3  0  0  0  0  0  0
  189.8420  178.2390  143.5270 C   0  0  2  0  0  3  0  0  0  0  0  0
  191.3690  178.2540  143.5160 C   0  0  0  0  0  2  0  0  0  0  0  0
  185.7430  177.3170  142.6140 C   0  0  0  0  0  2  0  0  0  0  0  0
  185.8780  178.3810  144.8900 C   0  0  0  0  0  0  0  0  0  0  0  0
  185.2570  179.0890  145.9240 C   0  0  0  0  0  3  0  0  0  0  0  0
  188.6390  177.1990  139.7850 O   0  0  0  0  0  0  0  0  0  0  0  0
  187.8510  178.1770  139.6700 C   0  0  0  0  0  0  0  0  0  0  0  0
  187.4490  178.9220  140.8200 N   0  0  0  0  0  2  0  0  0  0  0  0
  187.6370  176.7760  136.0350 N   0  0  0  0  0  0  0  0  0  0  0  0
  186.2260  177.6280  137.8450 C   0  0  0  0  0  2  0  0  0  0  0  0
  189.0690  179.7150  137.1890 O   0  0  0  0  0  0  0  0  0  0  0  0
  188.0890  175.5500  135.4050 C   0  0  0  0  0  1  0  0  0  0  0  0
  186.8110  176.3830  137.1750 C   0  0  0  0  0  2  0  0  0  0  0  0
  188.4430  178.6760  137.3180 C   0  0  0  0  0  0  0  0  0  0  0  0
  187.3310  178.5780  138.3250 C   0  0  2  0  0  3  0  0  0  0  0  0
  188.8310  177.4580  136.5310 C   0  0  0  0  0  2  0  0  0  0  0  0
  1 14  1  0  0  0  0
  1  9  1  1  0  0  0
  2  3  1  1  0  0  0
  3  7  1  0  0  0  0
  4 11  1  0  0  0  0
  5  2  1  0  0  0  0
  5 14  1  1  0  0  0
  6  1  1  0  0  0  0
  7  4  2  0  0  0  0
  8 23  1  6  0  0  0
  8 12  1  0  0  0  0
  8 13  1  0  0  0  0
 10 19  1  0  0  0  0
 12 16  1  0  0  0  0
 13 18  1  1  0  0  0
 13  2  1  0  0  0  0
 15  4  1  0  0  0  0
 16 17  1  6  0  0  0
 16  5  1  0  0  0  0
 17  6  1  0  0  0  0
 18 10  1  0  0  0  0
 19  3  2  0  0  0  0
 19 20  1  0  0  0  0
 20 15  2  0  0  0  0
 22 21  2  0  0  0  0
 22 23  1  0  0  0  0
 24 31  1  0  0  0  0
 24 28  1  0  0  0  0
 25 30  1  0  0  0  0
 26 29  2  0  0  0  0
 27 24  1  0  0  0  0
 28 25  1  0  0  0  0
 29 30  1  0  0  0  0
 30 22  1  1  0  0  0
 31 29  1  0  0  0  0
M  END
>  <MODEL>
1

>  <REMARK>
 VINA RESULT:      -9.7      0.000      0.000
  Name = 
  2 active torsions:
  status: ('A' for Active; 'I' for Inactive)
    1  A    between atoms: C_5  and  C_30
    2  A    between atoms: C_10  and  N_16
                            x       y       z     vdW  Elec       q    Type
                         _______ _______ _______ _____ _____    ______ ____

>  <TORSDO>
F 2

$$$$
=
 OpenBabel11122411153D

 31 35  0  0  1  0  0  0  0  0999 V2000
  190.3340  176.2170  142.9160 C   0  0  1  0  0  3  0  0  0  0  0  0
  186.5590  177.1140  143.4290 C   0  0  2  0  0  3  0  0  0  0  0  0
  186.5240  177.9040  144.7400 C   0  0  0  0  0  0  0  0  0  0  0  0
  187.4840  178.3920  146.9270 C   0  0  0  0  0  0  0  0  0  0  0  0
  187.9400  176.9760  142.7560 C   0  0  2  0  0  3  0  0  0  0  0  0
  190.7840  177.6110  142.5030 C   0  0  0  0  0  2  0  0  0  0  0  0
  187.5440  177.7460  145.6920 C   0  0  0  0  0  3  0  0  0  0  0  0
  186.1300  178.9890  141.7780 C   0  0  2  0  0  3  0  0  0  0  0  0
  191.3650  175.6070  143.8420 C   0  0  0  0  0  1  0  0  0  0  0  0
  184.2620  178.9240  144.1310 C   0  0  0  0  0  2  0  0  0  0  0  0
  188.7820  178.1920  148.0820 Cl  0  0  0  0  0  0  0  0  0  0  0  0
  187.4400  178.7620  141.1640 N   0  0  0  0  0  2  0  0  0  0  0  0
  185.5800  177.6830  142.3870 C   0  0  2  0  0  3  0  0  0  0  0  0
  188.9940  176.2960  143.6360 C   0  0  0  0  0  2  0  0  0  0  0  0
  186.3850  179.1910  147.2430 C   0  0  0  0  0  3  0  0  0  0  0  0
  188.3960  178.3280  142.1820 C   0  0  2  0  0  3  0  0  0  0  0  0
  189.7730  178.2070  141.5310 C   0  0  0  0  0  2  0  0  0  0  0  0
  184.2040  177.8780  143.0230 C   0  0  0  0  0  2  0  0  0  0  0  0
  185.3940  178.6870  145.0870 C   0  0  0  0  0  0  0  0  0  0  0  0
  185.3460  179.3390  146.3240 C   0  0  0  0  0  3  0  0  0  0  0  0
  185.4240  177.6440  139.3660 O   0  0  0  0  0  0  0  0  0  0  0  0
  184.8920  178.7670  139.5860 C   0  0  0  0  0  0  0  0  0  0  0  0
  185.2090  179.4980  140.7710 N   0  0  0  0  0  2  0  0  0  0  0  0
  181.0700  178.7370  138.8010 N   0  0  0  0  0  0  0  0  0  0  0  0
  182.9110  180.2730  139.2960 C   0  0  0  0  0  2  0  0  0  0  0  0
  183.7470  177.8530  136.7830 O   0  0  0  0  0  0  0  0  0  0  0  0
  179.9280  178.0740  139.4020 C   0  0  0  0  0  1  0  0  0  0  0  0
  181.7380  179.4750  139.8710 C   0  0  0  0  0  2  0  0  0  0  0  0
  183.2400  178.2810  137.8070 C   0  0  0  0  0  0  0  0  0  0  0  0
  183.9280  179.3550  138.6040 C   0  0  2  0  0  3  0  0  0  0  0  0
  181.9640  177.6840  138.3260 C   0  0  0  0  0  2  0  0  0  0  0  0
  1 14  1  0  0  0  0
  1  9  1  1  0  0  0
  2  3  1  1  0  0  0
  3 19  2  0  0  0  0
  3  7  1  0  0  0  0
  4 15  1  0  0  0  0
  4 11  1  0  0  0  0
  5  2  1  0  0  0  0
  5 14  1  1  0  0  0
  6  1  1  0  0  0  0
  7  4  2  0  0  0  0
  8 23  1  6  0  0  0
  8 13  1  0  0  0  0
 10 19  1  0  0  0  0
 12  8  1  0  0  0  0
 12 16  1  0  0  0  0
 13 18  1  1  0  0  0
 13  2  1  0  0  0  0
 16 17  1  6  0  0  0
 16  5  1  0  0  0  0
 17  6  1  0  0  0  0
 18 10  1  0  0  0  0
 19 20  1  0  0  0  0
 20 15  2  0  0  0  0
 21 22  2  0  0  0  0
 22 23  1  0  0  0  0
 24 27  1  0  0  0  0
 24 28  1  0  0  0  0
 25 28  1  0  0  0  0
 26 29  2  0  0  0  0
 29 31  1  0  0  0  0
 29 30  1  0  0  0  0
 30 25  1  0  0  0  0
 30 22  1  1  0  0  0
 31 24  1  0  0  0  0
M  END
>  <MODEL>
2

>  <REMARK>
 VINA RESULT:      -8.7      2.839      3.658
  Name = 
  2 active torsions:
  status: ('A' for Active; 'I' for Inactive)
    1  A    between atoms: C_5  and  C_30
    2  A    between atoms: C_10  and  N_16
                            x       y       z     vdW  Elec       q    Type
                         _______ _______ _______ _____ _____    ______ ____

>  <TORSDO>
F 2

$$$$
=
 OpenBabel11122411153D

 31 35  0  0  1  0  0  0  0  0999 V2000
  194.0950  175.4890  135.9520 C   0  0  1  0  0  3  0  0  0  0  0  0
  190.4230  176.6180  136.7020 C   0  0  2  0  0  3  0  0  0  0  0  0
  189.5900  175.3410  136.5570 C   0  0  0  0  0  0  0  0  0  0  0  0
  189.2710  173.1400  135.5580 C   0  0  0  0  0  0  0  0  0  0  0  0
  191.9440  176.4190  136.8680 C   0  0  2  0  0  3  0  0  0  0  0  0
  194.3220  174.7640  137.2700 C   0  0  0  0  0  2  0  0  0  0  0  0
  190.0550  174.2750  135.7720 C   0  0  0  0  0  3  0  0  0  0  0  0
  190.3560  176.8960  139.2220 C   0  0  2  0  0  3  0  0  0  0  0  0
  194.6950  174.6810  134.8210 C   0  0  0  0  0  1  0  0  0  0  0  0
  187.6930  176.3550  137.9370 C   0  0  0  0  0  2  0  0  0  0  0  0
  189.8910  171.8190  134.5940 Cl  0  0  0  0  0  0  0  0  0  0  0  0
  191.8110  176.7450  139.2870 N   0  0  0  0  0  2  0  0  0  0  0  0
  189.9320  177.4970  137.8660 C   0  0  2  0  0  3  0  0  0  0  0  0
  192.6030  175.6680  135.7070 C   0  0  0  0  0  2  0  0  0  0  0  0
  187.9910  173.0640  136.1070 C   0  0  0  0  0  3  0  0  0  0  0  0
  192.2610  175.8190  138.2490 C   0  0  2  0  0  3  0  0  0  0  0  0
  193.7630  175.5990  138.4150 C   0  0  0  0  0  2  0  0  0  0  0  0
  188.4180  177.6850  137.7660 C   0  0  0  0  0  2  0  0  0  0  0  0
  188.2720  175.2700  137.0770 C   0  0  0  0  0  0  0  0  0  0  0  0
  187.4960  174.1260  136.8650 C   0  0  0  0  0  3  0  0  0  0  0  0
  190.1010  176.1010  141.9470 O   0  0  0  0  0  0  0  0  0  0  0  0
  189.8140  177.2960  141.6570 C   0  0  0  0  0  0  0  0  0  0  0  0
  189.9120  177.7560  140.3100 N   0  0  0  0  0  2  0  0  0  0  0  0
  189.8780  177.6510  145.5430 N   0  0  0  0  0  0  0  0  0  0  0  0
  190.5450  178.8260  143.5010 C   0  0  0  0  0  2  0  0  0  0  0  0
  187.1750  177.6030  143.3730 O   0  0  0  0  0  0  0  0  0  0  0  0
  190.3940  176.8230  146.6170 C   0  0  0  0  0  1  0  0  0  0  0  0
  190.9900  177.8860  144.6230 C   0  0  0  0  0  2  0  0  0  0  0  0
  188.3650  177.5940  143.6430 C   0  0  0  0  0  0  0  0  0  0  0  0
  189.3580  178.2450  142.7210 C   0  0  2  0  0  3  0  0  0  0  0  0
  188.8580  176.8610  144.8560 C   0  0  0  0  0  2  0  0  0  0  0  0
  1  9  1  6  0  0  0
  1  6  1  0  0  0  0
  2  3  1  1  0  0  0
  2  5  1  0  0  0  0
  2 13  1  0  0  0  0
  3 19  1  0  0  0  0
  4  7  1  0  0  0  0
  4 15  2  0  0  0  0
  5 14  1  6  0  0  0
  5 16  1  0  0  0  0
  6 17  1  0  0  0  0
  7  3  2  0  0  0  0
  8 12  1  0  0  0  0
  8 23  1  1  0  0  0
 11  4  1  0  0  0  0
 13 18  1  1  0  0  0
 13  8  1  0  0  0  0
 14  1  1  0  0  0  0
 15 20  1  0  0  0  0
 16 17  1  6  0  0  0
 16 12  1  0  0  0  0
 18 10  1  0  0  0  0
 19 10  1  0  0  0  0
 20 19  2  0  0  0  0
 22 21  2  0  0  0  0
 23 22  1  0  0  0  0
 24 27  1  0  0  0  0
 25 28  1  0  0  0  0
 26 29  2  0  0  0  0
 28 24  1  0  0  0  0
 29 31  1  0  0  0  0
 30 22  1  6  0  0  0
 30 25  1  0  0  0  0
 30 29  1  0  0  0  0
 31 24  1  0  0  0  0
M  END
>  <MODEL>
3

>  <REMARK>
 VINA RESULT:      -7.6      4.273      8.629
  Name = 
  2 active torsions:
  status: ('A' for Active; 'I' for Inactive)
    1  A    between atoms: C_5  and  C_30
    2  A    between atoms: C_10  and  N_16
                            x       y       z     vdW  Elec       q    Type
                         _______ _______ _______ _____ _____    ______ ____

>  <TORSDO>
F 2

$$$$
=
 OpenBabel11122411153D

 31 35  0  0  1  0  0  0  0  0999 V2000
  189.2460  177.5790  136.0870 C   0  0  1  0  0  3  0  0  0  0  0  0
  185.5280  177.9140  137.2630 C   0  0  2  0  0  3  0  0  0  0  0  0
  185.0180  176.4720  137.3480 C   0  0  0  0  0  0  0  0  0  0  0  0
  185.1260  174.1560  136.5950 C   0  0  0  0  0  0  0  0  0  0  0  0
  187.0590  178.0900  137.2240 C   0  0  2  0  0  3  0  0  0  0  0  0
  189.7990  177.0830  137.4160 C   0  0  0  0  0  2  0  0  0  0  0  0
  185.6310  175.4570  136.5970 C   0  0  0  0  0  3  0  0  0  0  0  0
  185.6980  178.4610  139.7330 C   0  0  2  0  0  3  0  0  0  0  0  0
  189.8840  176.8030  134.9540 C   0  0  0  0  0  1  0  0  0  0  0  0
  183.1120  177.1760  138.8970 C   0  0  0  0  0  2  0  0  0  0  0  0
  185.9280  172.9090  135.6660 Cl  0  0  0  0  0  0  0  0  0  0  0  0
  187.1430  178.6560  139.6000 N   0  0  0  0  0  2  0  0  0  0  0  0
  184.9800  178.7860  138.4070 C   0  0  2  0  0  3  0  0  0  0  0  0
  187.7360  177.3800  136.0470 C   0  0  0  0  0  2  0  0  0  0  0  0
  183.9790  173.8520  137.3280 C   0  0  0  0  0  3  0  0  0  0  0  0
  187.6770  177.7430  138.5900 C   0  0  2  0  0  3  0  0  0  0  0  0
  189.1960  177.8960  138.5550 C   0  0  0  0  0  2  0  0  0  0  0  0
  183.4660  178.6090  138.5120 C   0  0  0  0  0  2  0  0  0  0  0  0
  183.8300  176.1610  138.0570 C   0  0  0  0  0  0  0  0  0  0  0  0
  183.3360  174.8530  138.0580 C   0  0  0  0  0  3  0  0  0  0  0  0
  184.4860  177.5440  142.1450 O   0  0  0  0  0  0  0  0  0  0  0  0
  184.6030  178.7910  141.9860 C   0  0  0  0  0  0  0  0  0  0  0  0
  185.1930  179.3160  140.7980 N   0  0  0  0  0  2  0  0  0  0  0  0
  184.4150  179.0630  145.8740 N   0  0  0  0  0  0  0  0  0  0  0  0
  185.2700  180.2490  143.9100 C   0  0  0  0  0  2  0  0  0  0  0  0
  181.8670  179.1800  143.5260 O   0  0  0  0  0  0  0  0  0  0  0  0
  184.8190  178.1920  146.9610 C   0  0  0  0  0  1  0  0  0  0  0  0
  185.5960  179.2670  145.0380 C   0  0  0  0  0  2  0  0  0  0  0  0
  183.0340  179.1120  143.8750 C   0  0  0  0  0  0  0  0  0  0  0  0
  184.1160  179.7380  143.0380 C   0  0  2  0  0  3  0  0  0  0  0  0
  183.4110  178.3330  145.1020 C   0  0  0  0  0  2  0  0  0  0  0  0
  1  9  1  6  0  0  0
  1  6  1  0  0  0  0
  2  3  1  1  0  0  0
  2 13  1  0  0  0  0
  3 19  1  0  0  0  0
  4  7  1  0  0  0  0
  4 15  2  0  0  0  0
  5 14  1  6  0  0  0
  5  2  1  0  0  0  0
  5 16  1  0  0  0  0
  6 17  1  0  0  0  0
  7  3  2  0  0  0  0
  8 23  1  1  0  0  0
 11  4  1  0  0  0  0
 12  8  1  0  0  0  0
 13 18  1  1  0  0  0
 13  8  1  0  0  0  0
 14  1  1  0  0  0  0
 15 20  1  0  0  0  0
 16 17  1  6  0  0  0
 16 12  1  0  0  0  0
 18 10  1  0  0  0  0
 19 20  2  0  0  0  0
 19 10  1  0  0  0  0
 22 21  2  0  0  0  0
 23 22  1  0  0  0  0
 24 27  1  0  0  0  0
 25 28  1  0  0  0  0
 26 29  2  0  0  0  0
 28 24  1  0  0  0  0
 29 31  1  0  0  0  0
 30 22  1  6  0  0  0
 30 29  1  0  0  0  0
 30 25  1  0  0  0  0
 31 24  1  0  0  0  0
M  END
>  <MODEL>
4

>  <REMARK>
 VINA RESULT:      -7.1      4.500      8.353
  Name = 
  2 active torsions:
  status: ('A' for Active; 'I' for Inactive)
    1  A    between atoms: C_5  and  C_30
    2  A    between atoms: C_10  and  N_16
                            x       y       z     vdW  Elec       q    Type
                         _______ _______ _______ _____ _____    ______ ____

>  <TORSDO>
F 2

$$$$
=
 OpenBabel11122411153D

 31 35  0  0  1  0  0  0  0  0999 V2000
  183.9260  178.5920  143.6810 C   0  0  1  0  0  3  0  0  0  0  0  0
  182.8870  177.6070  140.0380 C   0  0  2  0  0  3  0  0  0  0  0  0
  181.8890  178.6890  139.6150 C   0  0  0  0  0  0  0  0  0  0  0  0
  180.2030  180.3450  140.2150 C   0  0  0  0  0  0  0  0  0  0  0  0
  183.7740  177.9410  141.2550 C   0  0  2  0  0  3  0  0  0  0  0  0
  184.8150  179.7640  143.2920 C   0  0  0  0  0  2  0  0  0  0  0  0
  181.1780  179.4170  140.5830 C   0  0  0  0  0  3  0  0  0  0  0  0
  184.8780  178.2720  138.6170 C   0  0  2  0  0  3  0  0  0  0  0  0
  183.1100  178.9620  144.9020 C   0  0  0  0  0  1  0  0  0  0  0  0
  182.2600  178.1460  137.1460 C   0  0  0  0  0  2  0  0  0  0  0  0
  179.3520  181.2530  141.4440 Cl  0  0  0  0  0  0  0  0  0  0  0  0
  185.6690  178.5220  139.8240 N   0  0  0  0  0  2  0  0  0  0  0  0
  183.8100  177.1900  138.8800 C   0  0  2  0  0  3  0  0  0  0  0  0
  182.9860  178.2500  142.5320 C   0  0  0  0  0  2  0  0  0  0  0  0
  179.9030  180.5430  138.8670 C   0  0  0  0  0  3  0  0  0  0  0  0
  184.8030  179.0250  140.8890 C   0  0  2  0  0  3  0  0  0  0  0  0
  185.6730  179.3780  142.0940 C   0  0  0  0  0  2  0  0  0  0  0  0
  182.9740  176.8910  137.6360 C   0  0  0  0  0  2  0  0  0  0  0  0
  181.5470  178.8700  138.2510 C   0  0  0  0  0  0  0  0  0  0  0  0
  180.5750  179.8080  137.8900 C   0  0  0  0  0  3  0  0  0  0  0  0
  187.7060  178.6270  138.5780 O   0  0  0  0  0  0  0  0  0  0  0  0
  187.1760  178.0510  137.5890 C   0  0  0  0  0  0  0  0  0  0  0  0
  185.7630  177.8490  137.5410 N   0  0  0  0  0  2  0  0  0  0  0  0
  188.5270  174.7140  136.0810 N   0  0  0  0  0  0  0  0  0  0  0  0
  187.2130  176.6930  135.4840 C   0  0  0  0  0  2  0  0  0  0  0  0
  190.2650  177.5030  137.1870 O   0  0  0  0  0  0  0  0  0  0  0  0
  188.4020  173.3200  136.4610 C   0  0  0  0  0  1  0  0  0  0  0  0
  187.1670  175.2410  135.9660 C   0  0  0  0  0  2  0  0  0  0  0  0
  189.2520  176.8710  136.9340 C   0  0  0  0  0  0  0  0  0  0  0  0
  188.0180  177.5780  136.4450 C   0  0  2  0  0  3  0  0  0  0  0  0
  189.2020  175.3920  137.1860 C   0  0  0  0  0  2  0  0  0  0  0  0
  1  9  1  1  0  0  0
  2  3  1  6  0  0  0
  2  5  1  0  0  0  0
  3  7  1  0  0  0  0
  4  7  2  0  0  0  0
  4 11  1  0  0  0  0
  5 14  1  1  0  0  0
  6  1  1  0  0  0  0
  8 23  1  6  0  0  0
  8 13  1  0  0  0  0
  8 12  1  0  0  0  0
 10 18  1  0  0  0  0
 10 19  1  0  0  0  0
 12 16  1  0  0  0  0
 13 18  1  6  0  0  0
 13  2  1  0  0  0  0
 14  1  1  0  0  0  0
 15  4  1  0  0  0  0
 16  5  1  0  0  0  0
 16 17  1  1  0  0  0
 17  6  1  0  0  0  0
 19  3  2  0  0  0  0
 20 19  1  0  0  0  0
 20 15  2  0  0  0  0
 22 21  2  0  0  0  0
 23 22  1  0  0  0  0
 24 27  1  0  0  0  0
 24 31  1  0  0  0  0
 25 28  1  0  0  0  0
 25 30  1  0  0  0  0
 28 24  1  0  0  0  0
 29 31  1  0  0  0  0
 29 26  2  0  0  0  0
 30 29  1  0  0  0  0
 30 22  1  1  0  0  0
M  END
>  <MODEL>
5

>  <REMARK>
 VINA RESULT:      -6.9      4.368      6.394
  Name = 
  2 active torsions:
  status: ('A' for Active; 'I' for Inactive)
    1  A    between atoms: C_5  and  C_30
    2  A    between atoms: C_10  and  N_16
                            x       y       z     vdW  Elec       q    Type
                         _______ _______ _______ _____ _____    ______ ____

>  <TORSDO>
F 2

$$$$
=
 OpenBabel11122411153D

 31 35  0  0  1  0  0  0  0  0999 V2000
  184.6540  178.6270  138.3640 C   0  0  1  0  0  3  0  0  0  0  0  0
  188.5080  178.3200  138.9750 C   0  0  2  0  0  3  0  0  0  0  0  0
  188.6300  177.6810  140.3610 C   0  0  0  0  0  0  0  0  0  0  0  0
  187.7110  177.2920  142.5860 C   0  0  0  0  0  0  0  0  0  0  0  0
  187.1320  178.1950  138.2890 C   0  0  2  0  0  3  0  0  0  0  0  0
  184.4070  177.1490  138.0980 C   0  0  0  0  0  2  0  0  0  0  0  0
  187.5830  177.7930  141.2890 C   0  0  0  0  0  3  0  0  0  0  0  0
  189.2170  176.3620  137.5290 C   0  0  2  0  0  3  0  0  0  0  0  0
  183.5330  179.1790  139.2210 C   0  0  0  0  0  1  0  0  0  0  0  0
  191.0210  176.9280  139.8660 C   0  0  0  0  0  2  0  0  0  0  0  0
  186.3790  177.4280  143.7110 Cl  0  0  0  0  0  0  0  0  0  0  0  0
  187.8990  176.3410  136.8930 N   0  0  0  0  0  2  0  0  0  0  0  0
  189.5730  177.7880  137.9990 C   0  0  2  0  0  3  0  0  0  0  0  0
  185.9800  178.8090  139.0910 C   0  0  0  0  0  2  0  0  0  0  0  0
  188.9040  176.6900  142.9850 C   0  0  0  0  0  3  0  0  0  0  0  0
  186.8760  176.7400  137.8580 C   0  0  2  0  0  3  0  0  0  0  0  0
  185.5060  176.6020  137.1960 C   0  0  0  0  0  2  0  0  0  0  0  0
  190.9520  177.8520  138.6550 C   0  0  0  0  0  2  0  0  0  0  0  0
  189.8520  177.1030  140.7900 C   0  0  0  0  0  0  0  0  0  0  0  0
  189.9690  176.5950  142.0880 C   0  0  0  0  0  3  0  0  0  0  0  0
  190.8650  174.0650  137.8930 O   0  0  0  0  0  0  0  0  0  0  0  0
  191.0040  174.7200  136.8230 C   0  0  0  0  0  0  0  0  0  0  0  0
  190.2160  175.8860  136.5820 N   0  0  0  0  0  2  0  0  0  0  0  0
  194.8580  174.2300  136.4570 N   0  0  0  0  0  0  0  0  0  0  0  0
  192.7430  173.0180  136.2290 C   0  0  0  0  0  2  0  0  0  0  0  0
  192.6990  176.2210  134.6150 O   0  0  0  0  0  0  0  0  0  0  0  0
  195.9830  174.4270  137.3520 C   0  0  0  0  0  1  0  0  0  0  0  0
  193.9230  173.3420  137.1470 C   0  0  0  0  0  2  0  0  0  0  0  0
  192.9670  175.4000  135.4760 C   0  0  0  0  0  0  0  0  0  0  0  0
  192.0040  174.2910  135.7950 C   0  0  2  0  0  3  0  0  0  0  0  0
  194.2250  175.5360  136.2840 C   0  0  0  0  0  2  0  0  0  0  0  0
  1 14  1  0  0  0  0
  1  9  1  1  0  0  0
  2  3  1  1  0  0  0
  3 19  2  0  0  0  0
  3  7  1  0  0  0  0
  4 15  1  0  0  0  0
  4 11  1  0  0  0  0
  5  2  1  0  0  0  0
  5 14  1  1  0  0  0
  6  1  1  0  0  0  0
  7  4  2  0  0  0  0
  8 23  1  6  0  0  0
  8 13  1  0  0  0  0
 10 19  1  0  0  0  0
 12  8  1  0  0  0  0
 12 16  1  0  0  0  0
 13 18  1  1  0  0  0
 13  2  1  0  0  0  0
 16 17  1  6  0  0  0
 16  5  1  0  0  0  0
 17  6  1  0  0  0  0
 18 10  1  0  0  0  0
 19 20  1  0  0  0  0
 20 15  2  0  0  0  0
 22 21  2  0  0  0  0
 23 22  1  0  0  0  0
 24 28  1  0  0  0  0
 24 27  1  0  0  0  0
 25 28  1  0  0  0  0
 26 29  2  0  0  0  0
 29 30  1  0  0  0  0
 29 31  1  0  0  0  0
 30 25  1  0  0  0  0
 30 22  1  1  0  0  0
 31 24  1  0  0  0  0
M  END
>  <MODEL>
6

>  <REMARK>
 VINA RESULT:      -6.9      3.722      6.880
  Name = 
  2 active torsions:
  status: ('A' for Active; 'I' for Inactive)
    1  A    between atoms: C_5  and  C_30
    2  A    between atoms: C_10  and  N_16
                            x       y       z     vdW  Elec       q    Type
                         _______ _______ _______ _____ _____    ______ ____

>  <TORSDO>
F 2

$$$$
=
 OpenBabel11122411153D

 31 35  0  0  1  0  0  0  0  0999 V2000
  191.5940  177.6030  140.2140 C   0  0  1  0  0  3  0  0  0  0  0  0
  189.0530  177.9730  137.2590 C   0  0  2  0  0  3  0  0  0  0  0  0
  188.9540  176.5680  136.6570 C   0  0  0  0  0  0  0  0  0  0  0  0
  189.9640  174.3930  136.2150 C   0  0  0  0  0  0  0  0  0  0  0  0
  189.6540  178.0620  138.6760 C   0  0  2  0  0  3  0  0  0  0  0  0
  190.6480  176.8760  141.1590 C   0  0  0  0  0  2  0  0  0  0  0  0
  189.9990  175.6460  136.8290 C   0  0  0  0  0  3  0  0  0  0  0  0
  186.7900  178.1210  138.3930 C   0  0  2  0  0  3  0  0  0  0  0  0
  192.9690  176.9750  140.2940 C   0  0  0  0  0  1  0  0  0  0  0  0
  186.7200  177.1370  135.5530 C   0  0  0  0  0  2  0  0  0  0  0  0
  191.2710  173.2590  136.4690 Cl  0  0  0  0  0  0  0  0  0  0  0  0
  187.4410  178.2480  139.6980 N   0  0  0  0  0  2  0  0  0  0  0  0
  187.6910  178.6890  137.2770 C   0  0  2  0  0  3  0  0  0  0  0  0
  191.0770  177.5030  138.7840 C   0  0  0  0  0  2  0  0  0  0  0  0
  188.8900  174.0490  135.3940 C   0  0  0  0  0  3  0  0  0  0  0  0
  188.6810  177.4720  139.7120 C   0  0  2  0  0  3  0  0  0  0  0  0
  189.2760  177.5380  141.1170 C   0  0  0  0  0  2  0  0  0  0  0  0
  187.0360  178.5880  135.9000 C   0  0  0  0  0  2  0  0  0  0  0  0
  187.8870  176.2230  135.7890 C   0  0  0  0  0  0  0  0  0  0  0  0
  187.8550  174.9620  135.1850 C   0  0  0  0  0  3  0  0  0  0  0  0
  184.2230  176.9060  138.1490 O   0  0  0  0  0  0  0  0  0  0  0  0
  184.2650  178.1580  138.2990 C   0  0  0  0  0  0  0  0  0  0  0  0
  185.5190  178.8300  138.4180 N   0  0  0  0  0  2  0  0  0  0  0  0
  180.6690  177.9440  139.7980 N   0  0  0  0  0  0  0  0  0  0  0  0
  182.6530  179.3780  139.7780 C   0  0  0  0  0  2  0  0  0  0  0  0
  181.6690  178.3090  136.4990 O   0  0  0  0  0  0  0  0  0  0  0  0
  179.9720  176.9510  140.5940 C   0  0  0  0  0  1  0  0  0  0  0  0
  181.9000  178.2690  140.5170 C   0  0  0  0  0  2  0  0  0  0  0  0
  181.8630  178.2170  137.6990 C   0  0  0  0  0  0  0  0  0  0  0  0
  183.0020  178.9590  138.3440 C   0  0  2  0  0  3  0  0  0  0  0  0
  181.0190  177.2990  138.5340 C   0  0  0  0  0  2  0  0  0  0  0  0
  1  9  1  6  0  0  0
  1  6  1  0  0  0  0
  2  3  1  1  0  0  0
  2 13  1  0  0  0  0
  2  5  1  0  0  0  0
  3  7  1  0  0  0  0
  4 11  1  0  0  0  0
  4  7  2  0  0  0  0
  5 14  1  6  0  0  0
  5 16  1  0  0  0  0
  8 23  1  1  0  0  0
  8 12  1  0  0  0  0
 10 19  1  0  0  0  0
 10 18  1  0  0  0  0
 12 16  1  0  0  0  0
 13 18  1  6  0  0  0
 13  8  1  0  0  0  0
 14  1  1  0  0  0  0
 15  4  1  0  0  0  0
 16 17  1  1  0  0  0
 17  6  1  0  0  0  0
 19  3  2  0  0  0  0
 20 15  2  0  0  0  0
 20 19  1  0  0  0  0
 21 22  2  0  0  0  0
 22 23  1  0  0  0  0
 24 28  1  0  0  0  0
 24 27  1  0  0  0  0
 25 28  1  0  0  0  0
 26 29  2  0  0  0  0
 29 30  1  0  0  0  0
 29 31  1  0  0  0  0
 30 22  1  1  0  0  0
 30 25  1  0  0  0  0
 31 24  1  0  0  0  0
M  END
>  <MODEL>
7

>  <REMARK>
 VINA RESULT:      -6.8      4.634      7.593
  Name = 
  2 active torsions:
  status: ('A' for Active; 'I' for Inactive)
    1  A    between atoms: C_5  and  C_30
    2  A    between atoms: C_10  and  N_16
                            x       y       z     vdW  Elec       q    Type
                         _______ _______ _______ _____ _____    ______ ____

>  <TORSDO>
F 2

$$$$
