=
 OpenBabel11122412043D

 34 41  0  0  1  0  0  0  0  0999 V2000
  187.8930  177.9130  140.7760 C   0  0  0  0  0  0  0  0  0  0  0  0
  186.2470  178.2310  138.8650 C   0  0  0  0  0  2  0  0  0  0  0  0
  189.5500  177.1630  147.3200 C   0  0  0  0  0  0  0  0  0  0  0  0
  189.2300  177.3150  142.6900 C   0  0  0  0  0  0  0  0  0  0  0  0
  188.3460  177.4160  144.9700 C   0  0  0  0  0  0  0  0  0  0  0  0
  187.5560  177.5040  147.5170 C   0  0  0  0  0  2  0  0  0  0  0  0
  188.6080  177.3090  148.4680 C   0  0  0  0  0  2  0  0  0  0  0  0
  191.4220  176.8530  145.8090 C   0  0  0  0  0  3  0  0  0  0  0  0
  185.6750  179.0790  141.0550 C   0  0  2  0  0  3  0  0  0  0  0  0
  182.6610  178.2540  141.9010 C   0  0  0  0  0  3  0  0  0  0  0  0
  186.9660  177.5710  144.3810 C   0  0  0  0  0  2  0  0  0  0  0  0
  190.8310  176.9750  144.6080 C   0  0  0  0  0  3  0  0  0  0  0  0
  185.5970  178.3980  142.4330 C   0  0  1  0  0  3  0  0  0  0  0  0
  184.8620  178.8520  138.7850 C   0  0  0  0  0  2  0  0  0  0  0  0
  189.4250  177.2330  144.1630 C   0  0  0  0  0  0  0  0  0  0  0  0
  190.8330  176.9380  147.1510 C   0  0  0  0  0  3  0  0  0  0  0  0
  183.4390  177.9130  140.6570 C   0  0  2  0  0  3  0  0  0  0  0  0
  188.0430  177.8450  142.1660 C   0  0  0  0  0  0  0  0  0  0  0  0
  188.4470  177.3710  146.3860 N   0  0  0  0  0  0  0  0  0  0  0  0
  186.9850  178.3950  143.0930 C   0  0  2  0  0  3  0  0  0  0  0  0
  190.0230  176.9310  140.4890 C   0  0  0  0  0  3  0  0  0  0  0  0
  183.1670  178.7490  143.0440 C   0  0  0  0  0  3  0  0  0  0  0  0
  190.1940  176.8720  141.8350 N   0  0  0  0  0  0  0  0  0  0  0  0
  184.5960  179.1560  143.2940 C   0  0  0  0  0  2  0  0  0  0  0  0
  184.3830  179.0520  140.2260 C   0  0  1  0  0  3  0  0  0  0  0  0
  188.8800  177.4450  139.9660 N   0  0  0  0  0  0  0  0  0  0  0  0
  186.6840  178.4470  140.2260 N   0  0  0  0  0  0  0  0  0  0  0  0
  182.5350  177.5990  139.6360 O   0  0  0  0  0  0  0  0  0  0  0  0
  181.2910  178.0140  140.1190 C   0  0  0  0  0  2  0  0  0  0  0  0
  181.4670  180.9990  138.2700 C   0  0  0  0  0  2  0  0  0  0  0  0
  181.2640  178.7550  137.7440 C   0  0  0  0  0  2  0  0  0  0  0  0
  180.6100  178.9080  139.0990 C   0  0  2  0  0  3  0  0  0  0  0  0
  181.3500  180.0790  137.1490 N   0  0  0  0  0  2  0  0  0  0  0  0
  180.8070  180.3560  139.4720 C   0  0  0  0  0  2  0  0  0  0  0  0
  1 18  1  0  0  0  0
  2 27  1  0  0  0  0
  3  7  1  0  0  0  0
  4 15  1  0  0  0  0
  5 19  1  0  0  0  0
  6  7  1  0  0  0  0
  8 16  1  0  0  0  0
  9 27  1  6  0  0  0
  9 13  1  0  0  0  0
 10 22  2  0  0  0  0
 11  5  1  0  0  0  0
 12  8  2  0  0  0  0
 13 20  1  0  0  0  0
 13 24  1  1  0  0  0
 14  2  1  0  0  0  0
 15 12  1  0  0  0  0
 15  5  2  0  0  0  0
 16  3  2  0  0  0  0
 17 28  1  6  0  0  0
 17 10  1  0  0  0  0
 18  4  2  0  0  0  0
 18 20  1  0  0  0  0
 19  3  1  0  0  0  0
 19  6  1  0  0  0  0
 20 11  1  1  0  0  0
 21 23  2  0  0  0  0
 22 24  1  0  0  0  0
 23  4  1  0  0  0  0
 25 14  1  6  0  0  0
 25 17  1  0  0  0  0
 25  9  1  0  0  0  0
 26 21  1  0  0  0  0
 26  1  2  0  0  0  0
 27  1  1  0  0  0  0
 28 29  1  0  0  0  0
 30 34  1  0  0  0  0
 31 32  1  0  0  0  0
 32 34  1  0  0  0  0
 32 29  1  1  0  0  0
 33 31  1  0  0  0  0
 33 30  1  0  0  0  0
M  END
>  <MODEL>
1

>  <REMARK>
 VINA RESULT:     -10.2      0.000      0.000
  Name = 
  3 active torsions:
  status: ('A' for Active; 'I' for Inactive)
    1  A    between atoms: C_17  and  O_28
    2  A    between atoms: O_28  and  C_29
    3  A    between atoms: C_29  and  C_32
                            x       y       z     vdW  Elec       q    Type
                         _______ _______ _______ _____ _____    ______ ____

>  <TORSDO>
F 3

$$$$
=
 OpenBabel11122412043D

 34 41  0  0  1  0  0  0  0  0999 V2000
  188.0770  177.7880  140.7460 C   0  0  0  0  0  0  0  0  0  0  0  0
  186.4890  178.1030  138.7860 C   0  0  0  0  0  2  0  0  0  0  0  0
  189.5480  177.1280  147.3440 C   0  0  0  0  0  0  0  0  0  0  0  0
  189.3520  177.1990  142.7060 C   0  0  0  0  0  0  0  0  0  0  0  0
  188.4100  177.3600  144.9590 C   0  0  0  0  0  0  0  0  0  0  0  0
  187.5560  177.5130  147.4820 C   0  0  0  0  0  2  0  0  0  0  0  0
  188.5790  177.3140  148.4640 C   0  0  0  0  0  2  0  0  0  0  0  0
  191.4510  176.7530  145.8890 C   0  0  0  0  0  3  0  0  0  0  0  0
  185.8780  179.0030  140.9450 C   0  0  2  0  0  3  0  0  0  0  0  0
  182.8260  178.2540  141.7260 C   0  0  0  0  0  3  0  0  0  0  0  0
  187.0500  177.5320  144.3310 C   0  0  0  0  0  2  0  0  0  0  0  0
  190.8940  176.8640  144.6710 C   0  0  0  0  0  3  0  0  0  0  0  0
  185.7500  178.3500  142.3330 C   0  0  1  0  0  3  0  0  0  0  0  0
  185.1190  178.7500  138.6590 C   0  0  0  0  0  2  0  0  0  0  0  0
  189.5060  177.1410  144.1840 C   0  0  0  0  0  0  0  0  0  0  0  0
  190.8300  176.8750  147.2130 C   0  0  0  0  0  3  0  0  0  0  0  0
  183.6290  177.8740  140.5090 C   0  0  2  0  0  3  0  0  0  0  0  0
  188.1900  177.7430  142.1410 C   0  0  0  0  0  0  0  0  0  0  0  0
  188.4740  177.3410  146.3770 N   0  0  0  0  0  0  0  0  0  0  0  0
  187.1190  178.3310  143.0290 C   0  0  2  0  0  3  0  0  0  0  0  0
  190.1940  176.7590  140.5330 C   0  0  0  0  0  3  0  0  0  0  0  0
  183.3120  178.7600  142.8720 C   0  0  0  0  0  3  0  0  0  0  0  0
  190.3280  176.7210  141.8840 N   0  0  0  0  0  0  0  0  0  0  0  0
  184.7420  179.1430  143.1520 C   0  0  0  0  0  2  0  0  0  0  0  0
  184.6070  178.9860  140.0830 C   0  0  1  0  0  3  0  0  0  0  0  0
  189.0760  177.2860  139.9700 N   0  0  0  0  0  0  0  0  0  0  0  0
  186.8940  178.3360  140.1550 N   0  0  0  0  0  0  0  0  0  0  0  0
  182.7460  177.5590  139.4710 O   0  0  0  0  0  0  0  0  0  0  0  0
  182.6790  176.1630  139.4690 C   0  0  0  0  0  2  0  0  0  0  0  0
  183.3330  176.8800  136.0900 C   0  0  0  0  0  2  0  0  0  0  0  0
  184.0510  175.2740  137.5930 C   0  0  0  0  0  2  0  0  0  0  0  0
  182.6560  175.6460  138.0420 C   0  0  2  0  0  3  0  0  0  0  0  0
  184.1990  175.7170  136.2160 N   0  0  0  0  0  2  0  0  0  0  0  0
  182.2180  176.7430  137.1050 C   0  0  0  0  0  2  0  0  0  0  0  0
  1 18  1  0  0  0  0
  2 27  1  0  0  0  0
  3  7  1  0  0  0  0
  4 15  1  0  0  0  0
  5 19  1  0  0  0  0
  6  7  1  0  0  0  0
  8 16  1  0  0  0  0
  9 27  1  6  0  0  0
  9 13  1  0  0  0  0
 10 22  2  0  0  0  0
 11  5  1  0  0  0  0
 12  8  2  0  0  0  0
 13 20  1  0  0  0  0
 13 24  1  1  0  0  0
 14  2  1  0  0  0  0
 15 12  1  0  0  0  0
 15  5  2  0  0  0  0
 16  3  2  0  0  0  0
 17 28  1  6  0  0  0
 17 10  1  0  0  0  0
 18  4  2  0  0  0  0
 18 20  1  0  0  0  0
 19  3  1  0  0  0  0
 19  6  1  0  0  0  0
 20 11  1  1  0  0  0
 21 23  2  0  0  0  0
 22 24  1  0  0  0  0
 23  4  1  0  0  0  0
 25 14  1  6  0  0  0
 25 17  1  0  0  0  0
 25  9  1  0  0  0  0
 26 21  1  0  0  0  0
 26  1  2  0  0  0  0
 27  1  1  0  0  0  0
 29 28  1  0  0  0  0
 30 33  1  0  0  0  0
 30 34  1  0  0  0  0
 31 32  1  0  0  0  0
 32 29  1  1  0  0  0
 33 31  1  0  0  0  0
 34 32  1  0  0  0  0
M  END
>  <MODEL>
2

>  <REMARK>
 VINA RESULT:     -10.2      1.548      1.852
  Name = 
  3 active torsions:
  status: ('A' for Active; 'I' for Inactive)
    1  A    between atoms: C_17  and  O_28
    2  A    between atoms: O_28  and  C_29
    3  A    between atoms: C_29  and  C_32
                            x       y       z     vdW  Elec       q    Type
                         _______ _______ _______ _____ _____    ______ ____

>  <TORSDO>
F 3

$$$$
=
 OpenBabel11122412043D

 34 41  0  0  1  0  0  0  0  0999 V2000
  187.9450  177.8090  140.6750 C   0  0  0  0  0  0  0  0  0  0  0  0
  186.2860  178.1380  138.7770 C   0  0  0  0  0  2  0  0  0  0  0  0
  189.6590  177.1440  147.2140 C   0  0  0  0  0  0  0  0  0  0  0  0
  189.2860  177.2090  142.5860 C   0  0  0  0  0  0  0  0  0  0  0  0
  188.4340  177.3850  144.8730 C   0  0  0  0  0  0  0  0  0  0  0  0
  187.6780  177.5510  147.4270 C   0  0  0  0  0  2  0  0  0  0  0  0
  188.7350  177.3430  148.3700 C   0  0  0  0  0  2  0  0  0  0  0  0
  191.5010  176.7440  145.6880 C   0  0  0  0  0  3  0  0  0  0  0  0
  185.7680  179.0490  140.9550 C   0  0  2  0  0  3  0  0  0  0  0  0
  182.7400  178.3360  141.8540 C   0  0  0  0  0  3  0  0  0  0  0  0
  187.0520  177.5710  144.2970 C   0  0  0  0  0  2  0  0  0  0  0  0
  190.8990  176.8590  144.4910 C   0  0  0  0  0  3  0  0  0  0  0  0
  185.6860  178.4000  142.3480 C   0  0  1  0  0  3  0  0  0  0  0  0
  184.9200  178.8000  138.7010 C   0  0  0  0  0  2  0  0  0  0  0  0
  189.4960  177.1510  144.0580 C   0  0  0  0  0  0  0  0  0  0  0  0
  190.9320  176.8750  147.0340 C   0  0  0  0  0  3  0  0  0  0  0  0
  183.4920  177.9460  140.6080 C   0  0  2  0  0  3  0  0  0  0  0  0
  188.1100  177.7650  142.0650 C   0  0  0  0  0  0  0  0  0  0  0  0
  188.5510  177.3670  146.2890 N   0  0  0  0  0  0  0  0  0  0  0  0
  187.0810  178.3670  142.9920 C   0  0  2  0  0  3  0  0  0  0  0  0
  190.0400  176.7550  140.3840 C   0  0  0  0  0  3  0  0  0  0  0  0
  183.2750  178.8390  142.9800 C   0  0  0  0  0  3  0  0  0  0  0  0
  190.2250  176.7180  141.7290 N   0  0  0  0  0  0  0  0  0  0  0  0
  184.7190  179.2060  143.2050 C   0  0  0  0  0  2  0  0  0  0  0  0
  184.4650  179.0450  140.1430 C   0  0  1  0  0  3  0  0  0  0  0  0
  188.9070  177.2940  139.8630 N   0  0  0  0  0  0  0  0  0  0  0  0
  186.7460  178.3690  140.1290 N   0  0  0  0  0  0  0  0  0  0  0  0
  182.5660  177.6390  139.6050 O   0  0  0  0  0  0  0  0  0  0  0  0
  181.3730  178.2340  140.0240 C   0  0  0  0  0  2  0  0  0  0  0  0
  180.0240  175.0000  140.3040 C   0  0  0  0  0  2  0  0  0  0  0  0
  179.3440  177.1180  140.9360 C   0  0  0  0  0  2  0  0  0  0  0  0
  180.2000  177.3240  139.7070 C   0  0  2  0  0  3  0  0  0  0  0  0
  178.9440  175.7210  140.9610 N   0  0  0  0  0  2  0  0  0  0  0  0
  180.7000  175.9500  139.3390 C   0  0  0  0  0  2  0  0  0  0  0  0
  1 18  1  0  0  0  0
  2 27  1  0  0  0  0
  3  7  1  0  0  0  0
  4 15  1  0  0  0  0
  5 19  1  0  0  0  0
  6  7  1  0  0  0  0
  8 16  1  0  0  0  0
  9 27  1  6  0  0  0
  9 13  1  0  0  0  0
 10 22  2  0  0  0  0
 11  5  1  0  0  0  0
 12  8  2  0  0  0  0
 13 20  1  0  0  0  0
 13 24  1  1  0  0  0
 14  2  1  0  0  0  0
 15 12  1  0  0  0  0
 15  5  2  0  0  0  0
 16  3  2  0  0  0  0
 17 28  1  6  0  0  0
 17 10  1  0  0  0  0
 18  4  2  0  0  0  0
 18 20  1  0  0  0  0
 19  3  1  0  0  0  0
 19  6  1  0  0  0  0
 20 11  1  1  0  0  0
 21 23  2  0  0  0  0
 22 24  1  0  0  0  0
 23  4  1  0  0  0  0
 25 14  1  6  0  0  0
 25 17  1  0  0  0  0
 25  9  1  0  0  0  0
 26 21  1  0  0  0  0
 26  1  2  0  0  0  0
 27  1  1  0  0  0  0
 28 29  1  0  0  0  0
 30 33  1  0  0  0  0
 31 33  1  0  0  0  0
 32 29  1  1  0  0  0
 32 31  1  0  0  0  0
 34 32  1  0  0  0  0
 34 30  1  0  0  0  0
M  END
>  <MODEL>
3

>  <REMARK>
 VINA RESULT:     -10.2      1.364      1.888
  Name = 
  3 active torsions:
  status: ('A' for Active; 'I' for Inactive)
    1  A    between atoms: C_17  and  O_28
    2  A    between atoms: O_28  and  C_29
    3  A    between atoms: C_29  and  C_32
                            x       y       z     vdW  Elec       q    Type
                         _______ _______ _______ _____ _____    ______ ____

>  <TORSDO>
F 3

$$$$
=
 OpenBabel11122412043D

 34 41  0  0  1  0  0  0  0  0999 V2000
  187.6830  177.9850  140.7620 C   0  0  0  0  0  0  0  0  0  0  0  0
  186.0480  178.2910  138.8400 C   0  0  0  0  0  2  0  0  0  0  0  0
  189.3020  177.2740  147.3210 C   0  0  0  0  0  0  0  0  0  0  0  0
  189.0090  177.3980  142.6880 C   0  0  0  0  0  0  0  0  0  0  0  0
  188.1110  177.5120  144.9620 C   0  0  0  0  0  0  0  0  0  0  0  0
  187.3060  177.6150  147.5040 C   0  0  0  0  0  2  0  0  0  0  0  0
  188.3520  177.4260  148.4620 C   0  0  0  0  0  2  0  0  0  0  0  0
  191.1820  176.9550  145.8230 C   0  0  0  0  0  3  0  0  0  0  0  0
  185.4630  179.1520  141.0220 C   0  0  2  0  0  3  0  0  0  0  0  0
  182.4440  178.3310  141.8550 C   0  0  0  0  0  3  0  0  0  0  0  0
  186.7340  177.6640  144.3640 C   0  0  0  0  0  2  0  0  0  0  0  0
  190.5980  177.0700  144.6170 C   0  0  0  0  0  3  0  0  0  0  0  0
  185.3770  178.4790  142.4030 C   0  0  1  0  0  3  0  0  0  0  0  0
  184.6630  178.9110  138.7490 C   0  0  0  0  0  2  0  0  0  0  0  0
  189.1950  177.3250  144.1630 C   0  0  0  0  0  0  0  0  0  0  0  0
  190.5860  177.0480  147.1600 C   0  0  0  0  0  3  0  0  0  0  0  0
  183.2300  177.9830  140.6170 C   0  0  2  0  0  3  0  0  0  0  0  0
  187.8240  177.9250  142.1540 C   0  0  0  0  0  0  0  0  0  0  0  0
  188.2040  177.4760  146.3790 N   0  0  0  0  0  0  0  0  0  0  0  0
  186.7610  178.4800  143.0720 C   0  0  2  0  0  3  0  0  0  0  0  0
  189.8150  177.0020  140.4930 C   0  0  0  0  0  3  0  0  0  0  0  0
  182.9430  178.8330  142.9980 C   0  0  0  0  0  3  0  0  0  0  0  0
  189.9770  176.9500  141.8410 N   0  0  0  0  0  0  0  0  0  0  0  0
  184.3700  179.2410  143.2540 C   0  0  0  0  0  2  0  0  0  0  0  0
  184.1760  179.1200  140.1860 C   0  0  1  0  0  3  0  0  0  0  0  0
  188.6740  177.5130  139.9610 N   0  0  0  0  0  0  0  0  0  0  0  0
  186.4770  178.5160  140.2030 N   0  0  0  0  0  0  0  0  0  0  0  0
  182.3320  177.6620  139.5930 O   0  0  0  0  0  0  0  0  0  0  0  0
  182.3010  176.2650  139.5680 C   0  0  0  0  0  2  0  0  0  0  0  0
  181.3780  173.6800  137.3720 C   0  0  0  0  0  2  0  0  0  0  0  0
  180.3550  174.7750  139.1350 C   0  0  0  0  0  2  0  0  0  0  0  0
  181.3020  175.7870  138.5300 C   0  0  2  0  0  3  0  0  0  0  0  0
  180.1480  173.7280  138.1480 N   0  0  0  0  0  2  0  0  0  0  0  0
  182.0190  175.0500  137.4270 C   0  0  0  0  0  2  0  0  0  0  0  0
  1 18  1  0  0  0  0
  2 27  1  0  0  0  0
  3  7  1  0  0  0  0
  4 15  1  0  0  0  0
  5 19  1  0  0  0  0
  6  7  1  0  0  0  0
  8 16  1  0  0  0  0
  9 27  1  6  0  0  0
  9 13  1  0  0  0  0
 10 22  2  0  0  0  0
 11  5  1  0  0  0  0
 12  8  2  0  0  0  0
 13 20  1  0  0  0  0
 13 24  1  1  0  0  0
 14  2  1  0  0  0  0
 15 12  1  0  0  0  0
 15  5  2  0  0  0  0
 16  3  2  0  0  0  0
 17 28  1  6  0  0  0
 17 10  1  0  0  0  0
 18  4  2  0  0  0  0
 18 20  1  0  0  0  0
 19  3  1  0  0  0  0
 19  6  1  0  0  0  0
 20 11  1  1  0  0  0
 21 23  2  0  0  0  0
 22 24  1  0  0  0  0
 23  4  1  0  0  0  0
 25 14  1  6  0  0  0
 25 17  1  0  0  0  0
 25  9  1  0  0  0  0
 26 21  1  0  0  0  0
 26  1  2  0  0  0  0
 27  1  1  0  0  0  0
 29 28  1  0  0  0  0
 30 34  1  0  0  0  0
 30 33  1  0  0  0  0
 32 31  1  0  0  0  0
 32 29  1  1  0  0  0
 33 31  1  0  0  0  0
 34 32  1  0  0  0  0
M  END
>  <MODEL>
4

>  <REMARK>
 VINA RESULT:      -9.8      1.790      2.210
  Name = 
  3 active torsions:
  status: ('A' for Active; 'I' for Inactive)
    1  A    between atoms: C_17  and  O_28
    2  A    between atoms: O_28  and  C_29
    3  A    between atoms: C_29  and  C_32
                            x       y       z     vdW  Elec       q    Type
                         _______ _______ _______ _____ _____    ______ ____

>  <TORSDO>
F 3

$$$$
=
 OpenBabel11122412043D

 34 41  0  0  1  0  0  0  0  0999 V2000
  190.0370  177.4740  141.0550 C   0  0  0  0  0  0  0  0  0  0  0  0
  190.3390  177.2760  138.5390 C   0  0  0  0  0  2  0  0  0  0  0  0
  186.3300  178.1780  146.7030 C   0  0  0  0  0  0  0  0  0  0  0  0
  189.4940  177.3740  143.4020 C   0  0  0  0  0  0  0  0  0  0  0  0
  187.2450  177.8620  144.2330 C   0  0  0  0  0  0  0  0  0  0  0  0
  184.8650  178.3990  145.3110 C   0  0  0  0  0  2  0  0  0  0  0  0
  184.8680  178.4790  146.7410 C   0  0  0  0  0  2  0  0  0  0  0  0
  188.6700  177.7140  147.1370 C   0  0  0  0  0  3  0  0  0  0  0  0
  188.4400  178.5000  139.3970 C   0  0  2  0  0  3  0  0  0  0  0  0
  185.6960  177.6360  137.9100 C   0  0  0  0  0  3  0  0  0  0  0  0
  186.7510  177.7920  142.8100 C   0  0  0  0  0  2  0  0  0  0  0  0
  189.1540  177.5470  145.8940 C   0  0  0  0  0  3  0  0  0  0  0  0
  187.3180  178.1060  140.3740 C   0  0  1  0  0  3  0  0  0  0  0  0
  189.5160  177.7620  137.3570 C   0  0  0  0  0  2  0  0  0  0  0  0
  188.5480  177.6030  144.5260 C   0  0  0  0  0  0  0  0  0  0  0  0
  187.3030  178.0210  147.5710 C   0  0  0  0  0  3  0  0  0  0  0  0
  187.0980  177.1120  137.7260 C   0  0  2  0  0  3  0  0  0  0  0  0
  189.1200  177.6970  142.0900 C   0  0  0  0  0  0  0  0  0  0  0  0
  186.2800  178.1100  145.2450 N   0  0  0  0  0  0  0  0  0  0  0  0
  187.7810  178.3400  141.8210 C   0  0  2  0  0  3  0  0  0  0  0  0
  191.5980  176.6180  142.6090 C   0  0  0  0  0  3  0  0  0  0  0  0
  185.2570  178.3870  138.9340 C   0  0  0  0  0  3  0  0  0  0  0  0
  190.7290  176.8430  143.6290 N   0  0  0  0  0  0  0  0  0  0  0  0
  186.0850  178.9420  140.0630 C   0  0  0  0  0  2  0  0  0  0  0  0
  188.1620  178.2100  137.9150 C   0  0  1  0  0  3  0  0  0  0  0  0
  191.2510  176.9290  141.3330 N   0  0  0  0  0  0  0  0  0  0  0  0
  189.6670  177.7940  139.7100 N   0  0  0  0  0  0  0  0  0  0  0  0
  187.1960  176.5320  136.4570 O   0  0  0  0  0  0  0  0  0  0  0  0
  186.2730  175.4820  136.4700 C   0  0  0  0  0  2  0  0  0  0  0  0
  189.0320  173.3380  136.8560 C   0  0  0  0  0  2  0  0  0  0  0  0
  186.7380  173.1080  137.0520 C   0  0  0  0  0  2  0  0  0  0  0  0
  186.9440  174.1960  136.0230 C   0  0  2  0  0  3  0  0  0  0  0  0
  187.9870  172.3730  137.1660 N   0  0  0  0  0  2  0  0  0  0  0  0
  188.4370  174.3940  135.9490 C   0  0  0  0  0  2  0  0  0  0  0  0
  1 26  2  0  0  0  0
  1 18  1  0  0  0  0
  2 27  1  0  0  0  0
  3  7  1  0  0  0  0
  3 16  2  0  0  0  0
  4 23  1  0  0  0  0
  4 15  1  0  0  0  0
  5 15  2  0  0  0  0
  5 19  1  0  0  0  0
  6  7  1  0  0  0  0
  8 16  1  0  0  0  0
  9 27  1  1  0  0  0
  9 13  1  0  0  0  0
 10 22  2  0  0  0  0
 11  5  1  0  0  0  0
 12  8  2  0  0  0  0
 13 24  1  6  0  0  0
 13 20  1  0  0  0  0
 14  2  1  0  0  0  0
 15 12  1  0  0  0  0
 17 28  1  6  0  0  0
 17 10  1  0  0  0  0
 17 25  1  0  0  0  0
 18  4  2  0  0  0  0
 19  6  1  0  0  0  0
 19  3  1  0  0  0  0
 20 18  1  0  0  0  0
 20 11  1  1  0  0  0
 21 23  2  0  0  0  0
 22 24  1  0  0  0  0
 25 14  1  1  0  0  0
 25  9  1  0  0  0  0
 26 21  1  0  0  0  0
 27  1  1  0  0  0  0
 28 29  1  0  0  0  0
 30 33  1  0  0  0  0
 31 33  1  0  0  0  0
 32 29  1  1  0  0  0
 32 31  1  0  0  0  0
 34 32  1  0  0  0  0
 34 30  1  0  0  0  0
M  END
>  <MODEL>
5

>  <REMARK>
 VINA RESULT:      -9.5      2.958      4.920
  Name = 
  3 active torsions:
  status: ('A' for Active; 'I' for Inactive)
    1  A    between atoms: C_17  and  O_28
    2  A    between atoms: O_28  and  C_29
    3  A    between atoms: C_29  and  C_32
                            x       y       z     vdW  Elec       q    Type
                         _______ _______ _______ _____ _____    ______ ____

>  <TORSDO>
F 3

$$$$
=
 OpenBabel11122412043D

 34 41  0  0  1  0  0  0  0  0999 V2000
  190.8730  177.3130  143.1860 C   0  0  0  0  0  0  0  0  0  0  0  0
  192.5930  176.7530  141.4010 C   0  0  0  0  0  2  0  0  0  0  0  0
  184.5680  178.5600  145.3870 C   0  0  0  0  0  0  0  0  0  0  0  0
  189.0520  177.5340  144.7510 C   0  0  0  0  0  0  0  0  0  0  0  0
  186.7550  177.9440  144.0160 C   0  0  0  0  0  0  0  0  0  0  0  0
  184.2070  178.4300  143.3910 C   0  0  0  0  0  2  0  0  0  0  0  0
  183.3710  178.7320  144.5130 C   0  0  0  0  0  2  0  0  0  0  0  0
  186.1970  178.3780  147.1760 C   0  0  0  0  0  3  0  0  0  0  0  0
  190.5770  177.9230  140.7590 C   0  0  2  0  0  3  0  0  0  0  0  0
  189.2150  176.5960  138.1370 C   0  0  0  0  0  3  0  0  0  0  0  0
  187.1910  177.6090  142.6110 C   0  0  0  0  0  2  0  0  0  0  0  0
  187.3160  178.0630  146.5000 C   0  0  0  0  0  3  0  0  0  0  0  0
  189.0880  177.5880  140.9520 C   0  0  1  0  0  3  0  0  0  0  0  0
  192.6320  176.9730  139.8970 C   0  0  0  0  0  2  0  0  0  0  0  0
  187.6300  177.8510  145.0520 C   0  0  0  0  0  0  0  0  0  0  0  0
  184.8420  178.6280  146.6700 C   0  0  0  0  0  3  0  0  0  0  0  0
  190.4460  176.1770  138.9000 C   0  0  2  0  0  3  0  0  0  0  0  0
  189.5280  177.6130  143.4350 C   0  0  0  0  0  0  0  0  0  0  0  0
  185.3840  178.2610  144.2140 N   0  0  0  0  0  0  0  0  0  0  0  0
  188.6160  178.0850  142.3280 C   0  0  2  0  0  3  0  0  0  0  0  0
  191.2040  176.8530  145.4810 C   0  0  0  0  0  3  0  0  0  0  0  0
  188.2730  177.4560  138.5600 C   0  0  0  0  0  3  0  0  0  0  0  0
  189.9060  177.1560  145.7440 N   0  0  0  0  0  0  0  0  0  0  0  0
  188.2900  178.2530  139.8390 C   0  0  0  0  0  2  0  0  0  0  0  0
  191.2180  177.3810  139.4720 C   0  0  1  0  0  3  0  0  0  0  0  0
  191.6800  176.9290  144.2110 N   0  0  0  0  0  0  0  0  0  0  0  0
  191.3710  177.3850  141.8460 N   0  0  0  0  0  0  0  0  0  0  0  0
  191.2590  175.4170  138.0530 O   0  0  0  0  0  0  0  0  0  0  0  0
  191.2200  176.0830  136.8240 C   0  0  0  0  0  2  0  0  0  0  0  0
  194.6340  175.2530  136.6940 C   0  0  0  0  0  2  0  0  0  0  0  0
  192.6620  174.1620  136.1730 C   0  0  0  0  0  2  0  0  0  0  0  0
  192.3760  175.6300  135.9510 C   0  0  2  0  0  3  0  0  0  0  0  0
  194.1050  173.9950  136.1870 N   0  0  0  0  0  2  0  0  0  0  0  0
  193.6400  176.3450  136.3600 C   0  0  0  0  0  2  0  0  0  0  0  0
  1 18  2  0  0  0  0
  1 26  1  0  0  0  0
  2 27  1  0  0  0  0
  3 16  2  0  0  0  0
  4 15  1  0  0  0  0
  4 23  2  0  0  0  0
  5 19  1  0  0  0  0
  5 15  2  0  0  0  0
  6 19  1  0  0  0  0
  6  7  1  0  0  0  0
  7  3  1  0  0  0  0
  9 13  1  0  0  0  0
  9 27  1  1  0  0  0
 10 22  2  0  0  0  0
 10 17  1  0  0  0  0
 11  5  1  0  0  0  0
 12  8  2  0  0  0  0
 13 24  1  6  0  0  0
 13 20  1  0  0  0  0
 14  2  1  0  0  0  0
 15 12  1  0  0  0  0
 16  8  1  0  0  0  0
 17 28  1  6  0  0  0
 17 25  1  0  0  0  0
 18  4  1  0  0  0  0
 19  3  1  0  0  0  0
 20 11  1  1  0  0  0
 20 18  1  0  0  0  0
 21 23  1  0  0  0  0
 22 24  1  0  0  0  0
 25 14  1  1  0  0  0
 25  9  1  0  0  0  0
 26 21  2  0  0  0  0
 27  1  1  0  0  0  0
 29 28  1  0  0  0  0
 31 33  1  0  0  0  0
 32 31  1  0  0  0  0
 32 34  1  0  0  0  0
 32 29  1  1  0  0  0
 33 30  1  0  0  0  0
 34 30  1  0  0  0  0
M  END
>  <MODEL>
6

>  <REMARK>
 VINA RESULT:      -9.3      3.531      7.360
  Name = 
  3 active torsions:
  status: ('A' for Active; 'I' for Inactive)
    1  A    between atoms: C_17  and  O_28
    2  A    between atoms: O_28  and  C_29
    3  A    between atoms: C_29  and  C_32
                            x       y       z     vdW  Elec       q    Type
                         _______ _______ _______ _____ _____    ______ ____

>  <TORSDO>
F 3

$$$$
=
 OpenBabel11122412043D

 34 41  0  0  1  0  0  0  0  0999 V2000
  190.2670  177.2010  141.7360 C   0  0  0  0  0  0  0  0  0  0  0  0
  191.3200  176.6950  139.4790 C   0  0  0  0  0  2  0  0  0  0  0  0
  185.0440  178.6640  145.8260 C   0  0  0  0  0  0  0  0  0  0  0  0
  189.0210  177.3970  143.7910 C   0  0  0  0  0  0  0  0  0  0  0  0
  186.6580  178.0320  143.8170 C   0  0  0  0  0  0  0  0  0  0  0  0
  184.0970  178.7490  144.0290 C   0  0  0  0  0  2  0  0  0  0  0  0
  183.6630  179.0000  145.3700 C   0  0  0  0  0  2  0  0  0  0  0  0
  187.1040  178.2030  147.0190 C   0  0  0  0  0  3  0  0  0  0  0  0
  189.3240  178.0560  139.5610 C   0  0  2  0  0  3  0  0  0  0  0  0
  187.1280  177.0800  137.3900 C   0  0  0  0  0  3  0  0  0  0  0  0
  186.6240  177.8020  142.3270 C   0  0  0  0  0  2  0  0  0  0  0  0
  187.9380  177.8770  146.0160 C   0  0  0  0  0  3  0  0  0  0  0  0
  187.9340  177.8070  140.1730 C   0  0  1  0  0  3  0  0  0  0  0  0
  190.9330  177.0530  138.0530 C   0  0  0  0  0  2  0  0  0  0  0  0
  187.7880  177.7820  144.5300 C   0  0  0  0  0  0  0  0  0  0  0  0
  185.6900  178.5910  146.9670 C   0  0  0  0  0  3  0  0  0  0  0  0
  188.4850  176.5070  137.7120 C   0  0  2  0  0  3  0  0  0  0  0  0
  189.0900  177.5680  142.4010 C   0  0  0  0  0  0  0  0  0  0  0  0
  185.4440  178.4220  144.4420 N   0  0  0  0  0  0  0  0  0  0  0  0
  187.9400  178.2040  141.6580 C   0  0  2  0  0  3  0  0  0  0  0  0
  191.2180  176.5040  143.7850 C   0  0  0  0  0  3  0  0  0  0  0  0
  186.4390  177.9590  138.1370 C   0  0  0  0  0  3  0  0  0  0  0  0
  190.0910  176.8700  144.4490 N   0  0  0  0  0  0  0  0  0  0  0  0
  186.9090  178.6280  139.4030 C   0  0  0  0  0  2  0  0  0  0  0  0
  189.5010  177.5960  138.1060 C   0  0  1  0  0  3  0  0  0  0  0  0
  191.3020  176.6670  142.4390 N   0  0  0  0  0  0  0  0  0  0  0  0
  190.3500  177.3650  140.3170 N   0  0  0  0  0  0  0  0  0  0  0  0
  188.9350  175.7770  136.6080 O   0  0  0  0  0  0  0  0  0  0  0  0
  187.7940  175.1440  136.1060 C   0  0  0  0  0  2  0  0  0  0  0  0
  185.8280  172.2520  136.4580 C   0  0  0  0  0  2  0  0  0  0  0  0
  187.8470  172.7460  135.4430 C   0  0  0  0  0  2  0  0  0  0  0  0
  187.7350  173.7110  136.6020 C   0  0  2  0  0  3  0  0  0  0  0  0
  186.9120  171.6610  135.6870 N   0  0  0  0  0  2  0  0  0  0  0  0
  186.3870  173.4350  137.2180 C   0  0  0  0  0  2  0  0  0  0  0  0
  1 18  2  0  0  0  0
  1 26  1  0  0  0  0
  2 27  1  0  0  0  0
  3 16  2  0  0  0  0
  4 23  2  0  0  0  0
  4 15  1  0  0  0  0
  5 19  1  0  0  0  0
  5 15  2  0  0  0  0
  6 19  1  0  0  0  0
  6  7  1  0  0  0  0
  7  3  1  0  0  0  0
  9 13  1  0  0  0  0
  9 27  1  1  0  0  0
 10 17  1  0  0  0  0
 10 22  2  0  0  0  0
 11  5  1  0  0  0  0
 12  8  2  0  0  0  0
 13 24  1  6  0  0  0
 13 20  1  0  0  0  0
 14  2  1  0  0  0  0
 15 12  1  0  0  0  0
 16  8  1  0  0  0  0
 17 28  1  6  0  0  0
 17 25  1  0  0  0  0
 18  4  1  0  0  0  0
 19  3  1  0  0  0  0
 20 11  1  1  0  0  0
 20 18  1  0  0  0  0
 21 23  1  0  0  0  0
 22 24  1  0  0  0  0
 25 14  1  1  0  0  0
 25  9  1  0  0  0  0
 26 21  2  0  0  0  0
 27  1  1  0  0  0  0
 29 28  1  0  0  0  0
 30 34  1  0  0  0  0
 31 33  1  0  0  0  0
 31 32  1  0  0  0  0
 32 29  1  6  0  0  0
 32 34  1  0  0  0  0
 33 30  1  0  0  0  0
M  END
>  <MODEL>
7

>  <REMARK>
 VINA RESULT:      -9.3      3.333      5.620
  Name = 
  3 active torsions:
  status: ('A' for Active; 'I' for Inactive)
    1  A    between atoms: C_17  and  O_28
    2  A    between atoms: O_28  and  C_29
    3  A    between atoms: C_29  and  C_32
                            x       y       z     vdW  Elec       q    Type
                         _______ _______ _______ _____ _____    ______ ____

>  <TORSDO>
F 3

$$$$
=
 OpenBabel11122412043D

 34 41  0  0  1  0  0  0  0  0999 V2000
  182.2660  178.7600  143.5960 C   0  0  0  0  0  0  0  0  0  0  0  0
  183.8050  178.7710  145.6190 C   0  0  0  0  0  2  0  0  0  0  0  0
  180.9160  178.0500  136.9770 C   0  0  0  0  0  0  0  0  0  0  0  0
  180.9520  178.4010  141.6070 C   0  0  0  0  0  0  0  0  0  0  0  0
  181.9840  178.1350  139.4040 C   0  0  0  0  0  0  0  0  0  0  0  0
  182.9400  177.8650  136.9280 C   0  0  0  0  0  2  0  0  0  0  0  0
  181.9400  177.8820  135.9040 C   0  0  0  0  0  2  0  0  0  0  0  0
  178.9310  178.3140  138.3440 C   0  0  0  0  0  3  0  0  0  0  0  0
  184.7210  179.3110  143.4480 C   0  0  2  0  0  3  0  0  0  0  0  0
  187.4750  177.7030  142.8840 C   0  0  0  0  0  3  0  0  0  0  0  0
  183.3150  177.9740  140.0950 C   0  0  0  0  0  2  0  0  0  0  0  0
  179.4510  178.3570  139.5830 C   0  0  0  0  0  3  0  0  0  0  0  0
  184.7160  178.5490  142.1110 C   0  0  1  0  0  3  0  0  0  0  0  0
  185.2950  179.0270  145.7840 C   0  0  0  0  0  2  0  0  0  0  0  0
  180.8420  178.2800  140.1280 C   0  0  0  0  0  0  0  0  0  0  0  0
  179.6100  178.1660  137.0520 C   0  0  0  0  0  3  0  0  0  0  0  0
  186.5530  177.6470  144.0750 C   0  0  2  0  0  3  0  0  0  0  0  0
  182.1970  178.6460  142.2020 C   0  0  0  0  0  0  0  0  0  0  0  0
  181.9700  178.0310  137.9880 N   0  0  0  0  0  0  0  0  0  0  0  0
  183.4200  178.8540  141.3410 C   0  0  2  0  0  3  0  0  0  0  0  0
  179.9410  178.3660  143.7520 C   0  0  0  0  0  3  0  0  0  0  0  0
  187.1900  178.2390  141.6840 C   0  0  0  0  0  3  0  0  0  0  0  0
  179.8520  178.2680  142.4000 N   0  0  0  0  0  0  0  0  0  0  0  0
  185.9330  178.9760  141.3030 C   0  0  0  0  0  2  0  0  0  0  0  0
  185.9050  179.0110  144.3790 C   0  0  1  0  0  3  0  0  0  0  0  0
  181.1400  178.6070  144.3430 N   0  0  0  0  0  0  0  0  0  0  0  0
  183.5310  179.0060  144.2180 N   0  0  0  0  0  0  0  0  0  0  0  0
  187.2760  177.1780  145.1770 O   0  0  0  0  0  0  0  0  0  0  0  0
  188.5760  176.9920  144.7010 C   0  0  0  0  0  2  0  0  0  0  0  0
  190.8540  176.5580  147.3430 C   0  0  0  0  0  2  0  0  0  0  0  0
  190.9870  177.3760  145.1840 C   0  0  0  0  0  2  0  0  0  0  0  0
  189.5710  177.6600  145.6320 C   0  0  2  0  0  3  0  0  0  0  0  0
  191.7800  177.1260  146.3760 N   0  0  0  0  0  2  0  0  0  0  0  0
  189.4660  177.0620  147.0120 C   0  0  0  0  0  2  0  0  0  0  0  0
  1 27  1  0  0  0  0
  1 26  1  0  0  0  0
  2 14  1  0  0  0  0
  3 16  2  0  0  0  0
  3 19  1  0  0  0  0
  4 18  1  0  0  0  0
  4 23  2  0  0  0  0
  5 11  1  0  0  0  0
  5 15  2  0  0  0  0
  6 19  1  0  0  0  0
  7  6  1  0  0  0  0
  7  3  1  0  0  0  0
  8 12  2  0  0  0  0
  9 27  1  1  0  0  0
  9 25  1  0  0  0  0
 10 17  1  0  0  0  0
 12 15  1  0  0  0  0
 13 24  1  6  0  0  0
 13  9  1  0  0  0  0
 15  4  1  0  0  0  0
 16  8  1  0  0  0  0
 17 25  1  0  0  0  0
 17 28  1  1  0  0  0
 18  1  2  0  0  0  0
 19  5  1  0  0  0  0
 20 11  1  6  0  0  0
 20 13  1  0  0  0  0
 20 18  1  0  0  0  0
 21 26  2  0  0  0  0
 22 10  2  0  0  0  0
 23 21  1  0  0  0  0
 24 22  1  0  0  0  0
 25 14  1  1  0  0  0
 27  2  1  0  0  0  0
 29 28  1  0  0  0  0
 31 32  1  0  0  0  0
 31 33  1  0  0  0  0
 32 29  1  6  0  0  0
 32 34  1  0  0  0  0
 33 30  1  0  0  0  0
 34 30  1  0  0  0  0
M  END
>  <MODEL>
8

>  <REMARK>
 VINA RESULT:      -9.1      2.635      9.482
  Name = 
  3 active torsions:
  status: ('A' for Active; 'I' for Inactive)
    1  A    between atoms: C_17  and  O_28
    2  A    between atoms: O_28  and  C_29
    3  A    between atoms: C_29  and  C_32
                            x       y       z     vdW  Elec       q    Type
                         _______ _______ _______ _____ _____    ______ ____

>  <TORSDO>
F 3

$$$$
=
 OpenBabel11122412043D

 34 41  0  0  1  0  0  0  0  0999 V2000
  183.1790  178.7580  143.5370 C   0  0  0  0  0  0  0  0  0  0  0  0
  180.9130  179.5570  142.7060 C   0  0  0  0  0  2  0  0  0  0  0  0
  189.7040  177.0550  142.7250 C   0  0  0  0  0  0  0  0  0  0  0  0
  185.4680  178.3150  144.1490 C   0  0  0  0  0  0  0  0  0  0  0  0
  187.1970  177.8870  142.4720 C   0  0  0  0  0  0  0  0  0  0  0  0
  189.1940  177.3630  140.7820 C   0  0  0  0  0  2  0  0  0  0  0  0
  190.4010  176.9210  141.4120 C   0  0  0  0  0  2  0  0  0  0  0  0
  189.0070  177.1270  145.0470 C   0  0  0  0  0  3  0  0  0  0  0  0
  182.3690  178.3760  141.1800 C   0  0  2  0  0  3  0  0  0  0  0  0
  182.5890  179.8950  138.3290 C   0  0  0  0  0  3  0  0  0  0  0  0
  186.2350  178.3740  141.4180 C   0  0  0  0  0  2  0  0  0  0  0  0
  187.7350  177.5500  144.9410 C   0  0  0  0  0  3  0  0  0  0  0  0
  183.8210  178.6310  140.7390 C   0  0  1  0  0  3  0  0  0  0  0  0
  180.2230  179.4850  141.3540 C   0  0  0  0  0  2  0  0  0  0  0  0
  186.8540  177.9140  143.7870 C   0  0  0  0  0  0  0  0  0  0  0  0
  189.9960  176.8740  143.9930 C   0  0  0  0  0  3  0  0  0  0  0  0
  181.8340  180.2870  139.5740 C   0  0  2  0  0  3  0  0  0  0  0  0
  184.4750  178.3830  143.1620 C   0  0  0  0  0  0  0  0  0  0  0  0
  188.4930  177.4980  142.0400 N   0  0  0  0  0  0  0  0  0  0  0  0
  184.7920  177.9840  141.7410 C   0  0  2  0  0  3  0  0  0  0  0  0
  183.8880  179.0060  145.7770 C   0  0  0  0  0  3  0  0  0  0  0  0
  183.5520  178.9610  138.2450 C   0  0  0  0  0  3  0  0  0  0  0  0
  185.1470  178.6280  145.4360 N   0  0  0  0  0  0  0  0  0  0  0  0
  184.0170  178.0460  139.3480 C   0  0  0  0  0  2  0  0  0  0  0  0
  181.2870  179.0650  140.3350 C   0  0  1  0  0  3  0  0  0  0  0  0
  182.9140  179.0730  144.8330 N   0  0  0  0  0  0  0  0  0  0  0  0
  182.1550  178.8360  142.5390 N   0  0  0  0  0  0  0  0  0  0  0  0
  180.8000  181.1570  139.2140 O   0  0  0  0  0  0  0  0  0  0  0  0
  181.4020  182.1040  138.3800 C   0  0  0  0  0  2  0  0  0  0  0  0
  180.8290  184.2410  135.6480 C   0  0  0  0  0  2  0  0  0  0  0  0
  180.4870  181.9920  136.0690 C   0  0  0  0  0  2  0  0  0  0  0  0
  180.3770  182.6720  137.4150 C   0  0  2  0  0  3  0  0  0  0  0  0
  180.3240  183.0150  135.0490 N   0  0  0  0  0  2  0  0  0  0  0  0
  180.6710  184.1270  137.1490 C   0  0  0  0  0  2  0  0  0  0  0  0
  1 26  1  0  0  0  0
  3 16  2  0  0  0  0
  4 23  2  0  0  0  0
  5 15  2  0  0  0  0
  6  7  1  0  0  0  0
  6 19  1  0  0  0  0
  7  3  1  0  0  0  0
  9 27  1  1  0  0  0
 10 17  1  0  0  0  0
 11  5  1  0  0  0  0
 12  8  2  0  0  0  0
 13 24  1  6  0  0  0
 13  9  1  0  0  0  0
 13 20  1  0  0  0  0
 14  2  1  0  0  0  0
 15  4  1  0  0  0  0
 15 12  1  0  0  0  0
 16  8  1  0  0  0  0
 17 28  1  6  0  0  0
 17 25  1  0  0  0  0
 18  1  2  0  0  0  0
 18  4  1  0  0  0  0
 19  5  1  0  0  0  0
 19  3  1  0  0  0  0
 20 11  1  6  0  0  0
 20 18  1  0  0  0  0
 22 10  2  0  0  0  0
 22 24  1  0  0  0  0
 23 21  1  0  0  0  0
 25  9  1  0  0  0  0
 25 14  1  1  0  0  0
 26 21  2  0  0  0  0
 27  2  1  0  0  0  0
 27  1  1  0  0  0  0
 29 28  1  0  0  0  0
 30 34  1  0  0  0  0
 31 32  1  0  0  0  0
 32 29  1  1  0  0  0
 33 30  1  0  0  0  0
 33 31  1  0  0  0  0
 34 32  1  0  0  0  0
M  END
>  <MODEL>
9

>  <REMARK>
 VINA RESULT:      -9.1      2.347      4.682
  Name = 
  3 active torsions:
  status: ('A' for Active; 'I' for Inactive)
    1  A    between atoms: C_17  and  O_28
    2  A    between atoms: O_28  and  C_29
    3  A    between atoms: C_29  and  C_32
                            x       y       z     vdW  Elec       q    Type
                         _______ _______ _______ _____ _____    ______ ____

>  <TORSDO>
F 3

$$$$
