=
 OpenBabel11122410513D

 32 36  0  0  1  0  0  0  0  0999 V2000
  188.8140  177.2740  138.9610 C   0  0  1  0  0  3  0  0  0  0  0  0
  184.4340  179.0440  140.3440 C   0  0  0  0  0  3  0  0  0  0  0  0
  184.7960  178.8610  141.6790 C   0  0  0  0  0  3  0  0  0  0  0  0
  190.6960  177.0090  140.6470 C   0  0  2  0  0  3  0  0  0  0  0  0
  190.9290  176.9550  142.1660 C   0  0  2  0  0  3  0  0  0  0  0  0
  189.0210  176.5980  136.5730 C   0  0  2  0  0  3  0  0  0  0  0  0
  187.0930  177.9910  137.2690 O   0  0  0  0  0  0  0  0  0  0  0  0
  190.4290  177.5580  144.2980 C   0  0  2  0  0  3  0  0  0  0  0  0
  185.3680  178.8230  139.3310 C   0  0  0  0  0  3  0  0  0  0  0  0
  187.6870  178.2290  138.5450 C   0  0  1  0  0  3  0  0  0  0  0  0
  186.6700  178.4070  139.6420 C   0  0  0  0  0  0  0  0  0  0  0  0
  188.4310  177.7560  141.3750 C   0  0  2  0  0  3  0  0  0  0  0  0
  190.0600  176.0870  144.2250 C   0  0  0  0  0  2  0  0  0  0  0  0
  187.4870  176.7580  136.6790 C   0  0  2  0  0  3  0  0  0  0  0  0
  190.4070  175.6810  142.8080 C   0  0  0  0  0  2  0  0  0  0  0  0
  186.0960  178.4670  142.0030 C   0  0  0  0  0  3  0  0  0  0  0  0
  187.0550  178.2670  140.9980 C   0  0  0  0  0  0  0  0  0  0  0  0
  189.0230  178.5050  142.5700 C   0  0  0  0  0  2  0  0  0  0  0  0
  189.7660  177.1690  137.7850 C   0  0  0  0  0  2  0  0  0  0  0  0
  191.8210  177.5550  140.0290 O   0  0  0  0  0  1  0  0  0  0  0  0
  189.5920  178.3280  145.3160 C   0  0  0  0  0  1  0  0  0  0  0  0
  189.4530  177.8070  140.2410 C   0  0  2  0  0  3  0  0  0  0  0  0
  190.4070  178.0990  142.9340 N   0  0  2  0  0  0  0  0  0  0  0  0
  185.3340  175.5240  136.9800 C   0  0  0  0  0  1  0  0  0  0  0  0
  186.8050  175.5620  137.3570 C   0  0  1  0  0  3  0  0  0  0  0  0
  187.4130  174.3660  136.9680 O   0  0  0  0  0  0  0  0  0  0  0  0
  186.4160  173.3950  137.1050 C   0  0  0  0  0  2  0  0  0  0  0  0
  186.7950  172.1710  136.3480 C   0  0  0  0  0  0  0  0  0  0  0  0
  187.9910  171.7800  136.3390 O   0  0  0  0  0  1  0  0  0  0  0  0
  185.8220  171.4440  135.6750 O   0  0  0  0  0  0  0  0  0  0  0  0
  190.5140  176.3410  134.5940 C   0  0  0  0  0  1  0  0  0  0  0  0
  189.5200  177.2480  135.2960 C   0  0  0  0  0  2  0  0  0  0  0  0
  1 19  1  6  0  0  0
  1 22  1  0  0  0  0
  2  3  1  0  0  0  0
  3 16  2  0  0  0  0
  4 20  1  6  0  0  0
  4  5  1  0  0  0  0
  5 15  1  1  0  0  0
  5 23  1  0  0  0  0
  6 32  1  6  0  0  0
  6 14  1  0  0  0  0
  6 19  1  0  0  0  0
  8 21  1  1  0  0  0
  9 11  1  0  0  0  0
  9  2  2  0  0  0  0
 10  7  1  6  0  0  0
 10  1  1  0  0  0  0
 10 11  1  0  0  0  0
 11 17  2  0  0  0  0
 12 18  1  1  0  0  0
 13  8  1  0  0  0  0
 14  7  1  0  0  0  0
 14 25  1  1  0  0  0
 15 13  1  0  0  0  0
 17 12  1  0  0  0  0
 17 16  1  0  0  0  0
 18 23  1  0  0  0  0
 22  4  1  0  0  0  0
 22 12  1  0  0  0  0
 23  8  1  0  0  0  0
 24 25  1  0  0  0  0
 26 27  1  0  0  0  0
 26 25  1  0  0  0  0
 28 27  1  0  0  0  0
 29 28  1  0  0  0  0
 30 28  2  0  0  0  0
 31 32  1  0  0  0  0
M  END
>  <MODEL>
1

>  <REMARK>
 VINA RESULT:      -6.6      0.000      0.000
  Name = 
  5 active torsions:
  status: ('A' for Active; 'I' for Inactive)
    1  A    between atoms: C_7  and  C_19
    2  A    between atoms: C_10  and  C_17
    3  A    between atoms: C_10  and  O_20
    4  A    between atoms: O_20  and  C_29
    5  A    between atoms: C_29  and  C_30
                            x       y       z     vdW  Elec       q    Type
                         _______ _______ _______ _____ _____    ______ ____

>  <TORSDO>
F 5

$$$$
=
 OpenBabel11122410513D

 32 36  0  0  1  0  0  0  0  0999 V2000
  190.6090  176.6880  138.7920 C   0  0  1  0  0  3  0  0  0  0  0  0
  186.5440  177.9390  136.3130 C   0  0  0  0  0  3  0  0  0  0  0  0
  185.8390  177.9840  137.5170 C   0  0  0  0  0  3  0  0  0  0  0  0
  190.7110  176.9260  141.3190 C   0  0  2  0  0  3  0  0  0  0  0  0
  189.7820  177.1030  142.5330 C   0  0  2  0  0  3  0  0  0  0  0  0
  192.4760  175.7510  137.4370 C   0  0  2  0  0  3  0  0  0  0  0  0
  190.6170  176.9150  136.2850 O   0  0  0  0  0  0  0  0  0  0  0  0
  187.8950  177.8910  143.5220 C   0  0  2  0  0  3  0  0  0  0  0  0
  187.9250  177.7340  136.3200 C   0  0  0  0  0  3  0  0  0  0  0  0
  190.1100  177.4010  137.5280 C   0  0  1  0  0  3  0  0  0  0  0  0
  188.6130  177.5620  137.5290 C   0  0  0  0  0  0  0  0  0  0  0  0
  188.6020  177.4100  140.0800 C   0  0  2  0  0  3  0  0  0  0  0  0
  187.7110  176.3840  143.5020 C   0  0  0  0  0  2  0  0  0  0  0  0
  191.3310  175.6910  136.4010 C   0  0  2  0  0  3  0  0  0  0  0  0
  188.9760  175.8570  142.8560 C   0  0  0  0  0  2  0  0  0  0  0  0
  186.5170  177.8350  138.7290 C   0  0  0  0  0  3  0  0  0  0  0  0
  187.9080  177.6560  138.7540 C   0  0  0  0  0  0  0  0  0  0  0  0
  188.1450  178.3870  141.1650 C   0  0  0  0  0  2  0  0  0  0  0  0
  192.1160  176.5780  138.6770 C   0  0  0  0  0  2  0  0  0  0  0  0
  191.9290  177.5530  141.5790 O   0  0  0  0  0  1  0  0  0  0  0  0
  186.5720  178.6490  143.4780 C   0  0  0  0  0  1  0  0  0  0  0  0
  190.1270  177.4690  140.0110 C   0  0  2  0  0  3  0  0  0  0  0  0
  188.8520  178.2430  142.4660 N   0  0  2  0  0  0  0  0  0  0  0  0
  189.4990  174.3140  135.4030 C   0  0  0  0  0  1  0  0  0  0  0  0
  190.3860  174.5020  136.6210 C   0  0  1  0  0  3  0  0  0  0  0  0
  191.1140  173.3320  136.8470 O   0  0  0  0  0  0  0  0  0  0  0  0
  191.4330  172.8540  135.5730 C   0  0  0  0  0  2  0  0  0  0  0  0
  192.7430  172.1490  135.6100 C   0  0  0  0  0  0  0  0  0  0  0  0
  192.9870  171.2280  134.7880 O   0  0  0  0  0  0  0  0  0  0  0  0
  193.7080  172.5290  136.5320 O   0  0  0  0  0  1  0  0  0  0  0  0
  193.7780  175.9180  135.3190 C   0  0  0  0  0  1  0  0  0  0  0  0
  193.7330  176.3000  136.7860 C   0  0  0  0  0  2  0  0  0  0  0  0
  1 19  1  6  0  0  0
  1 22  1  0  0  0  0
  2  9  2  0  0  0  0
  2  3  1  0  0  0  0
  3 16  2  0  0  0  0
  4 20  1  1  0  0  0
  4  5  1  0  0  0  0
  5 15  1  6  0  0  0
  6 32  1  6  0  0  0
  6 19  1  0  0  0  0
  7 14  1  0  0  0  0
  8 21  1  6  0  0  0
  9 11  1  0  0  0  0
 10  7  1  6  0  0  0
 10 11  1  0  0  0  0
 10  1  1  0  0  0  0
 11 17  2  0  0  0  0
 12 18  1  1  0  0  0
 13  8  1  0  0  0  0
 14 25  1  1  0  0  0
 14  6  1  0  0  0  0
 15 13  1  0  0  0  0
 16 17  1  0  0  0  0
 17 12  1  0  0  0  0
 18 23  1  0  0  0  0
 22 12  1  0  0  0  0
 22  4  1  0  0  0  0
 23  5  1  0  0  0  0
 23  8  1  0  0  0  0
 24 25  1  0  0  0  0
 25 26  1  0  0  0  0
 27 28  1  0  0  0  0
 27 26  1  0  0  0  0
 28 30  1  0  0  0  0
 29 28  2  0  0  0  0
 31 32  1  0  0  0  0
M  END
>  <MODEL>
2

>  <REMARK>
 VINA RESULT:      -6.6      2.619      3.642
  Name = 
  5 active torsions:
  status: ('A' for Active; 'I' for Inactive)
    1  A    between atoms: C_7  and  C_19
    2  A    between atoms: C_10  and  C_17
    3  A    between atoms: C_10  and  O_20
    4  A    between atoms: O_20  and  C_29
    5  A    between atoms: C_29  and  C_30
                            x       y       z     vdW  Elec       q    Type
                         _______ _______ _______ _____ _____    ______ ____

>  <TORSDO>
F 5

$$$$
=
 OpenBabel11122410513D

 32 36  0  0  1  0  0  0  0  0999 V2000
  184.1160  177.3270  137.9150 C   0  0  1  0  0  3  0  0  0  0  0  0
  189.0170  177.6990  138.1900 C   0  0  0  0  0  3  0  0  0  0  0  0
  189.1290  176.3840  137.7350 C   0  0  0  0  0  3  0  0  0  0  0  0
  183.0300  175.3980  136.6690 C   0  0  2  0  0  3  0  0  0  0  0  0
  183.3680  174.0040  136.1140 C   0  0  2  0  0  3  0  0  0  0  0  0
  182.8130  179.0720  139.1230 C   0  0  2  0  0  3  0  0  0  0  0  0
  185.2310  179.4370  138.7190 O   0  0  0  0  0  0  0  0  0  0  0  0
  184.8000  172.5020  135.1910 C   0  0  2  0  0  3  0  0  0  0  0  0
  187.7670  178.3180  138.2340 C   0  0  0  0  0  3  0  0  0  0  0  0
  185.2810  178.3230  137.8270 C   0  0  1  0  0  3  0  0  0  0  0  0
  186.6150  177.6260  137.8330 C   0  0  0  0  0  0  0  0  0  0  0  0
  185.5070  175.5030  136.9430 C   0  0  2  0  0  3  0  0  0  0  0  0
  184.5400  171.9670  136.5870 C   0  0  0  0  0  2  0  0  0  0  0  0
  184.2200  179.3260  139.7130 C   0  0  2  0  0  3  0  0  0  0  0  0
  183.5740  172.9610  137.1980 C   0  0  0  0  0  2  0  0  0  0  0  0
  187.9920  175.6910  137.3130 C   0  0  0  0  0  3  0  0  0  0  0  0
  186.7320  176.3090  137.3250 C   0  0  0  0  0  0  0  0  0  0  0  0
  185.7180  174.6910  135.6640 C   0  0  0  0  0  2  0  0  0  0  0  0
  182.8350  178.1380  137.9080 C   0  0  0  0  0  2  0  0  0  0  0  0
  182.0480  175.9850  135.8700 O   0  0  0  0  0  1  0  0  0  0  0  0
  186.1730  172.1100  134.6530 C   0  0  0  0  0  1  0  0  0  0  0  0
  184.2390  176.3350  136.7620 C   0  0  2  0  0  3  0  0  0  0  0  0
  184.5210  173.9420  135.1980 N   0  0  2  0  0  0  0  0  0  0  0  0
  185.8980  178.7430  141.4710 C   0  0  0  0  0  1  0  0  0  0  0  0
  184.6050  178.3150  140.8010 C   0  0  1  0  0  3  0  0  0  0  0  0
  183.5950  178.2210  141.7620 O   0  0  0  0  0  0  0  0  0  0  0  0
  184.1980  178.6260  142.9570 C   0  0  0  0  0  2  0  0  0  0  0  0
  183.1520  178.9640  143.9620 C   0  0  0  0  0  0  0  0  0  0  0  0
  181.9530  179.0920  143.6040 O   0  0  0  0  0  0  0  0  0  0  0  0
  183.4970  179.1100  145.2980 O   0  0  0  0  0  1  0  0  0  0  0  0
  181.2740  180.2270  137.5400 C   0  0  0  0  0  1  0  0  0  0  0  0
  182.1620  180.3940  138.7590 C   0  0  0  0  0  2  0  0  0  0  0  0
  1 19  1  6  0  0  0
  2  9  1  0  0  0  0
  3  2  2  0  0  0  0
  4 20  1  6  0  0  0
  4 22  1  0  0  0  0
  5  4  1  0  0  0  0
  5 15  1  1  0  0  0
  6 32  1  6  0  0  0
  6 14  1  0  0  0  0
  7 14  1  0  0  0  0
  8 21  1  1  0  0  0
  8 23  1  0  0  0  0
  8 13  1  0  0  0  0
 10 11  1  1  0  0  0
 10  1  1  0  0  0  0
 10  7  1  0  0  0  0
 11  9  2  0  0  0  0
 12 18  1  6  0  0  0
 12 17  1  0  0  0  0
 13 15  1  0  0  0  0
 14 25  1  1  0  0  0
 16 17  2  0  0  0  0
 16  3  1  0  0  0  0
 17 11  1  0  0  0  0
 19  6  1  0  0  0  0
 22 12  1  0  0  0  0
 22  1  1  0  0  0  0
 23 18  1  0  0  0  0
 23  5  1  0  0  0  0
 25 24  1  0  0  0  0
 25 26  1  0  0  0  0
 26 27  1  0  0  0  0
 27 28  1  0  0  0  0
 28 30  1  0  0  0  0
 29 28  2  0  0  0  0
 31 32  1  0  0  0  0
M  END
>  <MODEL>
3

>  <REMARK>
 VINA RESULT:      -6.4      3.948      8.139
  Name = 
  5 active torsions:
  status: ('A' for Active; 'I' for Inactive)
    1  A    between atoms: C_7  and  C_19
    2  A    between atoms: C_10  and  C_17
    3  A    between atoms: C_10  and  O_20
    4  A    between atoms: O_20  and  C_29
    5  A    between atoms: C_29  and  C_30
                            x       y       z     vdW  Elec       q    Type
                         _______ _______ _______ _____ _____    ______ ____

>  <TORSDO>
F 5

$$$$
=
 OpenBabel11122410513D

 32 36  0  0  1  0  0  0  0  0999 V2000
  185.8960  178.1980  140.0810 C   0  0  1  0  0  3  0  0  0  0  0  0
  181.1070  179.0830  140.7950 C   0  0  0  0  0  3  0  0  0  0  0  0
  181.2780  178.8390  142.1590 C   0  0  0  0  0  3  0  0  0  0  0  0
  187.5020  178.0940  142.0460 C   0  0  2  0  0  3  0  0  0  0  0  0
  187.4960  177.9390  143.5760 C   0  0  2  0  0  3  0  0  0  0  0  0
  186.5970  177.7890  137.7270 C   0  0  2  0  0  3  0  0  0  0  0  0
  184.3660  178.7730  138.1650 O   0  0  0  0  0  0  0  0  0  0  0  0
  186.5640  178.2510  145.6240 C   0  0  2  0  0  3  0  0  0  0  0  0
  182.2150  179.1140  139.9470 C   0  0  0  0  0  3  0  0  0  0  0  0
  184.6960  178.9870  139.5380 C   0  0  1  0  0  3  0  0  0  0  0  0
  183.5040  178.8920  140.4510 C   0  0  0  0  0  0  0  0  0  0  0  0
  185.0540  178.3840  142.4180 C   0  0  2  0  0  3  0  0  0  0  0  0
  186.4810  176.7530  145.3950 C   0  0  0  0  0  2  0  0  0  0  0  0
  185.0620  177.6820  137.5760 C   0  0  2  0  0  3  0  0  0  0  0  0
  187.1150  176.5420  144.0360 C   0  0  0  0  0  2  0  0  0  0  0  0
  182.5600  178.6380  142.6770 C   0  0  0  0  0  3  0  0  0  0  0  0
  183.6860  178.6930  141.8410 C   0  0  0  0  0  0  0  0  0  0  0  0
  185.3050  179.1080  143.7430 C   0  0  0  0  0  2  0  0  0  0  0  0
  187.0250  178.3610  139.0830 C   0  0  0  0  0  2  0  0  0  0  0  0
  188.5950  178.8740  141.6680 O   0  0  0  0  0  1  0  0  0  0  0  0
  185.4520  178.7750  146.5280 C   0  0  0  0  0  1  0  0  0  0  0  0
  186.2170  178.7080  141.4830 C   0  0  2  0  0  3  0  0  0  0  0  0
  186.6630  178.9050  144.3140 N   0  0  2  0  0  0  0  0  0  0  0  0
  183.0090  176.2740  137.7980 C   0  0  0  0  0  1  0  0  0  0  0  0
  184.5060  176.3330  138.0480 C   0  0  1  0  0  3  0  0  0  0  0  0
  185.1290  175.2820  137.3720 O   0  0  0  0  0  0  0  0  0  0  0  0
  184.1650  174.2710  137.3110 C   0  0  0  0  0  2  0  0  0  0  0  0
  184.8110  172.9430  137.5030 C   0  0  0  0  0  0  0  0  0  0  0  0
  184.1830  171.8910  137.2190 O   0  0  0  0  0  0  0  0  0  0  0  0
  186.1160  172.8690  137.9680 O   0  0  0  0  0  1  0  0  0  0  0  0
  188.6390  178.9110  136.8420 C   0  0  0  0  0  1  0  0  0  0  0  0
  187.1690  178.6280  136.5980 C   0  0  0  0  0  2  0  0  0  0  0  0
  1 19  1  6  0  0  0
  1 22  1  0  0  0  0
  2  3  1  0  0  0  0
  3 16  2  0  0  0  0
  4 20  1  1  0  0  0
  4  5  1  0  0  0  0
  5 15  1  6  0  0  0
  5 23  1  0  0  0  0
  6 32  1  6  0  0  0
  6 19  1  0  0  0  0
  8 21  1  6  0  0  0
  9 11  1  0  0  0  0
  9  2  2  0  0  0  0
 10  7  1  6  0  0  0
 10  1  1  0  0  0  0
 10 11  1  0  0  0  0
 11 17  2  0  0  0  0
 12 18  1  1  0  0  0
 13  8  1  0  0  0  0
 14  6  1  0  0  0  0
 14 25  1  1  0  0  0
 14  7  1  0  0  0  0
 15 13  1  0  0  0  0
 17 12  1  0  0  0  0
 17 16  1  0  0  0  0
 18 23  1  0  0  0  0
 22  4  1  0  0  0  0
 22 12  1  0  0  0  0
 23  8  1  0  0  0  0
 24 25  1  0  0  0  0
 26 25  1  0  0  0  0
 27 26  1  0  0  0  0
 27 28  1  0  0  0  0
 28 30  1  0  0  0  0
 29 28  2  0  0  0  0
 32 31  1  0  0  0  0
M  END
>  <MODEL>
4

>  <REMARK>
 VINA RESULT:      -6.3      2.467      3.398
  Name = 
  5 active torsions:
  status: ('A' for Active; 'I' for Inactive)
    1  A    between atoms: C_7  and  C_19
    2  A    between atoms: C_10  and  C_17
    3  A    between atoms: C_10  and  O_20
    4  A    between atoms: O_20  and  C_29
    5  A    between atoms: C_29  and  C_30
                            x       y       z     vdW  Elec       q    Type
                         _______ _______ _______ _____ _____    ______ ____

>  <TORSDO>
F 5

$$$$
=
 OpenBabel11122410513D

 32 36  0  0  1  0  0  0  0  0999 V2000
  183.6930  178.0830  140.6960 C   0  0  1  0  0  3  0  0  0  0  0  0
  179.4760  178.7880  143.1350 C   0  0  0  0  0  3  0  0  0  0  0  0
  180.1710  178.6840  144.3410 C   0  0  0  0  0  3  0  0  0  0  0  0
  185.9270  178.2460  141.8950 C   0  0  2  0  0  3  0  0  0  0  0  0
  186.5140  178.2370  143.3170 C   0  0  2  0  0  3  0  0  0  0  0  0
  183.4820  177.4890  138.2870 C   0  0  2  0  0  3  0  0  0  0  0  0
  181.5100  178.3950  139.4820 O   0  0  0  0  0  0  0  0  0  0  0  0
  186.4040  178.6940  145.5390 C   0  0  2  0  0  3  0  0  0  0  0  0
  180.1730  178.7940  141.9260 C   0  0  0  0  0  3  0  0  0  0  0  0
  182.3160  178.7550  140.6040 C   0  0  1  0  0  3  0  0  0  0  0  0
  181.5710  178.6870  141.9100 C   0  0  0  0  0  0  0  0  0  0  0  0
  183.7870  178.4470  143.1590 C   0  0  2  0  0  3  0  0  0  0  0  0
  186.3650  177.1790  145.4620 C   0  0  0  0  0  2  0  0  0  0  0  0
  182.0190  177.2910  138.7460 C   0  0  2  0  0  3  0  0  0  0  0  0
  186.4530  176.8730  143.9810 C   0  0  0  0  0  2  0  0  0  0  0  0
  181.5650  178.5970  144.3390 C   0  0  0  0  0  3  0  0  0  0  0  0
  182.2820  178.6300  143.1330 C   0  0  0  0  0  0  0  0  0  0  0  0
  184.4600  179.3040  144.2330 C   0  0  0  0  0  2  0  0  0  0  0  0
  184.3430  178.2080  139.3320 C   0  0  0  0  0  2  0  0  0  0  0  0
  186.7260  179.0410  141.0740 O   0  0  0  0  0  1  0  0  0  0  0  0
  185.6790  179.2440  146.7630 C   0  0  0  0  0  1  0  0  0  0  0  0
  184.4780  178.7390  141.8290 C   0  0  2  0  0  3  0  0  0  0  0  0
  185.9450  179.2250  144.2500 N   0  0  2  0  0  0  0  0  0  0  0  0
  180.3120  175.7420  139.7130 C   0  0  0  0  0  1  0  0  0  0  0  0
  181.7970  175.9660  139.4870 C   0  0  1  0  0  3  0  0  0  0  0  0
  182.3180  174.8990  138.7500 O   0  0  0  0  0  0  0  0  0  0  0  0
  181.2800  174.5080  137.8990 C   0  0  0  0  0  2  0  0  0  0  0  0
  181.8230  174.1930  136.5500 C   0  0  0  0  0  0  0  0  0  0  0  0
  181.0640  173.7400  135.6550 O   0  0  0  0  0  0  0  0  0  0  0  0
  183.1620  174.4290  136.2700 O   0  0  0  0  0  1  0  0  0  0  0  0
  182.3040  177.8850  136.1280 C   0  0  0  0  0  1  0  0  0  0  0  0
  183.5120  178.2440  136.9710 C   0  0  0  0  0  2  0  0  0  0  0  0
  1 19  1  6  0  0  0
  1 22  1  0  0  0  0
  2  3  1  0  0  0  0
  4 20  1  6  0  0  0
  4  5  1  0  0  0  0
  5 15  1  1  0  0  0
  5 23  1  0  0  0  0
  6 32  1  6  0  0  0
  6 14  1  0  0  0  0
  6 19  1  0  0  0  0
  8 21  1  1  0  0  0
  9  2  2  0  0  0  0
 10  7  1  6  0  0  0
 10  1  1  0  0  0  0
 10 11  1  0  0  0  0
 11  9  1  0  0  0  0
 11 17  2  0  0  0  0
 12 18  1  1  0  0  0
 13  8  1  0  0  0  0
 14  7  1  0  0  0  0
 14 25  1  1  0  0  0
 15 13  1  0  0  0  0
 16  3  2  0  0  0  0
 17 12  1  0  0  0  0
 17 16  1  0  0  0  0
 18 23  1  0  0  0  0
 22  4  1  0  0  0  0
 22 12  1  0  0  0  0
 23  8  1  0  0  0  0
 25 24  1  0  0  0  0
 26 25  1  0  0  0  0
 27 26  1  0  0  0  0
 28 27  1  0  0  0  0
 29 28  2  0  0  0  0
 30 28  1  0  0  0  0
 31 32  1  0  0  0  0
M  END
>  <MODEL>
5

>  <REMARK>
 VINA RESULT:      -6.1      4.208      5.478
  Name = 
  5 active torsions:
  status: ('A' for Active; 'I' for Inactive)
    1  A    between atoms: C_7  and  C_19
    2  A    between atoms: C_10  and  C_17
    3  A    between atoms: C_10  and  O_20
    4  A    between atoms: O_20  and  C_29
    5  A    between atoms: C_29  and  C_30
                            x       y       z     vdW  Elec       q    Type
                         _______ _______ _______ _____ _____    ______ ____

>  <TORSDO>
F 5

$$$$
=
 OpenBabel11122410513D

 32 36  0  0  1  0  0  0  0  0999 V2000
  187.3250  177.8220  139.3570 C   0  0  1  0  0  3  0  0  0  0  0  0
  183.4340  178.9360  142.1580 C   0  0  0  0  0  3  0  0  0  0  0  0
  184.1700  178.5940  143.2940 C   0  0  0  0  0  3  0  0  0  0  0  0
  189.6200  177.4950  140.3960 C   0  0  2  0  0  3  0  0  0  0  0  0
  190.2780  177.2420  141.7630 C   0  0  2  0  0  3  0  0  0  0  0  0
  186.8790  177.5270  136.9250 C   0  0  2  0  0  3  0  0  0  0  0  0
  185.1590  178.6090  138.3430 O   0  0  0  0  0  0  0  0  0  0  0  0
  190.3760  177.4730  144.0200 C   0  0  2  0  0  3  0  0  0  0  0  0
  184.0520  178.9580  140.9070 C   0  0  0  0  0  3  0  0  0  0  0  0
  186.0780  178.7130  139.4310 C   0  0  1  0  0  3  0  0  0  0  0  0
  185.4080  178.6290  140.7760 C   0  0  0  0  0  0  0  0  0  0  0  0
  187.6210  177.9040  141.8290 C   0  0  2  0  0  3  0  0  0  0  0  0
  190.0780  176.0010  143.8040 C   0  0  0  0  0  2  0  0  0  0  0  0
  185.4320  177.5200  137.4700 C   0  0  2  0  0  3  0  0  0  0  0  0
  190.0280  175.8430  142.2980 C   0  0  0  0  0  2  0  0  0  0  0  0
  185.5280  178.2850  143.1800 C   0  0  0  0  0  3  0  0  0  0  0  0
  186.1690  178.3290  141.9330 C   0  0  0  0  0  0  0  0  0  0  0  0
  188.4890  178.5230  142.9260 C   0  0  0  0  0  2  0  0  0  0  0  0
  187.9070  177.9840  137.9660 C   0  0  0  0  0  2  0  0  0  0  0  0
  190.4930  178.2330  139.5960 O   0  0  0  0  0  1  0  0  0  0  0  0
  189.8250  178.0010  145.3420 C   0  0  0  0  0  1  0  0  0  0  0  0
  188.2730  178.2200  140.4850 C   0  0  2  0  0  3  0  0  0  0  0  0
  189.9380  178.2040  142.8250 N   0  0  2  0  0  0  0  0  0  0  0  0
  183.5240  176.0200  138.0670 C   0  0  0  0  0  1  0  0  0  0  0  0
  185.0340  176.1780  138.0970 C   0  0  1  0  0  3  0  0  0  0  0  0
  185.6230  175.1190  137.4020 O   0  0  0  0  0  0  0  0  0  0  0  0
  184.5580  174.2850  137.0470 C   0  0  0  0  0  2  0  0  0  0  0  0
  184.8380  172.8910  137.4870 C   0  0  0  0  0  0  0  0  0  0  0  0
  185.8900  172.6310  138.1270 O   0  0  0  0  0  1  0  0  0  0  0  0
  183.9240  171.8820  137.2160 O   0  0  0  0  0  0  0  0  0  0  0  0
  186.0610  177.8560  134.5940 C   0  0  0  0  0  1  0  0  0  0  0  0
  186.9590  178.4030  135.6880 C   0  0  0  0  0  2  0  0  0  0  0  0
  1 19  1  6  0  0  0
  1 10  1  0  0  0  0
  1 22  1  0  0  0  0
  2  3  1  0  0  0  0
  4 20  1  6  0  0  0
  4 22  1  0  0  0  0
  4  5  1  0  0  0  0
  5 15  1  1  0  0  0
  5 23  1  0  0  0  0
  6 32  1  6  0  0  0
  6 14  1  0  0  0  0
  6 19  1  0  0  0  0
  8 21  1  1  0  0  0
  9  2  2  0  0  0  0
 10  7  1  6  0  0  0
 10 11  1  0  0  0  0
 11  9  1  0  0  0  0
 11 17  2  0  0  0  0
 12 17  1  0  0  0  0
 12 18  1  1  0  0  0
 13  8  1  0  0  0  0
 14 25  1  1  0  0  0
 14  7  1  0  0  0  0
 15 13  1  0  0  0  0
 16  3  2  0  0  0  0
 17 16  1  0  0  0  0
 22 12  1  0  0  0  0
 23 18  1  0  0  0  0
 23  8  1  0  0  0  0
 24 25  1  0  0  0  0
 26 25  1  0  0  0  0
 27 26  1  0  0  0  0
 27 28  1  0  0  0  0
 28 29  1  0  0  0  0
 30 28  2  0  0  0  0
 31 32  1  0  0  0  0
M  END
>  <MODEL>
6

>  <REMARK>
 VINA RESULT:      -6.0      1.660      1.941
  Name = 
  5 active torsions:
  status: ('A' for Active; 'I' for Inactive)
    1  A    between atoms: C_7  and  C_19
    2  A    between atoms: C_10  and  C_17
    3  A    between atoms: C_10  and  O_20
    4  A    between atoms: O_20  and  C_29
    5  A    between atoms: C_29  and  C_30
                            x       y       z     vdW  Elec       q    Type
                         _______ _______ _______ _____ _____    ______ ____

>  <TORSDO>
F 5

$$$$
=
 OpenBabel11122410513D

 32 36  0  0  1  0  0  0  0  0999 V2000
  187.0300  178.1330  139.9810 C   0  0  1  0  0  3  0  0  0  0  0  0
  182.1900  178.9720  139.6710 C   0  0  0  0  0  3  0  0  0  0  0  0
  182.0700  178.7100  141.0370 C   0  0  0  0  0  3  0  0  0  0  0  0
  188.1820  178.0120  142.2420 C   0  0  2  0  0  3  0  0  0  0  0  0
  187.8530  177.8350  143.7340 C   0  0  2  0  0  3  0  0  0  0  0  0
  188.2210  177.7640  137.8260 C   0  0  2  0  0  3  0  0  0  0  0  0
  185.9370  178.7250  137.7920 O   0  0  0  0  0  0  0  0  0  0  0  0
  186.5030  178.1100  145.5400 C   0  0  2  0  0  3  0  0  0  0  0  0
  183.4520  179.0240  139.0790 C   0  0  0  0  0  3  0  0  0  0  0  0
  185.9660  178.9210  139.2060 C   0  0  1  0  0  3  0  0  0  0  0  0
  184.6070  178.8040  139.8430 C   0  0  0  0  0  0  0  0  0  0  0  0
  185.7080  178.2790  142.0880 C   0  0  2  0  0  3  0  0  0  0  0  0
  186.4860  176.6150  145.2790 C   0  0  0  0  0  2  0  0  0  0  0  0
  186.7540  177.6480  137.3500 C   0  0  2  0  0  3  0  0  0  0  0  0
  187.3970  176.4290  144.0840 C   0  0  0  0  0  2  0  0  0  0  0  0
  183.2140  178.5110  141.8130 C   0  0  0  0  0  3  0  0  0  0  0  0
  184.4910  178.5860  141.2370 C   0  0  0  0  0  0  0  0  0  0  0  0
  185.6640  178.9850  143.4450 C   0  0  0  0  0  2  0  0  0  0  0  0
  188.3440  178.3190  139.2490 C   0  0  0  0  0  2  0  0  0  0  0  0
  189.3230  178.8050  142.1150 O   0  0  0  0  0  1  0  0  0  0  0  0
  185.2190  178.6130  146.1930 C   0  0  0  0  0  1  0  0  0  0  0  0
  187.0410  178.6250  141.4260 C   0  0  2  0  0  3  0  0  0  0  0  0
  186.8710  178.7830  144.2890 N   0  0  2  0  0  0  0  0  0  0  0  0
  184.7800  176.1600  136.9810 C   0  0  0  0  0  1  0  0  0  0  0  0
  186.1240  176.2880  137.6760 C   0  0  1  0  0  3  0  0  0  0  0  0
  186.9590  175.2480  137.2610 O   0  0  0  0  0  0  0  0  0  0  0  0
  186.1130  174.3420  136.6150 C   0  0  0  0  0  2  0  0  0  0  0  0
  186.0970  173.0490  137.3540 C   0  0  0  0  0  0  0  0  0  0  0  0
  187.1490  172.3670  137.4540 O   0  0  0  0  0  0  0  0  0  0  0  0
  184.9260  172.6120  137.9580 O   0  0  0  0  0  1  0  0  0  0  0  0
  189.1670  177.9110  135.5250 C   0  0  0  0  0  1  0  0  0  0  0  0
  189.0110  178.6230  136.8550 C   0  0  0  0  0  2  0  0  0  0  0  0
  1 19  1  6  0  0  0
  1 22  1  0  0  0  0
  2  3  1  0  0  0  0
  3 16  2  0  0  0  0
  4 20  1  1  0  0  0
  4  5  1  0  0  0  0
  5 15  1  6  0  0  0
  5 23  1  0  0  0  0
  6 32  1  6  0  0  0
  6 19  1  0  0  0  0
  8 21  1  6  0  0  0
  9  2  2  0  0  0  0
  9 11  1  0  0  0  0
 10  7  1  6  0  0  0
 10 11  1  0  0  0  0
 10  1  1  0  0  0  0
 11 17  2  0  0  0  0
 12 18  1  1  0  0  0
 13  8  1  0  0  0  0
 14 25  1  1  0  0  0
 14  7  1  0  0  0  0
 14  6  1  0  0  0  0
 15 13  1  0  0  0  0
 17 16  1  0  0  0  0
 17 12  1  0  0  0  0
 18 23  1  0  0  0  0
 22 12  1  0  0  0  0
 22  4  1  0  0  0  0
 23  8  1  0  0  0  0
 24 25  1  0  0  0  0
 26 25  1  0  0  0  0
 27 26  1  0  0  0  0
 27 28  1  0  0  0  0
 28 29  2  0  0  0  0
 28 30  1  0  0  0  0
 31 32  1  0  0  0  0
M  END
>  <MODEL>
7

>  <REMARK>
 VINA RESULT:      -5.8      1.970      2.650
  Name = 
  5 active torsions:
  status: ('A' for Active; 'I' for Inactive)
    1  A    between atoms: C_7  and  C_19
    2  A    between atoms: C_10  and  C_17
    3  A    between atoms: C_10  and  O_20
    4  A    between atoms: O_20  and  C_29
    5  A    between atoms: C_29  and  C_30
                            x       y       z     vdW  Elec       q    Type
                         _______ _______ _______ _____ _____    ______ ____

>  <TORSDO>
F 5

$$$$
=
 OpenBabel11122410513D

 32 36  0  0  1  0  0  0  0  0999 V2000
  186.2790  177.0440  136.8870 C   0  0  1  0  0  3  0  0  0  0  0  0
  186.0730  178.9380  141.4260 C   0  0  0  0  0  3  0  0  0  0  0  0
  187.3790  178.5000  141.6540 C   0  0  0  0  0  3  0  0  0  0  0  0
  188.4980  176.3300  135.8800 C   0  0  2  0  0  3  0  0  0  0  0  0
  189.9410  175.9990  136.3000 C   0  0  2  0  0  3  0  0  0  0  0  0
  184.1000  176.7660  135.7140 C   0  0  2  0  0  3  0  0  0  0  0  0
  184.2040  178.1870  137.7410 O   0  0  0  0  0  0  0  0  0  0  0  0
  191.7580  176.2750  137.6340 C   0  0  2  0  0  3  0  0  0  0  0  0
  185.5050  178.8090  140.1570 C   0  0  0  0  0  3  0  0  0  0  0  0
  185.6320  178.1520  137.7290 C   0  0  1  0  0  3  0  0  0  0  0  0
  186.2330  178.2320  139.1070 C   0  0  0  0  0  0  0  0  0  0  0  0
  188.3720  177.1420  138.2340 C   0  0  2  0  0  3  0  0  0  0  0  0
  191.2620  174.8760  137.9550 C   0  0  0  0  0  2  0  0  0  0  0  0
  183.6020  177.0420  137.1510 C   0  0  2  0  0  3  0  0  0  0  0  0
  190.0590  174.6870  137.0550 C   0  0  0  0  0  2  0  0  0  0  0  0
  188.1210  177.9420  140.6100 C   0  0  0  0  0  3  0  0  0  0  0  0
  187.5730  177.8310  139.3230 C   0  0  0  0  0  0  0  0  0  0  0  0
  189.8240  177.6220  138.1840 C   0  0  0  0  0  2  0  0  0  0  0  0
  185.5950  177.0550  135.5340 C   0  0  0  0  0  2  0  0  0  0  0  0
  188.5080  176.8710  134.5940 O   0  0  0  0  0  1  0  0  0  0  0  0
  192.4750  176.9330  138.8090 C   0  0  0  0  0  1  0  0  0  0  0  0
  187.7830  177.2930  136.8320 C   0  0  2  0  0  3  0  0  0  0  0  0
  190.6340  177.0380  137.0810 N   0  0  2  0  0  0  0  0  0  0  0  0
  182.7460  175.9640  139.2370 C   0  0  0  0  0  1  0  0  0  0  0  0
  183.7020  175.8150  138.0670 C   0  0  1  0  0  3  0  0  0  0  0  0
  183.3900  174.6500  137.3610 O   0  0  0  0  0  0  0  0  0  0  0  0
  184.2950  173.6930  137.8290 C   0  0  0  0  0  2  0  0  0  0  0  0
  185.3900  173.5030  136.8390 C   0  0  0  0  0  0  0  0  0  0  0  0
  185.1170  173.3400  135.6210 O   0  0  0  0  0  0  0  0  0  0  0  0
  186.7130  173.5360  137.2550 O   0  0  0  0  0  1  0  0  0  0  0  0
  181.8040  177.4470  135.0240 C   0  0  0  0  0  1  0  0  0  0  0  0
  183.2850  177.5750  134.7220 C   0  0  0  0  0  2  0  0  0  0  0  0
  1 19  1  6  0  0  0
  1 10  1  0  0  0  0
  2  3  1  0  0  0  0
  4 20  1  6  0  0  0
  4  5  1  0  0  0  0
  4 22  1  0  0  0  0
  5 15  1  1  0  0  0
  5 23  1  0  0  0  0
  6 32  1  6  0  0  0
  6 14  1  0  0  0  0
  8 13  1  0  0  0  0
  8 21  1  1  0  0  0
  9  2  2  0  0  0  0
 10  7  1  1  0  0  0
 10 11  1  0  0  0  0
 11 17  2  0  0  0  0
 11  9  1  0  0  0  0
 12 18  1  6  0  0  0
 12 17  1  0  0  0  0
 14  7  1  0  0  0  0
 14 25  1  1  0  0  0
 15 13  1  0  0  0  0
 16  3  2  0  0  0  0
 17 16  1  0  0  0  0
 19  6  1  0  0  0  0
 22  1  1  0  0  0  0
 22 12  1  0  0  0  0
 23  8  1  0  0  0  0
 23 18  1  0  0  0  0
 25 24  1  0  0  0  0
 26 27  1  0  0  0  0
 26 25  1  0  0  0  0
 28 30  1  0  0  0  0
 28 27  1  0  0  0  0
 29 28  2  0  0  0  0
 32 31  1  0  0  0  0
M  END
>  <MODEL>
8

>  <REMARK>
 VINA RESULT:      -5.8      2.594      4.524
  Name = 
  5 active torsions:
  status: ('A' for Active; 'I' for Inactive)
    1  A    between atoms: C_7  and  C_19
    2  A    between atoms: C_10  and  C_17
    3  A    between atoms: C_10  and  O_20
    4  A    between atoms: O_20  and  C_29
    5  A    between atoms: C_29  and  C_30
                            x       y       z     vdW  Elec       q    Type
                         _______ _______ _______ _____ _____    ______ ____

>  <TORSDO>
F 5

$$$$
=
 OpenBabel11122410513D

 32 36  0  0  1  0  0  0  0  0999 V2000
  184.0510  176.8520  137.9770 C   0  0  1  0  0  3  0  0  0  0  0  0
  180.1550  173.8590  138.2890 C   0  0  0  0  0  3  0  0  0  0  0  0
  179.9350  174.3030  139.5950 C   0  0  0  0  0  3  0  0  0  0  0  0
  184.4260  178.6760  139.7040 C   0  0  2  0  0  3  0  0  0  0  0  0
  183.9720  179.0850  141.1160 C   0  0  2  0  0  3  0  0  0  0  0  0
  185.6290  176.4080  136.1030 C   0  0  2  0  0  3  0  0  0  0  0  0
  183.3840  175.3590  136.0620 O   0  0  0  0  0  0  0  0  0  0  0  0
  182.4250  179.1990  142.7760 C   0  0  2  0  0  3  0  0  0  0  0  0
  181.1430  174.4580  137.5060 C   0  0  0  0  0  3  0  0  0  0  0  0
  182.9490  176.1770  137.1490 C   0  0  1  0  0  3  0  0  0  0  0  0
  181.9270  175.4990  138.0220 C   0  0  0  0  0  0  0  0  0  0  0  0
  182.5420  177.0610  139.9490 C   0  0  2  0  0  3  0  0  0  0  0  0
  183.4800  178.2450  143.3070 C   0  0  0  0  0  2  0  0  0  0  0  0
  184.7850  175.1130  136.0610 C   0  0  2  0  0  3  0  0  0  0  0  0
  184.5190  178.1800  142.2070 C   0  0  0  0  0  2  0  0  0  0  0  0
  180.6960  175.3530  140.1130 C   0  0  0  0  0  3  0  0  0  0  0  0
  181.6740  175.9830  139.3290 C   0  0  0  0  0  0  0  0  0  0  0  0
  181.7250  178.0790  140.7470 C   0  0  0  0  0  2  0  0  0  0  0  0
  185.0160  177.4910  136.9980 C   0  0  0  0  0  2  0  0  0  0  0  0
  184.7210  179.8230  138.9680 O   0  0  0  0  0  1  0  0  0  0  0  0
  181.0350  178.9170  143.3380 C   0  0  0  0  0  1  0  0  0  0  0  0
  183.3960  177.8340  138.9450 C   0  0  2  0  0  3  0  0  0  0  0  0
  182.5170  179.2050  141.3110 N   0  0  2  0  0  0  0  0  0  0  0  0
  184.9880  172.6870  136.6280 C   0  0  0  0  0  1  0  0  0  0  0  0
  185.1840  174.1020  137.1440 C   0  0  1  0  0  3  0  0  0  0  0  0
  186.5200  174.2790  137.5110 O   0  0  0  0  0  0  0  0  0  0  0  0
  187.2070  173.2350  136.8860 C   0  0  0  0  0  2  0  0  0  0  0  0
  188.5690  173.6880  136.4940 C   0  0  0  0  0  0  0  0  0  0  0  0
  188.7370  174.3280  135.4240 O   0  0  0  0  0  0  0  0  0  0  0  0
  189.6510  173.4300  137.3240 O   0  0  0  0  0  1  0  0  0  0  0  0
  187.0370  177.8530  134.6400 C   0  0  0  0  0  1  0  0  0  0  0  0
  185.8270  176.9400  134.6950 C   0  0  0  0  0  2  0  0  0  0  0  0
  1 19  1  6  0  0  0
  1 22  1  0  0  0  0
  2  3  1  0  0  0  0
  3 16  2  0  0  0  0
  4 20  1  6  0  0  0
  4  5  1  0  0  0  0
  5 23  1  0  0  0  0
  5 15  1  1  0  0  0
  6 32  1  6  0  0  0
  6 19  1  0  0  0  0
  8 13  1  0  0  0  0
  8 21  1  6  0  0  0
  9 11  1  0  0  0  0
  9  2  2  0  0  0  0
 10  7  1  6  0  0  0
 10  1  1  0  0  0  0
 10 11  1  0  0  0  0
 11 17  2  0  0  0  0
 12 18  1  6  0  0  0
 14  7  1  0  0  0  0
 14  6  1  0  0  0  0
 14 25  1  1  0  0  0
 15 13  1  0  0  0  0
 17 12  1  0  0  0  0
 17 16  1  0  0  0  0
 18 23  1  0  0  0  0
 22  4  1  0  0  0  0
 22 12  1  0  0  0  0
 23  8  1  0  0  0  0
 24 25  1  0  0  0  0
 25 26  1  0  0  0  0
 27 26  1  0  0  0  0
 28 27  1  0  0  0  0
 28 30  1  0  0  0  0
 29 28  2  0  0  0  0
 31 32  1  0  0  0  0
M  END
>  <MODEL>
9

>  <REMARK>
 VINA RESULT:      -5.7      4.044      5.696
  Name = 
  5 active torsions:
  status: ('A' for Active; 'I' for Inactive)
    1  A    between atoms: C_7  and  C_19
    2  A    between atoms: C_10  and  C_17
    3  A    between atoms: C_10  and  O_20
    4  A    between atoms: O_20  and  C_29
    5  A    between atoms: C_29  and  C_30
                            x       y       z     vdW  Elec       q    Type
                         _______ _______ _______ _____ _____    ______ ____

>  <TORSDO>
F 5

$$$$
