=
 OpenBabel11122411183D

 31 35  0  0  1  0  0  0  0  0999 V2000
  193.9690  175.9960  136.0790 C   0  0  2  0  0  3  0  0  0  0  0  0
  190.1680  176.5130  136.6010 C   0  0  2  0  0  3  0  0  0  0  0  0
  188.9880  175.5750  136.4510 C   0  0  0  0  0  0  0  0  0  0  0  0
  187.9580  173.6090  135.4650 C   0  0  0  0  0  0  0  0  0  0  0  0
  191.5190  175.7810  136.5510 C   0  0  1  0  0  3  0  0  0  0  0  0
  194.2930  175.3490  137.4230 C   0  0  0  0  0  2  0  0  0  0  0  0
  189.0630  174.4480  135.6200 C   0  0  0  0  0  3  0  0  0  0  0  0
  190.3550  176.6390  139.1440 C   0  0  2  0  0  3  0  0  0  0  0  0
  194.9840  176.8880  135.7370 O   0  0  0  0  0  1  0  0  0  0  0  0
  187.6520  177.0210  137.8890 O   0  0  0  0  0  0  0  0  0  0  0  0
  188.0530  172.4080  134.5940 C   0  0  0  0  0  1  0  0  0  0  0  0
  191.7380  176.0000  139.0690 C   0  0  0  0  0  2  0  0  0  0  0  0
  190.0530  177.4150  137.8520 C   0  0  2  0  0  3  0  0  0  0  0  0
  192.6430  176.7430  136.1620 C   0  0  0  0  0  2  0  0  0  0  0  0
  186.7630  173.8960  136.1290 C   0  0  0  0  0  3  0  0  0  0  0  0
  191.8220  175.0520  137.8740 C   0  0  2  0  0  3  0  0  0  0  0  0
  193.1890  174.3670  137.8170 C   0  0  0  0  0  2  0  0  0  0  0  0
  188.6560  178.0360  137.8980 C   0  0  0  0  0  2  0  0  0  0  0  0
  187.7680  175.8800  137.0890 C   0  0  0  0  0  0  0  0  0  0  0  0
  186.6670  175.0310  136.9380 C   0  0  0  0  0  3  0  0  0  0  0  0
  190.1000  175.8250  141.8690 O   0  0  0  0  0  0  0  0  0  0  0  0
  190.1820  177.0620  141.6320 C   0  0  0  0  0  0  0  0  0  0  0  0
  190.2990  177.5370  140.2900 N   0  0  0  0  0  2  0  0  0  0  0  0
  190.3470  177.2900  145.5450 C   0  0  0  0  0  0  0  0  0  0  0  0
  191.4550  178.0360  143.5010 C   0  0  0  0  0  3  0  0  0  0  0  0
  187.7970  177.9440  143.2180 O   0  0  0  0  0  0  0  0  0  0  0  0
  190.4830  176.8650  146.8950 N   0  0  0  0  0  1  0  0  0  0  0  0
  191.5450  177.6720  144.7810 C   0  0  0  0  0  3  0  0  0  0  0  0
  188.9670  177.7930  143.6580 C   0  0  0  0  0  0  0  0  0  0  0  0
  190.1460  178.0500  142.7540 C   0  0  2  0  0  3  0  0  0  0  0  0
  189.1640  177.3660  145.0110 N   0  0  0  0  0  0  0  0  0  0  0  0
  1  9  1  1  0  0  0
  1 14  1  0  0  0  0
  1  6  1  0  0  0  0
  2  3  1  1  0  0  0
  2 13  1  0  0  0  0
  3 19  1  0  0  0  0
  4  7  1  0  0  0  0
  4 15  2  0  0  0  0
  5 14  1  1  0  0  0
  5  2  1  0  0  0  0
  5 16  1  0  0  0  0
  6 17  1  0  0  0  0
  7  3  2  0  0  0  0
  8 23  1  1  0  0  0
 10 18  1  0  0  0  0
 11  4  1  0  0  0  0
 12  8  1  0  0  0  0
 13 18  1  1  0  0  0
 13  8  1  0  0  0  0
 15 20  1  0  0  0  0
 16 17  1  6  0  0  0
 16 12  1  0  0  0  0
 19 10  1  0  0  0  0
 20 19  2  0  0  0  0
 22 21  2  0  0  0  0
 23 22  1  0  0  0  0
 24 27  1  0  0  0  0
 25 28  2  0  0  0  0
 26 29  2  0  0  0  0
 28 24  1  0  0  0  0
 29 31  1  0  0  0  0
 30 22  1  6  0  0  0
 30 25  1  0  0  0  0
 30 29  1  0  0  0  0
 31 24  2  0  0  0  0
M  END
>  <MODEL>
1

>  <REMARK>
 VINA RESULT:      -7.3      0.000      0.000
  Name = 
  2 active torsions:
  status: ('A' for Active; 'I' for Inactive)
    1  A    between atoms: C_5  and  C_30
    2  A    between atoms: C_10  and  N_16
                            x       y       z     vdW  Elec       q    Type
                         _______ _______ _______ _____ _____    ______ ____

>  <TORSDO>
F 2

$$$$
=
 OpenBabel11122411183D

 31 35  0  0  1  0  0  0  0  0999 V2000
  191.4750  176.0130  143.8240 C   0  0  2  0  0  3  0  0  0  0  0  0
  187.7320  176.9680  144.0750 C   0  0  2  0  0  3  0  0  0  0  0  0
  186.9580  177.7800  145.0940 C   0  0  0  0  0  0  0  0  0  0  0  0
  186.6970  178.6570  147.3440 C   0  0  0  0  0  0  0  0  0  0  0  0
  189.2540  177.0900  144.2490 C   0  0  1  0  0  3  0  0  0  0  0  0
  191.9940  177.3080  143.2080 C   0  0  0  0  0  2  0  0  0  0  0  0
  187.4340  177.9320  146.4050 C   0  0  0  0  0  3  0  0  0  0  0  0
  187.8410  178.6220  142.1330 C   0  0  2  0  0  3  0  0  0  0  0  0
  192.1120  174.9270  143.2270 O   0  0  0  0  0  1  0  0  0  0  0  0
  185.1870  178.1510  143.4610 O   0  0  0  0  0  0  0  0  0  0  0  0
  187.2170  178.8250  148.7260 C   0  0  0  0  0  1  0  0  0  0  0  0
  189.3610  178.6570  142.2550 C   0  0  0  0  0  2  0  0  0  0  0  0
  187.2950  177.2710  142.6220 C   0  0  2  0  0  3  0  0  0  0  0  0
  189.9690  175.8970  143.6110 C   0  0  0  0  0  2  0  0  0  0  0  0
  185.4710  179.2240  146.9850 C   0  0  0  0  0  3  0  0  0  0  0  0
  189.7840  178.4320  143.7060 C   0  0  2  0  0  3  0  0  0  0  0  0
  191.3050  178.5130  143.8490 C   0  0  0  0  0  2  0  0  0  0  0  0
  185.7690  177.2310  142.5360 C   0  0  0  0  0  2  0  0  0  0  0  0
  185.7040  178.3240  144.7480 C   0  0  0  0  0  0  0  0  0  0  0  0
  184.9750  179.0570  145.6900 C   0  0  0  0  0  3  0  0  0  0  0  0
  188.7860  177.1050  139.9080 O   0  0  0  0  0  0  0  0  0  0  0  0
  187.9650  178.0350  139.6760 C   0  0  0  0  0  0  0  0  0  0  0  0
  187.4630  178.8390  140.7430 N   0  0  0  0  0  2  0  0  0  0  0  0
  188.5900  176.9440  135.9600 C   0  0  0  0  0  0  0  0  0  0  0  0
  186.8680  177.0890  137.6850 C   0  0  0  0  0  3  0  0  0  0  0  0
  189.1880  179.9330  137.7060 O   0  0  0  0  0  0  0  0  0  0  0  0
  189.1280  176.2180  134.8620 N   0  0  0  0  0  1  0  0  0  0  0  0
  187.3740  176.4540  136.6270 C   0  0  0  0  0  3  0  0  0  0  0  0
  188.6600  178.8230  137.4370 C   0  0  0  0  0  0  0  0  0  0  0  0
  187.5160  178.3150  138.2780 C   0  0  2  0  0  3  0  0  0  0  0  0
  189.1600  178.0470  136.3420 N   0  0  0  0  0  0  0  0  0  0  0  0
  1  9  1  6  0  0  0
  2  5  1  0  0  0  0
  2  3  1  1  0  0  0
  3  7  1  0  0  0  0
  4 11  1  0  0  0  0
  5 14  1  6  0  0  0
  6  1  1  0  0  0  0
  6 17  1  0  0  0  0
  7  4  2  0  0  0  0
  8 23  1  6  0  0  0
  8 12  1  0  0  0  0
  8 13  1  0  0  0  0
 10 19  1  0  0  0  0
 13 18  1  1  0  0  0
 13  2  1  0  0  0  0
 14  1  1  0  0  0  0
 15  4  1  0  0  0  0
 16 12  1  6  0  0  0
 16 17  1  0  0  0  0
 16  5  1  0  0  0  0
 18 10  1  0  0  0  0
 19  3  2  0  0  0  0
 19 20  1  0  0  0  0
 20 15  2  0  0  0  0
 22 21  2  0  0  0  0
 22 23  1  0  0  0  0
 24 31  2  0  0  0  0
 24 28  1  0  0  0  0
 25 30  1  0  0  0  0
 27 24  1  0  0  0  0
 28 25  2  0  0  0  0
 29 26  2  0  0  0  0
 29 30  1  0  0  0  0
 30 22  1  1  0  0  0
 31 29  1  0  0  0  0
M  END
>  <MODEL>
2

>  <REMARK>
 VINA RESULT:      -7.1      3.538      8.313
  Name = 
  2 active torsions:
  status: ('A' for Active; 'I' for Inactive)
    1  A    between atoms: C_5  and  C_30
    2  A    between atoms: C_10  and  N_16
                            x       y       z     vdW  Elec       q    Type
                         _______ _______ _______ _____ _____    ______ ____

>  <TORSDO>
F 2

$$$$
=
 OpenBabel11122411183D

 31 35  0  0  1  0  0  0  0  0999 V2000
  191.1700  176.0920  144.2320 C   0  0  2  0  0  3  0  0  0  0  0  0
  187.5900  177.0840  143.1400 C   0  0  2  0  0  3  0  0  0  0  0  0
  186.5030  177.8800  143.8310 C   0  0  0  0  0  0  0  0  0  0  0  0
  185.4490  178.7080  145.8570 C   0  0  0  0  0  0  0  0  0  0  0  0
  188.9470  177.1840  143.8540 C   0  0  1  0  0  3  0  0  0  0  0  0
  191.8790  177.3960  143.8780 C   0  0  0  0  0  2  0  0  0  0  0  0
  186.4730  177.9960  145.2290 C   0  0  0  0  0  3  0  0  0  0  0  0
  188.3960  178.7810  141.4110 C   0  0  2  0  0  3  0  0  0  0  0  0
  191.9770  175.0140  143.8770 O   0  0  0  0  0  1  0  0  0  0  0  0
  185.4410  178.3090  141.6800 O   0  0  0  0  0  0  0  0  0  0  0  0
  185.4350  178.8380  147.3380 C   0  0  0  0  0  1  0  0  0  0  0  0
  189.7700  178.7950  142.0750 C   0  0  0  0  0  2  0  0  0  0  0  0
  187.7080  177.4250  141.6360 C   0  0  2  0  0  3  0  0  0  0  0  0
  189.8430  175.9990  143.4870 C   0  0  0  0  0  2  0  0  0  0  0  0
  184.4360  179.2970  145.0950 C   0  0  0  0  0  3  0  0  0  0  0  0
  189.6400  178.5320  143.5740 C   0  0  2  0  0  3  0  0  0  0  0  0
  191.0080  178.5940  144.2590 C   0  0  0  0  0  2  0  0  0  0  0  0
  186.3160  177.4050  141.0030 C   0  0  0  0  0  2  0  0  0  0  0  0
  185.4600  178.4460  143.0710 C   0  0  0  0  0  0  0  0  0  0  0  0
  184.4410  179.1650  143.7040 C   0  0  0  0  0  3  0  0  0  0  0  0
  189.7100  177.0550  139.5550 O   0  0  0  0  0  0  0  0  0  0  0  0
  189.2060  178.1220  139.1070 C   0  0  0  0  0  0  0  0  0  0  0  0
  188.5460  179.0350  139.9850 N   0  0  0  0  0  2  0  0  0  0  0  0
  187.8060  177.0520  135.6030 C   0  0  0  0  0  0  0  0  0  0  0  0
  187.9750  178.9420  137.1390 C   0  0  0  0  0  3  0  0  0  0  0  0
  190.9960  176.8580  137.0630 O   0  0  0  0  0  0  0  0  0  0  0  0
  187.0230  176.3550  134.6430 N   0  0  0  0  0  1  0  0  0  0  0  0
  187.2830  178.2870  136.2060 C   0  0  0  0  0  3  0  0  0  0  0  0
  189.8230  177.2710  136.8690 C   0  0  0  0  0  0  0  0  0  0  0  0
  189.3050  178.4510  137.6520 C   0  0  2  0  0  3  0  0  0  0  0  0
  188.9870  176.6080  135.9130 N   0  0  0  0  0  0  0  0  0  0  0  0
  1  9  1  6  0  0  0
  2  3  1  1  0  0  0
  2  5  1  0  0  0  0
  3  7  1  0  0  0  0
  4 11  1  0  0  0  0
  5 14  1  6  0  0  0
  6  1  1  0  0  0  0
  6 17  1  0  0  0  0
  7  4  2  0  0  0  0
  8 23  1  6  0  0  0
  8 13  1  0  0  0  0
  8 12  1  0  0  0  0
 10 19  1  0  0  0  0
 13 18  1  1  0  0  0
 13  2  1  0  0  0  0
 14  1  1  0  0  0  0
 15  4  1  0  0  0  0
 16 12  1  6  0  0  0
 16  5  1  0  0  0  0
 16 17  1  0  0  0  0
 18 10  1  0  0  0  0
 19 20  1  0  0  0  0
 19  3  2  0  0  0  0
 20 15  2  0  0  0  0
 22 21  2  0  0  0  0
 22 23  1  0  0  0  0
 24 31  2  0  0  0  0
 24 28  1  0  0  0  0
 25 30  1  0  0  0  0
 27 24  1  0  0  0  0
 28 25  2  0  0  0  0
 29 26  2  0  0  0  0
 29 30  1  0  0  0  0
 30 22  1  1  0  0  0
 31 29  1  0  0  0  0
M  END
>  <MODEL>
3

>  <REMARK>
 VINA RESULT:      -6.7      3.178      7.996
  Name = 
  2 active torsions:
  status: ('A' for Active; 'I' for Inactive)
    1  A    between atoms: C_5  and  C_30
    2  A    between atoms: C_10  and  N_16
                            x       y       z     vdW  Elec       q    Type
                         _______ _______ _______ _____ _____    ______ ____

>  <TORSDO>
F 2

$$$$
=
 OpenBabel11122411183D

 31 35  0  0  1  0  0  0  0  0999 V2000
  188.9320  177.3420  135.4780 C   0  0  2  0  0  3  0  0  0  0  0  0
  187.5630  178.5870  138.8780 C   0  0  2  0  0  3  0  0  0  0  0  0
  186.2540  178.3360  139.5970 C   0  0  0  0  0  0  0  0  0  0  0  0
  183.8950  177.7590  139.5590 C   0  0  0  0  0  0  0  0  0  0  0  0
  187.7680  177.6550  137.6740 C   0  0  1  0  0  3  0  0  0  0  0  0
  189.4240  175.9690  135.9250 C   0  0  0  0  0  2  0  0  0  0  0  0
  185.1040  177.9580  138.8890 C   0  0  0  0  0  3  0  0  0  0  0  0
  189.1470  177.1300  140.2510 C   0  0  2  0  0  3  0  0  0  0  0  0
  189.8530  177.8990  134.5940 O   0  0  0  0  0  1  0  0  0  0  0  0
  187.2850  178.9820  141.7090 O   0  0  0  0  0  0  0  0  0  0  0  0
  182.6850  177.3440  138.8020 C   0  0  0  0  0  1  0  0  0  0  0  0
  189.4160  176.2710  139.0190 C   0  0  0  0  0  2  0  0  0  0  0  0
  188.7780  178.5620  139.8340 C   0  0  2  0  0  3  0  0  0  0  0  0
  188.7670  178.2590  136.6840 C   0  0  0  0  0  2  0  0  0  0  0  0
  183.8210  177.9510  140.9420 C   0  0  0  0  0  3  0  0  0  0  0  0
  188.1850  176.2380  138.1140 C   0  0  2  0  0  3  0  0  0  0  0  0
  188.4260  175.3400  136.8980 C   0  0  0  0  0  2  0  0  0  0  0  0
  188.4740  179.4290  141.0580 C   0  0  0  0  0  2  0  0  0  0  0  0
  186.1640  178.5630  140.9860 C   0  0  0  0  0  0  0  0  0  0  0  0
  184.9540  178.3540  141.6530 C   0  0  0  0  0  3  0  0  0  0  0  0
  189.3200  176.0110  142.8710 O   0  0  0  0  0  0  0  0  0  0  0  0
  190.3550  176.5560  142.3970 C   0  0  0  0  0  0  0  0  0  0  0  0
  190.3320  177.1450  141.0970 N   0  0  0  0  0  2  0  0  0  0  0  0
  191.6600  176.6640  146.0960 C   0  0  0  0  0  0  0  0  0  0  0  0
  191.7470  175.3550  144.0360 C   0  0  0  0  0  3  0  0  0  0  0  0
  191.7640  178.9790  143.4550 O   0  0  0  0  0  0  0  0  0  0  0  0
  191.6230  176.6600  147.5170 N   0  0  0  0  0  1  0  0  0  0  0  0
  191.7520  175.3880  145.3690 C   0  0  0  0  0  3  0  0  0  0  0  0
  191.6830  177.8600  144.0250 C   0  0  0  0  0  0  0  0  0  0  0  0
  191.6170  176.6010  143.1970 C   0  0  2  0  0  3  0  0  0  0  0  0
  191.6430  177.7950  145.4550 N   0  0  0  0  0  0  0  0  0  0  0  0
  1  9  1  6  0  0  0
  1  6  1  0  0  0  0
  1 14  1  0  0  0  0
  2  3  1  1  0  0  0
  2 13  1  0  0  0  0
  3 19  1  0  0  0  0
  4 15  2  0  0  0  0
  5 14  1  6  0  0  0
  5 16  1  0  0  0  0
  5  2  1  0  0  0  0
  6 17  1  0  0  0  0
  7  4  1  0  0  0  0
  7  3  2  0  0  0  0
  8 23  1  1  0  0  0
 11  4  1  0  0  0  0
 12  8  1  0  0  0  0
 13  8  1  0  0  0  0
 13 18  1  1  0  0  0
 15 20  1  0  0  0  0
 16 17  1  6  0  0  0
 16 12  1  0  0  0  0
 18 10  1  0  0  0  0
 19 20  2  0  0  0  0
 19 10  1  0  0  0  0
 22 21  2  0  0  0  0
 23 22  1  0  0  0  0
 24 27  1  0  0  0  0
 25 28  2  0  0  0  0
 26 29  2  0  0  0  0
 28 24  1  0  0  0  0
 29 31  1  0  0  0  0
 30 22  1  1  0  0  0
 30 29  1  0  0  0  0
 30 25  1  0  0  0  0
 31 24  2  0  0  0  0
M  END
>  <MODEL>
4

>  <REMARK>
 VINA RESULT:      -6.6      2.697      4.291
  Name = 
  2 active torsions:
  status: ('A' for Active; 'I' for Inactive)
    1  A    between atoms: C_5  and  C_30
    2  A    between atoms: C_10  and  N_16
                            x       y       z     vdW  Elec       q    Type
                         _______ _______ _______ _____ _____    ______ ____

>  <TORSDO>
F 2

$$$$
=
 OpenBabel11122411183D

 31 35  0  0  1  0  0  0  0  0999 V2000
  191.5630  177.7330  143.3010 C   0  0  2  0  0  3  0  0  0  0  0  0
  190.7600  177.8460  139.5150 C   0  0  2  0  0  3  0  0  0  0  0  0
  190.9710  176.8400  138.4030 C   0  0  0  0  0  0  0  0  0  0  0  0
  192.1600  174.9400  137.4650 C   0  0  0  0  0  0  0  0  0  0  0  0
  190.9880  177.2470  140.9120 C   0  0  1  0  0  3  0  0  0  0  0  0
  190.3430  176.9430  143.7630 C   0  0  0  0  0  2  0  0  0  0  0  0
  191.9530  175.8440  138.5100 C   0  0  0  0  0  3  0  0  0  0  0  0
  188.2380  177.6490  139.8630 C   0  0  2  0  0  3  0  0  0  0  0  0
  191.8350  178.7470  144.2170 O   0  0  0  0  0  1  0  0  0  0  0  0
  189.2740  177.9600  137.0600 O   0  0  0  0  0  0  0  0  0  0  0  0
  193.1930  173.8790  137.5940 C   0  0  0  0  0  1  0  0  0  0  0  0
  188.4800  177.1460  141.2840 C   0  0  0  0  0  2  0  0  0  0  0  0
  189.3920  178.5600  139.4150 C   0  0  2  0  0  3  0  0  0  0  0  0
  191.3020  178.3460  141.9290 C   0  0  0  0  0  2  0  0  0  0  0  0
  191.3960  175.0330  136.2980 C   0  0  0  0  0  3  0  0  0  0  0  0
  189.7970  176.3770  141.3600 C   0  0  2  0  0  3  0  0  0  0  0  0
  190.0260  175.8260  142.7690 C   0  0  0  0  0  2  0  0  0  0  0  0
  189.1810  179.0480  137.9810 C   0  0  0  0  0  2  0  0  0  0  0  0
  190.2290  176.9510  137.2100 C   0  0  0  0  0  0  0  0  0  0  0  0
  190.4330  176.0380  136.1700 C   0  0  0  0  0  3  0  0  0  0  0  0
  186.1590  177.2290  137.9530 O   0  0  0  0  0  0  0  0  0  0  0  0
  185.9730  178.1100  138.8380 C   0  0  0  0  0  0  0  0  0  0  0  0
  186.9780  178.3770  139.8160 N   0  0  0  0  0  2  0  0  0  0  0  0
  182.3040  177.9820  140.2230 C   0  0  0  0  0  0  0  0  0  0  0  0
  184.3660  179.2900  140.2830 C   0  0  0  0  0  3  0  0  0  0  0  0
  183.6380  177.8780  136.9750 O   0  0  0  0  0  0  0  0  0  0  0  0
  181.1690  177.5030  140.9320 N   0  0  0  0  0  1  0  0  0  0  0  0
  183.2700  178.8570  140.9080 C   0  0  0  0  0  3  0  0  0  0  0  0
  183.5820  178.1270  138.2070 C   0  0  0  0  0  0  0  0  0  0  0  0
  184.7000  178.8930  138.8680 C   0  0  2  0  0  3  0  0  0  0  0  0
  182.4610  177.6690  138.9720 N   0  0  0  0  0  0  0  0  0  0  0  0
  1  6  1  0  0  0  0
  1  9  1  1  0  0  0
  2  3  1  6  0  0  0
  2  5  1  0  0  0  0
  3  7  1  0  0  0  0
  4 11  1  0  0  0  0
  4  7  2  0  0  0  0
  5 16  1  0  0  0  0
  5 14  1  1  0  0  0
  8 23  1  1  0  0  0
  8 12  1  0  0  0  0
 10 19  1  0  0  0  0
 10 18  1  0  0  0  0
 13 18  1  6  0  0  0
 13  2  1  0  0  0  0
 13  8  1  0  0  0  0
 14  1  1  0  0  0  0
 15  4  1  0  0  0  0
 16 12  1  1  0  0  0
 16 17  1  0  0  0  0
 17  6  1  0  0  0  0
 19  3  2  0  0  0  0
 20 15  2  0  0  0  0
 20 19  1  0  0  0  0
 21 22  2  0  0  0  0
 22 23  1  0  0  0  0
 24 28  1  0  0  0  0
 24 27  1  0  0  0  0
 25 28  2  0  0  0  0
 26 29  2  0  0  0  0
 29 30  1  0  0  0  0
 29 31  1  0  0  0  0
 30 22  1  1  0  0  0
 30 25  1  0  0  0  0
 31 24  2  0  0  0  0
M  END
>  <MODEL>
5

>  <REMARK>
 VINA RESULT:      -6.3      3.466      6.151
  Name = 
  2 active torsions:
  status: ('A' for Active; 'I' for Inactive)
    1  A    between atoms: C_5  and  C_30
    2  A    between atoms: C_10  and  N_16
                            x       y       z     vdW  Elec       q    Type
                         _______ _______ _______ _____ _____    ______ ____

>  <TORSDO>
F 2

$$$$
=
 OpenBabel11122411183D

 31 35  0  0  1  0  0  0  0  0999 V2000
  191.6870  177.5810  143.5100 C   0  0  2  0  0  3  0  0  0  0  0  0
  190.6740  177.8620  139.7840 C   0  0  2  0  0  3  0  0  0  0  0  0
  190.7840  176.8900  138.6280 C   0  0  0  0  0  0  0  0  0  0  0  0
  191.8470  174.9860  137.5570 C   0  0  0  0  0  0  0  0  0  0  0  0
  190.9590  177.2040  141.1440 C   0  0  1  0  0  3  0  0  0  0  0  0
  190.4670  176.8180  144.0160 C   0  0  0  0  0  2  0  0  0  0  0  0
  191.7340  175.8570  138.6420 C   0  0  0  0  0  3  0  0  0  0  0  0
  188.1710  177.7390  140.2720 C   0  0  2  0  0  3  0  0  0  0  0  0
  192.0480  178.5510  144.4440 O   0  0  0  0  0  1  0  0  0  0  0  0
  189.0560  178.1170  137.4260 O   0  0  0  0  0  0  0  0  0  0  0  0
  192.8460  173.8860  137.5880 C   0  0  0  0  0  1  0  0  0  0  0  0
  188.4740  177.1770  141.6580 C   0  0  0  0  0  2  0  0  0  0  0  0
  189.3290  178.6260  139.7900 C   0  0  2  0  0  3  0  0  0  0  0  0
  191.3710  178.2530  142.1790 C   0  0  0  0  0  2  0  0  0  0  0  0
  191.0220  175.1480  136.4400 C   0  0  0  0  0  3  0  0  0  0  0  0
  189.7650  176.3590  141.6300 C   0  0  2  0  0  3  0  0  0  0  0  0
  190.0530  175.7490  143.0040 C   0  0  0  0  0  2  0  0  0  0  0  0
  189.0550  179.1720  138.3870 C   0  0  0  0  0  2  0  0  0  0  0  0
  189.9800  177.0700  137.4840 C   0  0  0  0  0  0  0  0  0  0  0  0
  190.0910  176.1890  136.4040 C   0  0  0  0  0  3  0  0  0  0  0  0
  186.4010  177.8780  142.5070 O   0  0  0  0  0  0  0  0  0  0  0  0
  186.1010  178.5470  141.4800 C   0  0  0  0  0  0  0  0  0  0  0  0
  186.9380  178.5120  140.3240 N   0  0  0  0  0  2  0  0  0  0  0  0
  182.2160  178.2700  141.0160 C   0  0  0  0  0  0  0  0  0  0  0  0
  183.9450  178.9790  142.5880 C   0  0  0  0  0  3  0  0  0  0  0  0
  184.7530  179.7560  139.0930 O   0  0  0  0  0  0  0  0  0  0  0  0
  180.9410  177.6690  140.8280 N   0  0  0  0  0  1  0  0  0  0  0  0
  182.7350  178.4560  142.3800 C   0  0  0  0  0  3  0  0  0  0  0  0
  184.1800  179.2920  140.1130 C   0  0  0  0  0  0  0  0  0  0  0  0
  184.8590  179.3780  141.4570 C   0  0  2  0  0  3  0  0  0  0  0  0
  182.8940  178.6750  139.9840 N   0  0  0  0  0  0  0  0  0  0  0  0
  1  6  1  0  0  0  0
  1  9  1  1  0  0  0
  2  3  1  6  0  0  0
  2 13  1  0  0  0  0
  2  5  1  0  0  0  0
  3  7  1  0  0  0  0
  4 11  1  0  0  0  0
  4  7  2  0  0  0  0
  5 16  1  0  0  0  0
  5 14  1  1  0  0  0
  8 23  1  1  0  0  0
  8 12  1  0  0  0  0
 10 19  1  0  0  0  0
 10 18  1  0  0  0  0
 13 18  1  6  0  0  0
 13  8  1  0  0  0  0
 14  1  1  0  0  0  0
 15  4  1  0  0  0  0
 16 12  1  1  0  0  0
 16 17  1  0  0  0  0
 17  6  1  0  0  0  0
 19  3  2  0  0  0  0
 20 15  2  0  0  0  0
 20 19  1  0  0  0  0
 22 21  2  0  0  0  0
 23 22  1  0  0  0  0
 24 28  1  0  0  0  0
 26 29  2  0  0  0  0
 27 24  1  0  0  0  0
 28 25  2  0  0  0  0
 29 30  1  0  0  0  0
 30 22  1  6  0  0  0
 30 25  1  0  0  0  0
 31 29  1  0  0  0  0
 31 24  2  0  0  0  0
M  END
>  <MODEL>
6

>  <REMARK>
 VINA RESULT:      -6.2      3.608      5.895
  Name = 
  2 active torsions:
  status: ('A' for Active; 'I' for Inactive)
    1  A    between atoms: C_5  and  C_30
    2  A    between atoms: C_10  and  N_16
                            x       y       z     vdW  Elec       q    Type
                         _______ _______ _______ _____ _____    ______ ____

>  <TORSDO>
F 2

$$$$
=
 OpenBabel11122411183D

 31 35  0  0  1  0  0  0  0  0999 V2000
  188.6530  177.4940  135.4560 C   0  0  2  0  0  3  0  0  0  0  0  0
  185.7490  178.0210  137.9620 C   0  0  2  0  0  3  0  0  0  0  0  0
  184.5530  177.1650  138.3220 C   0  0  0  0  0  0  0  0  0  0  0  0
  182.9320  175.4470  137.7560 C   0  0  0  0  0  0  0  0  0  0  0  0
  186.7820  177.2710  137.1070 C   0  0  1  0  0  3  0  0  0  0  0  0
  189.5350  176.6010  136.3230 C   0  0  0  0  0  2  0  0  0  0  0  0
  184.0540  176.2090  137.4250 C   0  0  0  0  0  3  0  0  0  0  0  0
  187.2230  177.6700  140.0170 C   0  0  2  0  0  3  0  0  0  0  0  0
  189.4510  178.4030  134.7640 O   0  0  0  0  0  1  0  0  0  0  0  0
  184.3280  178.3590  140.4350 O   0  0  0  0  0  0  0  0  0  0  0  0
  182.4210  174.4250  136.8050 C   0  0  0  0  0  1  0  0  0  0  0  0
  188.2820  177.0130  139.1380 C   0  0  0  0  0  2  0  0  0  0  0  0
  186.4010  178.6800  139.2000 C   0  0  2  0  0  3  0  0  0  0  0  0
  187.6590  178.2540  136.3280 C   0  0  0  0  0  2  0  0  0  0  0  0
  182.2890  175.6430  138.9810 C   0  0  0  0  0  3  0  0  0  0  0  0
  187.6270  176.3000  137.9560 C   0  0  2  0  0  3  0  0  0  0  0  0
  188.6770  175.5960  137.0940 C   0  0  0  0  0  2  0  0  0  0  0  0
  185.3120  179.3240  140.0600 C   0  0  0  0  0  2  0  0  0  0  0  0
  183.8780  177.3840  139.5410 C   0  0  0  0  0  0  0  0  0  0  0  0
  182.7610  176.6110  139.8710 C   0  0  0  0  0  3  0  0  0  0  0  0
  188.3060  176.3740  142.3180 O   0  0  0  0  0  0  0  0  0  0  0  0
  188.4030  177.6310  142.2540 C   0  0  0  0  0  0  0  0  0  0  0  0
  187.8710  178.3410  141.1350 N   0  0  0  0  0  2  0  0  0  0  0  0
  190.8540  177.1720  145.2820 C   0  0  0  0  0  0  0  0  0  0  0  0
  190.5630  178.3720  143.1750 C   0  0  0  0  0  3  0  0  0  0  0  0
  187.4430  177.9860  145.0700 O   0  0  0  0  0  0  0  0  0  0  0  0
  191.7490  176.5280  146.1790 N   0  0  0  0  0  1  0  0  0  0  0  0
  191.3800  177.7950  144.0570 C   0  0  0  0  0  3  0  0  0  0  0  0
  188.6420  177.8700  144.7030 C   0  0  0  0  0  0  0  0  0  0  0  0
  189.0660  178.3940  143.3550 C   0  0  2  0  0  3  0  0  0  0  0  0
  189.5880  177.2300  145.5670 N   0  0  0  0  0  0  0  0  0  0  0  0
  1  9  1  1  0  0  0
  1  6  1  0  0  0  0
  1 14  1  0  0  0  0
  2  3  1  1  0  0  0
  2 13  1  0  0  0  0
  3 19  1  0  0  0  0
  4 15  2  0  0  0  0
  5 14  1  1  0  0  0
  5 16  1  0  0  0  0
  5  2  1  0  0  0  0
  6 17  1  0  0  0  0
  7  4  1  0  0  0  0
  7  3  2  0  0  0  0
  8 23  1  1  0  0  0
 11  4  1  0  0  0  0
 12  8  1  0  0  0  0
 13  8  1  0  0  0  0
 13 18  1  1  0  0  0
 15 20  1  0  0  0  0
 16 17  1  6  0  0  0
 16 12  1  0  0  0  0
 18 10  1  0  0  0  0
 19 20  2  0  0  0  0
 19 10  1  0  0  0  0
 22 21  2  0  0  0  0
 23 22  1  0  0  0  0
 24 31  2  0  0  0  0
 24 27  1  0  0  0  0
 25 30  1  0  0  0  0
 25 28  2  0  0  0  0
 28 24  1  0  0  0  0
 29 26  2  0  0  0  0
 29 31  1  0  0  0  0
 30 22  1  6  0  0  0
 30 29  1  0  0  0  0
M  END
>  <MODEL>
7

>  <REMARK>
 VINA RESULT:      -5.5      2.752      4.113
  Name = 
  2 active torsions:
  status: ('A' for Active; 'I' for Inactive)
    1  A    between atoms: C_5  and  C_30
    2  A    between atoms: C_10  and  N_16
                            x       y       z     vdW  Elec       q    Type
                         _______ _______ _______ _____ _____    ______ ____

>  <TORSDO>
F 2

$$$$
=
 OpenBabel11122411183D

 31 35  0  0  1  0  0  0  0  0999 V2000
  191.6890  176.2800  143.5680 C   0  0  2  0  0  3  0  0  0  0  0  0
  187.9740  176.8800  144.4790 C   0  0  2  0  0  3  0  0  0  0  0  0
  187.3180  177.6440  145.6100 C   0  0  0  0  0  0  0  0  0  0  0  0
  187.3770  178.5600  147.8590 C   0  0  0  0  0  0  0  0  0  0  0  0
  189.4830  177.1520  144.3730 C   0  0  1  0  0  3  0  0  0  0  0  0
  191.9580  177.6000  142.8520 C   0  0  0  0  0  2  0  0  0  0  0  0
  188.0020  177.8810  146.8120 C   0  0  0  0  0  3  0  0  0  0  0  0
  187.5690  178.4770  142.5280 C   0  0  2  0  0  3  0  0  0  0  0  0
  192.3140  175.2420  142.8790 O   0  0  0  0  0  1  0  0  0  0  0  0
  185.2560  177.7940  144.3200 O   0  0  0  0  0  0  0  0  0  0  0  0
  188.1150  178.8190  149.1230 C   0  0  0  0  0  1  0  0  0  0  0  0
  189.0760  178.6600  142.3740 C   0  0  0  0  0  2  0  0  0  0  0  0
  187.2580  177.0950  143.1250 C   0  0  2  0  0  3  0  0  0  0  0  0
  190.1890  176.0150  143.6320 C   0  0  0  0  0  2  0  0  0  0  0  0
  186.0560  178.9960  147.7210 C   0  0  0  0  0  3  0  0  0  0  0  0
  189.7710  178.5210  143.7270 C   0  0  2  0  0  3  0  0  0  0  0  0
  191.2780  178.7530  143.5920 C   0  0  0  0  0  2  0  0  0  0  0  0
  185.7520  176.9070  143.3170 C   0  0  0  0  0  2  0  0  0  0  0  0
  185.9750  178.0540  145.4900 C   0  0  0  0  0  0  0  0  0  0  0  0
  185.3560  178.7420  146.5390 C   0  0  0  0  0  3  0  0  0  0  0  0
  185.0610  179.7530  142.0480 O   0  0  0  0  0  0  0  0  0  0  0  0
  185.6760  179.2760  141.0540 C   0  0  0  0  0  0  0  0  0  0  0  0
  186.9290  178.6150  141.2270 N   0  0  0  0  0  2  0  0  0  0  0  0
  183.8030  177.1780  138.3200 C   0  0  0  0  0  0  0  0  0  0  0  0
  183.6040  179.1620  139.7300 C   0  0  0  0  0  3  0  0  0  0  0  0
  187.0000  178.6280  138.4450 O   0  0  0  0  0  0  0  0  0  0  0  0
  183.1510  176.0700  137.7120 N   0  0  0  0  0  1  0  0  0  0  0  0
  183.0160  178.1350  139.1130 C   0  0  0  0  0  3  0  0  0  0  0  0
  185.7860  178.4500  138.7260 C   0  0  0  0  0  0  0  0  0  0  0  0
  185.0930  179.3880  139.6820 C   0  0  2  0  0  3  0  0  0  0  0  0
  185.0790  177.3500  138.1430 N   0  0  0  0  0  0  0  0  0  0  0  0
  1  9  1  6  0  0  0
  1 14  1  0  0  0  0
  2  3  1  1  0  0  0
  3  7  1  0  0  0  0
  4 11  1  0  0  0  0
  5 14  1  6  0  0  0
  5  2  1  0  0  0  0
  6  1  1  0  0  0  0
  6 17  1  0  0  0  0
  7  4  2  0  0  0  0
  8 23  1  6  0  0  0
  8 13  1  0  0  0  0
 10 19  1  0  0  0  0
 12  8  1  0  0  0  0
 13 18  1  1  0  0  0
 13  2  1  0  0  0  0
 15  4  1  0  0  0  0
 16 12  1  6  0  0  0
 16  5  1  0  0  0  0
 17 16  1  0  0  0  0
 18 10  1  0  0  0  0
 19  3  2  0  0  0  0
 19 20  1  0  0  0  0
 20 15  2  0  0  0  0
 22 23  1  0  0  0  0
 22 21  2  0  0  0  0
 24 28  1  0  0  0  0
 26 29  2  0  0  0  0
 27 24  1  0  0  0  0
 28 25  2  0  0  0  0
 29 30  1  0  0  0  0
 30 25  1  0  0  0  0
 30 22  1  1  0  0  0
 31 24  2  0  0  0  0
 31 29  1  0  0  0  0
M  END
>  <MODEL>
8

>  <REMARK>
 VINA RESULT:      -5.1      4.811      8.609
  Name = 
  2 active torsions:
  status: ('A' for Active; 'I' for Inactive)
    1  A    between atoms: C_5  and  C_30
    2  A    between atoms: C_10  and  N_16
                            x       y       z     vdW  Elec       q    Type
                         _______ _______ _______ _____ _____    ______ ____

>  <TORSDO>
F 2

$$$$
=
 OpenBabel11122411183D

 31 35  0  0  1  0  0  0  0  0999 V2000
  186.7680  177.2880  135.4830 C   0  0  2  0  0  3  0  0  0  0  0  0
  183.0980  176.0610  135.3610 C   0  0  2  0  0  3  0  0  0  0  0  0
  182.4110  174.8560  135.9690 C   0  0  0  0  0  0  0  0  0  0  0  0
  182.4910  172.5900  136.8400 C   0  0  0  0  0  0  0  0  0  0  0  0
  184.5150  176.2790  135.9130 C   0  0  1  0  0  3  0  0  0  0  0  0
  186.7260  177.9790  136.8430 C   0  0  0  0  0  2  0  0  0  0  0  0
  183.1400  173.7060  136.3090 C   0  0  0  0  0  3  0  0  0  0  0  0
  182.2390  177.9190  136.8880 C   0  0  2  0  0  3  0  0  0  0  0  0
  187.5130  178.0590  134.5940 O   0  0  0  0  0  1  0  0  0  0  0  0
  180.2540  175.9700  135.7530 O   0  0  0  0  0  0  0  0  0  0  0  0
  183.2740  171.3820  137.2110 C   0  0  0  0  0  1  0  0  0  0  0  0
  183.6670  178.1880  137.3530 C   0  0  0  0  0  2  0  0  0  0  0  0
  182.2410  177.3450  135.4620 C   0  0  2  0  0  3  0  0  0  0  0  0
  185.3540  177.1130  134.9410 C   0  0  0  0  0  2  0  0  0  0  0  0
  181.1050  172.6070  137.0240 C   0  0  0  0  0  3  0  0  0  0  0  0
  184.4890  176.9010  137.3230 C   0  0  2  0  0  3  0  0  0  0  0  0
  185.9100  177.1490  137.8350 C   0  0  0  0  0  2  0  0  0  0  0  0
  180.8180  177.0390  134.9920 C   0  0  0  0  0  2  0  0  0  0  0  0
  181.0100  174.8530  136.1230 C   0  0  0  0  0  0  0  0  0  0  0  0
  180.3660  173.7360  136.6640 C   0  0  0  0  0  3  0  0  0  0  0  0
  179.8530  178.3430  138.3950 O   0  0  0  0  0  0  0  0  0  0  0  0
  180.2940  179.3090  137.7120 C   0  0  0  0  0  0  0  0  0  0  0  0
  181.4760  179.1590  136.9260 N   0  0  0  0  0  2  0  0  0  0  0  0
  180.8760  183.1400  137.1000 C   0  0  0  0  0  0  0  0  0  0  0  0
  179.5890  181.2150  136.3220 C   0  0  0  0  0  3  0  0  0  0  0  0
  180.0580  181.2740  139.9620 O   0  0  0  0  0  0  0  0  0  0  0  0
  181.5550  184.3420  136.7620 N   0  0  0  0  0  1  0  0  0  0  0  0
  180.2010  182.3680  136.0450 C   0  0  0  0  0  3  0  0  0  0  0  0
  180.1570  181.5540  138.7390 C   0  0  0  0  0  0  0  0  0  0  0  0
  179.5760  180.6200  137.7080 C   0  0  2  0  0  3  0  0  0  0  0  0
  180.8310  182.7530  138.3400 N   0  0  0  0  0  0  0  0  0  0  0  0
  1  9  1  6  0  0  0
  1  6  1  0  0  0  0
  2 13  1  0  0  0  0
  2  5  1  0  0  0  0
  2  3  1  1  0  0  0
  3 19  2  0  0  0  0
  3  7  1  0  0  0  0
  4 15  1  0  0  0  0
  4 11  1  0  0  0  0
  5 14  1  6  0  0  0
  5 16  1  0  0  0  0
  6 17  1  0  0  0  0
  7  4  2  0  0  0  0
  8 23  1  6  0  0  0
  8 12  1  0  0  0  0
 10 19  1  0  0  0  0
 13 18  1  1  0  0  0
 13  8  1  0  0  0  0
 14  1  1  0  0  0  0
 16 12  1  6  0  0  0
 16 17  1  0  0  0  0
 18 10  1  0  0  0  0
 19 20  1  0  0  0  0
 20 15  2  0  0  0  0
 22 21  2  0  0  0  0
 23 22  1  0  0  0  0
 24 31  2  0  0  0  0
 25 30  1  0  0  0  0
 27 24  1  0  0  0  0
 28 25  2  0  0  0  0
 28 24  1  0  0  0  0
 29 26  2  0  0  0  0
 30 22  1  6  0  0  0
 30 29  1  0  0  0  0
 31 29  1  0  0  0  0
M  END
>  <MODEL>
9

>  <REMARK>
 VINA RESULT:      -4.9      6.755      9.406
  Name = 
  2 active torsions:
  status: ('A' for Active; 'I' for Inactive)
    1  A    between atoms: C_5  and  C_30
    2  A    between atoms: C_10  and  N_16
                            x       y       z     vdW  Elec       q    Type
                         _______ _______ _______ _____ _____    ______ ____

>  <TORSDO>
F 2

$$$$
