=
 OpenBabel11122411143D

 31 35  0  0  1  0  0  0  0  0999 V2000
  190.0560  175.9140  142.7670 C   0  0  0  0  0  0  0  0  0  0  0  0
  186.7380  177.2050  144.1120 C   0  0  2  0  0  3  0  0  0  0  0  0
  187.0670  178.1100  145.3250 C   0  0  2  0  0  3  0  0  0  0  0  0
  188.5240  178.3880  147.3460 C   0  0  2  0  0  3  0  0  0  0  0  0
  187.9310  177.0090  143.2000 C   0  0  0  0  0  0  0  0  0  0  0  0
  190.2140  176.6690  141.6030 C   0  0  0  0  0  3  0  0  0  0  0  0
  188.1880  177.4860  146.1680 C   0  0  0  0  0  2  0  0  0  0  0  0
  185.9430  179.0070  142.5360 C   0  0  2  0  0  3  0  0  0  0  0  0
  191.0080  175.0220  143.1300 F   0  0  0  0  0  0  0  0  0  0  0  0
  184.8190  178.9470  145.3970 C   0  0  0  0  0  2  0  0  0  0  0  0
  189.5620  177.7170  148.2200 C   0  0  0  0  0  1  0  0  0  0  0  0
  187.0000  178.6550  141.4910 C   0  0  0  0  0  2  0  0  0  0  0  0
  185.5350  177.7530  143.3230 C   0  0  2  0  0  3  0  0  0  0  0  0
  188.9190  176.0820  143.5590 C   0  0  0  0  0  3  0  0  0  0  0  0
  187.2690  178.6640  148.1610 C   0  0  0  0  0  2  0  0  0  0  0  0
  188.0890  177.7660  142.0170 C   0  0  0  0  0  0  0  0  0  0  0  0
  189.2290  177.5840  141.2260 C   0  0  0  0  0  3  0  0  0  0  0  0
  184.3670  178.0310  144.2690 C   0  0  0  0  0  2  0  0  0  0  0  0
  185.8730  178.3040  146.1750 N   0  0  2  0  0  0  0  0  0  0  0  0
  186.1980  179.2460  147.2460 C   0  0  0  0  0  2  0  0  0  0  0  0
  184.0720  177.5790  140.9260 O   0  0  0  0  0  0  0  0  0  0  0  0
  183.8800  178.8160  141.0830 C   0  0  0  0  0  0  0  0  0  0  0  0
  184.7860  179.5910  141.8700 N   0  0  0  0  0  2  0  0  0  0  0  0
  181.5280  177.8880  138.2630 C   0  0  1  0  0  3  0  0  0  0  0  0
  181.4080  178.7100  140.6320 C   0  0  0  0  0  2  0  0  0  0  0  0
  184.1510  180.4950  138.7720 O   0  0  0  0  0  1  0  0  0  0  0  0
  181.4820  176.7530  137.4550 O   0  0  0  0  0  1  0  0  0  0  0  0
  181.3510  177.4810  139.7230 C   0  0  0  0  0  2  0  0  0  0  0  0
  182.9340  179.8380  138.9540 C   0  0  2  0  0  3  0  0  0  0  0  0
  182.7090  179.4970  140.4380 C   0  0  2  0  0  3  0  0  0  0  0  0
  182.8660  178.5950  138.0710 C   0  0  0  0  0  2  0  0  0  0  0  0
  1  9  1  0  0  0  0
  1 14  1  0  0  0  0
  2  5  1  6  0  0  0
  2  3  1  0  0  0  0
  3  7  1  1  0  0  0
  3 19  1  0  0  0  0
  4 15  1  0  0  0  0
  4 11  1  1  0  0  0
  5 14  2  0  0  0  0
  6  1  2  0  0  0  0
  7  4  1  0  0  0  0
  8 23  1  6  0  0  0
  8 13  1  0  0  0  0
 12 16  1  0  0  0  0
 12  8  1  0  0  0  0
 13  2  1  0  0  0  0
 13 18  1  1  0  0  0
 16  5  1  0  0  0  0
 17  6  1  0  0  0  0
 17 16  2  0  0  0  0
 18 10  1  0  0  0  0
 19 10  1  6  0  0  0
 19 20  1  0  0  0  0
 20 15  1  0  0  0  0
 21 22  2  0  0  0  0
 22 23  1  0  0  0  0
 24 27  1  6  0  0  0
 24 28  1  0  0  0  0
 28 25  1  0  0  0  0
 29 26  1  1  0  0  0
 29 30  1  0  0  0  0
 30 25  1  0  0  0  0
 30 22  1  6  0  0  0
 31 24  1  0  0  0  0
 31 29  1  0  0  0  0
M  END
>  <MODEL>
1

>  <REMARK>
 VINA RESULT:      -9.5      0.000      0.000
  Name = 
  2 active torsions:
  status: ('A' for Active; 'I' for Inactive)
    1  A    between atoms: C_5  and  C_30
    2  A    between atoms: C_10  and  N_16
                            x       y       z     vdW  Elec       q    Type
                         _______ _______ _______ _____ _____    ______ ____

>  <TORSDO>
F 2

$$$$
=
 OpenBabel11122411143D

 31 35  0  0  1  0  0  0  0  0999 V2000
  190.2200  175.9730  142.7690 C   0  0  0  0  0  0  0  0  0  0  0  0
  186.6810  177.2150  143.4160 C   0  0  2  0  0  3  0  0  0  0  0  0
  186.7500  178.1430  144.6540 C   0  0  2  0  0  3  0  0  0  0  0  0
  187.7780  178.4790  146.9150 C   0  0  2  0  0  3  0  0  0  0  0  0
  188.0320  177.0300  142.7590 C   0  0  0  0  0  0  0  0  0  0  0  0
  190.5900  176.7150  141.6460 C   0  0  0  0  0  3  0  0  0  0  0  0
  187.6950  177.5530  145.7100 C   0  0  0  0  0  2  0  0  0  0  0  0
  186.1800  178.9790  141.6830 C   0  0  2  0  0  3  0  0  0  0  0  0
  191.0970  175.1040  143.3270 F   0  0  0  0  0  0  0  0  0  0  0  0
  184.5180  178.9360  144.2700 C   0  0  0  0  0  2  0  0  0  0  0  0
  188.6350  177.8400  147.9880 C   0  0  0  0  0  1  0  0  0  0  0  0
  187.4270  178.6340  140.8720 C   0  0  0  0  0  2  0  0  0  0  0  0
  185.6460  177.7280  142.3970 C   0  0  2  0  0  3  0  0  0  0  0  0
  188.9470  176.1290  143.3210 C   0  0  0  0  0  3  0  0  0  0  0  0
  186.3830  178.7400  147.4640 C   0  0  0  0  0  2  0  0  0  0  0  0
  188.4070  177.7740  141.6160 C   0  0  0  0  0  0  0  0  0  0  0  0
  189.6820  177.6040  141.0670 C   0  0  0  0  0  3  0  0  0  0  0  0
  184.3110  177.9950  143.0910 C   0  0  0  0  0  2  0  0  0  0  0  0
  185.4100  178.3240  145.2500 N   0  0  2  0  0  0  0  0  0  0  0  0
  185.5020  179.2880  146.3470 C   0  0  0  0  0  2  0  0  0  0  0  0
  185.1820  177.7090  139.3320 O   0  0  0  0  0  0  0  0  0  0  0  0
  184.7030  178.8370  139.6340 C   0  0  0  0  0  0  0  0  0  0  0  0
  185.1660  179.5300  140.7930 N   0  0  0  0  0  2  0  0  0  0  0  0
  180.9650  178.3460  139.2600 C   0  0  1  0  0  3  0  0  0  0  0  0
  182.6010  180.2180  139.6100 C   0  0  0  0  0  2  0  0  0  0  0  0
  183.9410  177.7750  137.0800 O   0  0  0  0  0  1  0  0  0  0  0  0
  180.0960  177.4680  139.9040 O   0  0  0  0  0  1  0  0  0  0  0  0
  181.6330  179.2510  140.2920 C   0  0  0  0  0  2  0  0  0  0  0  0
  182.9830  178.4990  137.7900 C   0  0  2  0  0  3  0  0  0  0  0  0
  183.6500  179.4750  138.7750 C   0  0  2  0  0  3  0  0  0  0  0  0
  182.0190  177.5500  138.4970 C   0  0  0  0  0  2  0  0  0  0  0  0
  1 14  1  0  0  0  0
  1  9  1  0  0  0  0
  2  5  1  6  0  0  0
  2  3  1  0  0  0  0
  3 19  1  0  0  0  0
  3  7  1  1  0  0  0
  4 15  1  0  0  0  0
  4 11  1  1  0  0  0
  5 14  2  0  0  0  0
  6  1  2  0  0  0  0
  7  4  1  0  0  0  0
  8 23  1  6  0  0  0
  8 13  1  0  0  0  0
 12 16  1  0  0  0  0
 12  8  1  0  0  0  0
 13 18  1  1  0  0  0
 13  2  1  0  0  0  0
 16  5  1  0  0  0  0
 17 16  2  0  0  0  0
 17  6  1  0  0  0  0
 18 10  1  0  0  0  0
 19 10  1  6  0  0  0
 19 20  1  0  0  0  0
 20 15  1  0  0  0  0
 21 22  2  0  0  0  0
 22 23  1  0  0  0  0
 24 27  1  1  0  0  0
 24 28  1  0  0  0  0
 25 28  1  0  0  0  0
 29 26  1  1  0  0  0
 29 31  1  0  0  0  0
 29 30  1  0  0  0  0
 30 25  1  0  0  0  0
 30 22  1  1  0  0  0
 31 24  1  0  0  0  0
M  END
>  <MODEL>
2

>  <REMARK>
 VINA RESULT:      -9.1      1.128      1.368
  Name = 
  2 active torsions:
  status: ('A' for Active; 'I' for Inactive)
    1  A    between atoms: C_5  and  C_30
    2  A    between atoms: C_10  and  N_16
                            x       y       z     vdW  Elec       q    Type
                         _______ _______ _______ _____ _____    ______ ____

>  <TORSDO>
F 2

$$$$
=
 OpenBabel11122411143D

 31 35  0  0  1  0  0  0  0  0999 V2000
  191.3860  176.3030  144.4680 C   0  0  0  0  0  0  0  0  0  0  0  0
  187.7260  177.0570  143.7500 C   0  0  2  0  0  3  0  0  0  0  0  0
  187.2610  178.0800  144.8170 C   0  0  2  0  0  3  0  0  0  0  0  0
  187.4040  178.7400  147.2310 C   0  0  2  0  0  3  0  0  0  0  0  0
  189.2320  177.0230  143.6040 C   0  0  0  0  0  0  0  0  0  0  0  0
  192.0350  177.0010  143.4470 C   0  0  0  0  0  3  0  0  0  0  0  0
  187.8440  177.7200  146.1900 C   0  0  0  0  0  2  0  0  0  0  0  0
  187.6580  178.5870  141.7450 C   0  0  2  0  0  3  0  0  0  0  0  0
  192.1100  175.6190  145.3870 F   0  0  0  0  0  0  0  0  0  0  0  0
  185.2230  178.5030  143.6220 C   0  0  0  0  0  2  0  0  0  0  0  0
  187.9050  178.3200  148.5960 C   0  0  0  0  0  1  0  0  0  0  0  0
  189.1380  178.3670  141.4400 C   0  0  0  0  0  2  0  0  0  0  0  0
  187.0540  177.3320  142.3910 C   0  0  2  0  0  3  0  0  0  0  0  0
  189.9920  176.3130  144.5440 C   0  0  0  0  0  3  0  0  0  0  0  0
  185.8850  178.8350  147.2510 C   0  0  0  0  0  2  0  0  0  0  0  0
  189.8910  177.7220  142.5670 C   0  0  0  0  0  0  0  0  0  0  0  0
  191.2880  177.6980  142.4950 C   0  0  0  0  0  3  0  0  0  0  0  0
  185.5410  177.4520  142.5670 C   0  0  0  0  0  2  0  0  0  0  0  0
  185.7860  178.1090  144.9090 N   0  0  2  0  0  0  0  0  0  0  0  0
  185.3870  179.1580  145.8470 C   0  0  0  0  0  2  0  0  0  0  0  0
  188.0370  177.2770  139.2400 O   0  0  0  0  0  0  0  0  0  0  0  0
  187.1880  178.2090  139.2870 C   0  0  0  0  0  0  0  0  0  0  0  0
  186.9570  178.9120  140.5090 N   0  0  0  0  0  2  0  0  0  0  0  0
  186.6310  176.6030  135.9020 C   0  0  1  0  0  3  0  0  0  0  0  0
  185.2800  177.6210  137.7570 C   0  0  0  0  0  2  0  0  0  0  0  0
  188.3720  179.6710  137.1220 O   0  0  0  0  0  1  0  0  0  0  0  0
  187.1080  175.4040  135.3770 O   0  0  0  0  0  1  0  0  0  0  0  0
  185.8070  176.3180  137.1550 C   0  0  0  0  0  2  0  0  0  0  0  0
  187.3000  178.8300  136.8230 C   0  0  2  0  0  3  0  0  0  0  0  0
  186.4160  178.6040  138.0620 C   0  0  2  0  0  3  0  0  0  0  0  0
  187.8070  177.5130  136.2410 C   0  0  0  0  0  2  0  0  0  0  0  0
  1 14  1  0  0  0  0
  1  9  1  0  0  0  0
  2  5  1  6  0  0  0
  2  3  1  0  0  0  0
  3 19  1  0  0  0  0
  3  7  1  1  0  0  0
  4 15  1  0  0  0  0
  4 11  1  1  0  0  0
  5 14  2  0  0  0  0
  6  1  2  0  0  0  0
  7  4  1  0  0  0  0
  8 23  1  6  0  0  0
  8 13  1  0  0  0  0
 12  8  1  0  0  0  0
 12 16  1  0  0  0  0
 13 18  1  1  0  0  0
 13  2  1  0  0  0  0
 16  5  1  0  0  0  0
 17 16  2  0  0  0  0
 17  6  1  0  0  0  0
 18 10  1  0  0  0  0
 19 10  1  6  0  0  0
 19 20  1  0  0  0  0
 20 15  1  0  0  0  0
 21 22  2  0  0  0  0
 22 23  1  0  0  0  0
 24 27  1  1  0  0  0
 24 31  1  0  0  0  0
 24 28  1  0  0  0  0
 25 30  1  0  0  0  0
 28 25  1  0  0  0  0
 29 26  1  1  0  0  0
 29 30  1  0  0  0  0
 30 22  1  1  0  0  0
 31 29  1  0  0  0  0
M  END
>  <MODEL>
3

>  <REMARK>
 VINA RESULT:      -8.6      2.716      3.230
  Name = 
  2 active torsions:
  status: ('A' for Active; 'I' for Inactive)
    1  A    between atoms: C_5  and  C_30
    2  A    between atoms: C_10  and  N_16
                            x       y       z     vdW  Elec       q    Type
                         _______ _______ _______ _____ _____    ______ ____

>  <TORSDO>
F 2

$$$$
=
 OpenBabel11122411143D

 31 35  0  0  1  0  0  0  0  0999 V2000
  185.1330  178.6100  139.1260 C   0  0  0  0  0  0  0  0  0  0  0  0
  188.8460  178.1200  139.7990 C   0  0  2  0  0  3  0  0  0  0  0  0
  188.9600  177.1580  141.0080 C   0  0  2  0  0  3  0  0  0  0  0  0
  188.0010  176.5390  143.2400 C   0  0  2  0  0  3  0  0  0  0  0  0
  187.4940  178.0380  139.1240 C   0  0  0  0  0  0  0  0  0  0  0  0
  184.9410  177.8440  137.9750 C   0  0  0  0  0  3  0  0  0  0  0  0
  187.9010  177.5010  142.0640 C   0  0  0  0  0  2  0  0  0  0  0  0
  189.7280  176.5590  138.0240 C   0  0  2  0  0  3  0  0  0  0  0  0
  184.0860  179.2560  139.6930 F   0  0  0  0  0  0  0  0  0  0  0  0
  191.3140  176.8660  140.6410 C   0  0  0  0  0  2  0  0  0  0  0  0
  187.0160  176.9470  144.3150 C   0  0  0  0  0  1  0  0  0  0  0  0
  188.4450  176.6610  137.2010 C   0  0  0  0  0  2  0  0  0  0  0  0
  189.9780  177.8700  138.7850 C   0  0  2  0  0  3  0  0  0  0  0  0
  186.4040  178.7080  139.6960 C   0  0  0  0  0  3  0  0  0  0  0  0
  189.4130  176.5600  143.8060 C   0  0  0  0  0  2  0  0  0  0  0  0
  187.2980  177.2700  137.9530 C   0  0  0  0  0  0  0  0  0  0  0  0
  186.0220  177.1860  137.3860 C   0  0  0  0  0  3  0  0  0  0  0  0
  191.3310  177.8670  139.4950 C   0  0  0  0  0  2  0  0  0  0  0  0
  190.3020  177.2430  141.6220 N   0  0  2  0  0  0  0  0  0  0  0  0
  190.4020  176.2460  142.6890 C   0  0  0  0  0  2  0  0  0  0  0  0
  191.2210  174.1290  138.0070 O   0  0  0  0  0  0  0  0  0  0  0  0
  191.5470  175.0190  137.1740 C   0  0  0  0  0  0  0  0  0  0  0  0
  190.8450  176.2630  137.1370 N   0  0  0  0  0  2  0  0  0  0  0  0
  194.8360  173.1530  137.3940 C   0  0  1  0  0  3  0  0  0  0  0  0
  192.8510  173.3120  135.8660 C   0  0  0  0  0  2  0  0  0  0  0  0
  193.8430  176.7370  137.0720 O   0  0  0  0  0  1  0  0  0  0  0  0
  195.4010  172.4290  138.4430 O   0  0  0  0  0  1  0  0  0  0  0  0
  193.4970  172.5290  137.0100 C   0  0  0  0  0  2  0  0  0  0  0  0
  194.0140  175.4060  136.6870 C   0  0  2  0  0  3  0  0  0  0  0  0
  192.6820  174.7940  136.2190 C   0  0  2  0  0  3  0  0  0  0  0  0
  194.6380  174.6020  137.8250 C   0  0  0  0  0  2  0  0  0  0  0  0
  1  9  1  0  0  0  0
  1 14  1  0  0  0  0
  2  5  1  6  0  0  0
  2  3  1  0  0  0  0
  3 19  1  0  0  0  0
  3  7  1  1  0  0  0
  4 15  1  0  0  0  0
  4 11  1  1  0  0  0
  5 14  2  0  0  0  0
  6  1  2  0  0  0  0
  7  4  1  0  0  0  0
  8 23  1  6  0  0  0
  8 13  1  0  0  0  0
 12 16  1  0  0  0  0
 12  8  1  0  0  0  0
 13 18  1  1  0  0  0
 13  2  1  0  0  0  0
 16  5  1  0  0  0  0
 17 16  2  0  0  0  0
 17  6  1  0  0  0  0
 18 10  1  0  0  0  0
 19 10  1  6  0  0  0
 19 20  1  0  0  0  0
 20 15  1  0  0  0  0
 22 21  2  0  0  0  0
 23 22  1  0  0  0  0
 24 31  1  0  0  0  0
 24 27  1  1  0  0  0
 25 30  1  0  0  0  0
 25 28  1  0  0  0  0
 28 24  1  0  0  0  0
 29 26  1  1  0  0  0
 29 31  1  0  0  0  0
 30 29  1  0  0  0  0
 30 22  1  1  0  0  0
M  END
>  <MODEL>
4

>  <REMARK>
 VINA RESULT:      -8.2      5.437      8.579
  Name = 
  2 active torsions:
  status: ('A' for Active; 'I' for Inactive)
    1  A    between atoms: C_5  and  C_30
    2  A    between atoms: C_10  and  N_16
                            x       y       z     vdW  Elec       q    Type
                         _______ _______ _______ _____ _____    ______ ____

>  <TORSDO>
F 2

$$$$
=
 OpenBabel11122411143D

 31 35  0  0  1  0  0  0  0  0999 V2000
  189.1800  178.0870  143.5470 C   0  0  0  0  0  0  0  0  0  0  0  0
  186.7160  178.9570  140.7810 C   0  0  2  0  0  3  0  0  0  0  0  0
  186.9450  177.9360  139.6380 C   0  0  2  0  0  3  0  0  0  0  0  0
  188.6660  176.6590  138.3380 C   0  0  2  0  0  3  0  0  0  0  0  0
  187.2620  178.4700  142.1050 C   0  0  0  0  0  0  0  0  0  0  0  0
  188.3520  177.4950  144.5020 C   0  0  0  0  0  3  0  0  0  0  0  0
  188.4450  177.6790  139.4460 C   0  0  0  0  0  2  0  0  0  0  0  0
  184.4440  178.1480  141.5230 C   0  0  2  0  0  3  0  0  0  0  0  0
  190.5120  178.1860  143.7730 F   0  0  0  0  0  0  0  0  0  0  0  0
  184.9340  178.6270  138.5250 C   0  0  0  0  0  2  0  0  0  0  0  0
  190.1500  176.4870  138.0940 C   0  0  0  0  0  1  0  0  0  0  0  0
  184.9290  177.8780  142.9460 C   0  0  0  0  0  2  0  0  0  0  0  0
  185.2240  179.3190  140.9070 C   0  0  2  0  0  3  0  0  0  0  0  0
  188.6370  178.5740  142.3560 C   0  0  0  0  0  3  0  0  0  0  0  0
  187.9890  177.1290  137.0600 C   0  0  0  0  0  2  0  0  0  0  0  0
  186.4240  177.8770  143.0780 C   0  0  0  0  0  0  0  0  0  0  0  0
  186.9780  177.4010  144.2710 C   0  0  0  0  0  3  0  0  0  0  0  0
  184.6630  179.7240  139.5450 C   0  0  0  0  0  2  0  0  0  0  0  0
  186.3710  178.4310  138.3690 N   0  0  2  0  0  0  0  0  0  0  0  0
  186.5150  177.3960  137.3450 C   0  0  0  0  0  2  0  0  0  0  0  0
  182.4480  176.7890  140.0040 O   0  0  0  0  0  0  0  0  0  0  0  0
  182.0670  177.7170  140.7690 C   0  0  0  0  0  0  0  0  0  0  0  0
  183.0170  178.4440  141.5500 N   0  0  0  0  0  2  0  0  0  0  0  0
  179.0530  177.0970  138.5610 C   0  0  1  0  0  3  0  0  0  0  0  0
  179.7160  176.8450  140.9690 C   0  0  0  0  0  2  0  0  0  0  0  0
  180.9980  180.1090  139.6000 O   0  0  0  0  0  1  0  0  0  0  0  0
  178.9410  176.4300  137.3420 O   0  0  0  0  0  1  0  0  0  0  0  0
  179.5760  176.1340  139.6230 C   0  0  0  0  0  2  0  0  0  0  0  0
  180.1390  179.0180  139.7380 C   0  0  2  0  0  3  0  0  0  0  0  0
  180.6150  178.0830  140.8640 C   0  0  2  0  0  3  0  0  0  0  0  0
  180.0030  178.2800  138.4080 C   0  0  0  0  0  2  0  0  0  0  0  0
  1  9  1  0  0  0  0
  1  6  1  0  0  0  0
  2 13  1  0  0  0  0
  2  5  1  1  0  0  0
  3  7  1  6  0  0  0
  3  2  1  0  0  0  0
  4 11  1  6  0  0  0
  4  7  1  0  0  0  0
  5 14  1  0  0  0  0
  5 16  2  0  0  0  0
  8 23  1  1  0  0  0
  8 12  1  0  0  0  0
 10 18  1  0  0  0  0
 12 16  1  0  0  0  0
 13 18  1  6  0  0  0
 13  8  1  0  0  0  0
 14  1  2  0  0  0  0
 15 20  1  0  0  0  0
 15  4  1  0  0  0  0
 16 17  1  0  0  0  0
 17  6  2  0  0  0  0
 19 20  1  6  0  0  0
 19 10  1  0  0  0  0
 19  3  1  0  0  0  0
 21 22  2  0  0  0  0
 22 23  1  0  0  0  0
 24 27  1  6  0  0  0
 24 28  1  0  0  0  0
 28 25  1  0  0  0  0
 29 26  1  6  0  0  0
 29 30  1  0  0  0  0
 30 22  1  6  0  0  0
 30 25  1  0  0  0  0
 31 24  1  0  0  0  0
 31 29  1  0  0  0  0
M  END
>  <MODEL>
5

>  <REMARK>
 VINA RESULT:      -7.7      2.379      5.059
  Name = 
  2 active torsions:
  status: ('A' for Active; 'I' for Inactive)
    1  A    between atoms: C_5  and  C_30
    2  A    between atoms: C_10  and  N_16
                            x       y       z     vdW  Elec       q    Type
                         _______ _______ _______ _____ _____    ______ ____

>  <TORSDO>
F 2

$$$$
=
 OpenBabel11122411143D

 31 35  0  0  1  0  0  0  0  0999 V2000
  188.3790  178.1820  143.8020 C   0  0  0  0  0  0  0  0  0  0  0  0
  186.3910  178.9890  140.6590 C   0  0  2  0  0  3  0  0  0  0  0  0
  186.8290  177.9700  139.5770 C   0  0  2  0  0  3  0  0  0  0  0  0
  188.7690  176.7260  138.5900 C   0  0  2  0  0  3  0  0  0  0  0  0
  186.7200  178.5180  142.0590 C   0  0  0  0  0  0  0  0  0  0  0  0
  187.4160  177.5750  144.6100 C   0  0  0  0  0  3  0  0  0  0  0  0
  188.3460  177.7450  139.6390 C   0  0  0  0  0  2  0  0  0  0  0  0
  184.0460  178.1330  141.0180 C   0  0  2  0  0  3  0  0  0  0  0  0
  189.6530  178.3110  144.2460 F   0  0  0  0  0  0  0  0  0  0  0  0
  185.0180  178.6130  138.1400 C   0  0  0  0  0  2  0  0  0  0  0  0
  190.2760  176.5860  138.5980 C   0  0  0  0  0  1  0  0  0  0  0  0
  184.2930  177.8780  142.5030 C   0  0  0  0  0  2  0  0  0  0  0  0
  184.8930  179.3190  140.5330 C   0  0  2  0  0  3  0  0  0  0  0  0
  188.0320  178.6530  142.5340 C   0  0  0  0  0  3  0  0  0  0  0  0
  188.3050  177.1780  137.2140 C   0  0  0  0  0  2  0  0  0  0  0  0
  185.7450  177.9100  142.8830 C   0  0  0  0  0  0  0  0  0  0  0  0
  186.1020  177.4500  144.1550 C   0  0  0  0  0  3  0  0  0  0  0  0
  184.5570  179.7070  139.0940 C   0  0  0  0  0  2  0  0  0  0  0  0
  186.4650  178.4480  138.2270 N   0  0  2  0  0  0  0  0  0  0  0  0
  186.7990  177.4130  137.2480 C   0  0  0  0  0  2  0  0  0  0  0  0
  182.2090  176.3590  139.7470 O   0  0  0  0  0  0  0  0  0  0  0  0
  181.7590  177.4600  140.1680 C   0  0  0  0  0  0  0  0  0  0  0  0
  182.6280  178.3970  140.8060 N   0  0  0  0  0  2  0  0  0  0  0  0
  179.4440  179.9560  141.8300 C   0  0  1  0  0  3  0  0  0  0  0  0
  180.1200  179.2530  139.5170 C   0  0  0  0  0  2  0  0  0  0  0  0
  179.6810  176.2320  141.7180 O   0  0  0  0  0  1  0  0  0  0  0  0
  179.6820  180.8780  142.8470 O   0  0  0  0  0  1  0  0  0  0  0  0
  180.3560  180.2590  140.6440 C   0  0  0  0  0  2  0  0  0  0  0  0
  179.4540  177.5240  141.2430 C   0  0  2  0  0  3  0  0  0  0  0  0
  180.3100  177.8100  139.9970 C   0  0  2  0  0  3  0  0  0  0  0  0
  179.7060  178.5460  142.3500 C   0  0  0  0  0  2  0  0  0  0  0  0
  1  9  1  0  0  0  0
  1  6  1  0  0  0  0
  2  5  1  1  0  0  0
  3  7  1  6  0  0  0
  3  2  1  0  0  0  0
  4 11  1  6  0  0  0
  4  7  1  0  0  0  0
  5 14  1  0  0  0  0
  5 16  2  0  0  0  0
  8 23  1  1  0  0  0
  8 12  1  0  0  0  0
 10 19  1  0  0  0  0
 10 18  1  0  0  0  0
 12 16  1  0  0  0  0
 13 18  1  6  0  0  0
 13  2  1  0  0  0  0
 13  8  1  0  0  0  0
 14  1  2  0  0  0  0
 15 20  1  0  0  0  0
 15  4  1  0  0  0  0
 16 17  1  0  0  0  0
 17  6  2  0  0  0  0
 19 20  1  6  0  0  0
 19  3  1  0  0  0  0
 21 22  2  0  0  0  0
 22 23  1  0  0  0  0
 24 31  1  0  0  0  0
 24 27  1  1  0  0  0
 25 30  1  0  0  0  0
 25 28  1  0  0  0  0
 28 24  1  0  0  0  0
 29 26  1  1  0  0  0
 29 31  1  0  0  0  0
 30 22  1  1  0  0  0
 30 29  1  0  0  0  0
M  END
>  <MODEL>
6

>  <REMARK>
 VINA RESULT:      -7.7      2.590      5.546
  Name = 
  2 active torsions:
  status: ('A' for Active; 'I' for Inactive)
    1  A    between atoms: C_5  and  C_30
    2  A    between atoms: C_10  and  N_16
                            x       y       z     vdW  Elec       q    Type
                         _______ _______ _______ _____ _____    ______ ____

>  <TORSDO>
F 2

$$$$
=
 OpenBabel11122411143D

 31 35  0  0  1  0  0  0  0  0999 V2000
  183.4880  178.8760  143.9210 C   0  0  0  0  0  0  0  0  0  0  0  0
  182.6070  178.1030  140.3010 C   0  0  2  0  0  3  0  0  0  0  0  0
  181.7640  179.2940  139.7800 C   0  0  2  0  0  3  0  0  0  0  0  0
  179.9660  180.9430  140.3510 C   0  0  2  0  0  3  0  0  0  0  0  0
  183.4160  178.4640  141.5280 C   0  0  0  0  0  0  0  0  0  0  0  0
  184.8380  179.2210  143.8270 C   0  0  0  0  0  3  0  0  0  0  0  0
  180.7760  179.7590  140.8580 C   0  0  0  0  0  2  0  0  0  0  0  0
  184.6810  178.5120  138.9240 C   0  0  2  0  0  3  0  0  0  0  0  0
  182.8620  178.9120  145.1220 F   0  0  0  0  0  0  0  0  0  0  0  0
  181.9470  178.5210  137.5160 C   0  0  0  0  0  2  0  0  0  0  0  0
  178.9310  181.3310  141.3860 C   0  0  0  0  0  1  0  0  0  0  0  0
  185.5630  178.6390  140.1640 C   0  0  0  0  0  2  0  0  0  0  0  0
  183.5190  177.5440  139.1930 C   0  0  2  0  0  3  0  0  0  0  0  0
  182.7830  178.4970  142.7780 C   0  0  0  0  0  3  0  0  0  0  0  0
  179.2730  180.5760  139.0470 C   0  0  0  0  0  2  0  0  0  0  0  0
  184.7850  178.8070  141.4370 C   0  0  0  0  0  0  0  0  0  0  0  0
  185.4850  179.1760  142.5910 C   0  0  0  0  0  3  0  0  0  0  0  0
  182.7050  177.2670  137.9300 C   0  0  0  0  0  2  0  0  0  0  0  0
  181.0130  178.9140  138.5650 N   0  0  2  0  0  0  0  0  0  0  0  0
  180.3170  180.0910  138.0470 C   0  0  0  0  0  2  0  0  0  0  0  0
  187.5270  178.6320  138.7810 O   0  0  0  0  0  0  0  0  0  0  0  0
  186.9150  178.1230  137.8020 C   0  0  0  0  0  0  0  0  0  0  0  0
  185.4890  178.0410  137.8060 N   0  0  0  0  0  2  0  0  0  0  0  0
  189.8140  175.7230  137.3690 C   0  0  1  0  0  3  0  0  0  0  0  0
  187.5100  176.0910  136.4430 C   0  0  0  0  0  2  0  0  0  0  0  0
  189.3020  179.3800  136.8250 O   0  0  0  0  0  1  0  0  0  0  0  0
  190.5530  175.0120  138.3130 O   0  0  0  0  0  1  0  0  0  0  0  0
  188.3460  175.3170  137.4630 C   0  0  0  0  0  2  0  0  0  0  0  0
  189.1560  178.0100  136.6020 C   0  0  2  0  0  3  0  0  0  0  0  0
  187.6710  177.6060  136.6120 C   0  0  2  0  0  3  0  0  0  0  0  0
  189.9650  177.2190  137.6260 C   0  0  0  0  0  2  0  0  0  0  0  0
  1  9  1  0  0  0  0
  2  5  1  1  0  0  0
  3  2  1  0  0  0  0
  3  7  1  1  0  0  0
  4  7  1  0  0  0  0
  4 11  1  1  0  0  0
  5 14  1  0  0  0  0
  6  1  1  0  0  0  0
  8 23  1  6  0  0  0
  8 13  1  0  0  0  0
  8 12  1  0  0  0  0
 10 18  1  0  0  0  0
 12 16  1  0  0  0  0
 13 18  1  6  0  0  0
 13  2  1  0  0  0  0
 14  1  2  0  0  0  0
 15  4  1  0  0  0  0
 16  5  2  0  0  0  0
 16 17  1  0  0  0  0
 17  6  2  0  0  0  0
 19 10  1  6  0  0  0
 19  3  1  0  0  0  0
 20 19  1  0  0  0  0
 20 15  1  0  0  0  0
 22 23  1  0  0  0  0
 22 21  2  0  0  0  0
 24 28  1  0  0  0  0
 24 31  1  0  0  0  0
 24 27  1  1  0  0  0
 25 30  1  0  0  0  0
 25 28  1  0  0  0  0
 29 30  1  0  0  0  0
 29 26  1  1  0  0  0
 29 31  1  0  0  0  0
 30 22  1  1  0  0  0
M  END
>  <MODEL>
7

>  <REMARK>
 VINA RESULT:      -7.5      4.079      7.579
  Name = 
  2 active torsions:
  status: ('A' for Active; 'I' for Inactive)
    1  A    between atoms: C_5  and  C_30
    2  A    between atoms: C_10  and  N_16
                            x       y       z     vdW  Elec       q    Type
                         _______ _______ _______ _____ _____    ______ ____

>  <TORSDO>
F 2

$$$$
=
 OpenBabel11122411143D

 31 35  0  0  1  0  0  0  0  0999 V2000
  191.4480  177.3770  140.9930 C   0  0  0  0  0  0  0  0  0  0  0  0
  189.1720  177.7690  137.9690 C   0  0  2  0  0  3  0  0  0  0  0  0
  188.9960  176.3580  137.3540 C   0  0  2  0  0  3  0  0  0  0  0  0
  190.1470  174.2040  136.7890 C   0  0  2  0  0  3  0  0  0  0  0  0
  189.6390  177.7150  139.4080 C   0  0  0  0  0  0  0  0  0  0  0  0
  190.5500  177.5060  142.0540 C   0  0  0  0  0  3  0  0  0  0  0  0
  190.3290  175.5980  137.3730 C   0  0  0  0  0  2  0  0  0  0  0  0
  186.8220  178.0690  138.8360 C   0  0  2  0  0  3  0  0  0  0  0  0
  192.7600  177.1440  141.2400 F   0  0  0  0  0  0  0  0  0  0  0  0
  187.2170  177.1240  135.9370 C   0  0  0  0  0  2  0  0  0  0  0  0
  191.4860  173.5010  136.7260 C   0  0  0  0  0  1  0  0  0  0  0  0
  187.3040  178.2610  140.2730 C   0  0  0  0  0  2  0  0  0  0  0  0
  187.8760  178.5910  137.8480 C   0  0  2  0  0  3  0  0  0  0  0  0
  190.9950  177.4830  139.6770 C   0  0  0  0  0  3  0  0  0  0  0  0
  189.5550  174.3030  135.3910 C   0  0  0  0  0  2  0  0  0  0  0  0
  188.7330  177.8540  140.4850 C   0  0  0  0  0  0  0  0  0  0  0  0
  189.2000  177.7540  141.8000 C   0  0  0  0  0  3  0  0  0  0  0  0
  187.3670  178.5640  136.4070 C   0  0  0  0  0  2  0  0  0  0  0  0
  188.5110  176.4500  135.9610 N   0  0  2  0  0  0  0  0  0  0  0  0
  188.2570  175.1010  135.4540 C   0  0  0  0  0  2  0  0  0  0  0  0
  184.3170  176.8400  138.2450 O   0  0  0  0  0  0  0  0  0  0  0  0
  184.3360  178.0960  138.3690 C   0  0  0  0  0  0  0  0  0  0  0  0
  185.5600  178.7740  138.6550 N   0  0  0  0  0  2  0  0  0  0  0  0
  180.7210  177.5480  139.3580 C   0  0  1  0  0  3  0  0  0  0  0  0
  182.4870  179.3210  139.5540 C   0  0  0  0  0  2  0  0  0  0  0  0
  182.5760  177.7680  136.1270 O   0  0  0  0  0  1  0  0  0  0  0  0
  180.1110  176.4810  140.0160 O   0  0  0  0  0  1  0  0  0  0  0  0
  181.7950  178.1530  140.2580 C   0  0  0  0  0  2  0  0  0  0  0  0
  182.0180  178.2120  137.3260 C   0  0  2  0  0  3  0  0  0  0  0  0
  183.0790  178.8980  138.2050 C   0  0  2  0  0  3  0  0  0  0  0  0
  181.3410  177.0550  138.0550 C   0  0  0  0  0  2  0  0  0  0  0  0
  1  9  1  0  0  0  0
  1  6  1  0  0  0  0
  2  5  1  1  0  0  0
  3  7  1  6  0  0  0
  3  2  1  0  0  0  0
  4 11  1  6  0  0  0
  4  7  1  0  0  0  0
  5 14  1  0  0  0  0
  5 16  2  0  0  0  0
  8 23  1  1  0  0  0
  8 12  1  0  0  0  0
 10 19  1  0  0  0  0
 10 18  1  0  0  0  0
 12 16  1  0  0  0  0
 13 18  1  6  0  0  0
 13  2  1  0  0  0  0
 13  8  1  0  0  0  0
 14  1  2  0  0  0  0
 15 20  1  0  0  0  0
 15  4  1  0  0  0  0
 16 17  1  0  0  0  0
 17  6  2  0  0  0  0
 19 20  1  1  0  0  0
 19  3  1  0  0  0  0
 21 22  2  0  0  0  0
 22 23  1  0  0  0  0
 24 27  1  1  0  0  0
 24 28  1  0  0  0  0
 25 28  1  0  0  0  0
 29 26  1  6  0  0  0
 29 31  1  0  0  0  0
 29 30  1  0  0  0  0
 30 22  1  1  0  0  0
 30 25  1  0  0  0  0
 31 24  1  0  0  0  0
M  END
>  <MODEL>
8

>  <REMARK>
 VINA RESULT:      -7.5      3.648      6.493
  Name = 
  2 active torsions:
  status: ('A' for Active; 'I' for Inactive)
    1  A    between atoms: C_5  and  C_30
    2  A    between atoms: C_10  and  N_16
                            x       y       z     vdW  Elec       q    Type
                         _______ _______ _______ _____ _____    ______ ____

>  <TORSDO>
F 2

$$$$
=
 OpenBabel11122411143D

 31 35  0  0  1  0  0  0  0  0999 V2000
  184.9920  179.5820  144.8630 C   0  0  0  0  0  0  0  0  0  0  0  0
  185.3020  179.3560  141.0770 C   0  0  2  0  0  3  0  0  0  0  0  0
  186.4520  178.3610  140.7790 C   0  0  2  0  0  3  0  0  0  0  0  0
  188.7310  177.5870  141.4760 C   0  0  2  0  0  3  0  0  0  0  0  0
  184.7490  179.1950  142.4770 C   0  0  0  0  0  0  0  0  0  0  0  0
  183.8300  178.8470  145.1060 C   0  0  0  0  0  3  0  0  0  0  0  0
  187.6140  178.5810  141.7570 C   0  0  0  0  0  2  0  0  0  0  0  0
  183.3870  177.9350  140.2540 C   0  0  2  0  0  3  0  0  0  0  0  0
  185.6810  180.1230  145.8970 F   0  0  0  0  0  0  0  0  0  0  0  0
  185.8590  178.2660  138.4560 C   0  0  0  0  0  2  0  0  0  0  0  0
  189.9090  177.8780  142.3820 C   0  0  0  0  0  1  0  0  0  0  0  0
  182.6890  177.9680  141.6120 C   0  0  0  0  0  2  0  0  0  0  0  0
  184.1790  179.2320  140.0310 C   0  0  2  0  0  3  0  0  0  0  0  0
  185.4470  179.7560  143.5550 C   0  0  0  0  0  3  0  0  0  0  0  0
  189.1670  177.6960  140.0220 C   0  0  0  0  0  2  0  0  0  0  0  0
  183.5690  178.4570  142.7250 C   0  0  0  0  0  0  0  0  0  0  0  0
  183.1170  178.2970  144.0400 C   0  0  0  0  0  3  0  0  0  0  0  0
  184.7610  179.3080  138.6200 C   0  0  0  0  0  2  0  0  0  0  0  0
  186.9440  178.5270  139.3950 N   0  0  2  0  0  0  0  0  0  0  0  0
  187.9520  177.5020  139.1220 C   0  0  0  0  0  2  0  0  0  0  0  0
  182.6800  175.4480  139.0490 O   0  0  0  0  0  0  0  0  0  0  0  0
  182.0760  176.4810  138.6510 C   0  0  0  0  0  0  0  0  0  0  0  0
  182.3890  177.7590  139.2060 N   0  0  0  0  0  2  0  0  0  0  0  0
  179.9820  173.6480  137.2580 C   0  0  1  0  0  3  0  0  0  0  0  0
  179.6650  175.9750  138.1430 C   0  0  0  0  0  2  0  0  0  0  0  0
  182.7050  175.8280  135.9290 O   0  0  0  0  0  1  0  0  0  0  0  0
  179.9470  172.2950  137.5930 O   0  0  0  0  0  1  0  0  0  0  0  0
  179.6230  174.4850  138.4830 C   0  0  0  0  0  2  0  0  0  0  0  0
  181.4330  175.4930  136.3960 C   0  0  2  0  0  3  0  0  0  0  0  0
  181.0290  176.3890  137.5790 C   0  0  2  0  0  3  0  0  0  0  0  0
  181.3780  174.0120  136.7620 C   0  0  0  0  0  2  0  0  0  0  0  0
  1  6  1  0  0  0  0
  1  9  1  0  0  0  0
  2  5  1  1  0  0  0
  3  2  1  0  0  0  0
  3  7  1  1  0  0  0
  4  7  1  0  0  0  0
  4 11  1  1  0  0  0
  5 16  2  0  0  0  0
  5 14  1  0  0  0  0
  8 23  1  6  0  0  0
  8 12  1  0  0  0  0
 10 18  1  0  0  0  0
 12 16  1  0  0  0  0
 13 18  1  6  0  0  0
 13  8  1  0  0  0  0
 13  2  1  0  0  0  0
 14  1  2  0  0  0  0
 15  4  1  0  0  0  0
 16 17  1  0  0  0  0
 17  6  2  0  0  0  0
 19 10  1  6  0  0  0
 19  3  1  0  0  0  0
 20 19  1  0  0  0  0
 20 15  1  0  0  0  0
 22 21  2  0  0  0  0
 22 23  1  0  0  0  0
 24 27  1  1  0  0  0
 24 28  1  0  0  0  0
 25 28  1  0  0  0  0
 29 26  1  1  0  0  0
 29 31  1  0  0  0  0
 29 30  1  0  0  0  0
 30 25  1  0  0  0  0
 30 22  1  1  0  0  0
 31 24  1  0  0  0  0
M  END
>  <MODEL>
9

>  <REMARK>
 VINA RESULT:      -7.5      3.198      5.504
  Name = 
  2 active torsions:
  status: ('A' for Active; 'I' for Inactive)
    1  A    between atoms: C_5  and  C_30
    2  A    between atoms: C_10  and  N_16
                            x       y       z     vdW  Elec       q    Type
                         _______ _______ _______ _____ _____    ______ ____

>  <TORSDO>
F 2

$$$$
