=
 OpenBabel11122411453D

 37 42  0  0  1  0  0  0  0  0999 V2000
  185.9690  178.8750  142.8780 C   0  0  1  0  0  3  0  0  0  0  0  0
  189.2860  178.5140  142.2290 O   0  0  0  0  0  0  0  0  0  0  0  0
  183.7220  178.8160  141.6510 C   0  0  2  0  0  3  0  0  0  0  0  0
  186.9330  178.0460  142.0810 C   0  0  2  0  0  3  0  0  0  0  0  0
  185.1120  179.4680  141.7630 C   0  0  2  0  0  3  0  0  0  0  0  0
  188.2690  177.7070  142.7660 C   0  0  2  0  0  3  0  0  0  0  0  0
  182.9720  178.8590  142.9890 C   0  0  0  0  0  2  0  0  0  0  0  0
  185.8540  179.2920  140.5120 N   0  0  0  0  0  2  0  0  0  0  0  0
  185.9750  177.8810  145.1210 N   0  0  0  0  0  2  0  0  0  0  0  0
  183.8660  178.6730  144.2230 C   0  0  0  0  0  2  0  0  0  0  0  0
  189.4990  176.5150  140.6510 C   0  0  0  0  0  2  0  0  0  0  0  0
  189.9960  177.8560  141.1840 C   0  0  1  0  0  3  0  0  0  0  0  0
  185.2010  178.0130  143.8910 C   0  0  1  0  0  3  0  0  0  0  0  0
  187.1380  178.8120  140.8580 N   0  0  2  0  0  0  0  0  0  0  0  0
  188.2730  177.7480  144.3020 C   0  0  1  0  0  3  0  0  0  0  0  0
  189.1930  177.7780  139.8630 C   0  0  2  0  0  3  0  0  0  0  0  0
  187.6500  177.8960  139.8280 C   0  0  2  0  0  3  0  0  0  0  0  0
  187.0940  176.9750  144.8900 C   0  0  0  0  0  2  0  0  0  0  0  0
  190.3200  176.4590  144.0380 C   0  0  0  0  0  3  0  0  0  0  0  0
  189.5600  177.2090  144.8410 C   0  0  0  0  0  0  0  0  0  0  0  0
  189.9680  177.5130  146.2650 C   0  0  0  0  0  2  0  0  0  0  0  0
  191.7150  177.0340  147.8200 O   0  0  0  0  0  0  0  0  0  0  0  0
  192.0140  176.0910  145.7140 N   0  0  0  0  0  0  0  0  0  0  0  0
  191.2700  176.8740  146.6540 C   0  0  0  0  0  0  0  0  0  0  0  0
  191.5930  175.8890  144.5040 C   0  0  0  0  0  3  0  0  0  0  0  0
  187.2470  178.3310  138.4050 C   0  0  0  0  0  2  0  0  0  0  0  0
  186.8700  177.2110  137.5340 N   0  0  0  0  0  0  0  0  0  0  0  0
  185.1030  176.0680  137.1130 N   0  0  0  0  0  1  0  0  0  0  0  0
  185.5620  177.3390  137.1960 O   0  0  0  0  0  0  0  0  0  0  0  0
  187.6560  177.2780  136.3070 C   0  0  0  0  0  2  0  0  0  0  0  0
  188.8290  176.3180  136.3820 C   0  0  0  0  0  2  0  0  0  0  0  0
  188.5260  175.2610  137.2400 O   0  0  0  0  0  1  0  0  0  0  0  0
  183.8300  177.4830  141.2110 O   0  0  0  0  0  0  0  0  0  0  0  0
  182.9220  177.2950  140.1490 C   0  0  0  0  0  0  0  0  0  0  0  0
  181.6150  177.4490  140.5850 F   0  0  0  0  0  0  0  0  0  0  0  0
  183.1790  178.1810  139.1140 F   0  0  0  0  0  0  0  0  0  0  0  0
  183.0690  176.0080  139.6690 F   0  0  0  0  0  0  0  0  0  0  0  0
  1 13  1  0  0  0  0
  2  6  1  0  0  0  0
  3  5  1  0  0  0  0
  3  7  1  0  0  0  0
  4  6  1  0  0  0  0
  4  1  1  0  0  0  0
  5  1  1  0  0  0  0
  6 15  1  0  0  0  0
  7 10  1  0  0  0  0
  8 14  1  0  0  0  0
  8  5  1  0  0  0  0
 11 12  1  0  0  0  0
 12  2  1  0  0  0  0
 13 10  1  0  0  0  0
 13  9  1  0  0  0  0
 14  4  1  0  0  0  0
 15 20  1  0  0  0  0
 15 18  1  0  0  0  0
 16 11  1  0  0  0  0
 16 12  1  0  0  0  0
 17 16  1  0  0  0  0
 17 14  1  0  0  0  0
 18  9  1  0  0  0  0
 19 25  1  0  0  0  0
 19 20  2  0  0  0  0
 20 21  1  0  0  0  0
 21 24  1  0  0  0  0
 23 24  1  0  0  0  0
 24 22  2  0  0  0  0
 25 23  2  0  0  0  0
 26 17  1  0  0  0  0
 27 26  1  0  0  0  0
 28 29  1  0  0  0  0
 29 27  1  0  0  0  0
 30 31  1  0  0  0  0
 30 27  1  0  0  0  0
 31 32  1  0  0  0  0
 33  3  1  0  0  0  0
 34 35  1  0  0  0  0
 34 33  1  0  0  0  0
 36 34  1  0  0  0  0
 37 34  1  0  0  0  0
M  END
>  <MODEL>
1

>  <REMARK>
 VINA RESULT:      -8.1      0.000      0.000
  Name = 
  8 active torsions:
  status: ('A' for Active; 'I' for Inactive)
    1  A    between atoms: C_1  and  N_4
    2  A    between atoms: C_1  and  C_27
    3  A    between atoms: C_2  and  O_22
    4  A    between atoms: N_4  and  C_12
    5  A    between atoms: N_4  and  O_37
    6  A    between atoms: C_6  and  O_22
    7  A    between atoms: C_8  and  C_12
    8  A    between atoms: C_23  and  C_30
                            x       y       z     vdW  Elec       q    Type
                         _______ _______ _______ _____ _____    ______ ____

>  <TORSDO>
F 8

$$$$
=
 OpenBabel11122411453D

 37 42  0  0  1  0  0  0  0  0999 V2000
  185.6990  178.9690  142.9640 C   0  0  1  0  0  3  0  0  0  0  0  0
  189.0790  178.6120  142.9880 O   0  0  0  0  0  0  0  0  0  0  0  0
  183.7240  178.7460  141.3490 C   0  0  2  0  0  3  0  0  0  0  0  0
  186.7970  178.0850  142.4490 C   0  0  2  0  0  3  0  0  0  0  0  0
  185.0670  179.4330  141.6540 C   0  0  2  0  0  3  0  0  0  0  0  0
  187.9800  177.8410  143.4030 C   0  0  2  0  0  3  0  0  0  0  0  0
  182.7350  178.9030  142.5110 C   0  0  0  0  0  2  0  0  0  0  0  0
  186.0320  179.1510  140.5890 N   0  0  0  0  0  2  0  0  0  0  0  0
  185.2830  178.1970  145.2550 N   0  0  0  0  0  2  0  0  0  0  0  0
  183.3800  178.8560  143.9030 C   0  0  0  0  0  2  0  0  0  0  0  0
  189.5880  176.4730  141.6850 C   0  0  0  0  0  2  0  0  0  0  0  0
  189.9750  177.8700  142.1660 C   0  0  1  0  0  3  0  0  0  0  0  0
  184.7550  178.1940  143.8950 C   0  0  1  0  0  3  0  0  0  0  0  0
  187.2280  178.7320  141.2160 N   0  0  2  0  0  0  0  0  0  0  0  0
  187.6940  178.0310  144.9000 C   0  0  1  0  0  3  0  0  0  0  0  0
  189.4350  177.6480  140.7320 C   0  0  2  0  0  3  0  0  0  0  0  0
  187.9260  177.7300  140.3960 C   0  0  2  0  0  3  0  0  0  0  0  0
  186.4270  177.2960  145.3300 C   0  0  0  0  0  2  0  0  0  0  0  0
  188.8560  177.8470  147.0300 C   0  0  0  0  0  3  0  0  0  0  0  0
  188.8570  177.5730  145.7220 C   0  0  0  0  0  0  0  0  0  0  0  0
  189.9960  176.8250  145.0680 C   0  0  0  0  0  2  0  0  0  0  0  0
  192.1090  175.8530  145.6080 O   0  0  0  0  0  0  0  0  0  0  0  0
  190.9930  176.7990  147.4170 N   0  0  0  0  0  0  0  0  0  0  0  0
  191.0920  176.4630  146.0290 C   0  0  0  0  0  0  0  0  0  0  0  0
  189.9700  177.4360  147.8970 C   0  0  0  0  0  3  0  0  0  0  0  0
  187.7990  178.0170  138.8870 C   0  0  0  0  0  2  0  0  0  0  0  0
  187.8100  176.8060  138.0570 N   0  0  0  0  0  0  0  0  0  0  0  0
  186.7710  178.2410  136.8440 N   0  0  0  0  0  1  0  0  0  0  0  0
  186.8450  176.9150  137.1090 O   0  0  0  0  0  0  0  0  0  0  0  0
  189.0960  176.7090  137.3760 C   0  0  0  0  0  2  0  0  0  0  0  0
  189.6340  175.2930  137.4700 C   0  0  0  0  0  2  0  0  0  0  0  0
  190.6730  175.2370  138.3990 O   0  0  0  0  0  1  0  0  0  0  0  0
  183.9150  177.3790  141.0720 O   0  0  0  0  0  0  0  0  0  0  0  0
  183.2480  177.0760  139.8670 C   0  0  0  0  0  0  0  0  0  0  0  0
  184.1070  177.1930  138.7850 F   0  0  0  0  0  0  0  0  0  0  0  0
  182.7120  175.7980  139.9040 F   0  0  0  0  0  0  0  0  0  0  0  0
  182.2150  177.9780  139.6980 F   0  0  0  0  0  0  0  0  0  0  0  0
  1 13  1  0  0  0  0
  2  6  1  0  0  0  0
  3  5  1  0  0  0  0
  3  7  1  0  0  0  0
  4  1  1  0  0  0  0
  4  6  1  0  0  0  0
  5  1  1  0  0  0  0
  6 15  1  0  0  0  0
  7 10  1  0  0  0  0
  8 14  1  0  0  0  0
  8  5  1  0  0  0  0
  9 18  1  0  0  0  0
 11 12  1  0  0  0  0
 12  2  1  0  0  0  0
 13 10  1  0  0  0  0
 13  9  1  0  0  0  0
 14  4  1  0  0  0  0
 15 18  1  0  0  0  0
 15 20  1  0  0  0  0
 16 11  1  0  0  0  0
 16 12  1  0  0  0  0
 17 16  1  0  0  0  0
 17 14  1  0  0  0  0
 19 25  1  0  0  0  0
 20 19  2  0  0  0  0
 21 20  1  0  0  0  0
 21 24  1  0  0  0  0
 22 24  2  0  0  0  0
 23 25  2  0  0  0  0
 24 23  1  0  0  0  0
 26 17  1  0  0  0  0
 27 26  1  0  0  0  0
 28 29  1  0  0  0  0
 29 27  1  0  0  0  0
 30 31  1  0  0  0  0
 30 27  1  0  0  0  0
 31 32  1  0  0  0  0
 33  3  1  0  0  0  0
 34 36  1  0  0  0  0
 34 33  1  0  0  0  0
 35 34  1  0  0  0  0
 37 34  1  0  0  0  0
M  END
>  <MODEL>
2

>  <REMARK>
 VINA RESULT:      -8.0      1.164      1.619
  Name = 
  8 active torsions:
  status: ('A' for Active; 'I' for Inactive)
    1  A    between atoms: C_1  and  N_4
    2  A    between atoms: C_1  and  C_27
    3  A    between atoms: C_2  and  O_22
    4  A    between atoms: N_4  and  C_12
    5  A    between atoms: N_4  and  O_37
    6  A    between atoms: C_6  and  O_22
    7  A    between atoms: C_8  and  C_12
    8  A    between atoms: C_23  and  C_30
                            x       y       z     vdW  Elec       q    Type
                         _______ _______ _______ _____ _____    ______ ____

>  <TORSDO>
F 8

$$$$
=
 OpenBabel11122411453D

 37 42  0  0  1  0  0  0  0  0999 V2000
  185.4870  178.9370  141.2630 C   0  0  1  0  0  3  0  0  0  0  0  0
  188.7750  178.8310  140.4140 O   0  0  0  0  0  0  0  0  0  0  0  0
  183.1880  178.4710  140.2340 C   0  0  2  0  0  3  0  0  0  0  0  0
  186.4870  178.1060  140.5140 C   0  0  2  0  0  3  0  0  0  0  0  0
  184.5000  179.2720  140.1480 C   0  0  2  0  0  3  0  0  0  0  0  0
  187.8920  178.0080  141.1330 C   0  0  2  0  0  3  0  0  0  0  0  0
  182.5230  178.6270  141.6080 C   0  0  0  0  0  2  0  0  0  0  0  0
  185.1770  178.9960  138.8790 N   0  0  0  0  0  2  0  0  0  0  0  0
  185.7450  178.2800  143.6130 N   0  0  0  0  0  2  0  0  0  0  0  0
  183.5080  178.7130  142.7820 C   0  0  0  0  0  2  0  0  0  0  0  0
  189.1150  176.6590  139.1100 C   0  0  0  0  0  2  0  0  0  0  0  0
  189.4890  178.1070  139.4160 C   0  0  1  0  0  3  0  0  0  0  0  0
  184.8860  178.1540  142.4400 C   0  0  1  0  0  3  0  0  0  0  0  0
  186.5260  178.7060  139.1860 N   0  0  2  0  0  0  0  0  0  0  0  0
  187.9880  178.2690  142.6430 C   0  0  1  0  0  3  0  0  0  0  0  0
  188.6190  177.7580  138.1840 C   0  0  2  0  0  3  0  0  0  0  0  0
  187.0730  177.7090  138.2530 C   0  0  2  0  0  3  0  0  0  0  0  0
  186.9430  177.4710  143.4210 C   0  0  0  0  0  2  0  0  0  0  0  0
  190.1410  178.9580  143.5420 C   0  0  0  0  0  3  0  0  0  0  0  0
  189.3590  177.9490  143.1500 C   0  0  0  0  0  0  0  0  0  0  0  0
  189.8270  176.5120  143.2020 C   0  0  0  0  0  2  0  0  0  0  0  0
  191.7530  175.2260  143.7830 O   0  0  0  0  0  0  0  0  0  0  0  0
  191.9900  177.5180  144.1100 N   0  0  0  0  0  0  0  0  0  0  0  0
  191.2340  176.3700  143.7080 C   0  0  0  0  0  0  0  0  0  0  0  0
  191.5030  178.7180  144.0420 C   0  0  0  0  0  3  0  0  0  0  0  0
  186.5360  177.8920  136.8190 C   0  0  0  0  0  2  0  0  0  0  0  0
  186.1410  176.6330  136.1760 N   0  0  0  0  0  0  0  0  0  0  0  0
  187.5600  176.9580  134.5990 N   0  0  0  0  0  1  0  0  0  0  0  0
  187.2280  176.0840  135.5780 O   0  0  0  0  0  0  0  0  0  0  0  0
  185.6780  175.7030  137.2000 C   0  0  0  0  0  2  0  0  0  0  0  0
  185.7060  174.2810  136.6680 C   0  0  0  0  0  2  0  0  0  0  0  0
  185.3600  173.3860  137.6800 O   0  0  0  0  0  1  0  0  0  0  0  0
  183.4190  177.1070  139.9720 O   0  0  0  0  0  0  0  0  0  0  0  0
  182.3290  176.6110  139.2270 C   0  0  0  0  0  0  0  0  0  0  0  0
  181.3380  176.1250  140.0670 F   0  0  0  0  0  0  0  0  0  0  0  0
  181.8030  177.5940  138.4020 F   0  0  0  0  0  0  0  0  0  0  0  0
  182.7750  175.5690  138.4360 F   0  0  0  0  0  0  0  0  0  0  0  0
  1 13  1  0  0  0  0
  2  6  1  0  0  0  0
  3  7  1  0  0  0  0
  4  6  1  0  0  0  0
  4  1  1  0  0  0  0
  5  3  1  0  0  0  0
  5  1  1  0  0  0  0
  6 15  1  0  0  0  0
  7 10  1  0  0  0  0
  8 14  1  0  0  0  0
  8  5  1  0  0  0  0
 11 12  1  0  0  0  0
 12  2  1  0  0  0  0
 13 10  1  0  0  0  0
 13  9  1  0  0  0  0
 14  4  1  0  0  0  0
 15 20  1  0  0  0  0
 15 18  1  0  0  0  0
 16 17  1  0  0  0  0
 16 11  1  0  0  0  0
 16 12  1  0  0  0  0
 17 14  1  0  0  0  0
 18  9  1  0  0  0  0
 19 25  1  0  0  0  0
 20 21  1  0  0  0  0
 20 19  2  0  0  0  0
 21 24  1  0  0  0  0
 24 22  2  0  0  0  0
 24 23  1  0  0  0  0
 25 23  2  0  0  0  0
 26 17  1  0  0  0  0
 27 26  1  0  0  0  0
 27 30  1  0  0  0  0
 28 29  1  0  0  0  0
 29 27  1  0  0  0  0
 31 30  1  0  0  0  0
 31 32  1  0  0  0  0
 33  3  1  0  0  0  0
 34 33  1  0  0  0  0
 34 35  1  0  0  0  0
 36 34  1  0  0  0  0
 37 34  1  0  0  0  0
M  END
>  <MODEL>
3

>  <REMARK>
 VINA RESULT:      -7.6      1.897      2.226
  Name = 
  8 active torsions:
  status: ('A' for Active; 'I' for Inactive)
    1  A    between atoms: C_1  and  N_4
    2  A    between atoms: C_1  and  C_27
    3  A    between atoms: C_2  and  O_22
    4  A    between atoms: N_4  and  C_12
    5  A    between atoms: N_4  and  O_37
    6  A    between atoms: C_6  and  O_22
    7  A    between atoms: C_8  and  C_12
    8  A    between atoms: C_23  and  C_30
                            x       y       z     vdW  Elec       q    Type
                         _______ _______ _______ _____ _____    ______ ____

>  <TORSDO>
F 8

$$$$
=
 OpenBabel11122411453D

 37 42  0  0  1  0  0  0  0  0999 V2000
  187.1250  178.4310  137.5720 C   0  0  1  0  0  3  0  0  0  0  0  0
  185.3260  179.5100  140.2450 O   0  0  0  0  0  0  0  0  0  0  0  0
  189.4300  177.4510  137.0370 C   0  0  2  0  0  3  0  0  0  0  0  0
  186.8220  178.0980  139.0030 C   0  0  2  0  0  3  0  0  0  0  0  0
  188.6370  178.6260  137.6380 C   0  0  2  0  0  3  0  0  0  0  0  0
  185.3750  178.3410  139.4680 C   0  0  2  0  0  3  0  0  0  0  0  0
  188.9870  177.1520  135.5980 C   0  0  0  0  0  2  0  0  0  0  0  0
  188.9860  178.7990  139.0500 N   0  0  0  0  0  2  0  0  0  0  0  0
  185.2550  177.4940  136.2900 N   0  0  0  0  0  2  0  0  0  0  0  0
  187.4840  177.3390  135.3460 C   0  0  0  0  0  2  0  0  0  0  0  0
  185.7220  177.8130  142.1150 C   0  0  0  0  0  2  0  0  0  0  0  0
  185.4110  179.2300  141.6400 C   0  0  1  0  0  3  0  0  0  0  0  0
  186.6610  177.3090  136.6310 C   0  0  1  0  0  3  0  0  0  0  0  0
  187.7710  178.8990  139.7660 N   0  0  2  0  0  0  0  0  0  0  0  0
  184.3020  178.3540  138.3680 C   0  0  1  0  0  3  0  0  0  0  0  0
  186.8400  178.8430  142.0920 C   0  0  2  0  0  3  0  0  0  0  0  0
  187.9000  178.3000  141.1030 C   0  0  2  0  0  3  0  0  0  0  0  0
  184.4300  177.1480  137.4410 C   0  0  0  0  0  2  0  0  0  0  0  0
  182.4610  177.2950  139.5540 C   0  0  0  0  0  3  0  0  0  0  0  0
  182.9320  178.3990  138.9660 C   0  0  0  0  0  0  0  0  0  0  0  0
  182.1170  179.6690  138.8910 C   0  0  0  0  0  2  0  0  0  0  0  0
  179.9690  180.5150  139.5030 O   0  0  0  0  0  0  0  0  0  0  0  0
  180.3470  178.3060  140.1260 N   0  0  0  0  0  0  0  0  0  0  0  0
  180.7570  179.5340  139.5150 C   0  0  0  0  0  0  0  0  0  0  0  0
  181.1190  177.2640  140.1550 C   0  0  0  0  0  3  0  0  0  0  0  0
  189.2890  178.5490  141.7240 C   0  0  0  0  0  2  0  0  0  0  0  0
  189.6410  177.5890  142.7770 N   0  0  0  0  0  0  0  0  0  0  0  0
  190.1910  175.5140  142.7830 N   0  0  0  0  0  1  0  0  0  0  0  0
  189.1980  176.3580  142.4150 O   0  0  0  0  0  0  0  0  0  0  0  0
  191.0930  177.5230  142.8930 C   0  0  0  0  0  2  0  0  0  0  0  0
  191.5670  178.3860  144.0490 C   0  0  0  0  0  2  0  0  0  0  0  0
  191.6250  177.6270  145.2180 O   0  0  0  0  0  1  0  0  0  0  0  0
  189.2860  176.2950  137.8270 O   0  0  0  0  0  0  0  0  0  0  0  0
  190.5650  175.8970  138.2640 C   0  0  0  0  0  0  0  0  0  0  0  0
  190.8150  174.5770  137.9200 F   0  0  0  0  0  0  0  0  0  0  0  0
  191.5490  176.7150  137.7290 F   0  0  0  0  0  0  0  0  0  0  0  0
  190.6120  176.0010  139.6410 F   0  0  0  0  0  0  0  0  0  0  0  0
  1  5  1  0  0  0  0
  1  4  1  0  0  0  0
  2 12  1  0  0  0  0
  3  5  1  0  0  0  0
  3 33  1  0  0  0  0
  4  6  1  0  0  0  0
  4 14  1  0  0  0  0
  5  8  1  0  0  0  0
  6  2  1  0  0  0  0
  7  3  1  0  0  0  0
  8 14  1  0  0  0  0
  9 13  1  0  0  0  0
  9 18  1  0  0  0  0
 10  7  1  0  0  0  0
 10 13  1  0  0  0  0
 12 16  1  0  0  0  0
 12 11  1  0  0  0  0
 13  1  1  0  0  0  0
 14 17  1  0  0  0  0
 15 20  1  0  0  0  0
 15  6  1  0  0  0  0
 16 11  1  0  0  0  0
 17 26  1  0  0  0  0
 17 16  1  0  0  0  0
 18 15  1  0  0  0  0
 19 25  1  0  0  0  0
 20 19  2  0  0  0  0
 21 20  1  0  0  0  0
 21 24  1  0  0  0  0
 22 24  2  0  0  0  0
 23 25  2  0  0  0  0
 24 23  1  0  0  0  0
 26 27  1  0  0  0  0
 27 30  1  0  0  0  0
 29 27  1  0  0  0  0
 29 28  1  0  0  0  0
 30 31  1  0  0  0  0
 31 32  1  0  0  0  0
 33 34  1  0  0  0  0
 34 37  1  0  0  0  0
 35 34  1  0  0  0  0
 36 34  1  0  0  0  0
M  END
>  <MODEL>
4

>  <REMARK>
 VINA RESULT:      -7.4      3.226      7.945
  Name = 
  8 active torsions:
  status: ('A' for Active; 'I' for Inactive)
    1  A    between atoms: C_1  and  N_4
    2  A    between atoms: C_1  and  C_27
    3  A    between atoms: C_2  and  O_22
    4  A    between atoms: N_4  and  C_12
    5  A    between atoms: N_4  and  O_37
    6  A    between atoms: C_6  and  O_22
    7  A    between atoms: C_8  and  C_12
    8  A    between atoms: C_23  and  C_30
                            x       y       z     vdW  Elec       q    Type
                         _______ _______ _______ _____ _____    ______ ____

>  <TORSDO>
F 8

$$$$
=
 OpenBabel11122411453D

 37 42  0  0  1  0  0  0  0  0999 V2000
  185.6760  179.0000  142.7940 C   0  0  1  0  0  3  0  0  0  0  0  0
  189.0360  178.5570  143.0440 O   0  0  0  0  0  0  0  0  0  0  0  0
  183.7880  178.7030  141.0890 C   0  0  2  0  0  3  0  0  0  0  0  0
  186.7730  178.0500  142.4140 C   0  0  2  0  0  3  0  0  0  0  0  0
  185.1330  179.3760  141.4180 C   0  0  2  0  0  3  0  0  0  0  0  0
  187.8920  177.8510  143.4520 C   0  0  2  0  0  3  0  0  0  0  0  0
  182.7410  178.9780  142.1760 C   0  0  0  0  0  2  0  0  0  0  0  0
  186.1470  178.9840  140.4360 N   0  0  0  0  0  2  0  0  0  0  0  0
  185.1080  178.4250  145.1110 N   0  0  0  0  0  2  0  0  0  0  0  0
  183.3050  179.0250  143.6030 C   0  0  0  0  0  2  0  0  0  0  0  0
  189.5510  176.3090  141.9430 C   0  0  0  0  0  2  0  0  0  0  0  0
  189.9530  177.7280  142.3360 C   0  0  1  0  0  3  0  0  0  0  0  0
  184.6570  178.3280  143.7270 C   0  0  1  0  0  3  0  0  0  0  0  0
  187.2920  178.5850  141.1620 N   0  0  2  0  0  0  0  0  0  0  0  0
  187.5290  178.1660  144.9100 C   0  0  1  0  0  3  0  0  0  0  0  0
  189.4880  177.4070  140.8940 C   0  0  2  0  0  3  0  0  0  0  0  0
  188.0040  177.5030  140.4650 C   0  0  2  0  0  3  0  0  0  0  0  0
  186.2170  177.5020  145.3220 C   0  0  0  0  0  2  0  0  0  0  0  0
  188.4620  177.9310  147.1450 C   0  0  0  0  0  3  0  0  0  0  0  0
  188.6290  177.7440  145.8320 C   0  0  0  0  0  0  0  0  0  0  0  0
  189.8900  177.1290  145.2700 C   0  0  0  0  0  2  0  0  0  0  0  0
  192.0040  176.2870  145.9910 O   0  0  0  0  0  0  0  0  0  0  0  0
  190.6230  177.0240  147.7130 N   0  0  0  0  0  0  0  0  0  0  0  0
  190.9010  176.7890  146.3280 C   0  0  0  0  0  0  0  0  0  0  0  0
  189.5050  177.5490  148.1090 C   0  0  0  0  0  3  0  0  0  0  0  0
  187.9710  177.6720  138.9330 C   0  0  0  0  0  2  0  0  0  0  0  0
  189.2640  178.0610  138.3580 N   0  0  0  0  0  0  0  0  0  0  0  0
  188.7890  176.0730  137.7010 N   0  0  0  0  0  1  0  0  0  0  0  0
  189.7470  177.0270  137.6240 O   0  0  0  0  0  0  0  0  0  0  0  0
  189.0630  179.1910  137.4580 C   0  0  0  0  0  2  0  0  0  0  0  0
  187.7520  179.0390  136.7090 C   0  0  0  0  0  2  0  0  0  0  0  0
  187.1880  180.2930  136.4730 O   0  0  0  0  0  1  0  0  0  0  0  0
  183.9510  177.3140  140.9300 O   0  0  0  0  0  0  0  0  0  0  0  0
  183.3630  176.9380  139.7060 C   0  0  0  0  0  0  0  0  0  0  0  0
  182.2520  177.7200  139.4320 F   0  0  0  0  0  0  0  0  0  0  0  0
  184.2750  177.0390  138.6660 F   0  0  0  0  0  0  0  0  0  0  0  0
  182.9530  175.6220  139.8010 F   0  0  0  0  0  0  0  0  0  0  0  0
  1 13  1  0  0  0  0
  2  6  1  0  0  0  0
  3  5  1  0  0  0  0
  3  7  1  0  0  0  0
  4  1  1  0  0  0  0
  4  6  1  0  0  0  0
  5  1  1  0  0  0  0
  6 15  1  0  0  0  0
  7 10  1  0  0  0  0
  8 14  1  0  0  0  0
  8  5  1  0  0  0  0
  9 18  1  0  0  0  0
 10 13  1  0  0  0  0
 11 12  1  0  0  0  0
 12  2  1  0  0  0  0
 13  9  1  0  0  0  0
 14  4  1  0  0  0  0
 15 18  1  0  0  0  0
 15 20  1  0  0  0  0
 16 11  1  0  0  0  0
 16 12  1  0  0  0  0
 17 16  1  0  0  0  0
 17 14  1  0  0  0  0
 19 25  1  0  0  0  0
 20 19  2  0  0  0  0
 21 20  1  0  0  0  0
 21 24  1  0  0  0  0
 22 24  2  0  0  0  0
 23 25  2  0  0  0  0
 24 23  1  0  0  0  0
 26 17  1  0  0  0  0
 27 26  1  0  0  0  0
 29 28  1  0  0  0  0
 29 27  1  0  0  0  0
 30 27  1  0  0  0  0
 31 30  1  0  0  0  0
 32 31  1  0  0  0  0
 33  3  1  0  0  0  0
 34 37  1  0  0  0  0
 34 33  1  0  0  0  0
 35 34  1  0  0  0  0
 36 34  1  0  0  0  0
M  END
>  <MODEL>
5

>  <REMARK>
 VINA RESULT:      -7.3      1.493      2.022
  Name = 
  8 active torsions:
  status: ('A' for Active; 'I' for Inactive)
    1  A    between atoms: C_1  and  N_4
    2  A    between atoms: C_1  and  C_27
    3  A    between atoms: C_2  and  O_22
    4  A    between atoms: N_4  and  C_12
    5  A    between atoms: N_4  and  O_37
    6  A    between atoms: C_6  and  O_22
    7  A    between atoms: C_8  and  C_12
    8  A    between atoms: C_23  and  C_30
                            x       y       z     vdW  Elec       q    Type
                         _______ _______ _______ _____ _____    ______ ____

>  <TORSDO>
F 8

$$$$
=
 OpenBabel11122411453D

 37 42  0  0  1  0  0  0  0  0999 V2000
  186.7320  177.2700  144.6460 C   0  0  1  0  0  3  0  0  0  0  0  0
  184.5680  177.4890  142.0350 O   0  0  0  0  0  0  0  0  0  0  0  0
  189.2390  177.4750  145.1260 C   0  0  2  0  0  3  0  0  0  0  0  0
  186.4480  178.0750  143.4120 C   0  0  2  0  0  3  0  0  0  0  0  0
  188.1340  176.7530  144.3340 C   0  0  2  0  0  3  0  0  0  0  0  0
  184.9640  178.3280  143.0900 C   0  0  2  0  0  3  0  0  0  0  0  0
  188.9700  177.4280  146.6370 C   0  0  0  0  0  2  0  0  0  0  0  0
  188.3460  176.9320  142.8960 N   0  0  0  0  0  2  0  0  0  0  0  0
  185.2470  178.1940  146.3660 N   0  0  0  0  0  2  0  0  0  0  0  0
  187.4870  177.5330  147.0200 C   0  0  0  0  0  2  0  0  0  0  0  0
  185.2920  179.5230  140.6670 C   0  0  0  0  0  2  0  0  0  0  0  0
  184.6460  178.1430  140.7720 C   0  0  1  0  0  3  0  0  0  0  0  0
  186.6310  178.1360  145.9100 C   0  0  1  0  0  3  0  0  0  0  0  0
  187.1100  177.3380  142.3440 N   0  0  2  0  0  0  0  0  0  0  0  0
  183.9880  178.2400  144.2730 C   0  0  1  0  0  3  0  0  0  0  0  0
  186.0990  178.3010  140.2620 C   0  0  2  0  0  3  0  0  0  0  0  0
  187.3170  178.2600  141.2160 C   0  0  2  0  0  3  0  0  0  0  0  0
  184.4800  179.0510  145.4710 C   0  0  0  0  0  2  0  0  0  0  0  0
  182.5140  179.5050  142.8070 C   0  0  0  0  0  3  0  0  0  0  0  0
  182.6230  178.6990  143.8680 C   0  0  0  0  0  0  0  0  0  0  0  0
  181.4130  178.2550  144.6560 C   0  0  0  0  0  2  0  0  0  0  0  0
  179.0440  178.5510  144.7120 O   0  0  0  0  0  0  0  0  0  0  0  0
  180.1160  179.6800  142.9820 N   0  0  0  0  0  0  0  0  0  0  0  0
  180.1260  178.8280  144.1330 C   0  0  0  0  0  0  0  0  0  0  0  0
  181.2060  180.0020  142.3580 C   0  0  0  0  0  3  0  0  0  0  0  0
  188.5560  177.8880  140.3760 C   0  0  0  0  0  2  0  0  0  0  0  0
  188.3510  178.0400  138.9310 N   0  0  0  0  0  0  0  0  0  0  0  0
  188.5600  179.3780  137.2650 N   0  0  0  0  0  1  0  0  0  0  0  0
  189.0540  179.1170  138.4980 O   0  0  0  0  0  0  0  0  0  0  0  0
  188.8770  176.8620  138.2510 C   0  0  0  0  0  2  0  0  0  0  0  0
  190.2450  176.5040  138.8020 C   0  0  0  0  0  2  0  0  0  0  0  0
  190.6250  175.2400  138.3530 O   0  0  0  0  0  1  0  0  0  0  0  0
  189.3590  178.8140  144.7090 O   0  0  0  0  0  0  0  0  0  0  0  0
  190.6590  179.0000  144.1950 C   0  0  0  0  0  0  0  0  0  0  0  0
  191.5800  178.2340  144.8930 F   0  0  0  0  0  0  0  0  0  0  0  0
  190.7100  178.6810  142.8470 F   0  0  0  0  0  0  0  0  0  0  0  0
  191.0030  180.3300  144.3420 F   0  0  0  0  0  0  0  0  0  0  0  0
  1 13  1  0  0  0  0
  2  6  1  0  0  0  0
  3  7  1  0  0  0  0
  4  1  1  0  0  0  0
  5  1  1  0  0  0  0
  5  3  1  0  0  0  0
  6  4  1  0  0  0  0
  6 15  1  0  0  0  0
  7 10  1  0  0  0  0
  8  5  1  0  0  0  0
 11 12  1  0  0  0  0
 12  2  1  0  0  0  0
 13  9  1  0  0  0  0
 13 10  1  0  0  0  0
 14  8  1  0  0  0  0
 14  4  1  0  0  0  0
 15 18  1  0  0  0  0
 16 11  1  0  0  0  0
 16 12  1  0  0  0  0
 16 17  1  0  0  0  0
 17 14  1  0  0  0  0
 18  9  1  0  0  0  0
 19 20  2  0  0  0  0
 20 15  1  0  0  0  0
 20 21  1  0  0  0  0
 23 24  1  0  0  0  0
 24 21  1  0  0  0  0
 24 22  2  0  0  0  0
 25 19  1  0  0  0  0
 25 23  2  0  0  0  0
 26 17  1  0  0  0  0
 27 26  1  0  0  0  0
 28 29  1  0  0  0  0
 29 27  1  0  0  0  0
 30 31  1  0  0  0  0
 30 27  1  0  0  0  0
 32 31  1  0  0  0  0
 33  3  1  0  0  0  0
 34 37  1  0  0  0  0
 34 33  1  0  0  0  0
 34 35  1  0  0  0  0
 36 34  1  0  0  0  0
M  END
>  <MODEL>
6

>  <REMARK>
 VINA RESULT:      -7.3      3.507      6.567
  Name = 
  8 active torsions:
  status: ('A' for Active; 'I' for Inactive)
    1  A    between atoms: C_1  and  N_4
    2  A    between atoms: C_1  and  C_27
    3  A    between atoms: C_2  and  O_22
    4  A    between atoms: N_4  and  C_12
    5  A    between atoms: N_4  and  O_37
    6  A    between atoms: C_6  and  O_22
    7  A    between atoms: C_8  and  C_12
    8  A    between atoms: C_23  and  C_30
                            x       y       z     vdW  Elec       q    Type
                         _______ _______ _______ _____ _____    ______ ____

>  <TORSDO>
F 8

$$$$
=
 OpenBabel11122411453D

 37 42  0  0  1  0  0  0  0  0999 V2000
  185.3250  178.9060  140.2550 C   0  0  1  0  0  3  0  0  0  0  0  0
  188.0260  178.9170  142.3160 O   0  0  0  0  0  0  0  0  0  0  0  0
  184.6730  178.1550  137.8950 C   0  0  2  0  0  3  0  0  0  0  0  0
  186.4830  178.0560  140.6890 C   0  0  2  0  0  3  0  0  0  0  0  0
  185.6030  179.0260  138.7580 C   0  0  2  0  0  3  0  0  0  0  0  0
  186.8670  178.1360  142.1760 C   0  0  2  0  0  3  0  0  0  0  0  0
  183.1960  178.4410  138.1940 C   0  0  0  0  0  2  0  0  0  0  0  0
  186.9990  178.6350  138.5490 N   0  0  0  0  0  2  0  0  0  0  0  0
  183.6120  178.5790  141.9790 N   0  0  0  0  0  2  0  0  0  0  0  0
  182.8950  178.7460  139.6680 C   0  0  0  0  0  2  0  0  0  0  0  0
  189.1270  176.6230  142.0760 C   0  0  0  0  0  2  0  0  0  0  0  0
  189.2070  178.1210  142.3610 C   0  0  1  0  0  3  0  0  0  0  0  0
  183.9860  178.2440  140.6100 C   0  0  1  0  0  3  0  0  0  0  0  0
  187.5800  178.4800  139.8280 N   0  0  2  0  0  0  0  0  0  0  0  0
  185.7620  178.5960  143.1390 C   0  0  1  0  0  3  0  0  0  0  0  0
  189.6070  177.5560  140.9770 C   0  0  2  0  0  3  0  0  0  0  0  0
  188.5900  177.4100  139.8190 C   0  0  2  0  0  3  0  0  0  0  0  0
  184.4580  177.8360  142.9050 C   0  0  0  0  0  2  0  0  0  0  0  0
  185.4980  179.0610  145.5120 C   0  0  0  0  0  3  0  0  0  0  0  0
  186.1990  178.4390  144.5610 C   0  0  0  0  0  0  0  0  0  0  0  0
  187.4110  177.5970  144.8880 C   0  0  0  0  0  2  0  0  0  0  0  0
  188.7260  176.9160  146.7620 O   0  0  0  0  0  0  0  0  0  0  0  0
  186.9080  178.2660  147.3000 N   0  0  0  0  0  0  0  0  0  0  0  0
  187.7290  177.5670  146.3560 C   0  0  0  0  0  0  0  0  0  0  0  0
  185.8760  178.9590  146.9300 C   0  0  0  0  0  3  0  0  0  0  0  0
  189.3870  177.3690  138.5000 C   0  0  0  0  0  2  0  0  0  0  0  0
  190.1070  176.1070  138.2890 N   0  0  0  0  0  0  0  0  0  0  0  0
  190.0650  174.1490  137.4110 N   0  0  0  0  0  1  0  0  0  0  0  0
  189.3020  175.2490  137.6120 O   0  0  0  0  0  0  0  0  0  0  0  0
  191.2810  176.3630  137.4640 C   0  0  0  0  0  2  0  0  0  0  0  0
  192.5470  176.0550  138.2420 C   0  0  0  0  0  2  0  0  0  0  0  0
  193.5150  177.0270  137.9840 O   0  0  0  0  0  1  0  0  0  0  0  0
  184.9400  176.7870  138.0970 O   0  0  0  0  0  0  0  0  0  0  0  0
  185.1660  176.1910  136.8400 C   0  0  0  0  0  0  0  0  0  0  0  0
  184.2010  175.2330  136.5680 F   0  0  0  0  0  0  0  0  0  0  0  0
  185.1760  177.1440  135.8330 F   0  0  0  0  0  0  0  0  0  0  0  0
  186.3990  175.5680  136.8640 F   0  0  0  0  0  0  0  0  0  0  0  0
  1 13  1  0  0  0  0
  1  4  1  0  0  0  0
  2 12  1  0  0  0  0
  3 33  1  0  0  0  0
  3  7  1  0  0  0  0
  3  5  1  0  0  0  0
  4  6  1  0  0  0  0
  5  1  1  0  0  0  0
  6  2  1  0  0  0  0
  6 15  1  0  0  0  0
  7 10  1  0  0  0  0
  8  5  1  0  0  0  0
  8 14  1  0  0  0  0
  9 18  1  0  0  0  0
 10 13  1  0  0  0  0
 11 12  1  0  0  0  0
 13  9  1  0  0  0  0
 14  4  1  0  0  0  0
 15 20  1  0  0  0  0
 16 11  1  0  0  0  0
 16 12  1  0  0  0  0
 17 14  1  0  0  0  0
 17 16  1  0  0  0  0
 18 15  1  0  0  0  0
 19 25  1  0  0  0  0
 20 21  1  0  0  0  0
 20 19  2  0  0  0  0
 21 24  1  0  0  0  0
 24 22  2  0  0  0  0
 24 23  1  0  0  0  0
 25 23  2  0  0  0  0
 26 17  1  0  0  0  0
 27 26  1  0  0  0  0
 28 29  1  0  0  0  0
 29 27  1  0  0  0  0
 30 31  1  0  0  0  0
 30 27  1  0  0  0  0
 32 31  1  0  0  0  0
 34 37  1  0  0  0  0
 34 33  1  0  0  0  0
 35 34  1  0  0  0  0
 36 34  1  0  0  0  0
M  END
>  <MODEL>
7

>  <REMARK>
 VINA RESULT:      -6.8      2.436      3.752
  Name = 
  8 active torsions:
  status: ('A' for Active; 'I' for Inactive)
    1  A    between atoms: C_1  and  N_4
    2  A    between atoms: C_1  and  C_27
    3  A    between atoms: C_2  and  O_22
    4  A    between atoms: N_4  and  C_12
    5  A    between atoms: N_4  and  O_37
    6  A    between atoms: C_6  and  O_22
    7  A    between atoms: C_8  and  C_12
    8  A    between atoms: C_23  and  C_30
                            x       y       z     vdW  Elec       q    Type
                         _______ _______ _______ _____ _____    ______ ____

>  <TORSDO>
F 8

$$$$
=
 OpenBabel11122411453D

 37 42  0  0  1  0  0  0  0  0999 V2000
  185.7570  177.7010  143.6190 C   0  0  1  0  0  3  0  0  0  0  0  0
  188.5070  176.5820  141.9650 O   0  0  0  0  0  0  0  0  0  0  0  0
  185.0430  178.3830  145.9820 C   0  0  2  0  0  3  0  0  0  0  0  0
  187.2420  177.8970  143.5290 C   0  0  2  0  0  3  0  0  0  0  0  0
  185.6120  177.2750  145.0780 C   0  0  2  0  0  3  0  0  0  0  0  0
  187.8550  177.8180  142.1200 C   0  0  2  0  0  3  0  0  0  0  0  0
  183.7100  178.9200  145.4420 C   0  0  0  0  0  2  0  0  0  0  0  0
  186.9440  176.8810  145.5430 N   0  0  0  0  0  2  0  0  0  0  0  0
  184.8230  179.0560  141.8000 N   0  0  0  0  0  2  0  0  0  0  0  0
  183.6300  178.9910  143.9110 C   0  0  0  0  0  2  0  0  0  0  0  0
  190.4790  177.9590  142.8300 C   0  0  0  0  0  2  0  0  0  0  0  0
  189.9010  176.6730  142.2430 C   0  0  1  0  0  3  0  0  0  0  0  0
  185.0030  178.9860  143.2460 C   0  0  1  0  0  3  0  0  0  0  0  0
  187.7920  176.8760  144.4110 N   0  0  2  0  0  0  0  0  0  0  0  0
  186.9030  178.0990  140.9480 C   0  0  1  0  0  3  0  0  0  0  0  0
  190.2090  176.7850  143.7560 C   0  0  2  0  0  3  0  0  0  0  0  0
  189.1580  177.2800  144.7780 C   0  0  2  0  0  3  0  0  0  0  0  0
  186.0980  179.3780  141.1700 C   0  0  0  0  0  2  0  0  0  0  0  0
  188.9860  178.3460  139.7140 C   0  0  0  0  0  3  0  0  0  0  0  0
  187.6600  178.1870  139.6610 C   0  0  0  0  0  0  0  0  0  0  0  0
  186.9220  178.1010  138.3440 C   0  0  0  0  0  2  0  0  0  0  0  0
  187.3360  178.1980  135.9950 O   0  0  0  0  0  0  0  0  0  0  0  0
  189.2400  178.3960  137.3170 N   0  0  0  0  0  0  0  0  0  0  0  0
  187.8270  178.2340  137.1520 C   0  0  0  0  0  0  0  0  0  0  0  0
  189.7930  178.4490  138.4890 C   0  0  0  0  0  3  0  0  0  0  0  0
  189.5710  176.7530  146.1670 C   0  0  0  0  0  2  0  0  0  0  0  0
  190.8790  177.2440  146.6150 N   0  0  0  0  0  0  0  0  0  0  0  0
  189.4980  177.5780  148.2240 N   0  0  0  0  0  1  0  0  0  0  0  0
  190.8210  177.4990  147.9470 O   0  0  0  0  0  0  0  0  0  0  0  0
  191.8760  176.2010  146.4040 C   0  0  0  0  0  2  0  0  0  0  0  0
  192.1850  175.4970  147.7120 C   0  0  0  0  0  2  0  0  0  0  0  0
  193.5400  175.6280  148.0170 O   0  0  0  0  0  1  0  0  0  0  0  0
  185.9610  179.4430  146.1130 O   0  0  0  0  0  0  0  0  0  0  0  0
  186.4070  179.4770  147.4490 C   0  0  0  0  0  0  0  0  0  0  0  0
  186.0560  180.6730  148.0560 F   0  0  0  0  0  0  0  0  0  0  0  0
  185.8880  178.4140  148.1730 F   0  0  0  0  0  0  0  0  0  0  0  0
  187.7850  179.3780  147.4550 F   0  0  0  0  0  0  0  0  0  0  0  0
  1  5  1  0  0  0  0
  2  6  1  0  0  0  0
  2 12  1  0  0  0  0
  3 33  1  0  0  0  0
  4  1  1  0  0  0  0
  4 14  1  0  0  0  0
  5  8  1  0  0  0  0
  5  3  1  0  0  0  0
  6  4  1  0  0  0  0
  7  3  1  0  0  0  0
  9 13  1  0  0  0  0
 10  7  1  0  0  0  0
 11 16  1  0  0  0  0
 12 11  1  0  0  0  0
 12 16  1  0  0  0  0
 13  1  1  0  0  0  0
 13 10  1  0  0  0  0
 14 17  1  0  0  0  0
 14  8  1  0  0  0  0
 15 18  1  0  0  0  0
 15  6  1  0  0  0  0
 16 17  1  0  0  0  0
 17 26  1  0  0  0  0
 18  9  1  0  0  0  0
 20 19  2  0  0  0  0
 20 15  1  0  0  0  0
 21 20  1  0  0  0  0
 22 24  2  0  0  0  0
 23 25  2  0  0  0  0
 24 23  1  0  0  0  0
 24 21  1  0  0  0  0
 25 19  1  0  0  0  0
 26 27  1  0  0  0  0
 27 29  1  0  0  0  0
 29 28  1  0  0  0  0
 30 27  1  0  0  0  0
 30 31  1  0  0  0  0
 31 32  1  0  0  0  0
 33 34  1  0  0  0  0
 34 37  1  0  0  0  0
 34 35  1  0  0  0  0
 34 36  1  0  0  0  0
M  END
>  <MODEL>
8

>  <REMARK>
 VINA RESULT:      -6.5      3.245      7.273
  Name = 
  8 active torsions:
  status: ('A' for Active; 'I' for Inactive)
    1  A    between atoms: C_1  and  N_4
    2  A    between atoms: C_1  and  C_27
    3  A    between atoms: C_2  and  O_22
    4  A    between atoms: N_4  and  C_12
    5  A    between atoms: N_4  and  O_37
    6  A    between atoms: C_6  and  O_22
    7  A    between atoms: C_8  and  C_12
    8  A    between atoms: C_23  and  C_30
                            x       y       z     vdW  Elec       q    Type
                         _______ _______ _______ _____ _____    ______ ____

>  <TORSDO>
F 8

$$$$
=
 OpenBabel11122411453D

 37 42  0  0  1  0  0  0  0  0999 V2000
  187.5190  178.6320  140.7820 C   0  0  1  0  0  3  0  0  0  0  0  0
  190.1260  178.2080  142.9200 O   0  0  0  0  0  0  0  0  0  0  0  0
  186.8730  178.1010  138.3610 C   0  0  2  0  0  3  0  0  0  0  0  0
  188.5560  177.6290  141.1960 C   0  0  2  0  0  3  0  0  0  0  0  0
  187.8630  178.8060  139.3050 C   0  0  2  0  0  3  0  0  0  0  0  0
  188.8910  177.5760  142.6970 C   0  0  2  0  0  3  0  0  0  0  0  0
  185.4280  178.5380  138.6330 C   0  0  0  0  0  2  0  0  0  0  0  0
  189.2130  178.2690  139.1130 N   0  0  0  0  0  2  0  0  0  0  0  0
  185.7170  178.4040  142.4310 N   0  0  0  0  0  2  0  0  0  0  0  0
  185.1100  178.7890  140.1140 C   0  0  0  0  0  2  0  0  0  0  0  0
  190.9660  175.8200  142.5700 C   0  0  0  0  0  2  0  0  0  0  0  0
  191.2060  177.2790  142.9500 C   0  0  1  0  0  3  0  0  0  0  0  0
  186.1010  178.1090  141.0550 C   0  0  1  0  0  3  0  0  0  0  0  0
  189.7250  177.9730  140.3970 N   0  0  2  0  0  0  0  0  0  0  0  0
  187.8110  178.1040  143.6530 C   0  0  1  0  0  3  0  0  0  0  0  0
  191.5900  176.7540  141.5450 C   0  0  2  0  0  3  0  0  0  0  0  0
  190.6060  176.7960  140.3510 C   0  0  2  0  0  3  0  0  0  0  0  0
  186.4390  177.5150  143.3330 C   0  0  0  0  0  2  0  0  0  0  0  0
  189.3000  177.1350  145.3150 C   0  0  0  0  0  3  0  0  0  0  0  0
  188.1750  177.8140  145.0750 C   0  0  0  0  0  0  0  0  0  0  0  0
  187.2750  178.2830  146.1940 C   0  0  0  0  0  2  0  0  0  0  0  0
  187.1040  178.1980  148.5750 O   0  0  0  0  0  0  0  0  0  0  0  0
  188.9980  177.1600  147.7070 N   0  0  0  0  0  0  0  0  0  0  0  0
  187.7720  177.8850  147.5550 C   0  0  0  0  0  0  0  0  0  0  0  0
  189.7160  176.8070  146.6870 C   0  0  0  0  0  3  0  0  0  0  0  0
  191.4410  176.7400  139.0560 C   0  0  0  0  0  2  0  0  0  0  0  0
  191.5490  175.3910  138.4870 N   0  0  0  0  0  0  0  0  0  0  0  0
  190.5250  173.7670  137.5280 N   0  0  0  0  0  1  0  0  0  0  0  0
  190.3460  175.0340  137.9710 O   0  0  0  0  0  0  0  0  0  0  0  0
  192.5140  175.4140  137.3930 C   0  0  0  0  0  2  0  0  0  0  0  0
  193.9270  175.3030  137.9370 C   0  0  0  0  0  2  0  0  0  0  0  0
  194.8480  175.6460  136.9470 O   0  0  0  0  0  1  0  0  0  0  0  0
  186.9750  176.7020  138.4860 O   0  0  0  0  0  0  0  0  0  0  0  0
  186.7450  176.1290  137.2190 C   0  0  0  0  0  0  0  0  0  0  0  0
  187.0110  177.0410  136.2090 F   0  0  0  0  0  0  0  0  0  0  0  0
  187.5200  174.9930  137.0400 F   0  0  0  0  0  0  0  0  0  0  0  0
  185.4140  175.7670  137.1350 F   0  0  0  0  0  0  0  0  0  0  0  0
  1 13  1  0  0  0  0
  1  4  1  0  0  0  0
  2 12  1  0  0  0  0
  3 33  1  0  0  0  0
  3  7  1  0  0  0  0
  3  5  1  0  0  0  0
  4  6  1  0  0  0  0
  5  1  1  0  0  0  0
  6  2  1  0  0  0  0
  6 15  1  0  0  0  0
  7 10  1  0  0  0  0
  8  5  1  0  0  0  0
  8 14  1  0  0  0  0
  9 18  1  0  0  0  0
 10 13  1  0  0  0  0
 11 12  1  0  0  0  0
 13  9  1  0  0  0  0
 14  4  1  0  0  0  0
 15 20  1  0  0  0  0
 16 11  1  0  0  0  0
 16 12  1  0  0  0  0
 17 14  1  0  0  0  0
 17 16  1  0  0  0  0
 18 15  1  0  0  0  0
 19 25  1  0  0  0  0
 20 19  2  0  0  0  0
 20 21  1  0  0  0  0
 21 24  1  0  0  0  0
 24 23  1  0  0  0  0
 24 22  2  0  0  0  0
 25 23  2  0  0  0  0
 26 17  1  0  0  0  0
 27 26  1  0  0  0  0
 28 29  1  0  0  0  0
 29 27  1  0  0  0  0
 30 31  1  0  0  0  0
 30 27  1  0  0  0  0
 32 31  1  0  0  0  0
 34 33  1  0  0  0  0
 35 34  1  0  0  0  0
 36 34  1  0  0  0  0
 37 34  1  0  0  0  0
M  END
>  <MODEL>
9

>  <REMARK>
 VINA RESULT:      -6.3      2.915      3.968
  Name = 
  8 active torsions:
  status: ('A' for Active; 'I' for Inactive)
    1  A    between atoms: C_1  and  N_4
    2  A    between atoms: C_1  and  C_27
    3  A    between atoms: C_2  and  O_22
    4  A    between atoms: N_4  and  C_12
    5  A    between atoms: N_4  and  O_37
    6  A    between atoms: C_6  and  O_22
    7  A    between atoms: C_8  and  C_12
    8  A    between atoms: C_23  and  C_30
                            x       y       z     vdW  Elec       q    Type
                         _______ _______ _______ _____ _____    ______ ____

>  <TORSDO>
F 8

$$$$
