=
 OpenBabel11122411433D

 37 44  0  0  1  0  0  0  0  0999 V2000
  189.1360  176.4160  137.3240 C   0  0  0  0  0  0  0  0  0  0  0  0
  185.9400  178.3520  137.2290 C   0  0  1  0  0  3  0  0  0  0  0  0
  184.8470  179.6440  140.0400 O   0  0  0  0  0  0  0  0  0  0  0  0
  188.0710  177.8240  135.8300 C   0  0  2  0  0  3  0  0  0  0  0  0
  185.8830  177.9730  138.6890 C   0  0  2  0  0  3  0  0  0  0  0  0
  187.4440  178.5380  137.0330 C   0  0  2  0  0  3  0  0  0  0  0  0
  184.6170  178.4090  139.4190 C   0  0  2  0  0  3  0  0  0  0  0  0
  187.1050  177.8810  134.6570 C   0  0  0  0  0  2  0  0  0  0  0  0
  188.1030  178.2070  138.3080 N   0  0  2  0  0  0  0  0  0  0  0  0
  190.4710  177.1710  137.2720 C   0  0  0  0  0  1  0  0  0  0  0  0
  183.8310  177.4550  136.3520 N   0  0  0  0  0  2  0  0  0  0  0  0
  185.7970  177.1370  134.9480 C   0  0  0  0  0  2  0  0  0  0  0  0
  188.3030  176.8460  138.3850 O   0  0  0  0  0  0  0  0  0  0  0  0
  185.3210  178.0890  142.0130 C   0  0  0  0  0  2  0  0  0  0  0  0
  185.1530  179.4880  141.4220 C   0  0  1  0  0  3  0  0  0  0  0  0
  185.2780  177.2460  136.3920 C   0  0  1  0  0  3  0  0  0  0  0  0
  187.1020  178.5540  139.2530 N   0  0  2  0  0  0  0  0  0  0  0  0
  188.4340  176.4880  136.1020 O   0  0  0  0  0  0  0  0  0  0  0  0
  183.3460  178.4280  138.5540 C   0  0  1  0  0  3  0  0  0  0  0  0
  189.4700  174.9610  137.5730 C   0  0  0  0  0  1  0  0  0  0  0  0
  186.5620  178.9010  141.6760 C   0  0  2  0  0  3  0  0  0  0  0  0
  187.3590  178.0760  140.6300 C   0  0  2  0  0  3  0  0  0  0  0  0
  183.2430  177.1860  137.6630 C   0  0  0  0  0  2  0  0  0  0  0  0
  181.6630  177.4510  140.1210 C   0  0  0  0  0  3  0  0  0  0  0  0
  182.1240  178.5640  139.4090 C   0  0  0  0  0  0  0  0  0  0  0  0
  181.4310  179.7810  139.5000 C   0  0  0  0  0  3  0  0  0  0  0  0
  179.6220  181.0570  140.3810 F   0  0  0  0  0  0  0  0  0  0  0  0
  179.8320  178.7660  141.0070 C   0  0  0  0  0  3  0  0  0  0  0  0
  180.2880  179.8810  140.2970 C   0  0  0  0  0  0  0  0  0  0  0  0
  180.5190  177.5520  140.9190 C   0  0  0  0  0  3  0  0  0  0  0  0
  188.8430  178.2350  141.0230 C   0  0  1  0  0  3  0  0  0  0  0  0
  189.2510  177.5160  142.3230 C   0  0  2  0  0  3  0  0  0  0  0  0
  189.5990  176.9200  140.9790 C   0  0  2  0  0  3  0  0  0  0  0  0
  191.3510  177.2460  140.6440 S   0  0  0  0  0  0  0  0  0  0  0  0
  191.7150  177.4630  142.4070 C   0  0  0  0  0  1  0  0  0  0  0  0
  188.1170  176.9230  144.4480 C   0  0  0  0  0  1  0  0  0  0  0  0
  188.1900  176.6310  142.9630 C   0  0  0  0  0  2  0  0  0  0  0  0
  1 20  1  0  0  0  0
  1 13  1  0  0  0  0
  2  5  1  0  0  0  0
  3 15  1  0  0  0  0
  4 18  1  0  0  0  0
  4  6  1  0  0  0  0
  5 17  1  0  0  0  0
  5  7  1  0  0  0  0
  6  2  1  0  0  0  0
  6  9  1  0  0  0  0
  7  3  1  0  0  0  0
  8 12  1  0  0  0  0
  8  4  1  0  0  0  0
  9 13  1  0  0  0  0
  9 17  1  0  0  0  0
 10  1  1  0  0  0  0
 11 16  1  0  0  0  0
 11 23  1  0  0  0  0
 12 16  1  0  0  0  0
 15 21  1  0  0  0  0
 15 14  1  0  0  0  0
 16  2  1  0  0  0  0
 17 22  1  0  0  0  0
 18  1  1  0  0  0  0
 19 25  1  0  0  0  0
 19  7  1  0  0  0  0
 21 14  1  0  0  0  0
 22 31  1  0  0  0  0
 22 21  1  0  0  0  0
 23 19  1  0  0  0  0
 24 30  1  0  0  0  0
 25 26  1  0  0  0  0
 25 24  2  0  0  0  0
 26 29  2  0  0  0  0
 29 27  1  0  0  0  0
 29 28  1  0  0  0  0
 30 28  2  0  0  0  0
 31 32  1  0  0  0  0
 32 37  1  0  0  0  0
 33 31  1  0  0  0  0
 33 32  1  0  0  0  0
 34 33  1  0  0  0  0
 34 35  1  0  0  0  0
 37 36  1  0  0  0  0
M  END
>  <MODEL>
1

>  <REMARK>
 VINA RESULT:      -8.2      0.000      0.000
  Name = 
  4 active torsions:
  status: ('A' for Active; 'I' for Inactive)
    1  A    between atoms: C_1  and  C_27
    2  A    between atoms: C_4  and  C_37
    3  A    between atoms: S_8  and  C_12
    4  A    between atoms: C_23  and  C_30
                            x       y       z     vdW  Elec       q    Type
                         _______ _______ _______ _____ _____    ______ ____

>  <TORSDO>
F 4

$$$$
=
 OpenBabel11122411433D

 37 44  0  0  1  0  0  0  0  0999 V2000
  183.9640  178.1400  140.5230 C   0  0  0  0  0  0  0  0  0  0  0  0
  186.2320  178.8420  143.4100 C   0  0  1  0  0  3  0  0  0  0  0  0
  189.4650  178.5880  142.9160 O   0  0  0  0  0  0  0  0  0  0  0  0
  183.9780  179.5770  142.3350 C   0  0  2  0  0  3  0  0  0  0  0  0
  187.1810  177.9570  142.6400 C   0  0  2  0  0  3  0  0  0  0  0  0
  185.5090  179.5580  142.2700 C   0  0  2  0  0  3  0  0  0  0  0  0
  188.5020  177.6640  143.3440 C   0  0  2  0  0  3  0  0  0  0  0  0
  183.5410  179.7480  143.7820 C   0  0  0  0  0  2  0  0  0  0  0  0
  186.0250  179.0120  141.0040 N   0  0  2  0  0  0  0  0  0  0  0  0
  183.6980  179.2460  139.4930 C   0  0  0  0  0  1  0  0  0  0  0  0
  186.0660  177.7050  145.5790 N   0  0  0  0  0  2  0  0  0  0  0  0
  183.9810  178.5720  144.6610 C   0  0  0  0  0  2  0  0  0  0  0  0
  185.3410  177.8590  140.6850 O   0  0  0  0  0  0  0  0  0  0  0  0
  190.0050  176.6580  141.3290 C   0  0  0  0  0  2  0  0  0  0  0  0
  190.3030  178.0420  141.9020 C   0  0  1  0  0  3  0  0  0  0  0  0
  185.3580  177.9710  144.3270 C   0  0  1  0  0  3  0  0  0  0  0  0
  187.3500  178.6470  141.3620 N   0  0  2  0  0  0  0  0  0  0  0  0
  183.3820  178.4260  141.7760 O   0  0  0  0  0  0  0  0  0  0  0  0
  188.4170  177.5910  144.8770 C   0  0  1  0  0  3  0  0  0  0  0  0
  183.3060  176.8850  139.9920 C   0  0  0  0  0  1  0  0  0  0  0  0
  189.5920  177.8880  140.5370 C   0  0  2  0  0  3  0  0  0  0  0  0
  188.0510  177.8070  140.3660 C   0  0  2  0  0  3  0  0  0  0  0  0
  187.1900  176.8000  145.3440 C   0  0  0  0  0  2  0  0  0  0  0  0
  190.0070  177.2840  146.7800 C   0  0  0  0  0  3  0  0  0  0  0  0
  189.6690  177.0040  145.4510 C   0  0  0  0  0  0  0  0  0  0  0  0
  190.5120  176.1900  144.6780 C   0  0  0  0  0  3  0  0  0  0  0  0
  192.4910  174.8770  144.4830 F   0  0  0  0  0  0  0  0  0  0  0  0
  192.0120  175.9440  146.5610 C   0  0  0  0  0  3  0  0  0  0  0  0
  191.6800  175.6620  145.2330 C   0  0  0  0  0  0  0  0  0  0  0  0
  191.1760  176.7540  147.3340 C   0  0  0  0  0  3  0  0  0  0  0  0
  187.7710  178.2760  138.9220 C   0  0  1  0  0  3  0  0  0  0  0  0
  188.4690  177.4510  137.8240 C   0  0  2  0  0  3  0  0  0  0  0  0
  187.0010  177.2470  138.1160 C   0  0  2  0  0  3  0  0  0  0  0  0
  186.0380  178.0890  136.8310 S   0  0  0  0  0  0  0  0  0  0  0  0
  187.4690  178.1700  135.7200 C   0  0  0  0  0  1  0  0  0  0  0  0
  190.4980  176.0630  137.4990 C   0  0  0  0  0  1  0  0  0  0  0  0
  189.2140  176.2070  138.2880 C   0  0  0  0  0  2  0  0  0  0  0  0
  1 13  1  0  0  0  0
  1 18  1  0  0  0  0
  2 16  1  0  0  0  0
  3  7  1  0  0  0  0
  4  8  1  0  0  0  0
  5  7  1  0  0  0  0
  5  2  1  0  0  0  0
  6  4  1  0  0  0  0
  6  2  1  0  0  0  0
  7 19  1  0  0  0  0
  8 12  1  0  0  0  0
  9 17  1  0  0  0  0
  9  6  1  0  0  0  0
 10  1  1  0  0  0  0
 13  9  1  0  0  0  0
 14 15  1  0  0  0  0
 15  3  1  0  0  0  0
 16 12  1  0  0  0  0
 16 11  1  0  0  0  0
 17  5  1  0  0  0  0
 18  4  1  0  0  0  0
 19 23  1  0  0  0  0
 19 25  1  0  0  0  0
 20  1  1  0  0  0  0
 21 14  1  0  0  0  0
 21 15  1  0  0  0  0
 22 21  1  0  0  0  0
 22 17  1  0  0  0  0
 23 11  1  0  0  0  0
 24 30  1  0  0  0  0
 25 24  2  0  0  0  0
 26 29  2  0  0  0  0
 26 25  1  0  0  0  0
 27 29  1  0  0  0  0
 28 30  2  0  0  0  0
 29 28  1  0  0  0  0
 31 22  1  0  0  0  0
 32 33  1  0  0  0  0
 32 37  1  0  0  0  0
 32 31  1  0  0  0  0
 33 31  1  0  0  0  0
 34 33  1  0  0  0  0
 35 34  1  0  0  0  0
 36 37  1  0  0  0  0
M  END
>  <MODEL>
2

>  <REMARK>
 VINA RESULT:      -7.4      3.572      7.885
  Name = 
  4 active torsions:
  status: ('A' for Active; 'I' for Inactive)
    1  A    between atoms: C_1  and  C_27
    2  A    between atoms: C_4  and  C_37
    3  A    between atoms: S_8  and  C_12
    4  A    between atoms: C_23  and  C_30
                            x       y       z     vdW  Elec       q    Type
                         _______ _______ _______ _____ _____    ______ ____

>  <TORSDO>
F 4

$$$$
=
 OpenBabel11122411433D

 37 44  0  0  1  0  0  0  0  0999 V2000
  188.3020  175.9970  136.3620 C   0  0  0  0  0  0  0  0  0  0  0  0
  185.5190  178.1110  137.6900 C   0  0  1  0  0  3  0  0  0  0  0  0
  185.9240  179.5040  140.6320 O   0  0  0  0  0  0  0  0  0  0  0  0
  186.7230  177.4410  135.4820 C   0  0  2  0  0  3  0  0  0  0  0  0
  186.1350  177.7570  139.0220 C   0  0  2  0  0  3  0  0  0  0  0  0
  186.7640  178.2070  136.8090 C   0  0  2  0  0  3  0  0  0  0  0  0
  185.3770  178.2750  140.2400 C   0  0  2  0  0  3  0  0  0  0  0  0
  185.3240  177.5360  134.8920 C   0  0  0  0  0  2  0  0  0  0  0  0
  187.9260  177.8580  137.6410 N   0  0  2  0  0  0  0  0  0  0  0  0
  189.4880  176.6740  135.6640 C   0  0  0  0  0  1  0  0  0  0  0  0
  183.2080  177.3210  137.9340 N   0  0  0  0  0  2  0  0  0  0  0  0
  184.2740  176.8710  135.7890 C   0  0  0  0  0  2  0  0  0  0  0  0
  188.0800  176.4890  137.6700 O   0  0  0  0  0  0  0  0  0  0  0  0
  187.1970  177.9540  142.2170 C   0  0  0  0  0  2  0  0  0  0  0  0
  186.8330  179.3510  141.7180 C   0  0  1  0  0  3  0  0  0  0  0  0
  184.4960  177.0310  137.3030 C   0  0  1  0  0  3  0  0  0  0  0  0
  187.4990  178.2760  138.9300 N   0  0  2  0  0  0  0  0  0  0  0  0
  187.1130  176.0910  135.6060 O   0  0  0  0  0  0  0  0  0  0  0  0
  183.8510  178.3530  140.0670 C   0  0  1  0  0  3  0  0  0  0  0  0
  188.6490  174.5300  136.4830 C   0  0  0  0  0  1  0  0  0  0  0  0
  188.1700  178.6890  141.3100 C   0  0  2  0  0  3  0  0  0  0  0  0
  188.3490  177.8050  140.0460 C   0  0  2  0  0  3  0  0  0  0  0  0
  183.2900  177.1060  139.3770 C   0  0  0  0  0  2  0  0  0  0  0  0
  183.9270  178.4540  142.5620 C   0  0  0  0  0  3  0  0  0  0  0  0
  183.1780  178.5710  141.3870 C   0  0  0  0  0  0  0  0  0  0  0  0
  181.8100  178.8780  141.4640 C   0  0  0  0  0  3  0  0  0  0  0  0
  179.8830  179.3630  142.7780 F   0  0  0  0  0  0  0  0  0  0  0  0
  181.9570  178.9500  143.8790 C   0  0  0  0  0  3  0  0  0  0  0  0
  181.2020  179.0670  142.7080 C   0  0  0  0  0  0  0  0  0  0  0  0
  183.3180  178.6430  143.8070 C   0  0  0  0  0  3  0  0  0  0  0  0
  189.8500  177.8850  139.6960 C   0  0  1  0  0  3  0  0  0  0  0  0
  190.7900  177.1920  140.7010 C   0  0  2  0  0  3  0  0  0  0  0  0
  190.4490  176.5240  139.3890 C   0  0  2  0  0  3  0  0  0  0  0  0
  191.8530  176.7260  138.2600 S   0  0  0  0  0  0  0  0  0  0  0  0
  191.9020  174.9500  137.9000 C   0  0  0  0  0  1  0  0  0  0  0  0
  190.9100  176.5570  143.0960 C   0  0  0  0  0  1  0  0  0  0  0  0
  190.1170  176.4010  141.8150 C   0  0  0  0  0  2  0  0  0  0  0  0
  1 20  1  0  0  0  0
  1 13  1  0  0  0  0
  2  5  1  0  0  0  0
  3 15  1  0  0  0  0
  4 18  1  0  0  0  0
  4  6  1  0  0  0  0
  5  7  1  0  0  0  0
  6  9  1  0  0  0  0
  6  2  1  0  0  0  0
  7  3  1  0  0  0  0
  8  4  1  0  0  0  0
  8 12  1  0  0  0  0
  9 13  1  0  0  0  0
  9 17  1  0  0  0  0
 10  1  1  0  0  0  0
 11 23  1  0  0  0  0
 12 16  1  0  0  0  0
 15 14  1  0  0  0  0
 16  2  1  0  0  0  0
 16 11  1  0  0  0  0
 17  5  1  0  0  0  0
 17 22  1  0  0  0  0
 18  1  1  0  0  0  0
 19  7  1  0  0  0  0
 19 25  1  0  0  0  0
 21 15  1  0  0  0  0
 21 14  1  0  0  0  0
 22 21  1  0  0  0  0
 23 19  1  0  0  0  0
 24 30  1  0  0  0  0
 25 26  1  0  0  0  0
 25 24  2  0  0  0  0
 26 29  2  0  0  0  0
 29 27  1  0  0  0  0
 29 28  1  0  0  0  0
 30 28  2  0  0  0  0
 31 22  1  0  0  0  0
 31 32  1  0  0  0  0
 32 37  1  0  0  0  0
 33 31  1  0  0  0  0
 33 32  1  0  0  0  0
 34 33  1  0  0  0  0
 35 34  1  0  0  0  0
 37 36  1  0  0  0  0
M  END
>  <MODEL>
3

>  <REMARK>
 VINA RESULT:      -7.2      1.620      2.155
  Name = 
  4 active torsions:
  status: ('A' for Active; 'I' for Inactive)
    1  A    between atoms: C_1  and  C_27
    2  A    between atoms: C_4  and  C_37
    3  A    between atoms: S_8  and  C_12
    4  A    between atoms: C_23  and  C_30
                            x       y       z     vdW  Elec       q    Type
                         _______ _______ _______ _____ _____    ______ ____

>  <TORSDO>
F 4

$$$$
=
 OpenBabel11122411433D

 37 44  0  0  1  0  0  0  0  0999 V2000
  185.5040  177.3560  137.9700 C   0  0  0  0  0  0  0  0  0  0  0  0
  186.3020  178.7060  141.3630 C   0  0  1  0  0  3  0  0  0  0  0  0
  189.4480  178.7550  142.2920 O   0  0  0  0  0  0  0  0  0  0  0  0
  184.6850  179.0240  139.3480 C   0  0  2  0  0  3  0  0  0  0  0  0
  187.5270  177.8360  141.2180 C   0  0  2  0  0  3  0  0  0  0  0  0
  186.0990  179.1690  139.9210 C   0  0  2  0  0  3  0  0  0  0  0  0
  188.4370  177.7960  142.4410 C   0  0  2  0  0  3  0  0  0  0  0  0
  183.6700  179.3440  140.4350 C   0  0  0  0  0  2  0  0  0  0  0  0
  187.1270  178.5150  139.0950 N   0  0  2  0  0  0  0  0  0  0  0  0
  185.6510  178.2710  136.7470 C   0  0  0  0  0  1  0  0  0  0  0  0
  185.2850  177.8700  143.4350 N   0  0  0  0  0  2  0  0  0  0  0  0
  183.7480  178.3590  141.6070 C   0  0  0  0  0  2  0  0  0  0  0  0
  186.6950  177.2590  138.7290 O   0  0  0  0  0  0  0  0  0  0  0  0
  190.6950  176.6970  141.4290 C   0  0  0  0  0  2  0  0  0  0  0  0
  190.6600  178.1720  141.8230 C   0  0  1  0  0  3  0  0  0  0  0  0
  185.1620  177.8780  141.9770 C   0  0  1  0  0  3  0  0  0  0  0  0
  188.1910  178.3570  140.0230 N   0  0  2  0  0  0  0  0  0  0  0  0
  184.4340  177.7460  138.8030 O   0  0  0  0  0  0  0  0  0  0  0  0
  187.7140  177.9280  143.7910 C   0  0  1  0  0  3  0  0  0  0  0  0
  185.1900  175.9730  137.4430 C   0  0  0  0  0  1  0  0  0  0  0  0
  190.6030  177.7490  140.3360 C   0  0  2  0  0  3  0  0  0  0  0  0
  189.2840  177.4710  139.5650 C   0  0  2  0  0  3  0  0  0  0  0  0
  186.4410  177.0760  143.8420 C   0  0  0  0  0  2  0  0  0  0  0  0
  188.1930  177.7560  146.2370 C   0  0  0  0  0  3  0  0  0  0  0  0
  188.6300  177.5730  144.9210 C   0  0  0  0  0  0  0  0  0  0  0  0
  189.9190  177.0710  144.6820 C   0  0  0  0  0  3  0  0  0  0  0  0
  192.0030  176.2720  145.5170 F   0  0  0  0  0  0  0  0  0  0  0  0
  190.3170  176.9400  147.0660 C   0  0  0  0  0  3  0  0  0  0  0  0
  190.7600  176.7560  145.7530 C   0  0  0  0  0  0  0  0  0  0  0  0
  189.0350  177.4400  147.3080 C   0  0  0  0  0  3  0  0  0  0  0  0
  189.6210  177.7000  138.0760 C   0  0  1  0  0  3  0  0  0  0  0  0
  190.5660  176.6530  137.4550 C   0  0  2  0  0  3  0  0  0  0  0  0
  189.0800  176.6000  137.1820 C   0  0  2  0  0  3  0  0  0  0  0  0
  188.7770  177.2670  135.5240 S   0  0  0  0  0  0  0  0  0  0  0  0
  188.1280  175.6800  134.9330 C   0  0  0  0  0  1  0  0  0  0  0  0
  191.8800  174.5540  137.5940 C   0  0  0  0  0  1  0  0  0  0  0  0
  190.9200  175.4620  138.3350 C   0  0  0  0  0  2  0  0  0  0  0  0
  1 13  1  0  0  0  0
  1 18  1  0  0  0  0
  2 16  1  0  0  0  0
  3  7  1  0  0  0  0
  4  6  1  0  0  0  0
  4  8  1  0  0  0  0
  5  2  1  0  0  0  0
  5  7  1  0  0  0  0
  6  2  1  0  0  0  0
  7 19  1  0  0  0  0
  8 12  1  0  0  0  0
  9  6  1  0  0  0  0
  9 17  1  0  0  0  0
 10  1  1  0  0  0  0
 11 23  1  0  0  0  0
 12 16  1  0  0  0  0
 13  9  1  0  0  0  0
 14 15  1  0  0  0  0
 15  3  1  0  0  0  0
 16 11  1  0  0  0  0
 17  5  1  0  0  0  0
 18  4  1  0  0  0  0
 19 23  1  0  0  0  0
 19 25  1  0  0  0  0
 20  1  1  0  0  0  0
 21 14  1  0  0  0  0
 21 15  1  0  0  0  0
 22 17  1  0  0  0  0
 22 21  1  0  0  0  0
 24 30  1  0  0  0  0
 25 24  2  0  0  0  0
 26 25  1  0  0  0  0
 26 29  2  0  0  0  0
 27 29  1  0  0  0  0
 28 30  2  0  0  0  0
 29 28  1  0  0  0  0
 31 22  1  0  0  0  0
 32 31  1  0  0  0  0
 32 37  1  0  0  0  0
 33 32  1  0  0  0  0
 33 31  1  0  0  0  0
 34 33  1  0  0  0  0
 35 34  1  0  0  0  0
 36 37  1  0  0  0  0
M  END
>  <MODEL>
4

>  <REMARK>
 VINA RESULT:      -6.8      3.186      6.769
  Name = 
  4 active torsions:
  status: ('A' for Active; 'I' for Inactive)
    1  A    between atoms: C_1  and  C_27
    2  A    between atoms: C_4  and  C_37
    3  A    between atoms: S_8  and  C_12
    4  A    between atoms: C_23  and  C_30
                            x       y       z     vdW  Elec       q    Type
                         _______ _______ _______ _____ _____    ______ ____

>  <TORSDO>
F 4

$$$$
=
 OpenBabel11122411433D

 37 44  0  0  1  0  0  0  0  0999 V2000
  189.7210  176.7700  142.0740 C   0  0  0  0  0  0  0  0  0  0  0  0
  188.2050  177.8840  138.8430 C   0  0  1  0  0  3  0  0  0  0  0  0
  185.2130  179.2260  138.9370 O   0  0  0  0  0  0  0  0  0  0  0  0
  190.4800  177.6950  140.0940 C   0  0  2  0  0  3  0  0  0  0  0  0
  186.9120  177.6870  139.5960 C   0  0  2  0  0  3  0  0  0  0  0  0
  189.1200  178.3880  139.9590 C   0  0  2  0  0  3  0  0  0  0  0  0
  185.6470  177.9040  138.7710 C   0  0  2  0  0  3  0  0  0  0  0  0
  191.0200  177.3800  138.7080 C   0  0  0  0  0  2  0  0  0  0  0  0
  188.3410  178.3800  141.2090 N   0  0  2  0  0  0  0  0  0  0  0  0
  190.4220  177.8010  142.9670 C   0  0  0  0  0  1  0  0  0  0  0  0
  187.9280  176.4200  136.8930 N   0  0  0  0  0  2  0  0  0  0  0  0
  190.1240  176.3940  137.9490 C   0  0  0  0  0  2  0  0  0  0  0  0
  188.3840  177.1230  141.7720 O   0  0  0  0  0  0  0  0  0  0  0  0
  183.7460  178.0810  140.6900 C   0  0  0  0  0  2  0  0  0  0  0  0
  184.1650  179.3180  139.8970 C   0  0  1  0  0  3  0  0  0  0  0  0
  188.6120  176.5590  138.1790 C   0  0  1  0  0  3  0  0  0  0  0  0
  187.0220  178.6000  140.7330 N   0  0  2  0  0  0  0  0  0  0  0  0
  190.4340  176.5240  140.8800 O   0  0  0  0  0  0  0  0  0  0  0  0
  185.7680  177.5200  137.2870 C   0  0  1  0  0  3  0  0  0  0  0  0
  189.6810  175.4750  142.8550 C   0  0  0  0  0  1  0  0  0  0  0  0
  184.6470  179.1110  141.3530 C   0  0  2  0  0  3  0  0  0  0  0  0
  185.9570  178.3690  141.7350 C   0  0  2  0  0  3  0  0  0  0  0  0
  186.5000  176.1870  137.1010 C   0  0  0  0  0  2  0  0  0  0  0  0
  184.3290  177.5330  135.2450 C   0  0  0  0  0  3  0  0  0  0  0  0
  184.4190  177.4730  136.6400 C   0  0  0  0  0  0  0  0  0  0  0  0
  183.2460  177.3830  137.4070 C   0  0  0  0  0  3  0  0  0  0  0  0
  180.8700  177.2640  137.5240 F   0  0  0  0  0  0  0  0  0  0  0  0
  181.9150  177.4090  135.3860 C   0  0  0  0  0  3  0  0  0  0  0  0
  181.9980  177.3510  136.7800 C   0  0  0  0  0  0  0  0  0  0  0  0
  183.0790  177.5000  134.6190 C   0  0  0  0  0  3  0  0  0  0  0  0
  186.3490  178.9160  143.1230 C   0  0  1  0  0  3  0  0  0  0  0  0
  185.2040  178.9560  144.1540 C   0  0  2  0  0  3  0  0  0  0  0  0
  186.2460  177.8640  144.2120 C   0  0  2  0  0  3  0  0  0  0  0  0
  187.4160  178.2580  145.5410 S   0  0  0  0  0  0  0  0  0  0  0  0
  186.0730  178.6530  146.6940 C   0  0  0  0  0  1  0  0  0  0  0  0
  182.7410  178.9970  144.4430 C   0  0  0  0  0  1  0  0  0  0  0  0
  183.8890  178.3220  143.7210 C   0  0  0  0  0  2  0  0  0  0  0  0
  1 20  1  0  0  0  0
  1 10  1  0  0  0  0
  2  5  1  0  0  0  0
  2  6  1  0  0  0  0
  3 15  1  0  0  0  0
  4 18  1  0  0  0  0
  5 17  1  0  0  0  0
  6  4  1  0  0  0  0
  6  9  1  0  0  0  0
  7  3  1  0  0  0  0
  7  5  1  0  0  0  0
  8  4  1  0  0  0  0
  9 13  1  0  0  0  0
 11 23  1  0  0  0  0
 11 16  1  0  0  0  0
 12 16  1  0  0  0  0
 12  8  1  0  0  0  0
 13  1  1  0  0  0  0
 14 21  1  0  0  0  0
 15 14  1  0  0  0  0
 15 21  1  0  0  0  0
 16  2  1  0  0  0  0
 17  9  1  0  0  0  0
 17 22  1  0  0  0  0
 18  1  1  0  0  0  0
 19  7  1  0  0  0  0
 21 22  1  0  0  0  0
 22 31  1  0  0  0  0
 23 19  1  0  0  0  0
 24 25  1  0  0  0  0
 25 19  1  0  0  0  0
 25 26  2  0  0  0  0
 28 29  2  0  0  0  0
 29 26  1  0  0  0  0
 29 27  1  0  0  0  0
 30 24  2  0  0  0  0
 30 28  1  0  0  0  0
 31 32  1  0  0  0  0
 31 33  1  0  0  0  0
 32 33  1  0  0  0  0
 33 34  1  0  0  0  0
 34 35  1  0  0  0  0
 37 32  1  0  0  0  0
 37 36  1  0  0  0  0
M  END
>  <MODEL>
5

>  <REMARK>
 VINA RESULT:      -6.3      2.522      4.352
  Name = 
  4 active torsions:
  status: ('A' for Active; 'I' for Inactive)
    1  A    between atoms: C_1  and  C_27
    2  A    between atoms: C_4  and  C_37
    3  A    between atoms: S_8  and  C_12
    4  A    between atoms: C_23  and  C_30
                            x       y       z     vdW  Elec       q    Type
                         _______ _______ _______ _____ _____    ______ ____

>  <TORSDO>
F 4

$$$$
=
 OpenBabel11122411433D

 37 44  0  0  1  0  0  0  0  0999 V2000
  185.6900  179.1800  145.4550 C   0  0  0  0  0  0  0  0  0  0  0  0
  186.8960  177.4540  142.3660 C   0  0  1  0  0  3  0  0  0  0  0  0
  189.7410  175.8290  142.5300 O   0  0  0  0  0  0  0  0  0  0  0  0
  184.7280  178.0640  143.6720 C   0  0  2  0  0  3  0  0  0  0  0  0
  188.2440  177.6190  143.0240 C   0  0  2  0  0  3  0  0  0  0  0  0
  186.0030  177.2180  143.5840 C   0  0  2  0  0  3  0  0  0  0  0  0
  189.4310  177.1520  142.1870 C   0  0  2  0  0  3  0  0  0  0  0  0
  184.1420  178.2310  142.2780 C   0  0  0  0  0  2  0  0  0  0  0  0
  186.8500  177.3240  144.7830 N   0  0  2  0  0  0  0  0  0  0  0  0
  184.9430  178.3690  146.5220 C   0  0  0  0  0  1  0  0  0  0  0  0
  187.2020  178.5830  140.2080 N   0  0  0  0  0  2  0  0  0  0  0  0
  185.0840  178.9950  141.3420 C   0  0  0  0  0  2  0  0  0  0  0  0
  186.9660  178.6460  145.1520 O   0  0  0  0  0  0  0  0  0  0  0  0
  191.4150  177.0520  144.0260 C   0  0  0  0  0  2  0  0  0  0  0  0
  190.8290  175.7660  143.4470 C   0  0  1  0  0  3  0  0  0  0  0  0
  186.5840  178.7050  141.5290 C   0  0  1  0  0  3  0  0  0  0  0  0
  188.1110  176.8980  144.2890 N   0  0  2  0  0  0  0  0  0  0  0  0
  184.9360  179.3250  144.2700 O   0  0  0  0  0  0  0  0  0  0  0  0
  189.2620  177.3280  140.6690 C   0  0  1  0  0  3  0  0  0  0  0  0
  185.9030  180.5630  146.0300 C   0  0  0  0  0  1  0  0  0  0  0  0
  190.4560  176.2320  144.8750 C   0  0  2  0  0  3  0  0  0  0  0  0
  189.2510  177.1560  145.1970 C   0  0  2  0  0  3  0  0  0  0  0  0
  188.6550  178.6900  140.3160 C   0  0  0  0  0  2  0  0  0  0  0  0
  191.7450  177.5810  140.5750 C   0  0  0  0  0  3  0  0  0  0  0  0
  190.5690  177.1360  139.9640 C   0  0  0  0  0  0  0  0  0  0  0  0
  190.6310  176.5290  138.6990 C   0  0  0  0  0  3  0  0  0  0  0  0
  191.9160  175.7840  136.8370 F   0  0  0  0  0  0  0  0  0  0  0  0
  193.0340  176.8150  138.6740 C   0  0  0  0  0  3  0  0  0  0  0  0
  191.8610  176.3690  138.0570 C   0  0  0  0  0  0  0  0  0  0  0  0
  192.9760  177.4200  139.9320 C   0  0  0  0  0  3  0  0  0  0  0  0
  188.8880  176.8610  146.6680 C   0  0  1  0  0  3  0  0  0  0  0  0
  190.0930  176.6300  147.6010 C   0  0  2  0  0  3  0  0  0  0  0  0
  189.3600  177.9510  147.6130 C   0  0  2  0  0  3  0  0  0  0  0  0
  188.2790  177.9950  149.0680 S   0  0  0  0  0  0  0  0  0  0  0  0
  187.4050  176.4950  148.5440 C   0  0  0  0  0  1  0  0  0  0  0  0
  192.4650  175.9060  147.6090 C   0  0  0  0  0  1  0  0  0  0  0  0
  191.4690  176.8660  146.9920 C   0  0  0  0  0  2  0  0  0  0  0  0
  1 20  1  0  0  0  0
  1 10  1  0  0  0  0
  2  5  1  0  0  0  0
  2  6  1  0  0  0  0
  3 15  1  0  0  0  0
  4 18  1  0  0  0  0
  5 17  1  0  0  0  0
  6  4  1  0  0  0  0
  6  9  1  0  0  0  0
  7  3  1  0  0  0  0
  7  5  1  0  0  0  0
  8  4  1  0  0  0  0
  9 13  1  0  0  0  0
 11 23  1  0  0  0  0
 11 16  1  0  0  0  0
 12 16  1  0  0  0  0
 12  8  1  0  0  0  0
 13  1  1  0  0  0  0
 14 21  1  0  0  0  0
 15 14  1  0  0  0  0
 15 21  1  0  0  0  0
 16  2  1  0  0  0  0
 17  9  1  0  0  0  0
 17 22  1  0  0  0  0
 18  1  1  0  0  0  0
 19  7  1  0  0  0  0
 21 22  1  0  0  0  0
 22 31  1  0  0  0  0
 23 19  1  0  0  0  0
 25 24  1  0  0  0  0
 25 19  1  0  0  0  0
 26 25  2  0  0  0  0
 27 29  1  0  0  0  0
 28 30  1  0  0  0  0
 29 28  2  0  0  0  0
 29 26  1  0  0  0  0
 30 24  2  0  0  0  0
 31 32  1  0  0  0  0
 31 33  1  0  0  0  0
 32 33  1  0  0  0  0
 33 34  1  0  0  0  0
 35 34  1  0  0  0  0
 37 32  1  0  0  0  0
 37 36  1  0  0  0  0
M  END
>  <MODEL>
6

>  <REMARK>
 VINA RESULT:      -6.0      4.331      8.113
  Name = 
  4 active torsions:
  status: ('A' for Active; 'I' for Inactive)
    1  A    between atoms: C_1  and  C_27
    2  A    between atoms: C_4  and  C_37
    3  A    between atoms: S_8  and  C_12
    4  A    between atoms: C_23  and  C_30
                            x       y       z     vdW  Elec       q    Type
                         _______ _______ _______ _____ _____    ______ ____

>  <TORSDO>
F 4

$$$$
=
 OpenBabel11122411433D

 37 44  0  0  1  0  0  0  0  0999 V2000
  185.6800  179.2100  145.4470 C   0  0  0  0  0  0  0  0  0  0  0  0
  186.8180  177.4810  142.3340 C   0  0  1  0  0  3  0  0  0  0  0  0
  189.6470  175.8240  142.4480 O   0  0  0  0  0  0  0  0  0  0  0  0
  184.6780  178.1110  143.6750 C   0  0  2  0  0  3  0  0  0  0  0  0
  188.1780  177.6290  142.9710 C   0  0  2  0  0  3  0  0  0  0  0  0
  185.9420  177.2510  143.5650 C   0  0  2  0  0  3  0  0  0  0  0  0
  189.3460  177.1510  142.1140 C   0  0  2  0  0  3  0  0  0  0  0  0
  184.0720  178.2890  142.2920 C   0  0  0  0  0  2  0  0  0  0  0  0
  186.8090  177.3440  144.7510 N   0  0  2  0  0  0  0  0  0  0  0  0
  184.9410  178.4050  146.5230 C   0  0  0  0  0  1  0  0  0  0  0  0
  187.1030  178.6130  140.1750 N   0  0  0  0  0  2  0  0  0  0  0  0
  185.0080  179.0450  141.3430 C   0  0  0  0  0  2  0  0  0  0  0  0
  186.9450  178.6640  145.1220 O   0  0  0  0  0  0  0  0  0  0  0  0
  191.3570  177.0240  143.9220 C   0  0  0  0  0  2  0  0  0  0  0  0
  190.7480  175.7460  143.3480 C   0  0  1  0  0  3  0  0  0  0  0  0
  186.5070  178.7380  141.5050 C   0  0  1  0  0  3  0  0  0  0  0  0
  188.0570  176.9050  144.2360 N   0  0  2  0  0  0  0  0  0  0  0  0
  184.9090  179.3670  144.2740 O   0  0  0  0  0  0  0  0  0  0  0  0
  189.1550  177.3340  140.6000 C   0  0  1  0  0  3  0  0  0  0  0  0
  185.9180  180.5890  146.0230 C   0  0  0  0  0  1  0  0  0  0  0  0
  190.4030  176.2110  144.7820 C   0  0  2  0  0  3  0  0  0  0  0  0
  189.2130  177.1480  145.1270 C   0  0  2  0  0  3  0  0  0  0  0  0
  188.5590  178.7040  140.2600 C   0  0  0  0  0  2  0  0  0  0  0  0
  190.4310  176.5650  138.5940 C   0  0  0  0  0  3  0  0  0  0  0  0
  190.4490  177.1290  139.8740 C   0  0  0  0  0  0  0  0  0  0  0  0
  191.6750  177.4830  140.4580 C   0  0  0  0  0  3  0  0  0  0  0  0
  194.0510  177.6170  140.3330 F   0  0  0  0  0  0  0  0  0  0  0  0
  192.8460  176.7110  138.4860 C   0  0  0  0  0  3  0  0  0  0  0  0
  192.8700  177.2740  139.7650 C   0  0  0  0  0  0  0  0  0  0  0  0
  191.6270  176.3560  137.9010 C   0  0  0  0  0  3  0  0  0  0  0  0
  188.8700  176.8520  146.6020 C   0  0  1  0  0  3  0  0  0  0  0  0
  190.0880  176.6310  147.5210 C   0  0  2  0  0  3  0  0  0  0  0  0
  189.3450  177.9470  147.5400 C   0  0  2  0  0  3  0  0  0  0  0  0
  188.2820  177.9850  149.0080 S   0  0  0  0  0  0  0  0  0  0  0  0
  187.4260  176.4670  148.5060 C   0  0  0  0  0  1  0  0  0  0  0  0
  192.4450  175.8640  147.4330 C   0  0  0  0  0  1  0  0  0  0  0  0
  191.4550  176.8770  146.8960 C   0  0  0  0  0  2  0  0  0  0  0  0
  1 20  1  0  0  0  0
  1 10  1  0  0  0  0
  2  5  1  0  0  0  0
  2  6  1  0  0  0  0
  3 15  1  0  0  0  0
  4 18  1  0  0  0  0
  5 17  1  0  0  0  0
  6  4  1  0  0  0  0
  6  9  1  0  0  0  0
  7  3  1  0  0  0  0
  7  5  1  0  0  0  0
  8  4  1  0  0  0  0
  9 13  1  0  0  0  0
 11 23  1  0  0  0  0
 11 16  1  0  0  0  0
 12 16  1  0  0  0  0
 12  8  1  0  0  0  0
 13  1  1  0  0  0  0
 14 21  1  0  0  0  0
 15 14  1  0  0  0  0
 15 21  1  0  0  0  0
 16  2  1  0  0  0  0
 17  9  1  0  0  0  0
 17 22  1  0  0  0  0
 18  1  1  0  0  0  0
 19  7  1  0  0  0  0
 21 22  1  0  0  0  0
 22 31  1  0  0  0  0
 23 19  1  0  0  0  0
 24 25  1  0  0  0  0
 25 26  2  0  0  0  0
 25 19  1  0  0  0  0
 28 29  2  0  0  0  0
 29 27  1  0  0  0  0
 29 26  1  0  0  0  0
 30 28  1  0  0  0  0
 30 24  2  0  0  0  0
 31 32  1  0  0  0  0
 31 33  1  0  0  0  0
 32 33  1  0  0  0  0
 33 34  1  0  0  0  0
 35 34  1  0  0  0  0
 37 36  1  0  0  0  0
 37 32  1  0  0  0  0
M  END
>  <MODEL>
7

>  <REMARK>
 VINA RESULT:      -5.9      4.369      8.098
  Name = 
  4 active torsions:
  status: ('A' for Active; 'I' for Inactive)
    1  A    between atoms: C_1  and  C_27
    2  A    between atoms: C_4  and  C_37
    3  A    between atoms: S_8  and  C_12
    4  A    between atoms: C_23  and  C_30
                            x       y       z     vdW  Elec       q    Type
                         _______ _______ _______ _____ _____    ______ ____

>  <TORSDO>
F 4

$$$$
=
 OpenBabel11122411433D

 37 44  0  0  1  0  0  0  0  0999 V2000
  190.3700  176.3170  142.3690 C   0  0  0  0  0  0  0  0  0  0  0  0
  188.2450  178.2260  139.9580 C   0  0  1  0  0  3  0  0  0  0  0  0
  185.5790  179.7380  141.1290 O   0  0  0  0  0  0  0  0  0  0  0  0
  190.7170  177.5950  140.4720 C   0  0  2  0  0  3  0  0  0  0  0  0
  187.1710  177.9670  140.9860 C   0  0  2  0  0  3  0  0  0  0  0  0
  189.4710  178.4010  140.8530 C   0  0  2  0  0  3  0  0  0  0  0  0
  185.7780  178.4550  140.6010 C   0  0  2  0  0  3  0  0  0  0  0  0
  190.8410  177.5510  138.9570 C   0  0  0  0  0  2  0  0  0  0  0  0
  189.0420  178.1780  142.2440 N   0  0  2  0  0  0  0  0  0  0  0  0
  191.4050  177.0710  143.2140 C   0  0  0  0  0  1  0  0  0  0  0  0
  187.2900  177.2510  137.9180 N   0  0  0  0  0  2  0  0  0  0  0  0
  189.6600  176.8280  138.3010 C   0  0  0  0  0  2  0  0  0  0  0  0
  189.0590  176.8280  142.5220 O   0  0  0  0  0  0  0  0  0  0  0  0
  184.4670  178.3510  142.9660 C   0  0  0  0  0  2  0  0  0  0  0  0
  184.8310  179.6960  142.3400 C   0  0  1  0  0  3  0  0  0  0  0  0
  188.2910  177.0520  138.9670 C   0  0  1  0  0  3  0  0  0  0  0  0
  187.6860  178.5970  142.2020 N   0  0  2  0  0  0  0  0  0  0  0  0
  190.7170  176.2860  141.0010 O   0  0  0  0  0  0  0  0  0  0  0  0
  185.4660  178.3990  139.0960 C   0  0  1  0  0  3  0  0  0  0  0  0
  190.3590  174.8890  142.8680 C   0  0  0  0  0  1  0  0  0  0  0  0
  185.6350  179.1380  143.5390 C   0  0  2  0  0  3  0  0  0  0  0  0
  186.8890  178.2330  143.3950 C   0  0  2  0  0  3  0  0  0  0  0  0
  185.9440  177.0880  138.4630 C   0  0  0  0  0  2  0  0  0  0  0  0
  183.1660  177.4810  138.7690 C   0  0  0  0  0  3  0  0  0  0  0  0
  184.0030  178.5980  138.8500 C   0  0  0  0  0  0  0  0  0  0  0  0
  183.4610  179.8830  138.6870 C   0  0  0  0  0  3  0  0  0  0  0  0
  181.5760  181.2860  138.2930 F   0  0  0  0  0  0  0  0  0  0  0  0
  181.2620  178.9230  138.3710 C   0  0  0  0  0  3  0  0  0  0  0  0
  182.0940  180.0440  138.4490 C   0  0  0  0  0  0  0  0  0  0  0  0
  181.7980  177.6420  138.5310 C   0  0  0  0  0  3  0  0  0  0  0  0
  187.6900  178.4300  144.7000 C   0  0  1  0  0  3  0  0  0  0  0  0
  186.9190  178.1000  145.9920 C   0  0  2  0  0  3  0  0  0  0  0  0
  187.9310  177.1250  145.4360 C   0  0  2  0  0  3  0  0  0  0  0  0
  189.4530  177.2580  146.4130 S   0  0  0  0  0  0  0  0  0  0  0  0
  188.5260  177.2820  147.9720 C   0  0  0  0  0  1  0  0  0  0  0  0
  184.5460  178.2070  146.7060 C   0  0  0  0  0  1  0  0  0  0  0  0
  185.5360  177.4890  145.8120 C   0  0  0  0  0  2  0  0  0  0  0  0
  1 13  1  0  0  0  0
  1 20  1  0  0  0  0
  1 10  1  0  0  0  0
  2  6  1  0  0  0  0
  2  5  1  0  0  0  0
  3 15  1  0  0  0  0
  4  6  1  0  0  0  0
  4 18  1  0  0  0  0
  5 17  1  0  0  0  0
  6  9  1  0  0  0  0
  7  5  1  0  0  0  0
  7  3  1  0  0  0  0
  8  4  1  0  0  0  0
  9 13  1  0  0  0  0
 11 23  1  0  0  0  0
 11 16  1  0  0  0  0
 12  8  1  0  0  0  0
 12 16  1  0  0  0  0
 14 21  1  0  0  0  0
 15 14  1  0  0  0  0
 15 21  1  0  0  0  0
 16  2  1  0  0  0  0
 17  9  1  0  0  0  0
 17 22  1  0  0  0  0
 18  1  1  0  0  0  0
 19  7  1  0  0  0  0
 22 21  1  0  0  0  0
 22 31  1  0  0  0  0
 23 19  1  0  0  0  0
 24 25  1  0  0  0  0
 25 19  1  0  0  0  0
 26 25  2  0  0  0  0
 27 29  1  0  0  0  0
 28 29  2  0  0  0  0
 28 30  1  0  0  0  0
 29 26  1  0  0  0  0
 30 24  2  0  0  0  0
 31 33  1  0  0  0  0
 31 32  1  0  0  0  0
 33 32  1  0  0  0  0
 33 34  1  0  0  0  0
 34 35  1  0  0  0  0
 37 32  1  0  0  0  0
 37 36  1  0  0  0  0
M  END
>  <MODEL>
8

>  <REMARK>
 VINA RESULT:      -5.8      2.416      3.914
  Name = 
  4 active torsions:
  status: ('A' for Active; 'I' for Inactive)
    1  A    between atoms: C_1  and  C_27
    2  A    between atoms: C_4  and  C_37
    3  A    between atoms: S_8  and  C_12
    4  A    between atoms: C_23  and  C_30
                            x       y       z     vdW  Elec       q    Type
                         _______ _______ _______ _____ _____    ______ ____

>  <TORSDO>
F 4

$$$$
=
 OpenBabel11122411433D

 37 44  0  0  1  0  0  0  0  0999 V2000
  188.7140  178.6520  138.1290 C   0  0  0  0  0  0  0  0  0  0  0  0
  190.2240  176.6770  140.9200 C   0  0  1  0  0  3  0  0  0  0  0  0
  188.4320  176.2380  143.6320 O   0  0  0  0  0  0  0  0  0  0  0  0
  190.1310  176.8340  138.3230 C   0  0  2  0  0  3  0  0  0  0  0  0
  189.2500  177.4670  141.7590 C   0  0  2  0  0  3  0  0  0  0  0  0
  189.4180  176.4880  139.6350 C   0  0  2  0  0  3  0  0  0  0  0  0
  189.3520  177.2280  143.2610 C   0  0  2  0  0  3  0  0  0  0  0  0
  191.5870  176.4040  138.4170 C   0  0  0  0  0  2  0  0  0  0  0  0
  188.1410  177.2000  139.8030 N   0  0  2  0  0  0  0  0  0  0  0  0
  187.7570  177.9560  137.1510 C   0  0  0  0  0  1  0  0  0  0  0  0
  192.3870  177.2110  141.9500 N   0  0  0  0  0  2  0  0  0  0  0  0
  192.3430  177.1610  139.5140 C   0  0  0  0  0  2  0  0  0  0  0  0
  188.3060  178.5290  139.4780 O   0  0  0  0  0  0  0  0  0  0  0  0
  187.0460  178.3200  144.1660 C   0  0  0  0  0  2  0  0  0  0  0  0
  187.2410  176.8050  144.1710 C   0  0  1  0  0  3  0  0  0  0  0  0
  191.5360  177.4660  140.7870 C   0  0  1  0  0  3  0  0  0  0  0  0
  187.9420  177.1160  141.2070 N   0  0  2  0  0  0  0  0  0  0  0  0
  190.0440  178.2010  137.9860 O   0  0  0  0  0  0  0  0  0  0  0  0
  190.7680  176.9160  143.7730 C   0  0  1  0  0  3  0  0  0  0  0  0
  188.6930  180.1250  137.7830 C   0  0  0  0  0  1  0  0  0  0  0  0
  186.3470  177.4830  143.1060 C   0  0  2  0  0  3  0  0  0  0  0  0
  186.8670  177.9870  141.7320 C   0  0  2  0  0  3  0  0  0  0  0  0
  191.8190  177.8360  143.1420 C   0  0  0  0  0  2  0  0  0  0  0  0
  191.8020  176.2760  145.9550 C   0  0  0  0  0  3  0  0  0  0  0  0
  190.8240  177.0010  145.2670 C   0  0  0  0  0  0  0  0  0  0  0  0
  189.9070  177.7850  145.9850 C   0  0  0  0  0  3  0  0  0  0  0  0
  189.0860  178.5980  148.0690 F   0  0  0  0  0  0  0  0  0  0  0  0
  190.9540  177.1150  148.0620 C   0  0  0  0  0  3  0  0  0  0  0  0
  189.9730  177.8410  147.3800 C   0  0  0  0  0  0  0  0  0  0  0  0
  191.8680  176.3330  147.3510 C   0  0  0  0  0  3  0  0  0  0  0  0
  185.6330  177.9960  140.8040 C   0  0  1  0  0  3  0  0  0  0  0  0
  184.3550  178.5900  141.4280 C   0  0  2  0  0  3  0  0  0  0  0  0
  185.1790  179.4020  140.4560 C   0  0  2  0  0  3  0  0  0  0  0  0
  184.3490  179.3830  138.8440 S   0  0  0  0  0  0  0  0  0  0  0  0
  182.7080  179.4050  139.6160 C   0  0  0  0  0  1  0  0  0  0  0  0
  183.2080  179.0820  143.5710 C   0  0  0  0  0  1  0  0  0  0  0  0
  184.5090  179.2170  142.8070 C   0  0  0  0  0  2  0  0  0  0  0  0
  1 13  1  0  0  0  0
  2  5  1  0  0  0  0
  3 15  1  0  0  0  0
  4  8  1  0  0  0  0
  4  6  1  0  0  0  0
  5  7  1  0  0  0  0
  6  9  1  0  0  0  0
  6  2  1  0  0  0  0
  7  3  1  0  0  0  0
  7 19  1  0  0  0  0
  8 12  1  0  0  0  0
  9 17  1  0  0  0  0
 10  1  1  0  0  0  0
 11 23  1  0  0  0  0
 12 16  1  0  0  0  0
 13  9  1  0  0  0  0
 14 15  1  0  0  0  0
 16  2  1  0  0  0  0
 16 11  1  0  0  0  0
 17 22  1  0  0  0  0
 17  5  1  0  0  0  0
 18  1  1  0  0  0  0
 18  4  1  0  0  0  0
 19 25  1  0  0  0  0
 20  1  1  0  0  0  0
 21 14  1  0  0  0  0
 21 15  1  0  0  0  0
 22 21  1  0  0  0  0
 23 19  1  0  0  0  0
 24 30  1  0  0  0  0
 25 24  2  0  0  0  0
 25 26  1  0  0  0  0
 26 29  2  0  0  0  0
 29 28  1  0  0  0  0
 29 27  1  0  0  0  0
 30 28  2  0  0  0  0
 31 32  1  0  0  0  0
 31 22  1  0  0  0  0
 32 37  1  0  0  0  0
 33 31  1  0  0  0  0
 33 32  1  0  0  0  0
 34 35  1  0  0  0  0
 34 33  1  0  0  0  0
 37 36  1  0  0  0  0
M  END
>  <MODEL>
9

>  <REMARK>
 VINA RESULT:      -5.8      3.410      7.329
  Name = 
  4 active torsions:
  status: ('A' for Active; 'I' for Inactive)
    1  A    between atoms: C_1  and  C_27
    2  A    between atoms: C_4  and  C_37
    3  A    between atoms: S_8  and  C_12
    4  A    between atoms: C_23  and  C_30
                            x       y       z     vdW  Elec       q    Type
                         _______ _______ _______ _____ _____    ______ ____

>  <TORSDO>
F 4

$$$$
