=
 OpenBabel11122410543D

 31 35  0  0  1  0  0  0  0  0999 V2000
  186.0610  178.6320  139.3840 C   0  0  0  0  0  0  0  0  0  0  0  0
  189.4240  177.5230  140.6720 N   0  0  0  0  0  0  0  0  0  0  0  0
  189.3940  178.0150  142.0670 C   0  0  1  0  0  3  0  0  0  0  0  0
  188.1080  177.5500  144.0770 C   0  0  0  0  0  0  0  0  0  0  0  0
  188.2970  177.7570  139.7930 C   0  0  0  0  0  0  0  0  0  0  0  0
  186.0840  178.1010  138.0930 C   0  0  0  0  0  3  0  0  0  0  0  0
  188.1770  177.5960  142.7760 N   0  0  0  0  0  0  0  0  0  0  0  0
  190.7830  176.7350  138.6280 C   0  0  1  0  0  3  0  0  0  0  0  0
  184.9690  179.3040  139.8210 F   0  0  0  0  0  0  0  0  0  0  0  0
  191.7240  177.1870  142.3030 C   0  0  0  0  0  3  0  0  0  0  0  0
  186.8200  177.2060  144.7330 C   0  0  0  0  0  1  0  0  0  0  0  0
  189.4770  176.5820  137.9970 N   0  0  0  0  0  2  0  0  0  0  0  0
  190.6630  177.0180  140.1060 C   0  0  0  0  0  0  0  0  0  0  0  0
  187.1590  178.4570  140.2290 C   0  0  0  0  0  3  0  0  0  0  0  0
  189.3190  177.7420  144.9050 C   0  0  0  0  0  3  0  0  0  0  0  0
  188.3200  177.2580  138.4800 C   0  0  0  0  0  0  0  0  0  0  0  0
  187.2130  177.4150  137.6410 C   0  0  0  0  0  3  0  0  0  0  0  0
  191.7590  176.9110  140.8660 C   0  0  0  0  0  3  0  0  0  0  0  0
  190.6180  177.6480  142.8740 C   0  0  0  0  0  0  0  0  0  0  0  0
  190.5260  177.7710  144.3340 C   0  0  0  0  0  3  0  0  0  0  0  0
  193.4340  176.6720  137.5560 O   0  0  0  0  0  0  0  0  0  0  0  0
  192.8980  175.5700  137.8500 C   0  0  0  0  0  0  0  0  0  0  0  0
  191.5750  175.5350  138.3930 N   0  0  0  0  0  2  0  0  0  0  0  0
  196.3070  174.8180  136.8370 C   0  0  1  0  0  3  0  0  0  0  0  0
  194.9100  174.2310  138.5270 C   0  0  0  0  0  2  0  0  0  0  0  0
  192.9530  174.2620  135.3080 C   0  0  0  0  0  1  0  0  0  0  0  0
  197.4020  175.6820  136.4390 N   0  0  0  0  0  1  0  0  0  0  0  0
  195.8640  175.1860  138.1210 O   0  0  0  0  0  0  0  0  0  0  0  0
  194.0700  174.0590  136.2210 N   0  0  0  0  0  0  0  0  0  0  0  0
  193.6690  174.2930  137.6240 C   0  0  2  0  0  3  0  0  0  0  0  0
  195.1620  174.9530  135.8320 C   0  0  0  0  0  2  0  0  0  0  0  0
  1  9  1  0  0  0  0
  1 14  1  0  0  0  0
  2  3  1  0  0  0  0
  3  7  1  1  0  0  0
  3 19  1  0  0  0  0
  4 11  1  0  0  0  0
  4 15  1  0  0  0  0
  5 14  2  0  0  0  0
  5  2  1  0  0  0  0
  6  1  2  0  0  0  0
  7  4  2  0  0  0  0
  8 23  1  1  0  0  0
  8 13  1  0  0  0  0
 10 19  2  0  0  0  0
 12 16  1  0  0  0  0
 12  8  1  0  0  0  0
 13  2  1  0  0  0  0
 13 18  2  0  0  0  0
 16  5  1  0  0  0  0
 17  6  1  0  0  0  0
 17 16  2  0  0  0  0
 18 10  1  0  0  0  0
 19 20  1  0  0  0  0
 20 15  2  0  0  0  0
 21 22  2  0  0  0  0
 22 23  1  0  0  0  0
 24 27  1  6  0  0  0
 24 28  1  0  0  0  0
 26 29  1  0  0  0  0
 28 25  1  0  0  0  0
 29 30  1  0  0  0  0
 30 22  1  6  0  0  0
 30 25  1  0  0  0  0
 31 29  1  0  0  0  0
 31 24  1  0  0  0  0
M  END
>  <MODEL>
1

>  <REMARK>
 VINA RESULT:      -9.0      0.000      0.000
  Name = 
  2 active torsions:
  status: ('A' for Active; 'I' for Inactive)
    1  A    between atoms: C_5  and  C_30
    2  A    between atoms: C_10  and  N_16
                            x       y       z     vdW  Elec       q    Type
                         _______ _______ _______ _____ _____    ______ ____

>  <TORSDO>
F 2

$$$$
=
 OpenBabel11122410543D

 31 35  0  0  1  0  0  0  0  0999 V2000
  190.5000  176.6770  146.7240 C   0  0  0  0  0  0  0  0  0  0  0  0
  188.0200  177.4600  143.9970 N   0  0  0  0  0  0  0  0  0  0  0  0
  186.7640  177.6200  144.7630 C   0  0  0  0  0  0  0  0  0  0  0  0
  185.9010  179.1570  146.4370 C   0  0  0  0  0  0  0  0  0  0  0  0
  189.2530  177.1310  144.6810 C   0  0  0  0  0  0  0  0  0  0  0  0
  191.6850  176.5970  145.9900 C   0  0  0  0  0  3  0  0  0  0  0  0
  186.9170  178.5530  145.8880 N   0  0  0  0  0  0  0  0  0  0  0  0
  189.2060  176.9970  141.7550 C   0  0  1  0  0  3  0  0  0  0  0  0
  190.5230  176.5080  148.0680 F   0  0  0  0  0  0  0  0  0  0  0  0
  185.5990  177.9390  142.5930 C   0  0  0  0  0  3  0  0  0  0  0  0
  186.1130  180.0170  147.6290 C   0  0  0  0  0  1  0  0  0  0  0  0
  190.4300  177.1510  142.5330 N   0  0  0  0  0  2  0  0  0  0  0  0
  187.9830  177.3960  142.5460 C   0  0  0  0  0  0  0  0  0  0  0  0
  189.2940  176.9460  146.0740 C   0  0  0  0  0  3  0  0  0  0  0  0
  184.5540  179.0700  145.8310 C   0  0  0  0  0  3  0  0  0  0  0  0
  190.4480  177.0130  143.9510 C   0  0  0  0  0  0  0  0  0  0  0  0
  191.6580  176.7640  144.6040 C   0  0  0  0  0  3  0  0  0  0  0  0
  186.8300  177.5700  141.8920 C   0  0  0  0  0  3  0  0  0  0  0  0
  185.5760  178.0150  143.9180 C   0  0  0  0  0  0  0  0  0  0  0  0
  184.3960  178.5410  144.6150 C   0  0  0  0  0  2  0  0  0  0  0  0
  190.2590  176.0660  139.2630 O   0  0  0  0  0  0  0  0  0  0  0  0
  189.8510  177.2570  139.3160 C   0  0  0  0  0  0  0  0  0  0  0  0
  189.3100  177.7820  140.5320 N   0  0  0  0  0  2  0  0  0  0  0  0
  187.5320  178.0950  136.6460 C   0  0  1  0  0  3  0  0  0  0  0  0
  188.8640  179.2180  138.0990 C   0  0  0  0  0  2  0  0  0  0  0  0
  190.7530  176.2260  136.8060 C   0  0  0  0  0  1  0  0  0  0  0  0
  186.1810  177.6400  136.3700 N   0  0  0  0  0  1  0  0  0  0  0  0
  187.5820  178.6580  137.9340 O   0  0  0  0  0  0  0  0  0  0  0  0
  189.8590  177.3760  136.8060 N   0  0  0  0  0  0  0  0  0  0  0  0
  189.9380  178.1200  138.0810 C   0  0  2  0  0  3  0  0  0  0  0  0
  188.4950  176.9090  136.5560 C   0  0  0  0  0  2  0  0  0  0  0  0
  1  9  1  0  0  0  0
  2  5  1  0  0  0  0
  2  3  1  0  0  0  0
  3  7  2  0  0  0  0
  4 11  1  0  0  0  0
  5 14  2  0  0  0  0
  6  1  2  0  0  0  0
  7  4  1  0  0  0  0
  8 23  1  6  0  0  0
  8 12  1  0  0  0  0
  8 13  1  0  0  0  0
 10 19  2  0  0  0  0
 12 16  1  0  0  0  0
 13  2  1  0  0  0  0
 14  1  1  0  0  0  0
 15  4  2  0  0  0  0
 16 17  2  0  0  0  0
 16  5  1  0  0  0  0
 17  6  1  0  0  0  0
 18 13  2  0  0  0  0
 18 10  1  0  0  0  0
 19 20  1  0  0  0  0
 19  3  1  0  0  0  0
 20 15  1  0  0  0  0
 21 22  2  0  0  0  0
 22 23  1  0  0  0  0
 24 27  1  1  0  0  0
 24 28  1  0  0  0  0
 28 25  1  0  0  0  0
 29 26  1  0  0  0  0
 29 30  1  0  0  0  0
 30 25  1  0  0  0  0
 30 22  1  1  0  0  0
 31 24  1  0  0  0  0
 31 29  1  0  0  0  0
M  END
>  <MODEL>
2

>  <REMARK>
 VINA RESULT:      -8.9      3.623      6.325
  Name = 
  2 active torsions:
  status: ('A' for Active; 'I' for Inactive)
    1  A    between atoms: C_5  and  C_30
    2  A    between atoms: C_10  and  N_16
                            x       y       z     vdW  Elec       q    Type
                         _______ _______ _______ _____ _____    ______ ____

>  <TORSDO>
F 2

$$$$
=
 OpenBabel11122410543D

 31 35  0  0  1  0  0  0  0  0999 V2000
  186.7620  178.1880  146.2530 C   0  0  0  0  0  0  0  0  0  0  0  0
  186.6890  178.2000  142.4860 N   0  0  0  0  0  0  0  0  0  0  0  0
  188.1270  178.0880  142.1520 C   0  0  0  0  0  0  0  0  0  0  0  0
  189.8810  176.4300  142.4380 C   0  0  0  0  0  0  0  0  0  0  0  0
  186.2640  178.2440  143.8690 C   0  0  0  0  0  0  0  0  0  0  0  0
  185.3970  178.2260  146.5450 C   0  0  0  0  0  3  0  0  0  0  0  0
  188.7730  176.9720  142.8570 N   0  0  0  0  0  0  0  0  0  0  0  0
  184.2960  178.8570  141.7880 C   0  0  1  0  0  3  0  0  0  0  0  0
  187.6680  178.1320  147.2590 F   0  0  0  0  0  0  0  0  0  0  0  0
  187.4840  178.2860  139.7620 C   0  0  0  0  0  3  0  0  0  0  0  0
  190.5320  175.3670  143.2450 C   0  0  0  0  0  1  0  0  0  0  0  0
  183.9360  178.4150  143.1300 N   0  0  0  0  0  2  0  0  0  0  0  0
  185.7230  178.5030  141.4440 C   0  0  0  0  0  0  0  0  0  0  0  0
  187.1910  178.1930  144.9240 C   0  0  0  0  0  3  0  0  0  0  0  0
  190.4490  176.7950  141.1200 C   0  0  0  0  0  3  0  0  0  0  0  0
  184.8950  178.3170  144.1780 C   0  0  0  0  0  0  0  0  0  0  0  0
  184.4650  178.2920  145.5080 C   0  0  0  0  0  3  0  0  0  0  0  0
  186.1120  178.5950  140.1680 C   0  0  0  0  0  3  0  0  0  0  0  0
  188.4080  177.9990  140.6710 C   0  0  0  0  0  0  0  0  0  0  0  0
  189.7370  177.5310  140.2620 C   0  0  0  0  0  2  0  0  0  0  0  0
  181.4860  179.3760  141.6520 O   0  0  0  0  0  0  0  0  0  0  0  0
  181.9720  178.5740  140.8110 C   0  0  0  0  0  0  0  0  0  0  0  0
  183.3720  178.2750  140.8240 N   0  0  0  0  0  2  0  0  0  0  0  0
  182.3990  175.9550  138.3270 C   0  0  1  0  0  3  0  0  0  0  0  0
  180.9580  176.4190  140.0180 C   0  0  0  0  0  2  0  0  0  0  0  0
  181.6990  179.6120  138.1620 C   0  0  0  0  0  1  0  0  0  0  0  0
  183.5670  175.1910  137.9290 N   0  0  0  0  0  1  0  0  0  0  0  0
  182.1790  175.7880  139.7080 O   0  0  0  0  0  0  0  0  0  0  0  0
  181.4370  178.1970  138.3860 N   0  0  0  0  0  0  0  0  0  0  0  0
  181.0620  177.9350  139.7920 C   0  0  2  0  0  3  0  0  0  0  0  0
  182.6270  177.4340  138.0100 C   0  0  0  0  0  2  0  0  0  0  0  0
  1  6  1  0  0  0  0
  1  9  1  0  0  0  0
  2  5  1  0  0  0  0
  3  2  1  0  0  0  0
  3  7  2  0  0  0  0
  4  7  1  0  0  0  0
  4 11  1  0  0  0  0
  5 16  2  0  0  0  0
  5 14  1  0  0  0  0
  8 23  1  6  0  0  0
  8 12  1  0  0  0  0
 10 18  1  0  0  0  0
 10 19  2  0  0  0  0
 12 16  1  0  0  0  0
 13  8  1  0  0  0  0
 13  2  1  0  0  0  0
 14  1  2  0  0  0  0
 15  4  2  0  0  0  0
 16 17  1  0  0  0  0
 17  6  2  0  0  0  0
 18 13  2  0  0  0  0
 19  3  1  0  0  0  0
 20 19  1  0  0  0  0
 20 15  1  0  0  0  0
 22 23  1  0  0  0  0
 22 21  2  0  0  0  0
 24 27  1  1  0  0  0
 24 28  1  0  0  0  0
 26 29  1  0  0  0  0
 28 25  1  0  0  0  0
 29 30  1  0  0  0  0
 30 25  1  0  0  0  0
 30 22  1  1  0  0  0
 31 24  1  0  0  0  0
 31 29  1  0  0  0  0
M  END
>  <MODEL>
3

>  <REMARK>
 VINA RESULT:      -8.6      5.458      8.961
  Name = 
  2 active torsions:
  status: ('A' for Active; 'I' for Inactive)
    1  A    between atoms: C_5  and  C_30
    2  A    between atoms: C_10  and  N_16
                            x       y       z     vdW  Elec       q    Type
                         _______ _______ _______ _____ _____    ______ ____

>  <TORSDO>
F 2

$$$$
=
 OpenBabel11122410543D

 31 35  0  0  1  0  0  0  0  0999 V2000
  188.5160  178.0100  147.5560 C   0  0  0  0  0  0  0  0  0  0  0  0
  188.1280  177.8850  143.8100 N   0  0  0  0  0  0  0  0  0  0  0  0
  189.5330  177.7700  143.3610 C   0  0  0  0  0  0  0  0  0  0  0  0
  191.3210  176.1350  143.5560 C   0  0  0  0  0  0  0  0  0  0  0  0
  187.8200  177.9770  145.2220 C   0  0  0  0  0  0  0  0  0  0  0  0
  187.1800  178.0500  147.9600 C   0  0  0  0  0  3  0  0  0  0  0  0
  190.2470  176.6850  144.0480 N   0  0  0  0  0  0  0  0  0  0  0  0
  185.6780  178.5010  143.2930 C   0  0  1  0  0  3  0  0  0  0  0  0
  189.5040  177.9970  148.4830 F   0  0  0  0  0  0  0  0  0  0  0  0
  188.6900  177.8770  141.0270 C   0  0  0  0  0  3  0  0  0  0  0  0
  192.0470  175.1070  144.3430 C   0  0  0  0  0  1  0  0  0  0  0  0
  185.4360  178.1060  144.6760 N   0  0  0  0  0  2  0  0  0  0  0  0
  187.0750  178.1440  142.8440 C   0  0  0  0  0  0  0  0  0  0  0  0
  188.8330  177.9700  146.1960 C   0  0  0  0  0  3  0  0  0  0  0  0
  191.7720  176.4550  142.1830 C   0  0  0  0  0  3  0  0  0  0  0  0
  186.4810  178.0520  145.6420 C   0  0  0  0  0  0  0  0  0  0  0  0
  186.1640  178.0720  147.0030 C   0  0  0  0  0  3  0  0  0  0  0  0
  187.3540  178.1910  141.5360 C   0  0  0  0  0  3  0  0  0  0  0  0
  189.6900  177.6300  141.8650 C   0  0  0  0  0  0  0  0  0  0  0  0
  190.9850  177.1560  141.3630 C   0  0  0  0  0  2  0  0  0  0  0  0
  184.3920  179.7460  141.0620 O   0  0  0  0  0  0  0  0  0  0  0  0
  184.0720  178.5580  141.3310 C   0  0  0  0  0  0  0  0  0  0  0  0
  184.6820  177.8780  142.4320 N   0  0  0  0  0  2  0  0  0  0  0  0
  181.9330  179.6110  138.5870 C   0  0  1  0  0  3  0  0  0  0  0  0
  183.4160  177.9400  138.9880 C   0  0  0  0  0  2  0  0  0  0  0  0
  181.3140  178.4440  142.0730 C   0  0  0  0  0  1  0  0  0  0  0  0
  181.7350  180.9090  137.9690 N   0  0  0  0  0  1  0  0  0  0  0  0
  183.2950  179.2630  138.5160 O   0  0  0  0  0  0  0  0  0  0  0  0
  181.6600  178.3530  140.6610 N   0  0  0  0  0  0  0  0  0  0  0  0
  183.0420  177.8620  140.4760 C   0  0  2  0  0  3  0  0  0  0  0  0
  181.4850  179.6700  140.0490 C   0  0  0  0  0  2  0  0  0  0  0  0
  1  6  1  0  0  0  0
  1  9  1  0  0  0  0
  2  5  1  0  0  0  0
  3  2  1  0  0  0  0
  3  7  2  0  0  0  0
  4  7  1  0  0  0  0
  4 11  1  0  0  0  0
  5 16  2  0  0  0  0
  5 14  1  0  0  0  0
  8 23  1  6  0  0  0
  8 12  1  0  0  0  0
 10 18  1  0  0  0  0
 10 19  2  0  0  0  0
 12 16  1  0  0  0  0
 13  8  1  0  0  0  0
 13  2  1  0  0  0  0
 14  1  2  0  0  0  0
 15  4  2  0  0  0  0
 16 17  1  0  0  0  0
 17  6  2  0  0  0  0
 18 13  2  0  0  0  0
 19  3  1  0  0  0  0
 20 19  1  0  0  0  0
 20 15  1  0  0  0  0
 21 22  2  0  0  0  0
 22 23  1  0  0  0  0
 24 27  1  1  0  0  0
 24 31  1  0  0  0  0
 25 30  1  0  0  0  0
 28 24  1  0  0  0  0
 28 25  1  0  0  0  0
 29 26  1  0  0  0  0
 30 29  1  0  0  0  0
 30 22  1  1  0  0  0
 31 29  1  0  0  0  0
M  END
>  <MODEL>
4

>  <REMARK>
 VINA RESULT:      -8.6      5.470      9.147
  Name = 
  2 active torsions:
  status: ('A' for Active; 'I' for Inactive)
    1  A    between atoms: C_5  and  C_30
    2  A    between atoms: C_10  and  N_16
                            x       y       z     vdW  Elec       q    Type
                         _______ _______ _______ _____ _____    ______ ____

>  <TORSDO>
F 2

$$$$
=
 OpenBabel11122410543D

 31 35  0  0  1  0  0  0  0  0999 V2000
  187.4580  178.0760  146.9060 C   0  0  0  0  0  0  0  0  0  0  0  0
  186.7780  178.2650  143.2050 N   0  0  0  0  0  0  0  0  0  0  0  0
  188.1360  178.1120  142.6370 C   0  0  0  0  0  0  0  0  0  0  0  0
  189.8350  176.3760  142.5660 C   0  0  0  0  0  0  0  0  0  0  0  0
  186.5850  178.2620  144.6400 C   0  0  0  0  0  0  0  0  0  0  0  0
  186.1610  178.1550  147.4180 C   0  0  0  0  0  3  0  0  0  0  0  0
  188.8350  176.9410  143.1820 N   0  0  0  0  0  0  0  0  0  0  0  0
  184.3360  179.0460  142.9340 C   0  0  1  0  0  3  0  0  0  0  0  0
  188.5110  177.9390  147.7470 F   0  0  0  0  0  0  0  0  0  0  0  0
  187.1250  178.4450  140.3930 C   0  0  0  0  0  3  0  0  0  0  0  0
  190.5580  175.2520  143.2150 C   0  0  0  0  0  1  0  0  0  0  0  0
  184.1770  178.5570  144.2990 N   0  0  0  0  0  2  0  0  0  0  0  0
  185.6710  178.6530  142.3480 C   0  0  0  0  0  0  0  0  0  0  0  0
  187.6670  178.1260  145.5260 C   0  0  0  0  0  3  0  0  0  0  0  0
  190.1980  176.7770  141.1890 C   0  0  0  0  0  3  0  0  0  0  0  0
  185.2890  178.3740  145.1710 C   0  0  0  0  0  0  0  0  0  0  0  0
  185.0780  178.3040  146.5510 C   0  0  0  0  0  3  0  0  0  0  0  0
  185.8520  178.7880  141.0300 C   0  0  0  0  0  3  0  0  0  0  0  0
  188.1690  178.0810  141.1270 C   0  0  0  0  0  0  0  0  0  0  0  0
  189.3920  177.5800  140.4880 C   0  0  0  0  0  2  0  0  0  0  0  0
  181.5800  179.7570  143.2180 O   0  0  0  0  0  0  0  0  0  0  0  0
  181.8800  178.9380  142.3080 C   0  0  0  0  0  0  0  0  0  0  0  0
  183.2420  178.5450  142.1120 N   0  0  0  0  0  2  0  0  0  0  0  0
  180.9310  179.4330  138.8350 C   0  0  1  0  0  3  0  0  0  0  0  0
  181.3770  177.6750  140.1980 C   0  0  0  0  0  2  0  0  0  0  0  0
  179.3130  180.1810  142.1090 C   0  0  0  0  0  1  0  0  0  0  0  0
  181.4600  180.3160  137.8120 N   0  0  0  0  0  1  0  0  0  0  0  0
  181.9640  178.6120  139.3240 O   0  0  0  0  0  0  0  0  0  0  0  0
  179.7870  179.3770  140.9900 N   0  0  0  0  0  0  0  0  0  0  0  0
  180.7880  178.3820  141.4290 C   0  0  2  0  0  3  0  0  0  0  0  0
  180.3450  180.2700  139.9740 C   0  0  0  0  0  2  0  0  0  0  0  0
  1  6  1  0  0  0  0
  1  9  1  0  0  0  0
  2  5  1  0  0  0  0
  3  7  2  0  0  0  0
  3  2  1  0  0  0  0
  4  7  1  0  0  0  0
  4 11  1  0  0  0  0
  5 16  2  0  0  0  0
  5 14  1  0  0  0  0
  8 23  1  6  0  0  0
  8 12  1  0  0  0  0
 10 18  1  0  0  0  0
 10 19  2  0  0  0  0
 12 16  1  0  0  0  0
 13  8  1  0  0  0  0
 13  2  1  0  0  0  0
 14  1  2  0  0  0  0
 15  4  2  0  0  0  0
 16 17  1  0  0  0  0
 17  6  2  0  0  0  0
 18 13  2  0  0  0  0
 19  3  1  0  0  0  0
 20 19  1  0  0  0  0
 20 15  1  0  0  0  0
 22 21  2  0  0  0  0
 23 22  1  0  0  0  0
 24 27  1  6  0  0  0
 24 28  1  0  0  0  0
 24 31  1  0  0  0  0
 25 30  1  0  0  0  0
 28 25  1  0  0  0  0
 29 30  1  0  0  0  0
 29 26  1  0  0  0  0
 30 22  1  6  0  0  0
 31 29  1  0  0  0  0
M  END
>  <MODEL>
5

>  <REMARK>
 VINA RESULT:      -8.4      5.683      9.987
  Name = 
  2 active torsions:
  status: ('A' for Active; 'I' for Inactive)
    1  A    between atoms: C_5  and  C_30
    2  A    between atoms: C_10  and  N_16
                            x       y       z     vdW  Elec       q    Type
                         _______ _______ _______ _____ _____    ______ ____

>  <TORSDO>
F 2

$$$$
=
 OpenBabel11122410543D

 31 35  0  0  1  0  0  0  0  0999 V2000
  186.6950  178.2610  146.1180 C   0  0  0  0  0  0  0  0  0  0  0  0
  186.7030  178.2410  142.3500 N   0  0  0  0  0  0  0  0  0  0  0  0
  188.1450  178.0990  142.0480 C   0  0  0  0  0  0  0  0  0  0  0  0
  189.8610  176.4110  142.3850 C   0  0  0  0  0  0  0  0  0  0  0  0
  186.2490  178.3050  143.7230 C   0  0  0  0  0  0  0  0  0  0  0  0
  185.3250  178.3270  146.3800 C   0  0  0  0  0  3  0  0  0  0  0  0
  188.7550  176.9780  142.7760 N   0  0  0  0  0  0  0  0  0  0  0  0
  184.3380  178.9360  141.5950 C   0  0  1  0  0  3  0  0  0  0  0  0
  187.5780  178.1970  147.1430 F   0  0  0  0  0  0  0  0  0  0  0  0
  187.5570  178.2880  139.6430 C   0  0  0  0  0  3  0  0  0  0  0  0
  190.4750  175.3440  143.2160 C   0  0  0  0  0  1  0  0  0  0  0  0
  183.9410  178.5130  142.9330 N   0  0  0  0  0  2  0  0  0  0  0  0
  185.7650  178.5520  141.2850 C   0  0  0  0  0  0  0  0  0  0  0  0
  187.1530  178.2460  144.7990 C   0  0  0  0  0  3  0  0  0  0  0  0
  190.4630  176.7530  141.0770 C   0  0  0  0  0  3  0  0  0  0  0  0
  184.8760  178.4060  144.0020 C   0  0  0  0  0  0  0  0  0  0  0  0
  184.4170  178.4010  145.3220 C   0  0  0  0  0  3  0  0  0  0  0  0
  186.1830  178.6250  140.0170 C   0  0  0  0  0  3  0  0  0  0  0  0
  188.4560  177.9920  140.5740 C   0  0  0  0  0  0  0  0  0  0  0  0
  189.7840  177.4950  140.1980 C   0  0  0  0  0  2  0  0  0  0  0  0
  183.2250  180.3120  139.3470 O   0  0  0  0  0  0  0  0  0  0  0  0
  182.8990  179.1070  139.5130 C   0  0  0  0  0  0  0  0  0  0  0  0
  183.4230  178.3620  140.6170 N   0  0  0  0  0  2  0  0  0  0  0  0
  179.7670  177.2920  139.8470 C   0  0  1  0  0  3  0  0  0  0  0  0
  180.5410  179.0600  138.6530 C   0  0  0  0  0  2  0  0  0  0  0  0
  183.1930  176.3850  138.6900 C   0  0  0  0  0  1  0  0  0  0  0  0
  179.0180  176.8780  141.0190 N   0  0  0  0  0  1  0  0  0  0  0  0
  179.9470  178.6870  139.8750 O   0  0  0  0  0  0  0  0  0  0  0  0
  181.8680  176.9880  138.6410 N   0  0  0  0  0  0  0  0  0  0  0  0
  181.9500  178.4600  138.5340 C   0  0  2  0  0  3  0  0  0  0  0  0
  181.1270  176.5910  139.8390 C   0  0  0  0  0  2  0  0  0  0  0  0
  1  6  1  0  0  0  0
  1  9  1  0  0  0  0
  2  5  1  0  0  0  0
  3  2  1  0  0  0  0
  3  7  2  0  0  0  0
  4  7  1  0  0  0  0
  4 11  1  0  0  0  0
  5 16  2  0  0  0  0
  5 14  1  0  0  0  0
  8 23  1  6  0  0  0
  8 12  1  0  0  0  0
 10 18  1  0  0  0  0
 10 19  2  0  0  0  0
 12 16  1  0  0  0  0
 13  8  1  0  0  0  0
 13  2  1  0  0  0  0
 14  1  2  0  0  0  0
 15  4  2  0  0  0  0
 16 17  1  0  0  0  0
 17  6  2  0  0  0  0
 18 13  2  0  0  0  0
 19  3  1  0  0  0  0
 20 19  1  0  0  0  0
 20 15  1  0  0  0  0
 21 22  2  0  0  0  0
 22 23  1  0  0  0  0
 24 28  1  0  0  0  0
 24 27  1  1  0  0  0
 25 28  1  0  0  0  0
 29 26  1  0  0  0  0
 29 31  1  0  0  0  0
 30 29  1  0  0  0  0
 30 25  1  0  0  0  0
 30 22  1  1  0  0  0
 31 24  1  0  0  0  0
M  END
>  <MODEL>
6

>  <REMARK>
 VINA RESULT:      -8.2      5.383      9.374
  Name = 
  2 active torsions:
  status: ('A' for Active; 'I' for Inactive)
    1  A    between atoms: C_5  and  C_30
    2  A    between atoms: C_10  and  N_16
                            x       y       z     vdW  Elec       q    Type
                         _______ _______ _______ _____ _____    ______ ____

>  <TORSDO>
F 2

$$$$
=
 OpenBabel11122410543D

 31 35  0  0  1  0  0  0  0  0999 V2000
  184.7880  179.2020  145.0370 C   0  0  0  0  0  0  0  0  0  0  0  0
  185.3630  178.5840  141.3650 N   0  0  0  0  0  0  0  0  0  0  0  0
  186.8400  178.6100  141.2780 C   0  0  0  0  0  0  0  0  0  0  0  0
  188.6820  177.2690  142.1250 C   0  0  0  0  0  0  0  0  0  0  0  0
  184.7050  178.7990  142.6360 C   0  0  0  0  0  0  0  0  0  0  0  0
  183.3970  179.1070  145.1070 C   0  0  0  0  0  3  0  0  0  0  0  0
  187.4680  177.7210  142.2650 N   0  0  0  0  0  0  0  0  0  0  0  0
  183.0700  178.7950  140.2050 C   0  0  1  0  0  3  0  0  0  0  0  0
  185.5100  179.4330  146.1600 F   0  0  0  0  0  0  0  0  0  0  0  0
  186.6000  178.3250  138.8230 C   0  0  0  0  0  3  0  0  0  0  0  0
  189.2910  176.4490  143.2030 C   0  0  0  0  0  1  0  0  0  0  0  0
  182.5320  178.5360  141.5360 N   0  0  0  0  0  2  0  0  0  0  0  0
  184.5640  178.5810  140.1520 C   0  0  0  0  0  0  0  0  0  0  0  0
  185.4370  179.0450  143.8100 C   0  0  0  0  0  3  0  0  0  0  0  0
  189.4260  177.4830  140.8630 C   0  0  0  0  0  3  0  0  0  0  0  0
  183.3030  178.7400  142.7160 C   0  0  0  0  0  0  0  0  0  0  0  0
  182.6550  178.8770  143.9470 C   0  0  0  0  0  3  0  0  0  0  0  0
  185.1550  178.5120  138.9540 C   0  0  0  0  0  3  0  0  0  0  0  0
  187.3790  178.3170  139.8980 C   0  0  0  0  0  0  0  0  0  0  0  0
  188.8000  177.9680  139.7880 C   0  0  0  0  0  2  0  0  0  0  0  0
  180.4890  179.2910  139.0760 O   0  0  0  0  0  0  0  0  0  0  0  0
  181.0940  178.2480  138.7110 C   0  0  0  0  0  0  0  0  0  0  0  0
  182.3900  177.9450  139.2370 N   0  0  0  0  0  2  0  0  0  0  0  0
  182.0660  175.1200  137.1360 C   0  0  1  0  0  3  0  0  0  0  0  0
  180.2800  175.9110  138.2910 C   0  0  0  0  0  2  0  0  0  0  0  0
  181.4330  178.5760  135.8910 C   0  0  0  0  0  1  0  0  0  0  0  0
  183.2910  174.3460  137.2130 N   0  0  0  0  0  1  0  0  0  0  0  0
  181.5380  175.2910  138.4290 O   0  0  0  0  0  0  0  0  0  0  0  0
  181.1220  177.2490  136.4060 N   0  0  0  0  0  0  0  0  0  0  0  0
  180.4370  177.3260  137.7140 C   0  0  2  0  0  3  0  0  0  0  0  0
  182.3640  176.4830  136.5090 C   0  0  0  0  0  2  0  0  0  0  0  0
  1  6  1  0  0  0  0
  1  9  1  0  0  0  0
  2  5  1  0  0  0  0
  3  2  1  0  0  0  0
  3  7  2  0  0  0  0
  4  7  1  0  0  0  0
  4 11  1  0  0  0  0
  5 16  2  0  0  0  0
  5 14  1  0  0  0  0
  8 23  1  6  0  0  0
  8 12  1  0  0  0  0
 10 18  1  0  0  0  0
 10 19  2  0  0  0  0
 12 16  1  0  0  0  0
 13  8  1  0  0  0  0
 13  2  1  0  0  0  0
 14  1  2  0  0  0  0
 15  4  2  0  0  0  0
 16 17  1  0  0  0  0
 17  6  2  0  0  0  0
 18 13  2  0  0  0  0
 19  3  1  0  0  0  0
 20 19  1  0  0  0  0
 20 15  1  0  0  0  0
 22 21  2  0  0  0  0
 22 23  1  0  0  0  0
 24 27  1  1  0  0  0
 24 28  1  0  0  0  0
 25 28  1  0  0  0  0
 26 29  1  0  0  0  0
 29 31  1  0  0  0  0
 29 30  1  0  0  0  0
 30 25  1  0  0  0  0
 30 22  1  1  0  0  0
 31 24  1  0  0  0  0
M  END
>  <MODEL>
7

>  <REMARK>
 VINA RESULT:      -7.9      5.781      9.086
  Name = 
  2 active torsions:
  status: ('A' for Active; 'I' for Inactive)
    1  A    between atoms: C_5  and  C_30
    2  A    between atoms: C_10  and  N_16
                            x       y       z     vdW  Elec       q    Type
                         _______ _______ _______ _____ _____    ______ ____

>  <TORSDO>
F 2

$$$$
=
 OpenBabel11122410543D

 31 35  0  0  1  0  0  0  0  0999 V2000
  185.4430  179.3320  141.9770 C   0  0  0  0  0  0  0  0  0  0  0  0
  188.9070  178.0770  141.1880 N   0  0  0  0  0  0  0  0  0  0  0  0
  189.6050  178.2740  142.4780 C   0  0  1  0  0  3  0  0  0  0  0  0
  189.4380  177.3750  144.7310 C   0  0  0  0  0  0  0  0  0  0  0  0
  187.5160  178.4540  141.0470 C   0  0  0  0  0  0  0  0  0  0  0  0
  184.7870  179.0750  140.7710 C   0  0  0  0  0  3  0  0  0  0  0  0
  188.8640  177.6870  143.6030 N   0  0  0  0  0  0  0  0  0  0  0  0
  189.0220  177.7590  138.6320 C   0  0  1  0  0  3  0  0  0  0  0  0
  184.7620  179.8710  143.0170 F   0  0  0  0  0  0  0  0  0  0  0  0
  191.6770  177.4800  141.3640 C   0  0  0  0  0  3  0  0  0  0  0  0
  188.6170  176.8700  145.8600 C   0  0  0  0  0  1  0  0  0  0  0  0
  187.5670  177.7020  138.7170 N   0  0  0  0  0  2  0  0  0  0  0  0
  189.6650  177.7310  139.9980 C   0  0  0  0  0  0  0  0  0  0  0  0
  186.7970  179.0190  142.1140 C   0  0  0  0  0  3  0  0  0  0  0  0
  190.9110  177.4280  144.8670 C   0  0  0  0  0  3  0  0  0  0  0  0
  186.8520  178.2330  139.8290 C   0  0  0  0  0  0  0  0  0  0  0  0
  185.4920  178.5270  139.6980 C   0  0  0  0  0  3  0  0  0  0  0  0
  190.9800  177.5020  140.0770 C   0  0  0  0  0  3  0  0  0  0  0  0
  191.0340  177.7850  142.4850 C   0  0  0  0  0  0  0  0  0  0  0  0
  191.6810  177.6060  143.7900 C   0  0  0  0  0  3  0  0  0  0  0  0
  189.4310  177.8390  135.8020 O   0  0  0  0  0  0  0  0  0  0  0  0
  189.6810  176.7570  136.3970 C   0  0  0  0  0  0  0  0  0  0  0  0
  189.5000  176.6530  137.8130 N   0  0  0  0  0  2  0  0  0  0  0  0
  188.8430  173.2210  136.3310 C   0  0  1  0  0  3  0  0  0  0  0  0
  189.0230  174.9120  134.8280 C   0  0  0  0  0  2  0  0  0  0  0  0
  191.8880  175.1600  137.2610 C   0  0  0  0  0  1  0  0  0  0  0  0
  187.9310  172.4360  137.1410 N   0  0  0  0  0  1  0  0  0  0  0  0
  188.1370  174.2720  135.7170 O   0  0  0  0  0  0  0  0  0  0  0  0
  190.8870  174.5540  136.3930 N   0  0  0  0  0  0  0  0  0  0  0  0
  190.1750  175.5760  135.5990 C   0  0  2  0  0  3  0  0  0  0  0  0
  189.9540  173.7860  137.2190 C   0  0  0  0  0  2  0  0  0  0  0  0
  1 14  1  0  0  0  0
  1  9  1  0  0  0  0
  2  3  1  0  0  0  0
  3 19  1  6  0  0  0
  3  7  1  0  0  0  0
  4 15  1  0  0  0  0
  4 11  1  0  0  0  0
  5  2  1  0  0  0  0
  5 14  2  0  0  0  0
  6  1  2  0  0  0  0
  7  4  2  0  0  0  0
  8 23  1  6  0  0  0
  8 12  1  0  0  0  0
  8 13  1  0  0  0  0
 10 19  2  0  0  0  0
 12 16  1  0  0  0  0
 13 18  2  0  0  0  0
 13  2  1  0  0  0  0
 16  5  1  0  0  0  0
 17 16  2  0  0  0  0
 17  6  1  0  0  0  0
 18 10  1  0  0  0  0
 19 20  1  0  0  0  0
 20 15  2  0  0  0  0
 21 22  2  0  0  0  0
 22 23  1  0  0  0  0
 24 27  1  1  0  0  0
 24 31  1  0  0  0  0
 25 30  1  0  0  0  0
 25 28  1  0  0  0  0
 28 24  1  0  0  0  0
 29 31  1  0  0  0  0
 29 26  1  0  0  0  0
 30 29  1  0  0  0  0
 30 22  1  1  0  0  0
M  END
>  <MODEL>
8

>  <REMARK>
 VINA RESULT:      -7.8      2.697      3.829
  Name = 
  2 active torsions:
  status: ('A' for Active; 'I' for Inactive)
    1  A    between atoms: C_5  and  C_30
    2  A    between atoms: C_10  and  N_16
                            x       y       z     vdW  Elec       q    Type
                         _______ _______ _______ _____ _____    ______ ____

>  <TORSDO>
F 2

$$$$
=
 OpenBabel11122410543D

 31 35  0  0  1  0  0  0  0  0999 V2000
  186.7720  177.9330  135.8760 C   0  0  0  0  0  0  0  0  0  0  0  0
  186.0820  178.3900  139.5520 N   0  0  0  0  0  0  0  0  0  0  0  0
  184.6190  178.6130  139.5630 C   0  0  1  0  0  3  0  0  0  0  0  0
  182.6330  177.3220  139.0180 C   0  0  0  0  0  0  0  0  0  0  0  0
  186.7770  178.1780  138.2990 C   0  0  0  0  0  0  0  0  0  0  0  0
  188.1410  177.6590  135.8950 C   0  0  0  0  0  3  0  0  0  0  0  0
  183.8960  177.5730  138.8170 N   0  0  0  0  0  0  0  0  0  0  0  0
  188.3700  178.6300  140.7160 C   0  0  1  0  0  3  0  0  0  0  0  0
  186.0990  177.9390  134.7000 F   0  0  0  0  0  0  0  0  0  0  0  0
  184.7920  178.9670  142.0140 C   0  0  0  0  0  3  0  0  0  0  0  0
  181.9380  176.3220  138.1670 C   0  0  0  0  0  1  0  0  0  0  0  0
  188.8860  177.9640  139.5260 N   0  0  0  0  0  2  0  0  0  0  0  0
  186.8600  178.6160  140.7570 C   0  0  0  0  0  0  0  0  0  0  0  0
  186.0950  178.1870  137.0700 C   0  0  0  0  0  3  0  0  0  0  0  0
  181.9070  177.9510  140.1430 C   0  0  0  0  0  3  0  0  0  0  0  0
  188.1610  177.9350  138.3000 C   0  0  0  0  0  0  0  0  0  0  0  0
  188.8340  177.6600  137.1070 C   0  0  0  0  0  3  0  0  0  0  0  0
  186.2520  178.9400  141.9040 C   0  0  0  0  0  3  0  0  0  0  0  0
  184.0310  178.7640  140.9460 C   0  0  0  0  0  0  0  0  0  0  0  0
  182.5760  178.6280  141.0800 C   0  0  0  0  0  3  0  0  0  0  0  0
  191.1020  177.8610  141.0680 O   0  0  0  0  0  0  0  0  0  0  0  0
  190.3050  177.6310  142.0160 C   0  0  0  0  0  0  0  0  0  0  0  0
  188.9260  177.9940  141.9030 N   0  0  0  0  0  2  0  0  0  0  0  0
  188.9560  177.1270  145.3530 C   0  0  1  0  0  3  0  0  0  0  0  0
  189.8840  175.8440  143.7280 C   0  0  0  0  0  2  0  0  0  0  0  0
  191.8240  179.0640  143.9690 C   0  0  0  0  0  1  0  0  0  0  0  0
  187.7160  177.5700  145.9640 N   0  0  0  0  0  1  0  0  0  0  0  0
  188.6670  176.3770  144.1980 O   0  0  0  0  0  0  0  0  0  0  0  0
  191.0650  177.8960  144.3960 N   0  0  0  0  0  0  0  0  0  0  0  0
  190.8230  176.9700  143.2700 C   0  0  2  0  0  3  0  0  0  0  0  0
  189.8040  178.3460  144.9850 C   0  0  0  0  0  2  0  0  0  0  0  0
  1  6  2  0  0  0  0
  1 14  1  0  0  0  0
  2  3  1  0  0  0  0
  2 13  1  0  0  0  0
  3  7  1  1  0  0  0
  3 19  1  0  0  0  0
  4 15  1  0  0  0  0
  5 16  1  0  0  0  0
  5  2  1  0  0  0  0
  6 17  1  0  0  0  0
  7  4  2  0  0  0  0
  8 13  1  0  0  0  0
  8 23  1  1  0  0  0
  9  1  1  0  0  0  0
 11  4  1  0  0  0  0
 12  8  1  0  0  0  0
 13 18  2  0  0  0  0
 14  5  2  0  0  0  0
 15 20  2  0  0  0  0
 16 12  1  0  0  0  0
 17 16  2  0  0  0  0
 18 10  1  0  0  0  0
 19 20  1  0  0  0  0
 19 10  2  0  0  0  0
 21 22  2  0  0  0  0
 23 22  1  0  0  0  0
 24 27  1  6  0  0  0
 25 28  1  0  0  0  0
 26 29  1  0  0  0  0
 28 24  1  0  0  0  0
 29 31  1  0  0  0  0
 30 22  1  6  0  0  0
 30 25  1  0  0  0  0
 30 29  1  0  0  0  0
 31 24  1  0  0  0  0
M  END
>  <MODEL>
9

>  <REMARK>
 VINA RESULT:      -7.6      4.134      6.941
  Name = 
  2 active torsions:
  status: ('A' for Active; 'I' for Inactive)
    1  A    between atoms: C_5  and  C_30
    2  A    between atoms: C_10  and  N_16
                            x       y       z     vdW  Elec       q    Type
                         _______ _______ _______ _____ _____    ______ ____

>  <TORSDO>
F 2

$$$$
