=
 OpenBabel11122410583D

 31 35  0  0  1  0  0  0  0  0999 V2000
  190.1800  175.8490  142.8480 C   0  0  0  0  0  0  0  0  0  0  0  0
  186.7560  177.0520  144.0050 C   0  0  2  0  0  3  0  0  0  0  0  0
  186.9900  177.7420  145.3440 C   0  0  0  0  0  0  0  0  0  0  0  0
  188.3200  177.9860  147.3720 C   0  0  0  0  0  0  0  0  0  0  0  0
  188.0180  176.9020  143.1900 C   0  0  0  0  0  0  0  0  0  0  0  0
  190.4020  176.6580  141.7310 C   0  0  0  0  0  3  0  0  0  0  0  0
  188.1260  177.4260  146.1090 C   0  0  0  0  0  3  0  0  0  0  0  0
  186.1650  178.9560  142.5320 N   0  0  0  0  0  0  0  0  0  0  0  0
  191.1180  174.9500  143.2300 F   0  0  0  0  0  0  0  0  0  0  0  0
  184.7740  178.9870  145.1610 C   0  0  0  0  0  2  0  0  0  0  0  0
  189.4300  177.6800  148.0850 F   0  0  0  0  0  0  0  0  0  0  0  0
  187.1540  178.5880  141.5170 C   0  0  0  0  0  2  0  0  0  0  0  0
  185.6480  177.7260  143.1670 C   0  0  2  0  0  3  0  0  0  0  0  0
  188.9900  175.9670  143.5710 C   0  0  0  0  0  3  0  0  0  0  0  0
  187.3690  178.8580  147.9020 C   0  0  0  0  0  3  0  0  0  0  0  0
  188.2420  177.7100  142.0600 C   0  0  0  0  0  0  0  0  0  0  0  0
  189.4290  177.5780  141.3320 C   0  0  0  0  0  3  0  0  0  0  0  0
  184.4310  177.9870  144.0640 C   0  0  0  0  0  2  0  0  0  0  0  0
  186.0110  178.5960  145.9090 C   0  0  0  0  0  0  0  0  0  0  0  0
  186.2190  179.1610  147.1710 C   0  0  0  0  0  3  0  0  0  0  0  0
  185.0930  179.6070  141.7860 C   0  0  0  0  0  2  0  0  0  0  0  0
  183.1720  178.2430  141.0460 C   0  0  0  0  0  1  0  0  0  0  0  0
  184.5830  178.6850  140.6850 C   0  0  1  0  0  3  0  0  0  0  0  0
  182.8290  177.7440  137.5650 C   0  0  1  0  0  3  0  0  0  0  0  0
  183.2110  179.8490  138.8920 C   0  0  0  0  0  2  0  0  0  0  0  0
  186.5920  178.0670  138.2960 C   0  0  0  0  0  1  0  0  0  0  0  0
  181.9160  176.5480  137.3980 C   0  0  0  0  0  1  0  0  0  0  0  0
  182.2700  178.6640  138.6490 C   0  0  0  0  0  2  0  0  0  0  0  0
  185.1370  178.4740  138.1550 C   0  0  2  0  0  3  0  0  0  0  0  0
  184.6130  179.3690  139.2980 C   0  0  2  0  0  3  0  0  0  0  0  0
  184.2330  177.2670  137.9250 C   0  0  0  0  0  2  0  0  0  0  0  0
  1  9  1  0  0  0  0
  1 14  1  0  0  0  0
  2  5  1  6  0  0  0
  2  3  1  0  0  0  0
  3 19  2  0  0  0  0
  3  7  1  0  0  0  0
  4 15  1  0  0  0  0
  4 11  1  0  0  0  0
  5 14  2  0  0  0  0
  6  1  2  0  0  0  0
  7  4  2  0  0  0  0
  8 13  1  0  0  0  0
 10 19  1  0  0  0  0
 12 16  1  0  0  0  0
 12  8  1  0  0  0  0
 13  2  1  0  0  0  0
 13 18  1  1  0  0  0
 16  5  1  0  0  0  0
 17  6  1  0  0  0  0
 17 16  2  0  0  0  0
 18 10  1  0  0  0  0
 19 20  1  0  0  0  0
 20 15  2  0  0  0  0
 21  8  1  0  0  0  0
 23 22  1  1  0  0  0
 23 21  1  0  0  0  0
 24 27  1  1  0  0  0
 24 31  1  0  0  0  0
 24 28  1  0  0  0  0
 25 30  1  0  0  0  0
 28 25  1  0  0  0  0
 29 26  1  1  0  0  0
 29 30  1  0  0  0  0
 30 23  1  1  0  0  0
 31 29  1  0  0  0  0
M  END
>  <MODEL>
1

>  <REMARK>
 VINA RESULT:      -9.8      0.000      0.000
  Name = 
  3 active torsions:
  status: ('A' for Active; 'I' for Inactive)
    1  A    between atoms: C_5  and  C_16
    2  A    between atoms: C_5  and  C_30
    3  A    between atoms: N_10  and  C_16
                            x       y       z     vdW  Elec       q    Type
                         _______ _______ _______ _____ _____    ______ ____

>  <TORSDO>
F 3

$$$$
=
 OpenBabel11122410583D

 31 35  0  0  1  0  0  0  0  0999 V2000
  189.4460  176.4370  142.1590 C   0  0  0  0  0  0  0  0  0  0  0  0
  186.6760  177.1020  144.6880 C   0  0  2  0  0  3  0  0  0  0  0  0
  187.3740  177.6170  145.9420 C   0  0  0  0  0  0  0  0  0  0  0  0
  189.3670  177.7120  147.3430 C   0  0  0  0  0  0  0  0  0  0  0  0
  187.5370  177.2010  143.4510 C   0  0  0  0  0  0  0  0  0  0  0  0
  189.1890  177.4130  141.1950 C   0  0  0  0  0  3  0  0  0  0  0  0
  188.7290  177.3170  146.1660 C   0  0  0  0  0  3  0  0  0  0  0  0
  185.4860  179.1220  143.8850 N   0  0  0  0  0  0  0  0  0  0  0  0
  190.4970  175.5960  142.0090 F   0  0  0  0  0  0  0  0  0  0  0  0
  185.2050  178.6380  146.8070 C   0  0  0  0  0  2  0  0  0  0  0  0
  190.6770  177.4260  147.5310 F   0  0  0  0  0  0  0  0  0  0  0  0
  186.0270  179.0050  142.5290 C   0  0  0  0  0  2  0  0  0  0  0  0
  185.3050  177.7680  144.4470 C   0  0  2  0  0  3  0  0  0  0  0  0
  188.6200  176.3280  143.2800 C   0  0  0  0  0  3  0  0  0  0  0  0
  188.6540  178.3960  148.3260 C   0  0  0  0  0  3  0  0  0  0  0  0
  187.2760  178.1780  142.4730 C   0  0  0  0  0  0  0  0  0  0  0  0
  188.0990  178.2740  141.3460 C   0  0  0  0  0  3  0  0  0  0  0  0
  184.5120  177.7720  145.7610 C   0  0  0  0  0  2  0  0  0  0  0  0
  186.6500  178.2770  146.9650 C   0  0  0  0  0  0  0  0  0  0  0  0
  187.3010  178.6780  148.1370 C   0  0  0  0  0  3  0  0  0  0  0  0
  184.1830  179.7560  143.7110 C   0  0  0  0  0  2  0  0  0  0  0  0
  182.1280  178.3980  143.8920 C   0  0  0  0  0  1  0  0  0  0  0  0
  183.2440  178.8290  142.9490 C   0  0  1  0  0  3  0  0  0  0  0  0
  181.1630  177.3730  140.2570 C   0  0  1  0  0  3  0  0  0  0  0  0
  181.1340  179.4510  141.6780 C   0  0  0  0  0  2  0  0  0  0  0  0
  184.6370  179.0160  140.0950 C   0  0  0  0  0  1  0  0  0  0  0  0
  180.7060  175.9320  140.1830 C   0  0  0  0  0  1  0  0  0  0  0  0
  180.6290  178.0110  141.5390 C   0  0  0  0  0  2  0  0  0  0  0  0
  183.1490  178.8750  140.3530 C   0  0  2  0  0  3  0  0  0  0  0  0
  182.6700  179.5010  141.6800 C   0  0  2  0  0  3  0  0  0  0  0  0
  182.6870  177.4270  140.2150 C   0  0  0  0  0  2  0  0  0  0  0  0
  1 14  1  0  0  0  0
  2  5  1  6  0  0  0
  2  3  1  0  0  0  0
  3  7  2  0  0  0  0
  3 19  1  0  0  0  0
  4 11  1  0  0  0  0
  4 15  2  0  0  0  0
  6 17  1  0  0  0  0
  6  1  2  0  0  0  0
  7  4  1  0  0  0  0
  8 13  1  0  0  0  0
  9  1  1  0  0  0  0
 10 19  1  0  0  0  0
 12  8  1  0  0  0  0
 13  2  1  0  0  0  0
 13 18  1  1  0  0  0
 14  5  2  0  0  0  0
 16 12  1  0  0  0  0
 16  5  1  0  0  0  0
 17 16  2  0  0  0  0
 18 10  1  0  0  0  0
 19 20  2  0  0  0  0
 20 15  1  0  0  0  0
 21  8  1  0  0  0  0
 23 21  1  0  0  0  0
 23 22  1  1  0  0  0
 24 27  1  1  0  0  0
 24 28  1  0  0  0  0
 25 30  1  0  0  0  0
 28 25  1  0  0  0  0
 29 26  1  1  0  0  0
 29 30  1  0  0  0  0
 30 23  1  1  0  0  0
 31 24  1  0  0  0  0
 31 29  1  0  0  0  0
M  END
>  <MODEL>
2

>  <REMARK>
 VINA RESULT:      -9.0      1.487      2.059
  Name = 
  3 active torsions:
  status: ('A' for Active; 'I' for Inactive)
    1  A    between atoms: C_5  and  C_16
    2  A    between atoms: C_5  and  C_30
    3  A    between atoms: N_10  and  C_16
                            x       y       z     vdW  Elec       q    Type
                         _______ _______ _______ _____ _____    ______ ____

>  <TORSDO>
F 3

$$$$
=
 OpenBabel11122410583D

 31 35  0  0  1  0  0  0  0  0999 V2000
  191.3720  176.7440  145.2940 C   0  0  0  0  0  0  0  0  0  0  0  0
  187.8280  177.0850  143.9410 C   0  0  2  0  0  3  0  0  0  0  0  0
  187.0380  177.8100  145.0260 C   0  0  0  0  0  0  0  0  0  0  0  0
  186.7330  178.3650  147.3790 C   0  0  0  0  0  0  0  0  0  0  0  0
  189.3220  177.2460  144.0930 C   0  0  0  0  0  0  0  0  0  0  0  0
  192.0850  177.5840  144.4360 C   0  0  0  0  0  3  0  0  0  0  0  0
  187.4800  177.7760  146.3590 C   0  0  0  0  0  3  0  0  0  0  0  0
  187.9410  178.7940  142.1480 N   0  0  0  0  0  0  0  0  0  0  0  0
  192.0140  176.0980  146.2960 F   0  0  0  0  0  0  0  0  0  0  0  0
  185.2380  178.4840  143.3520 C   0  0  0  0  0  2  0  0  0  0  0  0
  187.1860  178.3350  148.6550 F   0  0  0  0  0  0  0  0  0  0  0  0
  189.3930  178.6760  142.0100 C   0  0  0  0  0  2  0  0  0  0  0  0
  187.3850  177.4740  142.5140 C   0  0  2  0  0  3  0  0  0  0  0  0
  189.9970  176.5720  145.1200 C   0  0  0  0  0  3  0  0  0  0  0  0
  185.5170  178.9810  147.0850 C   0  0  0  0  0  3  0  0  0  0  0  0
  190.0450  178.0850  143.2250 C   0  0  0  0  0  0  0  0  0  0  0  0
  191.4240  178.2440  143.3960 C   0  0  0  0  0  3  0  0  0  0  0  0
  185.8530  177.4330  142.4370 C   0  0  0  0  0  2  0  0  0  0  0  0
  185.7820  178.4020  144.7450 C   0  0  0  0  0  0  0  0  0  0  0  0
  185.0450  179.0000  145.7730 C   0  0  0  0  0  3  0  0  0  0  0  0
  187.4710  179.1670  140.8170 C   0  0  0  0  0  2  0  0  0  0  0  0
  186.7330  177.9210  138.8180 C   0  0  0  0  0  1  0  0  0  0  0  0
  187.8820  178.1120  139.7990 C   0  0  1  0  0  3  0  0  0  0  0  0
  189.0930  177.0500  136.4660 C   0  0  1  0  0  3  0  0  0  0  0  0
  188.8730  179.2130  137.7340 C   0  0  0  0  0  2  0  0  0  0  0  0
  190.6780  176.6000  139.9430 C   0  0  0  0  0  1  0  0  0  0  0  0
  188.3760  176.0950  135.5360 C   0  0  0  0  0  1  0  0  0  0  0  0
  188.2040  178.2620  136.7370 C   0  0  0  0  0  2  0  0  0  0  0  0
  190.1090  177.3070  138.7270 C   0  0  2  0  0  3  0  0  0  0  0  0
  189.1850  178.4990  139.0590 C   0  0  2  0  0  3  0  0  0  0  0  0
  189.4430  176.3280  137.7650 C   0  0  0  0  0  2  0  0  0  0  0  0
  1  9  1  0  0  0  0
  2  5  1  6  0  0  0
  2  3  1  0  0  0  0
  3  7  1  0  0  0  0
  4 11  1  0  0  0  0
  5 14  2  0  0  0  0
  6  1  2  0  0  0  0
  7  4  2  0  0  0  0
  8 13  1  0  0  0  0
 10 19  1  0  0  0  0
 12  8  1  0  0  0  0
 12 16  1  0  0  0  0
 13 18  1  1  0  0  0
 13  2  1  0  0  0  0
 14  1  1  0  0  0  0
 15  4  1  0  0  0  0
 16 17  2  0  0  0  0
 16  5  1  0  0  0  0
 17  6  1  0  0  0  0
 18 10  1  0  0  0  0
 19  3  2  0  0  0  0
 19 20  1  0  0  0  0
 20 15  2  0  0  0  0
 21  8  1  0  0  0  0
 23 22  1  6  0  0  0
 23 21  1  0  0  0  0
 24 27  1  6  0  0  0
 24 28  1  0  0  0  0
 24 31  1  0  0  0  0
 25 30  1  0  0  0  0
 28 25  1  0  0  0  0
 29 30  1  0  0  0  0
 29 26  1  1  0  0  0
 30 23  1  6  0  0  0
 31 29  1  0  0  0  0
M  END
>  <MODEL>
3

>  <REMARK>
 VINA RESULT:      -8.5      2.281      3.520
  Name = 
  3 active torsions:
  status: ('A' for Active; 'I' for Inactive)
    1  A    between atoms: C_5  and  C_16
    2  A    between atoms: C_5  and  C_30
    3  A    between atoms: N_10  and  C_16
                            x       y       z     vdW  Elec       q    Type
                         _______ _______ _______ _____ _____    ______ ____

>  <TORSDO>
F 3

$$$$
=
 OpenBabel11122410583D

 31 35  0  0  1  0  0  0  0  0999 V2000
  190.1220  176.0190  142.8430 C   0  0  0  0  0  0  0  0  0  0  0  0
  186.6660  177.0670  144.0540 C   0  0  2  0  0  3  0  0  0  0  0  0
  186.8930  177.8030  145.3700 C   0  0  0  0  0  0  0  0  0  0  0  0
  188.2550  178.1700  147.3580 C   0  0  0  0  0  0  0  0  0  0  0  0
  187.9160  176.9640  143.2120 C   0  0  0  0  0  0  0  0  0  0  0  0
  190.2740  176.8100  141.7020 C   0  0  0  0  0  3  0  0  0  0  0  0
  188.0620  177.5680  146.1140 C   0  0  0  0  0  3  0  0  0  0  0  0
  185.9400  178.8990  142.5500 N   0  0  0  0  0  0  0  0  0  0  0  0
  191.1160  175.1820  143.2240 F   0  0  0  0  0  0  0  0  0  0  0  0
  184.6090  178.9230  145.2110 C   0  0  0  0  0  2  0  0  0  0  0  0
  189.3950  177.9420  148.0510 F   0  0  0  0  0  0  0  0  0  0  0  0
  186.9230  178.5580  141.5210 C   0  0  0  0  0  2  0  0  0  0  0  0
  185.5040  177.6600  143.2270 C   0  0  2  0  0  3  0  0  0  0  0  0
  188.9450  176.0930  143.5920 C   0  0  0  0  0  3  0  0  0  0  0  0
  187.2700  179.0030  147.8890 C   0  0  0  0  0  3  0  0  0  0  0  0
  188.0690  177.7540  142.0570 C   0  0  0  0  0  0  0  0  0  0  0  0
  189.2440  177.6670  141.3040 C   0  0  0  0  0  3  0  0  0  0  0  0
  184.2960  177.8780  144.1460 C   0  0  0  0  0  2  0  0  0  0  0  0
  185.8830  178.6180  145.9380 C   0  0  0  0  0  0  0  0  0  0  0  0
  186.0890  179.2250  147.1800 C   0  0  0  0  0  3  0  0  0  0  0  0
  184.8160  179.4720  141.8150 C   0  0  0  0  0  2  0  0  0  0  0  0
  182.4700  178.7310  141.6070 C   0  0  0  0  0  1  0  0  0  0  0  0
  183.9130  178.3650  141.2870 C   0  0  1  0  0  3  0  0  0  0  0  0
  181.8830  179.6080  138.4520 C   0  0  1  0  0  3  0  0  0  0  0  0
  184.3280  179.4700  139.0370 C   0  0  0  0  0  2  0  0  0  0  0  0
  182.6810  176.0060  139.5430 C   0  0  0  0  0  1  0  0  0  0  0  0
  180.6400  180.4640  138.5720 C   0  0  0  0  0  1  0  0  0  0  0  0
  183.0690  180.3410  139.0780 C   0  0  0  0  0  2  0  0  0  0  0  0
  182.9200  177.4290  139.0750 C   0  0  2  0  0  3  0  0  0  0  0  0
  184.1040  178.1370  139.7690 C   0  0  2  0  0  3  0  0  0  0  0  0
  181.6460  178.2670  139.1410 C   0  0  0  0  0  2  0  0  0  0  0  0
  1  9  1  0  0  0  0
  1 14  1  0  0  0  0
  2  5  1  6  0  0  0
  2  3  1  0  0  0  0
  3 19  2  0  0  0  0
  3  7  1  0  0  0  0
  4 15  1  0  0  0  0
  4 11  1  0  0  0  0
  5 14  2  0  0  0  0
  6  1  2  0  0  0  0
  7  4  2  0  0  0  0
  8 13  1  0  0  0  0
 10 19  1  0  0  0  0
 12 16  1  0  0  0  0
 12  8  1  0  0  0  0
 13  2  1  0  0  0  0
 13 18  1  1  0  0  0
 16  5  1  0  0  0  0
 17  6  1  0  0  0  0
 17 16  2  0  0  0  0
 18 10  1  0  0  0  0
 19 20  1  0  0  0  0
 20 15  2  0  0  0  0
 21  8  1  0  0  0  0
 23 22  1  6  0  0  0
 23 21  1  0  0  0  0
 24 27  1  1  0  0  0
 24 28  1  0  0  0  0
 24 31  1  0  0  0  0
 25 28  1  0  0  0  0
 25 30  1  0  0  0  0
 29 31  1  0  0  0  0
 29 26  1  1  0  0  0
 29 30  1  0  0  0  0
 30 23  1  1  0  0  0
M  END
>  <MODEL>
4

>  <REMARK>
 VINA RESULT:      -8.5      0.874      1.507
  Name = 
  3 active torsions:
  status: ('A' for Active; 'I' for Inactive)
    1  A    between atoms: C_5  and  C_16
    2  A    between atoms: C_5  and  C_30
    3  A    between atoms: N_10  and  C_16
                            x       y       z     vdW  Elec       q    Type
                         _______ _______ _______ _____ _____    ______ ____

>  <TORSDO>
F 3

$$$$
=
 OpenBabel11122410583D

 31 35  0  0  1  0  0  0  0  0999 V2000
  190.9460  176.9890  142.3660 C   0  0  0  0  0  0  0  0  0  0  0  0
  190.0430  178.0420  138.8180 C   0  0  2  0  0  3  0  0  0  0  0  0
  190.4680  176.8840  137.9210 C   0  0  0  0  0  0  0  0  0  0  0  0
  191.9140  174.9630  137.5220 C   0  0  0  0  0  0  0  0  0  0  0  0
  189.9100  177.6460  140.2690 C   0  0  0  0  0  0  0  0  0  0  0  0
  189.6840  176.8410  142.9470 C   0  0  0  0  0  3  0  0  0  0  0  0
  191.4540  175.9830  138.3570 C   0  0  0  0  0  3  0  0  0  0  0  0
  187.5700  177.9300  138.6790 N   0  0  0  0  0  0  0  0  0  0  0  0
  192.0600  176.7390  143.0930 F   0  0  0  0  0  0  0  0  0  0  0  0
  188.9390  177.6910  136.0480 C   0  0  0  0  0  2  0  0  0  0  0  0
  192.8540  174.0960  137.9680 F   0  0  0  0  0  0  0  0  0  0  0  0
  187.4030  177.9360  140.1330 C   0  0  0  0  0  2  0  0  0  0  0  0
  188.7560  178.7400  138.3280 C   0  0  2  0  0  3  0  0  0  0  0  0
  191.0580  177.3950  141.0340 C   0  0  0  0  0  3  0  0  0  0  0  0
  191.4090  174.8400  136.2290 C   0  0  0  0  0  3  0  0  0  0  0  0
  188.6410  177.5030  140.8600 C   0  0  0  0  0  0  0  0  0  0  0  0
  188.5350  177.1090  142.1980 C   0  0  0  0  0  3  0  0  0  0  0  0
  188.8710  179.0030  136.8210 C   0  0  0  0  0  2  0  0  0  0  0  0
  189.9920  176.7750  136.5910 C   0  0  0  0  0  0  0  0  0  0  0  0
  190.4520  175.7430  135.7660 C   0  0  0  0  0  3  0  0  0  0  0  0
  186.3680  178.5790  138.1650 C   0  0  0  0  0  2  0  0  0  0  0  0
  183.9210  178.2530  138.1630 C   0  0  0  0  0  1  0  0  0  0  0  0
  185.2590  177.5530  137.9690 C   0  0  1  0  0  3  0  0  0  0  0  0
  183.1030  174.9170  136.5190 C   0  0  1  0  0  3  0  0  0  0  0  0
  184.0490  177.1280  135.7750 C   0  0  0  0  0  2  0  0  0  0  0  0
  186.8870  174.9260  137.2120 C   0  0  0  0  0  1  0  0  0  0  0  0
  181.9350  174.2560  137.2190 C   0  0  0  0  0  1  0  0  0  0  0  0
  182.8510  176.4200  136.4160 C   0  0  0  0  0  2  0  0  0  0  0  0
  185.5550  175.3500  136.6230 C   0  0  2  0  0  3  0  0  0  0  0  0
  185.3350  176.8770  136.5790 C   0  0  2  0  0  3  0  0  0  0  0  0
  184.3870  174.6310  137.2930 C   0  0  0  0  0  2  0  0  0  0  0  0
  1  6  1  0  0  0  0
  1  9  1  0  0  0  0
  2  3  1  6  0  0  0
  2  5  1  0  0  0  0
  3  7  1  0  0  0  0
  4 11  1  0  0  0  0
  4  7  2  0  0  0  0
  5 16  2  0  0  0  0
  5 14  1  0  0  0  0
  8 12  1  0  0  0  0
 10 19  1  0  0  0  0
 10 18  1  0  0  0  0
 12 16  1  0  0  0  0
 13 18  1  6  0  0  0
 13  8  1  0  0  0  0
 13  2  1  0  0  0  0
 14  1  2  0  0  0  0
 15  4  1  0  0  0  0
 16 17  1  0  0  0  0
 17  6  2  0  0  0  0
 19  3  2  0  0  0  0
 20 15  2  0  0  0  0
 20 19  1  0  0  0  0
 21  8  1  0  0  0  0
 23 22  1  6  0  0  0
 23 21  1  0  0  0  0
 24 27  1  1  0  0  0
 24 31  1  0  0  0  0
 25 28  1  0  0  0  0
 25 30  1  0  0  0  0
 28 24  1  0  0  0  0
 29 26  1  1  0  0  0
 29 31  1  0  0  0  0
 30 29  1  0  0  0  0
 30 23  1  1  0  0  0
M  END
>  <MODEL>
5

>  <REMARK>
 VINA RESULT:      -8.1      3.154      6.346
  Name = 
  3 active torsions:
  status: ('A' for Active; 'I' for Inactive)
    1  A    between atoms: C_5  and  C_16
    2  A    between atoms: C_5  and  C_30
    3  A    between atoms: N_10  and  C_16
                            x       y       z     vdW  Elec       q    Type
                         _______ _______ _______ _____ _____    ______ ____

>  <TORSDO>
F 3

$$$$
=
 OpenBabel11122410583D

 31 35  0  0  1  0  0  0  0  0999 V2000
  184.0810  178.7920  141.4300 C   0  0  0  0  0  0  0  0  0  0  0  0
  186.8190  178.6520  138.7860 C   0  0  2  0  0  3  0  0  0  0  0  0
  188.0180  177.9980  139.4650 C   0  0  0  0  0  0  0  0  0  0  0  0
  189.2610  177.5050  141.5030 C   0  0  0  0  0  0  0  0  0  0  0  0
  185.5200  178.4000  139.5130 C   0  0  0  0  0  0  0  0  0  0  0  0
  183.1440  177.8930  140.9150 C   0  0  0  0  0  3  0  0  0  0  0  0
  188.1350  178.0270  140.8650 C   0  0  0  0  0  3  0  0  0  0  0  0
  186.1200  176.9080  137.1680 N   0  0  0  0  0  0  0  0  0  0  0  0
  183.8450  179.4140  142.6090 F   0  0  0  0  0  0  0  0  0  0  0  0
  189.0520  177.4090  137.2120 C   0  0  0  0  0  2  0  0  0  0  0  0
  189.3460  177.5300  142.8540 F   0  0  0  0  0  0  0  0  0  0  0  0
  184.7270  176.9310  137.6160 C   0  0  0  0  0  2  0  0  0  0  0  0
  186.6880  178.2660  137.2970 C   0  0  2  0  0  3  0  0  0  0  0  0
  185.2610  179.0480  140.7290 C   0  0  0  0  0  3  0  0  0  0  0  0
  190.3000  176.9620  140.7480 C   0  0  0  0  0  3  0  0  0  0  0  0
  184.5690  177.5010  138.9940 C   0  0  0  0  0  0  0  0  0  0  0  0
  183.3830  177.2590  139.6930 C   0  0  0  0  0  3  0  0  0  0  0  0
  188.0590  178.4030  136.6220 C   0  0  0  0  0  2  0  0  0  0  0  0
  189.0970  177.4810  138.7070 C   0  0  0  0  0  0  0  0  0  0  0  0
  190.2170  176.9500  139.3550 C   0  0  0  0  0  3  0  0  0  0  0  0
  186.0510  176.5410  135.7570 C   0  0  0  0  0  2  0  0  0  0  0  0
  187.7620  175.1930  134.5950 C   0  0  0  0  0  1  0  0  0  0  0  0
  186.5820  175.1270  135.5540 C   0  0  1  0  0  3  0  0  0  0  0  0
  187.7500  171.6760  136.2040 C   0  0  1  0  0  3  0  0  0  0  0  0
  188.4550  174.0040  136.8520 C   0  0  0  0  0  2  0  0  0  0  0  0
  184.6780  173.5530  137.5600 C   0  0  0  0  0  1  0  0  0  0  0  0
  187.9100  170.5920  135.1590 C   0  0  0  0  0  1  0  0  0  0  0  0
  188.6480  172.8610  135.8510 C   0  0  0  0  0  2  0  0  0  0  0  0
  186.1360  173.2390  137.2830 C   0  0  2  0  0  3  0  0  0  0  0  0
  186.9890  174.4650  136.8910 C   0  0  2  0  0  3  0  0  0  0  0  0
  186.2860  172.1030  136.2750 C   0  0  0  0  0  2  0  0  0  0  0  0
  1  9  1  0  0  0  0
  2  3  1  1  0  0  0
  2  5  1  0  0  0  0
  3  7  1  0  0  0  0
  4 11  1  0  0  0  0
  5 14  1  0  0  0  0
  6  1  1  0  0  0  0
  7  4  2  0  0  0  0
  8 13  1  0  0  0  0
  8 12  1  0  0  0  0
 10 19  1  0  0  0  0
 12 16  1  0  0  0  0
 13 18  1  1  0  0  0
 13  2  1  0  0  0  0
 14  1  2  0  0  0  0
 15  4  1  0  0  0  0
 16  5  2  0  0  0  0
 16 17  1  0  0  0  0
 17  6  2  0  0  0  0
 18 10  1  0  0  0  0
 19 20  1  0  0  0  0
 19  3  2  0  0  0  0
 20 15  2  0  0  0  0
 21  8  1  0  0  0  0
 23 22  1  6  0  0  0
 23 21  1  0  0  0  0
 24 27  1  6  0  0  0
 24 31  1  0  0  0  0
 25 30  1  0  0  0  0
 28 24  1  0  0  0  0
 28 25  1  0  0  0  0
 29 26  1  6  0  0  0
 30 23  1  6  0  0  0
 30 29  1  0  0  0  0
 31 29  1  0  0  0  0
M  END
>  <MODEL>
6

>  <REMARK>
 VINA RESULT:      -7.8      3.808      6.894
  Name = 
  3 active torsions:
  status: ('A' for Active; 'I' for Inactive)
    1  A    between atoms: C_5  and  C_16
    2  A    between atoms: C_5  and  C_30
    3  A    between atoms: N_10  and  C_16
                            x       y       z     vdW  Elec       q    Type
                         _______ _______ _______ _____ _____    ______ ____

>  <TORSDO>
F 3

$$$$
=
 OpenBabel11122410583D

 31 35  0  0  1  0  0  0  0  0999 V2000
  184.1550  179.2280  142.7090 C   0  0  0  0  0  0  0  0  0  0  0  0
  187.4480  178.7970  140.8430 C   0  0  2  0  0  3  0  0  0  0  0  0
  188.2700  177.8170  141.6730 C   0  0  0  0  0  0  0  0  0  0  0  0
  188.7860  176.8230  143.8380 C   0  0  0  0  0  0  0  0  0  0  0  0
  185.9740  178.7560  141.1710 C   0  0  0  0  0  0  0  0  0  0  0  0
  183.2510  178.6280  141.8310 C   0  0  0  0  0  3  0  0  0  0  0  0
  187.9960  177.6540  143.0420 C   0  0  0  0  0  3  0  0  0  0  0  0
  186.9200  177.4560  138.8250 N   0  0  0  0  0  0  0  0  0  0  0  0
  183.7190  179.7440  143.8830 F   0  0  0  0  0  0  0  0  0  0  0  0
  189.7650  177.2840  139.6790 C   0  0  0  0  0  2  0  0  0  0  0  0
  188.4950  176.6680  145.1510 F   0  0  0  0  0  0  0  0  0  0  0  0
  185.4860  177.7360  138.9110 C   0  0  0  0  0  2  0  0  0  0  0  0
  187.6680  178.6290  139.3240 C   0  0  2  0  0  3  0  0  0  0  0  0
  185.5110  179.2970  142.3770 C   0  0  0  0  0  3  0  0  0  0  0  0
  189.8760  176.1550  143.2810 C   0  0  0  0  0  3  0  0  0  0  0  0
  185.0580  178.1590  140.2840 C   0  0  0  0  0  0  0  0  0  0  0  0
  183.7010  178.1050  140.6150 C   0  0  0  0  0  3  0  0  0  0  0  0
  189.1740  178.5370  139.0440 C   0  0  0  0  0  2  0  0  0  0  0  0
  189.4040  177.1670  141.1280 C   0  0  0  0  0  0  0  0  0  0  0  0
  190.1830  176.3270  141.9310 C   0  0  0  0  0  3  0  0  0  0  0  0
  187.1800  177.2830  137.3990 C   0  0  0  0  0  2  0  0  0  0  0  0
  186.3430  174.9670  137.2180 C   0  0  0  0  0  1  0  0  0  0  0  0
  187.5840  175.8430  137.1080 C   0  0  1  0  0  3  0  0  0  0  0  0
  190.9570  174.5970  136.2300 C   0  0  1  0  0  3  0  0  0  0  0  0
  188.5990  174.2300  135.4290 C   0  0  0  0  0  2  0  0  0  0  0  0
  189.3320  178.0250  135.5890 C   0  0  0  0  0  1  0  0  0  0  0  0
  192.0030  174.1280  137.2180 C   0  0  0  0  0  1  0  0  0  0  0  0
  189.7040  173.7330  136.3660 C   0  0  0  0  0  2  0  0  0  0  0  0
  189.5360  176.5230  135.5340 C   0  0  2  0  0  3  0  0  0  0  0  0
  188.2450  175.6970  135.7170 C   0  0  2  0  0  3  0  0  0  0  0  0
  190.6370  176.0670  136.4880 C   0  0  0  0  0  2  0  0  0  0  0  0
  1  9  1  0  0  0  0
  2  5  1  6  0  0  0
  2  3  1  0  0  0  0
  3  7  1  0  0  0  0
  4 11  1  0  0  0  0
  5 14  2  0  0  0  0
  6  1  2  0  0  0  0
  7  4  2  0  0  0  0
  8 12  1  0  0  0  0
  8 13  1  0  0  0  0
 10 19  1  0  0  0  0
 12 16  1  0  0  0  0
 13 18  1  1  0  0  0
 13  2  1  0  0  0  0
 14  1  1  0  0  0  0
 15  4  1  0  0  0  0
 16 17  2  0  0  0  0
 16  5  1  0  0  0  0
 17  6  1  0  0  0  0
 18 10  1  0  0  0  0
 19  3  2  0  0  0  0
 19 20  1  0  0  0  0
 20 15  2  0  0  0  0
 21  8  1  0  0  0  0
 23 22  1  6  0  0  0
 23 21  1  0  0  0  0
 24 28  1  0  0  0  0
 24 31  1  0  0  0  0
 24 27  1  1  0  0  0
 25 30  1  0  0  0  0
 25 28  1  0  0  0  0
 29 26  1  1  0  0  0
 29 30  1  0  0  0  0
 29 31  1  0  0  0  0
 30 23  1  1  0  0  0
M  END
>  <MODEL>
7

>  <REMARK>
 VINA RESULT:      -7.8      3.204      6.138
  Name = 
  3 active torsions:
  status: ('A' for Active; 'I' for Inactive)
    1  A    between atoms: C_5  and  C_16
    2  A    between atoms: C_5  and  C_30
    3  A    between atoms: N_10  and  C_16
                            x       y       z     vdW  Elec       q    Type
                         _______ _______ _______ _____ _____    ______ ____

>  <TORSDO>
F 3

$$$$
=
 OpenBabel11122410583D

 31 35  0  0  1  0  0  0  0  0999 V2000
  190.9240  177.1170  142.2350 C   0  0  0  0  0  0  0  0  0  0  0  0
  190.0010  178.0120  138.6490 C   0  0  2  0  0  3  0  0  0  0  0  0
  190.3890  176.8010  137.8060 C   0  0  0  0  0  0  0  0  0  0  0  0
  191.7880  174.8300  137.4890 C   0  0  0  0  0  0  0  0  0  0  0  0
  189.8780  177.6920  140.1200 C   0  0  0  0  0  0  0  0  0  0  0  0
  189.6670  177.0260  142.8370 C   0  0  0  0  0  3  0  0  0  0  0  0
  191.3610  175.9010  138.2760 C   0  0  0  0  0  3  0  0  0  0  0  0
  187.5250  177.9490  138.5430 N   0  0  0  0  0  0  0  0  0  0  0  0
  192.0420  176.8780  142.9610 F   0  0  0  0  0  0  0  0  0  0  0  0
  188.8560  177.5490  135.9130 C   0  0  0  0  0  2  0  0  0  0  0  0
  192.7130  173.9660  137.9670 F   0  0  0  0  0  0  0  0  0  0  0  0
  187.3770  178.0310  139.9970 C   0  0  0  0  0  2  0  0  0  0  0  0
  188.7240  178.7140  138.1400 C   0  0  2  0  0  3  0  0  0  0  0  0
  191.0290  177.4540  140.8830 C   0  0  0  0  0  3  0  0  0  0  0  0
  191.2650  174.6550  136.2080 C   0  0  0  0  0  3  0  0  0  0  0  0
  188.6130  177.6070  140.7320 C   0  0  0  0  0  0  0  0  0  0  0  0
  188.5150  177.2830  142.0890 C   0  0  0  0  0  3  0  0  0  0  0  0
  188.8270  178.8980  136.6200 C   0  0  0  0  0  2  0  0  0  0  0  0
  189.8950  176.6370  136.4900 C   0  0  0  0  0  0  0  0  0  0  0  0
  190.3210  175.5550  135.7120 C   0  0  0  0  0  3  0  0  0  0  0  0
  186.3320  178.5990  138.0110 C   0  0  0  0  0  2  0  0  0  0  0  0
  186.1050  176.2720  137.2180 C   0  0  0  0  0  1  0  0  0  0  0  0
  185.3400  177.5540  137.5150 C   0  0  1  0  0  3  0  0  0  0  0  0
  181.6960  177.2390  136.9520 C   0  0  1  0  0  3  0  0  0  0  0  0
  183.4700  175.9880  138.2270 C   0  0  0  0  0  2  0  0  0  0  0  0
  183.6680  179.7530  139.0940 C   0  0  0  0  0  1  0  0  0  0  0  0
  181.0010  177.3570  135.6120 C   0  0  0  0  0  1  0  0  0  0  0  0
  182.6990  176.0880  136.9070 C   0  0  0  0  0  2  0  0  0  0  0  0
  183.1430  178.4170  138.6030 C   0  0  2  0  0  3  0  0  0  0  0  0
  184.2070  177.3000  138.5380 C   0  0  2  0  0  3  0  0  0  0  0  0
  182.3910  178.5570  137.2820 C   0  0  0  0  0  2  0  0  0  0  0  0
  1  6  1  0  0  0  0
  1  9  1  0  0  0  0
  2  3  1  6  0  0  0
  2  5  1  0  0  0  0
  3  7  1  0  0  0  0
  4 11  1  0  0  0  0
  4  7  2  0  0  0  0
  5 16  2  0  0  0  0
  5 14  1  0  0  0  0
  8 12  1  0  0  0  0
 10 19  1  0  0  0  0
 10 18  1  0  0  0  0
 12 16  1  0  0  0  0
 13 18  1  6  0  0  0
 13  8  1  0  0  0  0
 13  2  1  0  0  0  0
 14  1  2  0  0  0  0
 15  4  1  0  0  0  0
 16 17  1  0  0  0  0
 17  6  2  0  0  0  0
 19  3  2  0  0  0  0
 20 15  2  0  0  0  0
 20 19  1  0  0  0  0
 21  8  1  0  0  0  0
 23 22  1  1  0  0  0
 23 21  1  0  0  0  0
 24 27  1  6  0  0  0
 24 31  1  0  0  0  0
 25 30  1  0  0  0  0
 28 24  1  0  0  0  0
 28 25  1  0  0  0  0
 29 26  1  6  0  0  0
 30 23  1  6  0  0  0
 30 29  1  0  0  0  0
 31 29  1  0  0  0  0
M  END
>  <MODEL>
8

>  <REMARK>
 VINA RESULT:      -7.8      3.100      6.374
  Name = 
  3 active torsions:
  status: ('A' for Active; 'I' for Inactive)
    1  A    between atoms: C_5  and  C_16
    2  A    between atoms: C_5  and  C_30
    3  A    between atoms: N_10  and  C_16
                            x       y       z     vdW  Elec       q    Type
                         _______ _______ _______ _____ _____    ______ ____

>  <TORSDO>
F 3

$$$$
=
 OpenBabel11122410583D

 31 35  0  0  1  0  0  0  0  0999 V2000
  191.3160  177.3620  141.1530 C   0  0  0  0  0  0  0  0  0  0  0  0
  190.7340  177.0630  137.4000 C   0  0  2  0  0  3  0  0  0  0  0  0
  191.3830  175.7480  136.9830 C   0  0  0  0  0  0  0  0  0  0  0  0
  193.0630  174.0240  137.3700 C   0  0  0  0  0  0  0  0  0  0  0  0
  190.4730  177.1480  138.8850 C   0  0  0  0  0  0  0  0  0  0  0  0
  190.0180  177.2360  141.6510 C   0  0  0  0  0  3  0  0  0  0  0  0
  192.4010  175.1850  137.7720 C   0  0  0  0  0  3  0  0  0  0  0  0
  188.3220  176.5670  137.1190 N   0  0  0  0  0  0  0  0  0  0  0  0
  192.3560  177.5200  142.0050 F   0  0  0  0  0  0  0  0  0  0  0  0
  190.0110  175.6790  134.8370 C   0  0  0  0  0  2  0  0  0  0  0  0
  194.0290  173.4900  138.1530 F   0  0  0  0  0  0  0  0  0  0  0  0
  187.9830  177.0240  138.4680 C   0  0  0  0  0  2  0  0  0  0  0  0
  189.4470  177.3770  136.6070 C   0  0  2  0  0  3  0  0  0  0  0  0
  191.5420  177.3230  139.7750 C   0  0  0  0  0  3  0  0  0  0  0  0
  192.7310  173.4170  136.1590 C   0  0  0  0  0  3  0  0  0  0  0  0
  189.1650  177.0290  139.3910 C   0  0  0  0  0  0  0  0  0  0  0  0
  188.9440  177.0820  140.7710 C   0  0  0  0  0  3  0  0  0  0  0  0
  189.7120  177.1470  135.1130 C   0  0  0  0  0  2  0  0  0  0  0  0
  191.0830  175.1460  135.7370 C   0  0  0  0  0  0  0  0  0  0  0  0
  191.7440  173.9770  135.3470 C   0  0  0  0  0  3  0  0  0  0  0  0
  187.1270  176.8390  136.3250 C   0  0  0  0  0  2  0  0  0  0  0  0
  184.7370  176.2320  136.1990 C   0  0  0  0  0  1  0  0  0  0  0  0
  186.1360  175.6890  136.4560 C   0  0  1  0  0  3  0  0  0  0  0  0
  184.5750  172.3440  136.1850 C   0  0  1  0  0  3  0  0  0  0  0  0
  185.2550  174.1850  134.6070 C   0  0  0  0  0  2  0  0  0  0  0  0
  188.2140  173.3310  136.9500 C   0  0  0  0  0  1  0  0  0  0  0  0
  183.4490  171.8280  137.0540 C   0  0  0  0  0  1  0  0  0  0  0  0
  184.1130  173.5970  135.4420 C   0  0  0  0  0  2  0  0  0  0  0  0
  186.9070  173.2220  136.1860 C   0  0  2  0  0  3  0  0  0  0  0  0
  186.4660  174.5270  135.4890 C   0  0  2  0  0  3  0  0  0  0  0  0
  185.7940  172.6430  137.0540 C   0  0  0  0  0  2  0  0  0  0  0  0
  1  6  1  0  0  0  0
  1  9  1  0  0  0  0
  2  3  1  1  0  0  0
  2  5  1  0  0  0  0
  3  7  1  0  0  0  0
  4  7  2  0  0  0  0
  4 11  1  0  0  0  0
  5 16  2  0  0  0  0
  5 14  1  0  0  0  0
  8 12  1  0  0  0  0
 10 18  1  0  0  0  0
 10 19  1  0  0  0  0
 12 16  1  0  0  0  0
 13 18  1  6  0  0  0
 13  8  1  0  0  0  0
 13  2  1  0  0  0  0
 14  1  2  0  0  0  0
 15  4  1  0  0  0  0
 16 17  1  0  0  0  0
 17  6  2  0  0  0  0
 19  3  2  0  0  0  0
 20 19  1  0  0  0  0
 20 15  2  0  0  0  0
 21 23  1  0  0  0  0
 21  8  1  0  0  0  0
 23 22  1  6  0  0  0
 24 27  1  1  0  0  0
 24 31  1  0  0  0  0
 25 28  1  0  0  0  0
 25 30  1  0  0  0  0
 28 24  1  0  0  0  0
 29 26  1  1  0  0  0
 29 31  1  0  0  0  0
 30 29  1  0  0  0  0
 30 23  1  1  0  0  0
M  END
>  <MODEL>
9

>  <REMARK>
 VINA RESULT:      -7.4      4.417      7.774
  Name = 
  3 active torsions:
  status: ('A' for Active; 'I' for Inactive)
    1  A    between atoms: C_5  and  C_16
    2  A    between atoms: C_5  and  C_30
    3  A    between atoms: N_10  and  C_16
                            x       y       z     vdW  Elec       q    Type
                         _______ _______ _______ _____ _____    ______ ____

>  <TORSDO>
F 3

$$$$
