=
 OpenBabel11122410373D

 32 37  0  0  1  0  0  0  0  0999 V2000
  191.9280  175.5890  137.6420 C   0  0  0  0  0  3  0  0  0  0  0  0
  189.0780  177.7340  141.8400 C   0  0  1  0  0  3  0  0  0  0  0  0
  191.8290  176.4070  145.7670 C   0  0  0  0  0  3  0  0  0  0  0  0
  190.7100  176.4880  146.5920 C   0  0  0  0  0  3  0  0  0  0  0  0
  186.6270  178.1380  142.2060 C   0  0  0  0  0  0  0  0  0  0  0  0
  185.7580  178.6940  143.1900 N   0  0  0  0  0  0  0  0  0  0  0  0
  190.1940  177.5460  139.5980 C   0  0  1  0  0  3  0  0  0  0  0  0
  191.5730  177.4910  141.6610 C   0  0  0  0  0  2  0  0  0  0  0  0
  184.8850  178.8960  145.2510 C   0  0  0  0  0  0  0  0  0  0  0  0
  192.6750  177.1810  139.4450 C   0  0  0  0  0  2  0  0  0  0  0  0
  191.7050  176.6610  144.4000 C   0  0  0  0  0  3  0  0  0  0  0  0
  190.3460  177.2770  142.4350 N   0  0  0  0  0  0  0  0  0  0  0  0
  190.4590  176.9950  143.8400 C   0  0  0  0  0  0  0  0  0  0  0  0
  188.0380  177.3860  144.1100 N   0  0  0  0  0  0  0  0  0  0  0  0
  183.9870  179.7090  144.3740 C   0  0  0  0  0  3  0  0  0  0  0  0
  190.4500  175.6940  137.8920 C   0  0  0  0  0  2  0  0  0  0  0  0
  191.4210  176.9140  140.2630 C   0  0  2  0  0  3  0  0  0  0  0  0
  184.5880  179.5260  142.9700 C   0  0  0  0  0  3  0  0  0  0  0  0
  190.0120  177.1320  138.1350 C   0  0  0  0  0  2  0  0  0  0  0  0
  192.9150  176.1740  138.3480 C   0  0  0  0  0  0  0  0  0  0  0  0
  189.4680  176.8140  146.0460 C   0  0  0  0  0  3  0  0  0  0  0  0
  189.3260  177.0630  144.6680 C   0  0  0  0  0  0  0  0  0  0  0  0
  186.8830  177.3920  145.0210 C   0  0  0  0  0  2  0  0  0  0  0  0
  188.9550  177.1960  140.4090 C   0  0  0  0  0  2  0  0  0  0  0  0
  186.3610  178.2890  140.9840 O   0  0  0  0  0  0  0  0  0  0  0  0
  184.6690  178.6900  146.7110 C   0  0  0  0  0  1  0  0  0  0  0  0
  187.8280  177.3120  142.6430 C   0  0  2  0  0  3  0  0  0  0  0  0
  185.8640  178.3660  144.5480 C   0  0  0  0  0  0  0  0  0  0  0  0
  194.2870  175.9580  137.9820 N   0  0  0  0  0  2  0  0  0  0  0  0
  194.9920  174.7090  137.9460 C   0  0  0  0  0  0  0  0  0  0  0  0
  194.4400  173.6330  138.2970 O   0  0  0  0  0  0  0  0  0  0  0  0
  196.4070  174.6870  137.4930 C   0  0  0  0  0  1  0  0  0  0  0  0
  1 16  1  0  0  0  0
  1 20  2  0  0  0  0
  2 24  1  6  0  0  0
  2 12  1  0  0  0  0
  2 27  1  0  0  0  0
  3  4  1  0  0  0  0
  5  6  1  0  0  0  0
  6 28  1  0  0  0  0
  7 19  1  6  0  0  0
  7 17  1  0  0  0  0
  7 24  1  0  0  0  0
  8 12  1  0  0  0  0
  9 26  1  0  0  0  0
 11  3  2  0  0  0  0
 12 13  1  0  0  0  0
 13 11  1  0  0  0  0
 13 22  2  0  0  0  0
 14 22  1  0  0  0  0
 14 23  1  0  0  0  0
 15  9  1  0  0  0  0
 16 19  1  0  0  0  0
 17 10  1  6  0  0  0
 17  8  1  0  0  0  0
 18  6  1  0  0  0  0
 18 15  2  0  0  0  0
 20 10  1  0  0  0  0
 21  4  2  0  0  0  0
 22 21  1  0  0  0  0
 25  5  2  0  0  0  0
 27  5  1  6  0  0  0
 27 14  1  0  0  0  0
 28 23  1  0  0  0  0
 28  9  2  0  0  0  0
 29 20  1  0  0  0  0
 30 29  1  0  0  0  0
 30 31  2  0  0  0  0
 32 30  1  0  0  0  0
M  END
>  <MODEL>
1

>  <REMARK>
 VINA RESULT:     -10.7      0.000      0.000
  Name = 
  1 active torsions:
  status: ('A' for Active; 'I' for Inactive)
    1  A    between atoms: C_20  and  N_29
                            x       y       z     vdW  Elec       q    Type
                         _______ _______ _______ _____ _____    ______ ____

>  <TORSDO>
F 1

$$$$
=
 OpenBabel11122410373D

 32 37  0  0  1  0  0  0  0  0999 V2000
  181.4420  178.1930  140.0640 C   0  0  0  0  0  3  0  0  0  0  0  0
  185.9630  178.4220  143.2030 C   0  0  1  0  0  3  0  0  0  0  0  0
  189.5720  177.4340  139.9250 C   0  0  0  0  0  3  0  0  0  0  0  0
  190.3930  176.9720  140.9520 C   0  0  0  0  0  3  0  0  0  0  0  0
  186.3910  177.8840  145.6180 C   0  0  0  0  0  0  0  0  0  0  0  0
  187.4600  177.9180  146.5600 N   0  0  0  0  0  0  0  0  0  0  0  0
  183.7310  179.0420  142.2320 C   0  0  1  0  0  3  0  0  0  0  0  0
  185.7510  179.0910  140.7890 C   0  0  0  0  0  2  0  0  0  0  0  0
  189.5180  177.4280  147.3190 C   0  0  0  0  0  0  0  0  0  0  0  0
  183.5210  179.5890  139.7890 C   0  0  0  0  0  2  0  0  0  0  0  0
  188.2790  177.8730  140.2130 C   0  0  0  0  0  3  0  0  0  0  0  0
  186.4640  178.3300  141.8210 N   0  0  0  0  0  0  0  0  0  0  0  0
  187.7890  177.8540  141.5310 C   0  0  0  0  0  0  0  0  0  0  0  0
  188.1200  177.3310  143.9190 N   0  0  0  0  0  0  0  0  0  0  0  0
  188.8100  178.0270  148.4930 C   0  0  0  0  0  3  0  0  0  0  0  0
  181.7020  177.7350  141.4710 C   0  0  0  0  0  2  0  0  0  0  0  0
  184.2670  178.7620  140.8250 C   0  0  2  0  0  3  0  0  0  0  0  0
  187.3990  178.3200  147.9550 C   0  0  0  0  0  3  0  0  0  0  0  0
  182.2150  178.8640  142.3540 C   0  0  0  0  0  2  0  0  0  0  0  0
  182.2510  178.9440  139.2910 C   0  0  0  0  0  0  0  0  0  0  0  0
  189.9150  176.9440  142.2620 C   0  0  0  0  0  3  0  0  0  0  0  0
  188.6100  177.3750  142.5660 C   0  0  0  0  0  0  0  0  0  0  0  0
  189.0100  176.7720  144.9480 C   0  0  0  0  0  2  0  0  0  0  0  0
  184.4550  178.1460  143.2260 C   0  0  0  0  0  2  0  0  0  0  0  0
  185.2200  178.1540  145.9960 O   0  0  0  0  0  0  0  0  0  0  0  0
  190.9100  176.8980  147.3600 C   0  0  0  0  0  1  0  0  0  0  0  0
  186.6660  177.4580  144.1830 C   0  0  2  0  0  3  0  0  0  0  0  0
  188.7300  177.4040  146.2650 C   0  0  0  0  0  0  0  0  0  0  0  0
  181.8570  179.2830  137.9530 N   0  0  0  0  0  2  0  0  0  0  0  0
  181.0380  180.3860  137.5400 C   0  0  0  0  0  0  0  0  0  0  0  0
  180.5270  181.1750  138.3780 O   0  0  0  0  0  0  0  0  0  0  0  0
  180.7790  180.5950  136.0910 C   0  0  0  0  0  1  0  0  0  0  0  0
  1 16  1  0  0  0  0
  2 24  1  6  0  0  0
  2 27  1  0  0  0  0
  3 11  2  0  0  0  0
  3  4  1  0  0  0  0
  4 21  2  0  0  0  0
  5 25  2  0  0  0  0
  5  6  1  0  0  0  0
  6 18  1  0  0  0  0
  7 19  1  6  0  0  0
  7 24  1  0  0  0  0
  8 17  1  0  0  0  0
  8 12  1  0  0  0  0
  9 26  1  0  0  0  0
  9 15  1  0  0  0  0
 11 13  1  0  0  0  0
 12  2  1  0  0  0  0
 13 12  1  0  0  0  0
 13 22  2  0  0  0  0
 14 27  1  0  0  0  0
 14 23  1  0  0  0  0
 16 19  1  0  0  0  0
 17 10  1  6  0  0  0
 17  7  1  0  0  0  0
 18 15  2  0  0  0  0
 20 10  1  0  0  0  0
 20  1  2  0  0  0  0
 21 22  1  0  0  0  0
 22 14  1  0  0  0  0
 23 28  1  0  0  0  0
 27  5  1  1  0  0  0
 28  6  1  0  0  0  0
 28  9  2  0  0  0  0
 29 20  1  0  0  0  0
 30 29  1  0  0  0  0
 30 31  2  0  0  0  0
 32 30  1  0  0  0  0
M  END
>  <MODEL>
2

>  <REMARK>
 VINA RESULT:     -10.4      3.756      7.890
  Name = 
  1 active torsions:
  status: ('A' for Active; 'I' for Inactive)
    1  A    between atoms: C_20  and  N_29
                            x       y       z     vdW  Elec       q    Type
                         _______ _______ _______ _____ _____    ______ ____

>  <TORSDO>
F 1

$$$$
=
 OpenBabel11122410373D

 32 37  0  0  1  0  0  0  0  0999 V2000
  188.6440  178.4040  148.1370 C   0  0  0  0  0  3  0  0  0  0  0  0
  185.7480  177.9620  143.4720 C   0  0  1  0  0  3  0  0  0  0  0  0
  189.3290  177.7670  140.0240 C   0  0  0  0  0  3  0  0  0  0  0  0
  188.4450  178.2530  139.0630 C   0  0  0  0  0  3  0  0  0  0  0  0
  183.4940  178.8230  142.7770 C   0  0  0  0  0  0  0  0  0  0  0  0
  182.6170  178.7720  141.6550 N   0  0  0  0  0  0  0  0  0  0  0  0
  186.4770  177.5660  145.8430 C   0  0  1  0  0  3  0  0  0  0  0  0
  187.9880  176.9390  143.9750 C   0  0  0  0  0  2  0  0  0  0  0  0
  182.0640  179.0340  139.4920 C   0  0  0  0  0  0  0  0  0  0  0  0
  188.7680  176.6560  146.3280 C   0  0  0  0  0  2  0  0  0  0  0  0
  188.9020  177.6040  141.3420 C   0  0  0  0  0  3  0  0  0  0  0  0
  187.1480  177.7340  143.0740 N   0  0  0  0  0  0  0  0  0  0  0  0
  187.5850  177.9270  141.7180 C   0  0  0  0  0  0  0  0  0  0  0  0
  185.3500  178.7840  141.1230 N   0  0  0  0  0  0  0  0  0  0  0  0
  180.7670  178.7680  140.1890 C   0  0  0  0  0  3  0  0  0  0  0  0
  187.3570  179.0440  147.7000 C   0  0  0  0  0  2  0  0  0  0  0  0
  187.9380  177.5110  145.3830 C   0  0  2  0  0  3  0  0  0  0  0  0
  181.1720  178.6270  141.6660 C   0  0  0  0  0  3  0  0  0  0  0  0
  186.3130  178.0110  147.2980 C   0  0  0  0  0  2  0  0  0  0  0  0
  189.3090  177.4090  147.5180 C   0  0  0  0  0  0  0  0  0  0  0  0
  187.1390  178.5820  139.4250 C   0  0  0  0  0  3  0  0  0  0  0  0
  186.6970  178.4310  140.7530 C   0  0  0  0  0  0  0  0  0  0  0  0
  184.4850  179.3540  140.0780 C   0  0  0  0  0  2  0  0  0  0  0  0
  185.6990  178.4850  144.9130 C   0  0  0  0  0  2  0  0  0  0  0  0
  183.0160  178.8190  143.9420 O   0  0  0  0  0  0  0  0  0  0  0  0
  182.1890  179.3250  138.0360 C   0  0  0  0  0  1  0  0  0  0  0  0
  184.9950  178.9480  142.5530 C   0  0  2  0  0  3  0  0  0  0  0  0
  183.0640  179.0100  140.3480 C   0  0  0  0  0  0  0  0  0  0  0  0
  190.5430  176.9190  148.0650 N   0  0  0  0  0  2  0  0  0  0  0  0
  191.6800  176.4260  147.3440 C   0  0  0  0  0  0  0  0  0  0  0  0
  191.6730  176.3380  146.0880 O   0  0  0  0  0  0  0  0  0  0  0  0
  192.8900  176.0030  148.0960 C   0  0  0  0  0  1  0  0  0  0  0  0
  2 24  1  1  0  0  0
  3 11  1  0  0  0  0
  4 21  1  0  0  0  0
  4  3  2  0  0  0  0
  5 25  2  0  0  0  0
  6 18  1  0  0  0  0
  6  5  1  0  0  0  0
  7 24  1  6  0  0  0
  7 19  1  0  0  0  0
  9 15  1  0  0  0  0
  9 28  2  0  0  0  0
 10 20  1  0  0  0  0
 11 13  2  0  0  0  0
 12  2  1  0  0  0  0
 12  8  1  0  0  0  0
 13 12  1  0  0  0  0
 14 27  1  0  0  0  0
 15 18  2  0  0  0  0
 16  1  1  0  0  0  0
 17  8  1  6  0  0  0
 17  7  1  0  0  0  0
 17 10  1  0  0  0  0
 19 16  1  0  0  0  0
 20 29  1  0  0  0  0
 20  1  2  0  0  0  0
 21 22  2  0  0  0  0
 22 14  1  0  0  0  0
 22 13  1  0  0  0  0
 23 28  1  0  0  0  0
 23 14  1  0  0  0  0
 26  9  1  0  0  0  0
 27  5  1  6  0  0  0
 27  2  1  0  0  0  0
 28  6  1  0  0  0  0
 30 29  1  0  0  0  0
 30 32  1  0  0  0  0
 31 30  2  0  0  0  0
M  END
>  <MODEL>
3

>  <REMARK>
 VINA RESULT:     -10.2      3.594      7.084
  Name = 
  1 active torsions:
  status: ('A' for Active; 'I' for Inactive)
    1  A    between atoms: C_20  and  N_29
                            x       y       z     vdW  Elec       q    Type
                         _______ _______ _______ _____ _____    ______ ____

>  <TORSDO>
F 1

$$$$
=
 OpenBabel11122410373D

 32 37  0  0  1  0  0  0  0  0999 V2000
  185.3630  179.4010  145.6750 C   0  0  0  0  0  3  0  0  0  0  0  0
  187.2790  177.6850  140.8020 C   0  0  1  0  0  3  0  0  0  0  0  0
  192.1300  177.0870  141.7300 C   0  0  0  0  0  3  0  0  0  0  0  0
  192.4210  177.2670  140.3800 C   0  0  0  0  0  3  0  0  0  0  0  0
  186.5850  178.1580  138.4360 C   0  0  0  0  0  0  0  0  0  0  0  0
  186.9440  177.7820  137.1090 N   0  0  0  0  0  0  0  0  0  0  0  0
  185.7880  177.8840  142.8140 C   0  0  1  0  0  3  0  0  0  0  0  0
  188.0970  177.0120  143.0820 C   0  0  0  0  0  2  0  0  0  0  0  0
  188.3600  177.5150  135.3830 C   0  0  0  0  0  0  0  0  0  0  0  0
  186.6650  177.3220  145.1000 C   0  0  0  0  0  2  0  0  0  0  0  0
  190.8100  177.1740  142.1740 C   0  0  0  0  0  3  0  0  0  0  0  0
  188.4040  177.5100  141.7370 N   0  0  0  0  0  0  0  0  0  0  0  0
  189.7640  177.4450  141.2730 C   0  0  0  0  0  0  0  0  0  0  0  0
  189.0020  177.9370  138.9800 N   0  0  0  0  0  0  0  0  0  0  0  0
  187.0010  177.2860  134.8020 C   0  0  0  0  0  3  0  0  0  0  0  0
  185.0170  179.8060  144.2690 C   0  0  0  0  0  2  0  0  0  0  0  0
  187.0180  177.8690  143.7260 C   0  0  2  0  0  3  0  0  0  0  0  0
  186.0540  177.5070  135.9940 C   0  0  0  0  0  3  0  0  0  0  0  0
  184.5880  178.6170  143.4210 C   0  0  0  0  0  2  0  0  0  0  0  0
  186.1340  178.3630  146.0550 C   0  0  0  0  0  0  0  0  0  0  0  0
  191.3920  177.5410  139.4790 C   0  0  0  0  0  3  0  0  0  0  0  0
  190.0570  177.6410  139.9140 C   0  0  0  0  0  0  0  0  0  0  0  0
  189.3810  178.1820  137.5790 C   0  0  0  0  0  2  0  0  0  0  0  0
  186.1690  178.5010  141.4770 C   0  0  0  0  0  2  0  0  0  0  0  0
  185.3750  178.3610  138.7190 O   0  0  0  0  0  0  0  0  0  0  0  0
  189.6240  177.4940  134.5940 C   0  0  0  0  0  1  0  0  0  0  0  0
  187.6740  178.3730  139.4780 C   0  0  2  0  0  3  0  0  0  0  0  0
  188.2760  177.7720  136.6720 C   0  0  0  0  0  0  0  0  0  0  0  0
  186.3790  178.1210  147.4490 N   0  0  0  0  0  2  0  0  0  0  0  0
  187.6470  178.0990  148.1190 C   0  0  0  0  0  0  0  0  0  0  0  0
  188.7250  178.2570  147.4890 O   0  0  0  0  0  0  0  0  0  0  0  0
  187.6880  177.8740  149.5870 C   0  0  0  0  0  1  0  0  0  0  0  0
  1 20  2  0  0  0  0
  2 24  1  1  0  0  0
  2 12  1  0  0  0  0
  3 11  1  0  0  0  0
  4  3  2  0  0  0  0
  5 25  2  0  0  0  0
  6  5  1  0  0  0  0
  7 24  1  6  0  0  0
  7 19  1  0  0  0  0
  7 17  1  0  0  0  0
  9 28  2  0  0  0  0
 10 20  1  0  0  0  0
 12  8  1  0  0  0  0
 13 12  1  0  0  0  0
 13 11  2  0  0  0  0
 14 27  1  0  0  0  0
 14 22  1  0  0  0  0
 15  9  1  0  0  0  0
 15 18  2  0  0  0  0
 16  1  1  0  0  0  0
 17  8  1  6  0  0  0
 17 10  1  0  0  0  0
 18  6  1  0  0  0  0
 19 16  1  0  0  0  0
 20 29  1  0  0  0  0
 21 22  2  0  0  0  0
 21  4  1  0  0  0  0
 22 13  1  0  0  0  0
 23 14  1  0  0  0  0
 26  9  1  0  0  0  0
 27  5  1  6  0  0  0
 27  2  1  0  0  0  0
 28  6  1  0  0  0  0
 28 23  1  0  0  0  0
 29 30  1  0  0  0  0
 30 32  1  0  0  0  0
 31 30  2  0  0  0  0
M  END
>  <MODEL>
4

>  <REMARK>
 VINA RESULT:      -8.7      3.060      8.018
  Name = 
  1 active torsions:
  status: ('A' for Active; 'I' for Inactive)
    1  A    between atoms: C_20  and  N_29
                            x       y       z     vdW  Elec       q    Type
                         _______ _______ _______ _____ _____    ______ ____

>  <TORSDO>
F 1

$$$$
=
 OpenBabel11122410373D

 32 37  0  0  1  0  0  0  0  0999 V2000
  188.7530  176.5440  137.5530 C   0  0  0  0  0  3  0  0  0  0  0  0
  184.6610  178.9240  140.3720 C   0  0  1  0  0  3  0  0  0  0  0  0
  186.1280  178.3000  145.0850 C   0  0  0  0  0  3  0  0  0  0  0  0
  184.8070  178.3850  145.5190 C   0  0  0  0  0  3  0  0  0  0  0  0
  182.2010  179.1640  139.9300 C   0  0  0  0  0  0  0  0  0  0  0  0
  181.0490  179.7580  140.5230 N   0  0  0  0  0  0  0  0  0  0  0  0
  186.4190  178.5670  138.6140 C   0  0  1  0  0  3  0  0  0  0  0  0
  187.0990  178.8690  140.9820 C   0  0  0  0  0  2  0  0  0  0  0  0
  179.5780  180.1280  142.1810 C   0  0  0  0  0  0  0  0  0  0  0  0
  188.8400  178.3940  139.2610 C   0  0  0  0  0  2  0  0  0  0  0  0
  186.4190  178.3800  143.7220 C   0  0  0  0  0  3  0  0  0  0  0  0
  185.7040  178.6470  141.3760 N   0  0  0  0  0  0  0  0  0  0  0  0
  185.3910  178.5420  142.7750 C   0  0  0  0  0  0  0  0  0  0  0  0
  182.9910  178.7610  142.2530 N   0  0  0  0  0  0  0  0  0  0  0  0
  178.9580  180.7550  140.9730 C   0  0  0  0  0  3  0  0  0  0  0  0
  187.2660  176.5550  137.3330 C   0  0  0  0  0  2  0  0  0  0  0  0
  187.4080  178.1210  139.6950 C   0  0  2  0  0  3  0  0  0  0  0  0
  179.9680  180.4580  139.8520 C   0  0  0  0  0  3  0  0  0  0  0  0
  186.7130  177.9700  137.2350 C   0  0  0  0  0  2  0  0  0  0  0  0
  189.4490  177.2880  138.4340 C   0  0  0  0  0  0  0  0  0  0  0  0
  183.7790  178.5400  144.5870 C   0  0  0  0  0  3  0  0  0  0  0  0
  184.0570  178.6130  143.2090 C   0  0  0  0  0  0  0  0  0  0  0  0
  181.6130  178.7770  142.7670 C   0  0  0  0  0  2  0  0  0  0  0  0
  185.0080  178.2140  139.0580 C   0  0  0  0  0  2  0  0  0  0  0  0
  182.3170  179.1480  138.6760 O   0  0  0  0  0  0  0  0  0  0  0  0
  178.9330  180.0770  143.5240 C   0  0  0  0  0  1  0  0  0  0  0  0
  183.2450  178.4980  140.8150 C   0  0  2  0  0  3  0  0  0  0  0  0
  180.7470  179.6010  141.8820 C   0  0  0  0  0  0  0  0  0  0  0  0
  190.8750  177.1450  138.5290 N   0  0  0  0  0  2  0  0  0  0  0  0
  191.6470  175.9550  138.3130 C   0  0  0  0  0  0  0  0  0  0  0  0
  191.0960  174.8550  138.0460 O   0  0  0  0  0  0  0  0  0  0  0  0
  193.1280  176.0220  138.4150 C   0  0  0  0  0  1  0  0  0  0  0  0
  1 20  2  0  0  0  0
  2 24  1  6  0  0  0
  2 27  1  0  0  0  0
  2 12  1  0  0  0  0
  3  4  1  0  0  0  0
  5  6  1  0  0  0  0
  6 28  1  0  0  0  0
  7 19  1  6  0  0  0
  7 24  1  0  0  0  0
  7 17  1  0  0  0  0
  8 12  1  0  0  0  0
  9 26  1  0  0  0  0
 11  3  2  0  0  0  0
 12 13  1  0  0  0  0
 13 22  2  0  0  0  0
 13 11  1  0  0  0  0
 14 23  1  0  0  0  0
 14 22  1  0  0  0  0
 15  9  1  0  0  0  0
 16  1  1  0  0  0  0
 17 10  1  6  0  0  0
 17  8  1  0  0  0  0
 18  6  1  0  0  0  0
 18 15  2  0  0  0  0
 19 16  1  0  0  0  0
 20 29  1  0  0  0  0
 20 10  1  0  0  0  0
 21  4  2  0  0  0  0
 22 21  1  0  0  0  0
 25  5  2  0  0  0  0
 27  5  1  6  0  0  0
 27 14  1  0  0  0  0
 28  9  2  0  0  0  0
 28 23  1  0  0  0  0
 30 32  1  0  0  0  0
 30 29  1  0  0  0  0
 31 30  2  0  0  0  0
M  END
>  <MODEL>
5

>  <REMARK>
 VINA RESULT:      -8.6      3.204      5.013
  Name = 
  1 active torsions:
  status: ('A' for Active; 'I' for Inactive)
    1  A    between atoms: C_20  and  N_29
                            x       y       z     vdW  Elec       q    Type
                         _______ _______ _______ _____ _____    ______ ____

>  <TORSDO>
F 1

$$$$
=
 OpenBabel11122410373D

 32 37  0  0  1  0  0  0  0  0999 V2000
  189.9450  178.0650  148.3500 C   0  0  0  0  0  3  0  0  0  0  0  0
  186.7410  177.7440  143.8800 C   0  0  1  0  0  3  0  0  0  0  0  0
  190.0840  177.5030  140.2040 C   0  0  0  0  0  3  0  0  0  0  0  0
  189.1520  178.0200  139.3070 C   0  0  0  0  0  3  0  0  0  0  0  0
  184.4680  178.6680  143.3420 C   0  0  0  0  0  0  0  0  0  0  0  0
  183.5190  178.6500  142.2790 N   0  0  0  0  0  0  0  0  0  0  0  0
  187.6130  177.3050  146.1940 C   0  0  1  0  0  3  0  0  0  0  0  0
  188.9830  176.6630  144.2260 C   0  0  0  0  0  2  0  0  0  0  0  0
  182.8330  178.9490  140.1600 C   0  0  0  0  0  0  0  0  0  0  0  0
  189.9070  176.3350  146.5200 C   0  0  0  0  0  2  0  0  0  0  0  0
  189.7390  177.3350  141.5460 C   0  0  0  0  0  3  0  0  0  0  0  0
  188.1060  177.4870  143.3890 N   0  0  0  0  0  0  0  0  0  0  0  0
  188.4590  177.6860  142.0100 C   0  0  0  0  0  0  0  0  0  0  0  0
  186.2110  178.6030  141.5700 N   0  0  0  0  0  0  0  0  0  0  0  0
  181.5780  178.7070  140.9380 C   0  0  0  0  0  3  0  0  0  0  0  0
  188.6480  178.7410  148.0040 C   0  0  0  0  0  2  0  0  0  0  0  0
  189.0380  177.2200  145.6400 C   0  0  2  0  0  3  0  0  0  0  0  0
  182.0740  178.5390  142.3840 C   0  0  0  0  0  3  0  0  0  0  0  0
  187.5540  177.7380  147.6620 C   0  0  0  0  0  2  0  0  0  0  0  0
  190.5430  177.0620  147.6790 C   0  0  0  0  0  0  0  0  0  0  0  0
  187.8800  178.3760  139.7580 C   0  0  0  0  0  3  0  0  0  0  0  0
  187.5220  178.2210  141.1100 C   0  0  0  0  0  0  0  0  0  0  0  0
  185.2940  179.2040  140.5890 C   0  0  0  0  0  2  0  0  0  0  0  0
  186.7990  178.2530  145.3260 C   0  0  0  0  0  2  0  0  0  0  0  0
  184.0670  178.6620  144.5360 O   0  0  0  0  0  0  0  0  0  0  0  0
  182.8700  179.2530  138.7020 C   0  0  0  0  0  1  0  0  0  0  0  0
  185.9540  178.7590  143.0220 C   0  0  2  0  0  3  0  0  0  0  0  0
  183.8850  178.8910  140.9480 C   0  0  0  0  0  0  0  0  0  0  0  0
  191.7970  176.5350  148.1400 N   0  0  0  0  0  2  0  0  0  0  0  0
  192.6930  177.1260  149.0910 C   0  0  0  0  0  0  0  0  0  0  0  0
  192.4580  178.2530  149.6020 O   0  0  0  0  0  0  0  0  0  0  0  0
  193.9310  176.3970  149.4730 C   0  0  0  0  0  1  0  0  0  0  0  0
  2 24  1  1  0  0  0
  3 11  1  0  0  0  0
  4 21  1  0  0  0  0
  4  3  2  0  0  0  0
  5 25  2  0  0  0  0
  6 18  1  0  0  0  0
  6  5  1  0  0  0  0
  7 24  1  6  0  0  0
  7 19  1  0  0  0  0
  9 15  1  0  0  0  0
  9 28  2  0  0  0  0
 10 20  1  0  0  0  0
 11 13  2  0  0  0  0
 12  2  1  0  0  0  0
 12  8  1  0  0  0  0
 13 12  1  0  0  0  0
 14 27  1  0  0  0  0
 15 18  2  0  0  0  0
 16  1  1  0  0  0  0
 17  8  1  6  0  0  0
 17  7  1  0  0  0  0
 17 10  1  0  0  0  0
 19 16  1  0  0  0  0
 20 29  1  0  0  0  0
 20  1  2  0  0  0  0
 21 22  2  0  0  0  0
 22 14  1  0  0  0  0
 22 13  1  0  0  0  0
 23 28  1  0  0  0  0
 23 14  1  0  0  0  0
 26  9  1  0  0  0  0
 27  5  1  6  0  0  0
 27  2  1  0  0  0  0
 28  6  1  0  0  0  0
 29 30  1  0  0  0  0
 30 32  1  0  0  0  0
 30 31  2  0  0  0  0
M  END
>  <MODEL>
6

>  <REMARK>
 VINA RESULT:      -8.4      3.668      7.010
  Name = 
  1 active torsions:
  status: ('A' for Active; 'I' for Inactive)
    1  A    between atoms: C_20  and  N_29
                            x       y       z     vdW  Elec       q    Type
                         _______ _______ _______ _____ _____    ______ ____

>  <TORSDO>
F 1

$$$$
