=
 OpenBabel11122412063D

 34 40  0  0  1  0  0  0  0  0999 V2000
  187.5700  178.2720  139.4490 C   0  0  0  0  0  0  0  0  0  0  0  0
  185.4280  177.8760  138.2080 C   0  0  0  0  0  2  0  0  0  0  0  0
  190.4760  176.5010  145.0520 C   0  0  1  0  0  3  0  0  0  0  0  0
  189.3220  177.6910  141.0230 C   0  0  0  0  0  0  0  0  0  0  0  0
  188.8540  177.9110  143.5480 C   0  0  2  0  0  3  0  0  0  0  0  0
  188.7870  178.0790  146.0540 C   0  0  0  0  0  1  0  0  0  0  0  0
  190.6140  175.4240  144.1950 F   0  0  0  0  0  0  0  0  0  0  0  0
  191.5590  178.6130  144.0120 C   0  0  0  0  0  2  0  0  0  0  0  0
  185.3220  179.1610  140.2540 N   0  0  2  0  0  0  0  0  0  0  0  0
  182.6540  178.7500  141.8980 C   0  0  0  0  0  2  0  0  0  0  0  0
  187.4060  177.7070  143.1260 C   0  0  0  0  0  2  0  0  0  0  0  0
  191.2070  178.2100  142.5790 C   0  0  0  0  0  2  0  0  0  0  0  0
  185.6280  178.4560  141.5230 C   0  0  1  0  0  3  0  0  0  0  0  0
  184.0300  178.3980  138.3260 C   0  0  0  0  0  2  0  0  0  0  0  0
  189.8450  177.5100  142.4300 C   0  0  2  0  0  3  0  0  0  0  0  0
  191.7010  177.4250  144.9640 C   0  0  0  0  0  2  0  0  0  0  0  0
  183.0020  178.0560  140.5920 C   0  0  2  0  0  3  0  0  0  0  0  0
  188.0050  178.1390  140.7710 C   0  0  0  0  0  0  0  0  0  0  0  0
  189.0990  177.1720  144.8770 C   0  0  2  0  0  3  0  0  0  0  0  0
  187.1110  178.5590  141.8950 C   0  0  2  0  0  3  0  0  0  0  0  0
  189.7220  177.4830  138.6880 C   0  0  0  0  0  3  0  0  0  0  0  0
  183.6190  178.3820  142.9210 N   0  0  0  0  0  2  0  0  0  0  0  0
  190.1280  177.3590  139.9770 N   0  0  0  0  0  0  0  0  0  0  0  0
  184.8450  179.1170  142.6600 C   0  0  0  0  0  2  0  0  0  0  0  0
  183.9370  178.9470  139.7410 C   0  0  1  0  0  3  0  0  0  0  0  0
  188.4410  177.9490  138.4020 C   0  0  0  0  0  3  0  0  0  0  0  0
  186.1980  178.7950  139.1210 C   0  0  1  0  0  3  0  0  0  0  0  0
  181.8140  177.7990  139.9010 O   0  0  0  0  0  0  0  0  0  0  0  0
  180.8590  178.6140  140.5150 C   0  0  0  0  0  2  0  0  0  0  0  0
  181.2570  181.1340  138.4160 O   0  0  0  0  0  0  0  0  0  0  0  0
  180.4850  178.9490  138.1430 N   0  0  0  0  0  2  0  0  0  0  0  0
  180.0920  179.3920  139.4610 C   0  0  2  0  0  3  0  0  0  0  0  0
  180.8980  180.1670  137.4650 C   0  0  0  0  0  2  0  0  0  0  0  0
  180.4720  180.8460  139.5350 C   0  0  0  0  0  2  0  0  0  0  0  0
  1 18  1  0  0  0  0
  2 14  1  0  0  0  0
  2 27  1  0  0  0  0
  3  7  1  6  0  0  0
  4 15  1  0  0  0  0
  5 11  1  6  0  0  0
  5 19  1  0  0  0  0
  8 16  1  0  0  0  0
  9 13  1  0  0  0  0
 10 22  1  0  0  0  0
 12  8  1  0  0  0  0
 13 20  1  0  0  0  0
 13 24  1  0  0  0  0
 14 25  1  0  0  0  0
 15 12  1  0  0  0  0
 15  5  1  0  0  0  0
 16  3  1  0  0  0  0
 17 10  1  0  0  0  0
 18  4  2  0  0  0  0
 18 20  1  0  0  0  0
 19  3  1  0  0  0  0
 19  6  1  0  0  0  0
 20 11  1  0  0  0  0
 21 23  2  0  0  0  0
 23  4  1  0  0  0  0
 24 22  1  0  0  0  0
 25  9  1  0  0  0  0
 25 17  1  0  0  0  0
 26 21  1  0  0  0  0
 26  1  2  0  0  0  0
 27  1  1  0  0  0  0
 27  9  1  0  0  0  0
 28 29  1  0  0  0  0
 28 17  1  0  0  0  0
 30 34  1  0  0  0  0
 31 32  1  0  0  0  0
 32 34  1  0  0  0  0
 32 29  1  0  0  0  0
 33 31  1  0  0  0  0
 33 30  1  0  0  0  0
M  END
>  <MODEL>
1

>  <REMARK>
 VINA RESULT:      -8.7      0.000      0.000
  Name = 
  3 active torsions:
  status: ('A' for Active; 'I' for Inactive)
    1  A    between atoms: C_17  and  O_28
    2  A    between atoms: O_28  and  C_29
    3  A    between atoms: C_29  and  C_32
                            x       y       z     vdW  Elec       q    Type
                         _______ _______ _______ _____ _____    ______ ____

>  <TORSDO>
F 3

$$$$
=
 OpenBabel11122412063D

 34 40  0  0  1  0  0  0  0  0999 V2000
  187.5960  178.2490  139.3770 C   0  0  0  0  0  0  0  0  0  0  0  0
  185.4690  177.8250  138.1170 C   0  0  0  0  0  2  0  0  0  0  0  0
  190.4600  176.5400  145.0210 C   0  0  1  0  0  3  0  0  0  0  0  0
  189.3370  177.6940  140.9730 C   0  0  0  0  0  0  0  0  0  0  0  0
  188.8410  177.9260  143.4910 C   0  0  2  0  0  3  0  0  0  0  0  0
  188.7470  178.1090  145.9950 C   0  0  0  0  0  1  0  0  0  0  0  0
  190.6170  175.4590  144.1720 F   0  0  0  0  0  0  0  0  0  0  0  0
  191.5350  178.6550  143.9780 C   0  0  0  0  0  2  0  0  0  0  0  0
  185.3310  179.1220  140.1540 N   0  0  2  0  0  0  0  0  0  0  0  0
  182.6510  178.6970  141.7740 C   0  0  0  0  0  2  0  0  0  0  0  0
  187.3990  177.7060  143.0560 C   0  0  0  0  0  2  0  0  0  0  0  0
  191.2000  178.2400  142.5440 C   0  0  0  0  0  2  0  0  0  0  0  0
  185.6300  178.4280  141.4300 C   0  0  1  0  0  3  0  0  0  0  0  0
  184.0660  178.3350  138.2170 C   0  0  0  0  0  2  0  0  0  0  0  0
  189.8470  177.5270  142.3860 C   0  0  2  0  0  3  0  0  0  0  0  0
  191.6780  177.4750  144.9390 C   0  0  0  0  0  2  0  0  0  0  0  0
  183.0180  177.9980  140.4760 C   0  0  2  0  0  3  0  0  0  0  0  0
  188.0180  178.1280  140.7040 C   0  0  0  0  0  0  0  0  0  0  0  0
  189.0790  177.1970  144.8280 C   0  0  2  0  0  3  0  0  0  0  0  0
  187.1090  178.5470  141.8170 C   0  0  2  0  0  3  0  0  0  0  0  0
  189.7620  177.4750  138.6430 C   0  0  0  0  0  3  0  0  0  0  0  0
  183.6080  178.3440  142.8090 N   0  0  0  0  0  2  0  0  0  0  0  0
  190.1560  177.3630  139.9370 N   0  0  0  0  0  0  0  0  0  0  0  0
  184.8300  179.0890  142.5550 C   0  0  0  0  0  2  0  0  0  0  0  0
  183.9530  178.8930  139.6290 C   0  0  1  0  0  3  0  0  0  0  0  0
  188.4800  177.9280  138.3410 C   0  0  0  0  0  3  0  0  0  0  0  0
  186.2210  178.7570  139.0320 C   0  0  1  0  0  3  0  0  0  0  0  0
  181.8390  177.7250  139.7740 O   0  0  0  0  0  0  0  0  0  0  0  0
  180.8130  177.9710  140.6900 C   0  0  0  0  0  2  0  0  0  0  0  0
  180.0270  174.9050  139.7420 O   0  0  0  0  0  0  0  0  0  0  0  0
  179.2550  176.2820  141.4610 N   0  0  0  0  0  2  0  0  0  0  0  0
  179.5990  177.1280  140.3420 C   0  0  2  0  0  3  0  0  0  0  0  0
  179.2390  174.9390  140.9020 C   0  0  0  0  0  2  0  0  0  0  0  0
  179.9430  176.1960  139.2130 C   0  0  0  0  0  2  0  0  0  0  0  0
  1 18  1  0  0  0  0
  2 14  1  0  0  0  0
  2 27  1  0  0  0  0
  3  7  1  6  0  0  0
  4 15  1  0  0  0  0
  5 11  1  6  0  0  0
  5 19  1  0  0  0  0
  8 16  1  0  0  0  0
  9 13  1  0  0  0  0
 10 22  1  0  0  0  0
 12  8  1  0  0  0  0
 13 20  1  0  0  0  0
 13 24  1  0  0  0  0
 14 25  1  0  0  0  0
 15 12  1  0  0  0  0
 15  5  1  0  0  0  0
 16  3  1  0  0  0  0
 17 10  1  0  0  0  0
 18  4  2  0  0  0  0
 18 20  1  0  0  0  0
 19  3  1  0  0  0  0
 19  6  1  0  0  0  0
 20 11  1  0  0  0  0
 21 23  2  0  0  0  0
 23  4  1  0  0  0  0
 24 22  1  0  0  0  0
 25  9  1  0  0  0  0
 25 17  1  0  0  0  0
 26 21  1  0  0  0  0
 26  1  2  0  0  0  0
 27  1  1  0  0  0  0
 27  9  1  0  0  0  0
 28 17  1  0  0  0  0
 28 29  1  0  0  0  0
 30 33  1  0  0  0  0
 32 29  1  0  0  0  0
 32 31  1  0  0  0  0
 33 31  1  0  0  0  0
 34 30  1  0  0  0  0
 34 32  1  0  0  0  0
M  END
>  <MODEL>
2

>  <REMARK>
 VINA RESULT:      -8.6      1.348      1.974
  Name = 
  3 active torsions:
  status: ('A' for Active; 'I' for Inactive)
    1  A    between atoms: C_17  and  O_28
    2  A    between atoms: O_28  and  C_29
    3  A    between atoms: C_29  and  C_32
                            x       y       z     vdW  Elec       q    Type
                         _______ _______ _______ _____ _____    ______ ____

>  <TORSDO>
F 3

$$$$
=
 OpenBabel11122412063D

 34 40  0  0  1  0  0  0  0  0999 V2000
  182.3080  179.0030  143.3290 C   0  0  0  0  0  0  0  0  0  0  0  0
  183.5330  178.6170  145.4830 C   0  0  0  0  0  2  0  0  0  0  0  0
  181.8170  176.3700  137.3450 C   0  0  1  0  0  3  0  0  0  0  0  0
  181.3380  178.3150  141.2140 C   0  0  0  0  0  0  0  0  0  0  0  0
  182.9000  177.8560  139.2160 C   0  0  2  0  0  3  0  0  0  0  0  0
  184.0920  177.4090  137.0500 C   0  0  0  0  0  1  0  0  0  0  0  0
  181.0680  175.5600  138.1800 F   0  0  0  0  0  0  0  0  0  0  0  0
  180.9200  178.8000  137.4230 C   0  0  0  0  0  2  0  0  0  0  0  0
  184.8220  179.3470  143.5720 N   0  0  2  0  0  0  0  0  0  0  0  0
  187.7590  178.1840  143.4760 C   0  0  0  0  0  2  0  0  0  0  0  0
  183.9240  177.5570  140.3010 C   0  0  0  0  0  2  0  0  0  0  0  0
  180.5050  178.7070  138.8930 C   0  0  0  0  0  2  0  0  0  0  0  0
  184.9440  178.4100  142.4290 C   0  0  1  0  0  3  0  0  0  0  0  0
  184.9210  178.8930  145.9710 C   0  0  0  0  0  2  0  0  0  0  0  0
  181.4570  177.8780  139.7720 C   0  0  2  0  0  3  0  0  0  0  0  0
  180.9320  177.4520  136.7040 C   0  0  0  0  0  2  0  0  0  0  0  0
  186.7220  177.8780  144.5450 C   0  0  2  0  0  3  0  0  0  0  0  0
  182.4780  178.6190  141.9950 C   0  0  0  0  0  0  0  0  0  0  0  0
  183.0930  176.8620  138.0540 C   0  0  2  0  0  3  0  0  0  0  0  0
  183.8440  178.6280  141.3850 C   0  0  2  0  0  3  0  0  0  0  0  0
  179.9220  178.7300  143.0790 C   0  0  0  0  0  3  0  0  0  0  0  0
  187.2810  177.7210  142.1830 N   0  0  0  0  0  2  0  0  0  0  0  0
  180.1040  178.3600  141.7860 N   0  0  0  0  0  0  0  0  0  0  0  0
  186.2760  178.6620  141.7190 C   0  0  0  0  0  2  0  0  0  0  0  0
  185.7500  179.0690  144.7070 C   0  0  1  0  0  3  0  0  0  0  0  0
  181.0190  179.0660  143.8690 C   0  0  0  0  0  3  0  0  0  0  0  0
  183.4800  179.3900  144.1910 C   0  0  1  0  0  3  0  0  0  0  0  0
  187.3910  177.6290  145.7480 O   0  0  0  0  0  0  0  0  0  0  0  0
  188.7370  177.8770  145.4670 C   0  0  0  0  0  2  0  0  0  0  0  0
  191.8680  177.1340  146.2190 O   0  0  0  0  0  0  0  0  0  0  0  0
  189.8470  176.8140  147.3410 N   0  0  0  0  0  2  0  0  0  0  0  0
  189.5840  176.7030  145.9250 C   0  0  2  0  0  3  0  0  0  0  0  0
  191.2960  176.7530  147.4420 C   0  0  0  0  0  2  0  0  0  0  0  0
  190.9280  176.7620  145.2530 C   0  0  0  0  0  2  0  0  0  0  0  0
  1 26  1  0  0  0  0
  1 27  1  0  0  0  0
  2 14  1  0  0  0  0
  3 19  1  0  0  0  0
  3  7  1  1  0  0  0
  4 23  2  0  0  0  0
  4 18  1  0  0  0  0
  5 15  1  0  0  0  0
  5 11  1  1  0  0  0
  6 19  1  0  0  0  0
  8 12  1  0  0  0  0
  9 27  1  0  0  0  0
  9 25  1  0  0  0  0
 10 17  1  0  0  0  0
 11 20  1  0  0  0  0
 12 15  1  0  0  0  0
 13  9  1  0  0  0  0
 15  4  1  0  0  0  0
 16  3  1  0  0  0  0
 16  8  1  0  0  0  0
 17 25  1  0  0  0  0
 17 28  1  0  0  0  0
 18  1  2  0  0  0  0
 19  5  1  0  0  0  0
 20 18  1  0  0  0  0
 20 13  1  0  0  0  0
 21 26  2  0  0  0  0
 22 10  1  0  0  0  0
 23 21  1  0  0  0  0
 24 22  1  0  0  0  0
 24 13  1  0  0  0  0
 25 14  1  0  0  0  0
 27  2  1  0  0  0  0
 29 28  1  0  0  0  0
 29 32  1  0  0  0  0
 30 33  1  0  0  0  0
 31 33  1  0  0  0  0
 32 31  1  0  0  0  0
 34 32  1  0  0  0  0
 34 30  1  0  0  0  0
M  END
>  <MODEL>
3

>  <REMARK>
 VINA RESULT:      -8.3      3.865      9.123
  Name = 
  3 active torsions:
  status: ('A' for Active; 'I' for Inactive)
    1  A    between atoms: C_17  and  O_28
    2  A    between atoms: O_28  and  C_29
    3  A    between atoms: C_29  and  C_32
                            x       y       z     vdW  Elec       q    Type
                         _______ _______ _______ _____ _____    ______ ____

>  <TORSDO>
F 3

$$$$
=
 OpenBabel11122412063D

 34 40  0  0  1  0  0  0  0  0999 V2000
  187.8200  178.1520  139.3130 C   0  0  0  0  0  0  0  0  0  0  0  0
  185.7480  177.6980  137.9750 C   0  0  0  0  0  2  0  0  0  0  0  0
  190.4670  176.5350  145.0890 C   0  0  1  0  0  3  0  0  0  0  0  0
  189.4990  177.6290  140.9840 C   0  0  0  0  0  0  0  0  0  0  0  0
  188.9010  177.8900  143.4770 C   0  0  2  0  0  3  0  0  0  0  0  0
  188.7070  178.1050  145.9730 C   0  0  0  0  0  1  0  0  0  0  0  0
  190.6640  175.4440  144.2610 F   0  0  0  0  0  0  0  0  0  0  0  0
  191.5690  178.6430  144.0610 C   0  0  0  0  0  2  0  0  0  0  0  0
  185.5210  179.0200  139.9870 N   0  0  2  0  0  0  0  0  0  0  0  0
  182.7810  178.5990  141.5040 C   0  0  0  0  0  2  0  0  0  0  0  0
  187.4800  177.6550  142.9880 C   0  0  0  0  0  2  0  0  0  0  0  0
  191.2950  178.2070  142.6210 C   0  0  0  0  0  2  0  0  0  0  0  0
  185.7730  178.3450  141.2830 C   0  0  1  0  0  3  0  0  0  0  0  0
  184.3390  178.2000  138.0120 C   0  0  0  0  0  2  0  0  0  0  0  0
  189.9530  177.4830  142.4190 C   0  0  2  0  0  3  0  0  0  0  0  0
  191.6810  177.4760  145.0430 C   0  0  0  0  0  2  0  0  0  0  0  0
  183.2040  177.8850  140.2310 C   0  0  2  0  0  3  0  0  0  0  0  0
  188.1890  178.0500  140.6570 C   0  0  0  0  0  0  0  0  0  0  0  0
  189.0910  177.1800  144.8320 C   0  0  2  0  0  3  0  0  0  0  0  0
  187.2340  178.4780  141.7270 C   0  0  2  0  0  3  0  0  0  0  0  0
  190.0190  177.3820  138.6760 C   0  0  0  0  0  3  0  0  0  0  0  0
  183.6980  178.2650  142.5810 N   0  0  0  0  0  2  0  0  0  0  0  0
  190.3620  177.2900  139.9860 N   0  0  0  0  0  0  0  0  0  0  0  0
  184.9250  179.0150  142.3660 C   0  0  0  0  0  2  0  0  0  0  0  0
  184.1670  178.7750  139.4100 C   0  0  1  0  0  3  0  0  0  0  0  0
  188.7470  177.8230  138.3170 C   0  0  0  0  0  3  0  0  0  0  0  0
  186.4580  178.6460  138.9060 C   0  0  1  0  0  3  0  0  0  0  0  0
  182.0560  177.5960  139.4860 O   0  0  0  0  0  0  0  0  0  0  0  0
  181.7720  176.2570  139.7730 C   0  0  0  0  0  2  0  0  0  0  0  0
  181.7710  176.6290  136.4900 O   0  0  0  0  0  0  0  0  0  0  0  0
  182.4170  174.8760  137.8890 N   0  0  0  0  0  2  0  0  0  0  0  0
  181.3030  175.5490  138.5150 C   0  0  2  0  0  3  0  0  0  0  0  0
  182.4250  175.3880  136.5280 C   0  0  0  0  0  2  0  0  0  0  0  0
  180.8240  176.5670  137.5160 C   0  0  0  0  0  2  0  0  0  0  0  0
  1 18  1  0  0  0  0
  2 14  1  0  0  0  0
  2 27  1  0  0  0  0
  3  7  1  6  0  0  0
  4 15  1  0  0  0  0
  5 11  1  6  0  0  0
  5 19  1  0  0  0  0
  8 16  1  0  0  0  0
  9 13  1  0  0  0  0
 10 22  1  0  0  0  0
 12  8  1  0  0  0  0
 13 20  1  0  0  0  0
 13 24  1  0  0  0  0
 14 25  1  0  0  0  0
 15 12  1  0  0  0  0
 15  5  1  0  0  0  0
 16  3  1  0  0  0  0
 17 10  1  0  0  0  0
 18  4  2  0  0  0  0
 18 20  1  0  0  0  0
 19  3  1  0  0  0  0
 19  6  1  0  0  0  0
 20 11  1  0  0  0  0
 21 23  2  0  0  0  0
 23  4  1  0  0  0  0
 24 22  1  0  0  0  0
 25  9  1  0  0  0  0
 25 17  1  0  0  0  0
 26 21  1  0  0  0  0
 26  1  2  0  0  0  0
 27  1  1  0  0  0  0
 27  9  1  0  0  0  0
 28 29  1  0  0  0  0
 28 17  1  0  0  0  0
 30 33  1  0  0  0  0
 30 34  1  0  0  0  0
 31 32  1  0  0  0  0
 32 29  1  0  0  0  0
 33 31  1  0  0  0  0
 34 32  1  0  0  0  0
M  END
>  <MODEL>
4

>  <REMARK>
 VINA RESULT:      -8.2      1.553      1.877
  Name = 
  3 active torsions:
  status: ('A' for Active; 'I' for Inactive)
    1  A    between atoms: C_17  and  O_28
    2  A    between atoms: O_28  and  C_29
    3  A    between atoms: C_29  and  C_32
                            x       y       z     vdW  Elec       q    Type
                         _______ _______ _______ _____ _____    ______ ____

>  <TORSDO>
F 3

$$$$
=
 OpenBabel11122412063D

 34 40  0  0  1  0  0  0  0  0999 V2000
  183.6610  178.5090  143.7280 C   0  0  0  0  0  0  0  0  0  0  0  0
  181.6440  179.7520  142.9050 C   0  0  0  0  0  2  0  0  0  0  0  0
  190.1550  178.4150  142.8310 C   0  0  1  0  0  3  0  0  0  0  0  0
  186.0250  178.2580  144.2110 C   0  0  0  0  0  0  0  0  0  0  0  0
  187.6590  177.8380  142.2630 C   0  0  2  0  0  3  0  0  0  0  0  0
  189.5150  177.3390  140.6450 C   0  0  0  0  0  1  0  0  0  0  0  0
  189.8990  179.5010  143.6480 F   0  0  0  0  0  0  0  0  0  0  0  0
  189.2870  176.2410  143.9440 C   0  0  0  0  0  2  0  0  0  0  0  0
  182.7750  178.2870  141.3480 N   0  0  2  0  0  0  0  0  0  0  0  0
  182.7140  179.2940  138.3530 C   0  0  0  0  0  2  0  0  0  0  0  0
  186.6000  178.5570  141.4410 C   0  0  0  0  0  2  0  0  0  0  0  0
  188.1060  176.9390  144.6210 C   0  0  0  0  0  2  0  0  0  0  0  0
  184.1470  178.6640  140.9260 C   0  0  1  0  0  3  0  0  0  0  0  0
  180.8060  179.6980  141.6660 C   0  0  0  0  0  2  0  0  0  0  0  0
  187.4600  178.0550  143.7820 C   0  0  2  0  0  3  0  0  0  0  0  0
  190.4720  177.1680  143.6720 C   0  0  0  0  0  2  0  0  0  0  0  0
  182.1070  180.0210  139.5410 C   0  0  2  0  0  3  0  0  0  0  0  0
  184.9670  178.3020  143.2740 C   0  0  0  0  0  0  0  0  0  0  0  0
  189.0550  178.2580  141.7630 C   0  0  2  0  0  3  0  0  0  0  0  0
  185.2190  178.0350  141.8230 C   0  0  2  0  0  3  0  0  0  0  0  0
  184.4970  178.6630  145.9880 C   0  0  0  0  0  3  0  0  0  0  0  0
  184.1520  179.1790  138.5320 N   0  0  0  0  0  2  0  0  0  0  0  0
  185.7590  178.4600  145.5310 N   0  0  0  0  0  0  0  0  0  0  0  0
  184.3950  178.1330  139.5120 C   0  0  0  0  0  2  0  0  0  0  0  0
  181.6830  179.0090  140.6320 C   0  0  1  0  0  3  0  0  0  0  0  0
  183.4270  178.6820  145.0960 C   0  0  0  0  0  3  0  0  0  0  0  0
  182.4900  178.5110  142.7810 C   0  0  1  0  0  3  0  0  0  0  0  0
  180.9970  180.7460  139.0940 O   0  0  0  0  0  0  0  0  0  0  0  0
  181.5360  181.8020  138.3540 C   0  0  0  0  0  2  0  0  0  0  0  0
  181.1830  184.0900  135.9970 O   0  0  0  0  0  0  0  0  0  0  0  0
  180.6630  181.8170  136.0930 N   0  0  0  0  0  2  0  0  0  0  0  0
  180.4820  182.3650  137.4180 C   0  0  2  0  0  3  0  0  0  0  0  0
  180.7730  182.9860  135.2350 C   0  0  0  0  0  2  0  0  0  0  0  0
  180.6770  183.8500  137.2770 C   0  0  0  0  0  2  0  0  0  0  0  0
  1 26  1  0  0  0  0
  3  7  1  1  0  0  0
  3 16  1  0  0  0  0
  4 23  2  0  0  0  0
  5 11  1  6  0  0  0
  5 15  1  0  0  0  0
  6 19  1  0  0  0  0
  8 12  1  0  0  0  0
  9 27  1  0  0  0  0
 10 22  1  0  0  0  0
 10 17  1  0  0  0  0
 11 20  1  0  0  0  0
 13  9  1  0  0  0  0
 13 20  1  0  0  0  0
 14  2  1  0  0  0  0
 15  4  1  0  0  0  0
 15 12  1  0  0  0  0
 16  8  1  0  0  0  0
 17 25  1  0  0  0  0
 18  1  2  0  0  0  0
 18  4  1  0  0  0  0
 19  5  1  0  0  0  0
 19  3  1  0  0  0  0
 20 18  1  0  0  0  0
 22 24  1  0  0  0  0
 23 21  1  0  0  0  0
 24 13  1  0  0  0  0
 25  9  1  0  0  0  0
 25 14  1  0  0  0  0
 26 21  2  0  0  0  0
 27  2  1  0  0  0  0
 27  1  1  0  0  0  0
 28 17  1  0  0  0  0
 29 28  1  0  0  0  0
 30 34  1  0  0  0  0
 31 32  1  0  0  0  0
 32 29  1  0  0  0  0
 33 30  1  0  0  0  0
 33 31  1  0  0  0  0
 34 32  1  0  0  0  0
M  END
>  <MODEL>
5

>  <REMARK>
 VINA RESULT:      -8.0      2.113      4.338
  Name = 
  3 active torsions:
  status: ('A' for Active; 'I' for Inactive)
    1  A    between atoms: C_17  and  O_28
    2  A    between atoms: O_28  and  C_29
    3  A    between atoms: C_29  and  C_32
                            x       y       z     vdW  Elec       q    Type
                         _______ _______ _______ _____ _____    ______ ____

>  <TORSDO>
F 3

$$$$
=
 OpenBabel11122412063D

 34 40  0  0  1  0  0  0  0  0999 V2000
  184.4160  178.3550  144.3250 C   0  0  0  0  0  0  0  0  0  0  0  0
  182.3410  179.4380  143.4250 C   0  0  0  0  0  2  0  0  0  0  0  0
  190.9200  178.6630  143.5630 C   0  0  1  0  0  3  0  0  0  0  0  0
  186.7800  178.2740  144.8630 C   0  0  0  0  0  0  0  0  0  0  0  0
  188.4800  177.9070  142.9620 C   0  0  2  0  0  3  0  0  0  0  0  0
  190.4010  177.4850  141.3980 C   0  0  0  0  0  1  0  0  0  0  0  0
  190.5760  179.7530  144.3410 F   0  0  0  0  0  0  0  0  0  0  0  0
  190.1720  176.4690  144.7220 C   0  0  0  0  0  2  0  0  0  0  0  0
  183.5990  178.0070  141.9360 N   0  0  2  0  0  0  0  0  0  0  0  0
  183.5390  178.9220  138.9110 C   0  0  0  0  0  2  0  0  0  0  0  0
  187.3950  178.5310  142.0980 C   0  0  0  0  0  2  0  0  0  0  0  0
  188.9330  177.1070  145.3540 C   0  0  0  0  0  2  0  0  0  0  0  0
  184.9520  178.4610  141.5300 C   0  0  1  0  0  3  0  0  0  0  0  0
  181.5350  179.2940  142.1720 C   0  0  0  0  0  2  0  0  0  0  0  0
  188.2340  178.1530  144.4690 C   0  0  2  0  0  3  0  0  0  0  0  0
  191.2990  177.4640  144.4470 C   0  0  0  0  0  2  0  0  0  0  0  0
  182.8590  179.6410  140.0650 C   0  0  2  0  0  3  0  0  0  0  0  0
  185.7420  178.2210  143.9040 C   0  0  0  0  0  0  0  0  0  0  0  0
  189.8570  178.4030  142.4780 C   0  0  2  0  0  3  0  0  0  0  0  0
  186.0430  177.9300  142.4670 C   0  0  2  0  0  3  0  0  0  0  0  0
  185.1900  178.6280  146.5960 C   0  0  0  0  0  3  0  0  0  0  0  0
  184.9770  178.9070  139.1230 N   0  0  0  0  0  2  0  0  0  0  0  0
  186.4720  178.4960  146.1710 N   0  0  0  0  0  0  0  0  0  0  0  0
  185.2650  177.9080  140.1380 C   0  0  0  0  0  2  0  0  0  0  0  0
  182.4790  178.6350  141.1760 C   0  0  1  0  0  3  0  0  0  0  0  0
  184.1410  178.5510  145.6830 C   0  0  0  0  0  3  0  0  0  0  0  0
  183.2690  178.2530  143.3550 C   0  0  1  0  0  3  0  0  0  0  0  0
  181.7150  180.2780  139.5740 O   0  0  0  0  0  0  0  0  0  0  0  0
  182.1980  181.2630  138.7070 C   0  0  0  0  0  2  0  0  0  0  0  0
  179.2210  182.6930  138.8020 O   0  0  0  0  0  0  0  0  0  0  0  0
  181.1650  183.1510  137.5930 N   0  0  0  0  0  2  0  0  0  0  0  0
  181.0890  181.7200  137.7770 C   0  0  2  0  0  3  0  0  0  0  0  0
  179.8410  183.6290  137.9600 C   0  0  0  0  0  2  0  0  0  0  0  0
  179.7550  181.4590  138.4210 C   0  0  0  0  0  2  0  0  0  0  0  0
  1 26  1  0  0  0  0
  3  7  1  1  0  0  0
  3 16  1  0  0  0  0
  4 23  2  0  0  0  0
  5 11  1  6  0  0  0
  5 15  1  0  0  0  0
  6 19  1  0  0  0  0
  8 12  1  0  0  0  0
  9 27  1  0  0  0  0
 10 22  1  0  0  0  0
 10 17  1  0  0  0  0
 11 20  1  0  0  0  0
 13  9  1  0  0  0  0
 13 20  1  0  0  0  0
 14  2  1  0  0  0  0
 15  4  1  0  0  0  0
 15 12  1  0  0  0  0
 16  8  1  0  0  0  0
 17 25  1  0  0  0  0
 18  1  2  0  0  0  0
 18  4  1  0  0  0  0
 19  5  1  0  0  0  0
 19  3  1  0  0  0  0
 20 18  1  0  0  0  0
 22 24  1  0  0  0  0
 23 21  1  0  0  0  0
 24 13  1  0  0  0  0
 25  9  1  0  0  0  0
 25 14  1  0  0  0  0
 26 21  2  0  0  0  0
 27  2  1  0  0  0  0
 27  1  1  0  0  0  0
 28 17  1  0  0  0  0
 29 28  1  0  0  0  0
 31 32  1  0  0  0  0
 31 33  1  0  0  0  0
 32 34  1  0  0  0  0
 32 29  1  0  0  0  0
 33 30  1  0  0  0  0
 34 30  1  0  0  0  0
M  END
>  <MODEL>
6

>  <REMARK>
 VINA RESULT:      -7.9      2.034      4.115
  Name = 
  3 active torsions:
  status: ('A' for Active; 'I' for Inactive)
    1  A    between atoms: C_17  and  O_28
    2  A    between atoms: O_28  and  C_29
    3  A    between atoms: C_29  and  C_32
                            x       y       z     vdW  Elec       q    Type
                         _______ _______ _______ _____ _____    ______ ____

>  <TORSDO>
F 3

$$$$
=
 OpenBabel11122412063D

 34 40  0  0  1  0  0  0  0  0999 V2000
  184.8090  178.3380  144.3620 C   0  0  0  0  0  0  0  0  0  0  0  0
  182.7800  179.4020  143.3420 C   0  0  0  0  0  2  0  0  0  0  0  0
  191.3430  178.6870  143.9660 C   0  0  1  0  0  3  0  0  0  0  0  0
  187.1390  178.2760  145.0330 C   0  0  0  0  0  0  0  0  0  0  0  0
  188.9470  177.9120  143.2320 C   0  0  2  0  0  3  0  0  0  0  0  0
  190.9550  177.4960  141.7810 C   0  0  0  0  0  1  0  0  0  0  0  0
  190.9490  179.7790  144.7180 F   0  0  0  0  0  0  0  0  0  0  0  0
  190.5460  176.4940  145.0920 C   0  0  0  0  0  2  0  0  0  0  0  0
  184.1300  177.9740  141.9330 N   0  0  2  0  0  0  0  0  0  0  0  0
  184.2340  178.8740  138.9050 C   0  0  0  0  0  2  0  0  0  0  0  0
  187.9080  178.5240  142.3050 C   0  0  0  0  0  2  0  0  0  0  0  0
  189.2690  177.1260  145.6500 C   0  0  0  0  0  2  0  0  0  0  0  0
  185.5010  178.4350  141.6010 C   0  0  1  0  0  3  0  0  0  0  0  0
  182.0480  179.2470  142.0460 C   0  0  0  0  0  2  0  0  0  0  0  0
  188.6150  178.1640  144.7220 C   0  0  2  0  0  3  0  0  0  0  0  0
  191.6800  177.4950  144.8760 C   0  0  0  0  0  2  0  0  0  0  0  0
  183.4860  179.5930  140.0150 C   0  0  2  0  0  3  0  0  0  0  0  0
  186.1570  178.2120  144.0170 C   0  0  0  0  0  0  0  0  0  0  0  0
  190.3450  178.4150  142.8240 C   0  0  2  0  0  3  0  0  0  0  0  0
  186.5410  177.9160  142.6010 C   0  0  2  0  0  3  0  0  0  0  0  0
  185.4520  178.6270  146.6720 C   0  0  0  0  0  3  0  0  0  0  0  0
  185.6580  178.8700  139.1970 N   0  0  0  0  0  2  0  0  0  0  0  0
  186.7570  178.5020  146.3200 N   0  0  0  0  0  0  0  0  0  0  0  0
  185.8950  177.8780  140.2320 C   0  0  0  0  0  2  0  0  0  0  0  0
  183.0500  178.5900  141.1080 C   0  0  1  0  0  3  0  0  0  0  0  0
  184.4560  178.5380  145.7010 C   0  0  0  0  0  3  0  0  0  0  0  0
  183.7190  178.2240  143.3300 C   0  0  1  0  0  3  0  0  0  0  0  0
  182.3670  180.2200  139.4570 O   0  0  0  0  0  0  0  0  0  0  0  0
  182.0700  179.4720  138.3140 C   0  0  0  0  0  2  0  0  0  0  0  0
  179.6400  177.8370  139.8440 O   0  0  0  0  0  0  0  0  0  0  0  0
  179.8920  180.0660  139.1980 N   0  0  0  0  0  2  0  0  0  0  0  0
  180.5720  179.2460  138.2210 C   0  0  2  0  0  3  0  0  0  0  0  0
  179.0890  179.1220  139.9600 C   0  0  0  0  0  2  0  0  0  0  0  0
  180.2560  177.8220  138.5890 C   0  0  0  0  0  2  0  0  0  0  0  0
  1 26  1  0  0  0  0
  3  7  1  1  0  0  0
  3 16  1  0  0  0  0
  4 23  2  0  0  0  0
  5 11  1  6  0  0  0
  5 15  1  0  0  0  0
  6 19  1  0  0  0  0
  8 12  1  0  0  0  0
  9 27  1  0  0  0  0
 10 22  1  0  0  0  0
 10 17  1  0  0  0  0
 11 20  1  0  0  0  0
 13  9  1  0  0  0  0
 13 20  1  0  0  0  0
 14  2  1  0  0  0  0
 15  4  1  0  0  0  0
 15 12  1  0  0  0  0
 16  8  1  0  0  0  0
 17 25  1  0  0  0  0
 18  1  2  0  0  0  0
 18  4  1  0  0  0  0
 19  5  1  0  0  0  0
 19  3  1  0  0  0  0
 20 18  1  0  0  0  0
 22 24  1  0  0  0  0
 23 21  1  0  0  0  0
 24 13  1  0  0  0  0
 25  9  1  0  0  0  0
 25 14  1  0  0  0  0
 26 21  2  0  0  0  0
 27  2  1  0  0  0  0
 27  1  1  0  0  0  0
 28 17  1  0  0  0  0
 29 28  1  0  0  0  0
 30 33  1  0  0  0  0
 31 33  1  0  0  0  0
 32 29  1  0  0  0  0
 32 34  1  0  0  0  0
 32 31  1  0  0  0  0
 34 30  1  0  0  0  0
M  END
>  <MODEL>
7

>  <REMARK>
 VINA RESULT:      -7.8      1.818      3.995
  Name = 
  3 active torsions:
  status: ('A' for Active; 'I' for Inactive)
    1  A    between atoms: C_17  and  O_28
    2  A    between atoms: O_28  and  C_29
    3  A    between atoms: C_29  and  C_32
                            x       y       z     vdW  Elec       q    Type
                         _______ _______ _______ _____ _____    ______ ____

>  <TORSDO>
F 3

$$$$
=
 OpenBabel11122412063D

 34 40  0  0  1  0  0  0  0  0999 V2000
  184.2820  178.6790  143.6970 C   0  0  0  0  0  0  0  0  0  0  0  0
  186.3080  177.5880  144.6930 C   0  0  0  0  0  2  0  0  0  0  0  0
  180.3240  178.0310  138.5100 C   0  0  1  0  0  3  0  0  0  0  0  0
  182.2650  178.7240  142.3490 C   0  0  0  0  0  0  0  0  0  0  0  0
  182.4820  178.8130  139.7820 C   0  0  2  0  0  3  0  0  0  0  0  0
  182.3060  178.9840  137.2820 C   0  0  0  0  0  1  0  0  0  0  0  0
  179.9440  177.0470  139.4050 F   0  0  0  0  0  0  0  0  0  0  0  0
  180.1180  180.3660  139.6140 C   0  0  0  0  0  2  0  0  0  0  0  0
  186.5870  178.7950  142.6160 N   0  0  2  0  0  0  0  0  0  0  0  0
  188.7640  177.5580  140.6870 C   0  0  0  0  0  2  0  0  0  0  0  0
  183.8220  178.1420  140.0400 C   0  0  0  0  0  2  0  0  0  0  0  0
  180.4850  179.8510  141.0070 C   0  0  0  0  0  2  0  0  0  0  0  0
  185.9220  178.2460  141.4090 C   0  0  1  0  0  3  0  0  0  0  0  0
  187.7760  177.6260  144.4020 C   0  0  0  0  0  2  0  0  0  0  0  0
  181.5510  178.7430  141.0160 C   0  0  2  0  0  3  0  0  0  0  0  0
  179.4860  179.3030  138.7160 C   0  0  0  0  0  2  0  0  0  0  0  0
  188.3640  176.9970  142.0420 C   0  0  2  0  0  3  0  0  0  0  0  0
  183.6770  178.7130  142.4370 C   0  0  0  0  0  0  0  0  0  0  0  0
  181.8550  178.2120  138.5090 C   0  0  2  0  0  3  0  0  0  0  0  0
  184.5210  178.8330  141.2070 C   0  0  2  0  0  3  0  0  0  0  0  0
  182.0950  178.6260  144.7190 C   0  0  0  0  0  3  0  0  0  0  0  0
  187.6190  177.5390  139.7920 N   0  0  0  0  0  2  0  0  0  0  0  0
  181.5230  178.6600  143.4890 N   0  0  0  0  0  0  0  0  0  0  0  0
  186.7390  178.6300  140.1730 C   0  0  0  0  0  2  0  0  0  0  0  0
  187.8770  178.1340  142.9720 C   0  0  1  0  0  3  0  0  0  0  0  0
  183.4820  178.6440  144.8440 C   0  0  0  0  0  3  0  0  0  0  0  0
  185.7790  178.7200  143.8510 C   0  0  1  0  0  3  0  0  0  0  0  0
  189.4750  176.3560  142.5990 O   0  0  0  0  0  0  0  0  0  0  0  0
  190.5790  176.9750  142.0060 C   0  0  0  0  0  2  0  0  0  0  0  0
  191.1280  177.9530  145.1140 O   0  0  0  0  0  0  0  0  0  0  0  0
  191.6400  175.9950  143.9530 N   0  0  0  0  0  2  0  0  0  0  0  0
  191.7080  177.0910  143.0150 C   0  0  2  0  0  3  0  0  0  0  0  0
  191.6010  176.6400  145.2550 C   0  0  0  0  0  2  0  0  0  0  0  0
  191.5240  178.3410  143.8320 C   0  0  0  0  0  2  0  0  0  0  0  0
  1 27  1  0  0  0  0
  1 26  1  0  0  0  0
  3 16  1  0  0  0  0
  3  7  1  1  0  0  0
  4 18  1  0  0  0  0
  4 23  2  0  0  0  0
  5 11  1  1  0  0  0
  5 15  1  0  0  0  0
  6 19  1  0  0  0  0
  8 12  1  0  0  0  0
  9 25  1  0  0  0  0
  9 27  1  0  0  0  0
 10 17  1  0  0  0  0
 11 20  1  0  0  0  0
 12 15  1  0  0  0  0
 13  9  1  0  0  0  0
 14  2  1  0  0  0  0
 15  4  1  0  0  0  0
 16  8  1  0  0  0  0
 17 28  1  0  0  0  0
 17 25  1  0  0  0  0
 18  1  2  0  0  0  0
 19  3  1  0  0  0  0
 19  5  1  0  0  0  0
 20 13  1  0  0  0  0
 20 18  1  0  0  0  0
 21 26  2  0  0  0  0
 22 24  1  0  0  0  0
 22 10  1  0  0  0  0
 23 21  1  0  0  0  0
 24 13  1  0  0  0  0
 25 14  1  0  0  0  0
 27  2  1  0  0  0  0
 29 28  1  0  0  0  0
 29 32  1  0  0  0  0
 30 33  1  0  0  0  0
 31 33  1  0  0  0  0
 32 34  1  0  0  0  0
 32 31  1  0  0  0  0
 34 30  1  0  0  0  0
M  END
>  <MODEL>
8

>  <REMARK>
 VINA RESULT:      -7.7      3.486      8.932
  Name = 
  3 active torsions:
  status: ('A' for Active; 'I' for Inactive)
    1  A    between atoms: C_17  and  O_28
    2  A    between atoms: O_28  and  C_29
    3  A    between atoms: C_29  and  C_32
                            x       y       z     vdW  Elec       q    Type
                         _______ _______ _______ _____ _____    ______ ____

>  <TORSDO>
F 3

$$$$
=
 OpenBabel11122412063D

 34 40  0  0  1  0  0  0  0  0999 V2000
  185.7880  178.6840  142.6330 C   0  0  0  0  0  0  0  0  0  0  0  0
  188.0450  177.6850  142.1870 C   0  0  0  0  0  2  0  0  0  0  0  0
  179.5220  177.7800  140.9280 C   0  0  1  0  0  3  0  0  0  0  0  0
  183.3680  178.6290  142.7920 C   0  0  0  0  0  0  0  0  0  0  0  0
  181.9740  178.6650  140.6250 C   0  0  2  0  0  3  0  0  0  0  0  0
  180.3060  178.7710  138.7490 C   0  0  0  0  0  1  0  0  0  0  0  0
  179.8050  176.8050  141.8670 F   0  0  0  0  0  0  0  0  0  0  0  0
  179.9350  180.1320  141.9340 C   0  0  0  0  0  2  0  0  0  0  0  0
  186.9530  178.8520  140.3730 N   0  0  2  0  0  0  0  0  0  0  0  0
  187.5550  177.6450  137.5150 C   0  0  0  0  0  2  0  0  0  0  0  0
  183.2210  178.0450  140.0120 C   0  0  0  0  0  2  0  0  0  0  0  0
  181.0940  179.6630  142.8150 C   0  0  0  0  0  2  0  0  0  0  0  0
  185.7130  178.2530  139.8190 C   0  0  1  0  0  3  0  0  0  0  0  0
  189.0290  177.7660  141.0630 C   0  0  0  0  0  2  0  0  0  0  0  0
  181.9900  178.5920  142.1700 C   0  0  2  0  0  3  0  0  0  0  0  0
  178.9310  179.0280  141.6040 C   0  0  0  0  0  2  0  0  0  0  0  0
  188.0850  177.1030  138.8320 C   0  0  2  0  0  3  0  0  0  0  0  0
  184.5400  178.6670  142.0030 C   0  0  0  0  0  0  0  0  0  0  0  0
  180.7270  178.0130  139.9950 C   0  0  2  0  0  3  0  0  0  0  0  0
  184.4560  178.7870  140.5130 C   0  0  2  0  0  3  0  0  0  0  0  0
  184.6790  178.5810  144.7760 C   0  0  0  0  0  3  0  0  0  0  0  0
  186.1030  177.5660  137.5010 N   0  0  0  0  0  2  0  0  0  0  0  0
  183.4760  178.5660  144.1480 N   0  0  0  0  0  0  0  0  0  0  0  0
  185.5930  178.6360  138.3420 C   0  0  0  0  0  2  0  0  0  0  0  0
  188.2180  178.2440  139.8680 C   0  0  1  0  0  3  0  0  0  0  0  0
  185.8540  178.6490  144.0300 C   0  0  0  0  0  3  0  0  0  0  0  0
  187.0660  178.7790  141.8440 C   0  0  1  0  0  3  0  0  0  0  0  0
  189.3310  176.5130  138.5950 O   0  0  0  0  0  0  0  0  0  0  0  0
  189.8530  177.2080  137.5000 C   0  0  0  0  0  2  0  0  0  0  0  0
  191.6940  174.5040  137.9680 O   0  0  0  0  0  0  0  0  0  0  0  0
  190.2110  175.1430  136.2820 N   0  0  0  0  0  2  0  0  0  0  0  0
  190.8610  176.3370  136.7720 C   0  0  2  0  0  3  0  0  0  0  0  0
  191.0040  174.0540  136.8320 C   0  0  0  0  0  2  0  0  0  0  0  0
  191.9100  175.8660  137.7410 C   0  0  0  0  0  2  0  0  0  0  0  0
  1 26  1  0  0  0  0
  3 16  1  0  0  0  0
  3  7  1  1  0  0  0
  4 23  2  0  0  0  0
  5 11  1  6  0  0  0
  5 15  1  0  0  0  0
  6 19  1  0  0  0  0
  8 12  1  0  0  0  0
  9 27  1  0  0  0  0
 10 17  1  0  0  0  0
 11 20  1  0  0  0  0
 13  9  1  0  0  0  0
 13 20  1  0  0  0  0
 14  2  1  0  0  0  0
 15  4  1  0  0  0  0
 15 12  1  0  0  0  0
 16  8  1  0  0  0  0
 17 25  1  0  0  0  0
 18  1  2  0  0  0  0
 18  4  1  0  0  0  0
 19  5  1  0  0  0  0
 19  3  1  0  0  0  0
 20 18  1  0  0  0  0
 22 10  1  0  0  0  0
 22 24  1  0  0  0  0
 23 21  1  0  0  0  0
 24 13  1  0  0  0  0
 25  9  1  0  0  0  0
 25 14  1  0  0  0  0
 26 21  2  0  0  0  0
 27  2  1  0  0  0  0
 27  1  1  0  0  0  0
 28 17  1  0  0  0  0
 29 28  1  0  0  0  0
 31 32  1  0  0  0  0
 31 33  1  0  0  0  0
 32 29  1  0  0  0  0
 32 34  1  0  0  0  0
 33 30  1  0  0  0  0
 34 30  1  0  0  0  0
M  END
>  <MODEL>
9

>  <REMARK>
 VINA RESULT:      -7.7      3.563      8.334
  Name = 
  3 active torsions:
  status: ('A' for Active; 'I' for Inactive)
    1  A    between atoms: C_17  and  O_28
    2  A    between atoms: O_28  and  C_29
    3  A    between atoms: C_29  and  C_32
                            x       y       z     vdW  Elec       q    Type
                         _______ _______ _______ _____ _____    ______ ____

>  <TORSDO>
F 3

$$$$
