=
 OpenBabel11122410293D

 30 35  0  0  1  0  0  0  0  0999 V2000
  186.0370  178.3510  142.2500 C   0  0  0  0  0  0  0  0  0  0  0  0
  183.5600  178.7560  142.2210 C   0  0  0  0  0  0  0  0  0  0  0  0
  186.0900  178.2240  146.3610 N   0  0  0  0  0  0  0  0  0  0  0  0
  187.2310  178.1480  142.9930 C   0  0  0  0  0  0  0  0  0  0  0  0
  186.1220  178.3720  140.8500 O   0  0  0  0  0  0  0  0  0  0  0  0
  188.6720  179.7610  140.8140 O   0  0  0  0  0  1  0  0  0  0  0  0
  190.2530  178.0060  143.9200 C   0  0  1  0  0  3  0  0  0  0  0  0
  188.5450  178.3700  140.8750 C   0  0  2  0  0  3  0  0  0  0  0  0
  189.5850  177.9750  145.2750 C   0  0  2  0  0  3  0  0  0  0  0  0
  187.4210  178.0560  146.5160 C   0  0  0  0  0  0  0  0  0  0  0  0
  187.2800  177.9160  140.1520 C   0  0  2  0  0  3  0  0  0  0  0  0
  188.4590  177.9510  142.2700 N   0  0  0  0  0  0  0  0  0  0  0  0
  182.3710  178.9120  142.9410 C   0  0  0  0  0  3  0  0  0  0  0  0
  190.2060  176.7850  145.9730 C   0  0  0  0  0  2  0  0  0  0  0  0
  191.6210  177.4190  144.2020 C   0  0  0  0  0  2  0  0  0  0  0  0
  183.4110  178.8650  140.4710 Cl  0  0  0  0  0  0  0  0  0  0  0  0
  185.9390  178.2580  145.0270 C   0  0  0  0  0  0  0  0  0  0  0  0
  182.3610  178.8510  144.3330 C   0  0  0  0  0  3  0  0  0  0  0  0
  184.7840  178.5300  142.9110 C   0  0  0  0  0  0  0  0  0  0  0  0
  187.1470  178.1120  144.3970 C   0  0  0  0  0  0  0  0  0  0  0  0
  188.0560  178.0390  147.8660 C   0  0  0  0  0  1  0  0  0  0  0  0
  188.1110  177.9750  145.3440 N   0  0  0  0  0  0  0  0  0  0  0  0
  191.5370  176.5930  145.4070 N   0  0  0  0  0  2  0  0  0  0  0  0
  189.1700  175.7780  143.1870 C   0  0  0  0  0  1  0  0  0  0  0  0
  183.5460  178.6300  145.0280 C   0  0  0  0  0  3  0  0  0  0  0  0
  184.7500  178.4700  144.3340 C   0  0  0  0  0  0  0  0  0  0  0  0
  189.5740  177.2040  142.8150 C   0  0  2  0  0  3  0  0  0  0  0  0
  187.2580  178.3920  138.7080 C   0  0  0  0  0  2  0  0  0  0  0  0
  189.0140  179.4320  137.4920 O   0  0  0  0  0  1  0  0  0  0  0  0
  188.6300  178.2300  138.0830 C   0  0  0  0  0  2  0  0  0  0  0  0
  1 19  2  0  0  0  0
  1  4  1  0  0  0  0
  2 19  1  0  0  0  0
  2 13  2  0  0  0  0
  3 10  2  0  0  0  0
  4 20  2  0  0  0  0
  5  1  1  0  0  0  0
  7 15  1  1  0  0  0
  7  9  1  0  0  0  0
  8  6  1  1  0  0  0
  8 12  1  0  0  0  0
  9 22  1  0  0  0  0
  9 14  1  6  0  0  0
 10 21  1  0  0  0  0
 11 28  1  6  0  0  0
 11  5  1  0  0  0  0
 11  8  1  0  0  0  0
 12 27  1  0  0  0  0
 12  4  1  0  0  0  0
 13 18  1  0  0  0  0
 15 23  1  0  0  0  0
 16  2  1  0  0  0  0
 17  3  1  0  0  0  0
 18 25  2  0  0  0  0
 19 26  1  0  0  0  0
 20 17  1  0  0  0  0
 20 22  1  0  0  0  0
 22 10  1  0  0  0  0
 23 14  1  0  0  0  0
 26 17  2  0  0  0  0
 26 25  1  0  0  0  0
 27 24  1  1  0  0  0
 27  7  1  0  0  0  0
 29 30  1  0  0  0  0
 30 28  1  0  0  0  0
M  END
>  <MODEL>
1

>  <REMARK>
 VINA RESULT:      -9.3      0.000      0.000
  Name = 
  2 active torsions:
  status: ('A' for Active; 'I' for Inactive)
    1  A    between atoms: C_11  and  C_28
    2  A    between atoms: C_28  and  C_30
                            x       y       z     vdW  Elec       q    Type
                         _______ _______ _______ _____ _____    ______ ____

>  <TORSDO>
F 2

$$$$
=
 OpenBabel11122410293D

 30 35  0  0  1  0  0  0  0  0999 V2000
  185.1330  178.4940  141.2980 C   0  0  0  0  0  0  0  0  0  0  0  0
  184.9780  178.4070  143.8020 C   0  0  0  0  0  0  0  0  0  0  0  0
  189.1430  177.5830  141.3960 N   0  0  0  0  0  0  0  0  0  0  0  0
  185.9210  178.3860  140.1210 C   0  0  0  0  0  0  0  0  0  0  0  0
  183.7730  178.8030  141.1600 O   0  0  0  0  0  0  0  0  0  0  0  0
  184.1960  180.6410  138.9530 O   0  0  0  0  0  1  0  0  0  0  0  0
  187.0490  178.6570  137.1770 C   0  0  1  0  0  3  0  0  0  0  0  0
  183.9920  179.2670  138.7920 C   0  0  2  0  0  3  0  0  0  0  0  0
  188.3180  178.2340  137.8810 C   0  0  2  0  0  3  0  0  0  0  0  0
  189.3720  177.6500  140.0660 C   0  0  0  0  0  0  0  0  0  0  0  0
  183.0990  178.7240  139.9050 C   0  0  2  0  0  3  0  0  0  0  0  0
  185.2770  178.5760  138.8500 N   0  0  0  0  0  0  0  0  0  0  0  0
  185.6160  178.1860  145.0270 C   0  0  0  0  0  3  0  0  0  0  0  0
  188.8360  177.0750  137.0580 C   0  0  0  0  0  2  0  0  0  0  0  0
  187.3300  178.3030  135.7310 C   0  0  0  0  0  2  0  0  0  0  0  0
  183.2710  178.8230  143.8960 Cl  0  0  0  0  0  0  0  0  0  0  0  0
  187.8300  177.8450  141.4930 C   0  0  0  0  0  0  0  0  0  0  0  0
  186.9680  177.8550  145.0840 C   0  0  0  0  0  3  0  0  0  0  0  0
  185.7130  178.2940  142.5880 C   0  0  0  0  0  0  0  0  0  0  0  0
  187.2850  178.0630  140.2550 C   0  0  0  0  0  0  0  0  0  0  0  0
  190.7450  177.4940  139.5000 C   0  0  0  0  0  1  0  0  0  0  0  0
  188.2650  177.9340  139.3250 N   0  0  0  0  0  0  0  0  0  0  0  0
  188.3540  177.2590  135.6940 N   0  0  0  0  0  2  0  0  0  0  0  0
  185.8380  176.4470  137.7450 C   0  0  0  0  0  1  0  0  0  0  0  0
  187.7050  177.7380  143.9100 C   0  0  0  0  0  3  0  0  0  0  0  0
  187.0930  177.9530  142.6700 C   0  0  0  0  0  0  0  0  0  0  0  0
  185.7650  177.9690  137.6290 C   0  0  2  0  0  3  0  0  0  0  0  0
  181.7690  179.4590  139.9630 C   0  0  0  0  0  2  0  0  0  0  0  0
  180.5180  180.1540  141.8600 O   0  0  0  0  0  1  0  0  0  0  0  0
  180.9860  179.0270  141.1870 C   0  0  0  0  0  2  0  0  0  0  0  0
  1 19  1  0  0  0  0
  2 16  1  0  0  0  0
  2 13  1  0  0  0  0
  3 17  1  0  0  0  0
  4 20  1  0  0  0  0
  4  1  2  0  0  0  0
  5  1  1  0  0  0  0
  7 15  1  6  0  0  0
  7 27  1  0  0  0  0
  7  9  1  0  0  0  0
  8 12  1  0  0  0  0
  8  6  1  1  0  0  0
  8 11  1  0  0  0  0
  9 14  1  6  0  0  0
  9 22  1  0  0  0  0
 10  3  2  0  0  0  0
 11 28  1  1  0  0  0
 11  5  1  0  0  0  0
 12  4  1  0  0  0  0
 13 18  2  0  0  0  0
 17 26  1  0  0  0  0
 19 26  1  0  0  0  0
 19  2  2  0  0  0  0
 20 17  2  0  0  0  0
 21 10  1  0  0  0  0
 22 10  1  0  0  0  0
 22 20  1  0  0  0  0
 23 15  1  0  0  0  0
 23 14  1  0  0  0  0
 25 18  1  0  0  0  0
 26 25  2  0  0  0  0
 27 24  1  1  0  0  0
 27 12  1  0  0  0  0
 28 30  1  0  0  0  0
 30 29  1  0  0  0  0
M  END
>  <MODEL>
2

>  <REMARK>
 VINA RESULT:      -8.6      2.772      6.014
  Name = 
  2 active torsions:
  status: ('A' for Active; 'I' for Inactive)
    1  A    between atoms: C_11  and  C_28
    2  A    between atoms: C_28  and  C_30
                            x       y       z     vdW  Elec       q    Type
                         _______ _______ _______ _____ _____    ______ ____

>  <TORSDO>
F 2

$$$$
=
 OpenBabel11122410293D

 30 35  0  0  1  0  0  0  0  0999 V2000
  186.6080  178.3850  140.3550 C   0  0  0  0  0  0  0  0  0  0  0  0
  188.3400  178.0800  138.5650 C   0  0  0  0  0  0  0  0  0  0  0  0
  189.2990  177.3740  143.2970 N   0  0  0  0  0  0  0  0  0  0  0  0
  186.2550  178.3390  141.7310 C   0  0  0  0  0  0  0  0  0  0  0  0
  185.6200  178.7470  139.4290 O   0  0  0  0  0  0  0  0  0  0  0  0
  183.4960  177.3440  140.8250 O   0  0  0  0  0  1  0  0  0  0  0  0
  184.6720  178.1260  144.4620 C   0  0  1  0  0  3  0  0  0  0  0  0
  183.8590  178.6680  141.0900 C   0  0  2  0  0  3  0  0  0  0  0  0
  186.0600  177.8040  144.9650 C   0  0  2  0  0  3  0  0  0  0  0  0
  188.4520  177.4510  144.3470 C   0  0  0  0  0  0  0  0  0  0  0  0
  184.3860  179.3430  139.8270 C   0  0  2  0  0  3  0  0  0  0  0  0
  184.9100  178.6890  142.1020 N   0  0  0  0  0  0  0  0  0  0  0  0
  189.6620  177.7690  138.2270 C   0  0  0  0  0  3  0  0  0  0  0  0
  186.2610  178.7360  146.1400 C   0  0  0  0  0  2  0  0  0  0  0  0
  183.9510  178.5710  145.7180 C   0  0  0  0  0  2  0  0  0  0  0  0
  187.2780  178.4620  137.2140 Cl  0  0  0  0  0  0  0  0  0  0  0  0
  188.5250  177.7130  142.2540 C   0  0  0  0  0  0  0  0  0  0  0  0
  190.5960  177.4450  139.2080 C   0  0  0  0  0  3  0  0  0  0  0  0
  187.9340  178.0690  139.9290 C   0  0  0  0  0  0  0  0  0  0  0  0
  187.2480  177.9890  142.6650 C   0  0  0  0  0  0  0  0  0  0  0  0
  188.8790  177.0760  145.7270 C   0  0  0  0  0  1  0  0  0  0  0  0
  187.1870  177.8310  144.0130 N   0  0  0  0  0  0  0  0  0  0  0  0
  184.9430  179.0350  146.6890 N   0  0  0  0  0  2  0  0  0  0  0  0
  185.3520  180.5020  143.7090 C   0  0  0  0  0  1  0  0  0  0  0  0
  190.2210  177.4280  140.5470 C   0  0  0  0  0  3  0  0  0  0  0  0
  188.9060  177.7370  140.9140 C   0  0  0  0  0  0  0  0  0  0  0  0
  184.5750  179.2220  143.4060 C   0  0  2  0  0  3  0  0  0  0  0  0
  183.3720  179.2830  138.6950 C   0  0  0  0  0  2  0  0  0  0  0  0
  182.7840  181.5850  138.6930 O   0  0  0  0  0  1  0  0  0  0  0  0
  182.2770  180.3070  138.9200 C   0  0  0  0  0  2  0  0  0  0  0  0
  1  4  1  0  0  0  0
  2 19  1  0  0  0  0
  3 10  2  0  0  0  0
  4 12  1  0  0  0  0
  4 20  2  0  0  0  0
  5 11  1  0  0  0  0
  5  1  1  0  0  0  0
  7  9  1  0  0  0  0
  7 15  1  1  0  0  0
  8  6  1  6  0  0  0
  8 12  1  0  0  0  0
  9 14  1  1  0  0  0
 10 21  1  0  0  0  0
 11 28  1  6  0  0  0
 11  8  1  0  0  0  0
 12 27  1  0  0  0  0
 13  2  2  0  0  0  0
 13 18  1  0  0  0  0
 14 23  1  0  0  0  0
 15 23  1  0  0  0  0
 16  2  1  0  0  0  0
 17 20  1  0  0  0  0
 17  3  1  0  0  0  0
 18 25  2  0  0  0  0
 19  1  2  0  0  0  0
 19 26  1  0  0  0  0
 20 22  1  0  0  0  0
 22 10  1  0  0  0  0
 22  9  1  0  0  0  0
 25 26  1  0  0  0  0
 26 17  2  0  0  0  0
 27 24  1  1  0  0  0
 27  7  1  0  0  0  0
 28 30  1  0  0  0  0
 29 30  1  0  0  0  0
M  END
>  <MODEL>
3

>  <REMARK>
 VINA RESULT:      -8.5      2.198      5.291
  Name = 
  2 active torsions:
  status: ('A' for Active; 'I' for Inactive)
    1  A    between atoms: C_11  and  C_28
    2  A    between atoms: C_28  and  C_30
                            x       y       z     vdW  Elec       q    Type
                         _______ _______ _______ _____ _____    ______ ____

>  <TORSDO>
F 2

$$$$
=
 OpenBabel11122410293D

 30 35  0  0  1  0  0  0  0  0999 V2000
  188.9380  177.1700  144.6270 C   0  0  0  0  0  0  0  0  0  0  0  0
  187.3890  177.6590  146.5410 C   0  0  0  0  0  0  0  0  0  0  0  0
  186.1660  178.4880  141.8890 N   0  0  0  0  0  0  0  0  0  0  0  0
  189.1810  177.1590  143.2280 C   0  0  0  0  0  0  0  0  0  0  0  0
  189.9490  176.7050  145.4800 O   0  0  0  0  0  0  0  0  0  0  0  0
  190.7760  174.5760  143.6870 O   0  0  0  0  0  1  0  0  0  0  0  0
  190.2920  176.5150  140.3360 C   0  0  1  0  0  3  0  0  0  0  0  0
  191.2900  175.8760  143.6400 C   0  0  2  0  0  3  0  0  0  0  0  0
  188.9900  177.1770  139.9500 C   0  0  2  0  0  3  0  0  0  0  0  0
  186.8800  178.2230  140.7730 C   0  0  0  0  0  0  0  0  0  0  0  0
  191.2890  176.5030  145.0320 C   0  0  2  0  0  3  0  0  0  0  0  0
  190.4600  176.6940  142.7620 N   0  0  0  0  0  0  0  0  0  0  0  0
  186.1520  178.1450  146.9760 C   0  0  0  0  0  3  0  0  0  0  0  0
  189.3890  178.2290  138.9380 C   0  0  0  0  0  2  0  0  0  0  0  0
  191.1270  176.6480  139.0780 C   0  0  0  0  0  2  0  0  0  0  0  0
  188.4730  177.0920  147.8060 Cl  0  0  0  0  0  0  0  0  0  0  0  0
  186.9940  178.1140  142.8770 C   0  0  0  0  0  0  0  0  0  0  0  0
  185.2060  178.6180  146.0690 C   0  0  0  0  0  3  0  0  0  0  0  0
  187.6960  177.6410  145.1510 C   0  0  0  0  0  0  0  0  0  0  0  0
  188.1740  177.6370  142.3690 C   0  0  0  0  0  0  0  0  0  0  0  0
  186.3030  178.4210  139.4110 C   0  0  0  0  0  1  0  0  0  0  0  0
  188.1170  177.7080  141.0140 N   0  0  0  0  0  0  0  0  0  0  0  0
  190.6140  177.7700  138.2920 N   0  0  0  0  0  2  0  0  0  0  0  0
  191.1990  178.6540  141.4660 C   0  0  0  0  0  1  0  0  0  0  0  0
  185.4850  178.6100  144.7060 C   0  0  0  0  0  3  0  0  0  0  0  0
  186.7140  178.1300  144.2420 C   0  0  0  0  0  0  0  0  0  0  0  0
  191.0420  177.1350  141.5110 C   0  0  2  0  0  3  0  0  0  0  0  0
  192.0660  175.6560  146.0280 C   0  0  0  0  0  2  0  0  0  0  0  0
  192.9770  175.9620  148.2010 O   0  0  0  0  0  1  0  0  0  0  0  0
  191.8270  176.1580  147.4390 C   0  0  0  0  0  2  0  0  0  0  0  0
  1 19  1  0  0  0  0
  1  5  1  0  0  0  0
  2 13  1  0  0  0  0
  2 16  1  0  0  0  0
  3 17  1  0  0  0  0
  4  1  2  0  0  0  0
  7 15  1  6  0  0  0
  7 27  1  0  0  0  0
  8  6  1  1  0  0  0
  8 11  1  0  0  0  0
  9 14  1  6  0  0  0
  9  7  1  0  0  0  0
  9 22  1  0  0  0  0
 10 22  1  0  0  0  0
 10  3  2  0  0  0  0
 11  5  1  0  0  0  0
 11 28  1  1  0  0  0
 12  4  1  0  0  0  0
 12  8  1  0  0  0  0
 17 26  1  0  0  0  0
 18 13  2  0  0  0  0
 19  2  2  0  0  0  0
 20 17  2  0  0  0  0
 20  4  1  0  0  0  0
 21 10  1  0  0  0  0
 22 20  1  0  0  0  0
 23 14  1  0  0  0  0
 23 15  1  0  0  0  0
 25 18  1  0  0  0  0
 26 25  2  0  0  0  0
 26 19  1  0  0  0  0
 27 24  1  6  0  0  0
 27 12  1  0  0  0  0
 28 30  1  0  0  0  0
 30 29  1  0  0  0  0
M  END
>  <MODEL>
4

>  <REMARK>
 VINA RESULT:      -8.4      3.328      5.865
  Name = 
  2 active torsions:
  status: ('A' for Active; 'I' for Inactive)
    1  A    between atoms: C_11  and  C_28
    2  A    between atoms: C_28  and  C_30
                            x       y       z     vdW  Elec       q    Type
                         _______ _______ _______ _____ _____    ______ ____

>  <TORSDO>
F 2

$$$$
=
 OpenBabel11122410293D

 30 35  0  0  1  0  0  0  0  0999 V2000
  184.5960  178.5060  141.0200 C   0  0  0  0  0  0  0  0  0  0  0  0
  186.0620  178.2460  143.0410 C   0  0  0  0  0  0  0  0  0  0  0  0
  181.2900  179.2190  143.3610 N   0  0  0  0  0  0  0  0  0  0  0  0
  183.3080  178.7450  140.4710 C   0  0  0  0  0  0  0  0  0  0  0  0
  185.6620  178.2790  140.1380 O   0  0  0  0  0  0  0  0  0  0  0  0
  184.0590  176.7550  138.2580 O   0  0  0  0  0  1  0  0  0  0  0  0
  180.7780  178.8430  138.5730 C   0  0  1  0  0  3  0  0  0  0  0  0
  184.1990  178.1450  138.2110 C   0  0  2  0  0  3  0  0  0  0  0  0
  180.0950  179.1070  139.8950 C   0  0  2  0  0  3  0  0  0  0  0  0
  180.3870  179.3310  142.3630 C   0  0  0  0  0  0  0  0  0  0  0  0
  185.5680  178.5630  138.7420 C   0  0  2  0  0  3  0  0  0  0  0  0
  183.1700  178.7640  139.0390 N   0  0  0  0  0  0  0  0  0  0  0  0
  186.1820  178.2640  144.4350 C   0  0  0  0  0  3  0  0  0  0  0  0
  179.2640  180.3470  139.6480 C   0  0  0  0  0  2  0  0  0  0  0  0
  179.7850  179.3850  137.5640 C   0  0  0  0  0  2  0  0  0  0  0  0
  187.5400  177.8950  142.1530 Cl  0  0  0  0  0  0  0  0  0  0  0  0
  182.4420  179.0030  142.7080 C   0  0  0  0  0  0  0  0  0  0  0  0
  185.0810  178.5250  145.2480 C   0  0  0  0  0  3  0  0  0  0  0  0
  184.7990  178.4970  142.4340 C   0  0  0  0  0  0  0  0  0  0  0  0
  182.2380  178.9860  141.3530 C   0  0  0  0  0  0  0  0  0  0  0  0
  178.9310  179.5040  142.6410 C   0  0  0  0  0  1  0  0  0  0  0  0
  180.9180  179.2020  141.1150 N   0  0  0  0  0  0  0  0  0  0  0  0
  178.9390  180.3780  138.2260 N   0  0  0  0  0  2  0  0  0  0  0  0
  182.1900  181.0020  138.7190 C   0  0  0  0  0  1  0  0  0  0  0  0
  183.8380  178.7730  144.6750 C   0  0  0  0  0  3  0  0  0  0  0  0
  183.6880  178.7630  143.2840 C   0  0  0  0  0  0  0  0  0  0  0  0
  182.1310  179.5160  138.3660 C   0  0  2  0  0  3  0  0  0  0  0  0
  186.6960  177.8860  137.9800 C   0  0  0  0  0  2  0  0  0  0  0  0
  188.6950  179.0030  138.6130 O   0  0  0  0  0  1  0  0  0  0  0  0
  187.9500  177.8450  138.8300 C   0  0  0  0  0  2  0  0  0  0  0  0
  1 19  1  0  0  0  0
  2 13  1  0  0  0  0
  4  1  2  0  0  0  0
  4 20  1  0  0  0  0
  5  1  1  0  0  0  0
  7 15  1  6  0  0  0
  7  9  1  0  0  0  0
  8  6  1  1  0  0  0
  8 11  1  0  0  0  0
  8 12  1  0  0  0  0
  9 14  1  6  0  0  0
  9 22  1  0  0  0  0
 10 21  1  0  0  0  0
 10  3  2  0  0  0  0
 11 28  1  6  0  0  0
 11  5  1  0  0  0  0
 12  4  1  0  0  0  0
 13 18  2  0  0  0  0
 15 23  1  0  0  0  0
 16  2  1  0  0  0  0
 17 26  1  0  0  0  0
 17  3  1  0  0  0  0
 19  2  2  0  0  0  0
 19 26  1  0  0  0  0
 20 17  2  0  0  0  0
 22 20  1  0  0  0  0
 22 10  1  0  0  0  0
 23 14  1  0  0  0  0
 25 18  1  0  0  0  0
 26 25  2  0  0  0  0
 27  7  1  0  0  0  0
 27 24  1  1  0  0  0
 27 12  1  0  0  0  0
 28 30  1  0  0  0  0
 29 30  1  0  0  0  0
M  END
>  <MODEL>
5

>  <REMARK>
 VINA RESULT:      -7.9      3.875      7.147
  Name = 
  2 active torsions:
  status: ('A' for Active; 'I' for Inactive)
    1  A    between atoms: C_11  and  C_28
    2  A    between atoms: C_28  and  C_30
                            x       y       z     vdW  Elec       q    Type
                         _______ _______ _______ _____ _____    ______ ____

>  <TORSDO>
F 2

$$$$
=
 OpenBabel11122410293D

 30 35  0  0  1  0  0  0  0  0999 V2000
  186.7340  178.0240  143.0730 C   0  0  0  0  0  0  0  0  0  0  0  0
  188.9270  177.2730  144.0360 C   0  0  0  0  0  0  0  0  0  0  0  0
  188.2110  177.8270  139.2400 N   0  0  0  0  0  0  0  0  0  0  0  0
  185.9530  178.3590  141.9350 C   0  0  0  0  0  0  0  0  0  0  0  0
  186.1360  178.1170  144.3390 O   0  0  0  0  0  0  0  0  0  0  0  0
  184.6190  180.5030  143.6810 O   0  0  0  0  0  1  0  0  0  0  0  0
  183.7680  179.5660  139.9900 C   0  0  1  0  0  3  0  0  0  0  0  0
  184.1570  179.2020  143.4600 C   0  0  2  0  0  3  0  0  0  0  0  0
  184.8220  179.2030  138.9700 C   0  0  2  0  0  3  0  0  0  0  0  0
  187.1070  178.2710  138.6010 C   0  0  0  0  0  0  0  0  0  0  0  0
  184.7250  178.2470  144.5060 C   0  0  2  0  0  3  0  0  0  0  0  0
  184.5840  178.7540  142.1390 N   0  0  0  0  0  0  0  0  0  0  0  0
  190.2450  176.8590  143.8140 C   0  0  0  0  0  3  0  0  0  0  0  0
  184.0750  178.4010  137.9270 C   0  0  0  0  0  2  0  0  0  0  0  0
  182.5040  179.6490  139.1580 C   0  0  0  0  0  2  0  0  0  0  0  0
  188.4250  177.3480  145.7200 Cl  0  0  0  0  0  0  0  0  0  0  0  0
  187.8380  177.8240  140.5290 C   0  0  0  0  0  0  0  0  0  0  0  0
  190.7610  176.7640  142.5240 C   0  0  0  0  0  3  0  0  0  0  0  0
  188.0910  177.6030  142.9320 C   0  0  0  0  0  0  0  0  0  0  0  0
  186.5440  178.2530  140.6620 C   0  0  0  0  0  0  0  0  0  0  0  0
  187.0960  178.5070  137.1270 C   0  0  0  0  0  1  0  0  0  0  0  0
  186.0570  178.5390  139.4270 N   0  0  0  0  0  0  0  0  0  0  0  0
  182.6840  178.8430  137.9500 N   0  0  0  0  0  2  0  0  0  0  0  0
  183.4310  177.1090  140.7140 C   0  0  0  0  0  1  0  0  0  0  0  0
  189.9610  177.0820  141.4300 C   0  0  0  0  0  3  0  0  0  0  0  0
  188.6390  177.4970  141.6220 C   0  0  0  0  0  0  0  0  0  0  0  0
  183.5620  178.5730  141.1290 C   0  0  2  0  0  3  0  0  0  0  0  0
  184.3920  178.7000  145.9190 C   0  0  0  0  0  2  0  0  0  0  0  0
  185.8870  179.7530  147.4370 O   0  0  0  0  0  1  0  0  0  0  0  0
  185.6010  178.5370  146.8190 C   0  0  0  0  0  2  0  0  0  0  0  0
  1  5  1  0  0  0  0
  2 16  1  0  0  0  0
  3 17  1  0  0  0  0
  4 12  1  0  0  0  0
  4  1  2  0  0  0  0
  5 11  1  0  0  0  0
  7 15  1  6  0  0  0
  7 27  1  0  0  0  0
  8  6  1  1  0  0  0
  8 11  1  0  0  0  0
  9 14  1  6  0  0  0
  9 22  1  0  0  0  0
  9  7  1  0  0  0  0
 10  3  2  0  0  0  0
 10 22  1  0  0  0  0
 11 28  1  1  0  0  0
 12  8  1  0  0  0  0
 13  2  1  0  0  0  0
 14 23  1  0  0  0  0
 17 20  2  0  0  0  0
 17 26  1  0  0  0  0
 18 13  2  0  0  0  0
 19  1  1  0  0  0  0
 19  2  2  0  0  0  0
 20  4  1  0  0  0  0
 21 10  1  0  0  0  0
 22 20  1  0  0  0  0
 23 15  1  0  0  0  0
 25 26  2  0  0  0  0
 25 18  1  0  0  0  0
 26 19  1  0  0  0  0
 27 24  1  6  0  0  0
 27 12  1  0  0  0  0
 28 30  1  0  0  0  0
 30 29  1  0  0  0  0
M  END
>  <MODEL>
6

>  <REMARK>
 VINA RESULT:      -7.7      3.136      7.225
  Name = 
  2 active torsions:
  status: ('A' for Active; 'I' for Inactive)
    1  A    between atoms: C_11  and  C_28
    2  A    between atoms: C_28  and  C_30
                            x       y       z     vdW  Elec       q    Type
                         _______ _______ _______ _____ _____    ______ ____

>  <TORSDO>
F 2

$$$$
=
 OpenBabel11122410293D

 30 35  0  0  1  0  0  0  0  0999 V2000
  184.0690  178.7440  141.3400 C   0  0  0  0  0  0  0  0  0  0  0  0
  183.5080  178.8370  143.7850 C   0  0  0  0  0  0  0  0  0  0  0  0
  188.0090  177.8850  142.1540 N   0  0  0  0  0  0  0  0  0  0  0  0
  185.0380  178.5590  140.3180 C   0  0  0  0  0  0  0  0  0  0  0  0
  182.7500  179.0280  140.9600 O   0  0  0  0  0  0  0  0  0  0  0  0
  183.5300  180.7050  138.7230 O   0  0  0  0  0  1  0  0  0  0  0  0
  186.6310  178.6290  137.5850 C   0  0  1  0  0  3  0  0  0  0  0  0
  183.3530  179.3210  138.6320 C   0  0  2  0  0  3  0  0  0  0  0  0
  187.7670  178.2710  138.5150 C   0  0  2  0  0  3  0  0  0  0  0  0
  188.4510  177.8580  140.8790 C   0  0  0  0  0  0  0  0  0  0  0  0
  182.2890  178.8510  139.6210 C   0  0  2  0  0  3  0  0  0  0  0  0
  184.6100  178.6500  138.9480 N   0  0  0  0  0  0  0  0  0  0  0  0
  183.9380  178.7120  145.1100 C   0  0  0  0  0  3  0  0  0  0  0  0
  188.4110  177.0610  137.8740 C   0  0  0  0  0  2  0  0  0  0  0  0
  187.1430  178.1740  136.2330 C   0  0  0  0  0  2  0  0  0  0  0  0
  181.8090  179.2410  143.5690 Cl  0  0  0  0  0  0  0  0  0  0  0  0
  186.6980  178.1400  142.0180 C   0  0  0  0  0  0  0  0  0  0  0  0
  185.2620  178.4000  145.4100 C   0  0  0  0  0  3  0  0  0  0  0  0
  184.4300  178.6440  142.7180 C   0  0  0  0  0  0  0  0  0  0  0  0
  186.3610  178.2610  140.6950 C   0  0  0  0  0  0  0  0  0  0  0  0
  189.8970  177.6770  140.5560 C   0  0  0  0  0  1  0  0  0  0  0  0
  187.4800  178.0760  139.9480 N   0  0  0  0  0  0  0  0  0  0  0  0
  188.1580  177.1410  136.4390 N   0  0  0  0  0  2  0  0  0  0  0  0
  185.3400  176.4530  138.1080 C   0  0  0  0  0  1  0  0  0  0  0  0
  186.1800  178.2070  144.3830 C   0  0  0  0  0  3  0  0  0  0  0  0
  185.7780  178.3240  143.0480 C   0  0  0  0  0  0  0  0  0  0  0  0
  185.2900  177.9610  137.8710 C   0  0  2  0  0  3  0  0  0  0  0  0
  180.9680  179.5740  139.4080 C   0  0  0  0  0  2  0  0  0  0  0  0
  180.3410  177.3630  138.8070 O   0  0  0  0  0  1  0  0  0  0  0  0
  180.0190  178.7040  138.6080 C   0  0  0  0  0  2  0  0  0  0  0  0
  1 19  1  0  0  0  0
  2 13  1  0  0  0  0
  4 20  1  0  0  0  0
  4  1  2  0  0  0  0
  5  1  1  0  0  0  0
  7 15  1  6  0  0  0
  7 27  1  0  0  0  0
  7  9  1  0  0  0  0
  8  6  1  1  0  0  0
  8 12  1  0  0  0  0
  8 11  1  0  0  0  0
  9 14  1  6  0  0  0
  9 22  1  0  0  0  0
 10  3  2  0  0  0  0
 11 28  1  1  0  0  0
 11  5  1  0  0  0  0
 12  4  1  0  0  0  0
 13 18  2  0  0  0  0
 15 23  1  0  0  0  0
 16  2  1  0  0  0  0
 17  3  1  0  0  0  0
 17 26  1  0  0  0  0
 19 26  1  0  0  0  0
 19  2  2  0  0  0  0
 20 17  2  0  0  0  0
 21 10  1  0  0  0  0
 22 20  1  0  0  0  0
 22 10  1  0  0  0  0
 23 14  1  0  0  0  0
 25 18  1  0  0  0  0
 26 25  2  0  0  0  0
 27 24  1  1  0  0  0
 27 12  1  0  0  0  0
 30 29  1  0  0  0  0
 30 28  1  0  0  0  0
M  END
>  <MODEL>
7

>  <REMARK>
 VINA RESULT:      -7.5      2.913      5.722
  Name = 
  2 active torsions:
  status: ('A' for Active; 'I' for Inactive)
    1  A    between atoms: C_11  and  C_28
    2  A    between atoms: C_28  and  C_30
                            x       y       z     vdW  Elec       q    Type
                         _______ _______ _______ _____ _____    ______ ____

>  <TORSDO>
F 2

$$$$
=
 OpenBabel11122410293D

 30 35  0  0  1  0  0  0  0  0999 V2000
  187.7000  177.7420  143.5140 C   0  0  0  0  0  0  0  0  0  0  0  0
  186.3620  178.1720  145.5940 C   0  0  0  0  0  0  0  0  0  0  0  0
  184.5190  178.7600  141.1130 N   0  0  0  0  0  0  0  0  0  0  0  0
  187.7710  177.7060  142.0960 C   0  0  0  0  0  0  0  0  0  0  0  0
  188.8410  177.3820  144.2450 O   0  0  0  0  0  0  0  0  0  0  0  0
  189.6090  175.2670  142.4100 O   0  0  0  0  0  1  0  0  0  0  0  0
  188.5680  177.0570  139.1030 C   0  0  1  0  0  3  0  0  0  0  0  0
  190.0090  176.5990  142.2710 C   0  0  2  0  0  3  0  0  0  0  0  0
  187.1800  177.6070  138.8670 C   0  0  2  0  0  3  0  0  0  0  0  0
  185.1100  178.5150  139.9240 C   0  0  0  0  0  0  0  0  0  0  0  0
  190.1280  177.2680  143.6380 C   0  0  2  0  0  3  0  0  0  0  0  0
  189.0160  177.3240  141.4850 N   0  0  0  0  0  0  0  0  0  0  0  0
  185.1530  178.5770  146.1690 C   0  0  0  0  0  3  0  0  0  0  0  0
  187.3680  178.6530  137.7910 C   0  0  0  0  0  2  0  0  0  0  0  0
  189.2290  177.2140  137.7490 C   0  0  0  0  0  2  0  0  0  0  0  0
  187.6340  177.7290  146.7270 Cl  0  0  0  0  0  0  0  0  0  0  0  0
  185.4880  178.4800  141.9990 C   0  0  0  0  0  0  0  0  0  0  0  0
  184.0690  178.9470  145.3770 C   0  0  0  0  0  3  0  0  0  0  0  0
  186.4980  178.1340  144.1780 C   0  0  0  0  0  0  0  0  0  0  0  0
  186.6310  178.0790  141.3590 C   0  0  0  0  0  0  0  0  0  0  0  0
  184.3580  178.6260  138.6390 C   0  0  0  0  0  1  0  0  0  0  0  0
  186.4050  178.1030  140.0200 N   0  0  0  0  0  0  0  0  0  0  0  0
  188.5370  178.2690  137.0080 N   0  0  0  0  0  2  0  0  0  0  0  0
  189.4340  179.2930  140.0650 C   0  0  0  0  0  1  0  0  0  0  0  0
  184.1800  178.9180  143.9900 C   0  0  0  0  0  3  0  0  0  0  0  0
  185.3770  178.5180  143.3870 C   0  0  0  0  0  0  0  0  0  0  0  0
  189.4040  177.7690  140.1620 C   0  0  2  0  0  3  0  0  0  0  0  0
  191.0850  176.5140  144.5490 C   0  0  0  0  0  2  0  0  0  0  0  0
  192.1320  176.5890  146.6810 O   0  0  0  0  0  1  0  0  0  0  0  0
  191.0960  177.1410  145.9290 C   0  0  0  0  0  2  0  0  0  0  0  0
  1 19  1  0  0  0  0
  1  5  1  0  0  0  0
  2 13  1  0  0  0  0
  2 16  1  0  0  0  0
  3 17  1  0  0  0  0
  4  1  2  0  0  0  0
  7 15  1  6  0  0  0
  7 27  1  0  0  0  0
  8  6  1  1  0  0  0
  8 11  1  0  0  0  0
  9 14  1  6  0  0  0
  9  7  1  0  0  0  0
  9 22  1  0  0  0  0
 10 22  1  0  0  0  0
 10  3  2  0  0  0  0
 11  5  1  0  0  0  0
 11 28  1  1  0  0  0
 12  4  1  0  0  0  0
 12  8  1  0  0  0  0
 17 26  1  0  0  0  0
 18 13  2  0  0  0  0
 19  2  2  0  0  0  0
 20 17  2  0  0  0  0
 20  4  1  0  0  0  0
 21 10  1  0  0  0  0
 22 20  1  0  0  0  0
 23 15  1  0  0  0  0
 23 14  1  0  0  0  0
 25 18  1  0  0  0  0
 26 25  2  0  0  0  0
 26 19  1  0  0  0  0
 27 24  1  1  0  0  0
 27 12  1  0  0  0  0
 28 30  1  0  0  0  0
 30 29  1  0  0  0  0
M  END
>  <MODEL>
8

>  <REMARK>
 VINA RESULT:      -7.5      2.872      5.628
  Name = 
  2 active torsions:
  status: ('A' for Active; 'I' for Inactive)
    1  A    between atoms: C_11  and  C_28
    2  A    between atoms: C_28  and  C_30
                            x       y       z     vdW  Elec       q    Type
                         _______ _______ _______ _____ _____    ______ ____

>  <TORSDO>
F 2

$$$$
=
 OpenBabel11122410293D

 30 35  0  0  1  0  0  0  0  0999 V2000
  188.1100  177.7230  143.0170 C   0  0  0  0  0  0  0  0  0  0  0  0
  188.6230  177.2840  145.4350 C   0  0  0  0  0  0  0  0  0  0  0  0
  192.0490  177.1860  141.9590 N   0  0  0  0  0  0  0  0  0  0  0  0
  188.5660  177.8490  141.6780 C   0  0  0  0  0  0  0  0  0  0  0  0
  186.7460  177.9190  143.2760 O   0  0  0  0  0  0  0  0  0  0  0  0
  186.4720  180.0700  141.3450 O   0  0  0  0  0  1  0  0  0  0  0  0
  188.8630  178.6200  138.6230 C   0  0  1  0  0  3  0  0  0  0  0  0
  186.3100  178.7170  141.0300 C   0  0  2  0  0  3  0  0  0  0  0  0
  190.2940  178.2260  138.9110 C   0  0  2  0  0  3  0  0  0  0  0  0
  191.9160  177.4530  140.6420 C   0  0  0  0  0  0  0  0  0  0  0  0
  185.7710  177.9480  142.2340 C   0  0  2  0  0  3  0  0  0  0  0  0
  187.6000  178.1480  140.6550 N   0  0  0  0  0  0  0  0  0  0  0  0
  189.5720  176.9600  146.4100 C   0  0  0  0  0  3  0  0  0  0  0  0
  190.6400  177.2420  137.8150 C   0  0  0  0  0  2  0  0  0  0  0  0
  188.7730  178.4930  137.1160 C   0  0  0  0  0  2  0  0  0  0  0  0
  186.9810  177.5220  146.0190 Cl  0  0  0  0  0  0  0  0  0  0  0  0
  190.7950  177.3090  142.4240 C   0  0  0  0  0  0  0  0  0  0  0  0
  190.9080  176.7520  146.0730 C   0  0  0  0  0  3  0  0  0  0  0  0
  189.0180  177.4050  144.0730 C   0  0  0  0  0  0  0  0  0  0  0  0
  189.9320  177.6390  141.4120 C   0  0  0  0  0  0  0  0  0  0  0  0
  193.0980  177.5050  139.7310 C   0  0  0  0  0  1  0  0  0  0  0  0
  190.6390  177.7300  140.2570 N   0  0  0  0  0  0  0  0  0  0  0  0
  189.8070  177.5640  136.6610 N   0  0  0  0  0  2  0  0  0  0  0  0
  187.9680  176.2500  139.1290 C   0  0  0  0  0  1  0  0  0  0  0  0
  191.3150  176.8650  144.7480 C   0  0  0  0  0  3  0  0  0  0  0  0
  190.3880  177.1860  143.7510 C   0  0  0  0  0  0  0  0  0  0  0  0
  187.7840  177.7600  139.2710 C   0  0  2  0  0  3  0  0  0  0  0  0
  184.4640  178.5410  142.7380 C   0  0  0  0  0  2  0  0  0  0  0  0
  183.3600  179.3790  144.6680 O   0  0  0  0  0  1  0  0  0  0  0  0
  184.5480  178.7960  144.2300 C   0  0  0  0  0  2  0  0  0  0  0  0
  1  5  1  0  0  0  0
  1 19  1  0  0  0  0
  2 16  1  0  0  0  0
  2 13  1  0  0  0  0
  3 17  1  0  0  0  0
  4  1  2  0  0  0  0
  7 15  1  6  0  0  0
  7  9  1  0  0  0  0
  7 27  1  0  0  0  0
  8  6  1  1  0  0  0
  8 11  1  0  0  0  0
  9 14  1  6  0  0  0
  9 22  1  0  0  0  0
 10  3  2  0  0  0  0
 11 28  1  1  0  0  0
 11  5  1  0  0  0  0
 12  8  1  0  0  0  0
 12  4  1  0  0  0  0
 17 26  1  0  0  0  0
 18 13  2  0  0  0  0
 19  2  2  0  0  0  0
 20  4  1  0  0  0  0
 20 17  2  0  0  0  0
 21 10  1  0  0  0  0
 22 10  1  0  0  0  0
 22 20  1  0  0  0  0
 23 15  1  0  0  0  0
 23 14  1  0  0  0  0
 25 18  1  0  0  0  0
 26 19  1  0  0  0  0
 26 25  2  0  0  0  0
 27 24  1  1  0  0  0
 27 12  1  0  0  0  0
 28 30  1  0  0  0  0
 30 29  1  0  0  0  0
M  END
>  <MODEL>
9

>  <REMARK>
 VINA RESULT:      -7.2      2.569      6.174
  Name = 
  2 active torsions:
  status: ('A' for Active; 'I' for Inactive)
    1  A    between atoms: C_11  and  C_28
    2  A    between atoms: C_28  and  C_30
                            x       y       z     vdW  Elec       q    Type
                         _______ _______ _______ _____ _____    ______ ____

>  <TORSDO>
F 2

$$$$
