=
 OpenBabel11122411493D

 37 41  0  0  1  0  0  0  0  0999 V2000
  187.2020  177.2440  143.1220 C   0  0  1  0  0  3  0  0  0  0  0  0
  190.9100  177.2520  142.6090 C   0  0  0  0  0  2  0  0  0  0  0  0
  185.7790  177.8320  145.1660 C   0  0  2  0  0  3  0  0  0  0  0  0
  188.5650  177.6010  143.4420 N   0  0  2  0  0  0  0  0  0  0  0  0
  186.6000  176.7570  144.4240 C   0  0  2  0  0  3  0  0  0  0  0  0
  189.4080  177.1390  142.3190 C   0  0  1  0  0  3  0  0  0  0  0  0
  184.8120  178.4770  144.2180 C   0  0  0  0  0  3  0  0  0  0  0  0
  187.6620  176.2990  145.2160 O   0  0  0  0  0  0  0  0  0  0  0  0
  186.8720  178.8550  141.1860 C   0  0  0  0  0  2  0  0  0  0  0  0
  185.1900  178.7670  142.9780 C   0  0  0  0  0  3  0  0  0  0  0  0
  190.5980  179.1500  144.1230 O   0  0  0  0  0  0  0  0  0  0  0  0
  191.3460  178.6610  143.0380 C   0  0  0  0  0  2  0  0  0  0  0  0
  186.4870  178.3800  142.5100 N   0  0  0  0  0  0  0  0  0  0  0  0
  188.8570  176.8080  144.6490 C   0  0  2  0  0  3  0  0  0  0  0  0
  189.0900  177.8440  141.0650 N   0  0  0  0  0  0  0  0  0  0  0  0
  190.8800  178.3110  145.2070 C   0  0  0  0  0  2  0  0  0  0  0  0
  189.6100  177.6250  145.7210 C   0  0  2  0  0  3  0  0  0  0  0  0
  188.3690  179.1160  141.1080 C   0  0  0  0  0  2  0  0  0  0  0  0
  188.3900  177.0880  138.8130 C   0  0  0  0  0  3  0  0  0  0  0  0
  189.3890  177.2310  139.7920 C   0  0  0  0  0  0  0  0  0  0  0  0
  190.6850  176.7660  139.5090 C   0  0  0  0  0  3  0  0  0  0  0  0
  192.3500  175.6870  137.9920 C   0  0  0  0  0  1  0  0  0  0  0  0
  189.9730  176.0380  137.3130 C   0  0  0  0  0  3  0  0  0  0  0  0
  190.9740  176.1730  138.2760 C   0  0  0  0  0  0  0  0  0  0  0  0
  188.6800  176.4950  137.5810 C   0  0  0  0  0  3  0  0  0  0  0  0
  189.9930  176.7600  146.7660 O   0  0  0  0  0  0  0  0  0  0  0  0
  191.4020  176.6760  146.8430 C   0  0  1  0  0  3  0  0  0  0  0  0
  192.8420  176.3120  148.3990 O   0  0  0  0  0  1  0  0  0  0  0  0
  191.9120  177.1750  148.0510 O   0  0  0  0  0  0  0  0  0  0  0  0
  191.8980  175.2650  146.5580 C   0  0  0  0  0  2  0  0  0  0  0  0
  192.1710  175.0730  145.0750 C   0  0  0  0  0  2  0  0  0  0  0  0
  192.5980  173.7670  144.8300 O   0  0  0  0  0  1  0  0  0  0  0  0
  186.6320  178.8060  145.7240 O   0  0  0  0  0  0  0  0  0  0  0  0
  186.3260  178.9660  147.0940 C   0  0  0  0  0  0  0  0  0  0  0  0
  187.3390  178.4400  147.8780 F   0  0  0  0  0  0  0  0  0  0  0  0
  186.1280  180.2990  147.4290 F   0  0  0  0  0  0  0  0  0  0  0  0
  185.1630  178.2720  147.3670 F   0  0  0  0  0  0  0  0  0  0  0  0
  1 13  1  1  0  0  0
  1  4  1  0  0  0  0
  1  5  1  0  0  0  0
  2 12  1  0  0  0  0
  3 33  1  6  0  0  0
  4 14  1  0  0  0  0
  5  3  1  0  0  0  0
  5  8  1  0  0  0  0
  6  2  1  0  0  0  0
  6  4  1  0  0  0  0
  7  3  1  0  0  0  0
  9 13  1  0  0  0  0
 10  7  2  0  0  0  0
 11 16  1  0  0  0  0
 12 11  1  0  0  0  0
 13 10  1  0  0  0  0
 14  8  1  0  0  0  0
 14 17  1  0  0  0  0
 15 18  1  0  0  0  0
 15  6  1  0  0  0  0
 16 17  1  0  0  0  0
 17 26  1  0  0  0  0
 18  9  1  0  0  0  0
 19 20  1  0  0  0  0
 20 15  1  0  0  0  0
 21 20  2  0  0  0  0
 22 24  1  0  0  0  0
 23 25  1  0  0  0  0
 23 24  2  0  0  0  0
 24 21  1  0  0  0  0
 25 19  2  0  0  0  0
 26 27  1  0  0  0  0
 27 29  1  0  0  0  0
 29 28  1  0  0  0  0
 30 27  1  0  0  0  0
 31 30  1  0  0  0  0
 32 31  1  0  0  0  0
 33 34  1  0  0  0  0
 34 37  1  0  0  0  0
 34 36  1  0  0  0  0
 34 35  1  0  0  0  0
M  END
>  <MODEL>
1

>  <REMARK>
 VINA RESULT:      -7.9      0.000      0.000
  Name = 
  8 active torsions:
  status: ('A' for Active; 'I' for Inactive)
    1  A    between atoms: O_1  and  C_4
    2  A    between atoms: O_1  and  C_27
    3  A    between atoms: C_2  and  O_22
    4  A    between atoms: C_4  and  C_12
    5  A    between atoms: C_4  and  O_37
    6  A    between atoms: C_6  and  O_22
    7  A    between atoms: C_8  and  C_12
    8  A    between atoms: N_23  and  C_30
                            x       y       z     vdW  Elec       q    Type
                         _______ _______ _______ _____ _____    ______ ____

>  <TORSDO>
F 8

$$$$
=
 OpenBabel11122411493D

 37 41  0  0  1  0  0  0  0  0999 V2000
  187.1600  177.2950  142.4850 C   0  0  1  0  0  3  0  0  0  0  0  0
  190.8890  177.0600  142.7160 C   0  0  0  0  0  2  0  0  0  0  0  0
  185.4070  178.0450  144.1910 C   0  0  2  0  0  3  0  0  0  0  0  0
  188.4550  177.5810  143.0590 N   0  0  2  0  0  0  0  0  0  0  0  0
  186.2840  176.8950  143.6540 C   0  0  2  0  0  3  0  0  0  0  0  0
  189.4690  177.0270  142.1380 C   0  0  1  0  0  3  0  0  0  0  0  0
  184.6900  178.7100  143.0550 C   0  0  0  0  0  3  0  0  0  0  0  0
  187.1380  176.4050  144.6520 O   0  0  0  0  0  0  0  0  0  0  0  0
  187.3240  178.8470  140.4810 C   0  0  0  0  0  2  0  0  0  0  0  0
  185.3220  178.9300  141.9080 C   0  0  0  0  0  3  0  0  0  0  0  0
  190.4140  179.0300  144.0900 O   0  0  0  0  0  0  0  0  0  0  0  0
  191.3260  178.4550  143.1860 C   0  0  0  0  0  2  0  0  0  0  0  0
  186.6560  178.4480  141.7150 N   0  0  0  0  0  0  0  0  0  0  0  0
  188.4510  176.8190  144.3200 C   0  0  2  0  0  3  0  0  0  0  0  0
  189.4500  177.7010  140.8280 N   0  0  0  0  0  0  0  0  0  0  0  0
  190.4220  178.2170  145.2290 C   0  0  0  0  0  2  0  0  0  0  0  0
  189.0330  177.6290  145.4990 C   0  0  2  0  0  3  0  0  0  0  0  0
  188.8220  179.0150  140.6940 C   0  0  0  0  0  2  0  0  0  0  0  0
  189.0660  176.4500  138.7260 C   0  0  0  0  0  3  0  0  0  0  0  0
  189.9510  177.0230  139.6550 C   0  0  0  0  0  0  0  0  0  0  0  0
  191.3330  176.9250  139.4210 C   0  0  0  0  0  3  0  0  0  0  0  0
  193.2830  176.1760  138.0520 C   0  0  0  0  0  1  0  0  0  0  0  0
  190.9280  175.7050  137.3710 C   0  0  0  0  0  3  0  0  0  0  0  0
  191.8190  176.2700  138.2850 C   0  0  0  0  0  0  0  0  0  0  0  0
  189.5510  175.7930  137.5910 C   0  0  0  0  0  3  0  0  0  0  0  0
  189.1450  176.7830  146.6200 O   0  0  0  0  0  0  0  0  0  0  0  0
  190.3090  177.0980  147.3590 C   0  0  1  0  0  3  0  0  0  0  0  0
  188.7660  177.7660  148.7020 O   0  0  0  0  0  1  0  0  0  0  0  0
  190.0480  177.9320  148.4560 O   0  0  0  0  0  0  0  0  0  0  0  0
  191.0720  175.8460  147.7670 C   0  0  0  0  0  2  0  0  0  0  0  0
  192.3810  175.7310  147.0030 C   0  0  0  0  0  2  0  0  0  0  0  0
  192.1400  175.3060  145.6960 O   0  0  0  0  0  1  0  0  0  0  0  0
  186.1970  178.9870  144.8820 O   0  0  0  0  0  0  0  0  0  0  0  0
  185.7310  179.1040  146.2110 C   0  0  0  0  0  0  0  0  0  0  0  0
  186.2710  178.1030  147.0010 F   0  0  0  0  0  0  0  0  0  0  0  0
  186.0370  180.3410  146.7610 F   0  0  0  0  0  0  0  0  0  0  0  0
  184.3570  178.9580  146.2070 F   0  0  0  0  0  0  0  0  0  0  0  0
  1 13  1  1  0  0  0
  1  4  1  0  0  0  0
  1  5  1  0  0  0  0
  2 12  1  0  0  0  0
  3 33  1  6  0  0  0
  4 14  1  0  0  0  0
  5  3  1  0  0  0  0
  5  8  1  0  0  0  0
  6  2  1  0  0  0  0
  6  4  1  0  0  0  0
  7  3  1  0  0  0  0
  9 18  1  0  0  0  0
  9 13  1  0  0  0  0
 10  7  2  0  0  0  0
 11 16  1  0  0  0  0
 12 11  1  0  0  0  0
 13 10  1  0  0  0  0
 14  8  1  0  0  0  0
 14 17  1  0  0  0  0
 15  6  1  0  0  0  0
 16 17  1  0  0  0  0
 17 26  1  0  0  0  0
 18 15  1  0  0  0  0
 19 20  1  0  0  0  0
 20 15  1  0  0  0  0
 21 20  2  0  0  0  0
 22 24  1  0  0  0  0
 23 25  1  0  0  0  0
 23 24  2  0  0  0  0
 24 21  1  0  0  0  0
 25 19  2  0  0  0  0
 26 27  1  0  0  0  0
 27 30  1  0  0  0  0
 27 29  1  0  0  0  0
 29 28  1  0  0  0  0
 31 30  1  0  0  0  0
 32 31  1  0  0  0  0
 33 34  1  0  0  0  0
 34 36  1  0  0  0  0
 34 35  1  0  0  0  0
 37 34  1  0  0  0  0
M  END
>  <MODEL>
2

>  <REMARK>
 VINA RESULT:      -7.4      1.054      1.240
  Name = 
  8 active torsions:
  status: ('A' for Active; 'I' for Inactive)
    1  A    between atoms: O_1  and  C_4
    2  A    between atoms: O_1  and  C_27
    3  A    between atoms: C_2  and  O_22
    4  A    between atoms: C_4  and  C_12
    5  A    between atoms: C_4  and  O_37
    6  A    between atoms: C_6  and  O_22
    7  A    between atoms: C_8  and  C_12
    8  A    between atoms: N_23  and  C_30
                            x       y       z     vdW  Elec       q    Type
                         _______ _______ _______ _____ _____    ______ ____

>  <TORSDO>
F 8

$$$$
=
 OpenBabel11122411493D

 37 41  0  0  1  0  0  0  0  0999 V2000
  186.3350  177.4460  144.6170 C   0  0  1  0  0  3  0  0  0  0  0  0
  185.3690  178.2670  141.0950 C   0  0  0  0  0  2  0  0  0  0  0  0
  188.6280  177.2140  145.7290 C   0  0  2  0  0  3  0  0  0  0  0  0
  186.5630  177.9510  143.2830 N   0  0  2  0  0  0  0  0  0  0  0  0
  187.5110  176.5370  144.9070 C   0  0  2  0  0  3  0  0  0  0  0  0
  185.2570  177.9590  142.5940 C   0  0  1  0  0  3  0  0  0  0  0  0
  188.0350  177.8920  146.9280 C   0  0  0  0  0  3  0  0  0  0  0  0
  187.9960  176.0930  143.6690 O   0  0  0  0  0  0  0  0  0  0  0  0
  184.9950  179.4130  145.5040 C   0  0  0  0  0  2  0  0  0  0  0  0
  186.8910  178.5570  146.8170 C   0  0  0  0  0  3  0  0  0  0  0  0
  187.3870  179.6180  141.4010 O   0  0  0  0  0  0  0  0  0  0  0  0
  186.1200  179.5720  140.7940 C   0  0  0  0  0  2  0  0  0  0  0  0
  186.1690  178.5500  145.5810 N   0  0  0  0  0  0  0  0  0  0  0  0
  187.4470  176.9410  142.6760 C   0  0  2  0  0  3  0  0  0  0  0  0
  184.3060  178.8930  143.2220 N   0  0  0  0  0  0  0  0  0  0  0  0
  188.1420  178.5940  140.8190 C   0  0  0  0  0  2  0  0  0  0  0  0
  188.6000  177.5780  141.8690 C   0  0  2  0  0  3  0  0  0  0  0  0
  184.8010  179.9560  144.0960 C   0  0  0  0  0  2  0  0  0  0  0  0
  182.0410  178.6440  144.1910 C   0  0  0  0  0  3  0  0  0  0  0  0
  182.8840  178.6950  143.0670 C   0  0  0  0  0  0  0  0  0  0  0  0
  182.3170  178.5510  141.7890 C   0  0  0  0  0  3  0  0  0  0  0  0
  180.3560  178.2110  140.2810 C   0  0  0  0  0  1  0  0  0  0  0  0
  180.1150  178.3120  142.7640 C   0  0  0  0  0  3  0  0  0  0  0  0
  180.9400  178.3610  141.6390 C   0  0  0  0  0  0  0  0  0  0  0  0
  180.6650  178.4530  144.0410 C   0  0  0  0  0  3  0  0  0  0  0  0
  189.2980  176.5580  141.1910 O   0  0  0  0  0  0  0  0  0  0  0  0
  190.3380  177.1100  140.4090 C   0  0  1  0  0  3  0  0  0  0  0  0
  192.4620  177.4170  140.2630 O   0  0  0  0  0  1  0  0  0  0  0  0
  191.4950  177.3810  141.1540 O   0  0  0  0  0  0  0  0  0  0  0  0
  190.6380  176.2530  139.1870 C   0  0  0  0  0  2  0  0  0  0  0  0
  189.6600  176.5470  138.0610 C   0  0  0  0  0  2  0  0  0  0  0  0
  189.7820  177.8750  137.6520 O   0  0  0  0  0  1  0  0  0  0  0  0
  189.3240  178.1500  144.9370 O   0  0  0  0  0  0  0  0  0  0  0  0
  190.6920  177.7980  144.8910 C   0  0  0  0  0  0  0  0  0  0  0  0
  191.1670  177.5430  146.1660 F   0  0  0  0  0  0  0  0  0  0  0  0
  190.9150  176.6900  144.0850 F   0  0  0  0  0  0  0  0  0  0  0  0
  191.4010  178.8640  144.3710 F   0  0  0  0  0  0  0  0  0  0  0  0
  1  5  1  0  0  0  0
  1 13  1  1  0  0  0
  2  6  1  0  0  0  0
  3 33  1  6  0  0  0
  3  7  1  0  0  0  0
  4  1  1  0  0  0  0
  5  3  1  0  0  0  0
  6 15  1  0  0  0  0
  6  4  1  0  0  0  0
  8  5  1  0  0  0  0
  9 13  1  0  0  0  0
 10  7  2  0  0  0  0
 12  2  1  0  0  0  0
 12 11  1  0  0  0  0
 13 10  1  0  0  0  0
 14  4  1  0  0  0  0
 14  8  1  0  0  0  0
 15 18  1  0  0  0  0
 16 11  1  0  0  0  0
 16 17  1  0  0  0  0
 17 14  1  0  0  0  0
 18  9  1  0  0  0  0
 20 15  1  0  0  0  0
 20 19  2  0  0  0  0
 21 20  1  0  0  0  0
 22 24  1  0  0  0  0
 23 25  2  0  0  0  0
 24 21  2  0  0  0  0
 24 23  1  0  0  0  0
 25 19  1  0  0  0  0
 26 17  1  0  0  0  0
 27 29  1  0  0  0  0
 27 26  1  0  0  0  0
 28 29  1  0  0  0  0
 30 27  1  0  0  0  0
 31 30  1  0  0  0  0
 32 31  1  0  0  0  0
 34 33  1  0  0  0  0
 34 35  1  0  0  0  0
 36 34  1  0  0  0  0
 37 34  1  0  0  0  0
M  END
>  <MODEL>
3

>  <REMARK>
 VINA RESULT:      -7.1      3.071      6.446
  Name = 
  8 active torsions:
  status: ('A' for Active; 'I' for Inactive)
    1  A    between atoms: O_1  and  C_4
    2  A    between atoms: O_1  and  C_27
    3  A    between atoms: C_2  and  O_22
    4  A    between atoms: C_4  and  C_12
    5  A    between atoms: C_4  and  O_37
    6  A    between atoms: C_6  and  O_22
    7  A    between atoms: C_8  and  C_12
    8  A    between atoms: N_23  and  C_30
                            x       y       z     vdW  Elec       q    Type
                         _______ _______ _______ _____ _____    ______ ____

>  <TORSDO>
F 8

$$$$
=
 OpenBabel11122411493D

 37 41  0  0  1  0  0  0  0  0999 V2000
  186.0640  177.4750  144.5120 C   0  0  1  0  0  3  0  0  0  0  0  0
  185.3660  178.2350  140.9130 C   0  0  0  0  0  2  0  0  0  0  0  0
  188.2640  177.2950  145.8030 C   0  0  2  0  0  3  0  0  0  0  0  0
  186.3890  177.9670  143.1920 N   0  0  2  0  0  0  0  0  0  0  0  0
  187.2270  176.5890  144.9060 C   0  0  2  0  0  3  0  0  0  0  0  0
  185.1400  177.9450  142.4020 C   0  0  1  0  0  3  0  0  0  0  0  0
  187.5690  177.9790  146.9420 C   0  0  0  0  0  3  0  0  0  0  0  0
  187.8140  176.1370  143.7160 O   0  0  0  0  0  0  0  0  0  0  0  0
  184.6280  179.4320  145.2620 C   0  0  0  0  0  2  0  0  0  0  0  0
  186.4280  178.6240  146.7320 C   0  0  0  0  0  3  0  0  0  0  0  0
  187.3330  179.6230  141.3580 O   0  0  0  0  0  0  0  0  0  0  0  0
  186.1190  179.5480  140.6530 C   0  0  0  0  0  2  0  0  0  0  0  0
  185.8050  178.5890  145.4430 N   0  0  0  0  0  0  0  0  0  0  0  0
  187.3330  176.9640  142.6710 C   0  0  2  0  0  3  0  0  0  0  0  0
  184.1290  178.8710  142.9400 N   0  0  0  0  0  0  0  0  0  0  0  0
  188.1470  178.6040  140.8510 C   0  0  0  0  0  2  0  0  0  0  0  0
  188.5360  177.6080  141.9480 C   0  0  2  0  0  3  0  0  0  0  0  0
  184.5380  179.9540  143.8360 C   0  0  0  0  0  2  0  0  0  0  0  0
  182.2890  178.2740  141.3950 C   0  0  0  0  0  3  0  0  0  0  0  0
  182.7270  178.6490  142.6770 C   0  0  0  0  0  0  0  0  0  0  0  0
  181.7750  178.8010  143.6990 C   0  0  0  0  0  3  0  0  0  0  0  0
  179.4220  178.7500  144.5360 C   0  0  0  0  0  1  0  0  0  0  0  0
  179.9960  178.2140  142.1670 C   0  0  0  0  0  3  0  0  0  0  0  0
  180.4170  178.5850  143.4450 C   0  0  0  0  0  0  0  0  0  0  0  0
  180.9320  178.0590  141.1410 C   0  0  0  0  0  3  0  0  0  0  0  0
  189.3000  176.5910  141.3420 O   0  0  0  0  0  0  0  0  0  0  0  0
  190.3500  177.1530  140.5800 C   0  0  1  0  0  3  0  0  0  0  0  0
  192.4670  177.5180  140.4660 O   0  0  0  0  0  1  0  0  0  0  0  0
  191.4930  177.4270  141.3450 O   0  0  0  0  0  0  0  0  0  0  0  0
  190.6750  176.3040  139.3590 C   0  0  0  0  0  2  0  0  0  0  0  0
  189.6770  176.5530  138.2400 C   0  0  0  0  0  2  0  0  0  0  0  0
  190.2920  177.2320  137.1880 O   0  0  0  0  0  1  0  0  0  0  0  0
  189.0070  178.2320  145.0560 O   0  0  0  0  0  0  0  0  0  0  0  0
  190.3720  177.8650  145.0680 C   0  0  0  0  0  0  0  0  0  0  0  0
  190.5640  176.7020  144.3410 F   0  0  0  0  0  0  0  0  0  0  0  0
  191.1830  178.8680  144.5560 F   0  0  0  0  0  0  0  0  0  0  0  0
  190.7490  177.6250  146.3750 F   0  0  0  0  0  0  0  0  0  0  0  0
  1  5  1  0  0  0  0
  1 13  1  1  0  0  0
  2  6  1  0  0  0  0
  3 33  1  6  0  0  0
  3  7  1  0  0  0  0
  4  1  1  0  0  0  0
  5  3  1  0  0  0  0
  6 15  1  0  0  0  0
  6  4  1  0  0  0  0
  8  5  1  0  0  0  0
  9 13  1  0  0  0  0
 10  7  2  0  0  0  0
 12  2  1  0  0  0  0
 12 11  1  0  0  0  0
 13 10  1  0  0  0  0
 14  4  1  0  0  0  0
 14  8  1  0  0  0  0
 15 18  1  0  0  0  0
 16 11  1  0  0  0  0
 16 17  1  0  0  0  0
 17 14  1  0  0  0  0
 18  9  1  0  0  0  0
 19 20  1  0  0  0  0
 20 15  1  0  0  0  0
 20 21  2  0  0  0  0
 23 24  2  0  0  0  0
 24 21  1  0  0  0  0
 24 22  1  0  0  0  0
 25 19  2  0  0  0  0
 25 23  1  0  0  0  0
 26 17  1  0  0  0  0
 27 26  1  0  0  0  0
 27 29  1  0  0  0  0
 28 29  1  0  0  0  0
 30 27  1  0  0  0  0
 31 30  1  0  0  0  0
 32 31  1  0  0  0  0
 33 34  1  0  0  0  0
 34 37  1  0  0  0  0
 35 34  1  0  0  0  0
 36 34  1  0  0  0  0
M  END
>  <MODEL>
4

>  <REMARK>
 VINA RESULT:      -6.8      3.086      6.454
  Name = 
  8 active torsions:
  status: ('A' for Active; 'I' for Inactive)
    1  A    between atoms: O_1  and  C_4
    2  A    between atoms: O_1  and  C_27
    3  A    between atoms: C_2  and  O_22
    4  A    between atoms: C_4  and  C_12
    5  A    between atoms: C_4  and  O_37
    6  A    between atoms: C_6  and  O_22
    7  A    between atoms: C_8  and  C_12
    8  A    between atoms: N_23  and  C_30
                            x       y       z     vdW  Elec       q    Type
                         _______ _______ _______ _____ _____    ______ ____

>  <TORSDO>
F 8

$$$$
=
 OpenBabel11122411493D

 37 41  0  0  1  0  0  0  0  0999 V2000
  187.5340  177.0740  142.7330 C   0  0  1  0  0  3  0  0  0  0  0  0
  191.2670  177.1050  142.4570 C   0  0  0  0  0  2  0  0  0  0  0  0
  185.9830  177.5560  144.7100 C   0  0  2  0  0  3  0  0  0  0  0  0
  188.8730  177.4120  143.1570 N   0  0  2  0  0  0  0  0  0  0  0  0
  186.8520  176.5200  143.9670 C   0  0  2  0  0  3  0  0  0  0  0  0
  189.7870  177.0090  142.0670 C   0  0  1  0  0  3  0  0  0  0  0  0
  185.0770  178.2500  143.7380 C   0  0  0  0  0  3  0  0  0  0  0  0
  187.8630  176.0210  144.8000 O   0  0  0  0  0  0  0  0  0  0  0  0
  187.3240  178.7840  140.8660 C   0  0  0  0  0  2  0  0  0  0  0  0
  185.5320  178.6040  142.5420 C   0  0  0  0  0  3  0  0  0  0  0  0
  190.8560  178.9220  144.0450 O   0  0  0  0  0  0  0  0  0  0  0  0
  191.6720  178.4890  142.9850 C   0  0  0  0  0  2  0  0  0  0  0  0
  186.8570  178.2410  142.1370 N   0  0  0  0  0  0  0  0  0  0  0  0
  189.0900  176.5570  144.3370 C   0  0  2  0  0  3  0  0  0  0  0  0
  189.5470  177.7790  140.8340 N   0  0  0  0  0  0  0  0  0  0  0  0
  191.0700  178.0270  145.1000 C   0  0  0  0  0  2  0  0  0  0  0  0
  189.7730  177.3170  145.4960 C   0  0  2  0  0  3  0  0  0  0  0  0
  188.8220  179.0480  140.8970 C   0  0  0  0  0  2  0  0  0  0  0  0
  188.9540  176.9280  138.5850 C   0  0  0  0  0  3  0  0  0  0  0  0
  189.9270  177.2330  139.5520 C   0  0  0  0  0  0  0  0  0  0  0  0
  191.2790  176.9970  139.2480 C   0  0  0  0  0  3  0  0  0  0  0  0
  193.0810  176.2270  137.7000 C   0  0  0  0  0  1  0  0  0  0  0  0
  190.6700  176.1710  137.0560 C   0  0  0  0  0  3  0  0  0  0  0  0
  191.6480  176.4700  138.0060 C   0  0  0  0  0  0  0  0  0  0  0  0
  189.3220  176.3990  137.3450 C   0  0  0  0  0  3  0  0  0  0  0  0
  190.0900  176.3980  146.5160 O   0  0  0  0  0  0  0  0  0  0  0  0
  190.3640  177.0800  147.7240 C   0  0  1  0  0  3  0  0  0  0  0  0
  192.3670  176.3760  148.0750 O   0  0  0  0  0  1  0  0  0  0  0  0
  191.7030  177.4860  147.8280 O   0  0  0  0  0  0  0  0  0  0  0  0
  189.4020  178.2390  147.9470 C   0  0  0  0  0  2  0  0  0  0  0  0
  188.4330  177.9330  149.0770 C   0  0  0  0  0  2  0  0  0  0  0  0
  187.5030  176.9760  148.6690 O   0  0  0  0  0  1  0  0  0  0  0  0
  186.7970  178.4990  145.3720 O   0  0  0  0  0  0  0  0  0  0  0  0
  186.0360  179.1610  146.3610 C   0  0  0  0  0  0  0  0  0  0  0  0
  185.2980  180.1860  145.7940 F   0  0  0  0  0  0  0  0  0  0  0  0
  185.1820  178.2920  147.0270 F   0  0  0  0  0  0  0  0  0  0  0  0
  186.9030  179.7130  147.2840 F   0  0  0  0  0  0  0  0  0  0  0  0
  1 13  1  1  0  0  0
  1  4  1  0  0  0  0
  1  5  1  0  0  0  0
  2 12  1  0  0  0  0
  3 33  1  6  0  0  0
  4 14  1  0  0  0  0
  5  3  1  0  0  0  0
  5  8  1  0  0  0  0
  6  2  1  0  0  0  0
  6  4  1  0  0  0  0
  7  3  1  0  0  0  0
  9 18  1  0  0  0  0
  9 13  1  0  0  0  0
 10  7  2  0  0  0  0
 11 16  1  0  0  0  0
 12 11  1  0  0  0  0
 13 10  1  0  0  0  0
 14  8  1  0  0  0  0
 14 17  1  0  0  0  0
 15 18  1  0  0  0  0
 15  6  1  0  0  0  0
 16 17  1  0  0  0  0
 17 26  1  0  0  0  0
 19 20  1  0  0  0  0
 20 15  1  0  0  0  0
 21 20  2  0  0  0  0
 22 24  1  0  0  0  0
 23 25  1  0  0  0  0
 23 24  2  0  0  0  0
 24 21  1  0  0  0  0
 25 19  2  0  0  0  0
 26 27  1  0  0  0  0
 27 29  1  0  0  0  0
 27 30  1  0  0  0  0
 29 28  1  0  0  0  0
 30 31  1  0  0  0  0
 32 31  1  0  0  0  0
 33 34  1  0  0  0  0
 34 36  1  0  0  0  0
 34 37  1  0  0  0  0
 35 34  1  0  0  0  0
M  END
>  <MODEL>
5

>  <REMARK>
 VINA RESULT:      -6.2      1.140      1.944
  Name = 
  8 active torsions:
  status: ('A' for Active; 'I' for Inactive)
    1  A    between atoms: O_1  and  C_4
    2  A    between atoms: O_1  and  C_27
    3  A    between atoms: C_2  and  O_22
    4  A    between atoms: C_4  and  C_12
    5  A    between atoms: C_4  and  O_37
    6  A    between atoms: C_6  and  O_22
    7  A    between atoms: C_8  and  C_12
    8  A    between atoms: N_23  and  C_30
                            x       y       z     vdW  Elec       q    Type
                         _______ _______ _______ _____ _____    ______ ____

>  <TORSDO>
F 8

$$$$
=
 OpenBabel11122411493D

 37 41  0  0  1  0  0  0  0  0999 V2000
  186.8230  178.7950  142.9100 C   0  0  1  0  0  3  0  0  0  0  0  0
  190.2260  177.2570  143.1690 C   0  0  0  0  0  2  0  0  0  0  0  0
  185.2590  179.1070  140.9100 C   0  0  2  0  0  3  0  0  0  0  0  0
  187.9270  177.9790  142.4590 N   0  0  2  0  0  0  0  0  0  0  0  0
  186.4500  179.6570  141.7220 C   0  0  2  0  0  3  0  0  0  0  0  0
  188.8980  177.9100  143.5700 C   0  0  1  0  0  3  0  0  0  0  0  0
  184.1270  178.7700  141.8340 C   0  0  0  0  0  3  0  0  0  0  0  0
  187.5970  179.7650  140.9230 O   0  0  0  0  0  0  0  0  0  0  0  0
  185.9030  177.1920  144.6520 C   0  0  0  0  0  2  0  0  0  0  0  0
  184.3740  178.1840  143.0000 C   0  0  0  0  0  3  0  0  0  0  0  0
  189.1640  175.8660  141.4570 O   0  0  0  0  0  0  0  0  0  0  0  0
  190.0590  175.8650  142.5420 C   0  0  0  0  0  2  0  0  0  0  0  0
  185.7230  177.9590  143.4240 N   0  0  0  0  0  0  0  0  0  0  0  0
  188.4960  178.7530  141.3420 C   0  0  2  0  0  3  0  0  0  0  0  0
  188.3410  177.2200  144.7470 N   0  0  0  0  0  0  0  0  0  0  0  0
  189.7440  176.6690  140.4680 C   0  0  0  0  0  2  0  0  0  0  0  0
  188.8480  177.8640  140.1290 C   0  0  2  0  0  3  0  0  0  0  0  0
  187.1720  176.3540  144.5970 C   0  0  0  0  0  2  0  0  0  0  0  0
  188.1420  178.2330  146.9980 C   0  0  0  0  0  3  0  0  0  0  0  0
  188.8750  177.4820  146.0630 C   0  0  0  0  0  0  0  0  0  0  0  0
  190.1390  176.9890  146.4320 C   0  0  0  0  0  3  0  0  0  0  0  0
  191.9930  176.7130  148.0830 C   0  0  0  0  0  1  0  0  0  0  0  0
  189.9170  177.9890  148.6250 C   0  0  0  0  0  3  0  0  0  0  0  0
  190.6560  177.2410  147.7070 C   0  0  0  0  0  0  0  0  0  0  0  0
  188.6600  178.4860  148.2710 C   0  0  0  0  0  3  0  0  0  0  0  0
  189.5300  178.6450  139.1750 O   0  0  0  0  0  0  0  0  0  0  0  0
  188.9440  178.4850  137.8990 C   0  0  1  0  0  3  0  0  0  0  0  0
  187.4740  179.6640  136.8620 O   0  0  0  0  0  1  0  0  0  0  0  0
  188.7340  179.7050  137.2390 O   0  0  0  0  0  0  0  0  0  0  0  0
  189.7280  177.5030  137.0380 C   0  0  0  0  0  2  0  0  0  0  0  0
  188.8090  176.4590  136.4270 C   0  0  0  0  0  2  0  0  0  0  0  0
  188.3420  175.5910  137.4150 O   0  0  0  0  0  1  0  0  0  0  0  0
  185.6450  177.9640  140.1800 O   0  0  0  0  0  0  0  0  0  0  0  0
  185.0150  177.9810  138.9160 C   0  0  0  0  0  0  0  0  0  0  0  0
  185.8290  177.3900  137.9640 F   0  0  0  0  0  0  0  0  0  0  0  0
  183.7880  177.3330  138.9390 F   0  0  0  0  0  0  0  0  0  0  0  0
  184.8050  179.2960  138.5490 F   0  0  0  0  0  0  0  0  0  0  0  0
  1 13  1  6  0  0  0
  2  6  1  0  0  0  0
  3 33  1  1  0  0  0
  3  5  1  0  0  0  0
  3  7  1  0  0  0  0
  4  1  1  0  0  0  0
  4  6  1  0  0  0  0
  5  1  1  0  0  0  0
  6 15  1  0  0  0  0
  7 10  2  0  0  0  0
  8 14  1  0  0  0  0
  8  5  1  0  0  0  0
 10 13  1  0  0  0  0
 11 12  1  0  0  0  0
 12  2  1  0  0  0  0
 13  9  1  0  0  0  0
 14  4  1  0  0  0  0
 15 20  1  0  0  0  0
 16 11  1  0  0  0  0
 17 16  1  0  0  0  0
 17 14  1  0  0  0  0
 18  9  1  0  0  0  0
 18 15  1  0  0  0  0
 19 25  1  0  0  0  0
 20 21  1  0  0  0  0
 20 19  2  0  0  0  0
 21 24  2  0  0  0  0
 24 22  1  0  0  0  0
 24 23  1  0  0  0  0
 25 23  2  0  0  0  0
 26 17  1  0  0  0  0
 27 26  1  0  0  0  0
 28 29  1  0  0  0  0
 29 27  1  0  0  0  0
 30 27  1  0  0  0  0
 31 30  1  0  0  0  0
 31 32  1  0  0  0  0
 34 36  1  0  0  0  0
 34 33  1  0  0  0  0
 35 34  1  0  0  0  0
 37 34  1  0  0  0  0
M  END
>  <MODEL>
6

>  <REMARK>
 VINA RESULT:      -5.8      3.943      7.217
  Name = 
  8 active torsions:
  status: ('A' for Active; 'I' for Inactive)
    1  A    between atoms: O_1  and  C_4
    2  A    between atoms: O_1  and  C_27
    3  A    between atoms: C_2  and  O_22
    4  A    between atoms: C_4  and  C_12
    5  A    between atoms: C_4  and  O_37
    6  A    between atoms: C_6  and  O_22
    7  A    between atoms: C_8  and  C_12
    8  A    between atoms: N_23  and  C_30
                            x       y       z     vdW  Elec       q    Type
                         _______ _______ _______ _____ _____    ______ ____

>  <TORSDO>
F 8

$$$$
=
 OpenBabel11122411493D

 37 41  0  0  1  0  0  0  0  0999 V2000
  181.6840  176.9670  137.6120 C   0  0  1  0  0  3  0  0  0  0  0  0
  183.6890  179.8960  138.8000 C   0  0  0  0  0  2  0  0  0  0  0  0
  182.3890  174.6080  136.9190 C   0  0  2  0  0  3  0  0  0  0  0  0
  182.8570  177.6160  138.1500 N   0  0  2  0  0  0  0  0  0  0  0  0
  182.1940  176.0780  136.4970 C   0  0  2  0  0  3  0  0  0  0  0  0
  182.4870  179.0200  138.4260 C   0  0  1  0  0  3  0  0  0  0  0  0
  181.1580  174.1110  137.6170 C   0  0  0  0  0  3  0  0  0  0  0  0
  183.3990  176.6390  136.0510 O   0  0  0  0  0  0  0  0  0  0  0  0
  180.2740  177.0020  139.7250 C   0  0  0  0  0  2  0  0  0  0  0  0
  180.5200  174.8970  138.4760 C   0  0  0  0  0  3  0  0  0  0  0  0
  184.9200  178.0100  139.7590 O   0  0  0  0  0  0  0  0  0  0  0  0
  184.5120  179.3390  139.9700 C   0  0  0  0  0  2  0  0  0  0  0  0
  180.9440  176.2510  138.6680 N   0  0  0  0  0  0  0  0  0  0  0  0
  183.8240  177.5600  137.0400 C   0  0  2  0  0  3  0  0  0  0  0  0
  181.4540  179.1230  139.4720 N   0  0  0  0  0  0  0  0  0  0  0  0
  185.7810  178.0320  138.6560 C   0  0  0  0  0  2  0  0  0  0  0  0
  185.2410  177.1660  137.5140 C   0  0  2  0  0  3  0  0  0  0  0  0
  181.2210  177.9980  140.3780 C   0  0  0  0  0  2  0  0  0  0  0  0
  179.7760  180.5090  140.6520 C   0  0  0  0  0  3  0  0  0  0  0  0
  180.5970  180.2830  139.5340 C   0  0  0  0  0  0  0  0  0  0  0  0
  180.5700  181.2100  138.4770 C   0  0  0  0  0  3  0  0  0  0  0  0
  179.7240  183.3040  137.4120 C   0  0  0  0  0  1  0  0  0  0  0  0
  178.9310  182.5450  139.6540 C   0  0  0  0  0  3  0  0  0  0  0  0
  179.7410  182.3340  138.5380 C   0  0  0  0  0  0  0  0  0  0  0  0
  178.9470  181.6330  140.7120 C   0  0  0  0  0  3  0  0  0  0  0  0
  186.1330  177.2930  136.4310 O   0  0  0  0  0  0  0  0  0  0  0  0
  187.4090  176.7970  136.7850 C   0  0  1  0  0  3  0  0  0  0  0  0
  187.0900  175.3890  135.1900 O   0  0  0  0  0  1  0  0  0  0  0  0
  187.6000  175.4620  136.4010 O   0  0  0  0  0  0  0  0  0  0  0  0
  188.5250  177.6990  136.2760 C   0  0  0  0  0  2  0  0  0  0  0  0
  189.4230  178.1510  137.4160 C   0  0  0  0  0  2  0  0  0  0  0  0
  188.9610  179.3580  137.9440 O   0  0  0  0  0  1  0  0  0  0  0  0
  183.5100  174.4820  137.7660 O   0  0  0  0  0  0  0  0  0  0  0  0
  184.3650  173.4750  137.2640 C   0  0  0  0  0  0  0  0  0  0  0  0
  185.5850  173.5110  137.9170 F   0  0  0  0  0  0  0  0  0  0  0  0
  183.8090  172.2100  137.3940 F   0  0  0  0  0  0  0  0  0  0  0  0
  184.5860  173.7180  135.9220 F   0  0  0  0  0  0  0  0  0  0  0  0
  1  4  1  0  0  0  0
  1 13  1  1  0  0  0
  2 12  1  0  0  0  0
  3  7  1  0  0  0  0
  3 33  1  1  0  0  0
  4  6  1  0  0  0  0
  5  3  1  0  0  0  0
  5  1  1  0  0  0  0
  6  2  1  0  0  0  0
  6 15  1  0  0  0  0
  7 10  2  0  0  0  0
  8  5  1  0  0  0  0
  8 14  1  0  0  0  0
  9 18  1  0  0  0  0
 10 13  1  0  0  0  0
 11 12  1  0  0  0  0
 13  9  1  0  0  0  0
 14 17  1  0  0  0  0
 14  4  1  0  0  0  0
 15 20  1  0  0  0  0
 15 18  1  0  0  0  0
 16 11  1  0  0  0  0
 17 16  1  0  0  0  0
 19 25  1  0  0  0  0
 20 19  2  0  0  0  0
 21 24  2  0  0  0  0
 21 20  1  0  0  0  0
 22 24  1  0  0  0  0
 23 25  2  0  0  0  0
 24 23  1  0  0  0  0
 26 27  1  0  0  0  0
 26 17  1  0  0  0  0
 28 29  1  0  0  0  0
 29 27  1  0  0  0  0
 30 27  1  0  0  0  0
 30 31  1  0  0  0  0
 31 32  1  0  0  0  0
 34 36  1  0  0  0  0
 34 33  1  0  0  0  0
 34 35  1  0  0  0  0
 37 34  1  0  0  0  0
M  END
>  <MODEL>
7

>  <REMARK>
 VINA RESULT:      -5.7      7.094     10.111
  Name = 
  8 active torsions:
  status: ('A' for Active; 'I' for Inactive)
    1  A    between atoms: O_1  and  C_4
    2  A    between atoms: O_1  and  C_27
    3  A    between atoms: C_2  and  O_22
    4  A    between atoms: C_4  and  C_12
    5  A    between atoms: C_4  and  O_37
    6  A    between atoms: C_6  and  O_22
    7  A    between atoms: C_8  and  C_12
    8  A    between atoms: N_23  and  C_30
                            x       y       z     vdW  Elec       q    Type
                         _______ _______ _______ _____ _____    ______ ____

>  <TORSDO>
F 8

$$$$
=
 OpenBabel11122411493D

 37 41  0  0  1  0  0  0  0  0999 V2000
  180.2750  177.9020  137.9240 C   0  0  1  0  0  3  0  0  0  0  0  0
  183.3990  175.9030  138.4380 C   0  0  0  0  0  2  0  0  0  0  0  0
  179.8550  180.4240  137.9880 C   0  0  2  0  0  3  0  0  0  0  0  0
  181.7050  177.7100  138.0160 N   0  0  2  0  0  0  0  0  0  0  0  0
  179.9770  179.1100  138.7870 C   0  0  2  0  0  3  0  0  0  0  0  0
  181.9410  176.2550  138.1160 C   0  0  1  0  0  3  0  0  0  0  0  0
  178.9310  180.2280  136.8240 C   0  0  0  0  0  3  0  0  0  0  0  0
  181.0020  179.1920  139.7390 O   0  0  0  0  0  0  0  0  0  0  0  0
  179.9440  176.8980  135.6140 C   0  0  0  0  0  2  0  0  0  0  0  0
  178.9820  179.1050  136.1170 C   0  0  0  0  0  3  0  0  0  0  0  0
  184.2540  177.9180  137.3420 O   0  0  0  0  0  0  0  0  0  0  0  0
  184.4090  176.5260  137.4630 C   0  0  0  0  0  2  0  0  0  0  0  0
  179.8490  178.0380  136.5190 N   0  0  0  0  0  0  0  0  0  0  0  0
  182.0610  178.3660  139.2870 C   0  0  2  0  0  3  0  0  0  0  0  0
  181.5170  175.5430  136.8980 N   0  0  0  0  0  0  0  0  0  0  0  0
  184.5470  178.4580  138.5990 C   0  0  0  0  0  2  0  0  0  0  0  0
  183.3450  179.2160  139.1700 C   0  0  2  0  0  3  0  0  0  0  0  0
  181.3360  176.2820  135.6480 C   0  0  0  0  0  2  0  0  0  0  0  0
  179.9660  173.7250  137.5480 C   0  0  0  0  0  3  0  0  0  0  0  0
  181.1720  174.1420  136.9590 C   0  0  0  0  0  0  0  0  0  0  0  0
  182.0370  173.1690  136.4290 C   0  0  0  0  0  3  0  0  0  0  0  0
  182.6290  170.7960  135.9210 C   0  0  0  0  0  1  0  0  0  0  0  0
  180.5030  171.4130  137.0750 C   0  0  0  0  0  3  0  0  0  0  0  0
  181.7040  171.8120  136.4870 C   0  0  0  0  0  0  0  0  0  0  0  0
  179.6340  172.3690  137.6070 C   0  0  0  0  0  3  0  0  0  0  0  0
  183.7050  179.6730  140.4530 O   0  0  0  0  0  0  0  0  0  0  0  0
  184.7460  178.8760  140.9840 C   0  0  1  0  0  3  0  0  0  0  0  0
  186.8830  178.7490  141.1950 O   0  0  0  0  0  1  0  0  0  0  0  0
  185.8980  179.6160  141.2880 O   0  0  0  0  0  0  0  0  0  0  0  0
  184.2720  178.0500  142.1720 C   0  0  0  0  0  2  0  0  0  0  0  0
  184.1240  178.9150  143.4130 C   0  0  0  0  0  2  0  0  0  0  0  0
  182.7730  179.1220  143.6970 O   0  0  0  0  0  1  0  0  0  0  0  0
  181.1220  180.8450  137.5340 O   0  0  0  0  0  0  0  0  0  0  0  0
  181.3270  182.1940  137.9020 C   0  0  0  0  0  0  0  0  0  0  0  0
  180.3080  182.6260  138.7340 F   0  0  0  0  0  0  0  0  0  0  0  0
  182.5490  182.3800  138.5340 F   0  0  0  0  0  0  0  0  0  0  0  0
  181.3080  182.9670  136.7570 F   0  0  0  0  0  0  0  0  0  0  0  0
  1 13  1  6  0  0  0
  1  4  1  0  0  0  0
  1  5  1  0  0  0  0
  3 33  1  6  0  0  0
  3  5  1  0  0  0  0
  4  6  1  0  0  0  0
  4 14  1  0  0  0  0
  5  8  1  0  0  0  0
  6  2  1  0  0  0  0
  7  3  1  0  0  0  0
  9 18  1  0  0  0  0
  9 13  1  0  0  0  0
 10 13  1  0  0  0  0
 10  7  2  0  0  0  0
 11 12  1  0  0  0  0
 11 16  1  0  0  0  0
 12  2  1  0  0  0  0
 14  8  1  0  0  0  0
 15 20  1  0  0  0  0
 15  6  1  0  0  0  0
 16 17  1  0  0  0  0
 17 14  1  0  0  0  0
 17 26  1  0  0  0  0
 18 15  1  0  0  0  0
 19 25  1  0  0  0  0
 20 19  2  0  0  0  0
 21 24  2  0  0  0  0
 21 20  1  0  0  0  0
 22 24  1  0  0  0  0
 23 25  2  0  0  0  0
 24 23  1  0  0  0  0
 26 27  1  0  0  0  0
 27 29  1  0  0  0  0
 27 30  1  0  0  0  0
 28 29  1  0  0  0  0
 30 31  1  0  0  0  0
 31 32  1  0  0  0  0
 33 34  1  0  0  0  0
 34 36  1  0  0  0  0
 34 35  1  0  0  0  0
 37 34  1  0  0  0  0
M  END
>  <MODEL>
8

>  <REMARK>
 VINA RESULT:      -5.7      7.488      9.665
  Name = 
  8 active torsions:
  status: ('A' for Active; 'I' for Inactive)
    1  A    between atoms: O_1  and  C_4
    2  A    between atoms: O_1  and  C_27
    3  A    between atoms: C_2  and  O_22
    4  A    between atoms: C_4  and  C_12
    5  A    between atoms: C_4  and  O_37
    6  A    between atoms: C_6  and  O_22
    7  A    between atoms: C_8  and  C_12
    8  A    between atoms: N_23  and  C_30
                            x       y       z     vdW  Elec       q    Type
                         _______ _______ _______ _____ _____    ______ ____

>  <TORSDO>
F 8

$$$$
=
 OpenBabel11122411493D

 37 41  0  0  1  0  0  0  0  0999 V2000
  186.2820  173.6650  137.0860 C   0  0  1  0  0  3  0  0  0  0  0  0
  186.8770  177.3500  136.7990 C   0  0  0  0  0  2  0  0  0  0  0  0
  184.2190  172.2430  136.5710 C   0  0  2  0  0  3  0  0  0  0  0  0
  185.9990  175.0020  136.6180 N   0  0  2  0  0  0  0  0  0  0  0  0
  184.9590  173.1300  137.5930 C   0  0  2  0  0  3  0  0  0  0  0  0
  187.1310  175.8560  137.0340 C   0  0  1  0  0  3  0  0  0  0  0  0
  185.1570  171.2090  136.0230 C   0  0  0  0  0  3  0  0  0  0  0  0
  184.1820  174.2410  137.9500 O   0  0  0  0  0  0  0  0  0  0  0  0
  188.2410  173.1710  135.5460 C   0  0  0  0  0  2  0  0  0  0  0  0
  186.4100  171.5380  135.7290 C   0  0  0  0  0  3  0  0  0  0  0  0
  185.3910  176.9210  134.9010 O   0  0  0  0  0  0  0  0  0  0  0  0
  186.4840  177.6830  135.3520 C   0  0  0  0  0  2  0  0  0  0  0  0
  186.8990  172.8510  136.0220 N   0  0  0  0  0  0  0  0  0  0  0  0
  184.7840  175.3800  137.3610 C   0  0  2  0  0  3  0  0  0  0  0  0
  188.3910  175.4580  136.3820 N   0  0  0  0  0  0  0  0  0  0  0  0
  184.2990  177.2900  135.6930 C   0  0  0  0  0  2  0  0  0  0  0  0
  183.7440  176.0890  136.4660 C   0  0  2  0  0  3  0  0  0  0  0  0
  188.3560  174.6400  135.1690 C   0  0  0  0  0  2  0  0  0  0  0  0
  190.8620  175.5910  136.2940 C   0  0  0  0  0  3  0  0  0  0  0  0
  189.6590  175.7780  136.9950 C   0  0  0  0  0  0  0  0  0  0  0  0
  189.7120  176.2830  138.3060 C   0  0  0  0  0  3  0  0  0  0  0  0
  190.9780  177.1280  140.2860 C   0  0  0  0  0  1  0  0  0  0  0  0
  192.1260  176.4040  138.1910 C   0  0  0  0  0  3  0  0  0  0  0  0
  190.9390  176.5940  138.8990 C   0  0  0  0  0  0  0  0  0  0  0  0
  192.0890  175.9010  136.8870 C   0  0  0  0  0  3  0  0  0  0  0  0
  182.6920  176.5590  137.2770 O   0  0  0  0  0  0  0  0  0  0  0  0
  182.9490  177.8860  137.6930 C   0  0  1  0  0  3  0  0  0  0  0  0
  180.8300  177.9600  137.3270 O   0  0  0  0  0  1  0  0  0  0  0  0
  181.8740  178.7520  137.4440 O   0  0  0  0  0  0  0  0  0  0  0  0
  183.3970  177.9430  139.1470 C   0  0  0  0  0  2  0  0  0  0  0  0
  183.4490  179.3780  139.6460 C   0  0  0  0  0  2  0  0  0  0  0  0
  184.5500  180.0380  139.0990 O   0  0  0  0  0  1  0  0  0  0  0  0
  183.6980  173.0270  135.5210 O   0  0  0  0  0  0  0  0  0  0  0  0
  182.3170  172.7610  135.3790 C   0  0  0  0  0  0  0  0  0  0  0  0
  181.6920  173.8040  134.7180 F   0  0  0  0  0  0  0  0  0  0  0  0
  182.0860  171.5760  134.6940 F   0  0  0  0  0  0  0  0  0  0  0  0
  181.7610  172.6520  136.6390 F   0  0  0  0  0  0  0  0  0  0  0  0
  1 13  1  6  0  0  0
  1  5  1  0  0  0  0
  2  6  1  0  0  0  0
  3 33  1  6  0  0  0
  3  5  1  0  0  0  0
  4  6  1  0  0  0  0
  4  1  1  0  0  0  0
  4 14  1  0  0  0  0
  5  8  1  0  0  0  0
  7  3  1  0  0  0  0
  9 13  1  0  0  0  0
 10 13  1  0  0  0  0
 10  7  2  0  0  0  0
 11 12  1  0  0  0  0
 11 16  1  0  0  0  0
 12  2  1  0  0  0  0
 14  8  1  0  0  0  0
 15 20  1  0  0  0  0
 15  6  1  0  0  0  0
 16 17  1  0  0  0  0
 17 26  1  0  0  0  0
 17 14  1  0  0  0  0
 18  9  1  0  0  0  0
 18 15  1  0  0  0  0
 19 25  2  0  0  0  0
 19 20  1  0  0  0  0
 20 21  2  0  0  0  0
 21 24  1  0  0  0  0
 23 24  2  0  0  0  0
 24 22  1  0  0  0  0
 25 23  1  0  0  0  0
 26 27  1  0  0  0  0
 27 30  1  0  0  0  0
 28 29  1  0  0  0  0
 29 27  1  0  0  0  0
 30 31  1  0  0  0  0
 32 31  1  0  0  0  0
 34 33  1  0  0  0  0
 34 37  1  0  0  0  0
 35 34  1  0  0  0  0
 36 34  1  0  0  0  0
M  END
>  <MODEL>
9

>  <REMARK>
 VINA RESULT:      -5.5      7.027      9.899
  Name = 
  8 active torsions:
  status: ('A' for Active; 'I' for Inactive)
    1  A    between atoms: O_1  and  C_4
    2  A    between atoms: O_1  and  C_27
    3  A    between atoms: C_2  and  O_22
    4  A    between atoms: C_4  and  C_12
    5  A    between atoms: C_4  and  O_37
    6  A    between atoms: C_6  and  O_22
    7  A    between atoms: C_8  and  C_12
    8  A    between atoms: N_23  and  C_30
                            x       y       z     vdW  Elec       q    Type
                         _______ _______ _______ _____ _____    ______ ____

>  <TORSDO>
F 8

$$$$
