=
 OpenBabel11122412093D

 34 41  0  0  1  0  0  0  0  0999 V2000
  187.6400  177.9720  140.1710 C   0  0  0  0  0  0  0  0  0  0  0  0
  185.7580  178.7770  138.6640 C   0  0  0  0  0  2  0  0  0  0  0  0
  190.7000  178.0400  145.2280 C   0  0  2  0  0  3  0  0  0  0  0  0
  189.1190  176.7580  141.6570 C   0  0  0  0  0  0  0  0  0  0  0  0
  188.7350  176.8050  144.1560 N   0  0  1  0  0  0  0  0  0  0  0  0
  189.8130  178.8750  143.4930 O   0  0  0  0  0  0  0  0  0  0  0  0
  191.0860  178.9520  144.0850 C   0  0  0  0  0  2  0  0  0  0  0  0
  191.7510  176.1960  143.7680 C   0  0  0  0  0  2  0  0  0  0  0  0
  185.5630  179.1140  141.0560 C   0  0  2  0  0  3  0  0  0  0  0  0
  182.8040  178.2270  142.3400 C   0  0  0  0  0  2  0  0  0  0  0  0
  187.3110  177.0210  143.8590 C   0  0  0  0  0  2  0  0  0  0  0  0
  190.6180  175.3300  143.2640 C   0  0  0  0  0  2  0  0  0  0  0  0
  185.6440  178.1230  142.2380 C   0  0  1  0  0  3  0  0  0  0  0  0
  184.3750  179.3500  138.9330 C   0  0  0  0  0  2  0  0  0  0  0  0
  189.3380  176.1160  142.9990 C   0  0  2  0  0  3  0  0  0  0  0  0
  191.4460  176.6970  145.1750 C   0  0  0  0  0  2  0  0  0  0  0  0
  183.1200  178.2360  140.8330 C   0  0  1  0  0  3  0  0  0  0  0  0
  187.9620  177.5300  141.4640 C   0  0  0  0  0  0  0  0  0  0  0  0
  189.3390  178.0970  144.5640 C   0  0  2  0  0  3  0  0  0  0  0  0
  187.1130  177.9530  142.6440 C   0  0  2  0  0  3  0  0  0  0  0  0
  189.6300  176.8860  139.3400 C   0  0  0  0  0  3  0  0  0  0  0  0
  183.5660  179.1780  143.0420 O   0  0  0  0  0  0  0  0  0  0  0  0
  189.9130  176.4470  140.5960 N   0  0  0  0  0  0  0  0  0  0  0  0
  184.7710  178.5590  143.4320 C   0  0  0  0  0  2  0  0  0  0  0  0
  184.1660  179.3060  140.4430 C   0  0  1  0  0  3  0  0  0  0  0  0
  188.4840  177.6480  139.1030 C   0  0  0  0  0  3  0  0  0  0  0  0
  186.4120  178.6860  139.9560 N   0  0  0  0  0  0  0  0  0  0  0  0
  183.5390  176.9600  140.4380 O   0  0  0  0  0  0  0  0  0  0  0  0
  182.4320  176.3880  139.8060 C   0  0  0  0  0  2  0  0  0  0  0  0
  183.8440  174.7430  136.8530 C   0  0  0  0  0  3  0  0  0  0  0  0
  182.3780  176.7210  137.3100 C   0  0  0  0  0  3  0  0  0  0  0  0
  182.8010  175.9950  138.4190 C   0  0  0  0  0  0  0  0  0  0  0  0
  183.0560  175.9430  135.9840 S   0  0  0  0  0  0  0  0  0  0  0  0
  183.6000  174.9210  138.1690 N   0  0  0  0  0  0  0  0  0  0  0  0
  1 18  1  0  0  0  0
  2 14  1  0  0  0  0
  2 27  1  0  0  0  0
  3  7  1  6  0  0  0
  4 15  1  0  0  0  0
  5 11  1  6  0  0  0
  5 19  1  0  0  0  0
  6  7  1  0  0  0  0
  8 16  1  0  0  0  0
  9 27  1  6  0  0  0
  9 13  1  0  0  0  0
 10 22  1  0  0  0  0
 12  8  1  0  0  0  0
 13 20  1  0  0  0  0
 13 24  1  1  0  0  0
 15 12  1  1  0  0  0
 15  5  1  0  0  0  0
 16  3  1  0  0  0  0
 17 28  1  1  0  0  0
 17 10  1  0  0  0  0
 18  4  2  0  0  0  0
 18 20  1  0  0  0  0
 19  6  1  6  0  0  0
 19  3  1  0  0  0  0
 20 11  1  1  0  0  0
 21 23  2  0  0  0  0
 22 24  1  0  0  0  0
 23  4  1  0  0  0  0
 25 14  1  6  0  0  0
 25 17  1  0  0  0  0
 25  9  1  0  0  0  0
 26 21  1  0  0  0  0
 26  1  2  0  0  0  0
 27  1  1  0  0  0  0
 29 28  1  0  0  0  0
 30 34  2  0  0  0  0
 31 32  2  0  0  0  0
 32 29  1  0  0  0  0
 33 30  1  0  0  0  0
 33 31  1  0  0  0  0
 34 32  1  0  0  0  0
M  END
>  <MODEL>
1

>  <REMARK>
 VINA RESULT:      -8.1      0.000      0.000
  Name = 
  3 active torsions:
  status: ('A' for Active; 'I' for Inactive)
    1  A    between atoms: C_17  and  O_28
    2  A    between atoms: O_28  and  C_29
    3  A    between atoms: C_29  and  C_32
                            x       y       z     vdW  Elec       q    Type
                         _______ _______ _______ _____ _____    ______ ____

>  <TORSDO>
F 3

$$$$
=
 OpenBabel11122412093D

 34 41  0  0  1  0  0  0  0  0999 V2000
  186.1540  178.4830  139.5450 C   0  0  0  0  0  0  0  0  0  0  0  0
  188.6110  178.2630  138.9330 C   0  0  0  0  0  2  0  0  0  0  0  0
  180.5310  179.7910  138.2750 C   0  0  2  0  0  3  0  0  0  0  0  0
  183.8220  178.1440  140.1070 C   0  0  0  0  0  0  0  0  0  0  0  0
  182.1110  177.7820  138.2800 N   0  0  1  0  0  0  0  0  0  0  0  0
  182.6160  180.1510  138.4160 O   0  0  0  0  0  0  0  0  0  0  0  0
  181.4640  180.8540  138.8110 C   0  0  0  0  0  2  0  0  0  0  0  0
  180.5450  178.9250  140.7000 C   0  0  0  0  0  2  0  0  0  0  0  0
  186.9610  178.2530  137.1580 C   0  0  2  0  0  3  0  0  0  0  0  0
  187.2560  175.9230  135.0300 C   0  0  0  0  0  2  0  0  0  0  0  0
  183.2020  177.2190  137.4710 C   0  0  0  0  0  2  0  0  0  0  0  0
  181.3220  177.6270  140.7030 C   0  0  0  0  0  2  0  0  0  0  0  0
  185.7130  177.3730  136.9280 C   0  0  1  0  0  3  0  0  0  0  0  0
  189.3440  177.9780  137.6310 C   0  0  0  0  0  2  0  0  0  0  0  0
  182.4720  177.6190  139.7010 C   0  0  2  0  0  3  0  0  0  0  0  0
  179.7670  179.0710  139.3970 C   0  0  0  0  0  2  0  0  0  0  0  0
  188.2520  176.2190  136.1670 C   0  0  1  0  0  3  0  0  0  0  0  0
  184.8420  178.1840  139.1430 C   0  0  0  0  0  0  0  0  0  0  0  0
  181.8260  179.1590  137.8080 C   0  0  2  0  0  3  0  0  0  0  0  0
  184.5240  177.9890  137.6760 C   0  0  2  0  0  3  0  0  0  0  0  0
  185.3700  178.7080  141.8180 C   0  0  0  0  0  3  0  0  0  0  0  0
  186.5580  177.0760  134.6310 O   0  0  0  0  0  0  0  0  0  0  0  0
  184.1100  178.3930  141.4130 N   0  0  0  0  0  0  0  0  0  0  0  0
  185.4010  177.1760  135.4310 C   0  0  0  0  0  2  0  0  0  0  0  0
  188.2750  177.7100  136.5750 C   0  0  1  0  0  3  0  0  0  0  0  0
  186.4160  178.7480  140.8940 C   0  0  0  0  0  3  0  0  0  0  0  0
  187.2140  178.4370  138.5780 N   0  0  0  0  0  0  0  0  0  0  0  0
  187.9560  175.4050  137.2670 O   0  0  0  0  0  0  0  0  0  0  0  0
  188.3560  174.1200  136.8930 C   0  0  0  0  0  2  0  0  0  0  0  0
  191.9240  174.4910  137.6340 C   0  0  0  0  0  3  0  0  0  0  0  0
  190.5370  173.4020  135.8570 C   0  0  0  0  0  3  0  0  0  0  0  0
  189.8430  174.0480  136.8740 C   0  0  0  0  0  0  0  0  0  0  0  0
  192.1630  173.6060  136.2280 S   0  0  0  0  0  0  0  0  0  0  0  0
  190.5980  174.6430  137.8380 N   0  0  0  0  0  0  0  0  0  0  0  0
  1 26  1  0  0  0  0
  3  7  1  1  0  0  0
  3 16  1  0  0  0  0
  4 23  2  0  0  0  0
  5 11  1  6  0  0  0
  5 15  1  0  0  0  0
  6  7  1  0  0  0  0
  8 12  1  0  0  0  0
  9 27  1  1  0  0  0
 10 17  1  0  0  0  0
 13 24  1  6  0  0  0
 13  9  1  0  0  0  0
 13 20  1  0  0  0  0
 14  2  1  0  0  0  0
 15  4  1  0  0  0  0
 15 12  1  1  0  0  0
 16  8  1  0  0  0  0
 17 25  1  0  0  0  0
 17 28  1  1  0  0  0
 18  1  2  0  0  0  0
 18  4  1  0  0  0  0
 19  3  1  0  0  0  0
 19  5  1  0  0  0  0
 19  6  1  1  0  0  0
 20 11  1  1  0  0  0
 20 18  1  0  0  0  0
 22 10  1  0  0  0  0
 22 24  1  0  0  0  0
 23 21  1  0  0  0  0
 25  9  1  0  0  0  0
 25 14  1  1  0  0  0
 26 21  2  0  0  0  0
 27  2  1  0  0  0  0
 27  1  1  0  0  0  0
 29 28  1  0  0  0  0
 30 34  2  0  0  0  0
 31 33  1  0  0  0  0
 31 32  2  0  0  0  0
 32 29  1  0  0  0  0
 32 34  1  0  0  0  0
 33 30  1  0  0  0  0
M  END
>  <MODEL>
2

>  <REMARK>
 VINA RESULT:      -6.1      3.939      7.770
  Name = 
  3 active torsions:
  status: ('A' for Active; 'I' for Inactive)
    1  A    between atoms: C_17  and  O_28
    2  A    between atoms: O_28  and  C_29
    3  A    between atoms: C_29  and  C_32
                            x       y       z     vdW  Elec       q    Type
                         _______ _______ _______ _____ _____    ______ ____

>  <TORSDO>
F 3

$$$$
=
 OpenBabel11122412093D

 34 41  0  0  1  0  0  0  0  0999 V2000
  189.5680  177.5850  139.0940 C   0  0  0  0  0  0  0  0  0  0  0  0
  188.5380  178.1750  136.8470 C   0  0  0  0  0  2  0  0  0  0  0  0
  190.3500  178.4400  144.8900 C   0  0  2  0  0  3  0  0  0  0  0  0
  190.1990  176.6010  141.2170 C   0  0  0  0  0  0  0  0  0  0  0  0
  188.8580  177.1040  143.3010 N   0  0  1  0  0  0  0  0  0  0  0  0
  190.3190  178.9850  142.8420 O   0  0  0  0  0  0  0  0  0  0  0  0
  191.2520  179.1210  143.8860 C   0  0  0  0  0  2  0  0  0  0  0  0
  191.6980  176.3320  144.2790 C   0  0  0  0  0  2  0  0  0  0  0  0
  187.4410  178.9370  138.8700 C   0  0  2  0  0  3  0  0  0  0  0  0
  184.3240  178.3870  139.0250 C   0  0  0  0  0  2  0  0  0  0  0  0
  187.7000  177.3130  142.4190 C   0  0  0  0  0  2  0  0  0  0  0  0
  190.7760  175.4300  143.4890 C   0  0  0  0  0  2  0  0  0  0  0  0
  186.9420  178.1680  140.1130 C   0  0  1  0  0  3  0  0  0  0  0  0
  187.2290  178.8340  136.4360 C   0  0  0  0  0  2  0  0  0  0  0  0
  189.7970  176.2010  142.6090 C   0  0  2  0  0  3  0  0  0  0  0  0
  190.9110  177.0840  145.3470 C   0  0  0  0  0  2  0  0  0  0  0  0
  185.2130  178.1180  137.7970 C   0  0  1  0  0  3  0  0  0  0  0  0
  189.3010  177.3670  140.4550 C   0  0  0  0  0  0  0  0  0  0  0  0
  189.3800  178.4260  143.7260 C   0  0  2  0  0  3  0  0  0  0  0  0
  188.1010  178.0220  141.1060 C   0  0  2  0  0  3  0  0  0  0  0  0
  191.6000  176.2990  139.3230 C   0  0  0  0  0  3  0  0  0  0  0  0
  184.8370  179.4200  139.8280 O   0  0  0  0  0  0  0  0  0  0  0  0
  191.3120  176.0800  140.6330 N   0  0  0  0  0  0  0  0  0  0  0  0
  185.7160  178.8390  140.7650 C   0  0  0  0  0  2  0  0  0  0  0  0
  186.4330  179.0650  137.7170 C   0  0  1  0  0  3  0  0  0  0  0  0
  190.7290  177.0470  138.5270 C   0  0  0  0  0  3  0  0  0  0  0  0
  188.6090  178.2910  138.2920 N   0  0  0  0  0  0  0  0  0  0  0  0
  185.6200  176.7790  137.8010 O   0  0  0  0  0  0  0  0  0  0  0  0
  184.5660  176.0720  137.2170 C   0  0  0  0  0  2  0  0  0  0  0  0
  184.5400  172.4090  137.3050 C   0  0  0  0  0  3  0  0  0  0  0  0
  186.2060  174.2070  136.7940 C   0  0  0  0  0  3  0  0  0  0  0  0
  184.9240  174.6290  137.1310 C   0  0  0  0  0  0  0  0  0  0  0  0
  186.1530  172.5290  136.8580 S   0  0  0  0  0  0  0  0  0  0  0  0
  184.0200  173.6500  137.4110 N   0  0  0  0  0  0  0  0  0  0  0  0
  1 18  1  0  0  0  0
  2 27  1  0  0  0  0
  3  7  1  6  0  0  0
  3 16  1  0  0  0  0
  4 15  1  0  0  0  0
  5 11  1  6  0  0  0
  5 19  1  0  0  0  0
  6  7  1  0  0  0  0
  8 16  1  0  0  0  0
  9 27  1  6  0  0  0
  9 13  1  0  0  0  0
 10 22  1  0  0  0  0
 12  8  1  0  0  0  0
 13 24  1  1  0  0  0
 13 20  1  0  0  0  0
 14  2  1  0  0  0  0
 15  5  1  0  0  0  0
 15 12  1  1  0  0  0
 17 28  1  1  0  0  0
 17 10  1  0  0  0  0
 18 20  1  0  0  0  0
 18  4  2  0  0  0  0
 19  6  1  6  0  0  0
 19  3  1  0  0  0  0
 20 11  1  1  0  0  0
 21 23  2  0  0  0  0
 22 24  1  0  0  0  0
 23  4  1  0  0  0  0
 25 14  1  6  0  0  0
 25 17  1  0  0  0  0
 25  9  1  0  0  0  0
 26  1  2  0  0  0  0
 26 21  1  0  0  0  0
 27  1  1  0  0  0  0
 29 28  1  0  0  0  0
 30 34  2  0  0  0  0
 31 33  1  0  0  0  0
 31 32  2  0  0  0  0
 32 29  1  0  0  0  0
 32 34  1  0  0  0  0
 33 30  1  0  0  0  0
M  END
>  <MODEL>
3

>  <REMARK>
 VINA RESULT:      -6.1      1.854      2.552
  Name = 
  3 active torsions:
  status: ('A' for Active; 'I' for Inactive)
    1  A    between atoms: C_17  and  O_28
    2  A    between atoms: O_28  and  C_29
    3  A    between atoms: C_29  and  C_32
                            x       y       z     vdW  Elec       q    Type
                         _______ _______ _______ _____ _____    ______ ____

>  <TORSDO>
F 3

$$$$
=
 OpenBabel11122412093D

 34 41  0  0  1  0  0  0  0  0999 V2000
  185.6170  178.4480  139.5180 C   0  0  0  0  0  0  0  0  0  0  0  0
  187.9980  177.8600  138.8520 C   0  0  0  0  0  2  0  0  0  0  0  0
  180.1940  180.4840  138.3390 C   0  0  2  0  0  3  0  0  0  0  0  0
  183.2800  178.4640  140.1550 C   0  0  0  0  0  0  0  0  0  0  0  0
  181.4770  178.2730  138.3910 N   0  0  1  0  0  0  0  0  0  0  0  0
  182.3120  180.5510  138.4090 O   0  0  0  0  0  0  0  0  0  0  0  0
  181.2830  181.4250  138.8030 C   0  0  0  0  0  2  0  0  0  0  0  0
  180.1650  179.7220  140.7990 C   0  0  0  0  0  2  0  0  0  0  0  0
  186.3070  178.0110  137.1230 C   0  0  2  0  0  3  0  0  0  0  0  0
  186.2050  175.5790  135.0940 C   0  0  0  0  0  2  0  0  0  0  0  0
  182.4520  177.5300  137.5790 C   0  0  0  0  0  2  0  0  0  0  0  0
  180.7530  178.3290  140.8390 C   0  0  0  0  0  2  0  0  0  0  0  0
  184.9410  177.3070  136.9650 C   0  0  1  0  0  3  0  0  0  0  0  0
  188.6420  177.4220  137.5450 C   0  0  0  0  0  2  0  0  0  0  0  0
  181.8580  178.1180  139.8090 C   0  0  2  0  0  3  0  0  0  0  0  0
  179.3740  179.9240  139.5110 C   0  0  0  0  0  2  0  0  0  0  0  0
  187.2680  175.7770  136.1900 C   0  0  1  0  0  3  0  0  0  0  0  0
  184.2640  178.3210  139.1640 C   0  0  0  0  0  0  0  0  0  0  0  0
  181.3730  179.6570  137.8670 C   0  0  2  0  0  3  0  0  0  0  0  0
  183.8750  178.1140  137.7150 C   0  0  2  0  0  3  0  0  0  0  0  0
  184.9460  178.8720  141.7990 C   0  0  0  0  0  3  0  0  0  0  0  0
  185.6630  176.8020  134.6620 O   0  0  0  0  0  0  0  0  0  0  0  0
  183.6420  178.7220  141.4410 N   0  0  0  0  0  0  0  0  0  0  0  0
  184.5570  177.0950  135.4870 C   0  0  0  0  0  2  0  0  0  0  0  0
  187.5130  177.2650  136.5300 C   0  0  1  0  0  3  0  0  0  0  0  0
  185.9570  178.7280  140.8460 C   0  0  0  0  0  3  0  0  0  0  0  0
  186.6290  178.2140  138.5270 N   0  0  0  0  0  0  0  0  0  0  0  0
  186.8970  175.0580  137.3320 O   0  0  0  0  0  0  0  0  0  0  0  0
  187.2730  173.7370  137.0740 C   0  0  0  0  0  2  0  0  0  0  0  0
  184.7890  171.3440  135.8370 C   0  0  0  0  0  3  0  0  0  0  0  0
  184.9170  173.0610  137.6550 C   0  0  0  0  0  3  0  0  0  0  0  0
  186.0540  172.9060  136.8700 C   0  0  0  0  0  0  0  0  0  0  0  0
  183.8040  171.9580  137.0490 S   0  0  0  0  0  0  0  0  0  0  0  0
  185.9820  171.9740  135.8800 N   0  0  0  0  0  0  0  0  0  0  0  0
  1 26  1  0  0  0  0
  3  7  1  1  0  0  0
  3 16  1  0  0  0  0
  4 23  2  0  0  0  0
  5 11  1  6  0  0  0
  5 15  1  0  0  0  0
  6  7  1  0  0  0  0
  8 12  1  0  0  0  0
  9 27  1  1  0  0  0
 10 17  1  0  0  0  0
 13 24  1  6  0  0  0
 13  9  1  0  0  0  0
 13 20  1  0  0  0  0
 14  2  1  0  0  0  0
 15  4  1  0  0  0  0
 15 12  1  1  0  0  0
 16  8  1  0  0  0  0
 17 25  1  0  0  0  0
 17 28  1  1  0  0  0
 18  1  2  0  0  0  0
 18  4  1  0  0  0  0
 19  3  1  0  0  0  0
 19  5  1  0  0  0  0
 19  6  1  1  0  0  0
 20 11  1  1  0  0  0
 20 18  1  0  0  0  0
 22 10  1  0  0  0  0
 22 24  1  0  0  0  0
 23 21  1  0  0  0  0
 25  9  1  0  0  0  0
 25 14  1  1  0  0  0
 26 21  2  0  0  0  0
 27  2  1  0  0  0  0
 27  1  1  0  0  0  0
 29 28  1  0  0  0  0
 30 34  2  0  0  0  0
 30 33  1  0  0  0  0
 32 29  1  0  0  0  0
 32 31  2  0  0  0  0
 33 31  1  0  0  0  0
 34 32  1  0  0  0  0
M  END
>  <MODEL>
4

>  <REMARK>
 VINA RESULT:      -5.9      3.891      7.434
  Name = 
  3 active torsions:
  status: ('A' for Active; 'I' for Inactive)
    1  A    between atoms: C_17  and  O_28
    2  A    between atoms: O_28  and  C_29
    3  A    between atoms: C_29  and  C_32
                            x       y       z     vdW  Elec       q    Type
                         _______ _______ _______ _____ _____    ______ ____

>  <TORSDO>
F 3

$$$$
=
 OpenBabel11122412093D

 34 41  0  0  1  0  0  0  0  0999 V2000
  184.0070  177.8570  138.9010 C   0  0  0  0  0  0  0  0  0  0  0  0
  181.5580  178.0220  139.5600 C   0  0  0  0  0  2  0  0  0  0  0  0
  188.4640  175.4660  135.8420 C   0  0  2  0  0  3  0  0  0  0  0  0
  186.2350  178.1640  137.9990 C   0  0  0  0  0  0  0  0  0  0  0  0
  186.7790  177.3790  135.6570 N   0  0  1  0  0  0  0  0  0  0  0  0
  186.7900  175.4620  137.1430 O   0  0  0  0  0  0  0  0  0  0  0  0
  188.0870  174.9210  137.2020 C   0  0  0  0  0  2  0  0  0  0  0  0
  189.4730  177.4130  137.1920 C   0  0  0  0  0  2  0  0  0  0  0  0
  182.1320  176.9660  137.4550 C   0  0  2  0  0  3  0  0  0  0  0  0
  180.4830  177.9560  134.9350 C   0  0  0  0  0  2  0  0  0  0  0  0
  185.3590  177.5870  135.3350 C   0  0  0  0  0  2  0  0  0  0  0  0
  188.5940  178.6210  136.9530 C   0  0  0  0  0  2  0  0  0  0  0  0
  182.9570  177.4700  136.2510 C   0  0  1  0  0  3  0  0  0  0  0  0
  180.2560  177.7070  138.8380 C   0  0  0  0  0  2  0  0  0  0  0  0
  187.1210  178.2630  136.7880 C   0  0  2  0  0  3  0  0  0  0  0  0
  189.5440  176.5550  135.9350 C   0  0  0  0  0  2  0  0  0  0  0  0
  180.2160  178.3760  136.3930 C   0  0  1  0  0  3  0  0  0  0  0  0
  184.8990  177.7680  137.8200 C   0  0  0  0  0  0  0  0  0  0  0  0
  187.0210  175.9260  135.8370 C   0  0  2  0  0  3  0  0  0  0  0  0
  184.4400  177.1740  136.5050 C   0  0  2  0  0  3  0  0  0  0  0  0
  185.8070  178.6990  140.2730 C   0  0  0  0  0  3  0  0  0  0  0  0
  181.0810  176.6860  134.8570 O   0  0  0  0  0  0  0  0  0  0  0  0
  186.6500  178.6270  139.2080 N   0  0  0  0  0  0  0  0  0  0  0  0
  182.4780  176.8650  134.9160 C   0  0  0  0  0  2  0  0  0  0  0  0
  180.6300  177.2950  137.4170 C   0  0  1  0  0  3  0  0  0  0  0  0
  184.4690  178.3250  140.1370 C   0  0  0  0  0  3  0  0  0  0  0  0
  182.6220  177.5390  138.6990 N   0  0  0  0  0  0  0  0  0  0  0  0
  180.8660  179.5880  136.6540 O   0  0  0  0  0  0  0  0  0  0  0  0
  180.6350  180.3800  135.5270 C   0  0  0  0  0  2  0  0  0  0  0  0
  180.8090  184.0400  135.5120 C   0  0  0  0  0  3  0  0  0  0  0  0
  180.7960  182.2240  137.2360 C   0  0  0  0  0  3  0  0  0  0  0  0
  180.7040  181.8180  135.9090 C   0  0  0  0  0  0  0  0  0  0  0  0
  180.8850  183.9010  137.1830 S   0  0  0  0  0  0  0  0  0  0  0  0
  180.7140  182.8060  134.9730 N   0  0  0  0  0  0  0  0  0  0  0  0
  1 26  1  0  0  0  0
  3 16  1  1  0  0  0
  3  7  1  0  0  0  0
  4 23  2  0  0  0  0
  5 11  1  1  0  0  0
  5 19  1  0  0  0  0
  5 15  1  0  0  0  0
  6  7  1  0  0  0  0
  9 27  1  1  0  0  0
 10 17  1  0  0  0  0
 12  8  1  0  0  0  0
 13 24  1  6  0  0  0
 13 20  1  0  0  0  0
 13  9  1  0  0  0  0
 14  2  1  0  0  0  0
 15 12  1  1  0  0  0
 15  4  1  0  0  0  0
 16  8  1  0  0  0  0
 17 28  1  1  0  0  0
 17 25  1  0  0  0  0
 18  4  1  0  0  0  0
 18  1  2  0  0  0  0
 19  3  1  0  0  0  0
 19  6  1  1  0  0  0
 20 11  1  6  0  0  0
 20 18  1  0  0  0  0
 22 24  1  0  0  0  0
 22 10  1  0  0  0  0
 23 21  1  0  0  0  0
 25  9  1  0  0  0  0
 25 14  1  1  0  0  0
 26 21  2  0  0  0  0
 27  1  1  0  0  0  0
 27  2  1  0  0  0  0
 29 32  1  0  0  0  0
 29 28  1  0  0  0  0
 30 33  1  0  0  0  0
 32 31  2  0  0  0  0
 33 31  1  0  0  0  0
 34 30  2  0  0  0  0
 34 32  1  0  0  0  0
M  END
>  <MODEL>
5

>  <REMARK>
 VINA RESULT:      -5.7      4.434      7.006
  Name = 
  3 active torsions:
  status: ('A' for Active; 'I' for Inactive)
    1  A    between atoms: C_17  and  O_28
    2  A    between atoms: O_28  and  C_29
    3  A    between atoms: C_29  and  C_32
                            x       y       z     vdW  Elec       q    Type
                         _______ _______ _______ _____ _____    ______ ____

>  <TORSDO>
F 3

$$$$
=
 OpenBabel11122412093D

 34 41  0  0  1  0  0  0  0  0999 V2000
  185.5490  177.8590  137.5760 C   0  0  0  0  0  0  0  0  0  0  0  0
  187.8760  178.8260  137.2460 C   0  0  0  0  0  2  0  0  0  0  0  0
  181.0890  174.2940  136.0500 C   0  0  2  0  0  3  0  0  0  0  0  0
  183.5700  176.6690  138.3080 C   0  0  0  0  0  0  0  0  0  0  0  0
  183.1590  174.2920  137.5490 N   0  0  1  0  0  0  0  0  0  0  0  0
  182.5500  175.8010  135.7500 O   0  0  0  0  0  0  0  0  0  0  0  0
  181.1690  175.7010  135.5000 C   0  0  0  0  0  2  0  0  0  0  0  0
  180.3690  175.4640  138.2280 C   0  0  0  0  0  2  0  0  0  0  0  0
  187.3490  176.6860  136.2400 C   0  0  2  0  0  3  0  0  0  0  0  0
  189.4690  174.3830  136.7370 C   0  0  0  0  0  2  0  0  0  0  0  0
  184.6190  174.1540  137.4350 C   0  0  0  0  0  2  0  0  0  0  0  0
  181.5120  175.3180  139.2080 C   0  0  0  0  0  2  0  0  0  0  0  0
  186.8070  175.3750  136.8510 C   0  0  1  0  0  3  0  0  0  0  0  0
  189.1570  178.2860  136.6270 C   0  0  0  0  0  2  0  0  0  0  0  0
  182.8810  175.3520  138.5370 C   0  0  2  0  0  3  0  0  0  0  0  0
  180.2680  174.2240  137.3470 C   0  0  0  0  0  2  0  0  0  0  0  0
  189.6410  175.8540  137.1570 C   0  0  1  0  0  3  0  0  0  0  0  0
  184.7990  176.6730  137.6290 C   0  0  0  0  0  0  0  0  0  0  0  0
  182.5870  174.4670  136.1910 C   0  0  2  0  0  3  0  0  0  0  0  0
  185.2760  175.4400  136.8900 C   0  0  2  0  0  3  0  0  0  0  0  0
  183.8210  178.9690  138.8450 C   0  0  0  0  0  3  0  0  0  0  0  0
  188.6250  174.2520  135.6210 O   0  0  0  0  0  0  0  0  0  0  0  0
  183.1190  177.8060  138.9050 N   0  0  0  0  0  0  0  0  0  0  0  0
  187.3030  174.1250  136.0960 C   0  0  0  0  0  2  0  0  0  0  0  0
  188.8790  176.8370  136.2380 C   0  0  1  0  0  3  0  0  0  0  0  0
  185.0530  179.0150  138.1890 C   0  0  0  0  0  3  0  0  0  0  0  0
  186.8470  177.8440  136.9610 N   0  0  0  0  0  0  0  0  0  0  0  0
  189.2430  176.0060  138.4910 O   0  0  0  0  0  0  0  0  0  0  0  0
  190.3910  176.4140  139.1740 C   0  0  0  0  0  2  0  0  0  0  0  0
  188.6140  178.0890  141.9050 C   0  0  0  0  0  3  0  0  0  0  0  0
  190.8920  177.1160  141.5410 C   0  0  0  0  0  3  0  0  0  0  0  0
  190.0030  177.0260  140.4750 C   0  0  0  0  0  0  0  0  0  0  0  0
  190.0440  177.8990  142.7620 S   0  0  0  0  0  0  0  0  0  0  0  0
  188.7660  177.5580  140.6740 N   0  0  0  0  0  0  0  0  0  0  0  0
  1 18  2  0  0  0  0
  1 26  1  0  0  0  0
  3  7  1  6  0  0  0
  3 19  1  0  0  0  0
  3 16  1  0  0  0  0
  4 15  1  0  0  0  0
  4 23  2  0  0  0  0
  5 11  1  6  0  0  0
  5 15  1  0  0  0  0
  7  6  1  0  0  0  0
  8 12  1  0  0  0  0
  9 13  1  0  0  0  0
  9 27  1  1  0  0  0
 10 17  1  0  0  0  0
 13 24  1  6  0  0  0
 13 20  1  0  0  0  0
 14  2  1  0  0  0  0
 15 12  1  6  0  0  0
 16  8  1  0  0  0  0
 17 28  1  1  0  0  0
 18  4  1  0  0  0  0
 19  6  1  1  0  0  0
 19  5  1  0  0  0  0
 20 11  1  1  0  0  0
 20 18  1  0  0  0  0
 21 23  1  0  0  0  0
 22 24  1  0  0  0  0
 22 10  1  0  0  0  0
 25  9  1  0  0  0  0
 25 14  1  1  0  0  0
 25 17  1  0  0  0  0
 26 21  2  0  0  0  0
 27  2  1  0  0  0  0
 27  1  1  0  0  0  0
 28 29  1  0  0  0  0
 29 32  1  0  0  0  0
 30 33  1  0  0  0  0
 31 33  1  0  0  0  0
 32 34  1  0  0  0  0
 32 31  2  0  0  0  0
 34 30  2  0  0  0  0
M  END
>  <MODEL>
6

>  <REMARK>
 VINA RESULT:      -5.7      3.397      8.484
  Name = 
  3 active torsions:
  status: ('A' for Active; 'I' for Inactive)
    1  A    between atoms: C_17  and  O_28
    2  A    between atoms: O_28  and  C_29
    3  A    between atoms: C_29  and  C_32
                            x       y       z     vdW  Elec       q    Type
                         _______ _______ _______ _____ _____    ______ ____

>  <TORSDO>
F 3

$$$$
=
 OpenBabel11122412093D

 34 41  0  0  1  0  0  0  0  0999 V2000
  183.7760  178.2010  139.6130 C   0  0  0  0  0  0  0  0  0  0  0  0
  181.6900  178.8780  140.8970 C   0  0  0  0  0  2  0  0  0  0  0  0
  186.6680  174.8300  135.7120 C   0  0  2  0  0  3  0  0  0  0  0  0
  185.6660  178.0170  138.1070 C   0  0  0  0  0  0  0  0  0  0  0  0
  185.3640  177.0270  135.7990 N   0  0  1  0  0  0  0  0  0  0  0  0
  185.4680  175.2200  137.4150 O   0  0  0  0  0  0  0  0  0  0  0  0
  186.6100  174.4370  137.1710 C   0  0  0  0  0  2  0  0  0  0  0  0
  188.3490  176.6040  136.5250 C   0  0  0  0  0  2  0  0  0  0  0  0
  181.4370  177.6280  138.8360 C   0  0  2  0  0  3  0  0  0  0  0  0
  179.3310  178.7990  136.7770 C   0  0  0  0  0  2  0  0  0  0  0  0
  183.9710  177.4950  135.8600 C   0  0  0  0  0  2  0  0  0  0  0  0
  187.6640  177.9480  136.4130 C   0  0  0  0  0  2  0  0  0  0  0  0
  181.9550  177.9000  137.4060 C   0  0  1  0  0  3  0  0  0  0  0  0
  180.2010  178.7900  140.5960 C   0  0  0  0  0  2  0  0  0  0  0  0
  186.1670  177.8800  136.6960 C   0  0  2  0  0  3  0  0  0  0  0  0
  187.9020  175.6880  135.3920 C   0  0  0  0  0  2  0  0  0  0  0  0
  179.5740  179.3340  138.2010 C   0  0  1  0  0  3  0  0  0  0  0  0
  184.2880  177.8840  138.3440 C   0  0  0  0  0  0  0  0  0  0  0  0
  185.3890  175.5660  136.0550 C   0  0  2  0  0  3  0  0  0  0  0  0
  183.3720  177.3290  137.2730 C   0  0  2  0  0  3  0  0  0  0  0  0
  186.0140  178.7370  140.3440 C   0  0  0  0  0  3  0  0  0  0  0  0
  179.6480  177.4340  136.6690 O   0  0  0  0  0  0  0  0  0  0  0  0
  186.4880  178.4480  139.1020 N   0  0  0  0  0  0  0  0  0  0  0  0
  181.0120  177.3360  136.3240 C   0  0  0  0  0  2  0  0  0  0  0  0
  180.0710  178.2440  139.1780 C   0  0  1  0  0  3  0  0  0  0  0  0
  184.6500  178.6280  140.6190 C   0  0  0  0  0  3  0  0  0  0  0  0
  182.3580  178.1520  139.8320 N   0  0  0  0  0  0  0  0  0  0  0  0
  180.4740  180.4050  138.1470 O   0  0  0  0  0  0  0  0  0  0  0  0
  179.6880  181.5540  138.2730 C   0  0  0  0  0  2  0  0  0  0  0  0
  180.8050  183.2560  135.2270 C   0  0  0  0  0  3  0  0  0  0  0  0
  180.2790  183.9040  137.5880 C   0  0  0  0  0  3  0  0  0  0  0  0
  180.1180  182.5610  137.2650 C   0  0  0  0  0  0  0  0  0  0  0  0
  180.8020  184.6430  136.1720 S   0  0  0  0  0  0  0  0  0  0  0  0
  180.4070  182.2100  135.9820 N   0  0  0  0  0  0  0  0  0  0  0  0
  1 27  1  0  0  0  0
  1 26  1  0  0  0  0
  3 16  1  1  0  0  0
  3 19  1  0  0  0  0
  3  7  1  0  0  0  0
  4 18  1  0  0  0  0
  4 23  2  0  0  0  0
  5 11  1  1  0  0  0
  5 19  1  0  0  0  0
  5 15  1  0  0  0  0
  7  6  1  0  0  0  0
  9 25  1  0  0  0  0
  9 27  1  1  0  0  0
 10 17  1  0  0  0  0
 12  8  1  0  0  0  0
 13 24  1  6  0  0  0
 13  9  1  0  0  0  0
 14  2  1  0  0  0  0
 15 12  1  1  0  0  0
 15  4  1  0  0  0  0
 16  8  1  0  0  0  0
 17 28  1  6  0  0  0
 17 25  1  0  0  0  0
 18  1  2  0  0  0  0
 19  6  1  1  0  0  0
 20 11  1  6  0  0  0
 20 13  1  0  0  0  0
 20 18  1  0  0  0  0
 21 26  2  0  0  0  0
 22 10  1  0  0  0  0
 23 21  1  0  0  0  0
 24 22  1  0  0  0  0
 25 14  1  1  0  0  0
 27  2  1  0  0  0  0
 28 29  1  0  0  0  0
 30 34  2  0  0  0  0
 30 33  1  0  0  0  0
 32 31  2  0  0  0  0
 32 29  1  0  0  0  0
 33 31  1  0  0  0  0
 34 32  1  0  0  0  0
M  END
>  <MODEL>
7

>  <REMARK>
 VINA RESULT:      -5.5      4.394      7.089
  Name = 
  3 active torsions:
  status: ('A' for Active; 'I' for Inactive)
    1  A    between atoms: C_17  and  O_28
    2  A    between atoms: O_28  and  C_29
    3  A    between atoms: C_29  and  C_32
                            x       y       z     vdW  Elec       q    Type
                         _______ _______ _______ _____ _____    ______ ____

>  <TORSDO>
F 3

$$$$
=
 OpenBabel11122412093D

 34 41  0  0  1  0  0  0  0  0999 V2000
  182.0490  178.6800  142.3030 C   0  0  0  0  0  0  0  0  0  0  0  0
  183.4730  179.5090  144.2380 C   0  0  0  0  0  2  0  0  0  0  0  0
  180.6800  178.3640  136.5620 C   0  0  2  0  0  3  0  0  0  0  0  0
  180.9520  177.4160  140.5520 C   0  0  0  0  0  0  0  0  0  0  0  0
  182.0720  177.1150  138.3050 N   0  0  1  0  0  0  0  0  0  0  0  0
  181.0980  179.3350  138.4000 O   0  0  0  0  0  0  0  0  0  0  0  0
  180.0790  179.4420  137.4350 C   0  0  0  0  0  2  0  0  0  0  0  0
  179.0290  176.8140  137.7880 C   0  0  0  0  0  2  0  0  0  0  0  0
  184.4170  179.5230  142.0060 C   0  0  2  0  0  3  0  0  0  0  0  0
  187.3080  178.2530  141.7370 C   0  0  0  0  0  2  0  0  0  0  0  0
  183.3560  177.2460  139.0090 C   0  0  0  0  0  2  0  0  0  0  0  0
  179.8470  175.9270  138.7000 C   0  0  0  0  0  2  0  0  0  0  0  0
  184.5770  178.4010  140.9580 C   0  0  1  0  0  3  0  0  0  0  0  0
  184.9310  179.9260  144.3620 C   0  0  0  0  0  2  0  0  0  0  0  0
  181.0710  176.6310  139.2750 C   0  0  2  0  0  3  0  0  0  0  0  0
  179.7990  177.1060  136.5050 C   0  0  0  0  0  2  0  0  0  0  0  0
  186.5570  178.4790  143.0620 C   0  0  1  0  0  3  0  0  0  0  0  0
  182.0800  178.1070  141.0220 C   0  0  0  0  0  0  0  0  0  0  0  0
  181.7750  178.3910  137.6080 C   0  0  2  0  0  3  0  0  0  0  0  0
  183.2890  178.3050  140.1310 C   0  0  2  0  0  3  0  0  0  0  0  0
  179.7880  177.8780  142.5710 C   0  0  0  0  0  3  0  0  0  0  0  0
  186.9100  179.1680  140.7460 O   0  0  0  0  0  0  0  0  0  0  0  0
  179.8450  177.3090  141.3370 N   0  0  0  0  0  0  0  0  0  0  0  0
  185.8130  178.6080  140.0600 C   0  0  0  0  0  2  0  0  0  0  0  0
  185.5770  179.6740  143.0030 C   0  0  1  0  0  3  0  0  0  0  0  0
  180.8910  178.5650  143.0800 C   0  0  0  0  0  3  0  0  0  0  0  0
  183.2310  179.3100  142.8220 N   0  0  0  0  0  0  0  0  0  0  0  0
  185.8900  177.3030  143.4250 O   0  0  0  0  0  0  0  0  0  0  0  0
  186.8750  176.4740  143.9690 C   0  0  0  0  0  2  0  0  0  0  0  0
  187.0820  178.0050  147.2910 C   0  0  0  0  0  3  0  0  0  0  0  0
  188.6940  177.1630  145.5690 C   0  0  0  0  0  3  0  0  0  0  0  0
  187.3430  177.0420  145.2630 C   0  0  0  0  0  0  0  0  0  0  0  0
  188.7430  177.8780  147.0890 S   0  0  0  0  0  0  0  0  0  0  0  0
  186.4680  177.5030  146.1990 N   0  0  0  0  0  0  0  0  0  0  0  0
  1 27  1  0  0  0  0
  1 26  1  0  0  0  0
  2 14  1  0  0  0  0
  3 16  1  1  0  0  0
  3  7  1  0  0  0  0
  3 19  1  0  0  0  0
  4 18  1  0  0  0  0
  4 23  2  0  0  0  0
  5 11  1  1  0  0  0
  5 15  1  0  0  0  0
  7  6  1  0  0  0  0
  8 12  1  0  0  0  0
  9 27  1  1  0  0  0
  9 25  1  0  0  0  0
 10 17  1  0  0  0  0
 13 24  1  6  0  0  0
 13  9  1  0  0  0  0
 15 12  1  6  0  0  0
 15  4  1  0  0  0  0
 16  8  1  0  0  0  0
 17 28  1  6  0  0  0
 18  1  2  0  0  0  0
 19  5  1  0  0  0  0
 19  6  1  1  0  0  0
 20 11  1  6  0  0  0
 20 13  1  0  0  0  0
 20 18  1  0  0  0  0
 21 26  2  0  0  0  0
 22 10  1  0  0  0  0
 23 21  1  0  0  0  0
 24 22  1  0  0  0  0
 25 17  1  0  0  0  0
 25 14  1  1  0  0  0
 27  2  1  0  0  0  0
 28 29  1  0  0  0  0
 29 32  1  0  0  0  0
 31 33  1  0  0  0  0
 32 31  2  0  0  0  0
 32 34  1  0  0  0  0
 33 30  1  0  0  0  0
 34 30  2  0  0  0  0
M  END
>  <MODEL>
8

>  <REMARK>
 VINA RESULT:      -5.2      3.442      8.584
  Name = 
  3 active torsions:
  status: ('A' for Active; 'I' for Inactive)
    1  A    between atoms: C_17  and  O_28
    2  A    between atoms: O_28  and  C_29
    3  A    between atoms: C_29  and  C_32
                            x       y       z     vdW  Elec       q    Type
                         _______ _______ _______ _____ _____    ______ ____

>  <TORSDO>
F 3

$$$$
=
 OpenBabel11122412093D

 34 41  0  0  1  0  0  0  0  0999 V2000
  189.5280  176.0120  137.6890 C   0  0  0  0  0  0  0  0  0  0  0  0
  187.8400  177.3430  139.0460 C   0  0  0  0  0  2  0  0  0  0  0  0
  194.9010  175.1790  135.3710 C   0  0  2  0  0  3  0  0  0  0  0  0
  191.1370  174.4150  136.8360 C   0  0  0  0  0  0  0  0  0  0  0  0
  193.5770  174.5970  137.4790 N   0  0  1  0  0  0  0  0  0  0  0  0
  193.1010  176.2330  135.7510 O   0  0  0  0  0  0  0  0  0  0  0  0
  193.8360  175.9200  134.5940 C   0  0  0  0  0  2  0  0  0  0  0  0
  193.5190  173.0910  134.7680 C   0  0  0  0  0  2  0  0  0  0  0  0
  190.2030  177.7420  139.4090 C   0  0  2  0  0  3  0  0  0  0  0  0
  191.1370  177.7510  142.4370 C   0  0  0  0  0  2  0  0  0  0  0  0
  193.1260  175.2350  138.7240 C   0  0  0  0  0  2  0  0  0  0  0  0
  192.8640  172.6090  136.0430 C   0  0  0  0  0  2  0  0  0  0  0  0
  191.3570  176.7820  139.7730 C   0  0  1  0  0  3  0  0  0  0  0  0
  187.9650  178.3140  140.2100 C   0  0  0  0  0  2  0  0  0  0  0  0
  192.4770  173.7470  136.9820 C   0  0  2  0  0  3  0  0  0  0  0  0
  194.8950  173.6720  135.0680 C   0  0  0  0  0  2  0  0  0  0  0  0
  189.6770  177.6510  141.9590 C   0  0  1  0  0  3  0  0  0  0  0  0
  190.8360  175.5030  137.6720 C   0  0  0  0  0  0  0  0  0  0  0  0
  194.0880  175.6450  136.5610 C   0  0  2  0  0  3  0  0  0  0  0  0
  191.9230  176.1740  138.4840 C   0  0  2  0  0  3  0  0  0  0  0  0
  188.8990  174.3620  136.0420 C   0  0  0  0  0  3  0  0  0  0  0  0
  191.9480  178.4290  141.5100 O   0  0  0  0  0  0  0  0  0  0  0  0
  190.1660  173.8680  136.0560 N   0  0  0  0  0  0  0  0  0  0  0  0
  192.4550  177.4740  140.6050 C   0  0  0  0  0  2  0  0  0  0  0  0
  189.4400  178.3470  140.5990 C   0  0  1  0  0  3  0  0  0  0  0  0
  188.5550  175.4370  136.8660 C   0  0  0  0  0  3  0  0  0  0  0  0
  189.1950  177.0650  138.6070 N   0  0  0  0  0  0  0  0  0  0  0  0
  189.2960  176.3050  141.9050 O   0  0  0  0  0  0  0  0  0  0  0  0
  189.3380  175.8570  143.2280 C   0  0  0  0  0  2  0  0  0  0  0  0
  187.6610  177.6910  145.9210 C   0  0  0  0  0  3  0  0  0  0  0  0
  187.1360  177.0340  143.5630 C   0  0  0  0  0  3  0  0  0  0  0  0
  188.3800  176.6480  144.0500 C   0  0  0  0  0  0  0  0  0  0  0  0
  186.3990  177.8570  144.8280 S   0  0  0  0  0  0  0  0  0  0  0  0
  188.6630  177.0030  145.3330 N   0  0  0  0  0  0  0  0  0  0  0  0
  1 27  1  0  0  0  0
  2 14  1  0  0  0  0
  3  7  1  6  0  0  0
  3 19  1  0  0  0  0
  4 15  1  0  0  0  0
  4 18  2  0  0  0  0
  5 11  1  1  0  0  0
  7  6  1  0  0  0  0
  8 16  1  0  0  0  0
  8 12  1  0  0  0  0
  9 27  1  6  0  0  0
  9 13  1  0  0  0  0
  9 25  1  0  0  0  0
 13 24  1  6  0  0  0
 15 12  1  6  0  0  0
 15  5  1  0  0  0  0
 16  3  1  0  0  0  0
 17 28  1  6  0  0  0
 17 10  1  0  0  0  0
 18  1  1  0  0  0  0
 18 20  1  0  0  0  0
 19  6  1  6  0  0  0
 19  5  1  0  0  0  0
 20 11  1  1  0  0  0
 20 13  1  0  0  0  0
 21 23  2  0  0  0  0
 21 26  1  0  0  0  0
 22 10  1  0  0  0  0
 23  4  1  0  0  0  0
 24 22  1  0  0  0  0
 25 14  1  6  0  0  0
 25 17  1  0  0  0  0
 26  1  2  0  0  0  0
 27  2  1  0  0  0  0
 28 29  1  0  0  0  0
 29 32  1  0  0  0  0
 31 32  2  0  0  0  0
 31 33  1  0  0  0  0
 32 34  1  0  0  0  0
 33 30  1  0  0  0  0
 34 30  2  0  0  0  0
M  END
>  <MODEL>
9

>  <REMARK>
 VINA RESULT:      -5.2      4.336      7.529
  Name = 
  3 active torsions:
  status: ('A' for Active; 'I' for Inactive)
    1  A    between atoms: C_17  and  O_28
    2  A    between atoms: O_28  and  C_29
    3  A    between atoms: C_29  and  C_32
                            x       y       z     vdW  Elec       q    Type
                         _______ _______ _______ _____ _____    ______ ____

>  <TORSDO>
F 3

$$$$
