=
 OpenBabel11122411543D

 28 32  0  0  1  0  0  0  0  0999 V2000
  180.4950  179.4550  140.5760 C   0  0  0  0  0  0  0  0  0  0  0  0
  179.6600  176.6990  137.6350 O   0  0  0  0  0  0  0  0  0  0  0  0
  186.0980  179.5630  140.8680 O   0  0  0  0  0  0  0  0  0  0  0  0
  180.3080  181.4760  138.6400 C   0  0  0  0  0  3  0  0  0  0  0  0
  185.4030  178.2060  139.0620 N   0  0  0  0  0  0  0  0  0  0  0  0
  180.5990  178.4100  141.6470 C   0  0  0  0  0  2  0  0  0  0  0  0
  180.8200  176.7660  135.4800 O   0  0  0  0  0  0  0  0  0  0  0  0
  181.0000  176.5900  136.9610 S   0  0  0  0  0  0  0  0  0  0  0  0
  183.1280  175.1390  137.7180 C   0  0  1  0  0  3  0  0  0  0  0  0
  182.0800  177.8270  137.5530 N   0  0  2  0  0  0  0  0  0  0  0  0
  183.2630  179.5140  143.9250 O   0  0  0  0  0  0  0  0  0  0  0  0
  183.2110  178.0130  139.6140 C   0  0  1  0  0  3  0  0  0  0  0  0
  183.7990  176.1410  136.8920 N   0  0  0  0  0  2  0  0  0  0  0  0
  181.6900  174.9820  137.2700 C   0  0  0  0  0  2  0  0  0  0  0  0
  182.7360  178.8950  142.9650 C   0  0  0  0  0  0  0  0  0  0  0  0
  181.0960  179.2740  139.3110 C   0  0  0  0  0  0  0  0  0  0  0  0
  185.1930  178.9140  140.2780 C   0  0  0  0  0  0  0  0  0  0  0  0
  183.8440  173.8130  137.5920 C   0  0  0  0  0  1  0  0  0  0  0  0
  183.6160  178.1240  142.0340 C   0  0  0  0  0  2  0  0  0  0  0  0
  181.0070  180.3020  138.3570 C   0  0  0  0  0  3  0  0  0  0  0  0
  179.7890  180.6340  140.8460 C   0  0  0  0  0  3  0  0  0  0  0  0
  179.6950  181.6400  139.8830 C   0  0  0  0  0  3  0  0  0  0  0  0
  181.3130  178.9370  142.8040 N   0  0  0  0  0  2  0  0  0  0  0  0
  184.1190  177.7040  138.7380 C   0  0  1  0  0  3  0  0  0  0  0  0
  183.7630  178.8640  140.7170 C   0  0  2  0  0  3  0  0  0  0  0  0
  183.5270  177.5000  137.3940 C   0  0  2  0  0  3  0  0  0  0  0  0
  186.4720  178.4670  138.1130 C   0  0  0  0  0  1  0  0  0  0  0  0
  181.8590  178.0080  139.0020 C   0  0  1  0  0  3  0  0  0  0  0  0
  1 21  1  0  0  0  0
  1  6  1  0  0  0  0
  4 22  1  0  0  0  0
  5 17  1  0  0  0  0
  6 23  1  0  0  0  0
  7  8  2  0  0  0  0
  8 14  1  0  0  0  0
  8  2  2  0  0  0  0
  9 18  1  6  0  0  0
 10  8  1  1  0  0  0
 10 28  1  0  0  0  0
 12 25  1  0  0  0  0
 13 26  1  0  0  0  0
 13  9  1  0  0  0  0
 14  9  1  0  0  0  0
 15 11  2  0  0  0  0
 16  1  2  0  0  0  0
 17 25  1  0  0  0  0
 17  3  2  0  0  0  0
 19 15  1  0  0  0  0
 20  4  2  0  0  0  0
 20 16  1  0  0  0  0
 22 21  2  0  0  0  0
 23 15  1  0  0  0  0
 24  5  1  0  0  0  0
 24 12  1  0  0  0  0
 25 19  1  0  0  0  0
 26 10  1  0  0  0  0
 26 24  1  0  0  0  0
 27  5  1  0  0  0  0
 28 16  1  0  0  0  0
 28 12  1  0  0  0  0
M  END
>  <MODEL>
1

>  <REMARK>
 VINA RESULT:      -5.9      0.000      0.000
  Name = 
  0 active torsions:
  status: ('A' for Active; 'I' for Inactive)
                            x       y       z     vdW  Elec       q    Type
                         _______ _______ _______ _____ _____    ______ ____

>  <TORSDO>
F 0

$$$$
=
 OpenBabel11122411543D

 28 32  0  0  1  0  0  0  0  0999 V2000
  185.5160  174.9200  135.7140 C   0  0  0  0  0  0  0  0  0  0  0  0
  181.4640  175.6160  135.9220 O   0  0  0  0  0  0  0  0  0  0  0  0
  187.7690  178.5590  139.3430 O   0  0  0  0  0  0  0  0  0  0  0  0
  185.1900  172.8640  137.5940 C   0  0  0  0  0  3  0  0  0  0  0  0
  185.4100  178.6280  139.4790 N   0  0  0  0  0  0  0  0  0  0  0  0
  185.7380  176.0050  134.7020 C   0  0  0  0  0  2  0  0  0  0  0  0
  180.3250  175.7830  138.0820 O   0  0  0  0  0  0  0  0  0  0  0  0
  181.3780  176.3970  137.2040 S   0  0  0  0  0  0  0  0  0  0  0  0
  181.8490  179.0110  137.5930 C   0  0  1  0  0  3  0  0  0  0  0  0
  182.9080  176.3600  138.0430 N   0  0  2  0  0  0  0  0  0  0  0  0
  188.9930  177.5160  135.4960 O   0  0  0  0  0  0  0  0  0  0  0  0
  184.9320  177.4790  137.5820 C   0  0  1  0  0  3  0  0  0  0  0  0
  182.0550  178.5220  138.9560 N   0  0  0  0  0  2  0  0  0  0  0  0
  180.9200  178.0760  136.8460 C   0  0  0  0  0  2  0  0  0  0  0  0
  187.7430  177.3770  135.5020 C   0  0  0  0  0  0  0  0  0  0  0  0
  184.6910  175.1230  136.8420 C   0  0  0  0  0  0  0  0  0  0  0  0
  186.6400  178.2880  138.8510 C   0  0  0  0  0  0  0  0  0  0  0  0
  181.2420  180.3970  137.6360 C   0  0  0  0  0  1  0  0  0  0  0  0
  186.9220  178.2690  136.3780 C   0  0  0  0  0  2  0  0  0  0  0  0
  184.5500  174.0900  137.7830 C   0  0  0  0  0  3  0  0  0  0  0  0
  186.1460  173.6830  135.5300 C   0  0  0  0  0  3  0  0  0  0  0  0
  185.9840  172.6590  136.4640 C   0  0  0  0  0  3  0  0  0  0  0  0
  187.1470  176.3810  134.6620 N   0  0  0  0  0  2  0  0  0  0  0  0
  184.4290  178.0710  138.6220 C   0  0  1  0  0  3  0  0  0  0  0  0
  186.4310  177.5040  137.5930 C   0  0  2  0  0  3  0  0  0  0  0  0
  183.1120  177.4960  138.9880 C   0  0  2  0  0  3  0  0  0  0  0  0
  185.2380  178.8980  140.8960 C   0  0  0  0  0  1  0  0  0  0  0  0
  184.0020  176.4500  137.0550 C   0  0  1  0  0  3  0  0  0  0  0  0
  1 16  1  0  0  0  0
  2  8  2  0  0  0  0
  4 20  1  0  0  0  0
  5 27  1  0  0  0  0
  6  1  1  0  0  0  0
  8  7  2  0  0  0  0
  9 18  1  1  0  0  0
  9 13  1  0  0  0  0
 10  8  1  6  0  0  0
 10 26  1  0  0  0  0
 11 15  2  0  0  0  0
 12 25  1  0  0  0  0
 12 24  1  0  0  0  0
 13 26  1  0  0  0  0
 14  8  1  0  0  0  0
 14  9  1  0  0  0  0
 15 19  1  0  0  0  0
 16 28  1  0  0  0  0
 16 20  2  0  0  0  0
 17  3  2  0  0  0  0
 17  5  1  0  0  0  0
 19 25  1  0  0  0  0
 21  1  2  0  0  0  0
 21 22  1  0  0  0  0
 22  4  2  0  0  0  0
 23  6  1  0  0  0  0
 23 15  1  0  0  0  0
 24 26  1  0  0  0  0
 24  5  1  0  0  0  0
 25 17  1  0  0  0  0
 28 12  1  0  0  0  0
 28 10  1  0  0  0  0
M  END
>  <MODEL>
2

>  <REMARK>
 VINA RESULT:      -5.8      2.383      6.255
  Name = 
  0 active torsions:
  status: ('A' for Active; 'I' for Inactive)
                            x       y       z     vdW  Elec       q    Type
                         _______ _______ _______ _____ _____    ______ ____

>  <TORSDO>
F 0

$$$$
=
 OpenBabel11122411543D

 28 32  0  0  1  0  0  0  0  0999 V2000
  181.9330  178.8300  139.3880 C   0  0  0  0  0  0  0  0  0  0  0  0
  180.3810  175.4060  137.7120 O   0  0  0  0  0  0  0  0  0  0  0  0
  187.2480  179.0030  137.5950 O   0  0  0  0  0  0  0  0  0  0  0  0
  180.8940  180.2790  137.2240 C   0  0  0  0  0  3  0  0  0  0  0  0
  186.0940  177.2240  136.5510 N   0  0  0  0  0  0  0  0  0  0  0  0
  182.5020  178.0990  140.5680 C   0  0  0  0  0  2  0  0  0  0  0  0
  180.7020  174.9090  135.3370 O   0  0  0  0  0  0  0  0  0  0  0  0
  181.4040  175.1240  136.6470 S   0  0  0  0  0  0  0  0  0  0  0  0
  183.7880  173.9170  136.9100 C   0  0  1  0  0  3  0  0  0  0  0  0
  182.5030  176.4700  136.4880 N   0  0  2  0  0  0  0  0  0  0  0  0
  185.6810  179.7530  141.3850 O   0  0  0  0  0  0  0  0  0  0  0  0
  184.2620  177.1840  137.8880 C   0  0  1  0  0  3  0  0  0  0  0  0
  184.0310  174.6680  135.6800 N   0  0  0  0  0  2  0  0  0  0  0  0
  182.3050  173.6500  137.0650 C   0  0  0  0  0  2  0  0  0  0  0  0
  184.9100  178.9060  140.8630 C   0  0  0  0  0  0  0  0  0  0  0  0
  182.0670  178.3250  138.0760 C   0  0  0  0  0  0  0  0  0  0  0  0
  186.2580  178.2240  137.5490 C   0  0  0  0  0  0  0  0  0  0  0  0
  184.5340  172.6010  136.8580 C   0  0  0  0  0  1  0  0  0  0  0  0
  185.4760  177.9190  139.8920 C   0  0  0  0  0  2  0  0  0  0  0  0
  181.5550  179.0700  137.0000 C   0  0  0  0  0  3  0  0  0  0  0  0
  181.2600  180.0390  139.6010 C   0  0  0  0  0  3  0  0  0  0  0  0
  180.7420  180.7600  138.5250 C   0  0  0  0  0  3  0  0  0  0  0  0
  183.5240  178.9070  141.2230 N   0  0  0  0  0  2  0  0  0  0  0  0
  184.8300  176.6570  136.8460 C   0  0  1  0  0  3  0  0  0  0  0  0
  185.0830  178.2910  138.4750 C   0  0  2  0  0  3  0  0  0  0  0  0
  183.8270  176.1110  135.9010 C   0  0  2  0  0  3  0  0  0  0  0  0
  186.7340  177.2280  135.2460 C   0  0  0  0  0  1  0  0  0  0  0  0
  182.7880  177.0220  137.8280 C   0  0  1  0  0  3  0  0  0  0  0  0
  1 21  1  0  0  0  0
  1  6  1  0  0  0  0
  4 22  1  0  0  0  0
  5 24  1  0  0  0  0
  5 17  1  0  0  0  0
  6 23  1  0  0  0  0
  7  8  2  0  0  0  0
  8 14  1  0  0  0  0
  8  2  2  0  0  0  0
  9 18  1  6  0  0  0
  9 14  1  0  0  0  0
 10  8  1  1  0  0  0
 10 28  1  0  0  0  0
 12 25  1  0  0  0  0
 13 26  1  0  0  0  0
 13  9  1  0  0  0  0
 15 23  1  0  0  0  0
 15 11  2  0  0  0  0
 16  1  2  0  0  0  0
 17  3  2  0  0  0  0
 17 25  1  0  0  0  0
 19 15  1  0  0  0  0
 20  4  2  0  0  0  0
 20 16  1  0  0  0  0
 22 21  2  0  0  0  0
 24 12  1  0  0  0  0
 25 19  1  0  0  0  0
 26 10  1  0  0  0  0
 26 24  1  0  0  0  0
 27  5  1  0  0  0  0
 28 12  1  0  0  0  0
 28 16  1  0  0  0  0
M  END
>  <MODEL>
3

>  <REMARK>
 VINA RESULT:      -5.3      1.678      2.315
  Name = 
  0 active torsions:
  status: ('A' for Active; 'I' for Inactive)
                            x       y       z     vdW  Elec       q    Type
                         _______ _______ _______ _____ _____    ______ ____

>  <TORSDO>
F 0

$$$$
=
 OpenBabel11122411543D

 28 32  0  0  1  0  0  0  0  0999 V2000
  182.4900  177.3280  138.1980 C   0  0  0  0  0  0  0  0  0  0  0  0
  182.5820  173.4500  136.8220 O   0  0  0  0  0  0  0  0  0  0  0  0
  187.5990  179.3560  137.0670 O   0  0  0  0  0  0  0  0  0  0  0  0
  181.3680  178.1000  135.7460 C   0  0  0  0  0  3  0  0  0  0  0  0
  187.3560  177.1960  136.1390 N   0  0  0  0  0  0  0  0  0  0  0  0
  183.0820  176.9630  139.5270 C   0  0  0  0  0  2  0  0  0  0  0  0
  183.4470  172.9250  134.5940 O   0  0  0  0  0  0  0  0  0  0  0  0
  183.7980  173.4930  135.9390 S   0  0  0  0  0  0  0  0  0  0  0  0
  186.3780  173.3020  136.6540 C   0  0  1  0  0  3  0  0  0  0  0  0
  184.3450  175.1380  135.7370 N   0  0  2  0  0  0  0  0  0  0  0  0
  185.2650  179.7560  140.4990 O   0  0  0  0  0  0  0  0  0  0  0  0
  185.4690  176.5720  137.2330 C   0  0  1  0  0  3  0  0  0  0  0  0
  186.5320  173.9900  135.3740 N   0  0  0  0  0  2  0  0  0  0  0  0
  185.0890  172.5070  136.6600 C   0  0  0  0  0  2  0  0  0  0  0  0
  184.9500  178.6420  140.0050 C   0  0  0  0  0  0  0  0  0  0  0  0
  183.0110  176.8100  136.9930 C   0  0  0  0  0  0  0  0  0  0  0  0
  186.9800  178.2590  137.0050 C   0  0  0  0  0  0  0  0  0  0  0  0
  187.5480  172.3670  136.8730 C   0  0  0  0  0  1  0  0  0  0  0  0
  185.9870  177.8680  139.2540 C   0  0  0  0  0  2  0  0  0  0  0  0
  182.4490  177.2180  135.7720 C   0  0  0  0  0  3  0  0  0  0  0  0
  181.3990  178.2060  138.1620 C   0  0  0  0  0  3  0  0  0  0  0  0
  180.8400  178.5900  136.9420 C   0  0  0  0  0  3  0  0  0  0  0  0
  183.6190  178.1470  140.1880 N   0  0  0  0  0  2  0  0  0  0  0  0
  186.3530  176.2180  136.3500 C   0  0  1  0  0  3  0  0  0  0  0  0
  185.7250  177.9510  137.7620 C   0  0  2  0  0  3  0  0  0  0  0  0
  185.7860  175.2600  135.3710 C   0  0  2  0  0  3  0  0  0  0  0  0
  188.1560  177.3380  134.9350 C   0  0  0  0  0  1  0  0  0  0  0  0
  184.1860  175.8610  137.0150 C   0  0  1  0  0  3  0  0  0  0  0  0
  1  6  1  0  0  0  0
  4 20  2  0  0  0  0
  4 22  1  0  0  0  0
  5 24  1  0  0  0  0
  5 17  1  0  0  0  0
  6 23  1  0  0  0  0
  7  8  2  0  0  0  0
  8 14  1  0  0  0  0
  8  2  2  0  0  0  0
  9 14  1  0  0  0  0
  9 18  1  6  0  0  0
 10  8  1  1  0  0  0
 10 28  1  0  0  0  0
 12 25  1  0  0  0  0
 13  9  1  0  0  0  0
 15 23  1  0  0  0  0
 15 11  2  0  0  0  0
 16 28  1  0  0  0  0
 16  1  2  0  0  0  0
 17  3  2  0  0  0  0
 17 25  1  0  0  0  0
 19 15  1  0  0  0  0
 20 16  1  0  0  0  0
 21  1  1  0  0  0  0
 22 21  2  0  0  0  0
 24 12  1  0  0  0  0
 25 19  1  0  0  0  0
 26 13  1  0  0  0  0
 26 10  1  0  0  0  0
 26 24  1  0  0  0  0
 27  5  1  0  0  0  0
 28 12  1  0  0  0  0
M  END
>  <MODEL>
4

>  <REMARK>
 VINA RESULT:      -5.2      2.756      3.955
  Name = 
  0 active torsions:
  status: ('A' for Active; 'I' for Inactive)
                            x       y       z     vdW  Elec       q    Type
                         _______ _______ _______ _____ _____    ______ ____

>  <TORSDO>
F 0

$$$$
=
 OpenBabel11122411543D

 28 32  0  0  1  0  0  0  0  0999 V2000
  184.9890  176.9770  137.4860 C   0  0  0  0  0  0  0  0  0  0  0  0
  181.9300  178.6280  135.2810 O   0  0  0  0  0  0  0  0  0  0  0  0
  183.7460  178.2500  142.8080 O   0  0  0  0  0  0  0  0  0  0  0  0
  183.5910  174.5460  137.4790 C   0  0  0  0  0  3  0  0  0  0  0  0
  181.9810  178.9060  141.3810 N   0  0  0  0  0  0  0  0  0  0  0  0
  185.7760  178.2540  137.5110 C   0  0  0  0  0  2  0  0  0  0  0  0
  179.5920  178.2890  135.9200 O   0  0  0  0  0  0  0  0  0  0  0  0
  180.9070  178.8710  136.3550 S   0  0  0  0  0  0  0  0  0  0  0  0
  180.7670  180.9190  138.0850 C   0  0  1  0  0  3  0  0  0  0  0  0
  181.3990  178.1090  137.8470 N   0  0  2  0  0  0  0  0  0  0  0  0
  187.3990  178.4120  140.8050 O   0  0  0  0  0  0  0  0  0  0  0  0
  183.0670  178.7180  139.3980 C   0  0  1  0  0  3  0  0  0  0  0  0
  179.9890  179.9250  138.8230 N   0  0  0  0  0  2  0  0  0  0  0  0
  180.7090  180.6190  136.6010 C   0  0  0  0  0  2  0  0  0  0  0  0
  186.5230  178.6280  139.9280 C   0  0  0  0  0  0  0  0  0  0  0  0
  183.5970  176.9670  137.7230 C   0  0  0  0  0  0  0  0  0  0  0  0
  183.3170  178.5000  141.6500 C   0  0  0  0  0  0  0  0  0  0  0  0
  180.2030  182.2990  138.3430 C   0  0  0  0  0  1  0  0  0  0  0  0
  185.2590  179.3200  140.3270 C   0  0  0  0  0  2  0  0  0  0  0  0
  182.9130  175.7400  137.7320 C   0  0  0  0  0  3  0  0  0  0  0  0
  185.6570  175.7750  137.2250 C   0  0  0  0  0  3  0  0  0  0  0  0
  184.9620  174.5650  137.2210 C   0  0  0  0  0  3  0  0  0  0  0  0
  186.7700  178.2180  138.5790 N   0  0  0  0  0  2  0  0  0  0  0  0
  181.9340  178.9980  139.9680 C   0  0  1  0  0  3  0  0  0  0  0  0
  184.1150  178.3260  140.3950 C   0  0  2  0  0  3  0  0  0  0  0  0
  180.7910  178.7130  139.0680 C   0  0  2  0  0  3  0  0  0  0  0  0
  180.8400  178.6690  142.2500 C   0  0  0  0  0  1  0  0  0  0  0  0
  182.8600  178.2550  138.0040 C   0  0  1  0  0  3  0  0  0  0  0  0
  1  6  1  0  0  0  0
  1 16  1  0  0  0  0
  2  8  2  0  0  0  0
  4 20  1  0  0  0  0
  5 17  1  0  0  0  0
  5 27  1  0  0  0  0
  6 23  1  0  0  0  0
  7  8  2  0  0  0  0
  8 14  1  0  0  0  0
  9 18  1  6  0  0  0
  9 13  1  0  0  0  0
 10  8  1  6  0  0  0
 10 28  1  0  0  0  0
 10 26  1  0  0  0  0
 12 24  1  0  0  0  0
 12 25  1  0  0  0  0
 13 26  1  0  0  0  0
 14  9  1  0  0  0  0
 15 19  1  0  0  0  0
 15 11  2  0  0  0  0
 16 20  2  0  0  0  0
 16 28  1  0  0  0  0
 17  3  2  0  0  0  0
 19 25  1  0  0  0  0
 21  1  2  0  0  0  0
 22 21  1  0  0  0  0
 22  4  2  0  0  0  0
 23 15  1  0  0  0  0
 24  5  1  0  0  0  0
 25 17  1  0  0  0  0
 26 24  1  0  0  0  0
 28 12  1  0  0  0  0
M  END
>  <MODEL>
5

>  <REMARK>
 VINA RESULT:      -5.2      1.509      5.220
  Name = 
  0 active torsions:
  status: ('A' for Active; 'I' for Inactive)
                            x       y       z     vdW  Elec       q    Type
                         _______ _______ _______ _____ _____    ______ ____

>  <TORSDO>
F 0

$$$$
=
 OpenBabel11122411543D

 28 32  0  0  1  0  0  0  0  0999 V2000
  189.1850  178.2370  139.3150 C   0  0  0  0  0  0  0  0  0  0  0  0
  193.2580  177.8010  138.9100 O   0  0  0  0  0  0  0  0  0  0  0  0
  187.0040  173.9970  136.3570 O   0  0  0  0  0  0  0  0  0  0  0  0
  189.3390  176.8070  141.7230 C   0  0  0  0  0  3  0  0  0  0  0  0
  189.3570  173.7970  136.4530 N   0  0  0  0  0  0  0  0  0  0  0  0
  189.0530  179.0130  138.0370 C   0  0  0  0  0  2  0  0  0  0  0  0
  194.3310  175.6270  139.2480 O   0  0  0  0  0  0  0  0  0  0  0  0
  193.3420  176.3860  138.4100 S   0  0  0  0  0  0  0  0  0  0  0  0
  192.9950  175.4850  135.9050 C   0  0  1  0  0  3  0  0  0  0  0  0
  191.7840  175.6070  138.5260 N   0  0  2  0  0  0  0  0  0  0  0  0
  185.8570  178.0020  136.5310 O   0  0  0  0  0  0  0  0  0  0  0  0
  189.8370  175.8760  137.2230 C   0  0  1  0  0  3  0  0  0  0  0  0
  192.7180  174.2550  136.6450 N   0  0  0  0  0  2  0  0  0  0  0  0
  193.8980  176.3850  136.7220 C   0  0  0  0  0  2  0  0  0  0  0  0
  187.0970  177.9960  136.7410 C   0  0  0  0  0  0  0  0  0  0  0  0
  189.9810  177.0730  139.3910 C   0  0  0  0  0  0  0  0  0  0  0  0
  188.1320  174.5090  136.5880 C   0  0  0  0  0  0  0  0  0  0  0  0
  193.6710  175.1480  134.5940 C   0  0  0  0  0  1  0  0  0  0  0  0
  187.9340  176.9390  136.0930 C   0  0  0  0  0  2  0  0  0  0  0  0
  190.0360  176.3590  140.5990 C   0  0  0  0  0  3  0  0  0  0  0  0
  188.4970  178.6830  140.4510 C   0  0  0  0  0  3  0  0  0  0  0  0
  188.5740  177.9720  141.6490 C   0  0  0  0  0  3  0  0  0  0  0  0
  187.6680  179.0070  137.5790 N   0  0  0  0  0  2  0  0  0  0  0  0
  190.3360  174.7260  136.8820 C   0  0  1  0  0  3  0  0  0  0  0  0
  188.3430  175.8940  137.1140 C   0  0  2  0  0  3  0  0  0  0  0  0
  191.6080  174.4560  137.5940 C   0  0  2  0  0  3  0  0  0  0  0  0
  189.4940  172.3510  136.4840 C   0  0  0  0  0  1  0  0  0  0  0  0
  190.7300  176.5800  138.1760 C   0  0  1  0  0  3  0  0  0  0  0  0
  1 16  2  0  0  0  0
  1 21  1  0  0  0  0
  3 17  2  0  0  0  0
  5 27  1  0  0  0  0
  5 17  1  0  0  0  0
  5 24  1  0  0  0  0
  6  1  1  0  0  0  0
  8  2  2  0  0  0  0
  8  7  2  0  0  0  0
  9 18  1  6  0  0  0
  9 13  1  0  0  0  0
  9 14  1  0  0  0  0
 10  8  1  6  0  0  0
 11 15  2  0  0  0  0
 12 28  1  0  0  0  0
 13 26  1  0  0  0  0
 14  8  1  0  0  0  0
 15 23  1  0  0  0  0
 16 20  1  0  0  0  0
 17 25  1  0  0  0  0
 19 15  1  0  0  0  0
 19 25  1  0  0  0  0
 20  4  2  0  0  0  0
 21 22  2  0  0  0  0
 22  4  1  0  0  0  0
 23  6  1  0  0  0  0
 24 12  1  0  0  0  0
 24 26  1  0  0  0  0
 25 12  1  0  0  0  0
 26 10  1  0  0  0  0
 28 10  1  0  0  0  0
 28 16  1  0  0  0  0
M  END
>  <MODEL>
6

>  <REMARK>
 VINA RESULT:      -5.2      6.365      9.362
  Name = 
  0 active torsions:
  status: ('A' for Active; 'I' for Inactive)
                            x       y       z     vdW  Elec       q    Type
                         _______ _______ _______ _____ _____    ______ ____

>  <TORSDO>
F 0

$$$$
=
 OpenBabel11122411543D

 28 32  0  0  1  0  0  0  0  0999 V2000
  186.6940  175.7290  136.6050 C   0  0  0  0  0  0  0  0  0  0  0  0
  185.9520  178.6270  139.4310 O   0  0  0  0  0  0  0  0  0  0  0  0
  181.6110  174.1040  134.8700 O   0  0  0  0  0  0  0  0  0  0  0  0
  186.9720  177.7610  134.6920 C   0  0  0  0  0  3  0  0  0  0  0  0
  181.4200  175.9460  136.3380 N   0  0  0  0  0  0  0  0  0  0  0  0
  186.5620  174.6080  137.5930 C   0  0  0  0  0  2  0  0  0  0  0  0
  184.3670  180.4400  138.9890 O   0  0  0  0  0  0  0  0  0  0  0  0
  184.5140  178.9520  139.1320 S   0  0  0  0  0  0  0  0  0  0  0  0
  182.3140  177.6260  139.9110 C   0  0  1  0  0  3  0  0  0  0  0  0
  184.0160  178.1870  137.6440 N   0  0  2  0  0  0  0  0  0  0  0  0
  184.9730  171.8210  135.8000 O   0  0  0  0  0  0  0  0  0  0  0  0
  183.5300  175.9280  137.1730 C   0  0  1  0  0  3  0  0  0  0  0  0
  181.7770  178.3210  138.7420 N   0  0  0  0  0  2  0  0  0  0  0  0
  183.4890  178.3980  140.4730 C   0  0  0  0  0  2  0  0  0  0  0  0
  185.0480  172.8430  136.5290 C   0  0  0  0  0  0  0  0  0  0  0  0
  185.7750  176.8000  136.5800 C   0  0  0  0  0  0  0  0  0  0  0  0
  182.1180  174.8580  135.7440 C   0  0  0  0  0  0  0  0  0  0  0  0
  181.2380  177.5040  140.9680 C   0  0  0  0  0  1  0  0  0  0  0  0
  183.7820  173.4920  136.9920 C   0  0  0  0  0  2  0  0  0  0  0  0
  185.9180  177.8020  135.6060 C   0  0  0  0  0  3  0  0  0  0  0  0
  187.7540  175.7010  135.6890 C   0  0  0  0  0  3  0  0  0  0  0  0
  187.8930  176.7130  134.7370 C   0  0  0  0  0  3  0  0  0  0  0  0
  186.3370  173.3440  136.9020 N   0  0  0  0  0  2  0  0  0  0  0  0
  182.3850  176.5420  137.1870 C   0  0  1  0  0  3  0  0  0  0  0  0
  183.5350  174.7730  136.2180 C   0  0  2  0  0  3  0  0  0  0  0  0
  182.5440  177.9750  137.5320 C   0  0  2  0  0  3  0  0  0  0  0  0
  180.2720  176.6230  135.7590 C   0  0  0  0  0  1  0  0  0  0  0  0
  184.6290  176.8460  137.5610 C   0  0  1  0  0  3  0  0  0  0  0  0
  1  6  1  0  0  0  0
  3 17  2  0  0  0  0
  4 22  2  0  0  0  0
  4 20  1  0  0  0  0
  5 24  1  0  0  0  0
  7  8  2  0  0  0  0
  8  2  2  0  0  0  0
  8 14  1  0  0  0  0
  9 14  1  0  0  0  0
  9 18  1  1  0  0  0
 10  8  1  1  0  0  0
 11 15  2  0  0  0  0
 12 24  1  0  0  0  0
 12 28  1  0  0  0  0
 13  9  1  0  0  0  0
 15 23  1  0  0  0  0
 15 19  1  0  0  0  0
 16  1  1  0  0  0  0
 16 28  1  0  0  0  0
 17 25  1  0  0  0  0
 17  5  1  0  0  0  0
 20 16  2  0  0  0  0
 21  1  2  0  0  0  0
 22 21  1  0  0  0  0
 23  6  1  0  0  0  0
 24 26  1  0  0  0  0
 25 19  1  0  0  0  0
 25 12  1  0  0  0  0
 26 10  1  0  0  0  0
 26 13  1  0  0  0  0
 27  5  1  0  0  0  0
 28 10  1  0  0  0  0
M  END
>  <MODEL>
7

>  <REMARK>
 VINA RESULT:      -4.7      2.726      6.894
  Name = 
  0 active torsions:
  status: ('A' for Active; 'I' for Inactive)
                            x       y       z     vdW  Elec       q    Type
                         _______ _______ _______ _____ _____    ______ ____

>  <TORSDO>
F 0

$$$$
=
 OpenBabel11122411543D

 28 32  0  0  1  0  0  0  0  0999 V2000
  185.7790  175.6010  136.5410 C   0  0  0  0  0  0  0  0  0  0  0  0
  182.0590  175.8980  134.8040 O   0  0  0  0  0  0  0  0  0  0  0  0
  185.5780  179.0930  140.9280 O   0  0  0  0  0  0  0  0  0  0  0  0
  184.8620  173.3630  137.9620 C   0  0  0  0  0  3  0  0  0  0  0  0
  183.4480  178.9310  139.9190 N   0  0  0  0  0  0  0  0  0  0  0  0
  186.3160  176.7880  135.7980 C   0  0  0  0  0  2  0  0  0  0  0  0
  180.0230  175.7640  136.1570 O   0  0  0  0  0  0  0  0  0  0  0  0
  181.2810  176.5490  135.9140 S   0  0  0  0  0  0  0  0  0  0  0  0
  181.1830  179.1500  136.5710 C   0  0  1  0  0  3  0  0  0  0  0  0
  182.2240  176.5790  137.3820 N   0  0  2  0  0  0  0  0  0  0  0  0
  188.5930  178.5170  138.1070 O   0  0  0  0  0  0  0  0  0  0  0  0
  184.0700  177.9170  137.9870 C   0  0  1  0  0  3  0  0  0  0  0  0
  180.7800  178.5620  137.8470 N   0  0  0  0  0  2  0  0  0  0  0  0
  180.8420  178.2040  135.4380 C   0  0  0  0  0  2  0  0  0  0  0  0
  187.5170  178.2630  137.5070 C   0  0  0  0  0  0  0  0  0  0  0  0
  184.5010  175.6250  137.1410 C   0  0  0  0  0  0  0  0  0  0  0  0
  184.8600  178.7640  139.9460 C   0  0  0  0  0  0  0  0  0  0  0  0
  180.4620  180.4640  136.3650 C   0  0  0  0  0  1  0  0  0  0  0  0
  186.2760  178.9920  137.9130 C   0  0  0  0  0  2  0  0  0  0  0  0
  184.0620  174.5030  137.8630 C   0  0  0  0  0  3  0  0  0  0  0  0
  186.5700  174.4490  136.6390 C   0  0  0  0  0  3  0  0  0  0  0  0
  186.1130  173.3350  137.3450 C   0  0  0  0  0  3  0  0  0  0  0  0
  187.5170  177.2960  136.4510 N   0  0  0  0  0  2  0  0  0  0  0  0
  183.0650  178.3650  138.6780 C   0  0  1  0  0  3  0  0  0  0  0  0
  185.3690  178.0800  138.7160 C   0  0  2  0  0  3  0  0  0  0  0  0
  181.8150  177.6400  138.3470 C   0  0  2  0  0  3  0  0  0  0  0  0
  182.5950  179.0560  141.0880 C   0  0  0  0  0  1  0  0  0  0  0  0
  183.6350  176.8580  137.0430 C   0  0  1  0  0  3  0  0  0  0  0  0
  1 21  2  0  0  0  0
  1 16  1  0  0  0  0
  2  8  2  0  0  0  0
  5 17  1  0  0  0  0
  5 27  1  0  0  0  0
  6 23  1  0  0  0  0
  6  1  1  0  0  0  0
  8  7  2  0  0  0  0
  9 18  1  6  0  0  0
  9 13  1  0  0  0  0
 10  8  1  6  0  0  0
 10 26  1  0  0  0  0
 12 24  1  0  0  0  0
 12 25  1  0  0  0  0
 13 26  1  0  0  0  0
 14  8  1  0  0  0  0
 14  9  1  0  0  0  0
 15 19  1  0  0  0  0
 15 11  2  0  0  0  0
 16 20  2  0  0  0  0
 17  3  2  0  0  0  0
 19 25  1  0  0  0  0
 20  4  1  0  0  0  0
 21 22  1  0  0  0  0
 22  4  2  0  0  0  0
 23 15  1  0  0  0  0
 24  5  1  0  0  0  0
 25 17  1  0  0  0  0
 26 24  1  0  0  0  0
 28 16  1  0  0  0  0
 28 10  1  0  0  0  0
 28 12  1  0  0  0  0
M  END
>  <MODEL>
8

>  <REMARK>
 VINA RESULT:      -4.7      2.002      5.707
  Name = 
  0 active torsions:
  status: ('A' for Active; 'I' for Inactive)
                            x       y       z     vdW  Elec       q    Type
                         _______ _______ _______ _____ _____    ______ ____

>  <TORSDO>
F 0

$$$$
=
 OpenBabel11122411543D

 28 32  0  0  1  0  0  0  0  0999 V2000
  186.5090  175.8390  136.5530 C   0  0  0  0  0  0  0  0  0  0  0  0
  188.4660  177.1010  139.9460 O   0  0  0  0  0  0  0  0  0  0  0  0
  181.4490  178.2470  136.8560 O   0  0  0  0  0  0  0  0  0  0  0  0
  187.7070  177.9550  135.1560 C   0  0  0  0  0  3  0  0  0  0  0  0
  182.8320  179.0340  138.6040 N   0  0  0  0  0  0  0  0  0  0  0  0
  185.8490  174.6890  137.2560 C   0  0  0  0  0  2  0  0  0  0  0  0
  188.4670  179.4620  140.5950 O   0  0  0  0  0  0  0  0  0  0  0  0
  187.5990  178.2590  140.3590 S   0  0  0  0  0  0  0  0  0  0  0  0
  185.2840  178.2000  141.7150 C   0  0  1  0  0  3  0  0  0  0  0  0
  186.4440  178.6300  139.1040 N   0  0  2  0  0  0  0  0  0  0  0  0
  182.4960  174.3560  135.7880 O   0  0  0  0  0  0  0  0  0  0  0  0
  184.4880  177.4930  138.4400 C   0  0  1  0  0  3  0  0  0  0  0  0
  185.1430  179.4950  141.0520 N   0  0  0  0  0  2  0  0  0  0  0  0
  186.7510  177.8560  141.8670 C   0  0  0  0  0  2  0  0  0  0  0  0
  183.3770  174.7300  136.6050 C   0  0  0  0  0  0  0  0  0  0  0  0
  186.5660  177.1230  137.1370 C   0  0  0  0  0  0  0  0  0  0  0  0
  182.4850  178.1280  137.5640 C   0  0  0  0  0  0  0  0  0  0  0  0
  184.6340  178.2550  143.0800 C   0  0  0  0  0  1  0  0  0  0  0  0
  182.9960  175.6950  137.6830 C   0  0  0  0  0  2  0  0  0  0  0  0
  187.1560  178.1770  136.4190 C   0  0  0  0  0  3  0  0  0  0  0  0
  187.0720  175.6260  135.2890 C   0  0  0  0  0  3  0  0  0  0  0  0
  187.6700  176.6780  134.5940 C   0  0  0  0  0  3  0  0  0  0  0  0
  184.7060  174.2110  136.4870 N   0  0  0  0  0  2  0  0  0  0  0  0
  184.0840  178.5590  139.0630 C   0  0  1  0  0  3  0  0  0  0  0  0
  183.5330  177.0770  137.3630 C   0  0  2  0  0  3  0  0  0  0  0  0
  185.2270  179.3440  139.5880 C   0  0  2  0  0  3  0  0  0  0  0  0
  182.3550  180.4020  138.7180 C   0  0  0  0  0  1  0  0  0  0  0  0
  185.9650  177.3700  138.5000 C   0  0  1  0  0  3  0  0  0  0  0  0
  1 16  1  0  0  0  0
  1  6  1  0  0  0  0
  2  8  2  0  0  0  0
  3 17  2  0  0  0  0
  4 20  1  0  0  0  0
  5 27  1  0  0  0  0
  5 24  1  0  0  0  0
  8  7  2  0  0  0  0
  8 14  1  0  0  0  0
  9 14  1  0  0  0  0
  9 18  1  1  0  0  0
 10 26  1  0  0  0  0
 10  8  1  1  0  0  0
 11 15  2  0  0  0  0
 12 28  1  0  0  0  0
 12 24  1  0  0  0  0
 13  9  1  0  0  0  0
 15 19  1  0  0  0  0
 16 28  1  0  0  0  0
 17  5  1  0  0  0  0
 20 16  2  0  0  0  0
 21  1  2  0  0  0  0
 22  4  2  0  0  0  0
 22 21  1  0  0  0  0
 23 15  1  0  0  0  0
 23  6  1  0  0  0  0
 24 26  1  0  0  0  0
 25 17  1  0  0  0  0
 25 19  1  0  0  0  0
 25 12  1  0  0  0  0
 26 13  1  0  0  0  0
 28 10  1  0  0  0  0
M  END
>  <MODEL>
9

>  <REMARK>
 VINA RESULT:      -4.6      2.771      6.860
  Name = 
  0 active torsions:
  status: ('A' for Active; 'I' for Inactive)
                            x       y       z     vdW  Elec       q    Type
                         _______ _______ _______ _____ _____    ______ ____

>  <TORSDO>
F 0

$$$$
