=
 OpenBabel11122412263D

 34 40  0  0  1  0  0  0  0  0999 V2000
  189.2300  177.7080  140.3810 C   0  0  1  0  0  3  0  0  0  0  0  0
  191.0830  176.7890  139.1010 C   0  0  0  0  0  2  0  0  0  0  0  0
  182.7790  178.2700  140.8110 C   0  0  1  0  0  3  0  0  0  0  0  0
  187.2010  178.5120  141.6220 C   0  0  2  0  0  3  0  0  0  0  0  0
  185.1880  179.1930  140.2580 C   0  0  2  0  0  3  0  0  0  0  0  0
  183.1630  179.8180  138.8080 C   0  0  0  0  0  1  0  0  0  0  0  0
  182.8220  176.9840  140.0000 C   0  0  0  0  0  1  0  0  0  0  0  0
  183.5760  179.1580  142.9280 C   0  0  0  0  0  2  0  0  0  0  0  0
  189.2780  177.6610  138.0580 C   0  0  2  0  0  3  0  0  0  0  0  0
  188.1000  176.3920  135.3970 C   0  0  0  0  0  2  0  0  0  0  0  0
  185.7570  178.3630  139.1060 C   0  0  0  0  0  2  0  0  0  0  0  0
  185.1030  179.2870  142.8240 C   0  0  0  0  0  2  0  0  0  0  0  0
  187.7480  177.7550  137.9310 C   0  0  1  0  0  3  0  0  0  0  0  0
  191.3440  176.5770  137.6100 C   0  0  0  0  0  2  0  0  0  0  0  0
  185.6750  178.5870  141.5850 C   0  0  2  0  0  3  0  0  0  0  0  0
  183.0970  177.9700  142.2170 N   0  0  0  0  0  2  0  0  0  0  0  0
  189.3650  175.9460  136.1520 C   0  0  1  0  0  3  0  0  0  0  0  0
  187.6950  177.7890  140.3530 C   0  0  1  0  0  3  0  0  0  0  0  0
  183.6590  179.3740  140.1760 C   0  0  1  0  0  3  0  0  0  0  0  0
  187.2190  178.4550  139.1200 N   0  0  2  0  0  0  0  0  0  0  0  0
  189.0140  177.8790  142.8430 C   0  0  0  0  0  2  0  0  0  0  0  0
  187.9090  177.9100  135.3450 C   0  0  0  0  0  2  0  0  0  0  0  0
  187.6100  177.7820  142.7580 O   0  0  0  0  0  0  0  0  0  0  0  0
  187.3310  178.4900  136.6430 C   0  0  0  0  0  2  0  0  0  0  0  0
  190.0880  177.0780  136.9120 C   0  0  1  0  0  3  0  0  0  0  0  0
  189.6670  177.0880  141.7080 C   0  0  0  0  0  2  0  0  0  0  0  0
  189.6390  176.9000  139.2380 N   0  0  2  0  0  0  0  0  0  0  0  0
  189.0450  174.8830  137.0060 O   0  0  0  0  0  0  0  0  0  0  0  0
  187.7960  174.5760  136.7150 O   0  0  0  0  0  0  0  0  0  0  0  0
  185.8800  171.9550  136.3060 O   0  0  0  0  0  0  0  0  0  0  0  0
  188.0260  172.3710  135.9030 C   0  0  0  0  0  3  0  0  0  0  0  0
  187.6670  173.2300  137.0690 C   0  0  2  0  0  3  0  0  0  0  0  0
  186.9760  171.6740  135.5140 C   0  0  0  0  0  3  0  0  0  0  0  0
  186.1950  172.9040  137.3080 C   0  0  0  0  0  2  0  0  0  0  0  0
  1 26  1  1  0  0  0
  2 27  1  0  0  0  0
  3  7  1  6  0  0  0
  3 16  1  0  0  0  0
  4 23  1  1  0  0  0
  5 11  1  6  0  0  0
  5 15  1  0  0  0  0
  6 19  1  0  0  0  0
  9 27  1  0  0  0  0
 10 17  1  0  0  0  0
 11 20  1  0  0  0  0
 12  8  1  0  0  0  0
 13  9  1  0  0  0  0
 13 20  1  0  0  0  0
 14  2  1  0  0  0  0
 15  4  1  0  0  0  0
 15 12  1  0  0  0  0
 16  8  1  0  0  0  0
 17 25  1  0  0  0  0
 17 28  1  0  0  0  0
 18  1  1  0  0  0  0
 18  4  1  0  0  0  0
 19  5  1  0  0  0  0
 19  3  1  0  0  0  0
 20 18  1  0  0  0  0
 22 10  1  0  0  0  0
 22 24  1  0  0  0  0
 23 21  1  0  0  0  0
 24 13  1  0  0  0  0
 25 14  1  0  0  0  0
 25  9  1  0  0  0  0
 26 21  1  0  0  0  0
 27  1  1  0  0  0  0
 29 28  1  0  0  0  0
 29 32  1  0  0  0  0
 30 34  1  0  0  0  0
 31 32  1  0  0  0  0
 32 34  1  0  0  0  0
 33 31  2  0  0  0  0
 33 30  1  0  0  0  0
M  END
>  <MODEL>
1

>  <REMARK>
 VINA RESULT:      -7.4      0.000      0.000
  Name = 
  3 active torsions:
  status: ('A' for Active; 'I' for Inactive)
    1  A    between atoms: C_17  and  O_28
    2  A    between atoms: O_28  and  O_29
    3  A    between atoms: O_29  and  C_32
                            x       y       z     vdW  Elec       q    Type
                         _______ _______ _______ _____ _____    ______ ____

>  <TORSDO>
F 3

$$$$
=
 OpenBabel11122412263D

 34 40  0  0  1  0  0  0  0  0999 V2000
  178.9950  178.8150  137.7410 C   0  0  1  0  0  3  0  0  0  0  0  0
  179.1450  176.8720  139.1970 C   0  0  0  0  0  2  0  0  0  0  0  0
  180.8730  184.9550  136.7970 C   0  0  1  0  0  3  0  0  0  0  0  0
  179.0160  180.8810  136.3160 C   0  0  2  0  0  3  0  0  0  0  0  0
  179.1150  183.1140  137.4920 C   0  0  2  0  0  3  0  0  0  0  0  0
  179.2700  185.3440  138.7550 C   0  0  0  0  0  1  0  0  0  0  0  0
  182.0410  184.5110  137.6630 C   0  0  0  0  0  1  0  0  0  0  0  0
  179.7770  184.3610  134.7110 C   0  0  0  0  0  2  0  0  0  0  0  0
  178.9930  178.9550  140.0610 C   0  0  2  0  0  3  0  0  0  0  0  0
  180.5780  179.8070  142.6760 C   0  0  0  0  0  2  0  0  0  0  0  0
  179.6610  182.3810  138.7190 C   0  0  0  0  0  2  0  0  0  0  0  0
  179.0890  183.0050  134.9250 C   0  0  0  0  0  2  0  0  0  0  0  0
  179.4730  180.4160  140.0660 C   0  0  1  0  0  3  0  0  0  0  0  0
  179.2270  176.6810  140.7100 C   0  0  0  0  0  2  0  0  0  0  0  0
  179.5130  182.3250  136.2330 C   0  0  2  0  0  3  0  0  0  0  0  0
  181.0500  184.4280  135.4330 N   0  0  0  0  0  2  0  0  0  0  0  0
  180.5320  178.4060  142.0400 C   0  0  1  0  0  3  0  0  0  0  0  0
  179.4890  180.2680  137.6480 C   0  0  1  0  0  3  0  0  0  0  0  0
  179.5140  184.6030  137.4490 C   0  0  1  0  0  3  0  0  0  0  0  0
  179.0330  181.0610  138.8120 N   0  0  2  0  0  0  0  0  0  0  0  0
  178.9440  178.8650  135.2640 C   0  0  0  0  0  2  0  0  0  0  0  0
  179.2400  180.5480  142.6490 C   0  0  0  0  0  2  0  0  0  0  0  0
  179.5550  180.1350  135.2460 O   0  0  0  0  0  0  0  0  0  0  0  0
  178.9300  181.1850  141.2860 C   0  0  0  0  0  2  0  0  0  0  0  0
  179.2210  178.0890  141.2880 C   0  0  1  0  0  3  0  0  0  0  0  0
  179.4230  178.0660  136.4790 C   0  0  0  0  0  2  0  0  0  0  0  0
  179.5800  178.2370  138.9450 N   0  0  2  0  0  0  0  0  0  0  0  0
  181.6470  178.2360  141.2100 O   0  0  0  0  0  0  0  0  0  0  0  0
  182.6660  178.6910  141.9120 O   0  0  0  0  0  0  0  0  0  0  0  0
  185.4780  179.5940  140.5010 O   0  0  0  0  0  0  0  0  0  0  0  0
  184.9680  178.2480  142.1950 C   0  0  0  0  0  3  0  0  0  0  0  0
  183.7990  178.1830  141.2700 C   0  0  2  0  0  3  0  0  0  0  0  0
  185.8840  179.0610  141.7090 C   0  0  0  0  0  3  0  0  0  0  0  0
  184.1990  179.1130  140.1280 C   0  0  0  0  0  2  0  0  0  0  0  0
  1 26  1  6  0  0  0
  1 27  1  0  0  0  0
  2 14  1  0  0  0  0
  3 19  1  0  0  0  0
  3  7  1  1  0  0  0
  4 23  1  6  0  0  0
  4 18  1  0  0  0  0
  5 11  1  1  0  0  0
  8 12  1  0  0  0  0
  8 16  1  0  0  0  0
  9 13  1  0  0  0  0
  9 25  1  0  0  0  0
 11 20  1  0  0  0  0
 12 15  1  0  0  0  0
 13 24  1  0  0  0  0
 14 25  1  0  0  0  0
 15  4  1  0  0  0  0
 15  5  1  0  0  0  0
 16  3  1  0  0  0  0
 17 10  1  0  0  0  0
 18  1  1  0  0  0  0
 18 20  1  0  0  0  0
 19  5  1  0  0  0  0
 19  6  1  0  0  0  0
 20 13  1  0  0  0  0
 21 26  1  0  0  0  0
 22 10  1  0  0  0  0
 23 21  1  0  0  0  0
 24 22  1  0  0  0  0
 25 17  1  0  0  0  0
 27  2  1  0  0  0  0
 27  9  1  0  0  0  0
 28 29  1  0  0  0  0
 28 17  1  0  0  0  0
 30 33  1  0  0  0  0
 32 29  1  0  0  0  0
 32 31  1  0  0  0  0
 33 31  2  0  0  0  0
 34 30  1  0  0  0  0
 34 32  1  0  0  0  0
M  END
>  <MODEL>
2

>  <REMARK>
 VINA RESULT:      -6.8      5.549      9.765
  Name = 
  3 active torsions:
  status: ('A' for Active; 'I' for Inactive)
    1  A    between atoms: C_17  and  O_28
    2  A    between atoms: O_28  and  O_29
    3  A    between atoms: O_29  and  C_32
                            x       y       z     vdW  Elec       q    Type
                         _______ _______ _______ _____ _____    ______ ____

>  <TORSDO>
F 3

$$$$
=
 OpenBabel11122412263D

 34 40  0  0  1  0  0  0  0  0999 V2000
  189.4240  176.8050  136.9220 C   0  0  1  0  0  3  0  0  0  0  0  0
  188.0820  176.3640  134.9420 C   0  0  0  0  0  2  0  0  0  0  0  0
  189.5510  176.8150  143.4110 C   0  0  1  0  0  3  0  0  0  0  0  0
  190.6890  177.1330  139.0650 C   0  0  2  0  0  3  0  0  0  0  0  0
  189.4060  178.0050  141.0590 C   0  0  2  0  0  3  0  0  0  0  0  0
  188.0270  178.8420  143.0570 C   0  0  0  0  0  1  0  0  0  0  0  0
  188.4510  175.7830  143.2260 C   0  0  0  0  0  1  0  0  0  0  0  0
  191.8710  177.1890  142.7890 C   0  0  0  0  0  2  0  0  0  0  0  0
  187.1710  177.3510  136.7600 C   0  0  2  0  0  3  0  0  0  0  0  0
  184.2060  176.7230  137.7040 C   0  0  0  0  0  2  0  0  0  0  0  0
  188.1240  177.5320  140.3720 C   0  0  0  0  0  2  0  0  0  0  0  0
  191.9040  177.4400  141.2740 C   0  0  0  0  0  2  0  0  0  0  0  0
  186.9700  177.3730  138.2840 C   0  0  1  0  0  3  0  0  0  0  0  0
  186.6060  176.5540  134.5940 C   0  0  0  0  0  2  0  0  0  0  0  0
  190.5700  177.1150  140.5900 C   0  0  2  0  0  3  0  0  0  0  0  0
  190.8570  176.1900  143.1370 N   0  0  0  0  0  2  0  0  0  0  0  0
  184.9080  176.1840  136.4440 C   0  0  1  0  0  3  0  0  0  0  0  0
  189.3150  176.7900  138.4560 C   0  0  1  0  0  3  0  0  0  0  0  0
  189.2710  178.0990  142.5930 C   0  0  1  0  0  3  0  0  0  0  0  0
  188.2590  177.7130  138.9240 N   0  0  2  0  0  0  0  0  0  0  0  0
  191.8320  176.3330  137.2690 C   0  0  0  0  0  2  0  0  0  0  0  0
  184.5200  178.1880  138.0130 C   0  0  0  0  0  2  0  0  0  0  0  0
  191.6320  176.1680  138.6540 O   0  0  0  0  0  0  0  0  0  0  0  0
  185.8810  178.3820  138.6970 C   0  0  0  0  0  2  0  0  0  0  0  0
  185.9730  177.1320  135.8520 C   0  0  1  0  0  3  0  0  0  0  0  0
  190.5810  175.9000  136.5000 C   0  0  0  0  0  2  0  0  0  0  0  0
  188.1460  176.3410  136.3950 N   0  0  2  0  0  0  0  0  0  0  0  0
  185.4470  174.9200  136.7180 O   0  0  0  0  0  0  0  0  0  0  0  0
  184.5790  174.3470  137.5270 O   0  0  0  0  0  0  0  0  0  0  0  0
  184.5850  171.4280  136.0500 O   0  0  0  0  0  0  0  0  0  0  0  0
  186.1860  172.8030  136.7480 C   0  0  0  0  0  3  0  0  0  0  0  0
  185.0340  173.0330  137.6680 C   0  0  2  0  0  3  0  0  0  0  0  0
  185.8730  171.8870  135.8530 C   0  0  0  0  0  3  0  0  0  0  0  0
  183.9710  172.0670  137.1530 C   0  0  0  0  0  2  0  0  0  0  0  0
  1 26  1  1  0  0  0
  1 18  1  0  0  0  0
  2 27  1  0  0  0  0
  3  7  1  6  0  0  0
  4 23  1  1  0  0  0
  4 15  1  0  0  0  0
  5 11  1  6  0  0  0
  5 19  1  0  0  0  0
  8 16  1  0  0  0  0
  9 13  1  0  0  0  0
 10 22  1  0  0  0  0
 12  8  1  0  0  0  0
 13 24  1  0  0  0  0
 13 20  1  0  0  0  0
 14  2  1  0  0  0  0
 14 25  1  0  0  0  0
 15  5  1  0  0  0  0
 15 12  1  0  0  0  0
 16  3  1  0  0  0  0
 17 28  1  0  0  0  0
 17 10  1  0  0  0  0
 18 20  1  0  0  0  0
 18  4  1  0  0  0  0
 19  6  1  0  0  0  0
 19  3  1  0  0  0  0
 20 11  1  0  0  0  0
 21 23  1  0  0  0  0
 22 24  1  0  0  0  0
 25 17  1  0  0  0  0
 25  9  1  0  0  0  0
 26 21  1  0  0  0  0
 27  9  1  0  0  0  0
 27  1  1  0  0  0  0
 28 29  1  0  0  0  0
 29 32  1  0  0  0  0
 30 34  1  0  0  0  0
 31 32  1  0  0  0  0
 33 30  1  0  0  0  0
 33 31  2  0  0  0  0
 34 32  1  0  0  0  0
M  END
>  <MODEL>
3

>  <REMARK>
 VINA RESULT:      -6.5      2.356      4.779
  Name = 
  3 active torsions:
  status: ('A' for Active; 'I' for Inactive)
    1  A    between atoms: C_17  and  O_28
    2  A    between atoms: O_28  and  O_29
    3  A    between atoms: O_29  and  C_32
                            x       y       z     vdW  Elec       q    Type
                         _______ _______ _______ _____ _____    ______ ____

>  <TORSDO>
F 3

$$$$
=
 OpenBabel11122412263D

 34 40  0  0  1  0  0  0  0  0999 V2000
  180.3770  176.1440  139.5450 C   0  0  1  0  0  3  0  0  0  0  0  0
  180.1320  177.9280  141.1800 C   0  0  0  0  0  2  0  0  0  0  0  0
  184.5590  172.3300  136.3690 C   0  0  1  0  0  3  0  0  0  0  0  0
  180.8070  174.2590  137.9440 C   0  0  2  0  0  3  0  0  0  0  0  0
  182.8990  174.3750  136.5340 C   0  0  2  0  0  3  0  0  0  0  0  0
  185.0700  174.5350  135.1720 C   0  0  0  0  0  1  0  0  0  0  0  0
  185.4270  172.6280  137.5800 C   0  0  0  0  0  1  0  0  0  0  0  0
  182.3880  171.3800  135.8280 C   0  0  0  0  0  2  0  0  0  0  0  0
  181.8160  177.9650  139.6720 C   0  0  2  0  0  3  0  0  0  0  0  0
  184.7160  179.0180  140.4190 C   0  0  0  0  0  2  0  0  0  0  0  0
  183.4670  175.3610  137.5560 C   0  0  0  0  0  2  0  0  0  0  0  0
  181.3200  172.3570  136.3410 C   0  0  0  0  0  2  0  0  0  0  0  0
  182.9630  177.2270  138.9620 C   0  0  1  0  0  3  0  0  0  0  0  0
  180.9450  179.1760  141.5220 C   0  0  0  0  0  2  0  0  0  0  0  0
  181.9010  173.4480  137.2490 C   0  0  2  0  0  3  0  0  0  0  0  0
  183.5390  171.3320  136.7340 N   0  0  0  0  0  2  0  0  0  0  0  0
  183.4720  179.0190  141.3250 C   0  0  1  0  0  3  0  0  0  0  0  0
  181.4700  175.3230  138.8410 C   0  0  1  0  0  3  0  0  0  0  0  0
  183.9910  173.6270  135.7420 C   0  0  1  0  0  3  0  0  0  0  0  0
  182.3830  176.1990  138.0730 N   0  0  2  0  0  0  0  0  0  0  0  0
  178.9340  174.1540  139.2310 C   0  0  0  0  0  2  0  0  0  0  0  0
  184.4240  179.3730  138.9590 C   0  0  0  0  0  2  0  0  0  0  0  0
  180.0230  173.4030  138.7460 O   0  0  0  0  0  0  0  0  0  0  0  0
  183.8470  178.1990  138.1560 C   0  0  0  0  0  2  0  0  0  0  0  0
  182.1320  179.1500  140.5690 C   0  0  1  0  0  3  0  0  0  0  0  0
  179.4190  175.1860  140.2520 C   0  0  0  0  0  2  0  0  0  0  0  0
  181.0470  177.0380  140.4820 N   0  0  2  0  0  0  0  0  0  0  0  0
  183.4880  177.8790  142.1380 O   0  0  0  0  0  0  0  0  0  0  0  0
  184.6010  177.9750  142.8380 O   0  0  0  0  0  0  0  0  0  0  0  0
  183.8120  178.6300  145.9450 O   0  0  0  0  0  0  0  0  0  0  0  0
  185.5390  179.1610  144.6510 C   0  0  0  0  0  3  0  0  0  0  0  0
  184.3750  179.0300  143.7260 C   0  0  2  0  0  3  0  0  0  0  0  0
  185.1610  178.9220  145.8910 C   0  0  0  0  0  3  0  0  0  0  0  0
  183.2210  178.6730  144.6590 C   0  0  0  0  0  2  0  0  0  0  0  0
  1 26  1  1  0  0  0
  1 27  1  0  0  0  0
  2 14  1  0  0  0  0
  3 16  1  0  0  0  0
  3  7  1  1  0  0  0
  4 23  1  1  0  0  0
  4 18  1  0  0  0  0
  5 15  1  0  0  0  0
  5 11  1  1  0  0  0
  6 19  1  0  0  0  0
  8 12  1  0  0  0  0
  8 16  1  0  0  0  0
  9 27  1  0  0  0  0
  9 25  1  0  0  0  0
 10 17  1  0  0  0  0
 11 20  1  0  0  0  0
 12 15  1  0  0  0  0
 13  9  1  0  0  0  0
 15  4  1  0  0  0  0
 17 28  1  0  0  0  0
 18  1  1  0  0  0  0
 19  3  1  0  0  0  0
 19  5  1  0  0  0  0
 20 18  1  0  0  0  0
 20 13  1  0  0  0  0
 21 26  1  0  0  0  0
 22 10  1  0  0  0  0
 23 21  1  0  0  0  0
 24 22  1  0  0  0  0
 24 13  1  0  0  0  0
 25 17  1  0  0  0  0
 25 14  1  0  0  0  0
 27  2  1  0  0  0  0
 28 29  1  0  0  0  0
 29 32  1  0  0  0  0
 31 33  2  0  0  0  0
 32 31  1  0  0  0  0
 32 34  1  0  0  0  0
 33 30  1  0  0  0  0
 34 30  1  0  0  0  0
M  END
>  <MODEL>
4

>  <REMARK>
 VINA RESULT:      -6.4      4.309      8.669
  Name = 
  3 active torsions:
  status: ('A' for Active; 'I' for Inactive)
    1  A    between atoms: C_17  and  O_28
    2  A    between atoms: O_28  and  O_29
    3  A    between atoms: O_29  and  C_32
                            x       y       z     vdW  Elec       q    Type
                         _______ _______ _______ _____ _____    ______ ____

>  <TORSDO>
F 3

$$$$
=
 OpenBabel11122412263D

 34 40  0  0  1  0  0  0  0  0999 V2000
  189.7190  175.1730  136.9790 C   0  0  1  0  0  3  0  0  0  0  0  0
  188.4160  176.7260  138.3240 C   0  0  0  0  0  2  0  0  0  0  0  0
  194.9300  171.3090  136.8070 C   0  0  1  0  0  3  0  0  0  0  0  0
  191.1330  173.4930  135.7640 C   0  0  2  0  0  3  0  0  0  0  0  0
  193.6200  173.5190  136.2030 C   0  0  2  0  0  3  0  0  0  0  0  0
  196.1310  173.5700  136.7380 C   0  0  0  0  0  1  0  0  0  0  0  0
  194.7220  171.3100  138.3130 C   0  0  0  0  0  1  0  0  0  0  0  0
  193.7330  170.7520  134.7670 C   0  0  0  0  0  2  0  0  0  0  0  0
  190.6750  176.7440  138.4020 C   0  0  2  0  0  3  0  0  0  0  0  0
  192.2580  177.2720  141.1020 C   0  0  0  0  0  2  0  0  0  0  0  0
  193.3260  174.2630  137.5060 C   0  0  0  0  0  2  0  0  0  0  0  0
  192.6080  171.7840  134.6000 C   0  0  0  0  0  2  0  0  0  0  0  0
  191.9940  175.9630  138.5290 C   0  0  1  0  0  3  0  0  0  0  0  0
  188.7700  177.7890  139.3630 C   0  0  0  0  0  2  0  0  0  0  0  0
  192.4030  172.6460  135.8520 C   0  0  2  0  0  3  0  0  0  0  0  0
  193.9390  170.4190  136.1780 N   0  0  0  0  0  2  0  0  0  0  0  0
  190.7320  177.3170  140.9020 C   0  0  1  0  0  3  0  0  0  0  0  0
  190.9940  174.3190  137.0580 C   0  0  1  0  0  3  0  0  0  0  0  0
  194.9550  172.7470  136.2330 C   0  0  1  0  0  3  0  0  0  0  0  0
  192.1860  175.1600  137.3040 N   0  0  2  0  0  0  0  0  0  0  0  0
  188.8890  173.4660  135.3880 C   0  0  0  0  0  2  0  0  0  0  0  0
  193.0560  177.8670  139.9390 C   0  0  0  0  0  2  0  0  0  0  0  0
  190.0110  172.6480  135.6320 O   0  0  0  0  0  0  0  0  0  0  0  0
  193.1910  176.9080  138.7480 C   0  0  0  0  0  2  0  0  0  0  0  0
  190.2860  177.7360  139.4850 C   0  0  1  0  0  3  0  0  0  0  0  0
  188.5360  174.2660  136.6430 C   0  0  0  0  0  2  0  0  0  0  0  0
  189.5580  175.8260  138.2730 N   0  0  2  0  0  0  0  0  0  0  0  0
  190.1810  176.0820  141.2650 O   0  0  0  0  0  0  0  0  0  0  0  0
  190.1900  176.0790  142.5840 O   0  0  0  0  0  0  0  0  0  0  0  0
  187.6780  176.6760  144.5940 O   0  0  0  0  0  0  0  0  0  0  0  0
  189.6580  177.6360  144.2760 C   0  0  0  0  0  3  0  0  0  0  0  0
  189.2740  177.0680  142.9500 C   0  0  2  0  0  3  0  0  0  0  0  0
  188.7190  177.3830  145.1660 C   0  0  0  0  0  3  0  0  0  0  0  0
  187.9140  176.4290  143.2210 C   0  0  0  0  0  2  0  0  0  0  0  0
  1 26  1  1  0  0  0
  1 18  1  0  0  0  0
  1 27  1  0  0  0  0
  2 14  1  0  0  0  0
  3  7  1  1  0  0  0
  4 23  1  1  0  0  0
  4 15  1  0  0  0  0
  4 18  1  0  0  0  0
  5 19  1  0  0  0  0
  5 11  1  1  0  0  0
  8 16  1  0  0  0  0
  9 13  1  0  0  0  0
  9 25  1  0  0  0  0
 12  8  1  0  0  0  0
 12 15  1  0  0  0  0
 13 24  1  0  0  0  0
 14 25  1  0  0  0  0
 15  5  1  0  0  0  0
 16  3  1  0  0  0  0
 17 10  1  0  0  0  0
 17 28  1  0  0  0  0
 18 20  1  0  0  0  0
 19  6  1  0  0  0  0
 19  3  1  0  0  0  0
 20 11  1  0  0  0  0
 20 13  1  0  0  0  0
 21 23  1  0  0  0  0
 21 26  1  0  0  0  0
 22 10  1  0  0  0  0
 24 22  1  0  0  0  0
 25 17  1  0  0  0  0
 27  2  1  0  0  0  0
 27  9  1  0  0  0  0
 28 29  1  0  0  0  0
 29 32  1  0  0  0  0
 30 33  1  0  0  0  0
 31 33  2  0  0  0  0
 32 34  1  0  0  0  0
 32 31  1  0  0  0  0
 34 30  1  0  0  0  0
M  END
>  <MODEL>
5

>  <REMARK>
 VINA RESULT:      -6.2      3.533      9.067
  Name = 
  3 active torsions:
  status: ('A' for Active; 'I' for Inactive)
    1  A    between atoms: C_17  and  O_28
    2  A    between atoms: O_28  and  O_29
    3  A    between atoms: O_29  and  C_32
                            x       y       z     vdW  Elec       q    Type
                         _______ _______ _______ _____ _____    ______ ____

>  <TORSDO>
F 3

$$$$
=
 OpenBabel11122412263D

 34 40  0  0  1  0  0  0  0  0999 V2000
  190.6870  176.9850  137.6450 C   0  0  1  0  0  3  0  0  0  0  0  0
  190.0430  176.4150  135.3700 C   0  0  0  0  0  2  0  0  0  0  0  0
  188.8710  177.0050  143.8760 C   0  0  1  0  0  3  0  0  0  0  0  0
  191.2170  177.4360  140.0570 C   0  0  2  0  0  3  0  0  0  0  0  0
  189.3230  178.1760  141.5540 C   0  0  2  0  0  3  0  0  0  0  0  0
  187.3380  178.8730  143.0270 C   0  0  0  0  0  1  0  0  0  0  0  0
  187.9780  175.8700  143.4030 C   0  0  0  0  0  1  0  0  0  0  0  0
  191.2240  177.6060  143.9600 C   0  0  0  0  0  2  0  0  0  0  0  0
  188.5430  177.3070  136.8050 C   0  0  2  0  0  3  0  0  0  0  0  0
  185.5040  176.3880  136.8450 C   0  0  0  0  0  2  0  0  0  0  0  0
  188.3540  177.5790  140.5310 C   0  0  0  0  0  2  0  0  0  0  0  0
  191.6840  177.8600  142.5170 C   0  0  0  0  0  2  0  0  0  0  0  0
  187.8960  177.3080  138.2010 C   0  0  1  0  0  3  0  0  0  0  0  0
  188.7280  176.4580  134.5940 C   0  0  0  0  0  2  0  0  0  0  0  0
  190.6520  177.4060  141.4770 C   0  0  2  0  0  3  0  0  0  0  0  0
  190.2510  176.5120  144.0200 N   0  0  0  0  0  2  0  0  0  0  0  0
  186.5980  175.9220  135.8670 C   0  0  1  0  0  3  0  0  0  0  0  0
  190.1270  176.9590  139.0770 C   0  0  1  0  0  3  0  0  0  0  0  0
  188.7280  178.2560  142.9750 C   0  0  1  0  0  3  0  0  0  0  0  0
  188.8970  177.7730  139.1840 N   0  0  2  0  0  0  0  0  0  0  0  0
  192.9140  176.7530  138.7040 C   0  0  0  0  0  2  0  0  0  0  0  0
  185.5730  177.8770  137.1910 C   0  0  0  0  0  2  0  0  0  0  0  0
  192.3270  176.5680  139.9720 O   0  0  0  0  0  0  0  0  0  0  0  0
  186.6430  178.2040  138.2420 C   0  0  0  0  0  2  0  0  0  0  0  0
  187.6970  176.9700  135.5900 C   0  0  1  0  0  3  0  0  0  0  0  0
  191.9960  176.1990  137.6120 C   0  0  0  0  0  2  0  0  0  0  0  0
  189.6730  176.3970  136.7760 N   0  0  2  0  0  0  0  0  0  0  0  0
  187.1470  174.7180  136.3250 O   0  0  0  0  0  0  0  0  0  0  0  0
  186.3480  174.3260  137.2970 O   0  0  0  0  0  0  0  0  0  0  0  0
  185.0180  171.7520  135.7760 O   0  0  0  0  0  0  0  0  0  0  0  0
  187.1000  172.4920  136.0150 C   0  0  0  0  0  3  0  0  0  0  0  0
  186.3790  172.9300  137.2460 C   0  0  2  0  0  3  0  0  0  0  0  0
  186.2800  171.8330  135.2210 C   0  0  0  0  0  3  0  0  0  0  0  0
  184.9650  172.3950  137.0360 C   0  0  0  0  0  2  0  0  0  0  0  0
  1 26  1  1  0  0  0
  1 18  1  0  0  0  0
  2 27  1  0  0  0  0
  3  7  1  6  0  0  0
  3 16  1  0  0  0  0
  4 23  1  1  0  0  0
  4 15  1  0  0  0  0
  5 11  1  6  0  0  0
  5 19  1  0  0  0  0
  8 16  1  0  0  0  0
  9 13  1  0  0  0  0
 10 22  1  0  0  0  0
 12  8  1  0  0  0  0
 13 24  1  0  0  0  0
 13 20  1  0  0  0  0
 14  2  1  0  0  0  0
 14 25  1  0  0  0  0
 15  5  1  0  0  0  0
 15 12  1  0  0  0  0
 17 28  1  0  0  0  0
 17 10  1  0  0  0  0
 18 20  1  0  0  0  0
 18  4  1  0  0  0  0
 19  6  1  0  0  0  0
 19  3  1  0  0  0  0
 20 11  1  0  0  0  0
 21 23  1  0  0  0  0
 22 24  1  0  0  0  0
 25 17  1  0  0  0  0
 25  9  1  0  0  0  0
 26 21  1  0  0  0  0
 27  9  1  0  0  0  0
 27  1  1  0  0  0  0
 28 29  1  0  0  0  0
 30 34  1  0  0  0  0
 31 32  1  0  0  0  0
 32 29  1  0  0  0  0
 33 30  1  0  0  0  0
 33 31  2  0  0  0  0
 34 32  1  0  0  0  0
M  END
>  <MODEL>
6

>  <REMARK>
 VINA RESULT:      -6.1      2.425      4.187
  Name = 
  3 active torsions:
  status: ('A' for Active; 'I' for Inactive)
    1  A    between atoms: C_17  and  O_28
    2  A    between atoms: O_28  and  O_29
    3  A    between atoms: O_29  and  C_32
                            x       y       z     vdW  Elec       q    Type
                         _______ _______ _______ _____ _____    ______ ____

>  <TORSDO>
F 3

$$$$
=
 OpenBabel11122412263D

 34 40  0  0  1  0  0  0  0  0999 V2000
  187.8940  178.0950  140.4270 C   0  0  1  0  0  3  0  0  0  0  0  0
  190.0080  177.3410  139.4890 C   0  0  0  0  0  2  0  0  0  0  0  0
  181.4340  178.0310  139.8020 C   0  0  1  0  0  3  0  0  0  0  0  0
  185.6250  178.7170  141.3020 C   0  0  2  0  0  3  0  0  0  0  0  0
  183.8040  179.1770  139.6120 C   0  0  2  0  0  3  0  0  0  0  0  0
  181.9910  179.5780  137.8390 C   0  0  0  0  0  1  0  0  0  0  0  0
  181.7290  176.7440  139.0500 C   0  0  0  0  0  1  0  0  0  0  0  0
  181.7910  179.0270  141.9900 C   0  0  0  0  0  2  0  0  0  0  0  0
  188.3220  178.0160  138.1440 C   0  0  2  0  0  3  0  0  0  0  0  0
  187.7150  176.5950  135.3710 C   0  0  0  0  0  2  0  0  0  0  0  0
  184.6280  178.3870  138.5930 C   0  0  0  0  0  2  0  0  0  0  0  0
  183.2960  179.3030  142.1280 C   0  0  0  0  0  2  0  0  0  0  0  0
  186.8310  177.9580  137.7720 C   0  0  1  0  0  3  0  0  0  0  0  0
  190.5260  177.1320  138.0680 C   0  0  0  0  0  2  0  0  0  0  0  0
  184.1240  178.6420  141.0190 C   0  0  2  0  0  3  0  0  0  0  0  0
  181.5470  177.7860  141.2510 N   0  0  0  0  0  2  0  0  0  0  0  0
  188.8770  176.2870  136.3320 C   0  0  1  0  0  3  0  0  0  0  0  0
  186.3830  178.0260  140.1520 C   0  0  1  0  0  3  0  0  0  0  0  0
  182.2980  179.2060  139.2820 C   0  0  1  0  0  3  0  0  0  0  0  0
  186.0530  178.6220  138.8380 N   0  0  2  0  0  0  0  0  0  0  0  0
  187.2660  178.2840  142.8170 C   0  0  0  0  0  2  0  0  0  0  0  0
  187.3940  178.0860  135.2410 C   0  0  0  0  0  2  0  0  0  0  0  0
  185.9100  178.0480  142.5110 O   0  0  0  0  0  0  0  0  0  0  0  0
  186.5610  178.6280  136.4110 C   0  0  0  0  0  2  0  0  0  0  0  0
  189.3580  177.4960  137.1620 C   0  0  1  0  0  3  0  0  0  0  0  0
  188.1660  177.5420  141.8260 C   0  0  0  0  0  2  0  0  0  0  0  0
  188.5570  177.3120  139.3910 N   0  0  2  0  0  0  0  0  0  0  0  0
  188.5240  175.2110  137.1570 O   0  0  0  0  0  0  0  0  0  0  0  0
  188.4730  174.1670  136.3530 O   0  0  0  0  0  0  0  0  0  0  0  0
  185.4800  172.8500  136.4760 O   0  0  0  0  0  0  0  0  0  0  0  0
  187.5190  172.0140  136.1860 C   0  0  0  0  0  3  0  0  0  0  0  0
  187.7040  173.2240  137.0400 C   0  0  2  0  0  3  0  0  0  0  0  0
  186.2430  171.8540  135.8980 C   0  0  0  0  0  3  0  0  0  0  0  0
  186.2830  173.7540  137.2130 C   0  0  0  0  0  2  0  0  0  0  0  0
  1 26  1  1  0  0  0
  3  7  1  6  0  0  0
  3 16  1  0  0  0  0
  4 23  1  1  0  0  0
  5 11  1  6  0  0  0
  5 15  1  0  0  0  0
  6 19  1  0  0  0  0
  8 12  1  0  0  0  0
  9 27  1  0  0  0  0
 10 17  1  0  0  0  0
 11 20  1  0  0  0  0
 13  9  1  0  0  0  0
 13 20  1  0  0  0  0
 14  2  1  0  0  0  0
 15  4  1  0  0  0  0
 15 12  1  0  0  0  0
 16  8  1  0  0  0  0
 17 28  1  0  0  0  0
 17 25  1  0  0  0  0
 18  1  1  0  0  0  0
 18  4  1  0  0  0  0
 19  5  1  0  0  0  0
 19  3  1  0  0  0  0
 20 18  1  0  0  0  0
 22 10  1  0  0  0  0
 22 24  1  0  0  0  0
 23 21  1  0  0  0  0
 24 13  1  0  0  0  0
 25 14  1  0  0  0  0
 25  9  1  0  0  0  0
 26 21  1  0  0  0  0
 27  2  1  0  0  0  0
 27  1  1  0  0  0  0
 29 32  1  0  0  0  0
 29 28  1  0  0  0  0
 30 34  1  0  0  0  0
 31 32  1  0  0  0  0
 32 34  1  0  0  0  0
 33 31  2  0  0  0  0
 33 30  1  0  0  0  0
M  END
>  <MODEL>
7

>  <REMARK>
 VINA RESULT:      -6.0      1.094      1.294
  Name = 
  3 active torsions:
  status: ('A' for Active; 'I' for Inactive)
    1  A    between atoms: C_17  and  O_28
    2  A    between atoms: O_28  and  O_29
    3  A    between atoms: O_29  and  C_32
                            x       y       z     vdW  Elec       q    Type
                         _______ _______ _______ _____ _____    ______ ____

>  <TORSDO>
F 3

$$$$
=
 OpenBabel11122412263D

 34 40  0  0  1  0  0  0  0  0999 V2000
  191.1760  177.0820  138.1800 C   0  0  1  0  0  3  0  0  0  0  0  0
  190.8930  176.3800  135.8680 C   0  0  0  0  0  2  0  0  0  0  0  0
  188.5810  177.0900  144.1280 C   0  0  1  0  0  3  0  0  0  0  0  0
  191.3420  177.6580  140.6170 C   0  0  2  0  0  3  0  0  0  0  0  0
  189.2050  178.2330  141.8330 C   0  0  2  0  0  3  0  0  0  0  0  0
  186.9860  178.7560  143.0150 C   0  0  0  0  0  1  0  0  0  0  0  0
  187.8780  175.8510  143.5960 C   0  0  0  0  0  1  0  0  0  0  0  0
  190.8290  177.9420  144.4800 C   0  0  0  0  0  2  0  0  0  0  0  0
  189.1370  177.1470  137.0660 C   0  0  2  0  0  3  0  0  0  0  0  0
  186.2290  175.9090  136.7640 C   0  0  0  0  0  2  0  0  0  0  0  0
  188.4430  177.5070  140.7230 C   0  0  0  0  0  2  0  0  0  0  0  0
  191.4420  178.2010  143.0960 C   0  0  0  0  0  2  0  0  0  0  0  0
  188.3190  177.1200  138.3680 C   0  0  1  0  0  3  0  0  0  0  0  0
  189.6910  176.2590  134.9320 C   0  0  0  0  0  2  0  0  0  0  0  0
  190.6050  177.6090  141.9560 C   0  0  2  0  0  3  0  0  0  0  0  0
  189.9740  176.7520  144.4650 N   0  0  0  0  0  2  0  0  0  0  0  0
  187.4820  175.5350  135.9510 C   0  0  1  0  0  3  0  0  0  0  0  0
  190.4430  177.0380  139.5300 C   0  0  1  0  0  3  0  0  0  0  0  0
  188.4270  178.2910  143.1630 C   0  0  1  0  0  3  0  0  0  0  0  0
  189.1310  177.7190  139.4470 N   0  0  2  0  0  0  0  0  0  0  0  0
  193.2610  177.1220  139.5180 C   0  0  0  0  0  2  0  0  0  0  0  0
  186.0990  177.4070  137.0520 C   0  0  0  0  0  2  0  0  0  0  0  0
  192.5370  176.9130  140.7090 O   0  0  0  0  0  0  0  0  0  0  0  0
  186.9860  177.8770  138.2140 C   0  0  0  0  0  2  0  0  0  0  0  0
  188.4930  176.6860  135.7690 C   0  0  1  0  0  3  0  0  0  0  0  0
  192.5530  176.4410  138.3440 C   0  0  0  0  0  2  0  0  0  0  0  0
  190.3490  176.3640  137.2170 N   0  0  2  0  0  0  0  0  0  0  0  0
  188.0880  174.4100  136.5260 O   0  0  0  0  0  0  0  0  0  0  0  0
  187.1560  173.4790  136.5190 O   0  0  0  0  0  0  0  0  0  0  0  0
  188.6580  170.8270  135.3270 O   0  0  0  0  0  0  0  0  0  0  0  0
  186.5460  171.5210  135.3490 C   0  0  0  0  0  3  0  0  0  0  0  0
  187.3730  172.7630  135.3380 C   0  0  2  0  0  3  0  0  0  0  0  0
  187.3260  170.4590  135.3440 C   0  0  0  0  0  3  0  0  0  0  0  0
  188.8050  172.2350  135.3180 C   0  0  0  0  0  2  0  0  0  0  0  0
  1 26  1  1  0  0  0
  1 18  1  0  0  0  0
  2 27  1  0  0  0  0
  3  7  1  6  0  0  0
  3 16  1  0  0  0  0
  4 23  1  1  0  0  0
  4 15  1  0  0  0  0
  5 11  1  6  0  0  0
  5 15  1  0  0  0  0
  5 19  1  0  0  0  0
  6 19  1  0  0  0  0
  9 27  1  0  0  0  0
  9 13  1  0  0  0  0
 10 22  1  0  0  0  0
 12  8  1  0  0  0  0
 13 20  1  0  0  0  0
 14 25  1  0  0  0  0
 14  2  1  0  0  0  0
 15 12  1  0  0  0  0
 16  8  1  0  0  0  0
 17 28  1  0  0  0  0
 17 10  1  0  0  0  0
 18  4  1  0  0  0  0
 19  3  1  0  0  0  0
 20 18  1  0  0  0  0
 20 11  1  0  0  0  0
 21 23  1  0  0  0  0
 22 24  1  0  0  0  0
 24 13  1  0  0  0  0
 25 17  1  0  0  0  0
 25  9  1  0  0  0  0
 26 21  1  0  0  0  0
 27  1  1  0  0  0  0
 29 28  1  0  0  0  0
 30 33  1  0  0  0  0
 32 31  1  0  0  0  0
 32 29  1  0  0  0  0
 33 31  2  0  0  0  0
 34 30  1  0  0  0  0
 34 32  1  0  0  0  0
M  END
>  <MODEL>
8

>  <REMARK>
 VINA RESULT:      -5.9      2.534      4.066
  Name = 
  3 active torsions:
  status: ('A' for Active; 'I' for Inactive)
    1  A    between atoms: C_17  and  O_28
    2  A    between atoms: O_28  and  O_29
    3  A    between atoms: O_29  and  C_32
                            x       y       z     vdW  Elec       q    Type
                         _______ _______ _______ _____ _____    ______ ____

>  <TORSDO>
F 3

$$$$
=
 OpenBabel11122412263D

 34 40  0  0  1  0  0  0  0  0999 V2000
  185.7010  178.7130  138.5170 C   0  0  1  0  0  3  0  0  0  0  0  0
  183.3430  178.9580  137.9700 C   0  0  0  0  0  2  0  0  0  0  0  0
  189.9880  176.4670  142.8400 C   0  0  1  0  0  3  0  0  0  0  0  0
  188.0820  178.3040  139.1970 C   0  0  2  0  0  3  0  0  0  0  0  0
  188.6280  178.3970  141.6620 C   0  0  2  0  0  3  0  0  0  0  0  0
  189.0970  178.4550  144.1860 C   0  0  0  0  0  1  0  0  0  0  0  0
  188.8360  175.5380  143.1880 C   0  0  0  0  0  1  0  0  0  0  0  0
  191.3640  177.0860  140.9340 C   0  0  0  0  0  2  0  0  0  0  0  0
  184.0720  179.2300  140.0920 C   0  0  2  0  0  3  0  0  0  0  0  0
  182.3770  178.2440  142.5890 C   0  0  0  0  0  2  0  0  0  0  0  0
  187.1420  178.1640  141.9430 C   0  0  0  0  0  2  0  0  0  0  0  0
  190.4650  177.8500  139.9500 C   0  0  0  0  0  2  0  0  0  0  0  0
  184.9160  178.7150  141.2710 C   0  0  1  0  0  3  0  0  0  0  0  0
  182.0830  179.2240  138.7920 C   0  0  0  0  0  2  0  0  0  0  0  0
  188.9760  177.7530  140.3090 C   0  0  2  0  0  3  0  0  0  0  0  0
  190.6260  176.0060  141.5940 N   0  0  0  0  0  2  0  0  0  0  0  0
  181.9570  178.1940  141.1090 C   0  0  1  0  0  3  0  0  0  0  0  0
  186.6090  178.1620  139.6290 C   0  0  1  0  0  3  0  0  0  0  0  0
  189.5410  177.9490  142.8210 C   0  0  1  0  0  3  0  0  0  0  0  0
  186.3450  178.8410  140.9170 N   0  0  2  0  0  0  0  0  0  0  0  0
  187.5780  178.2050  136.9810 C   0  0  0  0  0  2  0  0  0  0  0  0
  183.1320  179.5170  142.9780 C   0  0  0  0  0  2  0  0  0  0  0  0
  188.2900  177.5640  138.0140 O   0  0  0  0  0  0  0  0  0  0  0  0
  184.6110  179.4920  142.5660 C   0  0  0  0  0  2  0  0  0  0  0  0
  182.5620  179.3130  140.2340 C   0  0  1  0  0  3  0  0  0  0  0  0
  186.0720  178.0380  137.1970 C   0  0  0  0  0  2  0  0  0  0  0  0
  184.3240  178.4320  138.9070 N   0  0  2  0  0  0  0  0  0  0  0  0
  182.2470  176.9270  140.5870 O   0  0  0  0  0  0  0  0  0  0  0  0
  181.0970  176.4760  140.1260 O   0  0  0  0  0  0  0  0  0  0  0  0
  181.2820  175.0820  137.1720 O   0  0  0  0  0  0  0  0  0  0  0  0
  182.7420  175.4050  138.8160 C   0  0  0  0  0  3  0  0  0  0  0  0
  181.4140  175.2770  139.4840 C   0  0  2  0  0  3  0  0  0  0  0  0
  182.6050  175.2880  137.5100 C   0  0  0  0  0  3  0  0  0  0  0  0
  180.4530  175.0520  138.3190 C   0  0  0  0  0  2  0  0  0  0  0  0
  1 26  1  6  0  0  0
  1 27  1  0  0  0  0
  1 18  1  0  0  0  0
  2 14  1  0  0  0  0
  2 27  1  0  0  0  0
  3  7  1  6  0  0  0
  4 23  1  6  0  0  0
  4 18  1  0  0  0  0
  4 15  1  0  0  0  0
  5 11  1  1  0  0  0
  5 19  1  0  0  0  0
  8 16  1  0  0  0  0
  9 25  1  0  0  0  0
  9 13  1  0  0  0  0
 10 22  1  0  0  0  0
 12 15  1  0  0  0  0
 12  8  1  0  0  0  0
 13 24  1  0  0  0  0
 14 25  1  0  0  0  0
 15  5  1  0  0  0  0
 16  3  1  0  0  0  0
 17 10  1  0  0  0  0
 18 20  1  0  0  0  0
 19  3  1  0  0  0  0
 19  6  1  0  0  0  0
 20 13  1  0  0  0  0
 20 11  1  0  0  0  0
 21 26  1  0  0  0  0
 21 23  1  0  0  0  0
 24 22  1  0  0  0  0
 25 17  1  0  0  0  0
 27  9  1  0  0  0  0
 28 17  1  0  0  0  0
 29 28  1  0  0  0  0
 30 33  1  0  0  0  0
 30 34  1  0  0  0  0
 31 32  1  0  0  0  0
 32 29  1  0  0  0  0
 33 31  2  0  0  0  0
 34 32  1  0  0  0  0
M  END
>  <MODEL>
9

>  <REMARK>
 VINA RESULT:      -5.7      2.800      6.617
  Name = 
  3 active torsions:
  status: ('A' for Active; 'I' for Inactive)
    1  A    between atoms: C_17  and  O_28
    2  A    between atoms: O_28  and  O_29
    3  A    between atoms: O_29  and  C_32
                            x       y       z     vdW  Elec       q    Type
                         _______ _______ _______ _____ _____    ______ ____

>  <TORSDO>
F 3

$$$$
