=
 OpenBabel11122410533D

 32 37  0  0  1  0  0  0  0  0999 V2000
  190.0370  176.0050  144.8000 C   0  0  0  0  0  2  0  0  0  0  0  0
  189.2170  177.5780  140.6860 C   0  0  2  0  0  3  0  0  0  0  0  0
  184.7020  179.0430  141.9850 C   0  0  0  0  0  3  0  0  0  0  0  0
  184.2160  178.6590  140.7290 C   0  0  0  0  0  3  0  0  0  0  0  0
  189.5460  176.7340  138.3330 C   0  0  1  0  0  3  0  0  0  0  0  0
  189.4150  177.2550  136.9010 C   0  0  1  0  0  3  0  0  0  0  0  0
  191.0800  177.6900  142.3930 C   0  0  1  0  0  3  0  0  0  0  0  0
  188.6510  178.1340  143.0300 C   0  0  0  0  0  2  0  0  0  0  0  0
  187.5090  177.2140  135.4140 C   0  0  2  0  0  3  0  0  0  0  0  0
  190.5240  178.4870  144.7350 C   0  0  0  0  0  2  0  0  0  0  0  0
  186.0410  178.9300  142.2800 C   0  0  0  0  0  3  0  0  0  0  0  0
  188.3780  178.3440  141.5970 N   0  0  0  0  0  0  0  0  0  0  0  0
  187.0040  178.5580  141.2710 C   0  0  0  0  0  0  0  0  0  0  0  0
  187.5010  178.0880  138.8970 C   0  0  0  0  0  0  0  0  0  0  0  0
  188.7240  176.5630  134.7030 C   0  0  0  0  0  2  0  0  0  0  0  0
  190.5370  175.6110  143.3950 C   0  0  0  0  0  2  0  0  0  0  0  0
  190.1180  178.4540  143.2770 C   0  0  1  0  0  3  0  0  0  0  0  0
  189.6840  176.1730  135.8400 C   0  0  0  0  0  2  0  0  0  0  0  0
  191.5590  176.4020  142.8670 O   0  0  0  0  0  0  0  0  0  0  0  0
  190.8670  177.1380  145.3820 C   0  0  1  0  0  3  0  0  0  0  0  0
  185.1400  178.3740  139.6960 C   0  0  0  0  0  3  0  0  0  0  0  0
  186.4960  178.4000  139.9920 C   0  0  0  0  0  0  0  0  0  0  0  0
  187.1150  178.0620  137.6790 C   0  0  0  0  0  3  0  0  0  0  0  0
  190.7540  177.6800  140.9330 C   0  0  0  0  0  2  0  0  0  0  0  0
  190.7320  176.0970  138.6720 O   0  0  0  0  0  1  0  0  0  0  0  0
  186.8460  178.3180  134.5950 C   0  0  0  0  0  1  0  0  0  0  0  0
  188.9340  177.8630  139.2690 C   0  0  1  0  0  3  0  0  0  0  0  0
  188.0960  177.7410  136.5920 N   0  0  0  0  0  0  0  0  0  0  0  0
  190.7510  177.2480  146.9050 C   0  0  0  0  0  2  0  0  0  0  0  0
  191.8880  176.5610  147.6070 C   0  0  0  0  0  0  0  0  0  0  0  0
  192.4210  175.3010  146.9620 C   0  0  0  0  0  1  0  0  0  0  0  0
  192.4250  177.0830  148.5790 O   0  0  0  0  0  0  0  0  0  0  0  0
  1 20  1  0  0  0  0
  2 24  1  1  0  0  0
  2 12  1  0  0  0  0
  3 11  1  0  0  0  0
  4  3  2  0  0  0  0
  5 25  1  1  0  0  0
  5 27  1  0  0  0  0
  6 18  1  6  0  0  0
  6  5  1  0  0  0  0
  7 24  1  6  0  0  0
  7 19  1  0  0  0  0
  7 17  1  0  0  0  0
  9 26  1  6  0  0  0
  9 28  1  0  0  0  0
 10 20  1  0  0  0  0
 12  8  1  0  0  0  0
 13 12  1  0  0  0  0
 13 11  2  0  0  0  0
 14 22  1  0  0  0  0
 15  9  1  0  0  0  0
 15 18  1  0  0  0  0
 16  1  1  0  0  0  0
 17  8  1  1  0  0  0
 17 10  1  0  0  0  0
 19 16  1  0  0  0  0
 20 29  1  1  0  0  0
 21 22  2  0  0  0  0
 21  4  1  0  0  0  0
 22 13  1  0  0  0  0
 23 14  2  0  0  0  0
 27 14  1  1  0  0  0
 27  2  1  0  0  0  0
 28  6  1  0  0  0  0
 28 23  1  0  0  0  0
 29 30  1  0  0  0  0
 30 32  2  0  0  0  0
 31 30  1  0  0  0  0
M  END
>  <MODEL>
1

>  <REMARK>
 VINA RESULT:      -8.5      0.000      0.000
  Name = 
  2 active torsions:
  status: ('A' for Active; 'I' for Inactive)
    1  A    between atoms: C_20  and  C_29
    2  A    between atoms: C_29  and  C_30
                            x       y       z     vdW  Elec       q    Type
                         _______ _______ _______ _____ _____    ______ ____

>  <TORSDO>
F 2

$$$$
=
 OpenBabel11122410533D

 32 37  0  0  1  0  0  0  0  0999 V2000
  188.6340  175.6160  137.1330 C   0  0  0  0  0  2  0  0  0  0  0  0
  187.5310  177.8500  140.8550 C   0  0  2  0  0  3  0  0  0  0  0  0
  191.6420  176.3840  143.1310 C   0  0  0  0  0  3  0  0  0  0  0  0
  190.9310  176.2540  144.3310 C   0  0  0  0  0  3  0  0  0  0  0  0
  185.4480  178.1160  142.2510 C   0  0  1  0  0  3  0  0  0  0  0  0
  184.9640  178.9480  143.4390 C   0  0  1  0  0  3  0  0  0  0  0  0
  187.5990  178.2860  138.3650 C   0  0  1  0  0  3  0  0  0  0  0  0
  189.5730  177.2400  139.5960 C   0  0  0  0  0  2  0  0  0  0  0  0
  185.0940  178.4750  145.8070 C   0  0  2  0  0  3  0  0  0  0  0  0
  189.7730  177.8760  137.1260 C   0  0  0  0  0  2  0  0  0  0  0  0
  191.0180  176.8520  141.9970 C   0  0  0  0  0  3  0  0  0  0  0  0
  188.9850  177.7530  140.8470 N   0  0  0  0  0  0  0  0  0  0  0  0
  189.6680  177.3600  142.0380 C   0  0  0  0  0  0  0  0  0  0  0  0
  187.6980  178.0160  143.3760 C   0  0  0  0  0  0  0  0  0  0  0  0
  183.6220  178.7830  145.4290 C   0  0  0  0  0  2  0  0  0  0  0  0
  187.2870  176.0110  137.7720 C   0  0  0  0  0  2  0  0  0  0  0  0
  189.1020  178.1350  138.4580 C   0  0  1  0  0  3  0  0  0  0  0  0
  183.5500  178.5610  143.9080 C   0  0  0  0  0  2  0  0  0  0  0  0
  186.8700  177.3250  137.5530 O   0  0  0  0  0  0  0  0  0  0  0  0
  189.1870  176.7410  136.2730 C   0  0  1  0  0  3  0  0  0  0  0  0
  189.6380  176.8230  144.4250 C   0  0  0  0  0  3  0  0  0  0  0  0
  189.0880  177.4100  143.2940 C   0  0  0  0  0  0  0  0  0  0  0  0
  187.1640  178.2110  144.5200 C   0  0  0  0  0  3  0  0  0  0  0  0
  186.8960  178.6040  139.6470 C   0  0  0  0  0  2  0  0  0  0  0  0
  184.6300  178.0710  141.1300 O   0  0  0  0  0  1  0  0  0  0  0  0
  185.6090  179.3120  146.9740 C   0  0  0  0  0  1  0  0  0  0  0  0
  187.0030  178.4120  142.1100 C   0  0  1  0  0  3  0  0  0  0  0  0
  185.7860  178.7960  144.6120 N   0  0  0  0  0  0  0  0  0  0  0  0
  190.2290  176.2660  135.2560 C   0  0  0  0  0  2  0  0  0  0  0  0
  191.2870  175.4110  135.8920 C   0  0  0  0  0  0  0  0  0  0  0  0
  191.3180  173.9550  135.4840 C   0  0  0  0  0  1  0  0  0  0  0  0
  192.1510  175.9160  136.6030 O   0  0  0  0  0  0  0  0  0  0  0  0
  1 16  1  0  0  0  0
  2 24  1  6  0  0  0
  2 27  1  0  0  0  0
  3  4  1  0  0  0  0
  4 21  2  0  0  0  0
  5 25  1  6  0  0  0
  5  6  1  0  0  0  0
  6 18  1  1  0  0  0
  6 28  1  0  0  0  0
  7 17  1  0  0  0  0
  7 24  1  1  0  0  0
  8 12  1  0  0  0  0
  9 26  1  1  0  0  0
 11 13  1  0  0  0  0
 11  3  2  0  0  0  0
 12  2  1  0  0  0  0
 12 13  1  0  0  0  0
 13 22  2  0  0  0  0
 14 23  2  0  0  0  0
 15  9  1  0  0  0  0
 17 10  1  6  0  0  0
 17  8  1  0  0  0  0
 18 15  1  0  0  0  0
 19 16  1  0  0  0  0
 19  7  1  0  0  0  0
 20 29  1  6  0  0  0
 20 10  1  0  0  0  0
 20  1  1  0  0  0  0
 22 14  1  0  0  0  0
 22 21  1  0  0  0  0
 23 28  1  0  0  0  0
 27  5  1  0  0  0  0
 27 14  1  1  0  0  0
 28  9  1  0  0  0  0
 29 30  1  0  0  0  0
 30 32  2  0  0  0  0
 31 30  1  0  0  0  0
M  END
>  <MODEL>
2

>  <REMARK>
 VINA RESULT:      -8.1      2.856      7.880
  Name = 
  2 active torsions:
  status: ('A' for Active; 'I' for Inactive)
    1  A    between atoms: C_20  and  C_29
    2  A    between atoms: C_29  and  C_30
                            x       y       z     vdW  Elec       q    Type
                         _______ _______ _______ _____ _____    ______ ____

>  <TORSDO>
F 2

$$$$
=
 OpenBabel11122410533D

 32 37  0  0  1  0  0  0  0  0999 V2000
  191.7020  174.5430  137.6540 C   0  0  0  0  0  2  0  0  0  0  0  0
  189.0240  177.3980  139.8320 C   0  0  2  0  0  3  0  0  0  0  0  0
  191.3060  176.5130  144.1010 C   0  0  0  0  0  3  0  0  0  0  0  0
  190.0780  176.5880  144.7730 C   0  0  0  0  0  3  0  0  0  0  0  0
  186.5450  177.8530  139.8980 C   0  0  1  0  0  3  0  0  0  0  0  0
  185.5840  178.8770  140.5050 C   0  0  1  0  0  3  0  0  0  0  0  0
  190.3720  177.3620  137.6920 C   0  0  1  0  0  3  0  0  0  0  0  0
  191.3740  176.6280  139.9190 C   0  0  0  0  0  2  0  0  0  0  0  0
  184.4650  178.8600  142.6480 C   0  0  2  0  0  3  0  0  0  0  0  0
  192.8400  176.7970  137.8300 C   0  0  0  0  0  2  0  0  0  0  0  0
  191.3750  176.7410  142.7470 C   0  0  0  0  0  3  0  0  0  0  0  0
  190.2710  177.3460  140.5830 N   0  0  0  0  0  0  0  0  0  0  0  0
  190.2280  177.2050  142.0030 C   0  0  0  0  0  0  0  0  0  0  0  0
  187.9030  178.0360  142.0090 C   0  0  0  0  0  0  0  0  0  0  0  0
  183.4120  179.0450  141.5250 C   0  0  0  0  0  2  0  0  0  0  0  0
  190.2480  175.0090  137.4360 C   0  0  0  0  0  2  0  0  0  0  0  0
  191.6070  177.2790  138.5630 C   0  0  1  0  0  3  0  0  0  0  0  0
  184.1040  178.5410  140.2470 C   0  0  0  0  0  2  0  0  0  0  0  0
  190.0910  176.2440  136.8060 O   0  0  0  0  0  0  0  0  0  0  0  0
  192.6900  175.5050  137.0130 C   0  0  1  0  0  3  0  0  0  0  0  0
  188.9580  177.1220  144.0930 C   0  0  0  0  0  3  0  0  0  0  0  0
  189.0970  177.4700  142.7570 C   0  0  0  0  0  0  0  0  0  0  0  0
  186.8770  178.4250  142.6660 C   0  0  0  0  0  3  0  0  0  0  0  0
  189.1410  177.8920  138.3570 C   0  0  0  0  0  2  0  0  0  0  0  0
  186.4050  177.5740  138.5450 O   0  0  0  0  0  1  0  0  0  0  0  0
  184.3750  179.9150  143.7460 C   0  0  0  0  0  1  0  0  0  0  0  0
  187.9730  178.1680  140.5190 C   0  0  1  0  0  3  0  0  0  0  0  0
  185.6870  178.9730  141.9380 N   0  0  0  0  0  0  0  0  0  0  0  0
  194.0680  174.8810  136.7720 C   0  0  0  0  0  2  0  0  0  0  0  0
  194.7130  174.4300  138.0510 C   0  0  0  0  0  0  0  0  0  0  0  0
  194.9350  172.9420  138.2100 C   0  0  0  0  0  1  0  0  0  0  0  0
  195.1470  175.2520  138.8520 O   0  0  0  0  0  0  0  0  0  0  0  0
  2 24  1  6  0  0  0
  2 27  1  0  0  0  0
  2 12  1  0  0  0  0
  3  4  1  0  0  0  0
  5 25  1  6  0  0  0
  5  6  1  0  0  0  0
  5 27  1  0  0  0  0
  6 18  1  1  0  0  0
  6 28  1  0  0  0  0
  7 24  1  1  0  0  0
  7 17  1  0  0  0  0
  8 12  1  0  0  0  0
  9 26  1  1  0  0  0
 11  3  2  0  0  0  0
 12 13  1  0  0  0  0
 13 11  1  0  0  0  0
 13 22  2  0  0  0  0
 14 23  2  0  0  0  0
 14 22  1  0  0  0  0
 15  9  1  0  0  0  0
 16  1  1  0  0  0  0
 17 10  1  6  0  0  0
 17  8  1  0  0  0  0
 18 15  1  0  0  0  0
 19 16  1  0  0  0  0
 19  7  1  0  0  0  0
 20 29  1  1  0  0  0
 20  1  1  0  0  0  0
 20 10  1  0  0  0  0
 21  4  2  0  0  0  0
 22 21  1  0  0  0  0
 27 14  1  1  0  0  0
 28  9  1  0  0  0  0
 28 23  1  0  0  0  0
 29 30  1  0  0  0  0
 30 31  1  0  0  0  0
 30 32  2  0  0  0  0
M  END
>  <MODEL>
3

>  <REMARK>
 VINA RESULT:      -7.6      2.907      6.617
  Name = 
  2 active torsions:
  status: ('A' for Active; 'I' for Inactive)
    1  A    between atoms: C_20  and  C_29
    2  A    between atoms: C_29  and  C_30
                            x       y       z     vdW  Elec       q    Type
                         _______ _______ _______ _____ _____    ______ ____

>  <TORSDO>
F 2

$$$$
=
 OpenBabel11122410533D

 32 37  0  0  1  0  0  0  0  0999 V2000
  193.0430  173.6050  137.3120 C   0  0  0  0  0  2  0  0  0  0  0  0
  189.7400  176.6060  137.7080 C   0  0  2  0  0  3  0  0  0  0  0  0
  191.0960  177.7110  142.3090 C   0  0  0  0  0  3  0  0  0  0  0  0
  189.7490  177.8340  142.6760 C   0  0  0  0  0  3  0  0  0  0  0  0
  187.2790  176.6640  137.1640 C   0  0  1  0  0  3  0  0  0  0  0  0
  186.1330  177.6770  137.1480 C   0  0  1  0  0  3  0  0  0  0  0  0
  191.5220  176.0000  136.0190 C   0  0  1  0  0  3  0  0  0  0  0  0
  192.0670  176.2970  138.4920 C   0  0  0  0  0  2  0  0  0  0  0  0
  184.5770  178.2710  138.9020 C   0  0  2  0  0  3  0  0  0  0  0  0
  193.9370  175.9150  136.7890 C   0  0  0  0  0  2  0  0  0  0  0  0
  191.4420  177.4350  141.0060 C   0  0  0  0  0  3  0  0  0  0  0  0
  190.7930  177.0270  138.6220 N   0  0  0  0  0  0  0  0  0  0  0  0
  190.4520  177.4110  139.9550 C   0  0  0  0  0  0  0  0  0  0  0  0
  188.1240  177.8150  139.2360 C   0  0  0  0  0  0  0  0  0  0  0  0
  183.7840  177.8670  137.6320 C   0  0  0  0  0  2  0  0  0  0  0  0
  191.6390  173.7270  136.6830 C   0  0  0  0  0  2  0  0  0  0  0  0
  192.5390  176.4340  137.0520 C   0  0  1  0  0  3  0  0  0  0  0  0
  184.7760  177.0430  136.7920 C   0  0  0  0  0  2  0  0  0  0  0  0
  191.5280  174.6070  135.6050 O   0  0  0  0  0  0  0  0  0  0  0  0
  194.0690  174.4070  136.5280 C   0  0  1  0  0  3  0  0  0  0  0  0
  188.7670  177.9020  141.6590 C   0  0  0  0  0  3  0  0  0  0  0  0
  189.1670  177.7540  140.3390 C   0  0  0  0  0  0  0  0  0  0  0  0
  186.9540  178.2530  139.5030 C   0  0  0  0  0  3  0  0  0  0  0  0
  190.1380  176.5380  136.2020 C   0  0  0  0  0  2  0  0  0  0  0  0
  187.4600  175.8910  136.0250 O   0  0  0  0  0  1  0  0  0  0  0  0
  184.1680  179.6270  139.4670 C   0  0  0  0  0  1  0  0  0  0  0  0
  188.5080  177.4010  137.8490 C   0  0  1  0  0  3  0  0  0  0  0  0
  185.9120  178.3040  138.4250 N   0  0  0  0  0  0  0  0  0  0  0  0
  195.5100  173.9600  136.7890 C   0  0  0  0  0  2  0  0  0  0  0  0
  195.6010  172.9980  137.9390 C   0  0  0  0  0  0  0  0  0  0  0  0
  195.7900  171.5380  137.5880 C   0  0  0  0  0  1  0  0  0  0  0  0
  195.6460  173.4100  139.0930 O   0  0  0  0  0  0  0  0  0  0  0  0
  2 24  1  6  0  0  0
  2 27  1  0  0  0  0
  2 12  1  0  0  0  0
  3  4  1  0  0  0  0
  5 25  1  6  0  0  0
  5 27  1  0  0  0  0
  6 18  1  1  0  0  0
  6  5  1  0  0  0  0
  6 28  1  0  0  0  0
  7 24  1  1  0  0  0
  7 17  1  0  0  0  0
  8 12  1  0  0  0  0
  9 26  1  6  0  0  0
 11  3  2  0  0  0  0
 12 13  1  0  0  0  0
 13 22  2  0  0  0  0
 13 11  1  0  0  0  0
 14 23  2  0  0  0  0
 14 22  1  0  0  0  0
 15  9  1  0  0  0  0
 16  1  1  0  0  0  0
 17 10  1  1  0  0  0
 17  8  1  0  0  0  0
 18 15  1  0  0  0  0
 19  7  1  0  0  0  0
 19 16  1  0  0  0  0
 20 29  1  1  0  0  0
 20 10  1  0  0  0  0
 20  1  1  0  0  0  0
 21  4  2  0  0  0  0
 22 21  1  0  0  0  0
 27 14  1  1  0  0  0
 28  9  1  0  0  0  0
 28 23  1  0  0  0  0
 29 30  1  0  0  0  0
 30 32  2  0  0  0  0
 31 30  1  0  0  0  0
M  END
>  <MODEL>
4

>  <REMARK>
 VINA RESULT:      -7.6      3.324      6.450
  Name = 
  2 active torsions:
  status: ('A' for Active; 'I' for Inactive)
    1  A    between atoms: C_20  and  C_29
    2  A    between atoms: C_29  and  C_30
                            x       y       z     vdW  Elec       q    Type
                         _______ _______ _______ _____ _____    ______ ____

>  <TORSDO>
F 2

$$$$
=
 OpenBabel11122410533D

 32 37  0  0  1  0  0  0  0  0999 V2000
  190.0100  176.1410  143.7910 C   0  0  0  0  0  2  0  0  0  0  0  0
  186.9250  178.1640  141.2500 C   0  0  2  0  0  3  0  0  0  0  0  0
  184.0040  178.9210  145.1380 C   0  0  0  0  0  3  0  0  0  0  0  0
  182.8790  178.6620  144.3430 C   0  0  0  0  0  3  0  0  0  0  0  0
  185.8260  177.6960  139.0290 C   0  0  1  0  0  3  0  0  0  0  0  0
  184.8780  178.3920  138.0510 C   0  0  1  0  0  3  0  0  0  0  0  0
  189.4330  178.2480  141.5670 C   0  0  1  0  0  3  0  0  0  0  0  0
  187.8290  178.3250  143.5480 C   0  0  0  0  0  2  0  0  0  0  0  0
  182.4620  178.3420  137.9480 C   0  0  2  0  0  3  0  0  0  0  0  0
  190.3420  178.6470  143.9000 C   0  0  0  0  0  2  0  0  0  0  0  0
  185.2640  178.9200  144.5860 C   0  0  0  0  0  3  0  0  0  0  0  0
  186.7680  178.6990  142.5950 N   0  0  0  0  0  0  0  0  0  0  0  0
  185.4600  178.8010  143.1610 C   0  0  0  0  0  0  0  0  0  0  0  0
  184.4820  178.7210  140.8940 C   0  0  0  0  0  0  0  0  0  0  0  0
  183.0400  177.9360  136.5670 C   0  0  0  0  0  2  0  0  0  0  0  0
  189.5990  176.0030  142.3100 C   0  0  0  0  0  2  0  0  0  0  0  0
  189.1610  178.7700  142.9610 C   0  0  1  0  0  3  0  0  0  0  0  0
  184.4880  177.5030  136.8570 C   0  0  0  0  0  2  0  0  0  0  0  0
  190.1120  176.9690  141.4420 O   0  0  0  0  0  0  0  0  0  0  0  0
  191.0120  177.2680  143.9820 C   0  0  1  0  0  3  0  0  0  0  0  0
  183.0300  178.6280  142.9370 C   0  0  0  0  0  3  0  0  0  0  0  0
  184.3020  178.7650  142.4010 C   0  0  0  0  0  0  0  0  0  0  0  0
  183.4570  178.8200  140.1370 C   0  0  0  0  0  3  0  0  0  0  0  0
  188.3150  178.4030  140.5840 C   0  0  0  0  0  2  0  0  0  0  0  0
  186.9930  177.1550  138.5070 O   0  0  0  0  0  1  0  0  0  0  0  0
  181.4350  179.4670  137.8690 C   0  0  0  0  0  1  0  0  0  0  0  0
  185.8640  178.6080  140.3300 C   0  0  1  0  0  3  0  0  0  0  0  0
  183.6210  178.7650  138.6470 N   0  0  0  0  0  0  0  0  0  0  0  0
  191.8060  177.1540  145.2860 C   0  0  0  0  0  2  0  0  0  0  0  0
  190.9360  176.7510  146.4420 C   0  0  0  0  0  0  0  0  0  0  0  0
  191.4690  175.6600  147.3430 C   0  0  0  0  0  1  0  0  0  0  0  0
  189.9110  177.3760  146.6960 O   0  0  0  0  0  0  0  0  0  0  0  0
  1 20  1  0  0  0  0
  2 24  1  6  0  0  0
  2 12  1  0  0  0  0
  4  3  2  0  0  0  0
  5 25  1  6  0  0  0
  5 27  1  0  0  0  0
  6 18  1  6  0  0  0
  6 28  1  0  0  0  0
  6  5  1  0  0  0  0
  7 24  1  1  0  0  0
  7 17  1  0  0  0  0
  9 26  1  6  0  0  0
  9 28  1  0  0  0  0
 10 20  1  0  0  0  0
 11  3  1  0  0  0  0
 12 13  1  0  0  0  0
 12  8  1  0  0  0  0
 13 11  2  0  0  0  0
 14 22  1  0  0  0  0
 15 18  1  0  0  0  0
 15  9  1  0  0  0  0
 16  1  1  0  0  0  0
 17  8  1  1  0  0  0
 17 10  1  0  0  0  0
 19  7  1  0  0  0  0
 19 16  1  0  0  0  0
 20 29  1  1  0  0  0
 21  4  1  0  0  0  0
 22 21  2  0  0  0  0
 22 13  1  0  0  0  0
 23 14  2  0  0  0  0
 27 14  1  1  0  0  0
 27  2  1  0  0  0  0
 28 23  1  0  0  0  0
 29 30  1  0  0  0  0
 30 32  2  0  0  0  0
 30 31  1  0  0  0  0
M  END
>  <MODEL>
5

>  <REMARK>
 VINA RESULT:      -7.5      2.353      3.437
  Name = 
  2 active torsions:
  status: ('A' for Active; 'I' for Inactive)
    1  A    between atoms: C_20  and  C_29
    2  A    between atoms: C_29  and  C_30
                            x       y       z     vdW  Elec       q    Type
                         _______ _______ _______ _____ _____    ______ ____

>  <TORSDO>
F 2

$$$$
=
 OpenBabel11122410533D

 32 37  0  0  1  0  0  0  0  0999 V2000
  181.5290  180.8690  139.3940 C   0  0  0  0  0  2  0  0  0  0  0  0
  185.0090  178.3790  140.7200 C   0  0  2  0  0  3  0  0  0  0  0  0
  183.7770  178.9140  145.4550 C   0  0  0  0  0  3  0  0  0  0  0  0
  185.1320  178.9990  145.7990 C   0  0  0  0  0  3  0  0  0  0  0  0
  187.4630  178.2590  140.1520 C   0  0  1  0  0  3  0  0  0  0  0  0
  188.6670  177.3680  140.4600 C   0  0  1  0  0  3  0  0  0  0  0  0
  183.1740  178.2530  138.9840 C   0  0  1  0  0  3  0  0  0  0  0  0
  182.6770  178.8270  141.4190 C   0  0  0  0  0  2  0  0  0  0  0  0
  190.2760  177.5160  142.2590 C   0  0  2  0  0  3  0  0  0  0  0  0
  180.7680  178.4820  139.7510 C   0  0  0  0  0  2  0  0  0  0  0  0
  183.3990  178.6910  144.1510 C   0  0  0  0  0  3  0  0  0  0  0  0
  183.9940  178.2570  141.7580 N   0  0  0  0  0  0  0  0  0  0  0  0
  184.3730  178.3910  143.1280 C   0  0  0  0  0  0  0  0  0  0  0  0
  186.7120  177.8780  142.5250 C   0  0  0  0  0  0  0  0  0  0  0  0
  191.0290  177.4830  140.9040 C   0  0  0  0  0  2  0  0  0  0  0  0
  182.9290  180.6040  138.8040 C   0  0  0  0  0  2  0  0  0  0  0  0
  182.1970  178.1630  140.1360 C   0  0  1  0  0  3  0  0  0  0  0  0
  189.9790  177.9020  139.8580 C   0  0  0  0  0  2  0  0  0  0  0  0
  183.0800  179.4060  138.1040 O   0  0  0  0  0  0  0  0  0  0  0  0
  180.5430  179.7890  138.9780 C   0  0  1  0  0  3  0  0  0  0  0  0
  186.1040  178.6250  144.8410 C   0  0  0  0  0  3  0  0  0  0  0  0
  185.6810  178.2730  143.5670 C   0  0  0  0  0  0  0  0  0  0  0  0
  187.9100  177.6240  142.8910 C   0  0  0  0  0  3  0  0  0  0  0  0
  184.5900  177.8870  139.3010 C   0  0  0  0  0  2  0  0  0  0  0  0
  187.2220  178.5660  138.8200 O   0  0  0  0  0  1  0  0  0  0  0  0
  190.7720  176.4730  143.2550 C   0  0  0  0  0  1  0  0  0  0  0  0
  186.2880  177.7510  141.0940 C   0  0  1  0  0  3  0  0  0  0  0  0
  188.9390  177.2470  141.8680 N   0  0  0  0  0  0  0  0  0  0  0  0
  179.0810  180.2250  139.1110 C   0  0  0  0  0  2  0  0  0  0  0  0
  178.9320  181.4330  139.9910 C   0  0  0  0  0  0  0  0  0  0  0  0
  178.9320  181.1880  141.4840 C   0  0  0  0  0  1  0  0  0  0  0  0
  178.9400  182.5600  139.5060 O   0  0  0  0  0  0  0  0  0  0  0  0
  2 24  1  6  0  0  0
  2 27  1  0  0  0  0
  2 12  1  0  0  0  0
  3  4  1  0  0  0  0
  5 25  1  6  0  0  0
  5  6  1  0  0  0  0
  5 27  1  0  0  0  0
  6 18  1  6  0  0  0
  6 28  1  0  0  0  0
  7 24  1  1  0  0  0
  7 17  1  0  0  0  0
  8 12  1  0  0  0  0
  9 26  1  1  0  0  0
 11  3  2  0  0  0  0
 12 13  1  0  0  0  0
 13 22  2  0  0  0  0
 13 11  1  0  0  0  0
 14 23  2  0  0  0  0
 14 22  1  0  0  0  0
 15  9  1  0  0  0  0
 16  1  1  0  0  0  0
 17 10  1  6  0  0  0
 17  8  1  0  0  0  0
 18 15  1  0  0  0  0
 19 16  1  0  0  0  0
 19  7  1  0  0  0  0
 20 29  1  1  0  0  0
 20  1  1  0  0  0  0
 20 10  1  0  0  0  0
 21  4  2  0  0  0  0
 22 21  1  0  0  0  0
 27 14  1  1  0  0  0
 28  9  1  0  0  0  0
 28 23  1  0  0  0  0
 29 30  1  0  0  0  0
 30 31  1  0  0  0  0
 32 30  2  0  0  0  0
M  END
>  <MODEL>
6

>  <REMARK>
 VINA RESULT:      -7.5      3.998      8.485
  Name = 
  2 active torsions:
  status: ('A' for Active; 'I' for Inactive)
    1  A    between atoms: C_20  and  C_29
    2  A    between atoms: C_29  and  C_30
                            x       y       z     vdW  Elec       q    Type
                         _______ _______ _______ _____ _____    ______ ____

>  <TORSDO>
F 2

$$$$
=
 OpenBabel11122410533D

 32 37  0  0  1  0  0  0  0  0999 V2000
  186.1230  176.9820  145.3110 C   0  0  0  0  0  2  0  0  0  0  0  0
  183.9630  178.5580  141.7170 C   0  0  2  0  0  3  0  0  0  0  0  0
  179.6780  178.6260  144.1370 C   0  0  0  0  0  3  0  0  0  0  0  0
  179.0140  178.2130  142.9740 C   0  0  0  0  0  3  0  0  0  0  0  0
  183.9130  178.0090  139.2570 C   0  0  1  0  0  3  0  0  0  0  0  0
  183.3120  178.5750  137.9690 C   0  0  1  0  0  3  0  0  0  0  0  0
  186.0940  179.0570  142.9850 C   0  0  1  0  0  3  0  0  0  0  0  0
  183.8600  178.7680  144.1810 C   0  0  0  0  0  2  0  0  0  0  0  0
  181.1760  178.1160  136.9330 C   0  0  2  0  0  3  0  0  0  0  0  0
  185.9400  179.5010  145.4770 C   0  0  0  0  0  2  0  0  0  0  0  0
  181.0330  178.8660  144.1210 C   0  0  0  0  0  3  0  0  0  0  0  0
  183.2040  178.9970  142.8800 N   0  0  0  0  0  0  0  0  0  0  0  0
  181.7840  178.8470  142.8880 C   0  0  0  0  0  0  0  0  0  0  0  0
  181.7930  178.7030  140.4220 C   0  0  0  0  0  0  0  0  0  0  0  0
  182.3060  177.8780  135.8980 C   0  0  0  0  0  2  0  0  0  0  0  0
  186.3500  176.8430  143.7920 C   0  0  0  0  0  2  0  0  0  0  0  0
  185.2150  179.4610  144.1490 C   0  0  1  0  0  3  0  0  0  0  0  0
  183.5800  177.6870  136.7400 C   0  0  0  0  0  2  0  0  0  0  0  0
  186.9810  177.9200  143.1680 O   0  0  0  0  0  0  0  0  0  0  0  0
  186.7570  178.2550  145.8490 C   0  0  1  0  0  3  0  0  0  0  0  0
  179.7030  178.2690  141.7390 C   0  0  0  0  0  3  0  0  0  0  0  0
  181.0380  178.6470  141.7390 C   0  0  0  0  0  0  0  0  0  0  0  0
  181.1430  178.6580  139.3230 C   0  0  0  0  0  3  0  0  0  0  0  0
  185.4370  179.0620  141.6410 C   0  0  0  0  0  2  0  0  0  0  0  0
  185.2670  177.7000  139.2460 O   0  0  0  0  0  1  0  0  0  0  0  0
  180.0800  179.0500  136.4300 C   0  0  0  0  0  1  0  0  0  0  0  0
  183.2820  178.8550  140.4450 C   0  0  1  0  0  3  0  0  0  0  0  0
  181.8790  178.6990  138.0180 N   0  0  0  0  0  0  0  0  0  0  0  0
  186.9900  178.2200  147.3620 C   0  0  0  0  0  2  0  0  0  0  0  0
  188.4290  177.9610  147.7040 C   0  0  0  0  0  0  0  0  0  0  0  0
  189.3230  177.5030  146.5720 C   0  0  0  0  0  1  0  0  0  0  0  0
  188.8630  178.2380  148.8170 O   0  0  0  0  0  0  0  0  0  0  0  0
  1 20  1  0  0  0  0
  2 24  1  6  0  0  0
  2 12  1  0  0  0  0
  4  3  2  0  0  0  0
  5 25  1  6  0  0  0
  5 27  1  0  0  0  0
  6 18  1  6  0  0  0
  6 28  1  0  0  0  0
  6  5  1  0  0  0  0
  7 24  1  6  0  0  0
  7 19  1  0  0  0  0
  7 17  1  0  0  0  0
  9 26  1  6  0  0  0
  9 28  1  0  0  0  0
 10 20  1  0  0  0  0
 11  3  1  0  0  0  0
 12 13  1  0  0  0  0
 12  8  1  0  0  0  0
 13 11  2  0  0  0  0
 14 22  1  0  0  0  0
 15 18  1  0  0  0  0
 15  9  1  0  0  0  0
 16  1  1  0  0  0  0
 17  8  1  1  0  0  0
 17 10  1  0  0  0  0
 19 16  1  0  0  0  0
 20 29  1  1  0  0  0
 21 22  2  0  0  0  0
 21  4  1  0  0  0  0
 22 13  1  0  0  0  0
 23 14  2  0  0  0  0
 27 14  1  1  0  0  0
 27  2  1  0  0  0  0
 28 23  1  0  0  0  0
 29 30  1  0  0  0  0
 30 32  2  0  0  0  0
 31 30  1  0  0  0  0
M  END
>  <MODEL>
7

>  <REMARK>
 VINA RESULT:      -7.0      3.996      5.439
  Name = 
  2 active torsions:
  status: ('A' for Active; 'I' for Inactive)
    1  A    between atoms: C_20  and  C_29
    2  A    between atoms: C_29  and  C_30
                            x       y       z     vdW  Elec       q    Type
                         _______ _______ _______ _____ _____    ______ ____

>  <TORSDO>
F 2

$$$$
=
 OpenBabel11122410533D

 32 37  0  0  1  0  0  0  0  0999 V2000
  188.3000  179.4660  137.5140 C   0  0  0  0  0  2  0  0  0  0  0  0
  188.3730  177.6070  141.5890 C   0  0  2  0  0  3  0  0  0  0  0  0
  183.8260  179.2160  142.5660 C   0  0  0  0  0  3  0  0  0  0  0  0
  184.2000  179.4690  143.8920 C   0  0  0  0  0  3  0  0  0  0  0  0
  190.0170  177.5060  143.4970 C   0  0  1  0  0  3  0  0  0  0  0  0
  190.1670  176.7960  144.8440 C   0  0  1  0  0  3  0  0  0  0  0  0
  188.9530  176.9390  139.2190 C   0  0  1  0  0  3  0  0  0  0  0  0
  186.7370  178.0650  139.7890 C   0  0  0  0  0  2  0  0  0  0  0  0
  189.4290  177.4860  147.0410 C   0  0  2  0  0  3  0  0  0  0  0  0
  187.1810  177.1980  137.4240 C   0  0  0  0  0  2  0  0  0  0  0  0
  184.7180  178.6540  141.6830 C   0  0  0  0  0  3  0  0  0  0  0  0
  186.9730  177.6810  141.1930 N   0  0  0  0  0  0  0  0  0  0  0  0
  186.0070  178.1730  142.1220 C   0  0  0  0  0  0  0  0  0  0  0  0
  187.5540  177.6760  143.9830 C   0  0  0  0  0  0  0  0  0  0  0  0
  190.9450  177.1670  147.0900 C   0  0  0  0  0  2  0  0  0  0  0  0
  189.4300  179.1520  138.5160 C   0  0  0  0  0  2  0  0  0  0  0  0
  187.4790  177.0750  138.9030 C   0  0  1  0  0  3  0  0  0  0  0  0
  191.4130  177.2470  145.6260 C   0  0  0  0  0  2  0  0  0  0  0  0
  189.8770  177.8300  138.5380 O   0  0  0  0  0  0  0  0  0  0  0  0
  187.9800  178.2570  136.6500 C   0  0  1  0  0  3  0  0  0  0  0  0
  185.4180  178.9320  144.3730 C   0  0  0  0  0  3  0  0  0  0  0  0
  186.2380  178.2500  143.4850 C   0  0  0  0  0  0  0  0  0  0  0  0
  187.7690  177.5970  145.2400 C   0  0  0  0  0  3  0  0  0  0  0  0
  189.2940  176.7530  140.6640 C   0  0  0  0  0  2  0  0  0  0  0  0
  191.1000  177.4580  142.6290 O   0  0  0  0  0  1  0  0  0  0  0  0
  188.6190  176.7550  148.1070 C   0  0  0  0  0  1  0  0  0  0  0  0
  188.5500  177.1730  142.9850 C   0  0  1  0  0  3  0  0  0  0  0  0
  189.0690  177.0440  145.7420 N   0  0  0  0  0  0  0  0  0  0  0  0
  187.2440  178.6180  135.3570 C   0  0  0  0  0  2  0  0  0  0  0  0
  186.5110  177.4410  134.7790 C   0  0  0  0  0  0  0  0  0  0  0  0
  187.3090  176.1690  134.5950 C   0  0  0  0  0  1  0  0  0  0  0  0
  185.2990  177.4930  134.5950 O   0  0  0  0  0  0  0  0  0  0  0  0
  1 16  1  0  0  0  0
  2 24  1  6  0  0  0
  2 27  1  0  0  0  0
  3  4  1  0  0  0  0
  4 21  2  0  0  0  0
  5 25  1  6  0  0  0
  5  6  1  0  0  0  0
  6 18  1  1  0  0  0
  6 28  1  0  0  0  0
  7 24  1  1  0  0  0
  8 12  1  0  0  0  0
  9 15  1  0  0  0  0
  9 26  1  1  0  0  0
 11 13  1  0  0  0  0
 11  3  2  0  0  0  0
 12  2  1  0  0  0  0
 12 13  1  0  0  0  0
 13 22  2  0  0  0  0
 14 23  2  0  0  0  0
 16 19  1  0  0  0  0
 17 10  1  6  0  0  0
 17  7  1  0  0  0  0
 17  8  1  0  0  0  0
 18 15  1  0  0  0  0
 19  7  1  0  0  0  0
 20 29  1  6  0  0  0
 20 10  1  0  0  0  0
 20  1  1  0  0  0  0
 22 14  1  0  0  0  0
 22 21  1  0  0  0  0
 23 28  1  0  0  0  0
 27  5  1  0  0  0  0
 27 14  1  1  0  0  0
 28  9  1  0  0  0  0
 30 29  1  0  0  0  0
 31 30  1  0  0  0  0
 32 30  2  0  0  0  0
M  END
>  <MODEL>
8

>  <REMARK>
 VINA RESULT:      -6.9      1.966      7.990
  Name = 
  2 active torsions:
  status: ('A' for Active; 'I' for Inactive)
    1  A    between atoms: C_20  and  C_29
    2  A    between atoms: C_29  and  C_30
                            x       y       z     vdW  Elec       q    Type
                         _______ _______ _______ _____ _____    ______ ____

>  <TORSDO>
F 2

$$$$
=
 OpenBabel11122410533D

 32 37  0  0  1  0  0  0  0  0999 V2000
  189.1820  179.0720  147.3810 C   0  0  0  0  0  2  0  0  0  0  0  0
  185.8460  178.1150  144.5480 C   0  0  2  0  0  3  0  0  0  0  0  0
  188.9450  177.9250  140.7300 C   0  0  0  0  0  3  0  0  0  0  0  0
  187.9780  178.5260  139.9140 C   0  0  0  0  0  3  0  0  0  0  0  0
  183.5220  179.0010  144.1310 C   0  0  1  0  0  3  0  0  0  0  0  0
  182.2970  178.6480  143.2860 C   0  0  1  0  0  3  0  0  0  0  0  0
  186.6500  177.3410  146.8180 C   0  0  1  0  0  3  0  0  0  0  0  0
  188.2430  177.5720  144.8400 C   0  0  0  0  0  2  0  0  0  0  0  0
  181.7150  179.3500  141.0470 C   0  0  2  0  0  3  0  0  0  0  0  0
  189.0540  176.5660  147.0480 C   0  0  0  0  0  2  0  0  0  0  0  0
  188.6630  177.6230  142.0420 C   0  0  0  0  0  3  0  0  0  0  0  0
  187.0580  177.5580  143.9630 N   0  0  0  0  0  0  0  0  0  0  0  0
  187.3320  177.7750  142.5780 C   0  0  0  0  0  0  0  0  0  0  0  0
  184.9410  178.2570  142.1890 C   0  0  0  0  0  0  0  0  0  0  0  0
  180.5380  179.6730  142.0040 C   0  0  0  0  0  2  0  0  0  0  0  0
  187.6760  179.4080  147.3640 C   0  0  0  0  0  2  0  0  0  0  0  0
  187.8880  176.8250  146.1170 C   0  0  1  0  0  3  0  0  0  0  0  0
  181.1640  179.6830  143.4100 C   0  0  0  0  0  2  0  0  0  0  0  0
  186.8200  178.3970  147.8030 O   0  0  0  0  0  0  0  0  0  0  0  0
  189.4340  177.7070  148.0030 C   0  0  1  0  0  3  0  0  0  0  0  0
  186.6450  178.6080  140.3820 C   0  0  0  0  0  3  0  0  0  0  0  0
  186.3650  178.1680  141.6680 C   0  0  0  0  0  0  0  0  0  0  0  0
  183.9860  178.4850  141.3700 C   0  0  0  0  0  3  0  0  0  0  0  0
  185.4510  177.5540  145.9490 C   0  0  0  0  0  2  0  0  0  0  0  0
  183.3160  179.2410  145.4830 O   0  0  0  0  0  1  0  0  0  0  0  0
  181.2960  178.5490  139.8180 C   0  0  0  0  0  1  0  0  0  0  0  0
  184.6840  178.0310  143.6470 C   0  0  1  0  0  3  0  0  0  0  0  0
  182.5780  178.5890  141.8760 N   0  0  0  0  0  0  0  0  0  0  0  0
  190.8750  177.5210  148.4850 C   0  0  0  0  0  2  0  0  0  0  0  0
  191.7290  176.8370  147.4550 C   0  0  0  0  0  0  0  0  0  0  0  0
  192.4290  175.5680  147.8910 C   0  0  0  0  0  1  0  0  0  0  0  0
  191.7400  177.2320  146.2940 O   0  0  0  0  0  0  0  0  0  0  0  0
  1 20  1  0  0  0  0
  2 24  1  1  0  0  0
  3 11  1  0  0  0  0
  4 21  1  0  0  0  0
  4  3  2  0  0  0  0
  5 25  1  1  0  0  0
  6 18  1  6  0  0  0
  6  5  1  0  0  0  0
  7 24  1  6  0  0  0
  7 19  1  0  0  0  0
  9 26  1  6  0  0  0
  9 28  1  0  0  0  0
  9 15  1  0  0  0  0
 10 20  1  0  0  0  0
 11 13  2  0  0  0  0
 12  2  1  0  0  0  0
 12  8  1  0  0  0  0
 13 12  1  0  0  0  0
 15 18  1  0  0  0  0
 16  1  1  0  0  0  0
 16 19  1  0  0  0  0
 17  8  1  6  0  0  0
 17  7  1  0  0  0  0
 17 10  1  0  0  0  0
 20 29  1  6  0  0  0
 21 22  2  0  0  0  0
 22 14  1  0  0  0  0
 22 13  1  0  0  0  0
 23 28  1  0  0  0  0
 23 14  2  0  0  0  0
 27 14  1  6  0  0  0
 27  5  1  0  0  0  0
 27  2  1  0  0  0  0
 28  6  1  0  0  0  0
 30 31  1  0  0  0  0
 30 29  1  0  0  0  0
 32 30  2  0  0  0  0
M  END
>  <MODEL>
9

>  <REMARK>
 VINA RESULT:      -6.4      3.210      6.000
  Name = 
  2 active torsions:
  status: ('A' for Active; 'I' for Inactive)
    1  A    between atoms: C_20  and  C_29
    2  A    between atoms: C_29  and  C_30
                            x       y       z     vdW  Elec       q    Type
                         _______ _______ _______ _____ _____    ______ ____

>  <TORSDO>
F 2

$$$$
