=
 OpenBabel11122411543D

 28 32  0  0  1  0  0  0  0  0999 V2000
  189.3960  178.1420  138.1730 C   0  0  0  0  0  0  0  0  0  0  0  0
  192.8500  176.4720  135.1120 F   0  0  0  0  0  0  0  0  0  0  0  0
  187.5290  173.6250  137.4340 C   0  0  0  0  0  1  0  0  0  0  0  0
  189.6690  176.6860  140.5530 C   0  0  0  0  0  3  0  0  0  0  0  0
  189.3100  173.4830  135.7470 C   0  0  0  0  0  0  0  0  0  0  0  0
  189.1570  178.8950  136.8960 C   0  0  0  0  0  2  0  0  0  0  0  0
  193.9050  176.9510  137.0540 O   0  0  0  0  0  1  0  0  0  0  0  0
  193.2260  175.9600  136.3450 C   0  0  1  0  0  0  0  0  0  0  0  0
  193.3660  173.6380  135.5200 C   0  0  1  0  0  3  0  0  0  0  0  0
  191.9950  175.5100  137.1620 C   0  0  2  0  0  3  0  0  0  0  0  0
  186.1120  177.2740  137.1410 O   0  0  0  0  0  0  0  0  0  0  0  0
  189.8810  175.7440  135.8970 C   0  0  1  0  0  3  0  0  0  0  0  0
  192.4490  173.1540  136.4720 O   0  0  0  0  0  0  0  0  0  0  0  0
  194.1660  174.7890  136.1120 C   0  0  0  0  0  2  0  0  0  0  0  0
  187.0800  177.5280  136.4440 C   0  0  0  0  0  0  0  0  0  0  0  0
  190.1490  176.9470  138.1810 C   0  0  0  0  0  0  0  0  0  0  0  0
  188.0870  174.2110  136.1490 C   0  0  2  0  0  3  0  0  0  0  0  0
  194.3090  172.5240  135.1200 C   0  0  0  0  0  1  0  0  0  0  0  0
  187.6650  176.4600  135.5780 C   0  0  0  0  0  2  0  0  0  0  0  0
  190.2610  176.2190  139.3780 C   0  0  0  0  0  3  0  0  0  0  0  0
  188.8140  178.6060  139.3600 C   0  0  0  0  0  3  0  0  0  0  0  0
  188.9530  177.8830  140.5460 C   0  0  0  0  0  3  0  0  0  0  0  0
  187.6800  178.9020  136.4850 C   0  0  0  0  0  2  0  0  0  0  0  0
  190.4740  174.3690  135.6130 C   0  0  1  0  0  3  0  0  0  0  0  0
  188.5030  175.5910  136.3920 N   0  0  2  0  0  0  0  0  0  0  0  0
  191.4640  174.1360  136.7400 C   0  0  2  0  0  3  0  0  0  0  0  0
  189.3380  172.2880  135.4970 O   0  0  0  0  0  0  0  0  0  0  0  0
  190.8130  176.4480  136.9110 C   0  0  1  0  0  3  0  0  0  0  0  0
  1 16  2  0  0  0  0
  1 21  1  0  0  0  0
  5 17  1  0  0  0  0
  6  1  1  0  0  0  0
  8  2  1  6  0  0  0
  8  7  1  0  0  0  0
  8 10  1  0  0  0  0
  9 18  1  1  0  0  0
  9 14  1  0  0  0  0
  9 13  1  0  0  0  0
 12 25  1  0  0  0  0
 12 28  1  0  0  0  0
 13 26  1  0  0  0  0
 14  8  1  0  0  0  0
 15 23  1  0  0  0  0
 15 11  2  0  0  0  0
 16 20  1  0  0  0  0
 17 25  1  0  0  0  0
 17  3  1  0  0  0  0
 19 25  1  0  0  0  0
 19 15  1  0  0  0  0
 20  4  2  0  0  0  0
 21 22  2  0  0  0  0
 22  4  1  0  0  0  0
 23  6  1  0  0  0  0
 24  5  1  0  0  0  0
 24 12  1  0  0  0  0
 24 26  1  0  0  0  0
 26 10  1  0  0  0  0
 27  5  2  0  0  0  0
 28 10  1  0  0  0  0
 28 16  1  0  0  0  0
M  END
>  <MODEL>
1

>  <REMARK>
 VINA RESULT:      -6.0      0.000      0.000
  Name = 
  0 active torsions:
  status: ('A' for Active; 'I' for Inactive)
                            x       y       z     vdW  Elec       q    Type
                         _______ _______ _______ _____ _____    ______ ____

>  <TORSDO>
F 0

$$$$
=
 OpenBabel11122411543D

 28 32  0  0  1  0  0  0  0  0999 V2000
  179.5140  177.4870  138.9440 C   0  0  0  0  0  0  0  0  0  0  0  0
  181.1950  180.0790  142.7580 F   0  0  0  0  0  0  0  0  0  0  0  0
  184.3140  177.4100  137.7630 C   0  0  0  0  0  1  0  0  0  0  0  0
  180.4540  174.8680  139.2850 C   0  0  0  0  0  3  0  0  0  0  0  0
  184.5010  178.9890  139.6360 C   0  0  0  0  0  0  0  0  0  0  0  0
  179.0520  178.8900  138.6730 C   0  0  0  0  0  2  0  0  0  0  0  0
  180.2180  178.2340  143.6280 O   0  0  0  0  0  1  0  0  0  0  0  0
  181.4110  178.7610  143.1330 C   0  0  1  0  0  0  0  0  0  0  0  0
  183.7990  179.1270  143.6380 C   0  0  1  0  0  3  0  0  0  0  0  0
  181.8780  177.9090  141.9340 C   0  0  2  0  0  3  0  0  0  0  0  0
  181.0280  178.4280  135.8730 O   0  0  0  0  0  0  0  0  0  0  0  0
  182.1930  179.2540  139.8810 C   0  0  1  0  0  3  0  0  0  0  0  0
  184.2290  178.1270  142.7460 O   0  0  0  0  0  0  0  0  0  0  0  0
  182.4550  178.7410  144.2380 C   0  0  0  0  0  2  0  0  0  0  0  0
  180.7680  179.1340  136.8330 C   0  0  0  0  0  0  0  0  0  0  0  0
  180.5650  177.2330  139.8530 C   0  0  0  0  0  0  0  0  0  0  0  0
  183.8990  178.7670  138.3050 C   0  0  2  0  0  3  0  0  0  0  0  0
  184.8170  179.2820  144.7470 C   0  0  0  0  0  1  0  0  0  0  0  0
  181.8790  179.7640  137.6080 C   0  0  0  0  0  2  0  0  0  0  0  0
  181.0360  175.9170  139.9990 C   0  0  0  0  0  3  0  0  0  0  0  0
  178.9310  176.4270  138.2390 C   0  0  0  0  0  3  0  0  0  0  0  0
  179.3960  175.1220  138.4110 C   0  0  0  0  0  3  0  0  0  0  0  0
  179.3360  179.3370  137.2350 C   0  0  0  0  0  2  0  0  0  0  0  0
  183.4940  179.2550  140.6730 C   0  0  1  0  0  3  0  0  0  0  0  0
  182.4520  178.7780  138.5120 N   0  0  2  0  0  0  0  0  0  0  0  0
  183.3690  178.0770  141.6210 C   0  0  2  0  0  3  0  0  0  0  0  0
  185.7040  179.0070  139.8430 O   0  0  0  0  0  0  0  0  0  0  0  0
  181.1860  178.3650  140.6490 C   0  0  1  0  0  3  0  0  0  0  0  0
  1 16  1  0  0  0  0
  3 17  1  0  0  0  0
  4 20  1  0  0  0  0
  5 27  2  0  0  0  0
  5 24  1  0  0  0  0
  6  1  1  0  0  0  0
  8  2  1  6  0  0  0
  8  7  1  0  0  0  0
  8 14  1  0  0  0  0
  9 14  1  0  0  0  0
  9 18  1  1  0  0  0
 10  8  1  0  0  0  0
 11 15  2  0  0  0  0
 12 28  1  0  0  0  0
 12 24  1  0  0  0  0
 13  9  1  0  0  0  0
 15 23  1  0  0  0  0
 15 19  1  0  0  0  0
 16 20  2  0  0  0  0
 16 28  1  0  0  0  0
 17 25  1  0  0  0  0
 17  5  1  0  0  0  0
 19 25  1  0  0  0  0
 21 22  1  0  0  0  0
 21  1  2  0  0  0  0
 22  4  2  0  0  0  0
 23  6  1  0  0  0  0
 24 26  1  0  0  0  0
 25 12  1  0  0  0  0
 26 10  1  0  0  0  0
 26 13  1  0  0  0  0
 28 10  1  0  0  0  0
M  END
>  <MODEL>
2

>  <REMARK>
 VINA RESULT:      -5.8      7.406     10.467
  Name = 
  0 active torsions:
  status: ('A' for Active; 'I' for Inactive)
                            x       y       z     vdW  Elec       q    Type
                         _______ _______ _______ _____ _____    ______ ____

>  <TORSDO>
F 0

$$$$
=
 OpenBabel11122411543D

 28 32  0  0  1  0  0  0  0  0999 V2000
  182.5720  177.4050  137.7460 C   0  0  0  0  0  0  0  0  0  0  0  0
  184.8310  173.0670  138.1640 F   0  0  0  0  0  0  0  0  0  0  0  0
  186.9370  178.7190  135.8330 C   0  0  0  0  0  1  0  0  0  0  0  0
  182.2200  177.8580  135.0020 C   0  0  0  0  0  3  0  0  0  0  0  0
  187.6120  176.4800  136.5870 C   0  0  0  0  0  0  0  0  0  0  0  0
  182.8050  177.2470  139.2210 C   0  0  0  0  0  2  0  0  0  0  0  0
  183.0590  172.7280  136.8000 O   0  0  0  0  0  1  0  0  0  0  0  0
  184.4040  173.0920  136.8450 C   0  0  1  0  0  0  0  0  0  0  0  0
  186.6450  172.5840  135.9420 C   0  0  1  0  0  3  0  0  0  0  0  0
  184.5660  174.5000  136.2320 C   0  0  2  0  0  3  0  0  0  0  0  0
  184.6440  180.1280  138.6920 O   0  0  0  0  0  0  0  0  0  0  0  0
  185.6460  176.0930  137.7880 C   0  0  1  0  0  3  0  0  0  0  0  0
  186.6760  173.7380  135.1380 O   0  0  0  0  0  0  0  0  0  0  0  0
  185.2160  172.0750  136.0590 C   0  0  0  0  0  2  0  0  0  0  0  0
  184.6270  178.9970  139.1500 C   0  0  0  0  0  0  0  0  0  0  0  0
  183.3050  176.6420  136.8100 C   0  0  0  0  0  0  0  0  0  0  0  0
  187.1100  177.7980  137.0280 C   0  0  2  0  0  3  0  0  0  0  0  0
  187.5100  171.5120  135.3150 C   0  0  0  0  0  1  0  0  0  0  0  0
  185.8190  178.1130  138.9760 C   0  0  0  0  0  2  0  0  0  0  0  0
  183.1300  176.8940  135.4390 C   0  0  0  0  0  3  0  0  0  0  0  0
  181.6540  178.3630  137.2970 C   0  0  0  0  0  3  0  0  0  0  0  0
  181.4750  178.5870  135.9310 C   0  0  0  0  0  3  0  0  0  0  0  0
  183.4000  178.5070  139.8610 C   0  0  0  0  0  2  0  0  0  0  0  0
  186.7270  175.3770  136.9880 C   0  0  1  0  0  3  0  0  0  0  0  0
  185.8040  177.5480  137.6350 N   0  0  2  0  0  0  0  0  0  0  0  0
  186.0010  174.8010  135.7860 C   0  0  2  0  0  3  0  0  0  0  0  0
  188.6720  176.3170  136.0040 O   0  0  0  0  0  0  0  0  0  0  0  0
  184.2780  175.5770  137.2790 C   0  0  1  0  0  3  0  0  0  0  0  0
  1  6  1  0  0  0  0
  3 17  1  0  0  0  0
  4 20  2  0  0  0  0
  4 22  1  0  0  0  0
  5 24  1  0  0  0  0
  5 17  1  0  0  0  0
  6 23  1  0  0  0  0
  8  7  1  6  0  0  0
  8  2  1  0  0  0  0
  9 18  1  6  0  0  0
  9 14  1  0  0  0  0
 10  8  1  0  0  0  0
 10 28  1  0  0  0  0
 11 15  2  0  0  0  0
 13 26  1  0  0  0  0
 13  9  1  0  0  0  0
 14  8  1  0  0  0  0
 15 23  1  0  0  0  0
 16 28  1  0  0  0  0
 16  1  2  0  0  0  0
 17 25  1  0  0  0  0
 19 15  1  0  0  0  0
 20 16  1  0  0  0  0
 21  1  1  0  0  0  0
 22 21  2  0  0  0  0
 24 12  1  0  0  0  0
 25 12  1  0  0  0  0
 25 19  1  0  0  0  0
 26 10  1  0  0  0  0
 26 24  1  0  0  0  0
 27  5  2  0  0  0  0
 28 12  1  0  0  0  0
M  END
>  <MODEL>
3

>  <REMARK>
 VINA RESULT:      -5.0      4.220      6.782
  Name = 
  0 active torsions:
  status: ('A' for Active; 'I' for Inactive)
                            x       y       z     vdW  Elec       q    Type
                         _______ _______ _______ _____ _____    ______ ____

>  <TORSDO>
F 0

$$$$
=
 OpenBabel11122411543D

 28 32  0  0  1  0  0  0  0  0999 V2000
  180.2120  175.8710  137.1470 C   0  0  0  0  0  0  0  0  0  0  0  0
  184.8830  174.5480  137.8690 F   0  0  0  0  0  0  0  0  0  0  0  0
  181.9520  180.2650  138.5950 C   0  0  0  0  0  1  0  0  0  0  0  0
  180.2040  177.5860  134.9290 C   0  0  0  0  0  3  0  0  0  0  0  0
  183.9830  178.9720  139.0860 C   0  0  0  0  0  0  0  0  0  0  0  0
  180.1710  175.0220  138.3850 C   0  0  0  0  0  2  0  0  0  0  0  0
  184.4510  174.1730  135.6810 O   0  0  0  0  0  1  0  0  0  0  0  0
  184.8930  175.1190  136.6050 C   0  0  1  0  0  0  0  0  0  0  0  0
  186.7260  176.6810  137.1480 C   0  0  1  0  0  3  0  0  0  0  0  0
  183.9680  176.3540  136.5430 C   0  0  2  0  0  3  0  0  0  0  0  0
  178.9680  177.9760  139.7210 O   0  0  0  0  0  0  0  0  0  0  0  0
  182.9660  176.8980  138.7390 C   0  0  1  0  0  3  0  0  0  0  0  0
  185.9720  177.8190  136.8050 O   0  0  0  0  0  0  0  0  0  0  0  0
  186.3220  175.5090  136.2650 C   0  0  0  0  0  2  0  0  0  0  0  0
  179.7800  177.0700  139.8130 C   0  0  0  0  0  0  0  0  0  0  0  0
  181.4230  176.4460  136.7010 C   0  0  0  0  0  0  0  0  0  0  0  0
  182.5510  179.1350  139.4140 C   0  0  2  0  0  3  0  0  0  0  0  0
  188.1970  176.9740  136.9510 C   0  0  0  0  0  1  0  0  0  0  0  0
  181.1900  177.3780  140.2020 C   0  0  0  0  0  2  0  0  0  0  0  0
  181.3990  177.3180  135.5990 C   0  0  0  0  0  3  0  0  0  0  0  0
  179.0200  176.1390  136.4620 C   0  0  0  0  0  3  0  0  0  0  0  0
  179.0160  176.9900  135.3550 C   0  0  0  0  0  3  0  0  0  0  0  0
  179.3540  175.6630  139.5120 C   0  0  0  0  0  2  0  0  0  0  0  0
  184.3030  177.6160  138.6180 C   0  0  1  0  0  3  0  0  0  0  0  0
  181.9080  177.8770  139.0380 N   0  0  2  0  0  0  0  0  0  0  0  0
  184.6090  177.6150  137.1310 C   0  0  2  0  0  3  0  0  0  0  0  0
  184.8200  179.8490  139.2400 O   0  0  0  0  0  0  0  0  0  0  0  0
  182.7280  176.1390  137.4120 C   0  0  1  0  0  3  0  0  0  0  0  0
  1  6  1  0  0  0  0
  3 17  1  0  0  0  0
  4 22  2  0  0  0  0
  4 20  1  0  0  0  0
  5 27  2  0  0  0  0
  5 17  1  0  0  0  0
  6 23  1  0  0  0  0
  8  7  1  6  0  0  0
  8  2  1  0  0  0  0
  9 18  1  6  0  0  0
 10  8  1  0  0  0  0
 10 26  1  0  0  0  0
 10 28  1  0  0  0  0
 11 15  2  0  0  0  0
 12 25  1  0  0  0  0
 13 26  1  0  0  0  0
 13  9  1  0  0  0  0
 14  8  1  0  0  0  0
 14  9  1  0  0  0  0
 15 19  1  0  0  0  0
 16  1  1  0  0  0  0
 16 28  1  0  0  0  0
 20 16  2  0  0  0  0
 21  1  2  0  0  0  0
 22 21  1  0  0  0  0
 23 15  1  0  0  0  0
 24 12  1  0  0  0  0
 24  5  1  0  0  0  0
 25 17  1  0  0  0  0
 25 19  1  0  0  0  0
 26 24  1  0  0  0  0
 28 12  1  0  0  0  0
M  END
>  <MODEL>
4

>  <REMARK>
 VINA RESULT:      -4.7      5.791      8.757
  Name = 
  0 active torsions:
  status: ('A' for Active; 'I' for Inactive)
                            x       y       z     vdW  Elec       q    Type
                         _______ _______ _______ _____ _____    ______ ____

>  <TORSDO>
F 0

$$$$
=
 OpenBabel11122411543D

 28 32  0  0  1  0  0  0  0  0999 V2000
  181.7900  178.8880  138.1080 C   0  0  0  0  0  0  0  0  0  0  0  0
  185.8280  177.8800  135.5050 F   0  0  0  0  0  0  0  0  0  0  0  0
  181.1540  174.0010  137.7220 C   0  0  0  0  0  1  0  0  0  0  0  0
  182.1750  177.7570  140.6440 C   0  0  0  0  0  3  0  0  0  0  0  0
  183.0720  174.1660  136.1950 C   0  0  0  0  0  0  0  0  0  0  0  0
  181.5020  179.4440  136.7430 C   0  0  0  0  0  2  0  0  0  0  0  0
  186.5400  178.7730  137.4570 O   0  0  0  0  0  1  0  0  0  0  0  0
  186.1940  177.5870  136.8100 C   0  0  1  0  0  0  0  0  0  0  0  0
  186.9720  175.3120  136.2520 C   0  0  1  0  0  3  0  0  0  0  0  0
  185.0360  176.9150  137.5780 C   0  0  2  0  0  3  0  0  0  0  0  0
  178.9310  177.1400  136.9370 O   0  0  0  0  0  0  0  0  0  0  0  0
  183.0620  176.5010  136.1440 C   0  0  1  0  0  3  0  0  0  0  0  0
  186.1120  174.6980  137.1800 O   0  0  0  0  0  0  0  0  0  0  0  0
  187.4080  176.6730  136.7740 C   0  0  0  0  0  2  0  0  0  0  0  0
  179.8720  177.5670  136.2890 C   0  0  0  0  0  0  0  0  0  0  0  0
  182.8060  177.9250  138.2980 C   0  0  0  0  0  0  0  0  0  0  0  0
  181.6770  174.5950  136.4260 C   0  0  2  0  0  3  0  0  0  0  0  0
  188.1920  174.4400  136.0440 C   0  0  0  0  0  1  0  0  0  0  0  0
  180.7800  176.6090  135.5880 C   0  0  0  0  0  2  0  0  0  0  0  0
  182.9730  177.3540  139.5720 C   0  0  0  0  0  3  0  0  0  0  0  0
  181.0000  179.2920  139.1920 C   0  0  0  0  0  3  0  0  0  0  0  0
  181.1940  178.7310  140.4560 C   0  0  0  0  0  3  0  0  0  0  0  0
  180.1150  179.0460  136.2260 C   0  0  0  0  0  2  0  0  0  0  0  0
  183.9950  175.3010  136.0530 C   0  0  1  0  0  3  0  0  0  0  0  0
  181.7200  176.0520  136.5500 N   0  0  2  0  0  0  0  0  0  0  0  0
  184.8960  175.4210  137.2690 C   0  0  2  0  0  3  0  0  0  0  0  0
  183.4130  172.9990  136.0780 O   0  0  0  0  0  0  0  0  0  0  0  0
  183.6920  177.5010  137.1420 C   0  0  1  0  0  3  0  0  0  0  0  0
  1 16  2  0  0  0  0
  1 21  1  0  0  0  0
  5 17  1  0  0  0  0
  6  1  1  0  0  0  0
  8  2  1  6  0  0  0
  8  7  1  0  0  0  0
  8 10  1  0  0  0  0
  9 18  1  1  0  0  0
  9 14  1  0  0  0  0
  9 13  1  0  0  0  0
 12 25  1  0  0  0  0
 12 28  1  0  0  0  0
 13 26  1  0  0  0  0
 14  8  1  0  0  0  0
 15 11  2  0  0  0  0
 16 20  1  0  0  0  0
 17 25  1  0  0  0  0
 17  3  1  0  0  0  0
 19 15  1  0  0  0  0
 19 25  1  0  0  0  0
 20  4  2  0  0  0  0
 21 22  2  0  0  0  0
 22  4  1  0  0  0  0
 23 15  1  0  0  0  0
 23  6  1  0  0  0  0
 24 12  1  0  0  0  0
 24  5  1  0  0  0  0
 24 26  1  0  0  0  0
 26 10  1  0  0  0  0
 27  5  2  0  0  0  0
 28 10  1  0  0  0  0
 28 16  1  0  0  0  0
M  END
>  <MODEL>
5

>  <REMARK>
 VINA RESULT:      -4.6      5.174      7.063
  Name = 
  0 active torsions:
  status: ('A' for Active; 'I' for Inactive)
                            x       y       z     vdW  Elec       q    Type
                         _______ _______ _______ _____ _____    ______ ____

>  <TORSDO>
F 0

$$$$
=
 OpenBabel11122411543D

 28 32  0  0  1  0  0  0  0  0999 V2000
  188.1840  177.2610  137.9550 C   0  0  0  0  0  0  0  0  0  0  0  0
  186.0870  172.8340  138.2640 F   0  0  0  0  0  0  0  0  0  0  0  0
  191.0050  174.9340  134.6280 C   0  0  0  0  0  1  0  0  0  0  0  0
  187.5490  178.2680  135.4170 C   0  0  0  0  0  3  0  0  0  0  0  0
  189.8170  172.9440  135.4450 C   0  0  0  0  0  0  0  0  0  0  0  0
  188.6170  176.7370  139.2930 C   0  0  0  0  0  2  0  0  0  0  0  0
  184.4680  174.2540  137.5720 O   0  0  0  0  0  1  0  0  0  0  0  0
  185.4910  173.4050  137.1490 C   0  0  1  0  0  0  0  0  0  0  0  0
  186.0260  171.4930  135.6820 C   0  0  1  0  0  3  0  0  0  0  0  0
  186.5120  174.2190  136.3250 C   0  0  2  0  0  3  0  0  0  0  0  0
  191.7280  177.0950  137.8250 O   0  0  0  0  0  0  0  0  0  0  0  0
  188.8070  174.0570  137.2340 C   0  0  1  0  0  3  0  0  0  0  0  0
  186.7210  172.2900  134.7540 O   0  0  0  0  0  0  0  0  0  0  0  0
  184.8910  172.2940  136.3030 C   0  0  0  0  0  2  0  0  0  0  0  0
  190.9590  176.3580  138.4210 C   0  0  0  0  0  0  0  0  0  0  0  0
  187.6990  176.3880  136.9560 C   0  0  0  0  0  0  0  0  0  0  0  0
  190.7200  174.0490  135.8300 C   0  0  2  0  0  3  0  0  0  0  0  0
  185.4590  170.2800  134.9780 C   0  0  0  0  0  1  0  0  0  0  0  0
  190.8480  174.9240  138.0160 C   0  0  0  0  0  2  0  0  0  0  0  0
  187.4030  176.9050  135.6830 C   0  0  0  0  0  3  0  0  0  0  0  0
  188.3180  178.6280  137.6800 C   0  0  0  0  0  3  0  0  0  0  0  0
  187.9980  179.1310  136.4170 C   0  0  0  0  0  3  0  0  0  0  0  0
  190.1210  176.9120  139.5350 C   0  0  0  0  0  2  0  0  0  0  0  0
  188.5870  172.9160  136.2500 C   0  0  1  0  0  3  0  0  0  0  0  0
  189.9990  174.8250  136.8370 N   0  0  2  0  0  0  0  0  0  0  0  0
  187.3890  173.3450  135.4230 C   0  0  2  0  0  3  0  0  0  0  0  0
  190.0860  172.1120  134.5940 O   0  0  0  0  0  0  0  0  0  0  0  0
  187.5170  174.9100  137.2480 C   0  0  1  0  0  3  0  0  0  0  0  0
  1  6  1  0  0  0  0
  3 17  1  0  0  0  0
  4 20  2  0  0  0  0
  4 22  1  0  0  0  0
  5 17  1  0  0  0  0
  5 24  1  0  0  0  0
  6 23  1  0  0  0  0
  8  7  1  1  0  0  0
  8  2  1  0  0  0  0
  9 18  1  6  0  0  0
  9 14  1  0  0  0  0
 10  8  1  0  0  0  0
 10 28  1  0  0  0  0
 11 15  2  0  0  0  0
 12 28  1  0  0  0  0
 13 26  1  0  0  0  0
 13  9  1  0  0  0  0
 14  8  1  0  0  0  0
 15 23  1  0  0  0  0
 16 28  1  0  0  0  0
 16  1  2  0  0  0  0
 17 25  1  0  0  0  0
 19 15  1  0  0  0  0
 20 16  1  0  0  0  0
 21  1  1  0  0  0  0
 22 21  2  0  0  0  0
 24 12  1  0  0  0  0
 25 12  1  0  0  0  0
 25 19  1  0  0  0  0
 26 24  1  0  0  0  0
 26 10  1  0  0  0  0
 27  5  2  0  0  0  0
M  END
>  <MODEL>
6

>  <REMARK>
 VINA RESULT:      -4.6      2.481      5.354
  Name = 
  0 active torsions:
  status: ('A' for Active; 'I' for Inactive)
                            x       y       z     vdW  Elec       q    Type
                         _______ _______ _______ _____ _____    ______ ____

>  <TORSDO>
F 0

$$$$
=
 OpenBabel11122411543D

 28 32  0  0  1  0  0  0  0  0999 V2000
  188.2230  175.0800  135.5290 C   0  0  0  0  0  0  0  0  0  0  0  0
  184.2220  177.8610  134.9400 F   0  0  0  0  0  0  0  0  0  0  0  0
  188.1430  177.1270  140.0280 C   0  0  0  0  0  1  0  0  0  0  0  0
  187.5420  173.0880  137.3810 C   0  0  0  0  0  3  0  0  0  0  0  0
  186.3540  178.5000  139.0530 C   0  0  0  0  0  0  0  0  0  0  0  0
  188.6610  176.1700  134.5950 C   0  0  0  0  0  2  0  0  0  0  0  0
  183.5490  175.7200  134.6650 O   0  0  0  0  0  1  0  0  0  0  0  0
  183.7480  176.7360  135.5980 C   0  0  1  0  0  0  0  0  0  0  0  0
  182.6700  178.0420  137.3940 C   0  0  1  0  0  3  0  0  0  0  0  0
  184.7520  176.2500  136.6660 C   0  0  2  0  0  3  0  0  0  0  0  0
  190.8470  176.7880  137.2020 O   0  0  0  0  0  0  0  0  0  0  0  0
  186.7140  177.7430  136.8720 C   0  0  1  0  0  3  0  0  0  0  0  0
  183.3800  177.3850  138.4160 O   0  0  0  0  0  0  0  0  0  0  0  0
  182.4150  177.0820  136.2420 C   0  0  0  0  0  2  0  0  0  0  0  0
  190.0150  177.2470  136.4370 C   0  0  0  0  0  0  0  0  0  0  0  0
  187.0670  175.2300  136.3270 C   0  0  0  0  0  0  0  0  0  0  0  0
  187.7830  178.1380  138.9530 C   0  0  2  0  0  3  0  0  0  0  0  0
  181.3470  178.5350  137.9390 C   0  0  0  0  0  1  0  0  0  0  0  0
  189.0120  178.2330  136.9430 C   0  0  0  0  0  2  0  0  0  0  0  0
  186.7500  174.2310  137.2630 C   0  0  0  0  0  3  0  0  0  0  0  0
  189.0060  173.9250  135.6490 C   0  0  0  0  0  3  0  0  0  0  0  0
  188.6660  172.9310  136.5690 C   0  0  0  0  0  3  0  0  0  0  0  0
  189.9990  176.7960  135.0060 C   0  0  0  0  0  2  0  0  0  0  0  0
  185.6190  178.2390  137.8070 C   0  0  1  0  0  3  0  0  0  0  0  0
  187.9510  177.5200  137.6390 N   0  0  2  0  0  0  0  0  0  0  0  0
  184.6830  177.0550  137.9680 C   0  0  2  0  0  3  0  0  0  0  0  0
  185.8490  179.0110  140.0400 O   0  0  0  0  0  0  0  0  0  0  0  0
  186.1890  176.4600  136.1860 C   0  0  1  0  0  3  0  0  0  0  0  0
  1 21  2  0  0  0  0
  1 16  1  0  0  0  0
  2  8  1  0  0  0  0
  5 27  2  0  0  0  0
  6 23  1  0  0  0  0
  6  1  1  0  0  0  0
  8  7  1  6  0  0  0
  8 14  1  0  0  0  0
  8 10  1  0  0  0  0
  9 18  1  1  0  0  0
  9 13  1  0  0  0  0
 10 26  1  0  0  0  0
 12 25  1  0  0  0  0
 12 24  1  0  0  0  0
 14  9  1  0  0  0  0
 15 19  1  0  0  0  0
 15 11  2  0  0  0  0
 16 20  2  0  0  0  0
 17  5  1  0  0  0  0
 17  3  1  0  0  0  0
 19 25  1  0  0  0  0
 20  4  1  0  0  0  0
 21 22  1  0  0  0  0
 22  4  2  0  0  0  0
 23 15  1  0  0  0  0
 24 26  1  0  0  0  0
 24  5  1  0  0  0  0
 25 17  1  0  0  0  0
 26 13  1  0  0  0  0
 28 16  1  0  0  0  0
 28 10  1  0  0  0  0
 28 12  1  0  0  0  0
M  END
>  <MODEL>
7

>  <REMARK>
 VINA RESULT:      -4.6      3.106      7.222
  Name = 
  0 active torsions:
  status: ('A' for Active; 'I' for Inactive)
                            x       y       z     vdW  Elec       q    Type
                         _______ _______ _______ _____ _____    ______ ____

>  <TORSDO>
F 0

$$$$
=
 OpenBabel11122411543D

 28 32  0  0  1  0  0  0  0  0999 V2000
  185.3230  174.9500  136.6380 C   0  0  0  0  0  0  0  0  0  0  0  0
  183.0550  176.7560  140.5990 F   0  0  0  0  0  0  0  0  0  0  0  0
  180.7820  175.3200  134.7180 C   0  0  0  0  0  1  0  0  0  0  0  0
  185.3480  177.0030  134.7290 C   0  0  0  0  0  3  0  0  0  0  0  0
  180.1640  175.8620  137.0330 C   0  0  0  0  0  0  0  0  0  0  0  0
  185.2660  173.7940  137.5940 C   0  0  0  0  0  2  0  0  0  0  0  0
  184.6430  178.2650  140.0360 O   0  0  0  0  0  1  0  0  0  0  0  0
  183.3190  177.8780  139.8280 C   0  0  1  0  0  0  0  0  0  0  0  0
  180.9770  178.6580  139.8710 C   0  0  1  0  0  3  0  0  0  0  0  0
  183.1100  177.5870  138.3260 C   0  0  2  0  0  3  0  0  0  0  0  0
  183.4280  172.4330  135.0000 O   0  0  0  0  0  0  0  0  0  0  0  0
  182.2540  175.3020  137.9150 C   0  0  1  0  0  3  0  0  0  0  0  0
  180.8690  178.6790  138.4680 O   0  0  0  0  0  0  0  0  0  0  0  0
  182.4010  179.0010  140.2850 C   0  0  0  0  0  2  0  0  0  0  0  0
  183.4800  172.6830  136.1930 C   0  0  0  0  0  0  0  0  0  0  0  0
  184.4690  176.0640  136.7960 C   0  0  0  0  0  0  0  0  0  0  0  0
  180.7380  174.8240  136.1530 C   0  0  2  0  0  3  0  0  0  0  0  0
  180.0240  179.6730  140.4640 C   0  0  0  0  0  1  0  0  0  0  0  0
  182.2610  173.1840  136.8960 C   0  0  0  0  0  2  0  0  0  0  0  0
  184.4800  177.0760  135.8200 C   0  0  0  0  0  3  0  0  0  0  0  0
  186.1960  174.8910  135.5440 C   0  0  0  0  0  3  0  0  0  0  0  0
  186.2120  175.9150  134.5950 C   0  0  0  0  0  3  0  0  0  0  0  0
  184.7760  172.5030  136.9290 C   0  0  0  0  0  2  0  0  0  0  0  0
  181.0720  176.2390  138.1260 C   0  0  1  0  0  3  0  0  0  0  0  0
  182.1040  174.6050  136.6270 N   0  0  2  0  0  0  0  0  0  0  0  0
  181.6370  177.6300  137.9050 C   0  0  2  0  0  3  0  0  0  0  0  0
  179.0380  176.3170  136.9030 O   0  0  0  0  0  0  0  0  0  0  0  0
  183.5400  176.1580  137.9920 C   0  0  1  0  0  3  0  0  0  0  0  0
  1 16  1  0  0  0  0
  1  6  1  0  0  0  0
  3 17  1  0  0  0  0
  4 20  1  0  0  0  0
  5 24  1  0  0  0  0
  8  7  1  1  0  0  0
  8 14  1  0  0  0  0
  8  2  1  0  0  0  0
  9 14  1  0  0  0  0
  9 18  1  1  0  0  0
 10  8  1  0  0  0  0
 11 15  2  0  0  0  0
 12 28  1  0  0  0  0
 12 24  1  0  0  0  0
 13  9  1  0  0  0  0
 15 19  1  0  0  0  0
 15 23  1  0  0  0  0
 16 28  1  0  0  0  0
 17 25  1  0  0  0  0
 17  5  1  0  0  0  0
 20 16  2  0  0  0  0
 21  1  2  0  0  0  0
 22  4  2  0  0  0  0
 22 21  1  0  0  0  0
 23  6  1  0  0  0  0
 25 19  1  0  0  0  0
 25 12  1  0  0  0  0
 26 24  1  0  0  0  0
 26 10  1  0  0  0  0
 26 13  1  0  0  0  0
 27  5  2  0  0  0  0
 28 10  1  0  0  0  0
M  END
>  <MODEL>
8

>  <REMARK>
 VINA RESULT:      -4.5      6.015      9.233
  Name = 
  0 active torsions:
  status: ('A' for Active; 'I' for Inactive)
                            x       y       z     vdW  Elec       q    Type
                         _______ _______ _______ _____ _____    ______ ____

>  <TORSDO>
F 0

$$$$
=
 OpenBabel11122411543D

 28 32  0  0  1  0  0  0  0  0999 V2000
  181.9310  179.3780  142.6260 C   0  0  0  0  0  0  0  0  0  0  0  0
  179.8810  181.4760  138.6900 F   0  0  0  0  0  0  0  0  0  0  0  0
  180.6780  175.2440  140.2210 C   0  0  0  0  0  1  0  0  0  0  0  0
  184.2830  178.1410  141.7350 C   0  0  0  0  0  3  0  0  0  0  0  0
  179.5240  176.8130  138.7230 C   0  0  0  0  0  0  0  0  0  0  0  0
  180.6430  179.9550  143.1400 C   0  0  0  0  0  2  0  0  0  0  0  0
  182.0390  182.1540  138.7170 O   0  0  0  0  0  1  0  0  0  0  0  0
  181.1650  181.1640  138.2680 C   0  0  1  0  0  0  0  0  0  0  0  0
  180.3850  179.9400  136.2710 C   0  0  1  0  0  3  0  0  0  0  0  0
  181.6210  179.7990  138.8270 C   0  0  2  0  0  3  0  0  0  0  0  0
  180.0550  176.6210  143.8440 O   0  0  0  0  0  0  0  0  0  0  0  0
  179.8420  178.6610  140.1170 C   0  0  1  0  0  3  0  0  0  0  0  0
  181.0540  178.7550  136.6310 O   0  0  0  0  0  0  0  0  0  0  0  0
  181.1800  181.1470  136.7480 C   0  0  0  0  0  2  0  0  0  0  0  0
  179.6420  177.6410  143.3180 C   0  0  0  0  0  0  0  0  0  0  0  0
  182.1270  179.1580  141.2440 C   0  0  0  0  0  0  0  0  0  0  0  0
  179.5940  176.3010  140.1080 C   0  0  2  0  0  3  0  0  0  0  0  0
  180.2400  179.9970  134.7660 C   0  0  0  0  0  1  0  0  0  0  0  0
  178.9530  177.5630  141.9950 C   0  0  0  0  0  2  0  0  0  0  0  0
  183.3030  178.5200  140.8160 C   0  0  0  0  0  3  0  0  0  0  0  0
  182.9250  179.0020  143.5390 C   0  0  0  0  0  3  0  0  0  0  0  0
  184.0980  178.3900  143.0950 C   0  0  0  0  0  3  0  0  0  0  0  0
  179.8550  178.9610  144.0000 C   0  0  0  0  0  2  0  0  0  0  0  0
  179.7130  178.2690  138.6500 C   0  0  1  0  0  3  0  0  0  0  0  0
  179.9520  177.4470  140.9420 N   0  0  2  0  0  0  0  0  0  0  0  0
  181.0610  178.6100  138.0400 C   0  0  2  0  0  3  0  0  0  0  0  0
  179.2790  176.1150  137.7520 O   0  0  0  0  0  0  0  0  0  0  0  0
  181.0750  179.5880  140.2400 C   0  0  1  0  0  3  0  0  0  0  0  0
  1  6  1  0  0  0  0
  1 21  1  0  0  0  0
  4 22  1  0  0  0  0
  5 17  1  0  0  0  0
  6 23  1  0  0  0  0
  8  2  1  1  0  0  0
  8  7  1  0  0  0  0
  8 10  1  0  0  0  0
  9 18  1  6  0  0  0
  9 13  1  0  0  0  0
  9 14  1  0  0  0  0
 10 28  1  0  0  0  0
 12 28  1  0  0  0  0
 12 25  1  0  0  0  0
 13 26  1  0  0  0  0
 14  8  1  0  0  0  0
 15 11  2  0  0  0  0
 15 23  1  0  0  0  0
 16  1  2  0  0  0  0
 17  3  1  0  0  0  0
 17 25  1  0  0  0  0
 19 15  1  0  0  0  0
 20 16  1  0  0  0  0
 20  4  2  0  0  0  0
 22 21  2  0  0  0  0
 24  5  1  0  0  0  0
 24 12  1  0  0  0  0
 25 19  1  0  0  0  0
 26 24  1  0  0  0  0
 26 10  1  0  0  0  0
 27  5  2  0  0  0  0
 28 16  1  0  0  0  0
M  END
>  <MODEL>
9

>  <REMARK>
 VINA RESULT:      -4.4      9.128     10.973
  Name = 
  0 active torsions:
  status: ('A' for Active; 'I' for Inactive)
                            x       y       z     vdW  Elec       q    Type
                         _______ _______ _______ _____ _____    ______ ____

>  <TORSDO>
F 0

$$$$
