=
 OpenBabel11122411473D

 37 42  0  0  1  0  0  0  0  0999 V2000
  187.4130  177.5140  141.8740 C   0  0  1  0  0  3  0  0  0  0  0  0
  190.4080  176.0170  142.0830 O   0  0  0  0  0  0  0  0  0  0  0  0
  185.3520  178.4010  143.2130 C   0  0  2  0  0  3  0  0  0  0  0  0
  188.8300  177.7800  142.3440 C   0  0  2  0  0  3  0  0  0  0  0  0
  186.6180  177.5160  143.1860 C   0  0  2  0  0  3  0  0  0  0  0  0
  189.9500  177.2000  141.4830 C   0  0  2  0  0  3  0  0  0  0  0  0
  185.4000  179.4890  142.1490 C   0  0  0  0  0  2  0  0  0  0  0  0
  187.6490  177.8180  144.2610 C   0  0  0  0  0  2  0  0  0  0  0  0
  187.4920  178.2940  139.4890 C   0  0  0  0  0  2  0  0  0  0  0  0
  185.6640  178.8950  140.9100 O   0  0  0  0  0  0  0  0  0  0  0  0
  192.1200  177.6290  143.0820 C   0  0  0  0  0  2  0  0  0  0  0  0
  191.5230  176.2330  142.9460 C   0  0  1  0  0  3  0  0  0  0  0  0
  187.0430  178.6480  140.9040 C   0  0  1  0  0  3  0  0  0  0  0  0
  188.9250  177.3300  143.7270 N   0  0  2  0  0  0  0  0  0  0  0  0
  189.5820  176.9760  140.0070 C   0  0  1  0  0  3  0  0  0  0  0  0
  191.2400  177.0970  144.2070 C   0  0  2  0  0  3  0  0  0  0  0  0
  190.0590  177.9820  144.2830 N   0  0  0  0  0  0  0  0  0  0  0  0
  189.0120  178.2420  139.3610 C   0  0  0  0  0  2  0  0  0  0  0  0
  191.9990  177.1210  139.3880 C   0  0  0  0  0  3  0  0  0  0  0  0
  190.7640  176.4860  139.2260 C   0  0  0  0  0  0  0  0  0  0  0  0
  190.6480  175.4090  138.3330 C   0  0  0  0  0  3  0  0  0  0  0  0
  191.6490  173.9360  136.7490 F   0  0  0  0  0  0  0  0  0  0  0  0
  192.9960  175.6130  137.7760 C   0  0  0  0  0  3  0  0  0  0  0  0
  191.7630  174.9740  137.6100 C   0  0  0  0  0  0  0  0  0  0  0  0
  193.1140  176.6860  138.6650 C   0  0  0  0  0  3  0  0  0  0  0  0
  189.8880  178.2140  145.7230 C   0  0  0  0  0  2  0  0  0  0  0  0
  190.1960  176.9500  146.5260 C   0  0  1  0  0  3  0  0  0  0  0  0
  192.0000  175.7830  147.4580 C   0  0  0  0  0  1  0  0  0  0  0  0
  191.4390  177.1090  147.2680 N   0  0  0  0  0  2  0  0  0  0  0  0
  189.0480  176.6240  147.4740 C   0  0  0  0  0  2  0  0  0  0  0  0
  188.5430  177.8750  148.1750 C   0  0  0  0  0  2  0  0  0  0  0  0
  187.1950  178.0790  147.8830 O   0  0  0  0  0  1  0  0  0  0  0  0
  185.1330  178.9670  144.4820 O   0  0  0  0  0  0  0  0  0  0  0  0
  183.7410  179.0820  144.6760 C   0  0  0  0  0  0  0  0  0  0  0  0
  183.2950  180.3430  144.3120 F   0  0  0  0  0  0  0  0  0  0  0  0
  183.0600  178.1150  143.9520 F   0  0  0  0  0  0  0  0  0  0  0  0
  183.4680  178.8940  146.0180 F   0  0  0  0  0  0  0  0  0  0  0  0
  1  4  1  0  0  0  0
  1  5  1  0  0  0  0
  2 12  1  0  0  0  0
  3 33  1  0  0  0  0
  4 14  1  0  0  0  0
  5  3  1  0  0  0  0
  5  8  1  0  0  0  0
  6  2  1  0  0  0  0
  6  4  1  0  0  0  0
  7  3  1  0  0  0  0
  9 13  1  0  0  0  0
 10  7  1  0  0  0  0
 11 16  1  0  0  0  0
 12 11  1  0  0  0  0
 12 16  1  0  0  0  0
 13 10  1  0  0  0  0
 13  1  1  0  0  0  0
 14  8  1  0  0  0  0
 14 17  1  0  0  0  0
 15  6  1  0  0  0  0
 16 17  1  0  0  0  0
 17 26  1  0  0  0  0
 18  9  1  0  0  0  0
 18 15  1  0  0  0  0
 20 19  1  0  0  0  0
 20 15  1  0  0  0  0
 21 20  2  0  0  0  0
 22 24  1  0  0  0  0
 23 25  1  0  0  0  0
 24 23  2  0  0  0  0
 24 21  1  0  0  0  0
 25 19  2  0  0  0  0
 26 27  1  0  0  0  0
 27 29  1  0  0  0  0
 27 30  1  0  0  0  0
 29 28  1  0  0  0  0
 30 31  1  0  0  0  0
 32 31  1  0  0  0  0
 33 34  1  0  0  0  0
 34 37  1  0  0  0  0
 35 34  1  0  0  0  0
 36 34  1  0  0  0  0
M  END
>  <MODEL>
1

>  <REMARK>
 VINA RESULT:      -8.9      0.000      0.000
  Name = 
  8 active torsions:
  status: ('A' for Active; 'I' for Inactive)
    1  A    between atoms: C_1  and  C_4
    2  A    between atoms: C_1  and  N_27
    3  A    between atoms: C_2  and  O_22
    4  A    between atoms: C_4  and  C_12
    5  A    between atoms: C_4  and  N_37
    6  A    between atoms: C_6  and  O_22
    7  A    between atoms: C_8  and  C_12
    8  A    between atoms: C_23  and  C_30
                            x       y       z     vdW  Elec       q    Type
                         _______ _______ _______ _____ _____    ______ ____

>  <TORSDO>
F 8

$$$$
=
 OpenBabel11122411473D

 37 42  0  0  1  0  0  0  0  0999 V2000
  186.2600  178.7020  142.6620 C   0  0  1  0  0  3  0  0  0  0  0  0
  189.5600  178.3650  143.1670 O   0  0  0  0  0  0  0  0  0  0  0  0
  184.3840  179.1030  140.8880 C   0  0  2  0  0  3  0  0  0  0  0  0
  187.3980  177.7330  142.4000 C   0  0  2  0  0  3  0  0  0  0  0  0
  185.8850  179.1700  141.2510 C   0  0  2  0  0  3  0  0  0  0  0  0
  188.4390  177.5930  143.5070 C   0  0  2  0  0  3  0  0  0  0  0  0
  183.6300  178.1240  141.7790 C   0  0  0  0  0  2  0  0  0  0  0  0
  186.8140  178.3980  140.3290 C   0  0  0  0  0  2  0  0  0  0  0  0
  185.4070  177.9220  144.8900 C   0  0  0  0  0  2  0  0  0  0  0  0
  183.8890  178.4430  143.1170 O   0  0  0  0  0  0  0  0  0  0  0  0
  190.3590  176.1210  142.2430 C   0  0  0  0  0  2  0  0  0  0  0  0
  190.5580  177.6140  142.4780 C   0  0  1  0  0  3  0  0  0  0  0  0
  185.1580  177.9110  143.3850 C   0  0  1  0  0  3  0  0  0  0  0  0
  188.0080  178.1070  141.1290 N   0  0  2  0  0  0  0  0  0  0  0  0
  187.9320  177.9310  144.9190 C   0  0  1  0  0  3  0  0  0  0  0  0
  190.1480  177.0790  141.0770 C   0  0  2  0  0  3  0  0  0  0  0  0
  188.7290  176.9690  140.6810 N   0  0  0  0  0  0  0  0  0  0  0  0
  186.6650  177.1460  145.2740 C   0  0  0  0  0  2  0  0  0  0  0  0
  188.8080  178.1560  147.2490 C   0  0  0  0  0  3  0  0  0  0  0  0
  188.9940  177.6840  145.9460 C   0  0  0  0  0  0  0  0  0  0  0  0
  190.1730  176.9950  145.6190 C   0  0  0  0  0  3  0  0  0  0  0  0
  192.2920  176.1200  146.2730 F   0  0  0  0  0  0  0  0  0  0  0  0
  190.9630  177.2580  147.8930 C   0  0  0  0  0  3  0  0  0  0  0  0
  191.1550  176.7830  146.5910 C   0  0  0  0  0  0  0  0  0  0  0  0
  189.7900  177.9440  148.2220 C   0  0  0  0  0  3  0  0  0  0  0  0
  188.7780  176.9130  139.2140 C   0  0  0  0  0  2  0  0  0  0  0  0
  189.9330  177.7520  138.6680 C   0  0  1  0  0  3  0  0  0  0  0  0
  190.2860  175.6070  137.7980 C   0  0  0  0  0  1  0  0  0  0  0  0
  190.6900  176.9970  137.6800 N   0  0  0  0  0  2  0  0  0  0  0  0
  189.4120  179.0500  138.0620 C   0  0  0  0  0  2  0  0  0  0  0  0
  188.6750  178.7900  136.7590 C   0  0  0  0  0  2  0  0  0  0  0  0
  187.3760  179.2940  136.8300 O   0  0  0  0  0  1  0  0  0  0  0  0
  184.1830  178.7860  139.5330 O   0  0  0  0  0  0  0  0  0  0  0  0
  183.1580  179.6150  139.0360 C   0  0  0  0  0  0  0  0  0  0  0  0
  182.0920  179.6660  139.9210 F   0  0  0  0  0  0  0  0  0  0  0  0
  183.6310  180.8960  138.7960 F   0  0  0  0  0  0  0  0  0  0  0  0
  182.7070  179.0880  137.8410 F   0  0  0  0  0  0  0  0  0  0  0  0
  1 13  1  0  0  0  0
  2  6  1  0  0  0  0
  3  5  1  0  0  0  0
  3  7  1  0  0  0  0
  4  1  1  0  0  0  0
  4  6  1  0  0  0  0
  5  1  1  0  0  0  0
  6 15  1  0  0  0  0
  7 10  1  0  0  0  0
  8 14  1  0  0  0  0
  8  5  1  0  0  0  0
  9 18  1  0  0  0  0
 10 13  1  0  0  0  0
 11 12  1  0  0  0  0
 12  2  1  0  0  0  0
 13  9  1  0  0  0  0
 14  4  1  0  0  0  0
 15 18  1  0  0  0  0
 15 20  1  0  0  0  0
 16 11  1  0  0  0  0
 16 12  1  0  0  0  0
 17 16  1  0  0  0  0
 17 14  1  0  0  0  0
 19 25  1  0  0  0  0
 20 19  2  0  0  0  0
 21 20  1  0  0  0  0
 21 24  2  0  0  0  0
 22 24  1  0  0  0  0
 23 25  2  0  0  0  0
 24 23  1  0  0  0  0
 26 17  1  0  0  0  0
 27 26  1  0  0  0  0
 29 28  1  0  0  0  0
 29 27  1  0  0  0  0
 30 27  1  0  0  0  0
 31 32  1  0  0  0  0
 31 30  1  0  0  0  0
 33  3  1  0  0  0  0
 34 33  1  0  0  0  0
 34 35  1  0  0  0  0
 36 34  1  0  0  0  0
 37 34  1  0  0  0  0
M  END
>  <MODEL>
2

>  <REMARK>
 VINA RESULT:      -8.5      3.076      6.616
  Name = 
  8 active torsions:
  status: ('A' for Active; 'I' for Inactive)
    1  A    between atoms: C_1  and  C_4
    2  A    between atoms: C_1  and  N_27
    3  A    between atoms: C_2  and  O_22
    4  A    between atoms: C_4  and  C_12
    5  A    between atoms: C_4  and  N_37
    6  A    between atoms: C_6  and  O_22
    7  A    between atoms: C_8  and  C_12
    8  A    between atoms: C_23  and  C_30
                            x       y       z     vdW  Elec       q    Type
                         _______ _______ _______ _____ _____    ______ ____

>  <TORSDO>
F 8

$$$$
=
 OpenBabel11122411473D

 37 42  0  0  1  0  0  0  0  0999 V2000
  186.4770  178.6670  142.6570 C   0  0  1  0  0  3  0  0  0  0  0  0
  189.7660  178.4490  143.2880 O   0  0  0  0  0  0  0  0  0  0  0  0
  184.6590  179.0480  140.8200 C   0  0  2  0  0  3  0  0  0  0  0  0
  187.6650  177.7550  142.4130 C   0  0  2  0  0  3  0  0  0  0  0  0
  186.1400  179.1640  141.2460 C   0  0  2  0  0  3  0  0  0  0  0  0
  188.6660  177.6220  143.5580 C   0  0  2  0  0  3  0  0  0  0  0  0
  183.9120  178.0110  141.6480 C   0  0  0  0  0  2  0  0  0  0  0  0
  187.1370  178.4610  140.3410 C   0  0  0  0  0  2  0  0  0  0  0  0
  185.5690  177.7820  144.8240 C   0  0  0  0  0  2  0  0  0  0  0  0
  184.1030  178.2970  143.0050 O   0  0  0  0  0  0  0  0  0  0  0  0
  190.6950  176.2700  142.3310 C   0  0  0  0  0  2  0  0  0  0  0  0
  190.8220  177.7620  142.6180 C   0  0  1  0  0  3  0  0  0  0  0  0
  185.3810  177.8090  143.3100 C   0  0  1  0  0  3  0  0  0  0  0  0
  188.3090  178.1940  141.1810 N   0  0  2  0  0  0  0  0  0  0  0  0
  188.0880  177.8930  144.9580 C   0  0  1  0  0  3  0  0  0  0  0  0
  190.4910  177.2560  141.1860 C   0  0  2  0  0  3  0  0  0  0  0  0
  189.0950  177.1010  140.7290 N   0  0  0  0  0  0  0  0  0  0  0  0
  186.8420  177.0470  145.2360 C   0  0  0  0  0  2  0  0  0  0  0  0
  188.8990  178.1560  147.3070 C   0  0  0  0  0  3  0  0  0  0  0  0
  189.1180  177.6570  146.0190 C   0  0  0  0  0  0  0  0  0  0  0  0
  190.3000  176.9520  145.7400 C   0  0  0  0  0  3  0  0  0  0  0  0
  192.3900  176.0710  146.4730 F   0  0  0  0  0  0  0  0  0  0  0  0
  191.0250  177.2520  148.0310 C   0  0  0  0  0  3  0  0  0  0  0  0
  191.2510  176.7510  146.7450 C   0  0  0  0  0  0  0  0  0  0  0  0
  189.8490  177.9550  148.3120 C   0  0  0  0  0  3  0  0  0  0  0  0
  189.2050  177.0940  139.2640 C   0  0  0  0  0  2  0  0  0  0  0  0
  190.3300  176.1690  138.8000 C   0  0  1  0  0  3  0  0  0  0  0  0
  188.6990  175.7040  137.1840 C   0  0  0  0  0  1  0  0  0  0  0  0
  189.8060  175.1270  137.9270 N   0  0  0  0  0  2  0  0  0  0  0  0
  191.4170  176.9630  138.0870 C   0  0  0  0  0  2  0  0  0  0  0  0
  192.7570  176.2500  138.1600 C   0  0  0  0  0  2  0  0  0  0  0  0
  193.6690  176.8460  137.2910 O   0  0  0  0  0  1  0  0  0  0  0  0
  184.5260  178.7660  139.4490 O   0  0  0  0  0  0  0  0  0  0  0  0
  183.4180  179.4850  138.9590 C   0  0  0  0  0  0  0  0  0  0  0  0
  182.3610  179.4320  139.8540 F   0  0  0  0  0  0  0  0  0  0  0  0
  183.7570  180.8070  138.7100 F   0  0  0  0  0  0  0  0  0  0  0  0
  183.0110  178.9090  137.7700 F   0  0  0  0  0  0  0  0  0  0  0  0
  1 13  1  0  0  0  0
  2  6  1  0  0  0  0
  3  5  1  0  0  0  0
  3  7  1  0  0  0  0
  4  1  1  0  0  0  0
  4  6  1  0  0  0  0
  5  1  1  0  0  0  0
  6 15  1  0  0  0  0
  7 10  1  0  0  0  0
  8 14  1  0  0  0  0
  8  5  1  0  0  0  0
  9 18  1  0  0  0  0
 10 13  1  0  0  0  0
 11 12  1  0  0  0  0
 12  2  1  0  0  0  0
 13  9  1  0  0  0  0
 14  4  1  0  0  0  0
 15 18  1  0  0  0  0
 15 20  1  0  0  0  0
 16 11  1  0  0  0  0
 16 12  1  0  0  0  0
 17 14  1  0  0  0  0
 17 16  1  0  0  0  0
 19 25  1  0  0  0  0
 20 19  2  0  0  0  0
 21 20  1  0  0  0  0
 21 24  2  0  0  0  0
 22 24  1  0  0  0  0
 23 25  2  0  0  0  0
 24 23  1  0  0  0  0
 26 17  1  0  0  0  0
 27 26  1  0  0  0  0
 28 29  1  0  0  0  0
 29 27  1  0  0  0  0
 30 31  1  0  0  0  0
 30 27  1  0  0  0  0
 32 31  1  0  0  0  0
 33  3  1  0  0  0  0
 34 33  1  0  0  0  0
 34 35  1  0  0  0  0
 36 34  1  0  0  0  0
 37 34  1  0  0  0  0
M  END
>  <MODEL>
3

>  <REMARK>
 VINA RESULT:      -8.3      3.014      6.700
  Name = 
  8 active torsions:
  status: ('A' for Active; 'I' for Inactive)
    1  A    between atoms: C_1  and  C_4
    2  A    between atoms: C_1  and  N_27
    3  A    between atoms: C_2  and  O_22
    4  A    between atoms: C_4  and  C_12
    5  A    between atoms: C_4  and  N_37
    6  A    between atoms: C_6  and  O_22
    7  A    between atoms: C_8  and  C_12
    8  A    between atoms: C_23  and  C_30
                            x       y       z     vdW  Elec       q    Type
                         _______ _______ _______ _____ _____    ______ ____

>  <TORSDO>
F 8

$$$$
=
 OpenBabel11122411473D

 37 42  0  0  1  0  0  0  0  0999 V2000
  190.1550  176.9120  141.6180 C   0  0  1  0  0  3  0  0  0  0  0  0
  187.1700  177.1160  143.1360 O   0  0  0  0  0  0  0  0  0  0  0  0
  191.3930  176.6280  139.3350 C   0  0  2  0  0  3  0  0  0  0  0  0
  188.9680  177.8460  141.7580 C   0  0  2  0  0  3  0  0  0  0  0  0
  190.0830  176.4970  140.1420 C   0  0  2  0  0  3  0  0  0  0  0  0
  188.3210  177.9180  143.1400 C   0  0  2  0  0  3  0  0  0  0  0  0
  192.3620  177.6080  139.9830 C   0  0  0  0  0  2  0  0  0  0  0  0
  188.8930  177.2610  139.5850 C   0  0  0  0  0  2  0  0  0  0  0  0
  191.6410  177.6590  143.4980 C   0  0  0  0  0  2  0  0  0  0  0  0
  192.5420  177.2430  141.3220 O   0  0  0  0  0  0  0  0  0  0  0  0
  186.0660  179.3550  142.5910 C   0  0  0  0  0  2  0  0  0  0  0  0
  185.9880  177.8490  142.8200 C   0  0  1  0  0  3  0  0  0  0  0  0
  191.4070  177.7210  141.9910 C   0  0  1  0  0  3  0  0  0  0  0  0
  188.0020  177.4860  140.7280 N   0  0  2  0  0  0  0  0  0  0  0  0
  189.2520  177.5590  144.3100 C   0  0  1  0  0  3  0  0  0  0  0  0
  185.9260  178.4380  141.3820 C   0  0  2  0  0  3  0  0  0  0  0  0
  187.1480  178.6100  140.5690 N   0  0  0  0  0  0  0  0  0  0  0  0
  190.5460  178.3780  144.2830 C   0  0  0  0  0  2  0  0  0  0  0  0
  189.2730  177.5430  146.8090 C   0  0  0  0  0  3  0  0  0  0  0  0
  188.5560  177.7390  145.6250 C   0  0  0  0  0  0  0  0  0  0  0  0
  187.1990  178.0920  145.6850 C   0  0  0  0  0  3  0  0  0  0  0  0
  185.2590  178.5860  146.9790 F   0  0  0  0  0  0  0  0  0  0  0  0
  187.2910  178.0500  148.1040 C   0  0  0  0  0  3  0  0  0  0  0  0
  186.5680  178.2460  146.9240 C   0  0  0  0  0  0  0  0  0  0  0  0
  188.6430  177.6980  148.0480 C   0  0  0  0  0  3  0  0  0  0  0  0
  186.6420  178.7050  139.1930 C   0  0  0  0  0  2  0  0  0  0  0  0
  185.1180  178.6000  139.1570 C   0  0  1  0  0  3  0  0  0  0  0  0
  183.0780  179.7420  139.0310 C   0  0  0  0  0  1  0  0  0  0  0  0
  184.5180  179.9220  139.0490 N   0  0  0  0  0  2  0  0  0  0  0  0
  184.6700  177.7150  138.0000 C   0  0  0  0  0  2  0  0  0  0  0  0
  185.8440  177.3270  137.1180 C   0  0  0  0  0  2  0  0  0  0  0  0
  186.0810  175.9560  137.2050 O   0  0  0  0  0  1  0  0  0  0  0  0
  191.1540  176.9910  137.9970 O   0  0  0  0  0  0  0  0  0  0  0  0
  191.8520  176.0910  137.1670 C   0  0  0  0  0  0  0  0  0  0  0  0
  191.1280  175.8170  136.0170 F   0  0  0  0  0  0  0  0  0  0  0  0
  193.0990  176.5950  136.8290 F   0  0  0  0  0  0  0  0  0  0  0  0
  192.0350  174.9080  137.8580 F   0  0  0  0  0  0  0  0  0  0  0  0
  1  4  1  0  0  0  0
  1 13  1  0  0  0  0
  2  6  1  0  0  0  0
  3  7  1  0  0  0  0
  3  5  1  0  0  0  0
  4  6  1  0  0  0  0
  5  1  1  0  0  0  0
  6 15  1  0  0  0  0
  7 10  1  0  0  0  0
  8  5  1  0  0  0  0
  8 14  1  0  0  0  0
  9 18  1  0  0  0  0
 10 13  1  0  0  0  0
 11 12  1  0  0  0  0
 12  2  1  0  0  0  0
 13  9  1  0  0  0  0
 14  4  1  0  0  0  0
 15 20  1  0  0  0  0
 16 11  1  0  0  0  0
 16 12  1  0  0  0  0
 17 14  1  0  0  0  0
 17 16  1  0  0  0  0
 18 15  1  0  0  0  0
 19 25  1  0  0  0  0
 20 21  1  0  0  0  0
 20 19  2  0  0  0  0
 21 24  2  0  0  0  0
 24 22  1  0  0  0  0
 24 23  1  0  0  0  0
 25 23  2  0  0  0  0
 26 17  1  0  0  0  0
 27 26  1  0  0  0  0
 28 29  1  0  0  0  0
 29 27  1  0  0  0  0
 30 27  1  0  0  0  0
 31 32  1  0  0  0  0
 31 30  1  0  0  0  0
 33  3  1  0  0  0  0
 34 37  1  0  0  0  0
 34 33  1  0  0  0  0
 35 34  1  0  0  0  0
 36 34  1  0  0  0  0
M  END
>  <MODEL>
4

>  <REMARK>
 VINA RESULT:      -8.2      2.434      8.490
  Name = 
  8 active torsions:
  status: ('A' for Active; 'I' for Inactive)
    1  A    between atoms: C_1  and  C_4
    2  A    between atoms: C_1  and  N_27
    3  A    between atoms: C_2  and  O_22
    4  A    between atoms: C_4  and  C_12
    5  A    between atoms: C_4  and  N_37
    6  A    between atoms: C_6  and  O_22
    7  A    between atoms: C_8  and  C_12
    8  A    between atoms: C_23  and  C_30
                            x       y       z     vdW  Elec       q    Type
                         _______ _______ _______ _____ _____    ______ ____

>  <TORSDO>
F 8

$$$$
=
 OpenBabel11122411473D

 37 42  0  0  1  0  0  0  0  0999 V2000
  184.6190  177.9720  143.9200 C   0  0  1  0  0  3  0  0  0  0  0  0
  183.8400  177.5480  140.6850 O   0  0  0  0  0  0  0  0  0  0  0  0
  186.5390  177.9510  145.6920 C   0  0  2  0  0  3  0  0  0  0  0  0
  184.8010  178.6370  142.5690 C   0  0  2  0  0  3  0  0  0  0  0  0
  186.0490  177.5500  144.2830 C   0  0  2  0  0  3  0  0  0  0  0  0
  183.6110  178.5730  141.6150 C   0  0  2  0  0  3  0  0  0  0  0  0
  185.7350  179.1120  146.2620 C   0  0  0  0  0  2  0  0  0  0  0  0
  186.9020  178.0480  143.1280 C   0  0  0  0  0  2  0  0  0  0  0  0
  182.4870  179.0140  144.7390 C   0  0  0  0  0  2  0  0  0  0  0  0
  184.3740  178.7940  146.1920 O   0  0  0  0  0  0  0  0  0  0  0  0
  184.7340  179.5070  139.3090 C   0  0  0  0  0  2  0  0  0  0  0  0
  184.4560  178.0190  139.4860 C   0  0  1  0  0  3  0  0  0  0  0  0
  184.0080  179.0250  144.8590 C   0  0  1  0  0  3  0  0  0  0  0  0
  186.0080  178.0830  141.9670 N   0  0  2  0  0  0  0  0  0  0  0  0
  182.2420  178.4180  142.2970 C   0  0  1  0  0  3  0  0  0  0  0  0
  185.8960  178.5800  139.6470 C   0  0  2  0  0  3  0  0  0  0  0  0
  186.4140  179.0030  140.9650 N   0  0  0  0  0  0  0  0  0  0  0  0
  182.0120  179.4890  143.3680 C   0  0  0  0  0  2  0  0  0  0  0  0
  180.1960  177.4110  141.2750 C   0  0  0  0  0  3  0  0  0  0  0  0
  181.1330  178.4490  141.2900 C   0  0  0  0  0  0  0  0  0  0  0  0
  181.0260  179.4960  140.3610 C   0  0  0  0  0  3  0  0  0  0  0  0
  179.8860  180.5100  138.5300 F   0  0  0  0  0  0  0  0  0  0  0  0
  179.0520  178.4590  139.4150 C   0  0  0  0  0  3  0  0  0  0  0  0
  179.9870  179.4990  139.4250 C   0  0  0  0  0  0  0  0  0  0  0  0
  179.1560  177.4150  140.3390 C   0  0  0  0  0  3  0  0  0  0  0  0
  187.8720  178.9900  140.7880 C   0  0  0  0  0  2  0  0  0  0  0  0
  188.2710  178.1850  139.5520 C   0  0  1  0  0  3  0  0  0  0  0  0
  188.6440  178.6630  137.2900 C   0  0  0  0  0  1  0  0  0  0  0  0
  189.0540  179.0070  138.6390 N   0  0  0  0  0  2  0  0  0  0  0  0
  189.0540  176.9400  139.9520 C   0  0  0  0  0  2  0  0  0  0  0  0
  190.1320  177.2740  140.9700 C   0  0  0  0  0  2  0  0  0  0  0  0
  190.0370  176.4210  142.0700 O   0  0  0  0  0  1  0  0  0  0  0  0
  187.9120  178.2540  145.7050 O   0  0  0  0  0  0  0  0  0  0  0  0
  188.5070  177.5450  146.7680 C   0  0  0  0  0  0  0  0  0  0  0  0
  189.0990  178.4150  147.6710 F   0  0  0  0  0  0  0  0  0  0  0  0
  187.5740  176.7540  147.4190 F   0  0  0  0  0  0  0  0  0  0  0  0
  189.4900  176.7220  146.2500 F   0  0  0  0  0  0  0  0  0  0  0  0
  1  5  1  0  0  0  0
  1 13  1  0  0  0  0
  2  6  1  0  0  0  0
  3 33  1  0  0  0  0
  3  7  1  0  0  0  0
  4  1  1  0  0  0  0
  5  3  1  0  0  0  0
  6 15  1  0  0  0  0
  6  4  1  0  0  0  0
  8  5  1  0  0  0  0
  9 13  1  0  0  0  0
 10  7  1  0  0  0  0
 11 12  1  0  0  0  0
 11 16  1  0  0  0  0
 12 16  1  0  0  0  0
 12  2  1  0  0  0  0
 13 10  1  0  0  0  0
 14  4  1  0  0  0  0
 14  8  1  0  0  0  0
 15 18  1  0  0  0  0
 16 17  1  0  0  0  0
 17 14  1  0  0  0  0
 18  9  1  0  0  0  0
 19 20  1  0  0  0  0
 20 15  1  0  0  0  0
 21 20  2  0  0  0  0
 22 24  1  0  0  0  0
 23 24  2  0  0  0  0
 23 25  1  0  0  0  0
 24 21  1  0  0  0  0
 25 19  2  0  0  0  0
 26 17  1  0  0  0  0
 27 30  1  0  0  0  0
 27 26  1  0  0  0  0
 28 29  1  0  0  0  0
 29 27  1  0  0  0  0
 30 31  1  0  0  0  0
 31 32  1  0  0  0  0
 33 34  1  0  0  0  0
 34 36  1  0  0  0  0
 34 35  1  0  0  0  0
 37 34  1  0  0  0  0
M  END
>  <MODEL>
5

>  <REMARK>
 VINA RESULT:      -8.0      3.578      7.928
  Name = 
  8 active torsions:
  status: ('A' for Active; 'I' for Inactive)
    1  A    between atoms: C_1  and  C_4
    2  A    between atoms: C_1  and  N_27
    3  A    between atoms: C_2  and  O_22
    4  A    between atoms: C_4  and  C_12
    5  A    between atoms: C_4  and  N_37
    6  A    between atoms: C_6  and  O_22
    7  A    between atoms: C_8  and  C_12
    8  A    between atoms: C_23  and  C_30
                            x       y       z     vdW  Elec       q    Type
                         _______ _______ _______ _____ _____    ______ ____

>  <TORSDO>
F 8

$$$$
=
 OpenBabel11122411473D

 37 42  0  0  1  0  0  0  0  0999 V2000
  186.2590  177.5410  144.2070 C   0  0  1  0  0  3  0  0  0  0  0  0
  184.0740  177.6160  141.6610 O   0  0  0  0  0  0  0  0  0  0  0  0
  188.7390  177.1020  144.9010 C   0  0  2  0  0  3  0  0  0  0  0  0
  185.9190  178.3530  142.9710 C   0  0  2  0  0  3  0  0  0  0  0  0
  187.6220  176.9370  143.8470 C   0  0  2  0  0  3  0  0  0  0  0  0
  184.4340  178.5300  142.6620 C   0  0  2  0  0  3  0  0  0  0  0  0
  188.4510  178.2550  145.8540 C   0  0  0  0  0  2  0  0  0  0  0  0
  187.9380  177.4910  142.4680 C   0  0  0  0  0  2  0  0  0  0  0  0
  184.8890  178.6760  145.9770 C   0  0  0  0  0  2  0  0  0  0  0  0
  187.1690  178.0850  146.3900 O   0  0  0  0  0  0  0  0  0  0  0  0
  184.5430  179.6370  140.1690 C   0  0  0  0  0  2  0  0  0  0  0  0
  184.1560  178.1730  140.3500 C   0  0  1  0  0  3  0  0  0  0  0  0
  186.2890  178.5200  145.3910 C   0  0  1  0  0  3  0  0  0  0  0  0
  186.6370  177.7640  141.8480 N   0  0  2  0  0  0  0  0  0  0  0  0
  183.5030  178.4260  143.8820 C   0  0  1  0  0  3  0  0  0  0  0  0
  185.5840  178.5640  139.8750 C   0  0  2  0  0  3  0  0  0  0  0  0
  186.6880  178.7600  140.8370 N   0  0  0  0  0  0  0  0  0  0  0  0
  183.9310  179.3680  145.0110 C   0  0  0  0  0  2  0  0  0  0  0  0
  181.0510  178.2560  144.3340 C   0  0  0  0  0  3  0  0  0  0  0  0
  182.0810  178.6960  143.4960 C   0  0  0  0  0  0  0  0  0  0  0  0
  181.7670  179.3750  142.3080 C   0  0  0  0  0  3  0  0  0  0  0  0
  180.1320  180.2620  140.8180 F   0  0  0  0  0  0  0  0  0  0  0  0
  179.4070  179.1670  142.8060 C   0  0  0  0  0  3  0  0  0  0  0  0
  180.4320  179.6080  141.9640 C   0  0  0  0  0  0  0  0  0  0  0  0
  179.7160  178.4910  143.9910 C   0  0  0  0  0  3  0  0  0  0  0  0
  187.8970  178.6250  140.0150 C   0  0  0  0  0  2  0  0  0  0  0  0
  187.5780  177.9780  138.6670 C   0  0  1  0  0  3  0  0  0  0  0  0
  187.6510  178.2310  136.3400 C   0  0  0  0  0  1  0  0  0  0  0  0
  187.6720  178.9600  137.5950 N   0  0  0  0  0  2  0  0  0  0  0  0
  188.5170  176.8070  138.3990 C   0  0  0  0  0  2  0  0  0  0  0  0
  189.8370  176.9840  139.1310 C   0  0  0  0  0  2  0  0  0  0  0  0
  190.5830  175.8070  139.0710 O   0  0  0  0  0  1  0  0  0  0  0  0
  190.0040  177.2640  144.3080 O   0  0  0  0  0  0  0  0  0  0  0  0
  190.9730  176.7600  145.1980 C   0  0  0  0  0  0  0  0  0  0  0  0
  191.9430  177.7150  145.4640 F   0  0  0  0  0  0  0  0  0  0  0  0
  190.3870  176.3420  146.3830 F   0  0  0  0  0  0  0  0  0  0  0  0
  191.5860  175.6700  144.6090 F   0  0  0  0  0  0  0  0  0  0  0  0
  1 13  1  0  0  0  0
  2  6  1  0  0  0  0
  3  7  1  0  0  0  0
  4  1  1  0  0  0  0
  5  1  1  0  0  0  0
  5  3  1  0  0  0  0
  6  4  1  0  0  0  0
  6 15  1  0  0  0  0
  7 10  1  0  0  0  0
  8  5  1  0  0  0  0
 11 12  1  0  0  0  0
 12  2  1  0  0  0  0
 13  9  1  0  0  0  0
 13 10  1  0  0  0  0
 14  8  1  0  0  0  0
 14  4  1  0  0  0  0
 15 18  1  0  0  0  0
 16 11  1  0  0  0  0
 16 12  1  0  0  0  0
 16 17  1  0  0  0  0
 17 14  1  0  0  0  0
 18  9  1  0  0  0  0
 20 15  1  0  0  0  0
 20 19  2  0  0  0  0
 21 20  1  0  0  0  0
 22 24  1  0  0  0  0
 23 25  2  0  0  0  0
 24 21  2  0  0  0  0
 24 23  1  0  0  0  0
 25 19  1  0  0  0  0
 26 17  1  0  0  0  0
 27 26  1  0  0  0  0
 28 29  1  0  0  0  0
 29 27  1  0  0  0  0
 30 27  1  0  0  0  0
 30 31  1  0  0  0  0
 32 31  1  0  0  0  0
 33  3  1  0  0  0  0
 33 34  1  0  0  0  0
 34 35  1  0  0  0  0
 34 36  1  0  0  0  0
 37 34  1  0  0  0  0
M  END
>  <MODEL>
6

>  <REMARK>
 VINA RESULT:      -8.0      3.414      8.473
  Name = 
  8 active torsions:
  status: ('A' for Active; 'I' for Inactive)
    1  A    between atoms: C_1  and  C_4
    2  A    between atoms: C_1  and  N_27
    3  A    between atoms: C_2  and  O_22
    4  A    between atoms: C_4  and  C_12
    5  A    between atoms: C_4  and  N_37
    6  A    between atoms: C_6  and  O_22
    7  A    between atoms: C_8  and  C_12
    8  A    between atoms: C_23  and  C_30
                            x       y       z     vdW  Elec       q    Type
                         _______ _______ _______ _____ _____    ______ ____

>  <TORSDO>
F 8

$$$$
=
 OpenBabel11122411473D

 37 42  0  0  1  0  0  0  0  0999 V2000
  185.4110  179.0100  140.8380 C   0  0  1  0  0  3  0  0  0  0  0  0
  188.6890  178.8380  140.1440 O   0  0  0  0  0  0  0  0  0  0  0  0
  183.0230  179.4190  139.8600 C   0  0  2  0  0  3  0  0  0  0  0  0
  186.4170  178.1320  140.1180 C   0  0  2  0  0  3  0  0  0  0  0  0
  184.5530  179.5500  139.6870 C   0  0  2  0  0  3  0  0  0  0  0  0
  187.7830  177.9790  140.7830 C   0  0  2  0  0  3  0  0  0  0  0  0
  182.6590  178.3380  140.8690 C   0  0  0  0  0  2  0  0  0  0  0  0
  185.1270  178.9000  138.4390 C   0  0  0  0  0  2  0  0  0  0  0  0
  185.4130  178.0300  143.1480 C   0  0  0  0  0  2  0  0  0  0  0  0
  183.3570  178.5790  142.0570 O   0  0  0  0  0  0  0  0  0  0  0  0
  189.1890  176.7140  138.8140 C   0  0  0  0  0  2  0  0  0  0  0  0
  189.4090  178.1970  139.0910 C   0  0  1  0  0  3  0  0  0  0  0  0
  184.6560  178.1070  141.8260 C   0  0  1  0  0  3  0  0  0  0  0  0
  186.5340  178.6280  138.7520 N   0  0  2  0  0  0  0  0  0  0  0  0
  187.7880  178.1880  142.3060 C   0  0  1  0  0  3  0  0  0  0  0  0
  188.5540  177.7360  137.8780 C   0  0  2  0  0  3  0  0  0  0  0  0
  187.0900  177.5680  137.9870 N   0  0  0  0  0  0  0  0  0  0  0  0
  186.7510  177.3070  143.0080 C   0  0  0  0  0  2  0  0  0  0  0  0
  189.6290  176.6240  142.9480 C   0  0  0  0  0  3  0  0  0  0  0  0
  189.1500  177.9360  142.8790 C   0  0  0  0  0  0  0  0  0  0  0  0
  189.9450  178.9910  143.3510 C   0  0  0  0  0  3  0  0  0  0  0  0
  191.9750  179.7510  144.3440 F   0  0  0  0  0  0  0  0  0  0  0  0
  191.6830  177.4170  143.9550 C   0  0  0  0  0  3  0  0  0  0  0  0
  191.2100  178.7310  143.8890 C   0  0  0  0  0  0  0  0  0  0  0  0
  190.8930  176.3630  143.4850 C   0  0  0  0  0  3  0  0  0  0  0  0
  186.6280  177.6160  136.5940 C   0  0  0  0  0  2  0  0  0  0  0  0
  186.2770  176.2190  136.0810 C   0  0  1  0  0  3  0  0  0  0  0  0
  187.7280  174.3840  136.1980 C   0  0  0  0  0  1  0  0  0  0  0  0
  187.4380  175.5990  135.4570 N   0  0  0  0  0  2  0  0  0  0  0  0
  185.7540  175.3470  137.2170 C   0  0  0  0  0  2  0  0  0  0  0  0
  184.2350  175.3700  137.2710 C   0  0  0  0  0  2  0  0  0  0  0  0
  183.7450  174.1070  137.6030 O   0  0  0  0  0  1  0  0  0  0  0  0
  182.3730  179.1830  138.6350 O   0  0  0  0  0  0  0  0  0  0  0  0
  181.5500  180.2920  138.3560 C   0  0  0  0  0  0  0  0  0  0  0  0
  181.1960  180.3180  137.0150 F   0  0  0  0  0  0  0  0  0  0  0  0
  180.4080  180.2720  139.1430 F   0  0  0  0  0  0  0  0  0  0  0  0
  182.2550  181.4460  138.6420 F   0  0  0  0  0  0  0  0  0  0  0  0
  1 13  1  0  0  0  0
  2  6  1  0  0  0  0
  3  7  1  0  0  0  0
  4  6  1  0  0  0  0
  4  1  1  0  0  0  0
  5  3  1  0  0  0  0
  5  1  1  0  0  0  0
  6 15  1  0  0  0  0
  7 10  1  0  0  0  0
  8 14  1  0  0  0  0
  8  5  1  0  0  0  0
 11 12  1  0  0  0  0
 12  2  1  0  0  0  0
 13 10  1  0  0  0  0
 13  9  1  0  0  0  0
 14  4  1  0  0  0  0
 15 20  1  0  0  0  0
 15 18  1  0  0  0  0
 16 17  1  0  0  0  0
 16 11  1  0  0  0  0
 16 12  1  0  0  0  0
 17 14  1  0  0  0  0
 18  9  1  0  0  0  0
 19 25  1  0  0  0  0
 20 19  2  0  0  0  0
 20 21  1  0  0  0  0
 21 24  2  0  0  0  0
 24 23  1  0  0  0  0
 24 22  1  0  0  0  0
 25 23  2  0  0  0  0
 26 17  1  0  0  0  0
 27 26  1  0  0  0  0
 27 30  1  0  0  0  0
 29 27  1  0  0  0  0
 29 28  1  0  0  0  0
 30 31  1  0  0  0  0
 31 32  1  0  0  0  0
 33  3  1  0  0  0  0
 34 33  1  0  0  0  0
 34 37  1  0  0  0  0
 34 36  1  0  0  0  0
 35 34  1  0  0  0  0
M  END
>  <MODEL>
7

>  <REMARK>
 VINA RESULT:      -7.4      4.119      7.018
  Name = 
  8 active torsions:
  status: ('A' for Active; 'I' for Inactive)
    1  A    between atoms: C_1  and  C_4
    2  A    between atoms: C_1  and  N_27
    3  A    between atoms: C_2  and  O_22
    4  A    between atoms: C_4  and  C_12
    5  A    between atoms: C_4  and  N_37
    6  A    between atoms: C_6  and  O_22
    7  A    between atoms: C_8  and  C_12
    8  A    between atoms: C_23  and  C_30
                            x       y       z     vdW  Elec       q    Type
                         _______ _______ _______ _____ _____    ______ ____

>  <TORSDO>
F 8

$$$$
=
 OpenBabel11122411473D

 37 42  0  0  1  0  0  0  0  0999 V2000
  187.5780  178.2700  138.9050 C   0  0  1  0  0  3  0  0  0  0  0  0
  185.5600  179.6940  141.1760 O   0  0  0  0  0  0  0  0  0  0  0  0
  189.9570  177.2870  138.4560 C   0  0  2  0  0  3  0  0  0  0  0  0
  186.8160  177.9380  140.1740 C   0  0  2  0  0  3  0  0  0  0  0  0
  189.0410  178.1510  139.3510 C   0  0  2  0  0  3  0  0  0  0  0  0
  185.4410  178.5830  140.3280 C   0  0  2  0  0  3  0  0  0  0  0  0
  189.1570  176.3070  137.6060 C   0  0  0  0  0  2  0  0  0  0  0  0
  188.9660  177.7290  140.8090 C   0  0  0  0  0  2  0  0  0  0  0  0
  185.8970  177.7270  137.1220 C   0  0  0  0  0  2  0  0  0  0  0  0
  188.1710  177.0170  136.9120 O   0  0  0  0  0  0  0  0  0  0  0  0
  184.8560  177.9660  142.9220 C   0  0  0  0  0  2  0  0  0  0  0  0
  185.2880  179.3780  142.5400 C   0  0  1  0  0  3  0  0  0  0  0  0
  187.1500  177.2420  137.8450 C   0  0  1  0  0  3  0  0  0  0  0  0
  187.6870  178.2480  141.3020 N   0  0  2  0  0  0  0  0  0  0  0  0
  184.7490  178.9570  139.0060 C   0  0  1  0  0  3  0  0  0  0  0  0
  186.2880  178.3980  143.2160 C   0  0  2  0  0  3  0  0  0  0  0  0
  187.1730  177.5280  142.4130 N   0  0  0  0  0  0  0  0  0  0  0  0
  184.6780  177.7680  138.0420 C   0  0  0  0  0  2  0  0  0  0  0  0
  182.4890  178.7800  140.0560 C   0  0  0  0  0  3  0  0  0  0  0  0
  183.3760  179.5020  139.2530 C   0  0  0  0  0  0  0  0  0  0  0  0
  182.9660  180.7190  138.6850 C   0  0  0  0  0  3  0  0  0  0  0  0
  181.2840  182.3790  138.3750 F   0  0  0  0  0  0  0  0  0  0  0  0
  180.7940  180.4790  139.7280 C   0  0  0  0  0  3  0  0  0  0  0  0
  181.6770  181.2060  138.9230 C   0  0  0  0  0  0  0  0  0  0  0  0
  181.2000  179.2670  140.2950 C   0  0  0  0  0  3  0  0  0  0  0  0
  188.2420  177.1580  143.3500 C   0  0  0  0  0  2  0  0  0  0  0  0
  188.0970  177.9040  144.6760 C   0  0  1  0  0  3  0  0  0  0  0  0
  187.2390  177.8760  146.8550 C   0  0  0  0  0  1  0  0  0  0  0  0
  187.3330  177.1070  145.6270 N   0  0  0  0  0  2  0  0  0  0  0  0
  189.4660  178.2490  145.2500 C   0  0  0  0  0  2  0  0  0  0  0  0
  190.5270  178.2700  144.1620 C   0  0  0  0  0  2  0  0  0  0  0  0
  190.9930  179.5710  143.9680 O   0  0  0  0  0  1  0  0  0  0  0  0
  190.9310  176.6020  139.2040 O   0  0  0  0  0  0  0  0  0  0  0  0
  192.0450  176.3770  138.3720 C   0  0  0  0  0  0  0  0  0  0  0  0
  192.1610  175.0320  138.0550 F   0  0  0  0  0  0  0  0  0  0  0  0
  191.9550  177.1280  137.2100 F   0  0  0  0  0  0  0  0  0  0  0  0
  193.1860  176.7630  139.0510 F   0  0  0  0  0  0  0  0  0  0  0  0
  1  5  1  0  0  0  0
  1  4  1  0  0  0  0
  2 12  1  0  0  0  0
  3 33  1  0  0  0  0
  3  5  1  0  0  0  0
  4  6  1  0  0  0  0
  4 14  1  0  0  0  0
  5  8  1  0  0  0  0
  6  2  1  0  0  0  0
  7  3  1  0  0  0  0
  8 14  1  0  0  0  0
  9 13  1  0  0  0  0
  9 18  1  0  0  0  0
 10  7  1  0  0  0  0
 10 13  1  0  0  0  0
 11 16  1  0  0  0  0
 12 11  1  0  0  0  0
 12 16  1  0  0  0  0
 13  1  1  0  0  0  0
 14 17  1  0  0  0  0
 15 20  1  0  0  0  0
 15  6  1  0  0  0  0
 17 16  1  0  0  0  0
 17 26  1  0  0  0  0
 18 15  1  0  0  0  0
 19 25  1  0  0  0  0
 20 19  2  0  0  0  0
 21 24  2  0  0  0  0
 21 20  1  0  0  0  0
 22 24  1  0  0  0  0
 23 25  2  0  0  0  0
 24 23  1  0  0  0  0
 26 27  1  0  0  0  0
 27 30  1  0  0  0  0
 27 29  1  0  0  0  0
 29 28  1  0  0  0  0
 31 30  1  0  0  0  0
 32 31  1  0  0  0  0
 34 37  1  0  0  0  0
 34 33  1  0  0  0  0
 35 34  1  0  0  0  0
 36 34  1  0  0  0  0
M  END
>  <MODEL>
8

>  <REMARK>
 VINA RESULT:      -7.3      3.005      7.482
  Name = 
  8 active torsions:
  status: ('A' for Active; 'I' for Inactive)
    1  A    between atoms: C_1  and  C_4
    2  A    between atoms: C_1  and  N_27
    3  A    between atoms: C_2  and  O_22
    4  A    between atoms: C_4  and  C_12
    5  A    between atoms: C_4  and  N_37
    6  A    between atoms: C_6  and  O_22
    7  A    between atoms: C_8  and  C_12
    8  A    between atoms: C_23  and  C_30
                            x       y       z     vdW  Elec       q    Type
                         _______ _______ _______ _____ _____    ______ ____

>  <TORSDO>
F 8

$$$$
=
 OpenBabel11122411473D

 37 42  0  0  1  0  0  0  0  0999 V2000
  185.4480  178.9860  140.8140 C   0  0  1  0  0  3  0  0  0  0  0  0
  188.7300  178.8470  140.1290 O   0  0  0  0  0  0  0  0  0  0  0  0
  183.0550  179.3250  139.8210 C   0  0  2  0  0  3  0  0  0  0  0  0
  186.4700  178.1030  140.1220 C   0  0  2  0  0  3  0  0  0  0  0  0
  184.5830  179.4760  139.6460 C   0  0  2  0  0  3  0  0  0  0  0  0
  187.8370  177.9930  140.7930 C   0  0  2  0  0  3  0  0  0  0  0  0
  182.7070  178.2700  140.8620 C   0  0  0  0  0  2  0  0  0  0  0  0
  185.1700  178.7980  138.4200 C   0  0  0  0  0  2  0  0  0  0  0  0
  185.4620  178.0770  143.1540 C   0  0  0  0  0  2  0  0  0  0  0  0
  183.3990  178.5590  142.0440 O   0  0  0  0  0  0  0  0  0  0  0  0
  189.2660  176.6920  138.8660 C   0  0  0  0  0  2  0  0  0  0  0  0
  189.4610  178.1860  139.0980 C   0  0  1  0  0  3  0  0  0  0  0  0
  184.7060  178.1020  141.8290 C   0  0  1  0  0  3  0  0  0  0  0  0
  186.5800  178.5580  138.7420 N   0  0  2  0  0  0  0  0  0  0  0  0
  187.8360  178.2490  142.3100 C   0  0  1  0  0  3  0  0  0  0  0  0
  188.6170  177.6730  137.8980 C   0  0  2  0  0  3  0  0  0  0  0  0
  187.1550  177.4850  138.0110 N   0  0  0  0  0  0  0  0  0  0  0  0
  186.8120  177.3720  143.0370 C   0  0  0  0  0  2  0  0  0  0  0  0
  189.9210  179.1390  143.3620 C   0  0  0  0  0  3  0  0  0  0  0  0
  189.2000  178.0370  142.8910 C   0  0  0  0  0  0  0  0  0  0  0  0
  189.7680  176.7540  142.9630 C   0  0  0  0  0  3  0  0  0  0  0  0
  191.5910  175.3440  143.5690 F   0  0  0  0  0  0  0  0  0  0  0  0
  191.7610  177.6870  143.9720 C   0  0  0  0  0  3  0  0  0  0  0  0
  191.0460  176.5820  143.5020 C   0  0  0  0  0  0  0  0  0  0  0  0
  191.1990  178.9660  143.9020 C   0  0  0  0  0  3  0  0  0  0  0  0
  186.6940  177.4820  136.6170 C   0  0  0  0  0  2  0  0  0  0  0  0
  186.0890  176.1300  136.2380 C   0  0  1  0  0  3  0  0  0  0  0  0
  187.9610  175.3630  135.0570 C   0  0  0  0  0  1  0  0  0  0  0  0
  186.5580  175.7120  134.9240 N   0  0  0  0  0  2  0  0  0  0  0  0
  186.4330  175.0770  137.2850 C   0  0  0  0  0  2  0  0  0  0  0  0
  185.3730  173.9910  137.3410 C   0  0  0  0  0  2  0  0  0  0  0  0
  185.9670  172.7320  137.2640 O   0  0  0  0  0  1  0  0  0  0  0  0
  182.4110  179.0410  138.6030 O   0  0  0  0  0  0  0  0  0  0  0  0
  181.6090  180.1490  138.2640 C   0  0  0  0  0  0  0  0  0  0  0  0
  180.4420  180.1610  139.0120 F   0  0  0  0  0  0  0  0  0  0  0  0
  182.3000  181.3360  138.4510 F   0  0  0  0  0  0  0  0  0  0  0  0
  181.2680  180.0510  136.9280 F   0  0  0  0  0  0  0  0  0  0  0  0
  1 13  1  0  0  0  0
  2  6  1  0  0  0  0
  3  7  1  0  0  0  0
  4  6  1  0  0  0  0
  4  1  1  0  0  0  0
  5  3  1  0  0  0  0
  5  1  1  0  0  0  0
  6 15  1  0  0  0  0
  7 10  1  0  0  0  0
  8 14  1  0  0  0  0
  8  5  1  0  0  0  0
 11 12  1  0  0  0  0
 12  2  1  0  0  0  0
 13 10  1  0  0  0  0
 13  9  1  0  0  0  0
 14  4  1  0  0  0  0
 15 20  1  0  0  0  0
 15 18  1  0  0  0  0
 16 17  1  0  0  0  0
 16 11  1  0  0  0  0
 16 12  1  0  0  0  0
 17 14  1  0  0  0  0
 18  9  1  0  0  0  0
 19 25  1  0  0  0  0
 20 21  1  0  0  0  0
 20 19  2  0  0  0  0
 21 24  2  0  0  0  0
 24 22  1  0  0  0  0
 24 23  1  0  0  0  0
 25 23  2  0  0  0  0
 26 17  1  0  0  0  0
 27 26  1  0  0  0  0
 27 30  1  0  0  0  0
 29 28  1  0  0  0  0
 29 27  1  0  0  0  0
 30 31  1  0  0  0  0
 32 31  1  0  0  0  0
 33  3  1  0  0  0  0
 34 36  1  0  0  0  0
 34 33  1  0  0  0  0
 34 35  1  0  0  0  0
 37 34  1  0  0  0  0
M  END
>  <MODEL>
9

>  <REMARK>
 VINA RESULT:      -7.2      3.998      7.006
  Name = 
  8 active torsions:
  status: ('A' for Active; 'I' for Inactive)
    1  A    between atoms: C_1  and  C_4
    2  A    between atoms: C_1  and  N_27
    3  A    between atoms: C_2  and  O_22
    4  A    between atoms: C_4  and  C_12
    5  A    between atoms: C_4  and  N_37
    6  A    between atoms: C_6  and  O_22
    7  A    between atoms: C_8  and  C_12
    8  A    between atoms: C_23  and  C_30
                            x       y       z     vdW  Elec       q    Type
                         _______ _______ _______ _____ _____    ______ ____

>  <TORSDO>
F 8

$$$$
