=
 OpenBabel11122412153D

 34 41  0  0  1  0  0  0  0  0999 V2000
  184.4600  178.9400  144.4210 C   0  0  2  0  0  3  0  0  0  0  0  0
  182.2650  179.1550  143.3980 C   0  0  0  0  0  2  0  0  0  0  0  0
  190.9530  177.5710  144.1930 C   0  0  2  0  0  3  0  0  0  0  0  0
  186.7800  178.5530  145.3580 C   0  0  1  0  0  3  0  0  0  0  0  0
  188.5910  177.7970  143.7660 C   0  0  1  0  0  3  0  0  0  0  0  0
  190.5510  176.8860  142.3310 C   0  0  0  0  0  2  0  0  0  0  0  0
  191.7460  177.4150  142.9850 N   0  0  0  0  0  2  0  0  0  0  0  0
  190.1920  176.7220  146.7310 S   0  0  0  0  0  0  0  0  0  0  0  0
  184.0890  178.8220  142.1110 C   0  0  1  0  0  3  0  0  0  0  0  0
  184.0650  178.4260  138.9690 C   0  0  0  0  0  3  0  0  0  0  0  0
  187.4790  177.4230  142.7890 C   0  0  0  0  0  2  0  0  0  0  0  0
  189.1170  178.1400  146.2480 C   0  0  0  0  0  2  0  0  0  0  0  0
  185.4120  178.0920  141.8290 C   0  0  2  0  0  3  0  0  0  0  0  0
  181.7810  179.1600  141.9470 C   0  0  0  0  0  2  0  0  0  0  0  0
  188.0560  177.7140  145.2160 C   0  0  1  0  0  3  0  0  0  0  0  0
  191.4800  176.8410  145.4120 C   0  0  0  0  0  2  0  0  0  0  0  0
  183.1850  179.2980  139.8180 C   0  0  2  0  0  3  0  0  0  0  0  0
  185.7790  178.1630  144.2540 C   0  0  2  0  0  3  0  0  0  0  0  0
  189.7660  176.8500  143.6250 C   0  0  1  0  0  3  0  0  0  0  0  0
  186.3710  178.3710  142.9180 N   0  0  1  0  0  0  0  0  0  0  0  0
  184.7300  177.9080  146.7630 C   0  0  0  0  0  2  0  0  0  0  0  0
  185.3260  178.1160  139.2950 C   0  0  0  0  0  3  0  0  0  0  0  0
  186.1750  178.4110  146.7690 C   0  0  0  0  0  2  0  0  0  0  0  0
  186.0100  178.6370  140.5250 C   0  0  0  0  0  2  0  0  0  0  0  0
  182.9490  178.5940  141.1520 C   0  0  1  0  0  3  0  0  0  0  0  0
  183.8630  178.7610  145.8340 C   0  0  0  0  0  2  0  0  0  0  0  0
  183.5430  178.4500  143.4000 N   0  0  1  0  0  0  0  0  0  0  0  0
  181.9740  179.4960  139.1490 O   0  0  0  0  0  0  0  0  0  0  0  0
  182.0910  180.7590  138.5630 C   0  0  0  0  0  2  0  0  0  0  0  0
  180.9800  183.0360  136.5240 O   0  0  0  0  0  0  0  0  0  0  0  0
  180.6110  180.7050  136.5850 C   0  0  0  0  0  2  0  0  0  0  0  0
  180.7520  181.1940  137.9980 C   0  0  2  0  0  3  0  0  0  0  0  0
  180.4600  181.9700  135.7750 C   0  0  0  0  0  2  0  0  0  0  0  0
  180.7280  182.7000  137.8630 C   0  0  0  0  0  2  0  0  0  0  0  0
  1 26  1  1  0  0  0
  2 27  1  0  0  0  0
  3 16  1  1  0  0  0
  4 23  1  1  0  0  0
  5 11  1  6  0  0  0
  5 15  1  0  0  0  0
  6  7  1  0  0  0  0
  6 19  1  0  0  0  0
  7  3  1  0  0  0  0
  9 27  1  0  0  0  0
 10 22  2  0  0  0  0
 10 17  1  0  0  0  0
 11 20  1  0  0  0  0
 12  8  1  0  0  0  0
 13  9  1  0  0  0  0
 13 20  1  0  0  0  0
 14  2  1  0  0  0  0
 15  4  1  0  0  0  0
 15 12  1  0  0  0  0
 16  8  1  0  0  0  0
 17 25  1  0  0  0  0
 18  1  1  0  0  0  0
 18  4  1  0  0  0  0
 19  5  1  0  0  0  0
 19  3  1  0  0  0  0
 20 18  1  0  0  0  0
 21 23  1  0  0  0  0
 22 24  1  0  0  0  0
 24 13  1  0  0  0  0
 25 14  1  0  0  0  0
 25  9  1  0  0  0  0
 26 21  1  0  0  0  0
 27  1  1  0  0  0  0
 28 17  1  0  0  0  0
 29 28  1  0  0  0  0
 30 34  1  0  0  0  0
 31 32  1  0  0  0  0
 32 29  1  0  0  0  0
 33 30  1  0  0  0  0
 33 31  1  0  0  0  0
 34 32  1  0  0  0  0
M  END
>  <MODEL>
1

>  <REMARK>
 VINA RESULT:      -9.5      0.000      0.000
  Name = 
  3 active torsions:
  status: ('A' for Active; 'I' for Inactive)
    1  A    between atoms: C_17  and  O_28
    2  A    between atoms: O_28  and  C_29
    3  A    between atoms: C_29  and  C_32
                            x       y       z     vdW  Elec       q    Type
                         _______ _______ _______ _____ _____    ______ ____

>  <TORSDO>
F 3

$$$$
=
 OpenBabel11122412153D

 34 41  0  0  1  0  0  0  0  0999 V2000
  184.6030  178.9400  144.4950 C   0  0  2  0  0  3  0  0  0  0  0  0
  182.4260  179.1850  143.4390 C   0  0  0  0  0  2  0  0  0  0  0  0
  191.0770  177.4760  144.3640 C   0  0  2  0  0  3  0  0  0  0  0  0
  186.9030  178.5190  145.4670 C   0  0  1  0  0  3  0  0  0  0  0  0
  188.7250  177.7350  143.9010 C   0  0  1  0  0  3  0  0  0  0  0  0
  190.6930  176.7940  142.4970 C   0  0  0  0  0  2  0  0  0  0  0  0
  191.8860  177.3070  143.1680 N   0  0  0  0  0  2  0  0  0  0  0  0
  190.2670  176.6400  146.8910 S   0  0  0  0  0  0  0  0  0  0  0  0
  184.2640  178.8250  142.1800 C   0  0  1  0  0  3  0  0  0  0  0  0
  184.2800  178.4250  139.0380 C   0  0  0  0  0  3  0  0  0  0  0  0
  187.6230  177.3770  142.9090 C   0  0  0  0  0  2  0  0  0  0  0  0
  189.2200  178.0730  146.3910 C   0  0  0  0  0  2  0  0  0  0  0  0
  185.5800  178.0750  141.9180 C   0  0  2  0  0  3  0  0  0  0  0  0
  181.9640  179.1960  141.9820 C   0  0  0  0  0  2  0  0  0  0  0  0
  188.1690  177.6620  145.3440 C   0  0  1  0  0  3  0  0  0  0  0  0
  191.5760  176.7390  145.5910 C   0  0  0  0  0  2  0  0  0  0  0  0
  183.4000  179.3110  139.8730 C   0  0  2  0  0  3  0  0  0  0  0  0
  185.9120  178.1430  144.3480 C   0  0  2  0  0  3  0  0  0  0  0  0
  189.8890  176.7710  143.7790 C   0  0  1  0  0  3  0  0  0  0  0  0
  186.5270  178.3420  143.0200 N   0  0  1  0  0  0  0  0  0  0  0  0
  184.8230  177.9070  146.8420 C   0  0  0  0  0  2  0  0  0  0  0  0
  185.5320  178.0980  139.3830 C   0  0  0  0  0  3  0  0  0  0  0  0
  186.2750  178.3880  146.8680 C   0  0  0  0  0  2  0  0  0  0  0  0
  186.2050  178.6100  140.6220 C   0  0  0  0  0  2  0  0  0  0  0  0
  183.1350  178.6130  141.2050 C   0  0  1  0  0  3  0  0  0  0  0  0
  183.9830  178.7700  145.8990 C   0  0  0  0  0  2  0  0  0  0  0  0
  183.6940  178.4620  143.4610 N   0  0  1  0  0  0  0  0  0  0  0  0
  182.2030  179.5260  139.1860 O   0  0  0  0  0  0  0  0  0  0  0  0
  182.2010  178.5760  138.1630 C   0  0  0  0  0  2  0  0  0  0  0  0
  180.2980  176.6940  140.0110 O   0  0  0  0  0  0  0  0  0  0  0  0
  179.8360  178.7070  138.8680 C   0  0  0  0  0  2  0  0  0  0  0  0
  180.8330  177.9270  138.0600 C   0  0  2  0  0  3  0  0  0  0  0  0
  179.3440  177.7150  139.8940 C   0  0  0  0  0  2  0  0  0  0  0  0
  180.8660  176.5740  138.7340 C   0  0  0  0  0  2  0  0  0  0  0  0
  1 26  1  1  0  0  0
  2 27  1  0  0  0  0
  3 16  1  1  0  0  0
  4 23  1  1  0  0  0
  5 11  1  6  0  0  0
  5 15  1  0  0  0  0
  6  7  1  0  0  0  0
  6 19  1  0  0  0  0
  7  3  1  0  0  0  0
  9 27  1  0  0  0  0
 10 22  2  0  0  0  0
 10 17  1  0  0  0  0
 11 20  1  0  0  0  0
 12  8  1  0  0  0  0
 13  9  1  0  0  0  0
 13 20  1  0  0  0  0
 14  2  1  0  0  0  0
 15  4  1  0  0  0  0
 15 12  1  0  0  0  0
 16  8  1  0  0  0  0
 17 25  1  0  0  0  0
 18  1  1  0  0  0  0
 18  4  1  0  0  0  0
 19  5  1  0  0  0  0
 19  3  1  0  0  0  0
 20 18  1  0  0  0  0
 21 23  1  0  0  0  0
 22 24  1  0  0  0  0
 24 13  1  0  0  0  0
 25 14  1  0  0  0  0
 25  9  1  0  0  0  0
 26 21  1  0  0  0  0
 27  1  1  0  0  0  0
 28 17  1  0  0  0  0
 29 28  1  0  0  0  0
 31 33  1  0  0  0  0
 32 29  1  0  0  0  0
 32 34  1  0  0  0  0
 32 31  1  0  0  0  0
 33 30  1  0  0  0  0
 34 30  1  0  0  0  0
M  END
>  <MODEL>
2

>  <REMARK>
 VINA RESULT:      -9.4      1.555      2.128
  Name = 
  3 active torsions:
  status: ('A' for Active; 'I' for Inactive)
    1  A    between atoms: C_17  and  O_28
    2  A    between atoms: O_28  and  C_29
    3  A    between atoms: C_29  and  C_32
                            x       y       z     vdW  Elec       q    Type
                         _______ _______ _______ _____ _____    ______ ____

>  <TORSDO>
F 3

$$$$
=
 OpenBabel11122412153D

 34 41  0  0  1  0  0  0  0  0999 V2000
  190.4780  176.9850  142.5680 C   0  0  2  0  0  3  0  0  0  0  0  0
  192.3950  176.8380  141.0800 C   0  0  0  0  0  2  0  0  0  0  0  0
  184.0920  178.2940  143.8290 C   0  0  2  0  0  3  0  0  0  0  0  0
  188.4200  177.3080  144.0070 C   0  0  1  0  0  3  0  0  0  0  0  0
  186.3030  178.1120  142.8850 C   0  0  1  0  0  3  0  0  0  0  0  0
  184.0750  179.0620  141.9560 C   0  0  0  0  0  2  0  0  0  0  0  0
  183.0530  178.4930  142.8330 N   0  0  0  0  0  2  0  0  0  0  0  0
  185.3910  179.0430  146.1730 S   0  0  0  0  0  0  0  0  0  0  0  0
  190.3320  177.2060  140.2410 C   0  0  1  0  0  3  0  0  0  0  0  0
  189.6660  177.7360  137.1900 C   0  0  0  0  0  3  0  0  0  0  0  0
  187.1720  178.5390  141.7060 C   0  0  0  0  0  2  0  0  0  0  0  0
  186.3350  177.6580  145.4050 C   0  0  0  0  0  2  0  0  0  0  0  0
  188.9790  177.9330  140.2880 C   0  0  2  0  0  3  0  0  0  0  0  0
  192.5490  176.9000  139.5590 C   0  0  0  0  0  2  0  0  0  0  0  0
  187.1420  178.1390  144.1850 C   0  0  1  0  0  3  0  0  0  0  0  0
  183.8440  178.9660  145.1650 C   0  0  0  0  0  2  0  0  0  0  0  0
  190.7120  176.8380  137.7860 C   0  0  2  0  0  3  0  0  0  0  0  0
  189.1540  177.7550  142.7280 C   0  0  2  0  0  3  0  0  0  0  0  0
  185.1240  179.0510  143.0480 C   0  0  1  0  0  3  0  0  0  0  0  0
  188.2820  177.5970  141.5470 N   0  0  1  0  0  0  0  0  0  0  0  0
  190.7280  177.9140  144.9550 C   0  0  0  0  0  2  0  0  0  0  0  0
  188.5070  178.0170  137.7980 C   0  0  0  0  0  3  0  0  0  0  0  0
  189.3200  177.3960  145.2550 C   0  0  0  0  0  2  0  0  0  0  0  0
  188.1100  177.4380  139.1230 C   0  0  0  0  0  2  0  0  0  0  0  0
  191.2340  177.4860  139.0660 C   0  0  1  0  0  3  0  0  0  0  0  0
  191.3700  177.1110  143.8220 C   0  0  0  0  0  2  0  0  0  0  0  0
  191.1480  177.5280  141.3930 N   0  0  1  0  0  0  0  0  0  0  0  0
  191.7460  176.6810  136.8600 O   0  0  0  0  0  0  0  0  0  0  0  0
  191.5260  175.4270  136.2850 C   0  0  0  0  0  2  0  0  0  0  0  0
  194.6670  175.8900  136.9850 O   0  0  0  0  0  0  0  0  0  0  0  0
  193.3190  173.9590  137.1400 C   0  0  0  0  0  2  0  0  0  0  0  0
  192.8510  174.7640  135.9620 C   0  0  2  0  0  3  0  0  0  0  0  0
  194.6390  174.5910  137.5110 C   0  0  0  0  0  2  0  0  0  0  0  0
  193.9180  175.8230  135.8010 C   0  0  0  0  0  2  0  0  0  0  0  0
  1 18  1  0  0  0  0
  1 26  1  1  0  0  0
  2 27  1  0  0  0  0
  3 16  1  1  0  0  0
  4 15  1  0  0  0  0
  4 23  1  1  0  0  0
  5 11  1  6  0  0  0
  5 19  1  0  0  0  0
  5 15  1  0  0  0  0
  6  7  1  0  0  0  0
  6 19  1  0  0  0  0
  7  3  1  0  0  0  0
  9 13  1  0  0  0  0
  9 27  1  0  0  0  0
 10 17  1  0  0  0  0
 10 22  2  0  0  0  0
 12  8  1  0  0  0  0
 13 20  1  0  0  0  0
 14  2  1  0  0  0  0
 15 12  1  0  0  0  0
 16  8  1  0  0  0  0
 17 25  1  0  0  0  0
 18  4  1  0  0  0  0
 19  3  1  0  0  0  0
 20 11  1  0  0  0  0
 20 18  1  0  0  0  0
 21 23  1  0  0  0  0
 22 24  1  0  0  0  0
 24 13  1  0  0  0  0
 25 14  1  0  0  0  0
 25  9  1  0  0  0  0
 26 21  1  0  0  0  0
 27  1  1  0  0  0  0
 28 17  1  0  0  0  0
 29 28  1  0  0  0  0
 30 33  1  0  0  0  0
 31 33  1  0  0  0  0
 32 29  1  0  0  0  0
 32 31  1  0  0  0  0
 34 32  1  0  0  0  0
 34 30  1  0  0  0  0
M  END
>  <MODEL>
3

>  <REMARK>
 VINA RESULT:      -9.3      4.469      8.413
  Name = 
  3 active torsions:
  status: ('A' for Active; 'I' for Inactive)
    1  A    between atoms: C_17  and  O_28
    2  A    between atoms: O_28  and  C_29
    3  A    between atoms: C_29  and  C_32
                            x       y       z     vdW  Elec       q    Type
                         _______ _______ _______ _____ _____    ______ ____

>  <TORSDO>
F 3

$$$$
=
 OpenBabel11122412153D

 34 41  0  0  1  0  0  0  0  0999 V2000
  190.5650  176.9270  142.3760 C   0  0  2  0  0  3  0  0  0  0  0  0
  192.4020  176.7770  140.7890 C   0  0  0  0  0  2  0  0  0  0  0  0
  184.2590  178.2540  143.9720 C   0  0  2  0  0  3  0  0  0  0  0  0
  188.5860  177.2530  143.9210 C   0  0  1  0  0  3  0  0  0  0  0  0
  186.4170  178.0670  142.9130 C   0  0  1  0  0  3  0  0  0  0  0  0
  184.1460  179.0270  142.1040 C   0  0  0  0  0  2  0  0  0  0  0  0
  183.1690  178.4590  143.0310 N   0  0  0  0  0  2  0  0  0  0  0  0
  185.6810  178.9920  146.2460 S   0  0  0  0  0  0  0  0  0  0  0  0
  190.2990  177.1540  140.0590 C   0  0  1  0  0  3  0  0  0  0  0  0
  189.4760  177.6940  137.0490 C   0  0  0  0  0  3  0  0  0  0  0  0
  187.2250  178.4940  141.6910 C   0  0  0  0  0  2  0  0  0  0  0  0
  186.5780  177.6070  145.4270 C   0  0  0  0  0  2  0  0  0  0  0  0
  188.9530  177.8860  140.1790 C   0  0  2  0  0  3  0  0  0  0  0  0
  192.4760  176.8420  139.2630 C   0  0  0  0  0  2  0  0  0  0  0  0
  187.3230  178.0880  144.1670 C   0  0  1  0  0  3  0  0  0  0  0  0
  184.0830  178.9230  145.3200 C   0  0  0  0  0  2  0  0  0  0  0  0
  190.5490  176.7910  137.5870 C   0  0  2  0  0  3  0  0  0  0  0  0
  189.2540  177.7010  142.6060 C   0  0  2  0  0  3  0  0  0  0  0  0
  185.2510  179.0100  143.1390 C   0  0  1  0  0  3  0  0  0  0  0  0
  188.3220  177.5490  141.4720 N   0  0  1  0  0  0  0  0  0  0  0  0
  190.9430  177.8490  144.7480 C   0  0  0  0  0  2  0  0  0  0  0  0
  188.3510  177.9780  137.7170 C   0  0  0  0  0  3  0  0  0  0  0  0
  189.5510  177.3350  145.1210 C   0  0  0  0  0  2  0  0  0  0  0  0
  188.0220  177.3960  139.0600 C   0  0  0  0  0  2  0  0  0  0  0  0
  191.1390  177.4340  138.8400 C   0  0  1  0  0  3  0  0  0  0  0  0
  191.5220  177.0470  143.5810 C   0  0  0  0  0  2  0  0  0  0  0  0
  191.1750  177.4710  141.1690 N   0  0  1  0  0  0  0  0  0  0  0  0
  191.5330  176.6330  136.6080 O   0  0  0  0  0  0  0  0  0  0  0  0
  191.0910  175.5640  135.8250 C   0  0  0  0  0  2  0  0  0  0  0  0
  191.8210  172.4630  135.1700 O   0  0  0  0  0  0  0  0  0  0  0  0
  192.6890  173.9450  136.7890 C   0  0  0  0  0  2  0  0  0  0  0  0
  191.2350  174.2640  136.5940 C   0  0  2  0  0  3  0  0  0  0  0  0
  192.8680  172.6190  136.0900 C   0  0  0  0  0  2  0  0  0  0  0  0
  190.7240  173.1190  135.7480 C   0  0  0  0  0  2  0  0  0  0  0  0
  1 18  1  0  0  0  0
  1 26  1  1  0  0  0
  2 27  1  0  0  0  0
  3 16  1  1  0  0  0
  4 15  1  0  0  0  0
  4 23  1  1  0  0  0
  5 11  1  6  0  0  0
  5 19  1  0  0  0  0
  5 15  1  0  0  0  0
  6  7  1  0  0  0  0
  6 19  1  0  0  0  0
  7  3  1  0  0  0  0
  9 13  1  0  0  0  0
  9 27  1  0  0  0  0
 10 17  1  0  0  0  0
 10 22  2  0  0  0  0
 12  8  1  0  0  0  0
 13 20  1  0  0  0  0
 14  2  1  0  0  0  0
 15 12  1  0  0  0  0
 16  8  1  0  0  0  0
 17 25  1  0  0  0  0
 18  4  1  0  0  0  0
 19  3  1  0  0  0  0
 20 11  1  0  0  0  0
 20 18  1  0  0  0  0
 21 23  1  0  0  0  0
 22 24  1  0  0  0  0
 24 13  1  0  0  0  0
 25 14  1  0  0  0  0
 25  9  1  0  0  0  0
 26 21  1  0  0  0  0
 27  1  1  0  0  0  0
 28 17  1  0  0  0  0
 29 32  1  0  0  0  0
 29 28  1  0  0  0  0
 30 34  1  0  0  0  0
 30 33  1  0  0  0  0
 32 31  1  0  0  0  0
 33 31  1  0  0  0  0
 34 32  1  0  0  0  0
M  END
>  <MODEL>
4

>  <REMARK>
 VINA RESULT:      -9.0      4.467      8.212
  Name = 
  3 active torsions:
  status: ('A' for Active; 'I' for Inactive)
    1  A    between atoms: C_17  and  O_28
    2  A    between atoms: O_28  and  C_29
    3  A    between atoms: C_29  and  C_32
                            x       y       z     vdW  Elec       q    Type
                         _______ _______ _______ _____ _____    ______ ____

>  <TORSDO>
F 3

$$$$
=
 OpenBabel11122412153D

 34 41  0  0  1  0  0  0  0  0999 V2000
  186.6810  178.0250  140.6480 C   0  0  2  0  0  3  0  0  0  0  0  0
  184.9510  178.8270  139.1400 C   0  0  0  0  0  2  0  0  0  0  0  0
  189.0840  176.7570  146.7060 C   0  0  2  0  0  3  0  0  0  0  0  0
  188.4250  177.3430  142.3530 C   0  0  1  0  0  3  0  0  0  0  0  0
  187.8290  177.5350  144.8010 C   0  0  1  0  0  3  0  0  0  0  0  0
  187.4680  177.7880  147.3570 C   0  0  0  0  0  2  0  0  0  0  0  0
  188.3160  176.7500  147.9410 N   0  0  0  0  0  2  0  0  0  0  0  0
  191.3370  177.4880  145.2460 S   0  0  0  0  0  0  0  0  0  0  0  0
  184.5160  178.5870  141.3410 C   0  0  1  0  0  3  0  0  0  0  0  0
  181.8000  179.3790  142.7660 C   0  0  0  0  0  3  0  0  0  0  0  0
  186.6770  178.4410  144.3780 C   0  0  0  0  0  2  0  0  0  0  0  0
  190.1400  176.6840  144.0990 C   0  0  0  0  0  2  0  0  0  0  0  0
  184.9200  178.7710  142.8130 C   0  0  2  0  0  3  0  0  0  0  0  0
  183.4830  179.2070  139.3360 C   0  0  0  0  0  2  0  0  0  0  0  0
  188.9690  177.6250  143.7590 C   0  0  1  0  0  3  0  0  0  0  0  0
  190.5620  177.0510  146.8660 C   0  0  0  0  0  2  0  0  0  0  0  0
  182.0160  178.8160  141.3900 C   0  0  2  0  0  3  0  0  0  0  0  0
  187.2000  178.2380  142.0820 C   0  0  2  0  0  3  0  0  0  0  0  0
  188.3700  177.9540  146.1530 C   0  0  1  0  0  3  0  0  0  0  0  0
  186.1470  177.9950  143.0880 N   0  0  1  0  0  0  0  0  0  0  0  0
  189.1630  178.5440  140.2070 C   0  0  0  0  0  2  0  0  0  0  0  0
  182.6110  179.1220  143.8000 C   0  0  0  0  0  3  0  0  0  0  0  0
  189.5220  177.5190  141.2840 C   0  0  0  0  0  2  0  0  0  0  0  0
  183.8020  178.2160  143.7060 C   0  0  0  0  0  2  0  0  0  0  0  0
  183.3280  179.3700  140.8410 C   0  0  1  0  0  3  0  0  0  0  0  0
  187.7940  178.2330  139.5980 C   0  0  0  0  0  2  0  0  0  0  0  0
  185.5890  178.9670  140.4450 N   0  0  1  0  0  0  0  0  0  0  0  0
  180.9450  179.2000  140.5780 O   0  0  0  0  0  0  0  0  0  0  0  0
  180.0200  178.1590  140.6890 C   0  0  0  0  0  2  0  0  0  0  0  0
  178.9330  175.3400  139.4850 O   0  0  0  0  0  0  0  0  0  0  0  0
  180.5190  176.8710  138.6400 C   0  0  0  0  0  2  0  0  0  0  0  0
  180.6150  176.8760  140.1380 C   0  0  2  0  0  3  0  0  0  0  0  0
  179.6670  175.6630  138.3340 C   0  0  0  0  0  2  0  0  0  0  0  0
  179.7590  175.7030  140.5590 C   0  0  0  0  0  2  0  0  0  0  0  0
  1 26  1  6  0  0  0
  1 18  1  0  0  0  0
  2 14  1  0  0  0  0
  2 27  1  0  0  0  0
  3 16  1  1  0  0  0
  3  7  1  0  0  0  0
  4 23  1  6  0  0  0
  4 15  1  0  0  0  0
  5 11  1  6  0  0  0
  5 19  1  0  0  0  0
  6  7  1  0  0  0  0
  8 16  1  0  0  0  0
  9 13  1  0  0  0  0
 10 22  2  0  0  0  0
 12  8  1  0  0  0  0
 13 20  1  0  0  0  0
 13 24  1  0  0  0  0
 14 25  1  0  0  0  0
 15 12  1  0  0  0  0
 15  5  1  0  0  0  0
 17 10  1  0  0  0  0
 18  4  1  0  0  0  0
 18 20  1  0  0  0  0
 19  3  1  0  0  0  0
 19  6  1  0  0  0  0
 20 11  1  0  0  0  0
 21 23  1  0  0  0  0
 24 22  1  0  0  0  0
 25  9  1  0  0  0  0
 25 17  1  0  0  0  0
 26 21  1  0  0  0  0
 27  1  1  0  0  0  0
 27  9  1  0  0  0  0
 28 29  1  0  0  0  0
 28 17  1  0  0  0  0
 30 34  1  0  0  0  0
 31 32  1  0  0  0  0
 32 34  1  0  0  0  0
 32 29  1  0  0  0  0
 33 31  1  0  0  0  0
 33 30  1  0  0  0  0
M  END
>  <MODEL>
5

>  <REMARK>
 VINA RESULT:      -8.8      2.423      4.450
  Name = 
  3 active torsions:
  status: ('A' for Active; 'I' for Inactive)
    1  A    between atoms: C_17  and  O_28
    2  A    between atoms: O_28  and  C_29
    3  A    between atoms: C_29  and  C_32
                            x       y       z     vdW  Elec       q    Type
                         _______ _______ _______ _____ _____    ______ ____

>  <TORSDO>
F 3

$$$$
=
 OpenBabel11122412153D

 34 41  0  0  1  0  0  0  0  0999 V2000
  185.8540  178.8510  141.7200 C   0  0  2  0  0  3  0  0  0  0  0  0
  185.0190  178.8970  139.4370 C   0  0  0  0  0  2  0  0  0  0  0  0
  190.4790  177.4340  146.2690 C   0  0  2  0  0  3  0  0  0  0  0  0
  186.8170  178.6190  144.0500 C   0  0  1  0  0  3  0  0  0  0  0  0
  189.1140  177.5940  144.2870 C   0  0  1  0  0  3  0  0  0  0  0  0
  191.3910  176.4420  144.7590 C   0  0  0  0  0  2  0  0  0  0  0  0
  191.8580  177.0700  145.9930 N   0  0  0  0  0  2  0  0  0  0  0  0
  188.0810  177.0360  147.6240 S   0  0  0  0  0  0  0  0  0  0  0  0
  187.1670  178.3410  139.8490 C   0  0  1  0  0  3  0  0  0  0  0  0
  189.2670  177.4120  137.6670 C   0  0  0  0  0  3  0  0  0  0  0  0
  188.9480  177.0630  142.8660 C   0  0  0  0  0  2  0  0  0  0  0  0
  187.8210  178.3540  146.3630 C   0  0  0  0  0  2  0  0  0  0  0  0
  188.2170  177.5670  140.6630 C   0  0  2  0  0  3  0  0  0  0  0  0
  185.6740  178.6550  138.0760 C   0  0  0  0  0  2  0  0  0  0  0  0
  187.7230  177.7630  144.9440 C   0  0  1  0  0  3  0  0  0  0  0  0
  189.9250  176.9210  147.5830 C   0  0  0  0  0  2  0  0  0  0  0  0
  188.1610  178.4200  137.5440 C   0  0  2  0  0  3  0  0  0  0  0  0
  186.8160  178.0510  142.6180 C   0  0  2  0  0  3  0  0  0  0  0  0
  189.9340  176.6320  145.1250 C   0  0  1  0  0  3  0  0  0  0  0  0
  188.1860  178.0250  142.0680 N   0  0  1  0  0  0  0  0  0  0  0  0
  184.3060  178.2340  143.6800 C   0  0  0  0  0  2  0  0  0  0  0  0
  189.9050  177.1580  138.8160 C   0  0  0  0  0  3  0  0  0  0  0  0
  185.3950  178.7250  144.6360 C   0  0  0  0  0  2  0  0  0  0  0  0
  189.6100  177.8780  140.0990 C   0  0  0  0  0  2  0  0  0  0  0  0
  186.9870  177.9570  138.4020 C   0  0  1  0  0  3  0  0  0  0  0  0
  184.4330  178.9190  142.3180 C   0  0  0  0  0  2  0  0  0  0  0  0
  185.8440  178.1970  140.4180 N   0  0  1  0  0  0  0  0  0  0  0  0
  187.7830  178.5070  136.2020 O   0  0  0  0  0  0  0  0  0  0  0  0
  188.3420  177.3770  135.5980 C   0  0  0  0  0  2  0  0  0  0  0  0
  185.5650  175.7300  135.9890 O   0  0  0  0  0  0  0  0  0  0  0  0
  186.0900  177.5620  134.5980 C   0  0  0  0  0  2  0  0  0  0  0  0
  187.3120  176.6980  134.7150 C   0  0  2  0  0  3  0  0  0  0  0  0
  184.9850  176.7090  135.1710 C   0  0  0  0  0  2  0  0  0  0  0  0
  186.8070  175.4480  135.4000 C   0  0  0  0  0  2  0  0  0  0  0  0
  1 26  1  1  0  0  0
  1 18  1  0  0  0  0
  2 27  1  0  0  0  0
  3 16  1  1  0  0  0
  4 23  1  1  0  0  0
  4 15  1  0  0  0  0
  5 11  1  6  0  0  0
  5 15  1  0  0  0  0
  5 19  1  0  0  0  0
  6 19  1  0  0  0  0
  6  7  1  0  0  0  0
  7  3  1  0  0  0  0
  9 27  1  0  0  0  0
  9 13  1  0  0  0  0
 10 22  2  0  0  0  0
 12  8  1  0  0  0  0
 13 20  1  0  0  0  0
 14 25  1  0  0  0  0
 14  2  1  0  0  0  0
 15 12  1  0  0  0  0
 16  8  1  0  0  0  0
 17 10  1  0  0  0  0
 17 25  1  0  0  0  0
 18  4  1  0  0  0  0
 19  3  1  0  0  0  0
 20 18  1  0  0  0  0
 20 11  1  0  0  0  0
 21 23  1  0  0  0  0
 22 24  1  0  0  0  0
 24 13  1  0  0  0  0
 25  9  1  0  0  0  0
 26 21  1  0  0  0  0
 27  1  1  0  0  0  0
 28 17  1  0  0  0  0
 29 28  1  0  0  0  0
 31 32  1  0  0  0  0
 31 33  1  0  0  0  0
 32 34  1  0  0  0  0
 32 29  1  0  0  0  0
 33 30  1  0  0  0  0
 34 30  1  0  0  0  0
M  END
>  <MODEL>
6

>  <REMARK>
 VINA RESULT:      -8.8      3.137      4.662
  Name = 
  3 active torsions:
  status: ('A' for Active; 'I' for Inactive)
    1  A    between atoms: C_17  and  O_28
    2  A    between atoms: O_28  and  C_29
    3  A    between atoms: C_29  and  C_32
                            x       y       z     vdW  Elec       q    Type
                         _______ _______ _______ _____ _____    ______ ____

>  <TORSDO>
F 3

$$$$
=
 OpenBabel11122412153D

 34 41  0  0  1  0  0  0  0  0999 V2000
  188.5710  177.1650  138.6200 C   0  0  2  0  0  3  0  0  0  0  0  0
  187.1410  178.3620  140.1810 C   0  0  0  0  0  2  0  0  0  0  0  0
  194.2400  174.1290  136.9700 C   0  0  2  0  0  3  0  0  0  0  0  0
  190.2230  176.0230  137.0790 C   0  0  1  0  0  3  0  0  0  0  0  0
  192.4980  175.4350  138.0070 C   0  0  1  0  0  3  0  0  0  0  0  0
  194.9290  174.8750  138.7200 C   0  0  0  0  0  2  0  0  0  0  0  0
  195.2870  173.7240  137.8930 N   0  0  0  0  0  2  0  0  0  0  0  0
  193.4180  175.3210  134.5940 S   0  0  0  0  0  0  0  0  0  0  0  0
  189.0770  177.4430  140.8900 C   0  0  1  0  0  3  0  0  0  0  0  0
  190.2610  177.7000  143.8160 C   0  0  0  0  0  3  0  0  0  0  0  0
  192.2070  176.4050  139.1480 C   0  0  0  0  0  2  0  0  0  0  0  0
  191.9180  174.8880  135.5730 C   0  0  0  0  0  2  0  0  0  0  0  0
  190.5770  177.1690  140.6980 C   0  0  2  0  0  3  0  0  0  0  0  0
  187.2270  178.6330  141.6840 C   0  0  0  0  0  2  0  0  0  0  0  0
  191.7120  175.8660  136.7460 C   0  0  1  0  0  3  0  0  0  0  0  0
  194.6960  174.3880  135.5480 C   0  0  0  0  0  2  0  0  0  0  0  0
  188.8260  177.5960  143.3840 C   0  0  2  0  0  3  0  0  0  0  0  0
  190.0610  176.9330  138.3110 C   0  0  2  0  0  3  0  0  0  0  0  0
  193.9780  175.4240  137.6780 C   0  0  1  0  0  3  0  0  0  0  0  0
  190.7800  176.3700  139.4720 N   0  0  1  0  0  0  0  0  0  0  0  0
  188.6770  177.8450  136.1400 C   0  0  0  0  0  2  0  0  0  0  0  0
  191.2750  177.1510  143.1360 C   0  0  0  0  0  3  0  0  0  0  0  0
  189.4320  176.5440  135.8620 C   0  0  0  0  0  2  0  0  0  0  0  0
  191.0860  176.3420  141.8870 C   0  0  0  0  0  2  0  0  0  0  0  0
  188.6700  178.3180  142.0480 C   0  0  1  0  0  3  0  0  0  0  0  0
  187.8080  177.7110  137.3930 C   0  0  0  0  0  2  0  0  0  0  0  0
  188.5060  178.1030  139.7340 N   0  0  1  0  0  0  0  0  0  0  0  0
  188.0220  178.1920  144.3590 O   0  0  0  0  0  0  0  0  0  0  0  0
  188.4450  177.6290  145.5650 C   0  0  0  0  0  2  0  0  0  0  0  0
  186.2580  179.2680  147.3290 O   0  0  0  0  0  0  0  0  0  0  0  0
  185.9770  177.5970  145.6860 C   0  0  0  0  0  2  0  0  0  0  0  0
  187.2450  177.3070  146.4360 C   0  0  2  0  0  3  0  0  0  0  0  0
  185.2920  178.6500  146.5220 C   0  0  0  0  0  2  0  0  0  0  0  0
  187.2000  178.2650  147.6050 C   0  0  0  0  0  2  0  0  0  0  0  0
  1 26  1  6  0  0  0
  1 27  1  0  0  0  0
  2 14  1  0  0  0  0
  3 16  1  6  0  0  0
  3 19  1  0  0  0  0
  3  7  1  0  0  0  0
  4 23  1  6  0  0  0
  4 18  1  0  0  0  0
  5 11  1  1  0  0  0
  7  6  1  0  0  0  0
  8 16  1  0  0  0  0
  8 12  1  0  0  0  0
  9 25  1  0  0  0  0
 11 20  1  0  0  0  0
 12 15  1  0  0  0  0
 13  9  1  0  0  0  0
 13 24  1  0  0  0  0
 14 25  1  0  0  0  0
 15  4  1  0  0  0  0
 15  5  1  0  0  0  0
 17 10  1  0  0  0  0
 17 28  1  0  0  0  0
 18  1  1  0  0  0  0
 18 20  1  0  0  0  0
 19  5  1  0  0  0  0
 19  6  1  0  0  0  0
 20 13  1  0  0  0  0
 21 26  1  0  0  0  0
 22 10  2  0  0  0  0
 23 21  1  0  0  0  0
 24 22  1  0  0  0  0
 25 17  1  0  0  0  0
 27  2  1  0  0  0  0
 27  9  1  0  0  0  0
 28 29  1  0  0  0  0
 29 32  1  0  0  0  0
 30 34  1  0  0  0  0
 31 32  1  0  0  0  0
 31 33  1  0  0  0  0
 32 34  1  0  0  0  0
 33 30  1  0  0  0  0
M  END
>  <MODEL>
7

>  <REMARK>
 VINA RESULT:      -8.6      5.014      8.829
  Name = 
  3 active torsions:
  status: ('A' for Active; 'I' for Inactive)
    1  A    between atoms: C_17  and  O_28
    2  A    between atoms: O_28  and  C_29
    3  A    between atoms: C_29  and  C_32
                            x       y       z     vdW  Elec       q    Type
                         _______ _______ _______ _____ _____    ______ ____

>  <TORSDO>
F 3

$$$$
=
 OpenBabel11122412153D

 34 41  0  0  1  0  0  0  0  0999 V2000
  186.6570  178.0080  140.4580 C   0  0  2  0  0  3  0  0  0  0  0  0
  184.9230  178.7990  138.9470 C   0  0  0  0  0  2  0  0  0  0  0  0
  189.0700  176.7750  146.5190 C   0  0  2  0  0  3  0  0  0  0  0  0
  188.4040  177.3370  142.1630 C   0  0  1  0  0  3  0  0  0  0  0  0
  187.8110  177.5410  144.6110 C   0  0  1  0  0  3  0  0  0  0  0  0
  187.4530  177.8070  147.1670 C   0  0  0  0  0  2  0  0  0  0  0  0
  188.3040  176.7730  147.7540 N   0  0  0  0  0  2  0  0  0  0  0  0
  191.3200  177.5030  145.0520 S   0  0  0  0  0  0  0  0  0  0  0  0
  184.4920  178.5700  141.1510 C   0  0  1  0  0  3  0  0  0  0  0  0
  181.7760  179.3640  142.5750 C   0  0  0  0  0  3  0  0  0  0  0  0
  186.6570  178.4440  144.1850 C   0  0  0  0  0  2  0  0  0  0  0  0
  190.1220  176.6900  143.9110 C   0  0  0  0  0  2  0  0  0  0  0  0
  184.8970  178.7620  142.6210 C   0  0  2  0  0  3  0  0  0  0  0  0
  183.4550  179.1770  139.1440 C   0  0  0  0  0  2  0  0  0  0  0  0
  188.9500  177.6280  143.5670 C   0  0  1  0  0  3  0  0  0  0  0  0
  190.5480  177.0730  146.6750 C   0  0  0  0  0  2  0  0  0  0  0  0
  181.9910  178.7950  141.2020 C   0  0  2  0  0  3  0  0  0  0  0  0
  187.1780  178.2290  141.8900 C   0  0  2  0  0  3  0  0  0  0  0  0
  188.3540  177.9690  145.9600 C   0  0  1  0  0  3  0  0  0  0  0  0
  186.1260  177.9900  142.8980 N   0  0  1  0  0  0  0  0  0  0  0  0
  189.1370  178.5290  140.0100 C   0  0  0  0  0  2  0  0  0  0  0  0
  182.5890  179.1140  143.6090 C   0  0  0  0  0  3  0  0  0  0  0  0
  189.5000  177.5100  141.0930 C   0  0  0  0  0  2  0  0  0  0  0  0
  183.7820  178.2100  143.5190 C   0  0  0  0  0  2  0  0  0  0  0  0
  183.3020  179.3480  140.6480 C   0  0  1  0  0  3  0  0  0  0  0  0
  187.7680  178.2120  139.4050 C   0  0  0  0  0  2  0  0  0  0  0  0
  185.5620  178.9470  140.2520 N   0  0  1  0  0  0  0  0  0  0  0  0
  180.9190  179.1730  140.3890 O   0  0  0  0  0  0  0  0  0  0  0  0
  180.1310  179.9970  141.1960 C   0  0  0  0  0  2  0  0  0  0  0  0
  179.5160  182.2490  138.9320 O   0  0  0  0  0  0  0  0  0  0  0  0
  178.9740  179.9540  139.0130 C   0  0  0  0  0  2  0  0  0  0  0  0
  178.9310  180.4950  140.4120 C   0  0  2  0  0  3  0  0  0  0  0  0
  179.0420  181.1880  138.1470 C   0  0  0  0  0  2  0  0  0  0  0  0
  179.0370  181.9920  140.2250 C   0  0  0  0  0  2  0  0  0  0  0  0
  1 26  1  6  0  0  0
  1 18  1  0  0  0  0
  2 14  1  0  0  0  0
  2 27  1  0  0  0  0
  3 16  1  1  0  0  0
  3  7  1  0  0  0  0
  4 23  1  6  0  0  0
  4 15  1  0  0  0  0
  5 11  1  6  0  0  0
  5 19  1  0  0  0  0
  6  7  1  0  0  0  0
  8 16  1  0  0  0  0
  9 13  1  0  0  0  0
 10 22  2  0  0  0  0
 12  8  1  0  0  0  0
 13 20  1  0  0  0  0
 13 24  1  0  0  0  0
 14 25  1  0  0  0  0
 15 12  1  0  0  0  0
 15  5  1  0  0  0  0
 17 10  1  0  0  0  0
 18  4  1  0  0  0  0
 18 20  1  0  0  0  0
 19  3  1  0  0  0  0
 19  6  1  0  0  0  0
 20 11  1  0  0  0  0
 21 23  1  0  0  0  0
 24 22  1  0  0  0  0
 25  9  1  0  0  0  0
 25 17  1  0  0  0  0
 26 21  1  0  0  0  0
 27  1  1  0  0  0  0
 27  9  1  0  0  0  0
 28 29  1  0  0  0  0
 28 17  1  0  0  0  0
 30 34  1  0  0  0  0
 31 32  1  0  0  0  0
 32 29  1  0  0  0  0
 33 30  1  0  0  0  0
 33 31  1  0  0  0  0
 34 32  1  0  0  0  0
M  END
>  <MODEL>
8

>  <REMARK>
 VINA RESULT:      -8.6      1.897      3.832
  Name = 
  3 active torsions:
  status: ('A' for Active; 'I' for Inactive)
    1  A    between atoms: C_17  and  O_28
    2  A    between atoms: O_28  and  C_29
    3  A    between atoms: C_29  and  C_32
                            x       y       z     vdW  Elec       q    Type
                         _______ _______ _______ _____ _____    ______ ____

>  <TORSDO>
F 3

$$$$
=
 OpenBabel11122412153D

 34 41  0  0  1  0  0  0  0  0999 V2000
  185.9640  178.7870  141.4990 C   0  0  2  0  0  3  0  0  0  0  0  0
  185.8370  178.6280  139.0760 C   0  0  0  0  0  2  0  0  0  0  0  0
  189.0560  177.8780  147.3040 C   0  0  2  0  0  3  0  0  0  0  0  0
  186.2010  178.7690  144.0200 C   0  0  1  0  0  3  0  0  0  0  0  0
  188.3340  177.8380  145.0040 C   0  0  1  0  0  3  0  0  0  0  0  0
  190.3790  176.8000  146.2160 C   0  0  0  0  0  2  0  0  0  0  0  0
  190.4590  177.5370  147.4760 N   0  0  0  0  0  2  0  0  0  0  0  0
  186.3690  177.5110  147.9270 S   0  0  0  0  0  0  0  0  0  0  0  0
  187.7730  178.1740  140.1440 C   0  0  1  0  0  3  0  0  0  0  0  0
  190.4280  177.1440  138.7580 C   0  0  0  0  0  3  0  0  0  0  0  0
  188.5970  177.1930  143.6470 C   0  0  0  0  0  2  0  0  0  0  0  0
  186.4820  178.7180  146.5390 C   0  0  0  0  0  2  0  0  0  0  0  0
  188.5420  177.5000  141.2920 C   0  0  2  0  0  3  0  0  0  0  0  0
  186.8650  178.3010  137.9920 C   0  0  0  0  0  2  0  0  0  0  0  0
  186.8100  178.0140  145.2080 C   0  0  1  0  0  3  0  0  0  0  0  0
  188.1440  177.4520  148.4380 C   0  0  0  0  0  2  0  0  0  0  0  0
  189.4000  178.1040  138.2330 C   0  0  2  0  0  3  0  0  0  0  0  0
  186.6250  178.0910  142.7040 C   0  0  2  0  0  3  0  0  0  0  0  0
  188.8780  176.9720  146.1230 C   0  0  1  0  0  3  0  0  0  0  0  0
  188.0960  178.0650  142.5820 N   0  0  1  0  0  0  0  0  0  0  0  0
  183.9120  178.2770  142.9660 C   0  0  0  0  0  2  0  0  0  0  0  0
  190.7020  177.0010  140.0610 C   0  0  0  0  0  3  0  0  0  0  0  0
  184.6690  178.8750  144.1540 C   0  0  0  0  0  2  0  0  0  0  0  0
  190.0370  177.8090  141.1350 C   0  0  0  0  0  2  0  0  0  0  0  0
  188.0290  177.6730  138.7450 C   0  0  1  0  0  3  0  0  0  0  0  0
  184.4290  178.8570  141.6470 C   0  0  0  0  0  2  0  0  0  0  0  0
  186.3410  178.0340  140.3110 N   0  0  1  0  0  0  0  0  0  0  0  0
  189.4320  178.0730  136.8360 O   0  0  0  0  0  0  0  0  0  0  0  0
  189.9650  176.8210  136.5180 C   0  0  0  0  0  2  0  0  0  0  0  0
  187.0630  175.6430  135.6400 O   0  0  0  0  0  0  0  0  0  0  0  0
  188.4040  177.3270  134.6700 C   0  0  0  0  0  2  0  0  0  0  0  0
  189.3120  176.2850  135.2570 C   0  0  2  0  0  3  0  0  0  0  0  0
  187.0420  176.6760  134.6920 C   0  0  0  0  0  2  0  0  0  0  0  0
  188.3770  175.1520  135.6170 C   0  0  0  0  0  2  0  0  0  0  0  0
  1 26  1  1  0  0  0
  1 18  1  0  0  0  0
  2 27  1  0  0  0  0
  3  7  1  0  0  0  0
  3 16  1  1  0  0  0
  4 23  1  1  0  0  0
  4 15  1  0  0  0  0
  5 11  1  6  0  0  0
  5 15  1  0  0  0  0
  5 19  1  0  0  0  0
  6  7  1  0  0  0  0
  8 16  1  0  0  0  0
  9 27  1  0  0  0  0
  9 13  1  0  0  0  0
 10 22  2  0  0  0  0
 12  8  1  0  0  0  0
 13 20  1  0  0  0  0
 14 25  1  0  0  0  0
 14  2  1  0  0  0  0
 15 12  1  0  0  0  0
 17 25  1  0  0  0  0
 17 10  1  0  0  0  0
 18  4  1  0  0  0  0
 19  6  1  0  0  0  0
 19  3  1  0  0  0  0
 20 18  1  0  0  0  0
 20 11  1  0  0  0  0
 21 23  1  0  0  0  0
 22 24  1  0  0  0  0
 24 13  1  0  0  0  0
 25  9  1  0  0  0  0
 26 21  1  0  0  0  0
 27  1  1  0  0  0  0
 28 17  1  0  0  0  0
 29 28  1  0  0  0  0
 31 33  1  0  0  0  0
 31 32  1  0  0  0  0
 32 34  1  0  0  0  0
 32 29  1  0  0  0  0
 33 30  1  0  0  0  0
 34 30  1  0  0  0  0
M  END
>  <MODEL>
9

>  <REMARK>
 VINA RESULT:      -8.3      3.537      5.597
  Name = 
  3 active torsions:
  status: ('A' for Active; 'I' for Inactive)
    1  A    between atoms: C_17  and  O_28
    2  A    between atoms: O_28  and  C_29
    3  A    between atoms: C_29  and  C_32
                            x       y       z     vdW  Elec       q    Type
                         _______ _______ _______ _____ _____    ______ ____

>  <TORSDO>
F 3

$$$$
