=
 OpenBabel11122411563D

 28 32  0  0  1  0  0  0  0  0999 V2000
  189.4330  178.1020  138.1190 C   0  0  0  0  0  0  0  0  0  0  0  0
  192.6290  175.9740  134.5930 C   0  0  0  0  0  1  0  0  0  0  0  0
  186.8130  174.2130  137.1950 O   0  0  0  0  0  0  0  0  0  0  0  0
  189.8310  176.7020  140.4700 N   0  0  0  0  0  0  0  0  0  0  0  0
  189.0580  173.3940  136.8480 C   0  0  2  0  0  3  0  0  0  0  0  0
  189.1420  178.8340  136.8450 C   0  0  0  0  0  2  0  0  0  0  0  0
  193.9090  176.8710  136.4750 C   0  0  0  0  0  1  0  0  0  0  0  0
  193.1140  175.6640  136.0160 C   0  0  0  0  0  0  0  0  0  0  0  0
  193.2740  173.4110  135.6330 C   0  0  1  0  0  3  0  0  0  0  0  0
  191.9570  175.4580  137.0450 C   0  0  2  0  0  3  0  0  0  0  0  0
  186.6080  177.1130  137.7600 O   0  0  0  0  0  1  0  0  0  0  0  0
  189.8300  175.5530  135.9360 C   0  0  1  0  0  3  0  0  0  0  0  0
  192.3280  173.0220  136.7560 C   0  0  0  0  0  2  0  0  0  0  0  0
  193.9930  174.5580  136.0070 O   0  0  0  0  0  0  0  0  0  0  0  0
  186.8860  177.6090  136.4840 C   0  0  2  0  0  3  0  0  0  0  0  0
  190.1760  176.9070  138.1030 C   0  0  0  0  0  0  0  0  0  0  0  0
  187.9980  174.4250  136.8210 C   0  0  0  0  0  0  0  0  0  0  0  0
  194.2380  172.2740  135.3690 C   0  0  0  0  0  1  0  0  0  0  0  0
  187.5270  176.5570  135.5760 C   0  0  0  0  0  2  0  0  0  0  0  0
  190.3410  176.2090  139.3110 C   0  0  0  0  0  3  0  0  0  0  0  0
  188.9340  178.5950  139.3300 C   0  0  0  0  0  3  0  0  0  0  0  0
  189.1460  177.8750  140.5050 C   0  0  0  0  0  3  0  0  0  0  0  0
  187.6430  178.9410  136.5500 C   0  0  0  0  0  2  0  0  0  0  0  0
  190.2430  174.0910  136.1740 C   0  0  1  0  0  3  0  0  0  0  0  0
  188.4300  175.6700  136.3040 N   0  0  0  0  0  0  0  0  0  0  0  0
  191.3890  174.1000  137.0790 N   0  0  2  0  0  0  0  0  0  0  0  0
  188.6700  172.2970  136.0790 O   0  0  0  0  0  1  0  0  0  0  0  0
  190.7760  176.3930  136.8060 C   0  0  1  0  0  3  0  0  0  0  0  0
  1 21  1  0  0  0  0
  2  8  1  0  0  0  0
  4 22  1  0  0  0  0
  5 27  1  6  0  0  0
  6  1  1  0  0  0  0
  8  7  1  0  0  0  0
  9 18  1  1  0  0  0
  9 14  1  0  0  0  0
  9 13  1  0  0  0  0
 10  8  1  6  0  0  0
 10 26  1  0  0  0  0
 12 24  1  0  0  0  0
 12 25  1  1  0  0  0
 12 28  1  0  0  0  0
 13 26  1  0  0  0  0
 14  8  1  0  0  0  0
 15 23  1  0  0  0  0
 15 11  1  1  0  0  0
 16  1  2  0  0  0  0
 16 20  1  0  0  0  0
 17  5  1  0  0  0  0
 17  3  2  0  0  0  0
 19 25  1  0  0  0  0
 19 15  1  0  0  0  0
 20  4  2  0  0  0  0
 21 22  2  0  0  0  0
 23  6  1  0  0  0  0
 24  5  1  0  0  0  0
 24 26  1  0  0  0  0
 25 17  1  0  0  0  0
 28 10  1  0  0  0  0
 28 16  1  0  0  0  0
M  END
>  <MODEL>
1

>  <REMARK>
 VINA RESULT:      -5.7      0.000      0.000
  Name = 
  0 active torsions:
  status: ('A' for Active; 'I' for Inactive)
                            x       y       z     vdW  Elec       q    Type
                         _______ _______ _______ _____ _____    ______ ____

>  <TORSDO>
F 0

$$$$
=
 OpenBabel11122411563D

 28 32  0  0  1  0  0  0  0  0999 V2000
  180.6320  177.5540  138.0320 C   0  0  0  0  0  0  0  0  0  0  0  0
  184.0480  173.6840  137.3020 C   0  0  0  0  0  1  0  0  0  0  0  0
  184.5440  179.9300  139.4070 O   0  0  0  0  0  0  0  0  0  0  0  0
  180.9230  179.2600  135.8760 N   0  0  0  0  0  0  0  0  0  0  0  0
  185.4390  178.4110  137.7570 C   0  0  2  0  0  3  0  0  0  0  0  0
  180.4990  176.6880  139.2470 C   0  0  0  0  0  2  0  0  0  0  0  0
  182.4510  173.7740  135.4510 C   0  0  0  0  0  1  0  0  0  0  0  0
  183.7360  174.3850  135.9730 C   0  0  0  0  0  0  0  0  0  0  0  0
  185.9430  174.7110  135.4540 C   0  0  1  0  0  3  0  0  0  0  0  0
  183.4910  175.9210  136.1130 C   0  0  2  0  0  3  0  0  0  0  0  0
  181.6730  179.5570  140.0290 O   0  0  0  0  0  1  0  0  0  0  0  0
  183.8610  176.6190  138.3800 C   0  0  1  0  0  3  0  0  0  0  0  0
  185.8260  176.2210  135.3300 C   0  0  0  0  0  2  0  0  0  0  0  0
  184.7470  174.1140  135.0240 O   0  0  0  0  0  0  0  0  0  0  0  0
  181.7560  178.3730  140.7650 C   0  0  2  0  0  3  0  0  0  0  0  0
  181.7270  177.3980  137.1620 C   0  0  0  0  0  0  0  0  0  0  0  0
  184.5110  178.8060  138.8390 C   0  0  0  0  0  0  0  0  0  0  0  0
  187.0900  174.2230  134.5940 C   0  0  0  0  0  1  0  0  0  0  0  0
  183.0930  177.6550  140.5660 C   0  0  0  0  0  2  0  0  0  0  0  0
  181.8560  178.2960  136.0880 C   0  0  0  0  0  3  0  0  0  0  0  0
  179.6770  178.5450  137.7800 C   0  0  0  0  0  3  0  0  0  0  0  0
  179.8410  179.3950  136.6870 C   0  0  0  0  0  3  0  0  0  0  0  0
  180.5210  177.4900  140.5520 C   0  0  0  0  0  2  0  0  0  0  0  0
  185.0910  176.9400  137.5150 C   0  0  1  0  0  3  0  0  0  0  0  0
  183.5980  177.7870  139.2020 N   0  0  0  0  0  0  0  0  0  0  0  0
  184.7090  176.7480  136.1190 N   0  0  2  0  0  0  0  0  0  0  0  0
  186.7560  178.5060  138.2070 O   0  0  0  0  0  1  0  0  0  0  0  0
  182.7380  176.2880  137.3880 C   0  0  1  0  0  3  0  0  0  0  0  0
  1  6  1  0  0  0  0
  4 20  2  0  0  0  0
  4 22  1  0  0  0  0
  5 27  1  1  0  0  0
  5 17  1  0  0  0  0
  6 23  1  0  0  0  0
  7  8  1  0  0  0  0
  8  2  1  0  0  0  0
  9 18  1  6  0  0  0
 10  8  1  1  0  0  0
 10 26  1  0  0  0  0
 10 28  1  0  0  0  0
 12 25  1  6  0  0  0
 13  9  1  0  0  0  0
 13 26  1  0  0  0  0
 14  9  1  0  0  0  0
 14  8  1  0  0  0  0
 15 11  1  6  0  0  0
 16 28  1  0  0  0  0
 16  1  2  0  0  0  0
 17 25  1  0  0  0  0
 17  3  2  0  0  0  0
 19 15  1  0  0  0  0
 20 16  1  0  0  0  0
 21  1  1  0  0  0  0
 22 21  2  0  0  0  0
 23 15  1  0  0  0  0
 24  5  1  0  0  0  0
 24 12  1  0  0  0  0
 25 19  1  0  0  0  0
 26 24  1  0  0  0  0
 28 12  1  0  0  0  0
M  END
>  <MODEL>
2

>  <REMARK>
 VINA RESULT:      -5.1      5.070      8.141
  Name = 
  0 active torsions:
  status: ('A' for Active; 'I' for Inactive)
                            x       y       z     vdW  Elec       q    Type
                         _______ _______ _______ _____ _____    ______ ____

>  <TORSDO>
F 0

$$$$
=
 OpenBabel11122411563D

 28 32  0  0  1  0  0  0  0  0999 V2000
  181.1700  179.4420  137.4910 C   0  0  0  0  0  0  0  0  0  0  0  0
  185.5410  176.7480  138.3910 C   0  0  0  0  0  1  0  0  0  0  0  0
  180.5310  178.7990  142.1830 O   0  0  0  0  0  0  0  0  0  0  0  0
  181.6490  182.0150  138.3840 N   0  0  0  0  0  0  0  0  0  0  0  0
  182.9380  178.8850  142.0170 C   0  0  2  0  0  3  0  0  0  0  0  0
  180.8550  178.0410  137.0630 C   0  0  0  0  0  2  0  0  0  0  0  0
  185.9870  178.6190  136.8800 C   0  0  0  0  0  1  0  0  0  0  0  0
  185.8370  178.2530  138.3430 C   0  0  0  0  0  0  0  0  0  0  0  0
  186.9460  178.2530  140.3470 C   0  0  1  0  0  3  0  0  0  0  0  0
  184.6880  179.1400  138.9230 C   0  0  2  0  0  3  0  0  0  0  0  0
  179.0910  178.8710  139.5970 O   0  0  0  0  0  1  0  0  0  0  0  0
  182.9440  177.7570  139.8220 C   0  0  1  0  0  3  0  0  0  0  0  0
  186.0420  179.2870  140.9960 C   0  0  0  0  0  2  0  0  0  0  0  0
  187.0680  178.5340  138.9770 O   0  0  0  0  0  0  0  0  0  0  0  0
  179.3790  177.5810  139.1450 C   0  0  2  0  0  3  0  0  0  0  0  0
  182.3150  179.7110  138.2630 C   0  0  0  0  0  0  0  0  0  0  0  0
  181.5810  178.5570  141.5300 C   0  0  0  0  0  0  0  0  0  0  0  0
  188.3130  178.3000  140.9970 C   0  0  0  0  0  1  0  0  0  0  0  0
  180.5420  176.9420  139.9080 C   0  0  0  0  0  2  0  0  0  0  0  0
  182.5170  181.0250  138.7180 C   0  0  0  0  0  3  0  0  0  0  0  0
  180.3010  180.4840  137.1480 C   0  0  0  0  0  3  0  0  0  0  0  0
  180.5600  181.7750  137.6070 C   0  0  0  0  0  3  0  0  0  0  0  0
  179.5190  177.5380  137.6180 C   0  0  0  0  0  2  0  0  0  0  0  0
  183.8510  178.2730  140.9510 C   0  0  1  0  0  3  0  0  0  0  0  0
  181.5710  177.9130  140.2700 N   0  0  0  0  0  0  0  0  0  0  0  0
  184.7110  179.3090  140.3850 N   0  0  2  0  0  0  0  0  0  0  0  0
  183.1670  178.2530  143.2390 O   0  0  0  0  0  1  0  0  0  0  0  0
  183.2990  178.6020  138.5910 C   0  0  1  0  0  3  0  0  0  0  0  0
  1 16  1  0  0  0  0
  4 20  1  0  0  0  0
  5 27  1  1  0  0  0
  6  1  1  0  0  0  0
  6 23  1  0  0  0  0
  7  8  1  0  0  0  0
  8  2  1  0  0  0  0
  8 14  1  0  0  0  0
  9 13  1  0  0  0  0
  9 18  1  1  0  0  0
 10  8  1  1  0  0  0
 10 26  1  0  0  0  0
 12 25  1  1  0  0  0
 12 24  1  0  0  0  0
 14  9  1  0  0  0  0
 15 11  1  1  0  0  0
 15 19  1  0  0  0  0
 16 28  1  0  0  0  0
 16 20  2  0  0  0  0
 17  5  1  0  0  0  0
 17  3  2  0  0  0  0
 19 25  1  0  0  0  0
 21  1  2  0  0  0  0
 21 22  1  0  0  0  0
 22  4  2  0  0  0  0
 23 15  1  0  0  0  0
 24  5  1  0  0  0  0
 25 17  1  0  0  0  0
 26 24  1  0  0  0  0
 26 13  1  0  0  0  0
 28 10  1  0  0  0  0
 28 12  1  0  0  0  0
M  END
>  <MODEL>
3

>  <REMARK>
 VINA RESULT:      -4.6      5.959      8.867
  Name = 
  0 active torsions:
  status: ('A' for Active; 'I' for Inactive)
                            x       y       z     vdW  Elec       q    Type
                         _______ _______ _______ _____ _____    ______ ____

>  <TORSDO>
F 0

$$$$
=
 OpenBabel11122411563D

 28 32  0  0  1  0  0  0  0  0999 V2000
  181.4580  175.8480  136.2750 C   0  0  0  0  0  0  0  0  0  0  0  0
  186.4750  174.6980  137.0970 C   0  0  0  0  0  1  0  0  0  0  0  0
  182.2600  179.0600  139.7210 O   0  0  0  0  0  0  0  0  0  0  0  0
  181.4320  178.1650  134.7670 N   0  0  0  0  0  0  0  0  0  0  0  0
  184.4230  178.9210  138.6580 C   0  0  2  0  0  3  0  0  0  0  0  0
  181.4360  174.6320  137.1490 C   0  0  0  0  0  2  0  0  0  0  0  0
  185.9860  174.7210  134.7000 C   0  0  0  0  0  1  0  0  0  0  0  0
  186.3270  175.6150  135.8750 C   0  0  0  0  0  0  0  0  0  0  0  0
  187.8750  177.1250  136.6310 C   0  0  1  0  0  3  0  0  0  0  0  0
  185.1720  176.6590  136.0080 C   0  0  2  0  0  3  0  0  0  0  0  0
  180.2340  177.1580  138.6970 O   0  0  0  0  0  1  0  0  0  0  0  0
  184.1660  176.5130  138.1840 C   0  0  1  0  0  3  0  0  0  0  0  0
  186.9240  178.3090  136.6060 C   0  0  0  0  0  2  0  0  0  0  0  0
  187.5550  176.2480  135.5820 O   0  0  0  0  0  0  0  0  0  0  0  0
  180.7360  175.9780  139.2520 C   0  0  2  0  0  3  0  0  0  0  0  0
  182.6460  176.5820  136.1020 C   0  0  0  0  0  0  0  0  0  0  0  0
  183.1290  178.3750  139.1190 C   0  0  0  0  0  0  0  0  0  0  0  0
  189.2970  177.6160  136.4640 C   0  0  0  0  0  1  0  0  0  0  0  0
  182.1850  176.1240  139.7210 C   0  0  0  0  0  2  0  0  0  0  0  0
  182.5930  177.7660  135.3480 C   0  0  0  0  0  3  0  0  0  0  0  0
  180.2800  176.2730  135.6510 C   0  0  0  0  0  3  0  0  0  0  0  0
  180.2870  177.4440  134.8940 C   0  0  0  0  0  3  0  0  0  0  0  0
  180.4810  174.7730  138.3380 C   0  0  0  0  0  2  0  0  0  0  0  0
  185.1590  177.6870  138.1320 C   0  0  1  0  0  3  0  0  0  0  0  0
  182.9670  176.9940  138.8480 N   0  0  0  0  0  0  0  0  0  0  0  0
  185.5260  177.8900  136.7330 N   0  0  2  0  0  0  0  0  0  0  0  0
  185.1250  179.4500  139.7410 O   0  0  0  0  0  1  0  0  0  0  0  0
  183.9450  176.0980  136.7220 C   0  0  1  0  0  3  0  0  0  0  0  0
  1  6  1  0  0  0  0
  4 22  2  0  0  0  0
  4 20  1  0  0  0  0
  5 17  1  0  0  0  0
  5 27  1  1  0  0  0
  6 23  1  0  0  0  0
  7  8  1  0  0  0  0
  8  2  1  0  0  0  0
  9 18  1  6  0  0  0
 10  8  1  1  0  0  0
 10 28  1  0  0  0  0
 10 26  1  0  0  0  0
 12 25  1  6  0  0  0
 13  9  1  0  0  0  0
 13 26  1  0  0  0  0
 14  8  1  0  0  0  0
 14  9  1  0  0  0  0
 15 11  1  6  0  0  0
 15 19  1  0  0  0  0
 16  1  1  0  0  0  0
 16 28  1  0  0  0  0
 17  3  2  0  0  0  0
 20 16  2  0  0  0  0
 21  1  2  0  0  0  0
 22 21  1  0  0  0  0
 23 15  1  0  0  0  0
 24 12  1  0  0  0  0
 24  5  1  0  0  0  0
 25 17  1  0  0  0  0
 25 19  1  0  0  0  0
 26 24  1  0  0  0  0
 28 12  1  0  0  0  0
M  END
>  <MODEL>
4

>  <REMARK>
 VINA RESULT:      -4.6      4.685      7.694
  Name = 
  0 active torsions:
  status: ('A' for Active; 'I' for Inactive)
                            x       y       z     vdW  Elec       q    Type
                         _______ _______ _______ _____ _____    ______ ____

>  <TORSDO>
F 0

$$$$
=
 OpenBabel11122411563D

 28 32  0  0  1  0  0  0  0  0999 V2000
  182.1680  179.3390  138.4820 C   0  0  0  0  0  0  0  0  0  0  0  0
  179.3820  175.9080  135.7180 C   0  0  0  0  0  1  0  0  0  0  0  0
  179.8040  177.3840  142.1460 O   0  0  0  0  0  0  0  0  0  0  0  0
  184.2230  177.9050  139.6500 N   0  0  0  0  0  0  0  0  0  0  0  0
  179.9730  175.5250  140.6150 C   0  0  2  0  0  3  0  0  0  0  0  0
  181.0270  180.1320  137.9210 C   0  0  0  0  0  2  0  0  0  0  0  0
  181.6890  175.9860  134.9060 C   0  0  0  0  0  1  0  0  0  0  0  0
  180.7980  175.3730  135.9690 C   0  0  0  0  0  0  0  0  0  0  0  0
  180.0580  173.3690  136.7950 C   0  0  1  0  0  3  0  0  0  0  0  0
  181.3900  175.7830  137.3550 C   0  0  2  0  0  3  0  0  0  0  0  0
  180.8260  179.9620  141.1070 O   0  0  0  0  0  1  0  0  0  0  0  0
  179.7510  176.9820  138.6370 C   0  0  1  0  0  3  0  0  0  0  0  0
  180.7630  173.5120  138.1330 C   0  0  0  0  0  2  0  0  0  0  0  0
  180.8350  173.9720  135.7920 O   0  0  0  0  0  0  0  0  0  0  0  0
  179.8030  180.2590  140.2030 C   0  0  2  0  0  3  0  0  0  0  0  0
  182.1410  177.9320  138.4550 C   0  0  0  0  0  0  0  0  0  0  0  0
  179.8370  176.9560  140.9620 C   0  0  0  0  0  0  0  0  0  0  0  0
  179.8730  171.9000  136.4770 C   0  0  0  0  0  1  0  0  0  0  0  0
  178.9370  179.0390  139.8800 C   0  0  0  0  0  2  0  0  0  0  0  0
  183.1900  177.2340  139.0770 C   0  0  0  0  0  3  0  0  0  0  0  0
  183.2530  180.0030  139.0640 C   0  0  0  0  0  3  0  0  0  0  0  0
  184.2800  179.2620  139.6480 C   0  0  0  0  0  3  0  0  0  0  0  0
  180.3370  181.0040  138.9740 C   0  0  0  0  0  2  0  0  0  0  0  0
  179.8160  175.5150  139.0930 C   0  0  1  0  0  3  0  0  0  0  0  0
  179.7130  177.8030  139.8340 N   0  0  0  0  0  0  0  0  0  0  0  0
  180.9980  174.9160  138.4790 N   0  0  2  0  0  0  0  0  0  0  0  0
  178.9310  174.7980  141.1910 O   0  0  0  0  0  1  0  0  0  0  0  0
  181.0000  177.1980  137.7710 C   0  0  1  0  0  3  0  0  0  0  0  0
  1 21  1  0  0  0  0
  2  8  1  0  0  0  0
  5 17  1  0  0  0  0
  5 27  1  1  0  0  0
  6  1  1  0  0  0  0
  6 23  1  0  0  0  0
  7  8  1  0  0  0  0
  9 18  1  6  0  0  0
  9 13  1  0  0  0  0
 10  8  1  6  0  0  0
 10 28  1  0  0  0  0
 10 26  1  0  0  0  0
 12 24  1  0  0  0  0
 12 25  1  1  0  0  0
 13 26  1  0  0  0  0
 14  8  1  0  0  0  0
 14  9  1  0  0  0  0
 15 11  1  1  0  0  0
 16  1  2  0  0  0  0
 16 20  1  0  0  0  0
 17  3  2  0  0  0  0
 19 15  1  0  0  0  0
 20  4  2  0  0  0  0
 21 22  2  0  0  0  0
 22  4  1  0  0  0  0
 23 15  1  0  0  0  0
 24  5  1  0  0  0  0
 25 19  1  0  0  0  0
 25 17  1  0  0  0  0
 26 24  1  0  0  0  0
 28 16  1  0  0  0  0
 28 12  1  0  0  0  0
M  END
>  <MODEL>
5

>  <REMARK>
 VINA RESULT:      -4.5      8.021     10.072
  Name = 
  0 active torsions:
  status: ('A' for Active; 'I' for Inactive)
                            x       y       z     vdW  Elec       q    Type
                         _______ _______ _______ _____ _____    ______ ____

>  <TORSDO>
F 0

$$$$
=
 OpenBabel11122411563D

 28 32  0  0  1  0  0  0  0  0999 V2000
  184.5890  176.0680  136.0210 C   0  0  0  0  0  0  0  0  0  0  0  0
  181.4490  179.9900  137.4110 C   0  0  0  0  0  1  0  0  0  0  0  0
  187.3960  177.9200  139.4160 O   0  0  0  0  0  0  0  0  0  0  0  0
  184.3090  174.1250  137.9680 N   0  0  0  0  0  0  0  0  0  0  0  0
  185.1930  178.4450  140.2520 C   0  0  2  0  0  3  0  0  0  0  0  0
  184.8160  177.1280  134.9870 C   0  0  0  0  0  2  0  0  0  0  0  0
  180.1560  177.9410  137.0700 C   0  0  0  0  0  1  0  0  0  0  0  0
  181.0070  178.6830  138.0820 C   0  0  0  0  0  0  0  0  0  0  0  0
  180.9610  179.6000  140.1810 C   0  0  1  0  0  3  0  0  0  0  0  0
  182.1910  177.7400  138.4660 C   0  0  2  0  0  3  0  0  0  0  0  0
  187.4550  176.6690  136.7320 O   0  0  0  0  0  1  0  0  0  0  0  0
  184.2900  178.8030  137.9840 C   0  0  1  0  0  3  0  0  0  0  0  0
  181.9470  178.6100  140.7760 C   0  0  0  0  0  2  0  0  0  0  0  0
  180.1880  178.9560  139.2010 O   0  0  0  0  0  0  0  0  0  0  0  0
  187.1280  177.7860  135.9580 C   0  0  2  0  0  3  0  0  0  0  0  0
  183.9110  176.3700  137.2170 C   0  0  0  0  0  0  0  0  0  0  0  0
  186.1960  178.2260  139.1880 C   0  0  0  0  0  0  0  0  0  0  0  0
  180.0550  180.1280  141.2730 C   0  0  0  0  0  1  0  0  0  0  0  0
  186.5280  178.9190  136.7940 C   0  0  0  0  0  2  0  0  0  0  0  0
  183.8060  175.3670  138.1940 C   0  0  0  0  0  3  0  0  0  0  0  0
  185.0830  174.7760  135.8080 C   0  0  0  0  0  3  0  0  0  0  0  0
  184.9310  173.8100  136.8020 C   0  0  0  0  0  3  0  0  0  0  0  0
  186.3020  177.3950  134.7280 C   0  0  0  0  0  2  0  0  0  0  0  0
  183.9610  178.9240  139.4820 C   0  0  1  0  0  3  0  0  0  0  0  0
  185.6880  178.4240  137.8810 N   0  0  0  0  0  0  0  0  0  0  0  0
  182.8330  178.0390  139.7570 N   0  0  2  0  0  0  0  0  0  0  0  0
  185.6260  179.4590  141.1070 O   0  0  0  0  0  1  0  0  0  0  0  0
  183.3160  177.7510  137.4350 C   0  0  1  0  0  3  0  0  0  0  0  0
  1 16  1  0  0  0  0
  2  8  1  0  0  0  0
  4 20  1  0  0  0  0
  5 27  1  1  0  0  0
  6  1  1  0  0  0  0
  7  8  1  0  0  0  0
  8 14  1  0  0  0  0
  9 13  1  0  0  0  0
  9 18  1  1  0  0  0
 10  8  1  6  0  0  0
 10 26  1  0  0  0  0
 12 25  1  1  0  0  0
 12 24  1  0  0  0  0
 14  9  1  0  0  0  0
 15 11  1  1  0  0  0
 15 19  1  0  0  0  0
 16 28  1  0  0  0  0
 16 20  2  0  0  0  0
 17  3  2  0  0  0  0
 17  5  1  0  0  0  0
 19 25  1  0  0  0  0
 21  1  2  0  0  0  0
 21 22  1  0  0  0  0
 22  4  2  0  0  0  0
 23  6  1  0  0  0  0
 23 15  1  0  0  0  0
 24 26  1  0  0  0  0
 24  5  1  0  0  0  0
 25 17  1  0  0  0  0
 26 13  1  0  0  0  0
 28 12  1  0  0  0  0
 28 10  1  0  0  0  0
M  END
>  <MODEL>
6

>  <REMARK>
 VINA RESULT:      -4.4      4.878      8.964
  Name = 
  0 active torsions:
  status: ('A' for Active; 'I' for Inactive)
                            x       y       z     vdW  Elec       q    Type
                         _______ _______ _______ _____ _____    ______ ____

>  <TORSDO>
F 0

$$$$
=
 OpenBabel11122411563D

 28 32  0  0  1  0  0  0  0  0999 V2000
  181.7260  179.1560  138.5380 C   0  0  0  0  0  0  0  0  0  0  0  0
  185.1240  176.8780  135.3070 C   0  0  0  0  0  1  0  0  0  0  0  0
  179.1790  175.2080  137.6640 O   0  0  0  0  0  0  0  0  0  0  0  0
  181.9980  177.8770  140.9740 N   0  0  0  0  0  0  0  0  0  0  0  0
  181.4430  174.3880  137.4840 C   0  0  2  0  0  3  0  0  0  0  0  0
  181.5050  179.8220  137.2140 C   0  0  0  0  0  2  0  0  0  0  0  0
  186.2930  177.8760  137.2100 C   0  0  0  0  0  1  0  0  0  0  0  0
  185.5300  176.6430  136.7680 C   0  0  0  0  0  0  0  0  0  0  0  0
  185.7200  174.3750  136.5080 C   0  0  1  0  0  3  0  0  0  0  0  0
  184.3180  176.4790  137.7400 C   0  0  2  0  0  3  0  0  0  0  0  0
  178.9310  178.1300  138.0720 O   0  0  0  0  0  1  0  0  0  0  0  0
  182.2560  176.5050  136.5100 C   0  0  1  0  0  3  0  0  0  0  0  0
  184.7150  174.0350  137.5940 C   0  0  0  0  0  2  0  0  0  0  0  0
  186.4130  175.5440  136.8630 O   0  0  0  0  0  0  0  0  0  0  0  0
  179.2770  178.5650  136.7900 C   0  0  2  0  0  3  0  0  0  0  0  0
  182.4740  177.9670  138.6230 C   0  0  0  0  0  0  0  0  0  0  0  0
  180.3820  175.4090  137.3470 C   0  0  0  0  0  0  0  0  0  0  0  0
  186.7030  173.2330  136.3540 C   0  0  0  0  0  1  0  0  0  0  0  0
  179.9730  177.4740  135.9730 C   0  0  0  0  0  2  0  0  0  0  0  0
  182.5740  177.3310  139.8720 C   0  0  0  0  0  3  0  0  0  0  0  0
  181.1580  179.7050  139.6930 C   0  0  0  0  0  3  0  0  0  0  0  0
  181.3070  179.0450  140.9120 C   0  0  0  0  0  3  0  0  0  0  0  0
  180.0240  179.9030  136.8320 C   0  0  0  0  0  2  0  0  0  0  0  0
  182.6610  175.0590  136.8440 C   0  0  1  0  0  3  0  0  0  0  0  0
  180.8370  176.6300  136.7930 N   0  0  0  0  0  0  0  0  0  0  0  0
  183.7540  175.1210  137.8090 N   0  0  2  0  0  0  0  0  0  0  0  0
  181.1030  173.2520  136.7510 O   0  0  0  0  0  1  0  0  0  0  0  0
  183.1480  177.3930  137.3880 C   0  0  1  0  0  3  0  0  0  0  0  0
  1 16  2  0  0  0  0
  1 21  1  0  0  0  0
  2  8  1  0  0  0  0
  5 27  1  6  0  0  0
  6  1  1  0  0  0  0
  8 14  1  0  0  0  0
  8  7  1  0  0  0  0
  9 18  1  1  0  0  0
  9 14  1  0  0  0  0
  9 13  1  0  0  0  0
 10  8  1  6  0  0  0
 10 26  1  0  0  0  0
 12 25  1  1  0  0  0
 12 24  1  0  0  0  0
 12 28  1  0  0  0  0
 13 26  1  0  0  0  0
 15 23  1  0  0  0  0
 15 11  1  1  0  0  0
 16 20  1  0  0  0  0
 17  5  1  0  0  0  0
 17  3  2  0  0  0  0
 19 15  1  0  0  0  0
 19 25  1  0  0  0  0
 20  4  2  0  0  0  0
 21 22  2  0  0  0  0
 22  4  1  0  0  0  0
 23  6  1  0  0  0  0
 24  5  1  0  0  0  0
 24 26  1  0  0  0  0
 25 17  1  0  0  0  0
 28 10  1  0  0  0  0
 28 16  1  0  0  0  0
M  END
>  <MODEL>
7

>  <REMARK>
 VINA RESULT:      -4.3      5.580      7.726
  Name = 
  0 active torsions:
  status: ('A' for Active; 'I' for Inactive)
                            x       y       z     vdW  Elec       q    Type
                         _______ _______ _______ _____ _____    ______ ____

>  <TORSDO>
F 0

$$$$
=
 OpenBabel11122411563D

 28 32  0  0  1  0  0  0  0  0999 V2000
  185.1170  174.9220  136.6770 C   0  0  0  0  0  0  0  0  0  0  0  0
  182.4650  177.5090  140.3430 C   0  0  0  0  0  1  0  0  0  0  0  0
  180.8160  174.6640  134.6100 O   0  0  0  0  0  0  0  0  0  0  0  0
  185.4940  176.7000  134.5940 N   0  0  0  0  0  0  0  0  0  0  0  0
  180.6750  176.7660  135.7910 C   0  0  2  0  0  3  0  0  0  0  0  0
  184.8690  173.9140  137.7570 C   0  0  0  0  0  2  0  0  0  0  0  0
  184.6060  178.6080  139.9030 C   0  0  0  0  0  1  0  0  0  0  0  0
  183.1790  178.4890  139.4030 C   0  0  0  0  0  0  0  0  0  0  0  0
  181.2840  179.7070  138.9880 C   0  0  1  0  0  3  0  0  0  0  0  0
  183.2510  178.0020  137.9210 C   0  0  2  0  0  3  0  0  0  0  0  0
  183.2970  173.1190  135.0890 O   0  0  0  0  0  1  0  0  0  0  0  0
  182.0500  175.9380  137.6650 C   0  0  1  0  0  3  0  0  0  0  0  0
  181.3320  179.5120  137.4820 C   0  0  0  0  0  2  0  0  0  0  0  0
  182.5940  179.7720  139.4910 O   0  0  0  0  0  0  0  0  0  0  0  0
  183.0400  172.6840  136.3920 C   0  0  2  0  0  3  0  0  0  0  0  0
  184.4180  176.1430  136.6660 C   0  0  0  0  0  0  0  0  0  0  0  0
  181.1270  175.3700  135.6060 C   0  0  0  0  0  0  0  0  0  0  0  0
  180.5560  180.9960  139.3060 C   0  0  0  0  0  1  0  0  0  0  0  0
  181.9150  173.4770  137.0610 C   0  0  0  0  0  2  0  0  0  0  0  0
  184.6160  177.0140  135.5820 C   0  0  0  0  0  3  0  0  0  0  0  0
  186.0270  174.6320  135.6550 C   0  0  0  0  0  3  0  0  0  0  0  0
  186.2040  175.5420  134.6130 C   0  0  0  0  0  3  0  0  0  0  0  0
  184.3290  172.5860  137.2170 C   0  0  0  0  0  2  0  0  0  0  0  0
  181.1880  177.1200  137.1880 C   0  0  1  0  0  3  0  0  0  0  0  0
  181.9210  174.8850  136.6740 N   0  0  0  0  0  0  0  0  0  0  0  0
  182.0550  178.2930  137.1120 N   0  0  2  0  0  0  0  0  0  0  0  0
  179.2810  176.8150  135.7850 O   0  0  0  0  0  1  0  0  0  0  0  0
  183.4730  176.4970  137.8010 C   0  0  1  0  0  3  0  0  0  0  0  0
  1  6  1  0  0  0  0
  3 17  2  0  0  0  0
  4 22  2  0  0  0  0
  4 20  1  0  0  0  0
  5 27  1  1  0  0  0
  5 24  1  0  0  0  0
  8 14  1  0  0  0  0
  8  7  1  0  0  0  0
  8  2  1  0  0  0  0
  9 18  1  6  0  0  0
  9 14  1  0  0  0  0
 10  8  1  1  0  0  0
 12 25  1  6  0  0  0
 12 28  1  0  0  0  0
 13  9  1  0  0  0  0
 15 11  1  6  0  0  0
 15 19  1  0  0  0  0
 15 23  1  0  0  0  0
 16  1  1  0  0  0  0
 16 28  1  0  0  0  0
 17  5  1  0  0  0  0
 17 25  1  0  0  0  0
 20 16  2  0  0  0  0
 21  1  2  0  0  0  0
 22 21  1  0  0  0  0
 23  6  1  0  0  0  0
 24 12  1  0  0  0  0
 25 19  1  0  0  0  0
 26 24  1  0  0  0  0
 26 13  1  0  0  0  0
 26 10  1  0  0  0  0
 28 10  1  0  0  0  0
M  END
>  <MODEL>
8

>  <REMARK>
 VINA RESULT:      -4.3      5.749      9.170
  Name = 
  0 active torsions:
  status: ('A' for Active; 'I' for Inactive)
                            x       y       z     vdW  Elec       q    Type
                         _______ _______ _______ _____ _____    ______ ____

>  <TORSDO>
F 0

$$$$
=
 OpenBabel11122411563D

 28 32  0  0  1  0  0  0  0  0999 V2000
  181.4320  176.6380  137.1670 C   0  0  0  0  0  0  0  0  0  0  0  0
  185.8500  175.3010  134.7440 C   0  0  0  0  0  1  0  0  0  0  0  0
  180.6710  171.9220  137.0750 O   0  0  0  0  0  0  0  0  0  0  0  0
  181.8090  176.0530  139.8430 N   0  0  0  0  0  0  0  0  0  0  0  0
  183.0780  172.0330  137.2180 C   0  0  2  0  0  3  0  0  0  0  0  0
  181.1700  176.9010  135.7150 C   0  0  0  0  0  2  0  0  0  0  0  0
  186.2870  177.0170  136.4320 C   0  0  0  0  0  1  0  0  0  0  0  0
  186.1030  175.5250  136.2410 C   0  0  0  0  0  0  0  0  0  0  0  0
  187.1510  173.5060  136.5180 C   0  0  1  0  0  3  0  0  0  0  0  0
  184.9130  175.0880  137.1530 C   0  0  2  0  0  3  0  0  0  0  0  0
  179.3070  174.5350  136.7880 O   0  0  0  0  0  1  0  0  0  0  0  0
  183.1820  174.0730  135.8340 C   0  0  1  0  0  3  0  0  0  0  0  0
  186.1990  173.0130  137.5940 C   0  0  0  0  0  2  0  0  0  0  0  0
  187.3060  174.8970  136.6360 O   0  0  0  0  0  0  0  0  0  0  0  0
  179.6470  174.8190  135.4630 C   0  0  2  0  0  3  0  0  0  0  0  0
  182.5450  175.8750  137.5640 C   0  0  0  0  0  0  0  0  0  0  0  0
  181.7460  172.5120  136.7900 C   0  0  0  0  0  0  0  0  0  0  0  0
  188.4960  172.8320  136.6870 C   0  0  0  0  0  1  0  0  0  0  0  0
  180.8040  173.9530  134.9580 C   0  0  0  0  0  2  0  0  0  0  0  0
  182.6960  175.5780  138.9300 C   0  0  0  0  0  3  0  0  0  0  0  0
  180.5450  177.1290  138.1310 C   0  0  0  0  0  3  0  0  0  0  0  0
  180.7520  176.8240  139.4750 C   0  0  0  0  0  3  0  0  0  0  0  0
  179.8340  176.3240  135.2400 C   0  0  0  0  0  2  0  0  0  0  0  0
  184.0400  172.9920  136.5120 C   0  0  1  0  0  3  0  0  0  0  0  0
  181.7920  173.6850  135.9990 N   0  0  0  0  0  0  0  0  0  0  0  0
  184.8860  173.6570  137.4990 N   0  0  2  0  0  0  0  0  0  0  0  0
  183.2880  170.7380  136.7460 O   0  0  0  0  0  1  0  0  0  0  0  0
  183.5510  175.3880  136.5350 C   0  0  1  0  0  3  0  0  0  0  0  0
  1 16  2  0  0  0  0
  1 21  1  0  0  0  0
  2  8  1  0  0  0  0
  5 27  1  6  0  0  0
  6  1  1  0  0  0  0
  8  7  1  0  0  0  0
  8 14  1  0  0  0  0
  9 14  1  0  0  0  0
  9 18  1  1  0  0  0
  9 13  1  0  0  0  0
 10  8  1  6  0  0  0
 10 26  1  0  0  0  0
 12 25  1  1  0  0  0
 12 24  1  0  0  0  0
 12 28  1  0  0  0  0
 15 11  1  1  0  0  0
 16 20  1  0  0  0  0
 17  3  2  0  0  0  0
 17  5  1  0  0  0  0
 19 15  1  0  0  0  0
 19 25  1  0  0  0  0
 20  4  2  0  0  0  0
 21 22  2  0  0  0  0
 22  4  1  0  0  0  0
 23 15  1  0  0  0  0
 23  6  1  0  0  0  0
 24  5  1  0  0  0  0
 24 26  1  0  0  0  0
 25 17  1  0  0  0  0
 26 13  1  0  0  0  0
 28 10  1  0  0  0  0
 28 16  1  0  0  0  0
M  END
>  <MODEL>
9

>  <REMARK>
 VINA RESULT:      -4.2      5.274      7.211
  Name = 
  0 active torsions:
  status: ('A' for Active; 'I' for Inactive)
                            x       y       z     vdW  Elec       q    Type
                         _______ _______ _______ _____ _____    ______ ____

>  <TORSDO>
F 0

$$$$
