=
 OpenBabel11122411373D

 37 42  0  0  1  0  0  0  0  0999 V2000
  190.1580  177.4980  143.4640 C   0  0  0  0  0  0  0  0  0  0  0  0
  186.0560  177.8790  144.4610 C   0  0  0  0  0  0  0  0  0  0  0  0
  183.3620  177.6680  141.5590 C   0  0  0  0  0  2  0  0  0  0  0  0
  188.3590  178.0410  145.2130 C   0  0  0  0  0  0  0  0  0  0  0  0
  185.3120  177.5240  143.2010 C   0  0  1  0  0  3  0  0  0  0  0  0
  187.4040  177.7320  144.2470 C   0  0  0  0  0  0  0  0  0  0  0  0
  184.0020  178.2790  142.8330 C   0  0  2  0  0  3  0  0  0  0  0  0
  187.9130  178.4380  146.4800 C   0  0  0  0  0  3  0  0  0  0  0  0
  187.7100  177.2230  142.9030 C   0  0  2  0  0  3  0  0  0  0  0  0
  190.3910  176.0030  143.6060 C   0  0  0  0  0  1  0  0  0  0  0  0
  184.1500  178.2310  146.0980 C   0  0  0  0  0  2  0  0  0  0  0  0
  186.5350  178.4970  146.7520 C   0  0  0  0  0  3  0  0  0  0  0  0
  189.0580  177.7680  142.4180 C   0  0  0  0  0  2  0  0  0  0  0  0
  184.5620  178.6260  139.8790 C   0  0  1  0  0  3  0  0  0  0  0  0
  184.2920  177.4120  140.5360 O   0  0  0  0  0  0  0  0  0  0  0  0
  185.5920  178.2120  145.7460 C   0  0  0  0  0  0  0  0  0  0  0  0
  186.4420  177.5840  142.1130 C   0  0  2  0  0  3  0  0  0  0  0  0
  189.8190  178.1000  144.8460 C   0  0  0  0  0  2  0  0  0  0  0  0
  182.9370  178.3320  143.9510 C   0  0  1  0  0  3  0  0  0  0  0  0
  191.4440  178.1290  142.9750 C   0  0  0  0  0  1  0  0  0  0  0  0
  185.4060  179.5840  140.7360 C   0  0  0  0  0  2  0  0  0  0  0  0
  186.6300  178.9590  141.4170 C   0  0  0  0  0  2  0  0  0  0  0  0
  183.3950  179.1340  145.1550 C   0  0  0  0  0  2  0  0  0  0  0  0
  180.5280  178.8970  144.3440 C   0  0  0  0  0  3  0  0  0  0  0  0
  181.6290  178.9050  143.4790 C   0  0  0  0  0  0  0  0  0  0  0  0
  181.4950  179.4520  142.1930 C   0  0  0  0  0  3  0  0  0  0  0  0
  180.1320  180.5530  140.4140 C   0  0  0  0  0  1  0  0  0  0  0  0
  179.1730  179.9650  142.6440 C   0  0  0  0  0  3  0  0  0  0  0  0
  180.2700  179.9790  141.7770 C   0  0  0  0  0  0  0  0  0  0  0  0
  179.3030  179.4240  143.9270 C   0  0  0  0  0  3  0  0  0  0  0  0
  185.2290  178.3650  138.5680 C   0  0  0  0  0  0  0  0  0  0  0  0
  186.6480  178.4930  138.4690 N   0  0  0  0  0  2  0  0  0  0  0  0
  184.5460  178.0130  137.5680 O   0  0  0  0  0  0  0  0  0  0  0  0
  187.6420  176.7190  137.1130 C   0  0  0  0  0  1  0  0  0  0  0  0
  187.3790  178.2100  137.2420 C   0  0  2  0  0  3  0  0  0  0  0  0
  189.0560  179.3780  138.5090 O   0  0  0  0  0  1  0  0  0  0  0  0
  188.6890  178.9850  137.2190 C   0  0  0  0  0  2  0  0  0  0  0  0
  1 10  1  0  0  0  0
  1 18  1  0  0  0  0
  2 16  1  0  0  0  0
  4  8  2  0  0  0  0
  5  2  1  1  0  0  0
  6  2  2  0  0  0  0
  6  4  1  0  0  0  0
  7  3  1  6  0  0  0
  7  5  1  0  0  0  0
  7 19  1  0  0  0  0
  8 12  1  0  0  0  0
  9 13  1  6  0  0  0
  9  6  1  0  0  0  0
 13  1  1  0  0  0  0
 14 31  1  6  0  0  0
 14 15  1  0  0  0  0
 14 21  1  0  0  0  0
 15  3  1  0  0  0  0
 16 11  1  0  0  0  0
 16 12  2  0  0  0  0
 17 22  1  1  0  0  0
 17  9  1  0  0  0  0
 17  5  1  0  0  0  0
 18  4  1  0  0  0  0
 19 25  1  6  0  0  0
 19 23  1  0  0  0  0
 20  1  1  0  0  0  0
 21 22  1  0  0  0  0
 23 11  1  0  0  0  0
 25 24  2  0  0  0  0
 26 25  1  0  0  0  0
 27 29  1  0  0  0  0
 28 30  2  0  0  0  0
 29 26  2  0  0  0  0
 29 28  1  0  0  0  0
 30 24  1  0  0  0  0
 32 31  1  0  0  0  0
 33 31  2  0  0  0  0
 35 34  1  1  0  0  0
 35 32  1  0  0  0  0
 37 35  1  0  0  0  0
 37 36  1  0  0  0  0
M  END
>  <MODEL>
1

>  <REMARK>
 VINA RESULT:      -9.3      0.000      0.000
  Name = 
  4 active torsions:
  status: ('A' for Active; 'I' for Inactive)
    1  A    between atoms: CA_4  and  N_12
    2  A    between atoms: CA_4  and  C_37
    3  A    between atoms: C_8  and  C_18
    4  A    between atoms: C_23  and  C_30
                            x       y       z     vdW  Elec       q    Type
                         _______ _______ _______ _____ _____    ______ ____

>  <TORSDO>
F 4

$$$$
=
 OpenBabel11122411373D

 37 42  0  0  1  0  0  0  0  0999 V2000
  185.4570  178.3980  145.8670 C   0  0  0  0  0  0  0  0  0  0  0  0
  187.1220  178.2050  141.9740 C   0  0  0  0  0  0  0  0  0  0  0  0
  184.9310  179.4240  138.9020 C   0  0  0  0  0  2  0  0  0  0  0  0
  187.3510  177.6190  144.3190 C   0  0  0  0  0  0  0  0  0  0  0  0
  186.1480  178.9430  141.0950 C   0  0  1  0  0  3  0  0  0  0  0  0
  186.6880  178.2610  143.2760 C   0  0  0  0  0  0  0  0  0  0  0  0
  185.8800  178.4470  139.6450 C   0  0  2  0  0  3  0  0  0  0  0  0
  188.5550  176.9630  144.0340 C   0  0  0  0  0  3  0  0  0  0  0  0
  185.4640  179.0590  143.4290 C   0  0  2  0  0  3  0  0  0  0  0  0
  185.8910  179.7750  146.3410 C   0  0  0  0  0  1  0  0  0  0  0  0
  188.9740  177.6500  140.3320 C   0  0  0  0  0  2  0  0  0  0  0  0
  189.0700  176.9810  142.7260 C   0  0  0  0  0  3  0  0  0  0  0  0
  184.6130  178.5170  144.5830 C   0  0  0  0  0  2  0  0  0  0  0  0
  182.8740  178.8030  139.6550 C   0  0  1  0  0  3  0  0  0  0  0  0
  183.8330  179.8320  139.6800 O   0  0  0  0  0  0  0  0  0  0  0  0
  188.3610  177.6070  141.6830 C   0  0  0  0  0  0  0  0  0  0  0  0
  184.8760  179.0430  142.0100 C   0  0  2  0  0  3  0  0  0  0  0  0
  186.7030  177.5030  145.6740 C   0  0  0  0  0  2  0  0  0  0  0  0
  187.1420  178.2230  138.7820 C   0  0  1  0  0  3  0  0  0  0  0  0
  184.5950  177.7810  146.9470 C   0  0  0  0  0  1  0  0  0  0  0  0
  183.3060  177.5760  140.4750 C   0  0  0  0  0  2  0  0  0  0  0  0
  183.8600  177.8780  141.8740 C   0  0  0  0  0  2  0  0  0  0  0  0
  188.0150  177.0990  139.3070 C   0  0  0  0  0  2  0  0  0  0  0  0
  187.4840  178.6280  136.3330 C   0  0  0  0  0  3  0  0  0  0  0  0
  186.8160  177.9270  137.3430 C   0  0  0  0  0  0  0  0  0  0  0  0
  185.8590  176.9590  136.9980 C   0  0  0  0  0  3  0  0  0  0  0  0
  184.5580  175.6780  135.2950 C   0  0  0  0  0  1  0  0  0  0  0  0
  186.2420  177.4070  134.6510 C   0  0  0  0  0  3  0  0  0  0  0  0
  185.5740  176.7010  135.6560 C   0  0  0  0  0  0  0  0  0  0  0  0
  187.1970  178.3700  134.9900 C   0  0  0  0  0  3  0  0  0  0  0  0
  181.5540  179.3170  140.1290 C   0  0  0  0  0  0  0  0  0  0  0  0
  181.0160  178.8300  141.3590 N   0  0  0  0  0  2  0  0  0  0  0  0
  180.9350  180.1880  139.4590 O   0  0  0  0  0  0  0  0  0  0  0  0
  180.0100  180.4910  142.8430 C   0  0  0  0  0  1  0  0  0  0  0  0
  179.7600  179.3150  141.9140 C   0  0  2  0  0  3  0  0  0  0  0  0
  179.6800  177.9160  143.8690 O   0  0  0  0  0  1  0  0  0  0  0  0
  179.0460  178.1930  142.6550 C   0  0  0  0  0  2  0  0  0  0  0  0
  1 10  1  0  0  0  0
  1 20  1  0  0  0  0
  2  6  1  0  0  0  0
  3 15  1  0  0  0  0
  4 18  1  0  0  0  0
  5  2  1  1  0  0  0
  5 17  1  0  0  0  0
  6  9  1  0  0  0  0
  6  4  2  0  0  0  0
  7  3  1  6  0  0  0
  7  5  1  0  0  0  0
  8  4  1  0  0  0  0
  9 13  1  1  0  0  0
 11 16  1  0  0  0  0
 12  8  2  0  0  0  0
 13  1  1  0  0  0  0
 14 15  1  0  0  0  0
 14 31  1  1  0  0  0
 14 21  1  0  0  0  0
 16  2  2  0  0  0  0
 16 12  1  0  0  0  0
 17 22  1  1  0  0  0
 17  9  1  0  0  0  0
 18  1  1  0  0  0  0
 19 25  1  6  0  0  0
 19 23  1  0  0  0  0
 19  7  1  0  0  0  0
 21 22  1  0  0  0  0
 23 11  1  0  0  0  0
 24 25  1  0  0  0  0
 26 25  2  0  0  0  0
 27 29  1  0  0  0  0
 28 30  1  0  0  0  0
 28 29  2  0  0  0  0
 29 26  1  0  0  0  0
 30 24  2  0  0  0  0
 31 32  1  0  0  0  0
 32 35  1  0  0  0  0
 33 31  2  0  0  0  0
 35 37  1  0  0  0  0
 35 34  1  1  0  0  0
 37 36  1  0  0  0  0
M  END
>  <MODEL>
2

>  <REMARK>
 VINA RESULT:      -9.2      2.234      6.617
  Name = 
  4 active torsions:
  status: ('A' for Active; 'I' for Inactive)
    1  A    between atoms: CA_4  and  N_12
    2  A    between atoms: CA_4  and  C_37
    3  A    between atoms: C_8  and  C_18
    4  A    between atoms: C_23  and  C_30
                            x       y       z     vdW  Elec       q    Type
                         _______ _______ _______ _____ _____    ______ ____

>  <TORSDO>
F 4

$$$$
=
 OpenBabel11122411373D

 37 42  0  0  1  0  0  0  0  0999 V2000
  188.6390  177.3720  147.7030 C   0  0  0  0  0  0  0  0  0  0  0  0
  189.6820  177.6070  143.6010 C   0  0  0  0  0  0  0  0  0  0  0  0
  187.1180  179.2740  141.0760 C   0  0  0  0  0  2  0  0  0  0  0  0
  190.2320  176.7260  145.7960 C   0  0  0  0  0  0  0  0  0  0  0  0
  188.6260  178.4820  142.9790 C   0  0  1  0  0  3  0  0  0  0  0  0
  189.4540  177.5150  144.9520 C   0  0  0  0  0  0  0  0  0  0  0  0
  188.1150  178.1800  141.5410 C   0  0  2  0  0  3  0  0  0  0  0  0
  191.3420  176.0690  145.2500 C   0  0  0  0  0  3  0  0  0  0  0  0
  188.3120  178.3310  145.3880 C   0  0  2  0  0  3  0  0  0  0  0  0
  189.2140  178.6640  148.2610 C   0  0  0  0  0  1  0  0  0  0  0  0
  191.2310  177.1960  141.6340 C   0  0  0  0  0  2  0  0  0  0  0  0
  191.6520  176.2310  143.8880 C   0  0  0  0  0  3  0  0  0  0  0  0
  187.6180  177.6800  146.5900 C   0  0  0  0  0  2  0  0  0  0  0  0
  185.1690  178.6370  142.0640 C   0  0  1  0  0  3  0  0  0  0  0  0
  186.1750  179.6210  142.0590 O   0  0  0  0  0  0  0  0  0  0  0  0
  190.8280  177.0070  143.0510 C   0  0  0  0  0  0  0  0  0  0  0  0
  187.5150  178.5120  144.0870 C   0  0  2  0  0  3  0  0  0  0  0  0
  189.7910  176.4660  147.2130 C   0  0  0  0  0  2  0  0  0  0  0  0
  189.2170  178.0210  140.4690 C   0  0  1  0  0  3  0  0  0  0  0  0
  187.9190  176.6570  148.8250 C   0  0  0  0  0  1  0  0  0  0  0  0
  185.6540  177.3030  142.6570 C   0  0  0  0  0  2  0  0  0  0  0  0
  186.4290  177.4090  143.9770 C   0  0  0  0  0  2  0  0  0  0  0  0
  190.0990  176.8100  140.7150 C   0  0  0  0  0  2  0  0  0  0  0  0
  188.9520  178.9250  138.1480 C   0  0  0  0  0  3  0  0  0  0  0  0
  188.6620  177.9180  139.0760 C   0  0  0  0  0  0  0  0  0  0  0  0
  187.8630  176.8290  138.6890 C   0  0  0  0  0  3  0  0  0  0  0  0
  186.5110  175.6030  136.9850 C   0  0  0  0  0  1  0  0  0  0  0  0
  187.6490  177.7650  136.4680 C   0  0  0  0  0  3  0  0  0  0  0  0
  187.3580  176.7550  137.3890 C   0  0  0  0  0  0  0  0  0  0  0  0
  188.4460  178.8490  136.8470 C   0  0  0  0  0  3  0  0  0  0  0  0
  183.9660  179.1340  142.7970 C   0  0  0  0  0  0  0  0  0  0  0  0
  182.6670  178.8730  142.2630 N   0  0  0  0  0  2  0  0  0  0  0  0
  184.0980  179.7570  143.8850 O   0  0  0  0  0  0  0  0  0  0  0  0
  180.9220  178.1560  143.8170 C   0  0  0  0  0  1  0  0  0  0  0  0
  181.4430  179.2810  142.9380 C   0  0  2  0  0  3  0  0  0  0  0  0
  179.7780  180.8900  142.2890 O   0  0  0  0  0  1  0  0  0  0  0  0
  180.3900  179.6900  141.9170 C   0  0  0  0  0  2  0  0  0  0  0  0
  1 10  1  0  0  0  0
  1 20  1  0  0  0  0
  2  6  1  0  0  0  0
  3 15  1  0  0  0  0
  4 18  1  0  0  0  0
  5  2  1  1  0  0  0
  5 17  1  0  0  0  0
  6  9  1  0  0  0  0
  6  4  2  0  0  0  0
  7  3  1  6  0  0  0
  7  5  1  0  0  0  0
  8  4  1  0  0  0  0
  9 13  1  1  0  0  0
 11 16  1  0  0  0  0
 12  8  2  0  0  0  0
 13  1  1  0  0  0  0
 14 21  1  0  0  0  0
 14 31  1  1  0  0  0
 15 14  1  0  0  0  0
 16  2  2  0  0  0  0
 16 12  1  0  0  0  0
 17 22  1  6  0  0  0
 17  9  1  0  0  0  0
 18  1  1  0  0  0  0
 19 25  1  6  0  0  0
 19 23  1  0  0  0  0
 19  7  1  0  0  0  0
 21 22  1  0  0  0  0
 23 11  1  0  0  0  0
 24 25  1  0  0  0  0
 26 25  2  0  0  0  0
 27 29  1  0  0  0  0
 28 30  1  0  0  0  0
 28 29  2  0  0  0  0
 29 26  1  0  0  0  0
 30 24  2  0  0  0  0
 31 33  2  0  0  0  0
 32 31  1  0  0  0  0
 32 35  1  0  0  0  0
 35 34  1  6  0  0  0
 37 36  1  0  0  0  0
 37 35  1  0  0  0  0
M  END
>  <MODEL>
3

>  <REMARK>
 VINA RESULT:      -9.0      2.089      6.631
  Name = 
  4 active torsions:
  status: ('A' for Active; 'I' for Inactive)
    1  A    between atoms: CA_4  and  N_12
    2  A    between atoms: CA_4  and  C_37
    3  A    between atoms: C_8  and  C_18
    4  A    between atoms: C_23  and  C_30
                            x       y       z     vdW  Elec       q    Type
                         _______ _______ _______ _____ _____    ______ ____

>  <TORSDO>
F 4

$$$$
=
 OpenBabel11122411373D

 37 42  0  0  1  0  0  0  0  0999 V2000
  189.0930  177.6630  137.4940 C   0  0  0  0  0  0  0  0  0  0  0  0
  189.9540  177.0770  141.6030 C   0  0  0  0  0  0  0  0  0  0  0  0
  186.9490  177.0300  144.1910 C   0  0  0  0  0  2  0  0  0  0  0  0
  190.8310  177.4800  139.3750 C   0  0  0  0  0  0  0  0  0  0  0  0
  188.6130  176.8800  142.2590 C   0  0  1  0  0  3  0  0  0  0  0  0
  189.7770  177.2240  140.2490 C   0  0  0  0  0  0  0  0  0  0  0  0
  188.3540  177.4510  143.6830 C   0  0  2  0  0  3  0  0  0  0  0  0
  192.1310  177.5030  139.8950 C   0  0  0  0  0  3  0  0  0  0  0  0
  188.3710  177.0850  139.8450 C   0  0  2  0  0  3  0  0  0  0  0  0
  188.9240  176.2390  136.9900 C   0  0  0  0  0  1  0  0  0  0  0  0
  191.5360  176.7160  143.5530 C   0  0  0  0  0  2  0  0  0  0  0  0
  192.3440  177.2540  141.2630 C   0  0  0  0  0  3  0  0  0  0  0  0
  188.0790  177.9550  138.6180 C   0  0  0  0  0  2  0  0  0  0  0  0
  185.5720  178.5310  143.1760 C   0  0  1  0  0  3  0  0  0  0  0  0
  185.9410  177.1740  143.2220 O   0  0  0  0  0  0  0  0  0  0  0  0
  191.2570  177.0330  142.1300 C   0  0  0  0  0  0  0  0  0  0  0  0
  187.6180  177.3780  141.1520 C   0  0  2  0  0  3  0  0  0  0  0  0
  190.5560  177.8770  137.9490 C   0  0  0  0  0  2  0  0  0  0  0  0
  189.4050  177.0660  144.7490 C   0  0  1  0  0  3  0  0  0  0  0  0
  188.8130  178.6050  136.3440 C   0  0  0  0  0  1  0  0  0  0  0  0
  186.6540  179.4130  142.5300 C   0  0  0  0  0  2  0  0  0  0  0  0
  187.2420  178.8830  141.2160 C   0  0  0  0  0  2  0  0  0  0  0  0
  190.7730  177.6540  144.4550 C   0  0  0  0  0  2  0  0  0  0  0  0
  189.9150  177.3220  147.1880 C   0  0  0  0  0  3  0  0  0  0  0  0
  189.0060  177.4860  146.1370 C   0  0  0  0  0  0  0  0  0  0  0  0
  187.7430  178.0430  146.3940 C   0  0  0  0  0  3  0  0  0  0  0  0
  186.0560  179.0120  147.9590 C   0  0  0  0  0  1  0  0  0  0  0  0
  188.3060  178.2560  148.7380 C   0  0  0  0  0  3  0  0  0  0  0  0
  187.3950  178.4260  147.6910 C   0  0  0  0  0  0  0  0  0  0  0  0
  189.5650  177.7040  148.4860 C   0  0  0  0  0  3  0  0  0  0  0  0
  184.2690  178.6870  142.4630 C   0  0  0  0  0  0  0  0  0  0  0  0
  184.2230  178.5110  141.0460 N   0  0  0  0  0  2  0  0  0  0  0  0
  183.2190  178.9480  143.1110 O   0  0  0  0  0  0  0  0  0  0  0  0
  182.5540  177.2190  139.8140 C   0  0  0  0  0  1  0  0  0  0  0  0
  182.9860  178.5980  140.2830 C   0  0  2  0  0  3  0  0  0  0  0  0
  184.4300  180.1280  139.1180 O   0  0  0  0  0  1  0  0  0  0  0  0
  183.1660  179.5320  139.0940 C   0  0  0  0  0  2  0  0  0  0  0  0
  1 18  1  0  0  0  0
  1 13  1  0  0  0  0
  2 16  1  0  0  0  0
  4  8  2  0  0  0  0
  4  6  1  0  0  0  0
  5  2  1  6  0  0  0
  5  7  1  0  0  0  0
  6  2  2  0  0  0  0
  7  3  1  1  0  0  0
  7 19  1  0  0  0  0
  8 12  1  0  0  0  0
  9 13  1  6  0  0  0
  9  6  1  0  0  0  0
  9 17  1  0  0  0  0
 10  1  1  0  0  0  0
 11 23  1  0  0  0  0
 12 16  2  0  0  0  0
 14 31  1  6  0  0  0
 14 15  1  0  0  0  0
 15  3  1  0  0  0  0
 16 11  1  0  0  0  0
 17 22  1  1  0  0  0
 17  5  1  0  0  0  0
 18  4  1  0  0  0  0
 19 25  1  1  0  0  0
 20  1  1  0  0  0  0
 21 14  1  0  0  0  0
 22 21  1  0  0  0  0
 23 19  1  0  0  0  0
 24 30  1  0  0  0  0
 25 26  1  0  0  0  0
 25 24  2  0  0  0  0
 26 29  2  0  0  0  0
 29 27  1  0  0  0  0
 29 28  1  0  0  0  0
 30 28  2  0  0  0  0
 31 33  2  0  0  0  0
 32 31  1  0  0  0  0
 35 34  1  6  0  0  0
 35 32  1  0  0  0  0
 37 36  1  0  0  0  0
 37 35  1  0  0  0  0
M  END
>  <MODEL>
4

>  <REMARK>
 VINA RESULT:      -8.7      2.440      6.475
  Name = 
  4 active torsions:
  status: ('A' for Active; 'I' for Inactive)
    1  A    between atoms: CA_4  and  N_12
    2  A    between atoms: CA_4  and  C_37
    3  A    between atoms: C_8  and  C_18
    4  A    between atoms: C_23  and  C_30
                            x       y       z     vdW  Elec       q    Type
                         _______ _______ _______ _____ _____    ______ ____

>  <TORSDO>
F 4

$$$$
=
 OpenBabel11122411373D

 37 42  0  0  1  0  0  0  0  0999 V2000
  184.3200  178.6140  139.4180 C   0  0  0  0  0  0  0  0  0  0  0  0
  185.9350  178.6600  143.3360 C   0  0  0  0  0  0  0  0  0  0  0  0
  189.8750  178.5680  143.7740 C   0  0  0  0  0  2  0  0  0  0  0  0
  183.9470  178.4760  141.9540 C   0  0  0  0  0  0  0  0  0  0  0  0
  187.4160  178.8530  143.1460 C   0  0  1  0  0  3  0  0  0  0  0  0
  185.3150  178.6850  142.1110 C   0  0  0  0  0  0  0  0  0  0  0  0
  188.4200  178.1330  144.0920 C   0  0  2  0  0  3  0  0  0  0  0  0
  183.1650  178.3190  143.1050 C   0  0  0  0  0  3  0  0  0  0  0  0
  186.2520  178.9490  141.0100 C   0  0  2  0  0  3  0  0  0  0  0  0
  184.2050  180.0950  139.0940 C   0  0  0  0  0  1  0  0  0  0  0  0
  185.7330  178.6990  145.8650 C   0  0  0  0  0  2  0  0  0  0  0  0
  183.7650  178.3920  144.3750 C   0  0  0  0  0  3  0  0  0  0  0  0
  185.7840  178.2480  139.7300 C   0  0  0  0  0  2  0  0  0  0  0  0
  190.4090  177.2770  141.9780 C   0  0  1  0  0  3  0  0  0  0  0  0
  190.1590  178.5960  142.3970 O   0  0  0  0  0  0  0  0  0  0  0  0
  185.1550  178.5690  144.5040 C   0  0  0  0  0  0  0  0  0  0  0  0
  187.6040  178.5460  141.6190 C   0  0  2  0  0  3  0  0  0  0  0  0
  183.3630  178.2670  140.5810 C   0  0  0  0  0  2  0  0  0  0  0  0
  188.1590  178.3290  145.6030 C   0  0  1  0  0  3  0  0  0  0  0  0
  183.8840  177.8330  138.1970 C   0  0  0  0  0  1  0  0  0  0  0  0
  189.1340  176.4180  141.9420 C   0  0  0  0  0  2  0  0  0  0  0  0
  187.9190  177.0670  141.2660 C   0  0  0  0  0  2  0  0  0  0  0  0
  186.8510  177.7040  146.0530 C   0  0  0  0  0  2  0  0  0  0  0  0
  189.3880  178.2090  147.7830 C   0  0  0  0  0  3  0  0  0  0  0  0
  189.2620  177.7700  146.4600 C   0  0  0  0  0  0  0  0  0  0  0  0
  190.1610  176.8150  145.9580 C   0  0  0  0  0  3  0  0  0  0  0  0
  192.1280  175.3030  146.2370 C   0  0  0  0  0  1  0  0  0  0  0  0
  191.3000  176.7560  148.0930 C   0  0  0  0  0  3  0  0  0  0  0  0
  191.1770  176.3110  146.7730 C   0  0  0  0  0  0  0  0  0  0  0  0
  190.4050  177.7040  148.5970 C   0  0  0  0  0  3  0  0  0  0  0  0
  191.0820  177.2800  140.6440 C   0  0  0  0  0  0  0  0  0  0  0  0
  190.4530  176.6200  139.5440 N   0  0  0  0  0  2  0  0  0  0  0  0
  192.1810  177.8780  140.4890 O   0  0  0  0  0  0  0  0  0  0  0  0
  189.9660  177.0220  137.1830 C   0  0  0  0  0  1  0  0  0  0  0  0
  191.0180  176.6170  138.2020 C   0  0  2  0  0  3  0  0  0  0  0  0
  190.5470  174.3130  137.6970 O   0  0  0  0  0  1  0  0  0  0  0  0
  191.5780  175.2410  137.8700 C   0  0  0  0  0  2  0  0  0  0  0  0
  1 13  1  0  0  0  0
  1 18  1  0  0  0  0
  2 16  1  0  0  0  0
  4  6  1  0  0  0  0
  4  8  2  0  0  0  0
  5  2  1  1  0  0  0
  5  7  1  0  0  0  0
  6  2  2  0  0  0  0
  7  3  1  6  0  0  0
  7 19  1  0  0  0  0
  8 12  1  0  0  0  0
  9 13  1  6  0  0  0
  9 17  1  0  0  0  0
  9  6  1  0  0  0  0
 10  1  1  0  0  0  0
 11 23  1  0  0  0  0
 12 16  2  0  0  0  0
 14 31  1  6  0  0  0
 14 15  1  0  0  0  0
 15  3  1  0  0  0  0
 16 11  1  0  0  0  0
 17 22  1  1  0  0  0
 17  5  1  0  0  0  0
 18  4  1  0  0  0  0
 19 23  1  0  0  0  0
 19 25  1  1  0  0  0
 20  1  1  0  0  0  0
 21 14  1  0  0  0  0
 22 21  1  0  0  0  0
 24 30  1  0  0  0  0
 25 24  2  0  0  0  0
 26 25  1  0  0  0  0
 26 29  2  0  0  0  0
 27 29  1  0  0  0  0
 28 30  2  0  0  0  0
 29 28  1  0  0  0  0
 32 31  1  0  0  0  0
 33 31  2  0  0  0  0
 35 34  1  6  0  0  0
 35 32  1  0  0  0  0
 36 37  1  0  0  0  0
 37 35  1  0  0  0  0
M  END
>  <MODEL>
5

>  <REMARK>
 VINA RESULT:      -8.6      2.641      6.923
  Name = 
  4 active torsions:
  status: ('A' for Active; 'I' for Inactive)
    1  A    between atoms: CA_4  and  N_12
    2  A    between atoms: CA_4  and  C_37
    3  A    between atoms: C_8  and  C_18
    4  A    between atoms: C_23  and  C_30
                            x       y       z     vdW  Elec       q    Type
                         _______ _______ _______ _____ _____    ______ ____

>  <TORSDO>
F 4

$$$$
=
 OpenBabel11122411373D

 37 42  0  0  1  0  0  0  0  0999 V2000
  190.0960  177.4610  143.4560 C   0  0  0  0  0  0  0  0  0  0  0  0
  186.0000  177.8710  144.4660 C   0  0  0  0  0  0  0  0  0  0  0  0
  183.2940  177.6580  141.5740 C   0  0  0  0  0  2  0  0  0  0  0  0
  188.3060  178.0250  145.2090 C   0  0  0  0  0  0  0  0  0  0  0  0
  185.2500  177.5130  143.2100 C   0  0  1  0  0  3  0  0  0  0  0  0
  187.3470  177.7150  144.2480 C   0  0  0  0  0  0  0  0  0  0  0  0
  183.9430  178.2720  142.8430 C   0  0  2  0  0  3  0  0  0  0  0  0
  187.8680  178.4310  146.4750 C   0  0  0  0  0  3  0  0  0  0  0  0
  187.6440  177.1960  142.9060 C   0  0  2  0  0  3  0  0  0  0  0  0
  190.3220  175.9650  143.6070 C   0  0  0  0  0  1  0  0  0  0  0  0
  184.1020  178.2430  146.1070 C   0  0  0  0  0  2  0  0  0  0  0  0
  186.4910  178.5000  146.7510 C   0  0  0  0  0  3  0  0  0  0  0  0
  188.9940  177.7310  142.4130 C   0  0  0  0  0  2  0  0  0  0  0  0
  184.4940  178.6000  139.8850 C   0  0  1  0  0  3  0  0  0  0  0  0
  184.2200  177.3910  140.5500 O   0  0  0  0  0  0  0  0  0  0  0  0
  185.5420  178.2140  145.7510 C   0  0  0  0  0  0  0  0  0  0  0  0
  186.3760  177.5600  142.1180 C   0  0  2  0  0  3  0  0  0  0  0  0
  189.7650  178.0730  144.8370 C   0  0  0  0  0  2  0  0  0  0  0  0
  182.8810  178.3380  143.9640 C   0  0  1  0  0  3  0  0  0  0  0  0
  191.3840  178.0820  142.9600 C   0  0  0  0  0  1  0  0  0  0  0  0
  185.3460  179.5580  140.7340 C   0  0  0  0  0  2  0  0  0  0  0  0
  186.5690  178.9300  141.4140 C   0  0  0  0  0  2  0  0  0  0  0  0
  183.3490  179.1450  145.1610 C   0  0  0  0  0  2  0  0  0  0  0  0
  180.4620  178.8660  144.3400 C   0  0  0  0  0  3  0  0  0  0  0  0
  181.5750  178.9160  143.4940 C   0  0  0  0  0  0  0  0  0  0  0  0
  181.4550  179.5080  142.2260 C   0  0  0  0  0  3  0  0  0  0  0  0
  180.1080  180.6600  140.4670 C   0  0  0  0  0  1  0  0  0  0  0  0
  179.1220  179.9820  142.6600 C   0  0  0  0  0  3  0  0  0  0  0  0
  180.2320  180.0380  141.8110 C   0  0  0  0  0  0  0  0  0  0  0  0
  179.2380  179.3970  143.9240 C   0  0  0  0  0  3  0  0  0  0  0  0
  185.1550  178.3270  138.5730 C   0  0  0  0  0  0  0  0  0  0  0  0
  184.7880  177.1590  137.8370 N   0  0  0  0  0  2  0  0  0  0  0  0
  186.0100  179.1320  138.1130 O   0  0  0  0  0  0  0  0  0  0  0  0
  184.5220  175.7710  135.8420 C   0  0  0  0  0  1  0  0  0  0  0  0
  185.3490  176.8450  136.5300 C   0  0  2  0  0  3  0  0  0  0  0  0
  187.6090  177.0260  135.7310 O   0  0  0  0  0  1  0  0  0  0  0  0
  186.7950  176.3920  136.6730 C   0  0  0  0  0  2  0  0  0  0  0  0
  1 10  1  0  0  0  0
  1 18  1  0  0  0  0
  2 16  1  0  0  0  0
  4  8  2  0  0  0  0
  5  2  1  1  0  0  0
  6  2  2  0  0  0  0
  6  4  1  0  0  0  0
  7  3  1  6  0  0  0
  7  5  1  0  0  0  0
  7 19  1  0  0  0  0
  8 12  1  0  0  0  0
  9 13  1  6  0  0  0
  9  6  1  0  0  0  0
 13  1  1  0  0  0  0
 14 31  1  6  0  0  0
 14 15  1  0  0  0  0
 14 21  1  0  0  0  0
 15  3  1  0  0  0  0
 16 11  1  0  0  0  0
 16 12  2  0  0  0  0
 17 22  1  1  0  0  0
 17  9  1  0  0  0  0
 17  5  1  0  0  0  0
 18  4  1  0  0  0  0
 19 25  1  6  0  0  0
 19 23  1  0  0  0  0
 20  1  1  0  0  0  0
 21 22  1  0  0  0  0
 23 11  1  0  0  0  0
 25 24  2  0  0  0  0
 26 25  1  0  0  0  0
 27 29  1  0  0  0  0
 28 30  2  0  0  0  0
 29 26  2  0  0  0  0
 29 28  1  0  0  0  0
 30 24  1  0  0  0  0
 32 31  1  0  0  0  0
 33 31  2  0  0  0  0
 35 34  1  1  0  0  0
 35 37  1  0  0  0  0
 35 32  1  0  0  0  0
 36 37  1  0  0  0  0
M  END
>  <MODEL>
6

>  <REMARK>
 VINA RESULT:      -8.5      1.067      1.210
  Name = 
  4 active torsions:
  status: ('A' for Active; 'I' for Inactive)
    1  A    between atoms: CA_4  and  N_12
    2  A    between atoms: CA_4  and  C_37
    3  A    between atoms: C_8  and  C_18
    4  A    between atoms: C_23  and  C_30
                            x       y       z     vdW  Elec       q    Type
                         _______ _______ _______ _____ _____    ______ ____

>  <TORSDO>
F 4

$$$$
=
 OpenBabel11122411373D

 37 42  0  0  1  0  0  0  0  0999 V2000
  185.6690  178.5320  146.4360 C   0  0  0  0  0  0  0  0  0  0  0  0
  187.2040  177.8550  142.5430 C   0  0  0  0  0  0  0  0  0  0  0  0
  190.5040  175.6930  142.1460 C   0  0  0  0  0  2  0  0  0  0  0  0
  185.5990  179.0460  143.9210 C   0  0  0  0  0  0  0  0  0  0  0  0
  188.2930  176.8310  142.7250 C   0  0  1  0  0  3  0  0  0  0  0  0
  186.6080  178.1000  143.7560 C   0  0  0  0  0  0  0  0  0  0  0  0
  189.5840  176.9090  141.8600 C   0  0  2  0  0  3  0  0  0  0  0  0
  185.1200  179.7100  142.7850 C   0  0  0  0  0  3  0  0  0  0  0  0
  187.1550  177.2640  144.8330 C   0  0  2  0  0  3  0  0  0  0  0  0
  184.7080  177.3680  146.6160 C   0  0  0  0  0  1  0  0  0  0  0  0
  187.1720  178.1260  140.0210 C   0  0  0  0  0  2  0  0  0  0  0  0
  185.6470  179.3990  141.5190 C   0  0  0  0  0  3  0  0  0  0  0  0
  187.0950  178.0090  146.1710 C   0  0  0  0  0  2  0  0  0  0  0  0
  191.5710  176.3040  144.0610 C   0  0  1  0  0  3  0  0  0  0  0  0
  190.6360  175.4050  143.5150 O   0  0  0  0  0  0  0  0  0  0  0  0
  186.6900  178.4640  141.3840 C   0  0  0  0  0  0  0  0  0  0  0  0
  188.5290  176.8590  144.2760 C   0  0  2  0  0  3  0  0  0  0  0  0
  185.1580  179.4520  145.3040 C   0  0  0  0  0  2  0  0  0  0  0  0
  189.3510  177.0110  140.3360 C   0  0  1  0  0  3  0  0  0  0  0  0
  185.6860  179.3290  147.7220 C   0  0  0  0  0  1  0  0  0  0  0  0
  191.0170  177.7340  144.1700 C   0  0  0  0  0  2  0  0  0  0  0  0
  189.6110  177.8550  144.7710 C   0  0  0  0  0  2  0  0  0  0  0  0
  188.6670  178.3060  139.9370 C   0  0  0  0  0  2  0  0  0  0  0  0
  191.8100  177.4140  140.0780 C   0  0  0  0  0  3  0  0  0  0  0  0
  190.6250  176.8950  139.5440 C   0  0  0  0  0  0  0  0  0  0  0  0
  190.6460  176.2720  138.2860 C   0  0  0  0  0  3  0  0  0  0  0  0
  191.8580  175.5180  136.2370 C   0  0  0  0  0  1  0  0  0  0  0  0
  193.0210  176.6980  138.1060 C   0  0  0  0  0  3  0  0  0  0  0  0
  191.8410  176.1750  137.5700 C   0  0  0  0  0  0  0  0  0  0  0  0
  193.0050  177.3170  139.3600 C   0  0  0  0  0  3  0  0  0  0  0  0
  192.0370  175.8150  145.3940 C   0  0  0  0  0  0  0  0  0  0  0  0
  192.0170  176.7070  146.5100 N   0  0  0  0  0  2  0  0  0  0  0  0
  192.4220  174.6230  145.5330 O   0  0  0  0  0  0  0  0  0  0  0  0
  191.7580  174.9730  148.2120 C   0  0  0  0  0  1  0  0  0  0  0  0
  192.4100  176.2970  147.8510 C   0  0  2  0  0  3  0  0  0  0  0  0
  193.1490  177.7880  149.5870 O   0  0  0  0  0  1  0  0  0  0  0  0
  192.0300  177.3700  148.8620 C   0  0  0  0  0  2  0  0  0  0  0  0
  1 10  1  0  0  0  0
  1 20  1  0  0  0  0
  2  6  1  0  0  0  0
  3 15  1  0  0  0  0
  4 18  1  0  0  0  0
  5  2  1  6  0  0  0
  5 17  1  0  0  0  0
  6  4  2  0  0  0  0
  6  9  1  0  0  0  0
  7  3  1  6  0  0  0
  7  5  1  0  0  0  0
  8  4  1  0  0  0  0
  9 13  1  1  0  0  0
 11 16  1  0  0  0  0
 12  8  2  0  0  0  0
 13  1  1  0  0  0  0
 14 21  1  0  0  0  0
 14 31  1  1  0  0  0
 15 14  1  0  0  0  0
 16 12  1  0  0  0  0
 16  2  2  0  0  0  0
 17 22  1  6  0  0  0
 17  9  1  0  0  0  0
 18  1  1  0  0  0  0
 19 25  1  6  0  0  0
 19  7  1  0  0  0  0
 21 22  1  0  0  0  0
 23 11  1  0  0  0  0
 23 19  1  0  0  0  0
 25 24  1  0  0  0  0
 26 25  2  0  0  0  0
 27 29  1  0  0  0  0
 28 30  1  0  0  0  0
 29 28  2  0  0  0  0
 29 26  1  0  0  0  0
 30 24  2  0  0  0  0
 31 33  2  0  0  0  0
 31 32  1  0  0  0  0
 32 35  1  0  0  0  0
 35 34  1  1  0  0  0
 35 37  1  0  0  0  0
 37 36  1  0  0  0  0
M  END
>  <MODEL>
7

>  <REMARK>
 VINA RESULT:      -8.3      3.977      8.657
  Name = 
  4 active torsions:
  status: ('A' for Active; 'I' for Inactive)
    1  A    between atoms: CA_4  and  N_12
    2  A    between atoms: CA_4  and  C_37
    3  A    between atoms: C_8  and  C_18
    4  A    between atoms: C_23  and  C_30
                            x       y       z     vdW  Elec       q    Type
                         _______ _______ _______ _____ _____    ______ ____

>  <TORSDO>
F 4

$$$$
=
 OpenBabel11122411373D

 37 42  0  0  1  0  0  0  0  0999 V2000
  191.2140  176.9900  143.1900 C   0  0  0  0  0  0  0  0  0  0  0  0
  188.2200  178.0870  140.3970 C   0  0  0  0  0  0  0  0  0  0  0  0
  184.8410  179.6620  141.7470 C   0  0  0  0  0  2  0  0  0  0  0  0
  190.3410  176.9670  140.7760 C   0  0  0  0  0  0  0  0  0  0  0  0
  187.1990  178.8490  141.1990 C   0  0  1  0  0  3  0  0  0  0  0  0
  189.2640  177.7320  141.2160 C   0  0  0  0  0  0  0  0  0  0  0  0
  185.6860  178.7030  140.8680 C   0  0  2  0  0  3  0  0  0  0  0  0
  190.3960  176.6190  139.4200 C   0  0  0  0  0  3  0  0  0  0  0  0
  189.1070  178.2460  142.5840 C   0  0  2  0  0  3  0  0  0  0  0  0
  192.0550  178.2540  143.2810 C   0  0  0  0  0  1  0  0  0  0  0  0
  187.2860  178.2930  138.0480 C   0  0  0  0  0  2  0  0  0  0  0  0
  189.3880  177.0580  138.5430 C   0  0  0  0  0  3  0  0  0  0  0  0
  189.7570  177.2900  143.5920 C   0  0  0  0  0  2  0  0  0  0  0  0
  184.6740  178.5310  143.7150 C   0  0  1  0  0  3  0  0  0  0  0  0
  185.2300  179.6660  143.0980 O   0  0  0  0  0  0  0  0  0  0  0  0
  188.2930  177.8020  139.0220 C   0  0  0  0  0  0  0  0  0  0  0  0
  187.5940  178.4950  142.6760 C   0  0  2  0  0  3  0  0  0  0  0  0
  191.3250  176.4000  141.7660 C   0  0  0  0  0  2  0  0  0  0  0  0
  185.3110  178.9250  139.3850 C   0  0  1  0  0  3  0  0  0  0  0  0
  191.7790  175.9810  144.1660 C   0  0  0  0  0  1  0  0  0  0  0  0
  185.3570  177.2260  143.2720 C   0  0  0  0  0  2  0  0  0  0  0  0
  186.8910  177.2490  143.2770 C   0  0  0  0  0  2  0  0  0  0  0  0
  185.9020  177.8680  138.4700 C   0  0  0  0  0  2  0  0  0  0  0  0
  183.0740  177.7970  139.3870 C   0  0  0  0  0  3  0  0  0  0  0  0
  183.8240  178.9570  139.1610 C   0  0  0  0  0  0  0  0  0  0  0  0
  183.1760  180.1280  138.7340 C   0  0  0  0  0  3  0  0  0  0  0  0
  181.1140  181.3730  138.0770 C   0  0  0  0  0  1  0  0  0  0  0  0
  181.0510  178.9700  138.7570 C   0  0  0  0  0  3  0  0  0  0  0  0
  181.7950  180.1330  138.5320 C   0  0  0  0  0  0  0  0  0  0  0  0
  181.6910  177.8030  139.1840 C   0  0  0  0  0  3  0  0  0  0  0  0
  184.7240  178.6750  145.2010 C   0  0  0  0  0  0  0  0  0  0  0  0
  185.9620  178.4640  145.8810 N   0  0  0  0  0  2  0  0  0  0  0  0
  183.6880  179.0020  145.8420 O   0  0  0  0  0  0  0  0  0  0  0  0
  186.1490  180.1060  147.6810 C   0  0  0  0  0  1  0  0  0  0  0  0
  186.1070  178.6310  147.3210 C   0  0  2  0  0  3  0  0  0  0  0  0
  188.1290  177.4730  146.7300 O   0  0  0  0  0  1  0  0  0  0  0  0
  187.3660  177.9280  147.8080 C   0  0  0  0  0  2  0  0  0  0  0  0
  1 10  1  0  0  0  0
  1 13  1  0  0  0  0
  1 20  1  0  0  0  0
  2  6  1  0  0  0  0
  3 15  1  0  0  0  0
  4  6  2  0  0  0  0
  4 18  1  0  0  0  0
  5  2  1  6  0  0  0
  5 17  1  0  0  0  0
  6  9  1  0  0  0  0
  7  5  1  0  0  0  0
  7  3  1  1  0  0  0
  8  4  1  0  0  0  0
  9 17  1  0  0  0  0
  9 13  1  1  0  0  0
 11 23  1  0  0  0  0
 11 16  1  0  0  0  0
 12 16  1  0  0  0  0
 12  8  2  0  0  0  0
 14 31  1  1  0  0  0
 15 14  1  0  0  0  0
 16  2  2  0  0  0  0
 17 22  1  6  0  0  0
 18  1  1  0  0  0  0
 19 25  1  1  0  0  0
 19  7  1  0  0  0  0
 21 22  1  0  0  0  0
 21 14  1  0  0  0  0
 23 19  1  0  0  0  0
 25 24  2  0  0  0  0
 26 25  1  0  0  0  0
 27 29  1  0  0  0  0
 28 30  2  0  0  0  0
 29 26  2  0  0  0  0
 29 28  1  0  0  0  0
 30 24  1  0  0  0  0
 31 33  2  0  0  0  0
 31 32  1  0  0  0  0
 32 35  1  0  0  0  0
 35 34  1  6  0  0  0
 35 37  1  0  0  0  0
 36 37  1  0  0  0  0
M  END
>  <MODEL>
8

>  <REMARK>
 VINA RESULT:      -8.2      2.778      5.778
  Name = 
  4 active torsions:
  status: ('A' for Active; 'I' for Inactive)
    1  A    between atoms: CA_4  and  N_12
    2  A    between atoms: CA_4  and  C_37
    3  A    between atoms: C_8  and  C_18
    4  A    between atoms: C_23  and  C_30
                            x       y       z     vdW  Elec       q    Type
                         _______ _______ _______ _____ _____    ______ ____

>  <TORSDO>
F 4

$$$$
=
 OpenBabel11122411373D

 37 42  0  0  1  0  0  0  0  0999 V2000
  182.3360  179.4210  138.6730 C   0  0  0  0  0  0  0  0  0  0  0  0
  184.9950  178.7560  141.9050 C   0  0  0  0  0  0  0  0  0  0  0  0
  188.8920  178.6620  141.1780 C   0  0  0  0  0  2  0  0  0  0  0  0
  182.6920  178.7980  141.1370 C   0  0  0  0  0  0  0  0  0  0  0  0
  186.3680  179.0110  141.3410 C   0  0  1  0  0  3  0  0  0  0  0  0
  184.0550  179.0000  140.9350 C   0  0  0  0  0  0  0  0  0  0  0  0
  187.5730  178.1450  141.8100 C   0  0  2  0  0  3  0  0  0  0  0  0
  182.2640  178.4100  142.4130 C   0  0  0  0  0  3  0  0  0  0  0  0
  184.6510  179.4870  139.6830 C   0  0  2  0  0  3  0  0  0  0  0  0
  182.1870  180.9340  138.6780 C   0  0  0  0  0  1  0  0  0  0  0  0
  185.5200  178.3110  144.3470 C   0  0  0  0  0  2  0  0  0  0  0  0
  183.2010  178.2530  143.4490 C   0  0  0  0  0  3  0  0  0  0  0  0
  183.8150  179.0320  138.4800 C   0  0  0  0  0  2  0  0  0  0  0  0
  188.8510  177.7450  139.0950 C   0  0  1  0  0  3  0  0  0  0  0  0
  188.7760  178.9550  139.8080 O   0  0  0  0  0  0  0  0  0  0  0  0
  184.5760  178.4300  143.2080 C   0  0  0  0  0  0  0  0  0  0  0  0
  186.1050  179.0020  139.7940 C   0  0  2  0  0  3  0  0  0  0  0  0
  181.7370  178.8400  139.9740 C   0  0  0  0  0  2  0  0  0  0  0  0
  187.7580  178.0460  143.3410 C   0  0  1  0  0  3  0  0  0  0  0  0
  181.5450  178.8770  137.5030 C   0  0  0  0  0  1  0  0  0  0  0  0
  187.5880  176.8840  139.2640 C   0  0  0  0  0  2  0  0  0  0  0  0
  186.2550  177.6240  139.0960 C   0  0  0  0  0  2  0  0  0  0  0  0
  186.6100  177.3210  144.0200 C   0  0  0  0  0  2  0  0  0  0  0  0
  189.7230  176.6010  142.7700 C   0  0  0  0  0  3  0  0  0  0  0  0
  189.0370  177.3570  143.7280 C   0  0  0  0  0  0  0  0  0  0  0  0
  189.5570  177.4640  145.0280 C   0  0  0  0  0  3  0  0  0  0  0  0
  191.2920  176.9280  146.7420 C   0  0  0  0  0  1  0  0  0  0  0  0
  191.4260  176.0580  144.4040 C   0  0  0  0  0  3  0  0  0  0  0  0
  190.7470  176.8150  145.3640 C   0  0  0  0  0  0  0  0  0  0  0  0
  190.9140  175.9520  143.1080 C   0  0  0  0  0  3  0  0  0  0  0  0
  189.1170  178.0140  137.6500 C   0  0  0  0  0  0  0  0  0  0  0  0
  189.4330  176.9230  136.7840 N   0  0  0  0  0  2  0  0  0  0  0  0
  189.0420  179.1890  137.1990 O   0  0  0  0  0  0  0  0  0  0  0  0
  188.3500  176.9790  134.5940 C   0  0  0  0  0  1  0  0  0  0  0  0
  189.6600  177.0930  135.3550 C   0  0  2  0  0  3  0  0  0  0  0  0
  191.8070  176.0530  135.6510 O   0  0  0  0  0  1  0  0  0  0  0  0
  190.6590  176.0600  134.8540 C   0  0  0  0  0  2  0  0  0  0  0  0
  1 10  1  0  0  0  0
  1 18  1  0  0  0  0
  2 16  1  0  0  0  0
  4  8  2  0  0  0  0
  5  7  1  0  0  0  0
  5  2  1  1  0  0  0
  6  4  1  0  0  0  0
  6  2  2  0  0  0  0
  7  3  1  6  0  0  0
  7 19  1  0  0  0  0
  8 12  1  0  0  0  0
  9 13  1  6  0  0  0
  9 17  1  0  0  0  0
  9  6  1  0  0  0  0
 13  1  1  0  0  0  0
 14 31  1  6  0  0  0
 14 21  1  0  0  0  0
 14 15  1  0  0  0  0
 15  3  1  0  0  0  0
 16 12  2  0  0  0  0
 16 11  1  0  0  0  0
 17 22  1  1  0  0  0
 17  5  1  0  0  0  0
 18  4  1  0  0  0  0
 19 25  1  6  0  0  0
 19 23  1  0  0  0  0
 20  1  1  0  0  0  0
 22 21  1  0  0  0  0
 23 11  1  0  0  0  0
 24 30  2  0  0  0  0
 24 25  1  0  0  0  0
 25 26  2  0  0  0  0
 26 29  1  0  0  0  0
 28 29  2  0  0  0  0
 29 27  1  0  0  0  0
 30 28  1  0  0  0  0
 32 31  1  0  0  0  0
 33 31  2  0  0  0  0
 35 34  1  6  0  0  0
 35 32  1  0  0  0  0
 37 35  1  0  0  0  0
 37 36  1  0  0  0  0
M  END
>  <MODEL>
9

>  <REMARK>
 VINA RESULT:      -8.2      2.092      6.944
  Name = 
  4 active torsions:
  status: ('A' for Active; 'I' for Inactive)
    1  A    between atoms: CA_4  and  N_12
    2  A    between atoms: CA_4  and  C_37
    3  A    between atoms: C_8  and  C_18
    4  A    between atoms: C_23  and  C_30
                            x       y       z     vdW  Elec       q    Type
                         _______ _______ _______ _____ _____    ______ ____

>  <TORSDO>
F 4

$$$$
