=
 OpenBabel11122410233D

 30 35  0  0  1  0  0  0  0  0999 V2000
  189.2560  177.0910  143.7950 C   0  0  0  0  0  0  0  0  0  0  0  0
  191.2440  176.1300  144.9640 C   0  0  0  0  0  0  0  0  0  0  0  0
  187.3920  178.1230  147.4880 C   0  0  0  0  0  2  0  0  0  0  0  0
  187.9720  177.6990  143.8740 C   0  0  0  0  0  0  0  0  0  0  0  0
  189.8180  176.7810  142.4330 C   0  0  0  0  0  2  0  0  0  0  0  0
  187.7000  178.9750  140.4790 O   0  0  0  0  0  0  0  0  0  0  0  0
  184.9490  177.7730  143.3870 C   0  0  1  0  0  3  0  0  0  0  0  0
  188.1480  178.3660  141.4910 C   0  0  0  0  0  0  0  0  0  0  0  0
  184.9100  178.0410  144.8780 C   0  0  2  0  0  3  0  0  0  0  0  0
  186.1790  178.8480  146.8840 C   0  0  1  0  0  3  0  0  0  0  0  0
  189.4680  177.8110  141.4660 N   0  0  0  0  0  0  0  0  0  0  0  0
  187.3440  178.2110  142.6740 N   0  0  0  0  0  0  0  0  0  0  0  0
  191.9090  175.8480  146.1620 C   0  0  0  0  0  3  0  0  0  0  0  0
  183.8100  179.0420  145.0020 C   0  0  0  0  0  2  0  0  0  0  0  0
  183.6620  178.0010  142.8560 O   0  0  0  0  0  0  0  0  0  0  0  0
  191.8700  175.7980  143.8080 F   0  0  0  0  0  0  0  0  0  0  0  0
  188.1330  177.6550  146.2880 C   0  0  0  0  0  0  0  0  0  0  0  0
  191.3320  176.1660  147.3890 C   0  0  0  0  0  3  0  0  0  0  0  0
  189.9680  176.7470  144.9830 C   0  0  0  0  0  0  0  0  0  0  0  0
  187.4210  177.9210  145.1520 C   0  0  0  0  0  0  0  0  0  0  0  0
  186.3400  180.3450  147.0760 C   0  0  0  0  0  1  0  0  0  0  0  0
  186.1670  178.5320  145.4530 N   0  0  0  0  0  0  0  0  0  0  0  0
  182.9170  178.6880  143.8370 C   0  0  0  0  0  2  0  0  0  0  0  0
  185.6080  179.6630  142.0730 O   0  0  0  0  0  0  0  0  0  0  0  0
  190.0780  176.7700  147.4320 C   0  0  0  0  0  3  0  0  0  0  0  0
  189.3920  177.0580  146.2460 C   0  0  0  0  0  0  0  0  0  0  0  0
  185.9640  178.6070  142.6640 C   0  0  0  0  0  0  0  0  0  0  0  0
  190.3600  178.0300  140.3370 C   0  0  0  0  0  2  0  0  0  0  0  0
  189.6620  176.5900  138.4500 C   0  0  0  0  0  1  0  0  0  0  0  0
  190.6180  176.7200  139.6170 C   0  0  0  0  0  2  0  0  0  0  0  0
  1  4  2  0  0  0  0
  1 19  1  0  0  0  0
  2 19  2  0  0  0  0
  2 13  1  0  0  0  0
  4 20  1  0  0  0  0
  5  1  1  0  0  0  0
  6  8  2  0  0  0  0
  7 27  1  6  0  0  0
  7  9  1  0  0  0  0
  8 12  1  0  0  0  0
  9 14  1  6  0  0  0
  9 22  1  0  0  0  0
 10 21  1  6  0  0  0
 10  3  1  0  0  0  0
 11  8  1  0  0  0  0
 11  5  1  0  0  0  0
 12  4  1  0  0  0  0
 13 18  2  0  0  0  0
 15  7  1  0  0  0  0
 15 23  1  0  0  0  0
 16  2  1  0  0  0  0
 17  3  1  0  0  0  0
 18 25  1  0  0  0  0
 19 26  1  0  0  0  0
 20 22  1  0  0  0  0
 20 17  2  0  0  0  0
 22 10  1  0  0  0  0
 23 14  1  0  0  0  0
 24 27  2  0  0  0  0
 26 17  1  0  0  0  0
 26 25  2  0  0  0  0
 27 12  1  0  0  0  0
 28 11  1  0  0  0  0
 29 30  1  0  0  0  0
 30 28  1  0  0  0  0
M  END
>  <MODEL>
1

>  <REMARK>
 VINA RESULT:      -9.4      0.000      0.000
  Name = 
  2 active torsions:
  status: ('A' for Active; 'I' for Inactive)
    1  A    between atoms: N_11  and  C_28
    2  A    between atoms: C_28  and  C_30
                            x       y       z     vdW  Elec       q    Type
                         _______ _______ _______ _____ _____    ______ ____

>  <TORSDO>
F 2

$$$$
=
 OpenBabel11122410233D

 30 35  0  0  1  0  0  0  0  0999 V2000
  188.2010  177.3830  142.7730 C   0  0  0  0  0  0  0  0  0  0  0  0
  189.7850  176.7290  144.5930 C   0  0  0  0  0  0  0  0  0  0  0  0
  185.2770  178.6990  145.5820 C   0  0  0  0  0  2  0  0  0  0  0  0
  186.9300  177.8930  142.3900 C   0  0  0  0  0  0  0  0  0  0  0  0
  189.1570  176.9570  141.6910 C   0  0  0  0  0  2  0  0  0  0  0  0
  187.6360  178.7270  138.9210 O   0  0  0  0  0  0  0  0  0  0  0  0
  184.1900  177.6680  141.0360 C   0  0  1  0  0  3  0  0  0  0  0  0
  187.7850  178.2810  140.0930 C   0  0  0  0  0  0  0  0  0  0  0  0
  183.6960  178.1080  142.3990 C   0  0  2  0  0  3  0  0  0  0  0  0
  184.2730  179.2480  144.5570 C   0  0  1  0  0  3  0  0  0  0  0  0
  189.0720  177.8330  140.5310 N   0  0  0  0  0  0  0  0  0  0  0  0
  186.6700  178.2060  141.0000 N   0  0  0  0  0  0  0  0  0  0  0  0
  190.0710  176.6460  145.9590 C   0  0  0  0  0  3  0  0  0  0  0  0
  182.5700  179.0270  142.0580 C   0  0  0  0  0  2  0  0  0  0  0  0
  183.1140  177.7290  140.1270 O   0  0  0  0  0  0  0  0  0  0  0  0
  190.7400  176.3120  143.7260 F   0  0  0  0  0  0  0  0  0  0  0  0
  186.3610  178.1510  144.7270 C   0  0  0  0  0  0  0  0  0  0  0  0
  189.1400  177.0620  146.9080 C   0  0  0  0  0  3  0  0  0  0  0  0
  188.5380  177.2410  144.1530 C   0  0  0  0  0  0  0  0  0  0  0  0
  186.0120  178.2220  143.4080 C   0  0  0  0  0  0  0  0  0  0  0  0
  184.3090  180.7650  144.5790 C   0  0  0  0  0  1  0  0  0  0  0  0
  184.7020  178.7630  143.2430 N   0  0  0  0  0  0  0  0  0  0  0  0
  182.0820  178.4660  140.7440 C   0  0  0  0  0  2  0  0  0  0  0  0
  185.1370  179.4330  139.7240 O   0  0  0  0  0  0  0  0  0  0  0  0
  187.9080  177.5660  146.4990 C   0  0  0  0  0  3  0  0  0  0  0  0
  187.5980  177.6550  145.1370 C   0  0  0  0  0  0  0  0  0  0  0  0
  185.3410  178.4870  140.5340 C   0  0  0  0  0  0  0  0  0  0  0  0
  190.2520  177.9850  139.6920 C   0  0  0  0  0  2  0  0  0  0  0  0
  190.5200  176.8300  137.5210 C   0  0  0  0  0  1  0  0  0  0  0  0
  190.5890  176.6650  139.0250 C   0  0  0  0  0  2  0  0  0  0  0  0
  1 19  1  0  0  0  0
  2 13  1  0  0  0  0
  4  1  2  0  0  0  0
  4 20  1  0  0  0  0
  5  1  1  0  0  0  0
  6  8  2  0  0  0  0
  7 15  1  6  0  0  0
  7  9  1  0  0  0  0
  8 11  1  0  0  0  0
  8 12  1  0  0  0  0
  9 14  1  6  0  0  0
  9 22  1  0  0  0  0
 10 21  1  6  0  0  0
 10  3  1  0  0  0  0
 11  5  1  0  0  0  0
 12  4  1  0  0  0  0
 13 18  2  0  0  0  0
 15 23  1  0  0  0  0
 16  2  1  0  0  0  0
 17 26  1  0  0  0  0
 17  3  1  0  0  0  0
 19  2  2  0  0  0  0
 19 26  1  0  0  0  0
 20 17  2  0  0  0  0
 22 20  1  0  0  0  0
 22 10  1  0  0  0  0
 23 14  1  0  0  0  0
 24 27  2  0  0  0  0
 25 18  1  0  0  0  0
 26 25  2  0  0  0  0
 27 12  1  0  0  0  0
 27  7  1  0  0  0  0
 28 11  1  0  0  0  0
 29 30  1  0  0  0  0
 30 28  1  0  0  0  0
M  END
>  <MODEL>
2

>  <REMARK>
 VINA RESULT:      -8.6      1.571      2.198
  Name = 
  2 active torsions:
  status: ('A' for Active; 'I' for Inactive)
    1  A    between atoms: N_11  and  C_28
    2  A    between atoms: C_28  and  C_30
                            x       y       z     vdW  Elec       q    Type
                         _______ _______ _______ _____ _____    ______ ____

>  <TORSDO>
F 2

$$$$
=
 OpenBabel11122410233D

 30 35  0  0  1  0  0  0  0  0999 V2000
  189.3440  177.2710  139.6680 C   0  0  0  0  0  0  0  0  0  0  0  0
  191.2030  176.7530  138.0800 C   0  0  0  0  0  0  0  0  0  0  0  0
  192.0560  177.7690  142.9190 C   0  0  0  0  0  2  0  0  0  0  0  0
  188.9220  177.5740  140.9920 C   0  0  0  0  0  0  0  0  0  0  0  0
  188.2950  177.1280  138.5970 C   0  0  0  0  0  2  0  0  0  0  0  0
  185.5850  178.8380  140.2860 O   0  0  0  0  0  0  0  0  0  0  0  0
  187.3800  176.9790  143.5720 C   0  0  1  0  0  3  0  0  0  0  0  0
  186.7240  178.3200  140.1140 C   0  0  0  0  0  0  0  0  0  0  0  0
  188.7390  177.1950  144.2050 C   0  0  2  0  0  3  0  0  0  0  0  0
  191.0160  178.2180  143.9570 C   0  0  1  0  0  3  0  0  0  0  0  0
  187.2060  178.0760  138.7880 N   0  0  0  0  0  0  0  0  0  0  0  0
  187.5480  177.9610  141.2380 N   0  0  0  0  0  0  0  0  0  0  0  0
  192.5730  176.5980  137.8490 C   0  0  0  0  0  3  0  0  0  0  0  0
  188.4020  177.9210  145.4650 C   0  0  0  0  0  2  0  0  0  0  0  0
  186.4110  176.9260  144.5950 O   0  0  0  0  0  0  0  0  0  0  0  0
  190.3690  176.5980  137.0220 F   0  0  0  0  0  0  0  0  0  0  0  0
  191.2310  177.5080  141.7110 C   0  0  0  0  0  0  0  0  0  0  0  0
  193.4910  176.7490  138.8870 C   0  0  0  0  0  3  0  0  0  0  0  0
  190.7260  177.0670  139.3780 C   0  0  0  0  0  0  0  0  0  0  0  0
  189.9020  177.6350  142.0030 C   0  0  0  0  0  0  0  0  0  0  0  0
  191.1630  179.7070  144.2070 C   0  0  0  0  0  1  0  0  0  0  0  0
  189.6970  177.9420  143.3820 N   0  0  0  0  0  0  0  0  0  0  0  0
  187.0170  177.4030  145.7760 C   0  0  0  0  0  2  0  0  0  0  0  0
  186.2800  179.0000  142.9090 O   0  0  0  0  0  0  0  0  0  0  0  0
  193.0460  177.0550  140.1700 C   0  0  0  0  0  3  0  0  0  0  0  0
  191.6780  177.2110  140.4250 C   0  0  0  0  0  0  0  0  0  0  0  0
  187.0210  178.0370  142.5710 C   0  0  0  0  0  0  0  0  0  0  0  0
  186.4610  178.5170  137.6180 C   0  0  0  0  0  2  0  0  0  0  0  0
  186.8050  177.8530  135.2600 C   0  0  0  0  0  1  0  0  0  0  0  0
  187.3890  178.6280  136.4230 C   0  0  0  0  0  2  0  0  0  0  0  0
  1  4  1  0  0  0  0
  2 19  1  0  0  0  0
  3 10  1  0  0  0  0
  4 12  1  0  0  0  0
  4 20  2  0  0  0  0
  5 11  1  0  0  0  0
  5  1  1  0  0  0  0
  7 27  1  6  0  0  0
  7  9  1  0  0  0  0
  7 15  1  0  0  0  0
  8  6  2  0  0  0  0
  8 12  1  0  0  0  0
  9 14  1  1  0  0  0
 10 21  1  6  0  0  0
 11  8  1  0  0  0  0
 12 27  1  0  0  0  0
 13  2  2  0  0  0  0
 13 18  1  0  0  0  0
 14 23  1  0  0  0  0
 15 23  1  0  0  0  0
 16  2  1  0  0  0  0
 17 20  1  0  0  0  0
 17  3  1  0  0  0  0
 18 25  2  0  0  0  0
 19  1  2  0  0  0  0
 19 26  1  0  0  0  0
 20 22  1  0  0  0  0
 22 10  1  0  0  0  0
 22  9  1  0  0  0  0
 25 26  1  0  0  0  0
 26 17  2  0  0  0  0
 27 24  2  0  0  0  0
 28 11  1  0  0  0  0
 29 30  1  0  0  0  0
 30 28  1  0  0  0  0
M  END
>  <MODEL>
3

>  <REMARK>
 VINA RESULT:      -8.3      2.603      5.044
  Name = 
  2 active torsions:
  status: ('A' for Active; 'I' for Inactive)
    1  A    between atoms: N_11  and  C_28
    2  A    between atoms: C_28  and  C_30
                            x       y       z     vdW  Elec       q    Type
                         _______ _______ _______ _____ _____    ______ ____

>  <TORSDO>
F 2

$$$$
=
 OpenBabel11122410233D

 30 35  0  0  1  0  0  0  0  0999 V2000
  186.1730  178.1910  142.6340 C   0  0  0  0  0  0  0  0  0  0  0  0
  185.8160  178.2840  140.1630 C   0  0  0  0  0  0  0  0  0  0  0  0
  190.4110  178.1560  142.1760 C   0  0  0  0  0  2  0  0  0  0  0  0
  187.0720  178.1100  143.7330 C   0  0  0  0  0  0  0  0  0  0  0  0
  184.6940  178.2060  142.9200 C   0  0  0  0  0  2  0  0  0  0  0  0
  184.8440  179.1450  146.4140 O   0  0  0  0  0  0  0  0  0  0  0  0
  188.2510  176.7340  146.2040 C   0  0  1  0  0  3  0  0  0  0  0  0
  185.2520  178.8110  145.2670 C   0  0  0  0  0  0  0  0  0  0  0  0
  189.5520  176.9300  145.4530 C   0  0  2  0  0  3  0  0  0  0  0  0
  190.7570  178.2200  143.6710 C   0  0  1  0  0  3  0  0  0  0  0  0
  184.3930  178.9550  144.1310 N   0  0  0  0  0  0  0  0  0  0  0  0
  186.5750  178.2750  145.0830 N   0  0  0  0  0  0  0  0  0  0  0  0
  186.3590  178.3380  138.8750 C   0  0  0  0  0  3  0  0  0  0  0  0
  190.5100  177.2810  146.5440 C   0  0  0  0  0  2  0  0  0  0  0  0
  188.5490  176.3260  147.5200 O   0  0  0  0  0  0  0  0  0  0  0  0
  184.4650  178.3070  140.2730 F   0  0  0  0  0  0  0  0  0  0  0  0
  188.9250  178.1150  142.1780 C   0  0  0  0  0  0  0  0  0  0  0  0
  187.7390  178.3250  138.6830 C   0  0  0  0  0  3  0  0  0  0  0  0
  186.6660  178.2140  141.2950 C   0  0  0  0  0  0  0  0  0  0  0  0
  188.4510  178.0230  143.4560 C   0  0  0  0  0  0  0  0  0  0  0  0
  191.2660  179.6080  144.0110 C   0  0  0  0  0  1  0  0  0  0  0  0
  189.5160  177.9560  144.4040 N   0  0  0  0  0  0  0  0  0  0  0  0
  189.9240  176.5580  147.7330 C   0  0  0  0  0  2  0  0  0  0  0  0
  187.4030  178.7260  147.2260 O   0  0  0  0  0  0  0  0  0  0  0  0
  188.5930  178.2550  139.7810 C   0  0  0  0  0  3  0  0  0  0  0  0
  188.0720  178.1950  141.0790 C   0  0  0  0  0  0  0  0  0  0  0  0
  187.3900  177.9620  146.2230 C   0  0  0  0  0  0  0  0  0  0  0  0
  183.0880  179.5900  144.2440 C   0  0  0  0  0  2  0  0  0  0  0  0
  180.8310  178.6440  143.8810 C   0  0  0  0  0  1  0  0  0  0  0  0
  182.1380  179.0130  143.2120 C   0  0  0  0  0  2  0  0  0  0  0  0
  1  5  1  0  0  0  0
  1  4  1  0  0  0  0
  2 16  1  0  0  0  0
  2 19  1  0  0  0  0
  3 17  1  0  0  0  0
  3 10  1  0  0  0  0
  4 12  1  0  0  0  0
  5 11  1  0  0  0  0
  7 27  1  1  0  0  0
  7 15  1  0  0  0  0
  8  6  2  0  0  0  0
  9  7  1  0  0  0  0
  9 14  1  1  0  0  0
 10 21  1  1  0  0  0
 10 22  1  0  0  0  0
 11 28  1  0  0  0  0
 11  8  1  0  0  0  0
 12  8  1  0  0  0  0
 12 27  1  0  0  0  0
 13  2  2  0  0  0  0
 14 23  1  0  0  0  0
 15 23  1  0  0  0  0
 17 20  1  0  0  0  0
 18 13  1  0  0  0  0
 18 25  2  0  0  0  0
 19  1  2  0  0  0  0
 20  4  2  0  0  0  0
 20 22  1  0  0  0  0
 22  9  1  0  0  0  0
 25 26  1  0  0  0  0
 26 19  1  0  0  0  0
 26 17  2  0  0  0  0
 27 24  2  0  0  0  0
 30 29  1  0  0  0  0
 30 28  1  0  0  0  0
M  END
>  <MODEL>
4

>  <REMARK>
 VINA RESULT:      -8.3      2.831      6.451
  Name = 
  2 active torsions:
  status: ('A' for Active; 'I' for Inactive)
    1  A    between atoms: N_11  and  C_28
    2  A    between atoms: C_28  and  C_30
                            x       y       z     vdW  Elec       q    Type
                         _______ _______ _______ _____ _____    ______ ____

>  <TORSDO>
F 2

$$$$
=
 OpenBabel11122410233D

 30 35  0  0  1  0  0  0  0  0999 V2000
  187.9450  177.7600  142.2730 C   0  0  0  0  0  0  0  0  0  0  0  0
  185.6770  178.3150  143.1640 C   0  0  0  0  0  0  0  0  0  0  0  0
  186.7330  178.5460  138.2630 C   0  0  0  0  0  2  0  0  0  0  0  0
  188.8100  177.5990  141.1550 C   0  0  0  0  0  0  0  0  0  0  0  0
  188.4880  177.4610  143.6460 C   0  0  0  0  0  2  0  0  0  0  0  0
  192.0200  177.6430  142.8640 O   0  0  0  0  0  0  0  0  0  0  0  0
  190.6150  175.9490  139.3110 C   0  0  1  0  0  3  0  0  0  0  0  0
  190.7710  177.6360  142.6750 C   0  0  0  0  0  0  0  0  0  0  0  0
  189.7120  176.5200  138.2360 C   0  0  2  0  0  3  0  0  0  0  0  0
  188.1110  178.3470  137.6140 C   0  0  1  0  0  3  0  0  0  0  0  0
  189.8790  177.8710  143.7690 N   0  0  0  0  0  0  0  0  0  0  0  0
  190.2260  177.3850  141.3670 N   0  0  0  0  0  0  0  0  0  0  0  0
  184.3650  178.7350  142.9220 C   0  0  0  0  0  3  0  0  0  0  0  0
  190.6640  176.7880  137.1170 C   0  0  0  0  0  2  0  0  0  0  0  0
  191.7160  175.3260  138.6880 O   0  0  0  0  0  0  0  0  0  0  0  0
  186.0330  178.0840  144.4510 F   0  0  0  0  0  0  0  0  0  0  0  0
  186.9940  178.2530  139.6960 C   0  0  0  0  0  0  0  0  0  0  0  0
  183.9300  178.9990  141.6240 C   0  0  0  0  0  3  0  0  0  0  0  0
  186.5860  178.1510  142.0870 C   0  0  0  0  0  0  0  0  0  0  0  0
  188.2750  177.8110  139.8680 C   0  0  0  0  0  0  0  0  0  0  0  0
  188.6810  179.6970  137.2180 C   0  0  0  0  0  1  0  0  0  0  0  0
  188.9700  177.7250  138.6240 N   0  0  0  0  0  0  0  0  0  0  0  0
  191.7270  175.7390  137.3390 C   0  0  0  0  0  2  0  0  0  0  0  0
  192.2280  177.5030  140.1580 O   0  0  0  0  0  0  0  0  0  0  0  0
  184.8040  178.8420  140.5520 C   0  0  0  0  0  3  0  0  0  0  0  0
  186.1210  178.4190  140.7700 C   0  0  0  0  0  0  0  0  0  0  0  0
  191.0880  176.9800  140.2920 C   0  0  0  0  0  0  0  0  0  0  0  0
  190.3780  178.2350  145.0880 C   0  0  0  0  0  2  0  0  0  0  0  0
  190.1640  176.7540  147.0570 C   0  0  0  0  0  1  0  0  0  0  0  0
  189.4320  177.7290  146.1590 C   0  0  0  0  0  2  0  0  0  0  0  0
  1  5  1  0  0  0  0
  2 16  1  0  0  0  0
  3 17  1  0  0  0  0
  4 12  1  0  0  0  0
  4  1  2  0  0  0  0
  5 11  1  0  0  0  0
  7 15  1  6  0  0  0
  7 27  1  0  0  0  0
  8  6  2  0  0  0  0
  8 11  1  0  0  0  0
  9 14  1  6  0  0  0
  9 22  1  0  0  0  0
  9  7  1  0  0  0  0
 10 21  1  1  0  0  0
 10  3  1  0  0  0  0
 10 22  1  0  0  0  0
 11 28  1  0  0  0  0
 12  8  1  0  0  0  0
 13  2  1  0  0  0  0
 14 23  1  0  0  0  0
 17 20  2  0  0  0  0
 17 26  1  0  0  0  0
 18 13  2  0  0  0  0
 19  1  1  0  0  0  0
 19  2  2  0  0  0  0
 20  4  1  0  0  0  0
 22 20  1  0  0  0  0
 23 15  1  0  0  0  0
 24 27  2  0  0  0  0
 25 26  2  0  0  0  0
 25 18  1  0  0  0  0
 26 19  1  0  0  0  0
 27 12  1  0  0  0  0
 28 30  1  0  0  0  0
 30 29  1  0  0  0  0
M  END
>  <MODEL>
5

>  <REMARK>
 VINA RESULT:      -8.2      3.046      7.192
  Name = 
  2 active torsions:
  status: ('A' for Active; 'I' for Inactive)
    1  A    between atoms: N_11  and  C_28
    2  A    between atoms: C_28  and  C_30
                            x       y       z     vdW  Elec       q    Type
                         _______ _______ _______ _____ _____    ______ ____

>  <TORSDO>
F 2

$$$$
=
 OpenBabel11122410233D

 30 35  0  0  1  0  0  0  0  0999 V2000
  185.9780  178.2150  142.0430 C   0  0  0  0  0  0  0  0  0  0  0  0
  185.3010  178.4110  144.4400 C   0  0  0  0  0  0  0  0  0  0  0  0
  182.0350  179.1150  140.6960 C   0  0  0  0  0  2  0  0  0  0  0  0
  185.6150  178.2460  140.6680 C   0  0  0  0  0  0  0  0  0  0  0  0
  187.4060  177.8940  142.3980 C   0  0  0  0  0  2  0  0  0  0  0  0
  188.9160  178.5840  139.1800 O   0  0  0  0  0  0  0  0  0  0  0  0
  185.2770  176.9740  137.9010 C   0  0  1  0  0  3  0  0  0  0  0  0
  188.0100  178.4290  140.0460 C   0  0  0  0  0  0  0  0  0  0  0  0
  183.8630  177.4980  138.0470 C   0  0  2  0  0  3  0  0  0  0  0  0
  182.3560  179.1420  139.1940 C   0  0  1  0  0  3  0  0  0  0  0  0
  188.3360  178.4710  141.4390 N   0  0  0  0  0  0  0  0  0  0  0  0
  186.6450  178.2020  139.6510 N   0  0  0  0  0  0  0  0  0  0  0  0
  184.3050  178.6740  145.3860 C   0  0  0  0  0  3  0  0  0  0  0  0
  183.5420  177.9630  136.6650 C   0  0  0  0  0  2  0  0  0  0  0  0
  185.4620  176.5430  136.5710 O   0  0  0  0  0  0  0  0  0  0  0  0
  186.5460  178.1390  144.9020 F   0  0  0  0  0  0  0  0  0  0  0  0
  183.3400  178.7600  141.3110 C   0  0  0  0  0  0  0  0  0  0  0  0
  183.0040  178.9690  144.9860 C   0  0  0  0  0  3  0  0  0  0  0  0
  184.9980  178.4410  143.0550 C   0  0  0  0  0  0  0  0  0  0  0  0
  184.2630  178.4760  140.3440 C   0  0  0  0  0  0  0  0  0  0  0  0
  182.3560  180.5780  138.7040 C   0  0  0  0  0  1  0  0  0  0  0  0
  183.6950  178.5660  139.0380 N   0  0  0  0  0  0  0  0  0  0  0  0
  184.3860  177.0460  135.8110 C   0  0  0  0  0  2  0  0  0  0  0  0
  186.8920  178.6600  137.3680 O   0  0  0  0  0  0  0  0  0  0  0  0
  182.6830  179.0010  143.6320 C   0  0  0  0  0  3  0  0  0  0  0  0
  183.6620  178.7370  142.6670 C   0  0  0  0  0  0  0  0  0  0  0  0
  186.3210  177.9860  138.2690 C   0  0  0  0  0  0  0  0  0  0  0  0
  189.6790  178.8040  141.8930 C   0  0  0  0  0  2  0  0  0  0  0  0
  191.0190  179.0390  143.9580 C   0  0  0  0  0  1  0  0  0  0  0  0
  189.9030  178.2630  143.2920 C   0  0  0  0  0  2  0  0  0  0  0  0
  1  5  1  0  0  0  0
  1 19  1  0  0  0  0
  2 16  1  0  0  0  0
  2 13  1  0  0  0  0
  3 17  1  0  0  0  0
  4  1  2  0  0  0  0
  6  8  2  0  0  0  0
  7 15  1  6  0  0  0
  7  9  1  0  0  0  0
  7 27  1  0  0  0  0
  8 11  1  0  0  0  0
  9 14  1  6  0  0  0
  9 22  1  0  0  0  0
 10 21  1  1  0  0  0
 10  3  1  0  0  0  0
 11 28  1  0  0  0  0
 11  5  1  0  0  0  0
 12  8  1  0  0  0  0
 12  4  1  0  0  0  0
 17 26  1  0  0  0  0
 18 13  2  0  0  0  0
 19  2  2  0  0  0  0
 20  4  1  0  0  0  0
 20 17  2  0  0  0  0
 22 10  1  0  0  0  0
 22 20  1  0  0  0  0
 23 15  1  0  0  0  0
 23 14  1  0  0  0  0
 24 27  2  0  0  0  0
 25 18  1  0  0  0  0
 26 19  1  0  0  0  0
 26 25  2  0  0  0  0
 27 12  1  0  0  0  0
 28 30  1  0  0  0  0
 30 29  1  0  0  0  0
M  END
>  <MODEL>
6

>  <REMARK>
 VINA RESULT:      -7.7      3.428      6.234
  Name = 
  2 active torsions:
  status: ('A' for Active; 'I' for Inactive)
    1  A    between atoms: N_11  and  C_28
    2  A    between atoms: C_28  and  C_30
                            x       y       z     vdW  Elec       q    Type
                         _______ _______ _______ _____ _____    ______ ____

>  <TORSDO>
F 2

$$$$
=
 OpenBabel11122410233D

 30 35  0  0  1  0  0  0  0  0999 V2000
  186.0130  178.6260  143.9420 C   0  0  0  0  0  0  0  0  0  0  0  0
  185.6110  178.8320  146.4010 C   0  0  0  0  0  0  0  0  0  0  0  0
  189.8310  176.8340  144.5600 C   0  0  0  0  0  2  0  0  0  0  0  0
  186.8750  178.2480  142.8760 C   0  0  0  0  0  0  0  0  0  0  0  0
  184.6810  179.2420  143.6020 C   0  0  0  0  0  2  0  0  0  0  0  0
  184.4610  178.1450  140.1570 O   0  0  0  0  0  0  0  0  0  0  0  0
  188.5760  178.8370  140.3980 C   0  0  1  0  0  3  0  0  0  0  0  0
  184.9560  178.3290  141.3040 C   0  0  0  0  0  0  0  0  0  0  0  0
  189.6480  178.1330  141.2050 C   0  0  2  0  0  3  0  0  0  0  0  0
  190.1380  176.5450  143.0830 C   0  0  1  0  0  3  0  0  0  0  0  0
  184.1020  178.6350  142.4120 N   0  0  0  0  0  0  0  0  0  0  0  0
  186.3770  178.2440  141.5160 N   0  0  0  0  0  0  0  0  0  0  0  0
  186.0550  178.6150  147.7090 C   0  0  0  0  0  3  0  0  0  0  0  0
  190.3730  177.3420  140.1670 C   0  0  0  0  0  2  0  0  0  0  0  0
  189.0440  179.0030  139.0780 O   0  0  0  0  0  0  0  0  0  0  0  0
  184.3880  179.3940  146.2400 F   0  0  0  0  0  0  0  0  0  0  0  0
  188.5130  177.5180  144.5000 C   0  0  0  0  0  0  0  0  0  0  0  0
  187.2990  178.0350  147.9520 C   0  0  0  0  0  3  0  0  0  0  0  0
  186.4240  178.4620  145.2990 C   0  0  0  0  0  0  0  0  0  0  0  0
  188.1480  177.7390  143.2010 C   0  0  0  0  0  0  0  0  0  0  0  0
  189.9940  175.0580  142.8200 C   0  0  0  0  0  1  0  0  0  0  0  0
  189.1500  177.2840  142.2930 N   0  0  0  0  0  0  0  0  0  0  0  0
  190.1820  178.1830  138.9270 C   0  0  0  0  0  2  0  0  0  0  0  0
  186.9590  177.3620  139.4270 O   0  0  0  0  0  0  0  0  0  0  0  0
  188.1150  177.6670  146.8860 C   0  0  0  0  0  3  0  0  0  0  0  0
  187.6930  177.8780  145.5680 C   0  0  0  0  0  0  0  0  0  0  0  0
  187.2660  178.1080  140.3970 C   0  0  0  0  0  0  0  0  0  0  0  0
  182.6530  178.6280  142.2750 C   0  0  0  0  0  2  0  0  0  0  0  0
  180.5390  178.6280  143.5590 C   0  0  0  0  0  1  0  0  0  0  0  0
  182.0050  179.0030  143.5950 C   0  0  0  0  0  2  0  0  0  0  0  0
  1 19  1  0  0  0  0
  2 13  1  0  0  0  0
  4 20  1  0  0  0  0
  4  1  2  0  0  0  0
  5  1  1  0  0  0  0
  6  8  2  0  0  0  0
  7 15  1  6  0  0  0
  7  9  1  0  0  0  0
  8 12  1  0  0  0  0
  8 11  1  0  0  0  0
  9 14  1  6  0  0  0
  9 22  1  0  0  0  0
 10 21  1  1  0  0  0
 10  3  1  0  0  0  0
 11  5  1  0  0  0  0
 12  4  1  0  0  0  0
 13 18  2  0  0  0  0
 16  2  1  0  0  0  0
 17  3  1  0  0  0  0
 17 26  1  0  0  0  0
 19 26  1  0  0  0  0
 19  2  2  0  0  0  0
 20 17  2  0  0  0  0
 22 10  1  0  0  0  0
 22 20  1  0  0  0  0
 23 15  1  0  0  0  0
 23 14  1  0  0  0  0
 24 27  2  0  0  0  0
 25 18  1  0  0  0  0
 26 25  2  0  0  0  0
 27  7  1  0  0  0  0
 27 12  1  0  0  0  0
 28 11  1  0  0  0  0
 28 30  1  0  0  0  0
 29 30  1  0  0  0  0
M  END
>  <MODEL>
7

>  <REMARK>
 VINA RESULT:      -7.7      2.320      5.747
  Name = 
  2 active torsions:
  status: ('A' for Active; 'I' for Inactive)
    1  A    between atoms: N_11  and  C_28
    2  A    between atoms: C_28  and  C_30
                            x       y       z     vdW  Elec       q    Type
                         _______ _______ _______ _____ _____    ______ ____

>  <TORSDO>
F 2

$$$$
=
 OpenBabel11122410233D

 30 35  0  0  1  0  0  0  0  0999 V2000
  188.3410  177.5310  140.0740 C   0  0  0  0  0  0  0  0  0  0  0  0
  189.7930  176.9780  138.1170 C   0  0  0  0  0  0  0  0  0  0  0  0
  191.6810  177.6180  142.7220 C   0  0  0  0  0  2  0  0  0  0  0  0
  188.2200  177.7790  141.4690 C   0  0  0  0  0  0  0  0  0  0  0  0
  187.0910  177.5350  139.2350 C   0  0  0  0  0  2  0  0  0  0  0  0
  184.9300  179.3310  141.5210 O   0  0  0  0  0  0  0  0  0  0  0  0
  187.1790  177.1380  144.2780 C   0  0  1  0  0  3  0  0  0  0  0  0
  185.9630  178.7420  141.0950 C   0  0  0  0  0  0  0  0  0  0  0  0
  188.6520  177.2110  144.6300 C   0  0  2  0  0  3  0  0  0  0  0  0
  190.9110  178.0750  143.9710 C   0  0  1  0  0  3  0  0  0  0  0  0
  186.1480  178.5470  139.6890 N   0  0  0  0  0  0  0  0  0  0  0  0
  186.9610  178.2510  142.0090 N   0  0  0  0  0  0  0  0  0  0  0  0
  191.0720  176.7370  137.6040 C   0  0  0  0  0  3  0  0  0  0  0  0
  188.6360  177.8780  145.9660 C   0  0  0  0  0  2  0  0  0  0  0  0
  186.4340  177.0910  145.4740 O   0  0  0  0  0  0  0  0  0  0  0  0
  188.7550  176.9540  137.2460 F   0  0  0  0  0  0  0  0  0  0  0  0
  190.6120  177.4960  141.6980 C   0  0  0  0  0  0  0  0  0  0  0  0
  192.1880  176.7530  138.4380 C   0  0  0  0  0  3  0  0  0  0  0  0
  189.6150  177.2440  139.4980 C   0  0  0  0  0  0  0  0  0  0  0  0
  189.3840  177.7030  142.2600 C   0  0  0  0  0  0  0  0  0  0  0  0
  191.2330  179.5310  144.2560 C   0  0  0  0  0  1  0  0  0  0  0  0
  189.4850  177.9360  143.6650 N   0  0  0  0  0  0  0  0  0  0  0  0
  187.3030  177.4460  146.5280 C   0  0  0  0  0  2  0  0  0  0  0  0
  186.1460  179.2730  143.9510 O   0  0  0  0  0  0  0  0  0  0  0  0
  192.0360  177.0090  139.7980 C   0  0  0  0  0  3  0  0  0  0  0  0
  190.7660  177.2490  140.3350 C   0  0  0  0  0  0  0  0  0  0  0  0
  186.7200  178.2810  143.4240 C   0  0  0  0  0  0  0  0  0  0  0  0
  185.2240  179.1160  138.7180 C   0  0  0  0  0  2  0  0  0  0  0  0
  183.2950  177.5680  138.7440 C   0  0  0  0  0  1  0  0  0  0  0  0
  184.5160  178.0080  137.9640 C   0  0  0  0  0  2  0  0  0  0  0  0
  1  4  1  0  0  0  0
  2 19  1  0  0  0  0
  3 10  1  0  0  0  0
  4 12  1  0  0  0  0
  4 20  2  0  0  0  0
  5 11  1  0  0  0  0
  5  1  1  0  0  0  0
  7 27  1  1  0  0  0
  7  9  1  0  0  0  0
  7 15  1  0  0  0  0
  8  6  2  0  0  0  0
  8 12  1  0  0  0  0
  9 14  1  1  0  0  0
 10 21  1  6  0  0  0
 11  8  1  0  0  0  0
 12 27  1  0  0  0  0
 13  2  2  0  0  0  0
 13 18  1  0  0  0  0
 14 23  1  0  0  0  0
 15 23  1  0  0  0  0
 16  2  1  0  0  0  0
 17 20  1  0  0  0  0
 17  3  1  0  0  0  0
 18 25  2  0  0  0  0
 19  1  2  0  0  0  0
 19 26  1  0  0  0  0
 20 22  1  0  0  0  0
 22 10  1  0  0  0  0
 22  9  1  0  0  0  0
 25 26  1  0  0  0  0
 26 17  2  0  0  0  0
 27 24  2  0  0  0  0
 28 11  1  0  0  0  0
 30 28  1  0  0  0  0
 30 29  1  0  0  0  0
M  END
>  <MODEL>
8

>  <REMARK>
 VINA RESULT:      -7.6      2.604      5.245
  Name = 
  2 active torsions:
  status: ('A' for Active; 'I' for Inactive)
    1  A    between atoms: N_11  and  C_28
    2  A    between atoms: C_28  and  C_30
                            x       y       z     vdW  Elec       q    Type
                         _______ _______ _______ _____ _____    ______ ____

>  <TORSDO>
F 2

$$$$
=
 OpenBabel11122410233D

 30 35  0  0  1  0  0  0  0  0999 V2000
  185.3950  178.1940  142.4950 C   0  0  0  0  0  0  0  0  0  0  0  0
  186.3630  178.2320  144.7990 C   0  0  0  0  0  0  0  0  0  0  0  0
  181.4630  178.9280  143.9690 C   0  0  0  0  0  2  0  0  0  0  0  0
  184.2520  178.2710  141.6530 C   0  0  0  0  0  0  0  0  0  0  0  0
  186.7370  177.9390  141.8600 C   0  0  0  0  0  2  0  0  0  0  0  0
  185.8940  178.8730  138.4640 O   0  0  0  0  0  0  0  0  0  0  0  0
  182.2780  177.1190  139.6130 C   0  0  1  0  0  3  0  0  0  0  0  0
  185.7300  178.6240  139.6910 C   0  0  0  0  0  0  0  0  0  0  0  0
  181.2570  177.5520  140.6460 C   0  0  2  0  0  3  0  0  0  0  0  0
  180.7750  179.0470  142.6000 C   0  0  1  0  0  3  0  0  0  0  0  0
  186.8550  178.6160  140.5760 N   0  0  0  0  0  0  0  0  0  0  0  0
  184.4210  178.3370  140.2160 N   0  0  0  0  0  0  0  0  0  0  0  0
  186.1730  178.3900  146.1760 C   0  0  0  0  0  3  0  0  0  0  0  0
  180.1360  178.0650  139.8040 C   0  0  0  0  0  2  0  0  0  0  0  0
  181.5980  176.7650  138.4290 O   0  0  0  0  0  0  0  0  0  0  0  0
  187.6270  178.0100  144.3640 F   0  0  0  0  0  0  0  0  0  0  0  0
  182.8710  178.6200  143.6090 C   0  0  0  0  0  0  0  0  0  0  0  0
  184.9030  178.6280  146.6960 C   0  0  0  0  0  3  0  0  0  0  0  0
  185.2600  178.3120  143.9110 C   0  0  0  0  0  0  0  0  0  0  0  0
  182.9910  178.4370  142.2590 C   0  0  0  0  0  0  0  0  0  0  0  0
  180.4470  180.5030  142.3260 C   0  0  0  0  0  1  0  0  0  0  0  0
  181.7300  178.5590  141.6020 N   0  0  0  0  0  0  0  0  0  0  0  0
  180.2750  177.2420  138.5450 C   0  0  0  0  0  2  0  0  0  0  0  0
  183.1800  178.9200  138.3180 O   0  0  0  0  0  0  0  0  0  0  0  0
  183.8050  178.7080  145.8440 C   0  0  0  0  0  3  0  0  0  0  0  0
  183.9700  178.5490  144.4630 C   0  0  0  0  0  0  0  0  0  0  0  0
  183.3080  178.1710  139.3250 C   0  0  0  0  0  0  0  0  0  0  0  0
  188.1810  179.0030  140.1190 C   0  0  0  0  0  2  0  0  0  0  0  0
  189.1610  177.1240  138.8430 C   0  0  0  0  0  1  0  0  0  0  0  0
  189.1220  177.8160  140.1890 C   0  0  0  0  0  2  0  0  0  0  0  0
  1 19  1  0  0  0  0
  2 13  1  0  0  0  0
  4 20  1  0  0  0  0
  4  1  2  0  0  0  0
  5  1  1  0  0  0  0
  6  8  2  0  0  0  0
  7 15  1  6  0  0  0
  7  9  1  0  0  0  0
  8 12  1  0  0  0  0
  8 11  1  0  0  0  0
  9 14  1  6  0  0  0
  9 22  1  0  0  0  0
 10 21  1  6  0  0  0
 10  3  1  0  0  0  0
 11  5  1  0  0  0  0
 12  4  1  0  0  0  0
 13 18  2  0  0  0  0
 15 23  1  0  0  0  0
 16  2  1  0  0  0  0
 17  3  1  0  0  0  0
 17 26  1  0  0  0  0
 19 26  1  0  0  0  0
 19  2  2  0  0  0  0
 20 17  2  0  0  0  0
 22 20  1  0  0  0  0
 22 10  1  0  0  0  0
 23 14  1  0  0  0  0
 24 27  2  0  0  0  0
 25 18  1  0  0  0  0
 26 25  2  0  0  0  0
 27  7  1  0  0  0  0
 27 12  1  0  0  0  0
 28 30  1  0  0  0  0
 28 11  1  0  0  0  0
 29 30  1  0  0  0  0
M  END
>  <MODEL>
9

>  <REMARK>
 VINA RESULT:      -7.5      3.138      5.133
  Name = 
  2 active torsions:
  status: ('A' for Active; 'I' for Inactive)
    1  A    between atoms: N_11  and  C_28
    2  A    between atoms: C_28  and  C_30
                            x       y       z     vdW  Elec       q    Type
                         _______ _______ _______ _____ _____    ______ ____

>  <TORSDO>
F 2

$$$$
