=
 OpenBabel11122412053D

 34 40  0  0  1  0  0  0  0  0999 V2000
  186.3780  178.6000  140.6010 C   0  0  0  0  0  0  0  0  0  0  0  0
  184.8060  178.7670  138.6190 C   0  0  0  0  0  2  0  0  0  0  0  0
  187.3400  177.0410  146.9990 C   0  0  0  0  0  3  0  0  0  0  0  0
  187.7070  178.0960  142.5340 C   0  0  0  0  0  0  0  0  0  0  0  0
  186.6480  177.3390  144.6600 N   0  0  1  0  0  0  0  0  0  0  0  0
  189.4620  177.8060  145.8970 C   0  0  0  0  0  2  0  0  0  0  0  0
  183.9620  179.2810  140.8340 C   0  0  2  0  0  3  0  0  0  0  0  0
  181.0940  177.8420  141.4700 C   0  0  0  0  0  2  0  0  0  0  0  0
  185.3550  177.4340  143.9480 C   0  0  0  0  0  2  0  0  0  0  0  0
  189.1140  177.3590  144.4850 C   0  0  0  0  0  2  0  0  0  0  0  0
  183.9420  178.4580  142.1420 C   0  0  1  0  0  3  0  0  0  0  0  0
  183.3180  179.0510  138.4880 C   0  0  0  0  0  2  0  0  0  0  0  0
  187.8120  178.0160  144.0350 C   0  0  1  0  0  3  0  0  0  0  0  0
  188.6790  177.0470  146.9280 C   0  0  0  0  0  3  0  0  0  0  0  0
  181.9320  177.7920  140.1800 C   0  0  1  0  0  3  0  0  0  0  0  0
  186.4680  178.4050  141.9820 C   0  0  0  0  0  0  0  0  0  0  0  0
  186.4320  177.7760  146.0470 C   0  0  2  0  0  3  0  0  0  0  0  0
  185.2830  178.5460  142.8940 C   0  0  2  0  0  3  0  0  0  0  0  0
  188.6880  178.1490  140.3800 C   0  0  0  0  0  3  0  0  0  0  0  0
  181.4330  179.0090  142.4000 C   0  0  0  0  0  2  0  0  0  0  0  0
  188.7980  177.9860  141.7260 N   0  0  0  0  0  0  0  0  0  0  0  0
  182.7970  178.8640  143.0800 C   0  0  0  0  0  2  0  0  0  0  0  0
  182.7530  179.0730  139.9060 C   0  0  1  0  0  3  0  0  0  0  0  0
  187.4850  178.4520  139.8240 N   0  0  0  0  0  0  0  0  0  0  0  0
  185.1150  178.9380  140.0220 N   0  0  0  0  0  0  0  0  0  0  0  0
  186.4770  179.2980  146.2290 C   0  0  0  0  0  2  0  0  0  0  0  0
  186.1450  179.6720  147.6590 C   0  0  0  0  0  1  0  0  0  0  0  0
  182.7450  176.6520  140.1840 O   0  0  0  0  0  0  0  0  0  0  0  0
  181.9500  175.6340  139.6540 C   0  0  0  0  0  2  0  0  0  0  0  0
  183.6950  173.8790  137.2140 C   0  0  0  0  0  2  0  0  0  0  0  0
  181.4560  174.3130  137.6010 C   0  0  0  0  0  2  0  0  0  0  0  0
  182.2010  175.5070  138.1620 C   0  0  2  0  0  3  0  0  0  0  0  0
  182.3600  173.6120  136.7030 N   0  0  0  0  0  2  0  0  0  0  0  0
  183.6600  175.2210  137.9120 C   0  0  0  0  0  2  0  0  0  0  0  0
  1 16  1  0  0  0  0
  2 25  1  0  0  0  0
  4 13  1  0  0  0  0
  5  9  1  6  0  0  0
  5 17  1  0  0  0  0
  6 14  1  0  0  0  0
  7 25  1  6  0  0  0
  7 11  1  0  0  0  0
  8 20  1  0  0  0  0
 10  6  1  0  0  0  0
 11 18  1  0  0  0  0
 11 22  1  1  0  0  0
 12  2  1  0  0  0  0
 13 10  1  6  0  0  0
 13  5  1  0  0  0  0
 14  3  2  0  0  0  0
 15 28  1  1  0  0  0
 15  8  1  0  0  0  0
 16  4  2  0  0  0  0
 16 18  1  0  0  0  0
 17 26  1  6  0  0  0
 17  3  1  0  0  0  0
 18  9  1  1  0  0  0
 19 21  2  0  0  0  0
 20 22  1  0  0  0  0
 21  4  1  0  0  0  0
 23 12  1  6  0  0  0
 23 15  1  0  0  0  0
 23  7  1  0  0  0  0
 24 19  1  0  0  0  0
 24  1  2  0  0  0  0
 25  1  1  0  0  0  0
 26 27  1  0  0  0  0
 29 28  1  0  0  0  0
 30 34  1  0  0  0  0
 31 32  1  0  0  0  0
 32 29  1  1  0  0  0
 33 30  1  0  0  0  0
 33 31  1  0  0  0  0
 34 32  1  0  0  0  0
M  END
>  <MODEL>
1

>  <REMARK>
 VINA RESULT:      -7.5      0.000      0.000
  Name = 
  4 active torsions:
  status: ('A' for Active; 'I' for Inactive)
    1  A    between atoms: C_6  and  C_19
    2  A    between atoms: C_17  and  O_28
    3  A    between atoms: O_28  and  C_29
    4  A    between atoms: C_29  and  C_32
                            x       y       z     vdW  Elec       q    Type
                         _______ _______ _______ _____ _____    ______ ____

>  <TORSDO>
F 4

$$$$
=
 OpenBabel11122412053D

 34 40  0  0  1  0  0  0  0  0999 V2000
  186.2810  178.3810  139.4740 C   0  0  0  0  0  0  0  0  0  0  0  0
  188.1720  177.7380  137.9130 C   0  0  0  0  0  2  0  0  0  0  0  0
  179.8930  177.7790  141.2400 C   0  0  0  0  0  3  0  0  0  0  0  0
  184.4100  178.6120  140.9590 C   0  0  0  0  0  0  0  0  0  0  0  0
  182.1960  177.6080  140.4040 N   0  0  1  0  0  0  0  0  0  0  0  0
  181.1480  179.3050  142.7880 C   0  0  0  0  0  2  0  0  0  0  0  0
  185.9340  177.9800  137.0100 C   0  0  2  0  0  3  0  0  0  0  0  0
  185.0720  175.4980  135.0600 C   0  0  0  0  0  2  0  0  0  0  0  0
  182.8350  177.0990  139.1700 C   0  0  0  0  0  2  0  0  0  0  0  0
  182.5170  178.6660  142.6150 C   0  0  0  0  0  2  0  0  0  0  0  0
  184.5940  177.3090  137.3910 C   0  0  1  0  0  3  0  0  0  0  0  0
  188.2270  177.3520  136.4430 C   0  0  0  0  0  2  0  0  0  0  0  0
  182.9160  178.6770  141.1420 C   0  0  1  0  0  3  0  0  0  0  0  0
  180.0420  178.3510  142.4440 C   0  0  0  0  0  3  0  0  0  0  0  0
  186.4060  175.7300  135.7920 C   0  0  1  0  0  3  0  0  0  0  0  0
  184.9010  178.3280  139.6890 C   0  0  0  0  0  0  0  0  0  0  0  0
  180.8180  177.9970  140.0710 C   0  0  2  0  0  3  0  0  0  0  0  0
  183.9270  178.0070  138.5910 C   0  0  2  0  0  3  0  0  0  0  0  0
  186.6190  178.9430  141.7450 C   0  0  0  0  0  3  0  0  0  0  0  0
  184.2120  176.7540  134.8990 C   0  0  0  0  0  2  0  0  0  0  0  0
  185.2760  178.9270  141.9620 N   0  0  0  0  0  0  0  0  0  0  0  0
  183.6080  177.2460  136.2170 C   0  0  0  0  0  2  0  0  0  0  0  0
  186.7800  177.2190  135.9740 C   0  0  1  0  0  3  0  0  0  0  0  0
  187.1150  178.6700  140.5090 N   0  0  0  0  0  0  0  0  0  0  0  0
  186.7970  178.1110  138.1690 N   0  0  0  0  0  0  0  0  0  0  0  0
  180.7020  179.4010  139.4650 C   0  0  0  0  0  2  0  0  0  0  0  0
  180.2670  179.3190  138.0160 C   0  0  0  0  0  1  0  0  0  0  0  0
  186.4040  175.0480  137.0140 O   0  0  0  0  0  0  0  0  0  0  0  0
  187.2180  173.9320  136.8120 C   0  0  0  0  0  2  0  0  0  0  0  0
  184.0630  172.4860  136.9940 C   0  0  0  0  0  2  0  0  0  0  0  0
  186.0280  171.9420  135.9030 C   0  0  0  0  0  2  0  0  0  0  0  0
  186.4550  172.6670  137.1630 C   0  0  2  0  0  3  0  0  0  0  0  0
  184.6500  171.5150  136.0850 N   0  0  0  0  0  2  0  0  0  0  0  0
  185.1730  173.0230  137.8720 C   0  0  0  0  0  2  0  0  0  0  0  0
  1 16  2  0  0  0  0
  1 24  1  0  0  0  0
  2 25  1  0  0  0  0
  3 14  2  0  0  0  0
  4 13  1  0  0  0  0
  4 21  2  0  0  0  0
  5  9  1  6  0  0  0
  5 13  1  0  0  0  0
  7 11  1  0  0  0  0
  7 25  1  1  0  0  0
  8 15  1  0  0  0  0
 10  6  1  0  0  0  0
 11 22  1  6  0  0  0
 11 18  1  0  0  0  0
 12  2  1  0  0  0  0
 13 10  1  1  0  0  0
 14  6  1  0  0  0  0
 15 23  1  0  0  0  0
 15 28  1  1  0  0  0
 16  4  1  0  0  0  0
 17 26  1  1  0  0  0
 17  5  1  0  0  0  0
 17  3  1  0  0  0  0
 18  9  1  1  0  0  0
 18 16  1  0  0  0  0
 19 21  1  0  0  0  0
 20  8  1  0  0  0  0
 20 22  1  0  0  0  0
 23 12  1  1  0  0  0
 23  7  1  0  0  0  0
 24 19  2  0  0  0  0
 25  1  1  0  0  0  0
 27 26  1  0  0  0  0
 29 28  1  0  0  0  0
 30 34  1  0  0  0  0
 31 33  1  0  0  0  0
 31 32  1  0  0  0  0
 32 29  1  6  0  0  0
 32 34  1  0  0  0  0
 33 30  1  0  0  0  0
M  END
>  <MODEL>
2

>  <REMARK>
 VINA RESULT:      -6.5      3.009      6.064
  Name = 
  4 active torsions:
  status: ('A' for Active; 'I' for Inactive)
    1  A    between atoms: C_6  and  C_19
    2  A    between atoms: C_17  and  O_28
    3  A    between atoms: O_28  and  C_29
    4  A    between atoms: C_29  and  C_32
                            x       y       z     vdW  Elec       q    Type
                         _______ _______ _______ _____ _____    ______ ____

>  <TORSDO>
F 4

$$$$
=
 OpenBabel11122412053D

 34 40  0  0  1  0  0  0  0  0999 V2000
  183.1290  178.6960  141.4300 C   0  0  0  0  0  0  0  0  0  0  0  0
  180.6560  179.2270  141.6010 C   0  0  0  0  0  2  0  0  0  0  0  0
  188.6280  178.2860  137.7040 C   0  0  0  0  0  3  0  0  0  0  0  0
  185.4950  178.5210  141.0660 C   0  0  0  0  0  0  0  0  0  0  0  0
  186.4620  178.7230  138.7770 N   0  0  1  0  0  0  0  0  0  0  0  0
  189.0820  177.7010  140.1020 C   0  0  0  0  0  2  0  0  0  0  0  0
  181.4950  178.1720  139.5840 C   0  0  2  0  0  3  0  0  0  0  0  0
  180.3950  179.5940  136.8500 C   0  0  0  0  0  2  0  0  0  0  0  0
  185.0760  178.9380  138.3060 C   0  0  0  0  0  2  0  0  0  0  0  0
  187.9860  178.5580  140.7170 C   0  0  0  0  0  2  0  0  0  0  0  0
  182.6070  178.5880  138.5930 C   0  0  1  0  0  3  0  0  0  0  0  0
  179.4950  179.1120  140.6260 C   0  0  0  0  0  2  0  0  0  0  0  0
  186.6280  178.1620  140.1420 C   0  0  1  0  0  3  0  0  0  0  0  0
  189.4740  178.1940  138.7400 C   0  0  0  0  0  3  0  0  0  0  0  0
  180.0730  179.9430  138.3150 C   0  0  1  0  0  3  0  0  0  0  0  0
  184.2000  178.4830  140.5580 C   0  0  0  0  0  0  0  0  0  0  0  0
  187.1660  177.9270  137.7610 C   0  0  2  0  0  3  0  0  0  0  0  0
  184.0030  178.1820  139.0990 C   0  0  2  0  0  3  0  0  0  0  0  0
  184.6410  179.0070  143.2200 C   0  0  0  0  0  3  0  0  0  0  0  0
  180.9610  178.1870  136.6450 C   0  0  0  0  0  2  0  0  0  0  0  0
  185.6920  178.7690  142.3910 N   0  0  0  0  0  0  0  0  0  0  0  0
  182.3850  178.0240  137.1830 C   0  0  0  0  0  2  0  0  0  0  0  0
  180.0950  178.7320  139.2750 C   0  0  1  0  0  3  0  0  0  0  0  0
  183.3690  178.9710  142.7400 N   0  0  0  0  0  0  0  0  0  0  0  0
  181.7930  178.6400  140.9250 N   0  0  0  0  0  0  0  0  0  0  0  0
  186.9210  176.4180  137.8800 C   0  0  0  0  0  2  0  0  0  0  0  0
  186.2310  175.8930  136.6380 C   0  0  0  0  0  1  0  0  0  0  0  0
  180.9200  180.9650  138.7580 O   0  0  0  0  0  0  0  0  0  0  0  0
  181.1680  181.7490  137.6290 C   0  0  0  0  0  2  0  0  0  0  0  0
  180.8550  184.9130  136.2270 C   0  0  0  0  0  2  0  0  0  0  0  0
  179.3540  183.3470  137.0290 C   0  0  0  0  0  2  0  0  0  0  0  0
  180.6180  183.1480  137.8420 C   0  0  2  0  0  3  0  0  0  0  0  0
  179.4350  184.6570  136.4030 N   0  0  0  0  0  2  0  0  0  0  0  0
  181.5950  184.1680  137.3150 C   0  0  0  0  0  2  0  0  0  0  0  0
  1 24  1  0  0  0  0
  3 17  1  0  0  0  0
  3 14  2  0  0  0  0
  4 21  2  0  0  0  0
  5  9  1  6  0  0  0
  5 13  1  0  0  0  0
  6 10  1  0  0  0  0
  7 25  1  1  0  0  0
  8 15  1  0  0  0  0
 11 22  1  6  0  0  0
 11 18  1  0  0  0  0
 11  7  1  0  0  0  0
 12  2  1  0  0  0  0
 13 10  1  1  0  0  0
 13  4  1  0  0  0  0
 14  6  1  0  0  0  0
 15 28  1  1  0  0  0
 15 23  1  0  0  0  0
 16  4  1  0  0  0  0
 16  1  2  0  0  0  0
 17 26  1  1  0  0  0
 17  5  1  0  0  0  0
 18  9  1  6  0  0  0
 18 16  1  0  0  0  0
 20  8  1  0  0  0  0
 20 22  1  0  0  0  0
 21 19  1  0  0  0  0
 23  7  1  0  0  0  0
 23 12  1  1  0  0  0
 24 19  2  0  0  0  0
 25  1  1  0  0  0  0
 25  2  1  0  0  0  0
 27 26  1  0  0  0  0
 29 28  1  0  0  0  0
 30 33  1  0  0  0  0
 30 34  1  0  0  0  0
 31 32  1  0  0  0  0
 32 29  1  6  0  0  0
 33 31  1  0  0  0  0
 34 32  1  0  0  0  0
M  END
>  <MODEL>
3

>  <REMARK>
 VINA RESULT:      -6.5      3.315      6.501
  Name = 
  4 active torsions:
  status: ('A' for Active; 'I' for Inactive)
    1  A    between atoms: C_6  and  C_19
    2  A    between atoms: C_17  and  O_28
    3  A    between atoms: O_28  and  C_29
    4  A    between atoms: C_29  and  C_32
                            x       y       z     vdW  Elec       q    Type
                         _______ _______ _______ _____ _____    ______ ____

>  <TORSDO>
F 4

$$$$
=
 OpenBabel11122412053D

 34 40  0  0  1  0  0  0  0  0999 V2000
  189.9240  177.8910  140.5260 C   0  0  0  0  0  0  0  0  0  0  0  0
  190.1780  177.7730  138.0060 C   0  0  0  0  0  2  0  0  0  0  0  0
  186.0360  177.3100  145.8970 C   0  0  0  0  0  3  0  0  0  0  0  0
  189.4900  177.6700  142.8760 C   0  0  0  0  0  0  0  0  0  0  0  0
  187.1810  177.2570  143.7240 N   0  0  1  0  0  0  0  0  0  0  0  0
  188.4030  177.8720  146.5160 C   0  0  0  0  0  2  0  0  0  0  0  0
  188.1080  178.6280  138.9400 C   0  0  2  0  0  3  0  0  0  0  0  0
  185.4490  177.3370  137.5380 C   0  0  0  0  0  2  0  0  0  0  0  0
  186.7550  177.2590  142.3070 C   0  0  0  0  0  2  0  0  0  0  0  0
  189.0730  177.2200  145.3160 C   0  0  0  0  0  2  0  0  0  0  0  0
  187.1000  178.0140  139.9370 C   0  0  1  0  0  3  0  0  0  0  0  0
  189.2330  178.0520  136.8480 C   0  0  0  0  0  2  0  0  0  0  0  0
  188.5240  177.8180  144.0220 C   0  0  1  0  0  3  0  0  0  0  0  0
  187.0460  177.2890  146.7790 C   0  0  0  0  0  3  0  0  0  0  0  0
  186.9320  177.0820  137.2100 C   0  0  1  0  0  3  0  0  0  0  0  0
  189.0160  177.9060  141.5890 C   0  0  0  0  0  0  0  0  0  0  0  0
  186.1240  177.9030  144.5140 C   0  0  2  0  0  3  0  0  0  0  0  0
  187.5550  178.1990  141.3970 C   0  0  2  0  0  3  0  0  0  0  0  0
  191.6800  177.3830  142.0240 C   0  0  0  0  0  3  0  0  0  0  0  0
  185.1870  178.6280  138.3170 C   0  0  0  0  0  2  0  0  0  0  0  0
  190.8150  177.4260  143.0730 N   0  0  0  0  0  0  0  0  0  0  0  0
  185.6800  178.5710  139.7640 C   0  0  0  0  0  2  0  0  0  0  0  0
  187.8550  178.2960  137.4580 C   0  0  1  0  0  3  0  0  0  0  0  0
  191.2340  177.6130  140.7600 N   0  0  0  0  0  0  0  0  0  0  0  0
  189.4540  178.1520  139.2010 N   0  0  0  0  0  0  0  0  0  0  0  0
  186.2050  179.4340  144.5210 C   0  0  0  0  0  2  0  0  0  0  0  0
  184.9290  180.0360  143.9670 C   0  0  0  0  0  1  0  0  0  0  0  0
  187.3810  175.9460  137.8940 O   0  0  0  0  0  0  0  0  0  0  0  0
  186.8140  174.8640  137.2180 C   0  0  0  0  0  2  0  0  0  0  0  0
  189.4740  174.8840  134.9820 C   0  0  0  0  0  2  0  0  0  0  0  0
  189.2480  174.3370  137.2180 C   0  0  0  0  0  2  0  0  0  0  0  0
  187.9070  174.0200  136.5880 C   0  0  2  0  0  3  0  0  0  0  0  0
  190.2250  174.4410  136.1460 N   0  0  0  0  0  2  0  0  0  0  0  0
  188.0560  174.3790  135.1310 C   0  0  0  0  0  2  0  0  0  0  0  0
  1 24  2  0  0  0  0
  1 16  1  0  0  0  0
  2 25  1  0  0  0  0
  3 14  2  0  0  0  0
  4 21  1  0  0  0  0
  4 13  1  0  0  0  0
  5  9  1  6  0  0  0
  5 13  1  0  0  0  0
  5 17  1  0  0  0  0
  6 14  1  0  0  0  0
  7 25  1  1  0  0  0
  7 11  1  0  0  0  0
  8 20  1  0  0  0  0
 10  6  1  0  0  0  0
 11 22  1  1  0  0  0
 11 18  1  0  0  0  0
 12  2  1  0  0  0  0
 13 10  1  1  0  0  0
 15 23  1  0  0  0  0
 15  8  1  0  0  0  0
 15 28  1  1  0  0  0
 16  4  2  0  0  0  0
 17 26  1  1  0  0  0
 17  3  1  0  0  0  0
 18 16  1  0  0  0  0
 18  9  1  1  0  0  0
 19 21  2  0  0  0  0
 20 22  1  0  0  0  0
 23 12  1  6  0  0  0
 23  7  1  0  0  0  0
 24 19  1  0  0  0  0
 25  1  1  0  0  0  0
 27 26  1  0  0  0  0
 29 28  1  0  0  0  0
 30 34  1  0  0  0  0
 30 33  1  0  0  0  0
 32 31  1  0  0  0  0
 32 29  1  1  0  0  0
 33 31  1  0  0  0  0
 34 32  1  0  0  0  0
M  END
>  <MODEL>
4

>  <REMARK>
 VINA RESULT:      -6.3      3.016      4.415
  Name = 
  4 active torsions:
  status: ('A' for Active; 'I' for Inactive)
    1  A    between atoms: C_6  and  C_19
    2  A    between atoms: C_17  and  O_28
    3  A    between atoms: O_28  and  C_29
    4  A    between atoms: C_29  and  C_32
                            x       y       z     vdW  Elec       q    Type
                         _______ _______ _______ _____ _____    ______ ____

>  <TORSDO>
F 4

$$$$
=
 OpenBabel11122412053D

 34 40  0  0  1  0  0  0  0  0999 V2000
  187.2960  178.2540  140.1700 C   0  0  0  0  0  0  0  0  0  0  0  0
  189.5910  177.6070  139.3080 C   0  0  0  0  0  2  0  0  0  0  0  0
  180.6990  178.3620  139.2970 C   0  0  0  0  0  3  0  0  0  0  0  0
  185.0180  178.5110  140.8800 C   0  0  0  0  0  0  0  0  0  0  0  0
  183.1260  177.9810  139.3450 N   0  0  1  0  0  0  0  0  0  0  0  0
  181.3650  179.3760  141.4940 C   0  0  0  0  0  2  0  0  0  0  0  0
  187.9080  178.3520  137.7270 C   0  0  2  0  0  3  0  0  0  0  0  0
  187.6850  176.4170  135.0980 C   0  0  0  0  0  2  0  0  0  0  0  0
  184.1540  177.6020  138.3510 C   0  0  0  0  0  2  0  0  0  0  0  0
  182.6390  178.5700  141.6960 C   0  0  0  0  0  2  0  0  0  0  0  0
  186.4780  177.8430  137.4320 C   0  0  1  0  0  3  0  0  0  0  0  0
  190.1840  177.4810  137.9130 C   0  0  0  0  0  2  0  0  0  0  0  0
  183.5810  178.7770  140.5130 C   0  0  1  0  0  3  0  0  0  0  0  0
  180.4110  178.6820  140.5660 C   0  0  0  0  0  3  0  0  0  0  0  0
  188.6420  176.3040  136.2990 C   0  0  1  0  0  3  0  0  0  0  0  0
  185.9420  178.3810  139.8480 C   0  0  0  0  0  0  0  0  0  0  0  0
  182.0210  178.6330  138.6270 C   0  0  2  0  0  3  0  0  0  0  0  0
  185.4520  178.4150  138.4280 C   0  0  2  0  0  3  0  0  0  0  0  0
  186.7630  178.3490  142.4710 C   0  0  0  0  0  3  0  0  0  0  0  0
  187.0570  177.8000  134.9170 C   0  0  0  0  0  2  0  0  0  0  0  0
  185.4460  178.5060  142.1730 N   0  0  0  0  0  0  0  0  0  0  0  0
  186.0270  178.1420  135.9960 C   0  0  0  0  0  2  0  0  0  0  0  0
  189.0300  177.6610  136.9300 C   0  0  1  0  0  3  0  0  0  0  0  0
  187.6800  178.2230  141.4740 N   0  0  0  0  0  0  0  0  0  0  0  0
  188.2580  178.1400  139.1190 N   0  0  0  0  0  0  0  0  0  0  0  0
  182.2600  180.1220  138.3490 C   0  0  0  0  0  2  0  0  0  0  0  0
  181.1110  180.7040  137.5500 C   0  0  0  0  0  1  0  0  0  0  0  0
  188.1100  175.4280  137.2510 O   0  0  0  0  0  0  0  0  0  0  0  0
  187.3800  174.4910  136.5170 C   0  0  0  0  0  2  0  0  0  0  0  0
  184.1810  173.1940  136.1140 C   0  0  0  0  0  2  0  0  0  0  0  0
  185.9500  172.7170  137.5250 C   0  0  0  0  0  2  0  0  0  0  0  0
  186.0660  174.1970  137.2190 C   0  0  2  0  0  3  0  0  0  0  0  0
  184.6000  172.3010  137.1820 N   0  0  0  0  0  2  0  0  0  0  0  0
  184.9130  174.5050  136.2970 C   0  0  0  0  0  2  0  0  0  0  0  0
  1 24  1  0  0  0  0
  3 14  2  0  0  0  0
  4 21  2  0  0  0  0
  5  9  1  6  0  0  0
  5 13  1  0  0  0  0
  6 10  1  0  0  0  0
  7 25  1  1  0  0  0
  8 15  1  0  0  0  0
 11 22  1  6  0  0  0
 11  7  1  0  0  0  0
 11 18  1  0  0  0  0
 12  2  1  0  0  0  0
 13  4  1  0  0  0  0
 13 10  1  1  0  0  0
 14  6  1  0  0  0  0
 15 23  1  0  0  0  0
 15 28  1  1  0  0  0
 16  1  2  0  0  0  0
 16  4  1  0  0  0  0
 17 26  1  1  0  0  0
 17  3  1  0  0  0  0
 17  5  1  0  0  0  0
 18  9  1  1  0  0  0
 18 16  1  0  0  0  0
 20  8  1  0  0  0  0
 20 22  1  0  0  0  0
 21 19  1  0  0  0  0
 23  7  1  0  0  0  0
 23 12  1  1  0  0  0
 24 19  2  0  0  0  0
 25  2  1  0  0  0  0
 25  1  1  0  0  0  0
 27 26  1  0  0  0  0
 29 28  1  0  0  0  0
 30 34  1  0  0  0  0
 30 33  1  0  0  0  0
 32 29  1  6  0  0  0
 32 31  1  0  0  0  0
 33 31  1  0  0  0  0
 34 32  1  0  0  0  0
M  END
>  <MODEL>
5

>  <REMARK>
 VINA RESULT:      -6.3      2.771      6.477
  Name = 
  4 active torsions:
  status: ('A' for Active; 'I' for Inactive)
    1  A    between atoms: C_6  and  C_19
    2  A    between atoms: C_17  and  O_28
    3  A    between atoms: O_28  and  C_29
    4  A    between atoms: C_29  and  C_32
                            x       y       z     vdW  Elec       q    Type
                         _______ _______ _______ _____ _____    ______ ____

>  <TORSDO>
F 4

$$$$
=
 OpenBabel11122412053D

 34 40  0  0  1  0  0  0  0  0999 V2000
  189.8170  177.8860  140.3170 C   0  0  0  0  0  0  0  0  0  0  0  0
  189.9870  177.7700  137.7900 C   0  0  0  0  0  2  0  0  0  0  0  0
  186.1130  177.2940  145.8140 C   0  0  0  0  0  3  0  0  0  0  0  0
  189.4620  177.6640  142.6790 C   0  0  0  0  0  0  0  0  0  0  0  0
  187.1850  177.2450  143.6040 N   0  0  1  0  0  0  0  0  0  0  0  0
  188.4980  177.8640  146.3540 C   0  0  0  0  0  2  0  0  0  0  0  0
  187.9470  178.6190  138.7920 C   0  0  2  0  0  3  0  0  0  0  0  0
  185.2470  177.3200  137.4800 C   0  0  0  0  0  2  0  0  0  0  0  0
  186.7120  177.2450  142.2030 C   0  0  0  0  0  2  0  0  0  0  0  0
  189.1290  177.2130  145.1320 C   0  0  0  0  0  2  0  0  0  0  0  0
  186.9750  178.0010  139.8230 C   0  0  1  0  0  3  0  0  0  0  0  0
  189.0030  178.0460  136.6640 C   0  0  0  0  0  2  0  0  0  0  0  0
  188.5350  177.8090  143.8580 C   0  0  1  0  0  3  0  0  0  0  0  0
  187.1520  177.2760  146.6620 C   0  0  0  0  0  3  0  0  0  0  0  0
  186.7180  177.0680  137.1030 C   0  0  1  0  0  3  0  0  0  0  0  0
  188.9450  177.8990  141.4090 C   0  0  0  0  0  0  0  0  0  0  0  0
  186.1520  177.8870  144.4300 C   0  0  2  0  0  3  0  0  0  0  0  0
  187.4780  178.1870  141.2660 C   0  0  2  0  0  3  0  0  0  0  0  0
  191.6230  177.3840  141.7550 C   0  0  0  0  0  3  0  0  0  0  0  0
  185.0060  178.6100  138.2670 C   0  0  0  0  0  2  0  0  0  0  0  0
  190.7940  177.4240  142.8320 N   0  0  0  0  0  0  0  0  0  0  0  0
  185.5480  178.5540  139.6970 C   0  0  0  0  0  2  0  0  0  0  0  0
  187.6450  178.2850  137.3200 C   0  0  1  0  0  3  0  0  0  0  0  0
  191.1350  177.6120  140.5070 N   0  0  0  0  0  0  0  0  0  0  0  0
  189.3020  178.1460  139.0080 N   0  0  0  0  0  0  0  0  0  0  0  0
  186.2290  179.4190  144.4340 C   0  0  0  0  0  2  0  0  0  0  0  0
  184.9020  180.0180  144.0160 C   0  0  0  0  0  1  0  0  0  0  0  0
  187.1930  175.9340  137.7710 O   0  0  0  0  0  0  0  0  0  0  0  0
  187.3580  174.9670  136.7780 C   0  0  0  0  0  2  0  0  0  0  0  0
  184.7740  172.6630  136.4790 C   0  0  0  0  0  2  0  0  0  0  0  0
  187.0710  172.5550  136.2270 C   0  0  0  0  0  2  0  0  0  0  0  0
  186.8290  173.6310  137.2670 C   0  0  2  0  0  3  0  0  0  0  0  0
  185.8580  171.7590  136.1260 N   0  0  0  0  0  2  0  0  0  0  0  0
  185.3320  173.7010  137.4270 C   0  0  0  0  0  2  0  0  0  0  0  0
  1 24  2  0  0  0  0
  1 16  1  0  0  0  0
  2 25  1  0  0  0  0
  3 14  2  0  0  0  0
  4 21  1  0  0  0  0
  4 13  1  0  0  0  0
  5  9  1  6  0  0  0
  5 13  1  0  0  0  0
  5 17  1  0  0  0  0
  6 14  1  0  0  0  0
  7 25  1  1  0  0  0
  7 11  1  0  0  0  0
  8 20  1  0  0  0  0
 10  6  1  0  0  0  0
 11 22  1  1  0  0  0
 11 18  1  0  0  0  0
 12  2  1  0  0  0  0
 13 10  1  1  0  0  0
 15 23  1  0  0  0  0
 15  8  1  0  0  0  0
 15 28  1  1  0  0  0
 16  4  2  0  0  0  0
 17 26  1  1  0  0  0
 17  3  1  0  0  0  0
 18 16  1  0  0  0  0
 18  9  1  1  0  0  0
 19 21  2  0  0  0  0
 20 22  1  0  0  0  0
 23 12  1  6  0  0  0
 23  7  1  0  0  0  0
 24 19  1  0  0  0  0
 25  1  1  0  0  0  0
 27 26  1  0  0  0  0
 29 28  1  0  0  0  0
 30 34  1  0  0  0  0
 31 32  1  0  0  0  0
 32 29  1  6  0  0  0
 32 34  1  0  0  0  0
 33 31  1  0  0  0  0
 33 30  1  0  0  0  0
M  END
>  <MODEL>
6

>  <REMARK>
 VINA RESULT:      -6.1      2.623      3.885
  Name = 
  4 active torsions:
  status: ('A' for Active; 'I' for Inactive)
    1  A    between atoms: C_6  and  C_19
    2  A    between atoms: C_17  and  O_28
    3  A    between atoms: O_28  and  C_29
    4  A    between atoms: C_29  and  C_32
                            x       y       z     vdW  Elec       q    Type
                         _______ _______ _______ _____ _____    ______ ____

>  <TORSDO>
F 4

$$$$
=
 OpenBabel11122412053D

 34 40  0  0  1  0  0  0  0  0999 V2000
  186.0990  178.4070  139.5090 C   0  0  0  0  0  0  0  0  0  0  0  0
  187.7230  177.7610  137.6720 C   0  0  0  0  0  2  0  0  0  0  0  0
  180.0080  177.9560  142.1510 C   0  0  0  0  0  3  0  0  0  0  0  0
  184.4690  178.6440  141.2530 C   0  0  0  0  0  0  0  0  0  0  0  0
  182.1610  177.7380  140.9880 N   0  0  1  0  0  0  0  0  0  0  0  0
  181.5290  179.3780  143.5530 C   0  0  0  0  0  2  0  0  0  0  0  0
  185.3900  178.1130  137.1080 C   0  0  2  0  0  3  0  0  0  0  0  0
  184.1640  175.7380  135.2210 C   0  0  0  0  0  2  0  0  0  0  0  0
  182.5980  177.2560  139.6600 C   0  0  0  0  0  2  0  0  0  0  0  0
  182.8340  178.6990  143.1640 C   0  0  0  0  0  2  0  0  0  0  0  0
  184.0930  177.4740  137.6550 C   0  0  1  0  0  3  0  0  0  0  0  0
  187.5530  177.4300  136.1980 C   0  0  0  0  0  2  0  0  0  0  0  0
  183.0200  178.7530  141.6500 C   0  0  1  0  0  3  0  0  0  0  0  0
  180.3490  178.4750  143.3390 C   0  0  0  0  0  3  0  0  0  0  0  0
  185.5970  175.8970  135.7610 C   0  0  1  0  0  3  0  0  0  0  0  0
  184.7630  178.3930  139.9170 C   0  0  0  0  0  0  0  0  0  0  0  0
  180.7660  178.1860  140.8690 C   0  0  2  0  0  3  0  0  0  0  0  0
  183.6310  178.1470  138.9600 C   0  0  2  0  0  3  0  0  0  0  0  0
  186.7770  178.8700  141.7250 C   0  0  0  0  0  3  0  0  0  0  0  0
  183.3390  177.0280  135.2260 C   0  0  0  0  0  2  0  0  0  0  0  0
  185.4800  178.8910  142.1310 N   0  0  0  0  0  0  0  0  0  0  0  0
  182.9480  177.4890  136.6320 C   0  0  0  0  0  2  0  0  0  0  0  0
  186.0510  177.3640  135.9360 C   0  0  1  0  0  3  0  0  0  0  0  0
  187.0820  178.6280  140.4220 N   0  0  0  0  0  0  0  0  0  0  0  0
  186.4140  178.1700  138.1340 N   0  0  0  0  0  0  0  0  0  0  0  0
  180.6190  179.6160  140.3330 C   0  0  0  0  0  2  0  0  0  0  0  0
  179.9040  179.6100  138.9970 C   0  0  0  0  0  1  0  0  0  0  0  0
  185.7410  175.1690  136.9480 O   0  0  0  0  0  0  0  0  0  0  0  0
  184.7980  174.1420  136.8640 C   0  0  0  0  0  2  0  0  0  0  0  0
  186.6180  171.5530  135.4290 C   0  0  0  0  0  2  0  0  0  0  0  0
  186.9700  172.9760  137.2180 C   0  0  0  0  0  2  0  0  0  0  0  0
  185.4670  172.8050  137.1280 C   0  0  2  0  0  3  0  0  0  0  0  0
  187.5820  171.8950  136.4630 N   0  0  0  0  0  2  0  0  0  0  0  0
  185.2400  171.8800  135.9600 C   0  0  0  0  0  2  0  0  0  0  0  0
  1 16  2  0  0  0  0
  1 24  1  0  0  0  0
  2 25  1  0  0  0  0
  3 14  2  0  0  0  0
  4 13  1  0  0  0  0
  4 21  2  0  0  0  0
  5  9  1  6  0  0  0
  5 13  1  0  0  0  0
  7 11  1  0  0  0  0
  7 25  1  1  0  0  0
  8 20  1  0  0  0  0
  8 15  1  0  0  0  0
 10  6  1  0  0  0  0
 11 22  1  6  0  0  0
 11 18  1  0  0  0  0
 12  2  1  0  0  0  0
 13 10  1  1  0  0  0
 14  6  1  0  0  0  0
 15 23  1  0  0  0  0
 15 28  1  1  0  0  0
 16  4  1  0  0  0  0
 17 26  1  1  0  0  0
 17  5  1  0  0  0  0
 17  3  1  0  0  0  0
 18  9  1  1  0  0  0
 18 16  1  0  0  0  0
 19 21  1  0  0  0  0
 20 22  1  0  0  0  0
 23 12  1  1  0  0  0
 23  7  1  0  0  0  0
 24 19  2  0  0  0  0
 25  1  1  0  0  0  0
 27 26  1  0  0  0  0
 29 28  1  0  0  0  0
 30 34  1  0  0  0  0
 30 33  1  0  0  0  0
 32 29  1  6  0  0  0
 32 31  1  0  0  0  0
 33 31  1  0  0  0  0
 34 32  1  0  0  0  0
M  END
>  <MODEL>
7

>  <REMARK>
 VINA RESULT:      -6.0      3.047      5.748
  Name = 
  4 active torsions:
  status: ('A' for Active; 'I' for Inactive)
    1  A    between atoms: C_6  and  C_19
    2  A    between atoms: C_17  and  O_28
    3  A    between atoms: O_28  and  C_29
    4  A    between atoms: C_29  and  C_32
                            x       y       z     vdW  Elec       q    Type
                         _______ _______ _______ _____ _____    ______ ____

>  <TORSDO>
F 4

$$$$
=
 OpenBabel11122412053D

 34 40  0  0  1  0  0  0  0  0999 V2000
  184.0530  178.6520  141.4510 C   0  0  0  0  0  0  0  0  0  0  0  0
  182.2830  179.3770  143.1150 C   0  0  0  0  0  2  0  0  0  0  0  0
  185.7410  177.2570  135.1660 C   0  0  0  0  0  3  0  0  0  0  0  0
  185.5960  178.2530  139.6570 C   0  0  0  0  0  0  0  0  0  0  0  0
  184.8010  178.0140  137.3060 N   0  0  1  0  0  0  0  0  0  0  0  0
  187.6940  177.0360  136.7270 C   0  0  0  0  0  2  0  0  0  0  0  0
  181.6390  177.9530  141.2590 C   0  0  2  0  0  3  0  0  0  0  0  0
  178.9350  178.9900  139.7370 C   0  0  0  0  0  2  0  0  0  0  0  0
  183.4390  178.2480  137.8360 C   0  0  0  0  0  2  0  0  0  0  0  0
  187.2320  178.0560  137.7560 C   0  0  0  0  0  2  0  0  0  0  0  0
  181.7960  178.1240  139.7300 C   0  0  1  0  0  3  0  0  0  0  0  0
  180.7750  179.1880  143.1830 C   0  0  0  0  0  2  0  0  0  0  0  0
  185.8560  177.6700  138.2930 C   0  0  1  0  0  3  0  0  0  0  0  0
  187.0630  177.2740  135.3860 C   0  0  0  0  0  3  0  0  0  0  0  0
  179.6400  179.5920  140.9660 C   0  0  1  0  0  3  0  0  0  0  0  0
  184.2930  178.2250  140.1420 C   0  0  0  0  0  0  0  0  0  0  0  0
  184.7020  177.0170  136.2310 C   0  0  2  0  0  3  0  0  0  0  0  0
  183.1990  177.7070  139.2510 C   0  0  2  0  0  3  0  0  0  0  0  0
  186.3500  179.1390  141.7190 C   0  0  0  0  0  3  0  0  0  0  0  0
  179.2990  177.5320  139.4500 C   0  0  0  0  0  2  0  0  0  0  0  0
  186.6040  178.6970  140.4580 N   0  0  0  0  0  0  0  0  0  0  0  0
  180.7300  177.3570  138.9360 C   0  0  0  0  0  2  0  0  0  0  0  0
  180.3550  178.5540  141.8600 C   0  0  1  0  0  3  0  0  0  0  0  0
  185.0820  179.1170  142.2090 N   0  0  0  0  0  0  0  0  0  0  0  0
  182.7210  178.6090  141.9690 N   0  0  0  0  0  0  0  0  0  0  0  0
  184.6790  175.5680  136.7320 C   0  0  0  0  0  2  0  0  0  0  0  0
  183.3300  174.9330  136.4580 C   0  0  0  0  0  1  0  0  0  0  0  0
  180.5110  180.6100  140.5630 O   0  0  0  0  0  0  0  0  0  0  0  0
  179.8810  181.2230  139.4780 C   0  0  0  0  0  2  0  0  0  0  0  0
  180.4670  181.7160  136.0880 C   0  0  0  0  0  2  0  0  0  0  0  0
  180.6440  183.0510  137.9680 C   0  0  0  0  0  2  0  0  0  0  0  0
  180.9160  181.6400  138.4490 C   0  0  2  0  0  3  0  0  0  0  0  0
  180.8010  183.0630  136.5220 N   0  0  0  0  0  2  0  0  0  0  0  0
  180.7980  180.7710  137.2220 C   0  0  0  0  0  2  0  0  0  0  0  0
  1 25  1  0  0  0  0
  1 24  1  0  0  0  0
  2 12  1  0  0  0  0
  3 14  2  0  0  0  0
  3 17  1  0  0  0  0
  4 16  1  0  0  0  0
  4 21  2  0  0  0  0
  5  9  1  1  0  0  0
  5 13  1  0  0  0  0
  6 10  1  0  0  0  0
  7 23  1  0  0  0  0
  7 25  1  1  0  0  0
  8 15  1  0  0  0  0
 11 22  1  6  0  0  0
 11  7  1  0  0  0  0
 13 10  1  6  0  0  0
 13  4  1  0  0  0  0
 14  6  1  0  0  0  0
 15 28  1  6  0  0  0
 15 23  1  0  0  0  0
 16  1  2  0  0  0  0
 17 26  1  1  0  0  0
 17  5  1  0  0  0  0
 18  9  1  6  0  0  0
 18 11  1  0  0  0  0
 18 16  1  0  0  0  0
 19 24  2  0  0  0  0
 20  8  1  0  0  0  0
 21 19  1  0  0  0  0
 22 20  1  0  0  0  0
 23 12  1  1  0  0  0
 25  2  1  0  0  0  0
 27 26  1  0  0  0  0
 29 28  1  0  0  0  0
 30 33  1  0  0  0  0
 30 34  1  0  0  0  0
 31 32  1  0  0  0  0
 32 29  1  1  0  0  0
 33 31  1  0  0  0  0
 34 32  1  0  0  0  0
M  END
>  <MODEL>
8

>  <REMARK>
 VINA RESULT:      -5.9      3.090      6.675
  Name = 
  4 active torsions:
  status: ('A' for Active; 'I' for Inactive)
    1  A    between atoms: C_6  and  C_19
    2  A    between atoms: C_17  and  O_28
    3  A    between atoms: O_28  and  C_29
    4  A    between atoms: C_29  and  C_32
                            x       y       z     vdW  Elec       q    Type
                         _______ _______ _______ _____ _____    ______ ____

>  <TORSDO>
F 4

$$$$
=
 OpenBabel11122412053D

 34 40  0  0  1  0  0  0  0  0999 V2000
  186.8010  178.5910  139.3050 C   0  0  0  0  0  0  0  0  0  0  0  0
  184.5330  179.1070  138.2940 C   0  0  0  0  0  2  0  0  0  0  0  0
  190.3620  176.1000  144.3460 C   0  0  0  0  0  3  0  0  0  0  0  0
  188.7950  177.7580  140.3490 C   0  0  0  0  0  0  0  0  0  0  0  0
  188.7290  176.7570  142.6310 N   0  0  1  0  0  0  0  0  0  0  0  0
  191.8310  176.9160  142.4800 C   0  0  0  0  0  2  0  0  0  0  0  0
  184.8330  179.3410  140.6900 C   0  0  2  0  0  3  0  0  0  0  0  0
  182.4220  177.9580  142.4160 C   0  0  0  0  0  2  0  0  0  0  0  0
  187.2720  177.0100  142.6050 C   0  0  0  0  0  2  0  0  0  0  0  0
  190.8410  176.6890  141.3470 C   0  0  0  0  0  2  0  0  0  0  0  0
  185.3150  178.3420  141.7680 C   0  0  1  0  0  3  0  0  0  0  0  0
  183.1840  179.4740  138.8910 C   0  0  0  0  0  2  0  0  0  0  0  0
  189.5520  177.4620  141.6160 C   0  0  1  0  0  3  0  0  0  0  0  0
  191.5190  176.0550  143.6700 C   0  0  0  0  0  3  0  0  0  0  0  0
  182.5810  178.0530  140.8870 C   0  0  1  0  0  3  0  0  0  0  0  0
  187.4790  178.1980  140.4620 C   0  0  0  0  0  0  0  0  0  0  0  0
  189.2060  177.0030  143.9990 C   0  0  2  0  0  3  0  0  0  0  0  0
  186.8520  178.2620  141.8250 C   0  0  2  0  0  3  0  0  0  0  0  0
  188.7040  178.0700  138.0040 C   0  0  0  0  0  3  0  0  0  0  0  0
  183.2620  178.9650  143.2040 C   0  0  0  0  0  2  0  0  0  0  0  0
  189.3880  177.7140  139.1240 N   0  0  0  0  0  0  0  0  0  0  0  0
  184.7620  178.6630  143.1630 C   0  0  0  0  0  2  0  0  0  0  0  0
  183.3200  179.3210  140.4040 C   0  0  1  0  0  3  0  0  0  0  0  0
  187.4180  178.5030  138.0970 N   0  0  0  0  0  0  0  0  0  0  0  0
  185.4550  179.0630  139.4090 N   0  0  0  0  0  0  0  0  0  0  0  0
  189.4870  178.4810  144.2990 C   0  0  0  0  0  2  0  0  0  0  0  0
  190.0270  178.6440  145.7060 C   0  0  0  0  0  1  0  0  0  0  0  0
  183.1840  176.8880  140.3990 O   0  0  0  0  0  0  0  0  0  0  0  0
  182.1340  176.1120  139.9050 C   0  0  0  0  0  2  0  0  0  0  0  0
  183.7170  174.2160  137.4600 C   0  0  0  0  0  2  0  0  0  0  0  0
  181.5100  174.7040  137.9480 C   0  0  0  0  0  2  0  0  0  0  0  0
  182.3000  175.9110  138.4090 C   0  0  2  0  0  3  0  0  0  0  0  0
  182.3530  173.9470  137.0360 N   0  0  0  0  0  2  0  0  0  0  0  0
  183.7390  175.5900  138.0930 C   0  0  0  0  0  2  0  0  0  0  0  0
  1 25  1  0  0  0  0
  1 16  1  0  0  0  0
  2 12  1  0  0  0  0
  2 25  1  0  0  0  0
  4 16  2  0  0  0  0
  4 13  1  0  0  0  0
  5  9  1  1  0  0  0
  5 17  1  0  0  0  0
  6 14  1  0  0  0  0
  7 25  1  6  0  0  0
  7 11  1  0  0  0  0
  8 20  1  0  0  0  0
 10  6  1  0  0  0  0
 11 18  1  0  0  0  0
 11 22  1  1  0  0  0
 13 10  1  6  0  0  0
 13  5  1  0  0  0  0
 14  3  2  0  0  0  0
 15 28  1  1  0  0  0
 15  8  1  0  0  0  0
 16 18  1  0  0  0  0
 17 26  1  6  0  0  0
 17  3  1  0  0  0  0
 18  9  1  1  0  0  0
 19 24  1  0  0  0  0
 19 21  2  0  0  0  0
 21  4  1  0  0  0  0
 22 20  1  0  0  0  0
 23 12  1  6  0  0  0
 23  7  1  0  0  0  0
 23 15  1  0  0  0  0
 24  1  2  0  0  0  0
 26 27  1  0  0  0  0
 29 28  1  0  0  0  0
 30 34  1  0  0  0  0
 31 32  1  0  0  0  0
 32 29  1  1  0  0  0
 33 30  1  0  0  0  0
 33 31  1  0  0  0  0
 34 32  1  0  0  0  0
M  END
>  <MODEL>
9

>  <REMARK>
 VINA RESULT:      -5.9      1.698      2.341
  Name = 
  4 active torsions:
  status: ('A' for Active; 'I' for Inactive)
    1  A    between atoms: C_6  and  C_19
    2  A    between atoms: C_17  and  O_28
    3  A    between atoms: O_28  and  C_29
    4  A    between atoms: C_29  and  C_32
                            x       y       z     vdW  Elec       q    Type
                         _______ _______ _______ _____ _____    ______ ____

>  <TORSDO>
F 4

$$$$
