=
 OpenBabel11122411533D

 28 32  0  0  1  0  0  0  0  0999 V2000
  186.6980  173.9460  136.1260 C   0  0  0  0  0  0  0  0  0  0  0  0
  191.2980  173.5920  134.6190 C   0  0  0  0  0  1  0  0  0  0  0  0
  189.0530  179.4120  138.4150 O   0  0  0  0  0  0  0  0  0  0  0  0
  187.9480  171.4690  135.7370 C   0  0  0  0  0  3  0  0  0  0  0  0
  189.7600  177.2810  139.1210 N   0  0  0  0  0  0  0  0  0  0  0  0
  185.9300  175.1970  136.3840 C   0  0  0  0  0  2  0  0  0  0  0  0
  191.6240  176.0140  134.8310 C   0  0  0  0  0  1  0  0  0  0  0  0
  191.5650  174.7030  135.6140 C   0  0  0  0  0  0  0  0  0  0  0  0
  193.0520  175.3240  137.3350 C   0  0  2  0  0  3  0  0  0  0  0  0
  190.4620  174.7170  136.6850 C   0  0  1  0  0  3  0  0  0  0  0  0
  186.6270  178.2920  134.5940 O   0  0  0  0  0  0  0  0  0  0  0  0
  188.5750  175.9730  137.5340 C   0  0  1  0  0  3  0  0  0  0  0  0
  192.0590  175.2050  138.3370 O   0  0  0  0  0  0  0  0  0  0  0  0
  192.8180  174.4340  136.2450 O   0  0  0  0  0  0  0  0  0  0  0  0
  186.5550  177.4700  135.5430 C   0  0  0  0  0  0  0  0  0  0  0  0
  188.1190  173.8730  136.1710 C   0  0  0  0  0  0  0  0  0  0  0  0
  189.0670  178.1610  138.2590 C   0  0  0  0  0  0  0  0  0  0  0  0
  194.3560  175.0500  137.9120 N   0  0  0  0  0  1  0  0  0  0  0  0
  187.0060  177.8770  136.9090 C   0  0  0  0  0  2  0  0  0  0  0  0
  188.7130  172.6120  135.9650 C   0  0  0  0  0  3  0  0  0  0  0  0
  185.9420  172.7910  135.8970 C   0  0  0  0  0  3  0  0  0  0  0  0
  186.5600  171.5590  135.7010 C   0  0  0  0  0  3  0  0  0  0  0  0
  186.0980  176.1410  135.2930 N   0  0  0  0  0  2  0  0  0  0  0  0
  189.7070  175.9340  138.5860 C   0  0  1  0  0  3  0  0  0  0  0  0
  188.4510  177.4550  137.1140 C   0  0  2  0  0  3  0  0  0  0  0  0
  190.9130  175.6960  137.7150 C   0  0  2  0  0  3  0  0  0  0  0  0
  190.6410  177.7010  140.1980 C   0  0  0  0  0  1  0  0  0  0  0  0
  189.0170  175.1040  136.3380 C   0  0  2  0  0  3  0  0  0  0  0  0
  1 16  1  0  0  0  0
  1  6  1  0  0  0  0
  2  8  1  0  0  0  0
  4 20  1  0  0  0  0
  5 27  1  0  0  0  0
  7  8  1  0  0  0  0
  8 14  1  0  0  0  0
  9 18  1  1  0  0  0
  9 13  1  0  0  0  0
 10  8  1  6  0  0  0
 10 26  1  0  0  0  0
 11 15  2  0  0  0  0
 12 24  1  0  0  0  0
 14  9  1  0  0  0  0
 15 19  1  0  0  0  0
 16 28  1  0  0  0  0
 17  3  2  0  0  0  0
 17  5  1  0  0  0  0
 19 25  1  0  0  0  0
 20 16  2  0  0  0  0
 21  1  2  0  0  0  0
 22  4  2  0  0  0  0
 22 21  1  0  0  0  0
 23 15  1  0  0  0  0
 23  6  1  0  0  0  0
 24  5  1  0  0  0  0
 25 12  1  0  0  0  0
 25 17  1  0  0  0  0
 26 13  1  0  0  0  0
 26 24  1  0  0  0  0
 28 10  1  0  0  0  0
 28 12  1  0  0  0  0
M  END
>  <MODEL>
1

>  <REMARK>
 VINA RESULT:      -5.7      0.000      0.000
  Name = 
  0 active torsions:
  status: ('A' for Active; 'I' for Inactive)
                            x       y       z     vdW  Elec       q    Type
                         _______ _______ _______ _____ _____    ______ ____

>  <TORSDO>
F 0

$$$$
=
 OpenBabel11122411533D

 28 32  0  0  1  0  0  0  0  0999 V2000
  181.5600  178.2290  135.3060 C   0  0  0  0  0  0  0  0  0  0  0  0
  181.4580  178.9890  140.0990 C   0  0  0  0  0  1  0  0  0  0  0  0
  186.5490  174.6910  137.1110 O   0  0  0  0  0  0  0  0  0  0  0  0
  180.5270  180.5850  136.4160 C   0  0  0  0  0  3  0  0  0  0  0  0
  186.4440  177.0300  137.3510 N   0  0  0  0  0  0  0  0  0  0  0  0
  182.0940  177.0310  134.5970 C   0  0  0  0  0  2  0  0  0  0  0  0
  182.7740  176.9610  140.5160 C   0  0  0  0  0  1  0  0  0  0  0  0
  182.8630  178.4240  140.0800 C   0  0  0  0  0  0  0  0  0  0  0  0
  185.0340  178.8400  140.9000 C   0  0  2  0  0  3  0  0  0  0  0  0
  183.4630  178.5730  138.6720 C   0  0  1  0  0  3  0  0  0  0  0  0
  182.0950  173.7240  136.1250 O   0  0  0  0  0  0  0  0  0  0  0  0
  184.1800  177.3480  136.7110 C   0  0  1  0  0  3  0  0  0  0  0  0
  185.5500  179.1070  139.6100 O   0  0  0  0  0  0  0  0  0  0  0  0
  183.6510  179.1790  141.0010 O   0  0  0  0  0  0  0  0  0  0  0  0
  182.5320  174.8070  135.6560 C   0  0  0  0  0  0  0  0  0  0  0  0
  181.9800  178.6240  136.6080 C   0  0  0  0  0  0  0  0  0  0  0  0
  185.8820  175.7600  137.0820 C   0  0  0  0  0  0  0  0  0  0  0  0
  185.7890  179.5910  141.8870 N   0  0  0  0  0  1  0  0  0  0  0  0
  184.0070  175.0550  135.6210 C   0  0  0  0  0  2  0  0  0  0  0  0
  181.4350  179.8110  137.1360 C   0  0  0  0  0  3  0  0  0  0  0  0
  180.6480  179.0150  134.5940 C   0  0  0  0  0  3  0  0  0  0  0  0
  180.1310  180.1860  135.1430 C   0  0  0  0  0  3  0  0  0  0  0  0
  181.6150  175.8070  135.2160 N   0  0  0  0  0  2  0  0  0  0  0  0
  185.3920  178.0280  137.3870 C   0  0  1  0  0  3  0  0  0  0  0  0
  184.4210  175.8290  136.8610 C   0  0  2  0  0  3  0  0  0  0  0  0
  184.8960  178.1790  138.8020 C   0  0  2  0  0  3  0  0  0  0  0  0
  187.8010  177.2520  137.8210 C   0  0  0  0  0  1  0  0  0  0  0  0
  182.9120  177.7760  137.4810 C   0  0  2  0  0  3  0  0  0  0  0  0
  1 16  1  0  0  0  0
  4 20  1  0  0  0  0
  5 24  1  0  0  0  0
  5 27  1  0  0  0  0
  6 23  1  0  0  0  0
  6  1  1  0  0  0  0
  8  2  1  0  0  0  0
  8  7  1  0  0  0  0
  8 14  1  0  0  0  0
  9 14  1  0  0  0  0
  9 18  1  1  0  0  0
 10 26  1  0  0  0  0
 10  8  1  1  0  0  0
 12 25  1  0  0  0  0
 12 24  1  0  0  0  0
 12 28  1  0  0  0  0
 13  9  1  0  0  0  0
 15 11  2  0  0  0  0
 16 20  2  0  0  0  0
 16 28  1  0  0  0  0
 17  3  2  0  0  0  0
 17  5  1  0  0  0  0
 19 15  1  0  0  0  0
 19 25  1  0  0  0  0
 21 22  1  0  0  0  0
 21  1  2  0  0  0  0
 22  4  2  0  0  0  0
 23 15  1  0  0  0  0
 24 26  1  0  0  0  0
 25 17  1  0  0  0  0
 26 13  1  0  0  0  0
 28 10  1  0  0  0  0
M  END
>  <MODEL>
2

>  <REMARK>
 VINA RESULT:      -5.6      4.620      7.849
  Name = 
  0 active torsions:
  status: ('A' for Active; 'I' for Inactive)
                            x       y       z     vdW  Elec       q    Type
                         _______ _______ _______ _____ _____    ______ ____

>  <TORSDO>
F 0

$$$$
=
 OpenBabel11122411533D

 28 32  0  0  1  0  0  0  0  0999 V2000
  190.6150  176.7760  139.4640 C   0  0  0  0  0  0  0  0  0  0  0  0
  187.1860  178.6410  136.5780 C   0  0  0  0  0  1  0  0  0  0  0  0
  190.8910  172.6690  134.5940 O   0  0  0  0  0  0  0  0  0  0  0  0
  188.4400  178.2210  140.4810 C   0  0  0  0  0  3  0  0  0  0  0  0
  189.0080  172.9340  135.9810 N   0  0  0  0  0  0  0  0  0  0  0  0
  191.8050  175.9810  139.0480 C   0  0  0  0  0  2  0  0  0  0  0  0
  188.1200  177.4990  134.6180 C   0  0  0  0  0  1  0  0  0  0  0  0
  187.2550  177.3070  135.8640 C   0  0  0  0  0  0  0  0  0  0  0  0
  185.8780  175.5980  135.0010 C   0  0  2  0  0  3  0  0  0  0  0  0
  187.8320  176.2410  136.8100 C   0  0  1  0  0  3  0  0  0  0  0  0
  193.3810  176.4240  135.7940 O   0  0  0  0  0  0  0  0  0  0  0  0
  189.7470  174.8190  137.2210 C   0  0  1  0  0  3  0  0  0  0  0  0
  186.3170  174.6570  135.9630 O   0  0  0  0  0  0  0  0  0  0  0  0
  185.9250  176.9340  135.5030 O   0  0  0  0  0  0  0  0  0  0  0  0
  192.7320  175.8820  136.7260 C   0  0  0  0  0  0  0  0  0  0  0  0
  189.4230  176.8720  138.6890 C   0  0  0  0  0  0  0  0  0  0  0  0
  190.2760  173.3150  135.4840 C   0  0  0  0  0  0  0  0  0  0  0  0
  184.5200  175.2800  134.5990 N   0  0  0  0  0  1  0  0  0  0  0  0
  192.1790  174.5060  136.5380 C   0  0  0  0  0  2  0  0  0  0  0  0
  188.3530  177.6110  139.2300 C   0  0  0  0  0  3  0  0  0  0  0  0
  190.6890  177.3920  140.7180 C   0  0  0  0  0  3  0  0  0  0  0  0
  189.6110  178.1130  141.2250 C   0  0  0  0  0  3  0  0  0  0  0  0
  192.4820  176.6100  137.9270 N   0  0  0  0  0  2  0  0  0  0  0  0
  188.5090  173.9600  136.8770 C   0  0  1  0  0  3  0  0  0  0  0  0
  190.7400  174.5980  136.0580 C   0  0  2  0  0  3  0  0  0  0  0  0
  187.6750  174.9410  136.0960 C   0  0  2  0  0  3  0  0  0  0  0  0
  188.2020  171.8490  135.4480 C   0  0  0  0  0  1  0  0  0  0  0  0
  189.2940  176.2930  137.2760 C   0  0  2  0  0  3  0  0  0  0  0  0
  1 21  1  0  0  0  0
  3 17  2  0  0  0  0
  4 22  1  0  0  0  0
  5 24  1  0  0  0  0
  6  1  1  0  0  0  0
  7  8  1  0  0  0  0
  8  2  1  0  0  0  0
  9 18  1  1  0  0  0
  9 14  1  0  0  0  0
  9 13  1  0  0  0  0
 10  8  1  6  0  0  0
 10 28  1  0  0  0  0
 11 15  2  0  0  0  0
 12 28  1  0  0  0  0
 13 26  1  0  0  0  0
 14  8  1  0  0  0  0
 15 23  1  0  0  0  0
 16 20  1  0  0  0  0
 16  1  2  0  0  0  0
 17  5  1  0  0  0  0
 17 25  1  0  0  0  0
 19 15  1  0  0  0  0
 20  4  2  0  0  0  0
 21 22  2  0  0  0  0
 23  6  1  0  0  0  0
 24 12  1  0  0  0  0
 25 19  1  0  0  0  0
 25 12  1  0  0  0  0
 26 10  1  0  0  0  0
 26 24  1  0  0  0  0
 27  5  1  0  0  0  0
 28 16  1  0  0  0  0
M  END
>  <MODEL>
3

>  <REMARK>
 VINA RESULT:      -5.5      1.842      6.295
  Name = 
  0 active torsions:
  status: ('A' for Active; 'I' for Inactive)
                            x       y       z     vdW  Elec       q    Type
                         _______ _______ _______ _____ _____    ______ ____

>  <TORSDO>
F 0

$$$$
=
 OpenBabel11122411533D

 28 32  0  0  1  0  0  0  0  0999 V2000
  180.7360  175.9190  137.9360 C   0  0  0  0  0  0  0  0  0  0  0  0
  185.1620  177.9030  137.7700 C   0  0  0  0  0  1  0  0  0  0  0  0
  180.0560  180.5430  142.2730 O   0  0  0  0  0  0  0  0  0  0  0  0
  183.0040  174.4350  137.2240 C   0  0  0  0  0  3  0  0  0  0  0  0
  181.5410  178.7330  142.5080 N   0  0  0  0  0  0  0  0  0  0  0  0
  179.4610  176.5940  138.3120 C   0  0  0  0  0  2  0  0  0  0  0  0
  184.3350  179.9920  138.7540 C   0  0  0  0  0  1  0  0  0  0  0  0
  184.7660  178.5610  139.0750 C   0  0  0  0  0  0  0  0  0  0  0  0
  185.5690  178.9810  141.2520 C   0  0  2  0  0  3  0  0  0  0  0  0
  183.6400  177.7550  139.7430 C   0  0  1  0  0  3  0  0  0  0  0  0
  178.9310  180.1560  137.7650 O   0  0  0  0  0  0  0  0  0  0  0  0
  181.2950  177.7930  140.3420 C   0  0  1  0  0  3  0  0  0  0  0  0
  184.6100  178.1290  141.8500 O   0  0  0  0  0  0  0  0  0  0  0  0
  185.9080  178.5580  139.9320 O   0  0  0  0  0  0  0  0  0  0  0  0
  179.1070  179.0700  138.3760 C   0  0  0  0  0  0  0  0  0  0  0  0
  182.0180  176.3670  138.3620 C   0  0  0  0  0  0  0  0  0  0  0  0
  180.6510  179.5500  141.7750 C   0  0  0  0  0  0  0  0  0  0  0  0
  186.7660  179.0120  142.0730 N   0  0  0  0  0  1  0  0  0  0  0  0
  179.1390  179.0600  139.8710 C   0  0  0  0  0  2  0  0  0  0  0  0
  183.1360  175.5990  137.9800 C   0  0  0  0  0  3  0  0  0  0  0  0
  180.6160  174.7480  137.1780 C   0  0  0  0  0  3  0  0  0  0  0  0
  181.7420  174.0100  136.8200 C   0  0  0  0  0  3  0  0  0  0  0  0
  179.3330  177.8730  137.6340 N   0  0  0  0  0  2  0  0  0  0  0  0
  182.1710  177.7780  141.6160 C   0  0  1  0  0  3  0  0  0  0  0  0
  180.5780  179.1610  140.3490 C   0  0  2  0  0  3  0  0  0  0  0  0
  183.4610  178.3560  141.0950 C   0  0  2  0  0  3  0  0  0  0  0  0
  181.9870  179.0030  143.8640 C   0  0  0  0  0  1  0  0  0  0  0  0
  182.2370  177.6780  139.1240 C   0  0  2  0  0  3  0  0  0  0  0  0
  1  6  1  0  0  0  0
  1 16  1  0  0  0  0
  2  8  1  0  0  0  0
  4 20  1  0  0  0  0
  5 27  1  0  0  0  0
  7  8  1  0  0  0  0
  8 14  1  0  0  0  0
  9 13  1  0  0  0  0
  9 18  1  1  0  0  0
 10  8  1  6  0  0  0
 10 26  1  0  0  0  0
 11 15  2  0  0  0  0
 12 25  1  0  0  0  0
 12 24  1  0  0  0  0
 14  9  1  0  0  0  0
 15 19  1  0  0  0  0
 16 28  1  0  0  0  0
 17  3  2  0  0  0  0
 17  5  1  0  0  0  0
 19 25  1  0  0  0  0
 20 16  2  0  0  0  0
 21  1  2  0  0  0  0
 22 21  1  0  0  0  0
 22  4  2  0  0  0  0
 23  6  1  0  0  0  0
 23 15  1  0  0  0  0
 24  5  1  0  0  0  0
 25 17  1  0  0  0  0
 26 24  1  0  0  0  0
 26 13  1  0  0  0  0
 28 10  1  0  0  0  0
 28 12  1  0  0  0  0
M  END
>  <MODEL>
4

>  <REMARK>
 VINA RESULT:      -5.1      6.235      8.157
  Name = 
  0 active torsions:
  status: ('A' for Active; 'I' for Inactive)
                            x       y       z     vdW  Elec       q    Type
                         _______ _______ _______ _____ _____    ______ ____

>  <TORSDO>
F 0

$$$$
=
 OpenBabel11122411533D

 28 32  0  0  1  0  0  0  0  0999 V2000
  179.8690  181.3980  139.5740 C   0  0  0  0  0  0  0  0  0  0  0  0
  184.3430  179.7210  138.7180 C   0  0  0  0  0  1  0  0  0  0  0  0
  179.3050  175.4720  141.8620 O   0  0  0  0  0  0  0  0  0  0  0  0
  181.4470  182.3760  137.4750 C   0  0  0  0  0  3  0  0  0  0  0  0
  179.7160  175.9710  139.5990 N   0  0  0  0  0  0  0  0  0  0  0  0
  178.9310  180.9510  140.6430 C   0  0  0  0  0  2  0  0  0  0  0  0
  184.0700  177.9470  140.3900 C   0  0  0  0  0  1  0  0  0  0  0  0
  183.7300  178.3580  138.9570 C   0  0  0  0  0  0  0  0  0  0  0  0
  183.6400  176.1850  138.0460 C   0  0  2  0  0  3  0  0  0  0  0  0
  182.2120  178.4220  138.7200 C   0  0  1  0  0  3  0  0  0  0  0  0
  180.1180  179.6250  143.8220 O   0  0  0  0  0  0  0  0  0  0  0  0
  180.0540  178.3120  139.8100 C   0  0  1  0  0  3  0  0  0  0  0  0
  182.2710  176.3030  137.7080 O   0  0  0  0  0  0  0  0  0  0  0  0
  184.3060  177.4470  138.0200 O   0  0  0  0  0  0  0  0  0  0  0  0
  179.5830  179.6570  142.6830 C   0  0  0  0  0  0  0  0  0  0  0  0
  180.9180  180.5840  139.0580 C   0  0  0  0  0  0  0  0  0  0  0  0
  179.6120  176.3070  140.9690 C   0  0  0  0  0  0  0  0  0  0  0  0
  184.2910  175.2770  137.1180 N   0  0  0  0  0  1  0  0  0  0  0  0
  178.9790  178.4130  142.1150 C   0  0  0  0  0  2  0  0  0  0  0  0
  181.6940  181.1110  138.0080 C   0  0  0  0  0  3  0  0  0  0  0  0
  179.6310  182.6650  139.0310 C   0  0  0  0  0  3  0  0  0  0  0  0
  180.4150  183.1550  137.9890 C   0  0  0  0  0  3  0  0  0  0  0  0
  179.6100  180.8650  141.9250 N   0  0  0  0  0  2  0  0  0  0  0  0
  180.2320  177.1070  138.8590 C   0  0  1  0  0  3  0  0  0  0  0  0
  179.9980  177.7110  141.2320 C   0  0  2  0  0  3  0  0  0  0  0  0
  181.7340  177.0110  138.7810 C   0  0  2  0  0  3  0  0  0  0  0  0
  179.6190  174.6230  139.0670 C   0  0  0  0  0  1  0  0  0  0  0  0
  181.2910  179.2210  139.6530 C   0  0  2  0  0  3  0  0  0  0  0  0
  1  6  1  0  0  0  0
  2  8  1  0  0  0  0
  4 22  2  0  0  0  0
  4 20  1  0  0  0  0
  5 17  1  0  0  0  0
  6 23  1  0  0  0  0
  8  7  1  0  0  0  0
  9 18  1  6  0  0  0
 10 26  1  0  0  0  0
 10  8  1  1  0  0  0
 10 28  1  0  0  0  0
 12 25  1  0  0  0  0
 13  9  1  0  0  0  0
 13 26  1  0  0  0  0
 14  9  1  0  0  0  0
 14  8  1  0  0  0  0
 15 11  2  0  0  0  0
 16  1  1  0  0  0  0
 16 28  1  0  0  0  0
 17 25  1  0  0  0  0
 17  3  2  0  0  0  0
 19 15  1  0  0  0  0
 20 16  2  0  0  0  0
 21  1  2  0  0  0  0
 22 21  1  0  0  0  0
 23 15  1  0  0  0  0
 24  5  1  0  0  0  0
 24 12  1  0  0  0  0
 25 19  1  0  0  0  0
 26 24  1  0  0  0  0
 27  5  1  0  0  0  0
 28 12  1  0  0  0  0
M  END
>  <MODEL>
5

>  <REMARK>
 VINA RESULT:      -5.1      7.349     10.357
  Name = 
  0 active torsions:
  status: ('A' for Active; 'I' for Inactive)
                            x       y       z     vdW  Elec       q    Type
                         _______ _______ _______ _____ _____    ______ ____

>  <TORSDO>
F 0

$$$$
=
 OpenBabel11122411533D

 28 32  0  0  1  0  0  0  0  0999 V2000
  179.9900  177.3610  136.1470 C   0  0  0  0  0  0  0  0  0  0  0  0
  182.9970  179.7930  139.0810 C   0  0  0  0  0  1  0  0  0  0  0  0
  184.1460  172.7410  137.5760 O   0  0  0  0  0  0  0  0  0  0  0  0
  180.3800  180.1270  135.9150 C   0  0  0  0  0  3  0  0  0  0  0  0
  184.7100  174.6900  136.3850 N   0  0  0  0  0  0  0  0  0  0  0  0
  179.7110  175.8970  136.1600 C   0  0  0  0  0  2  0  0  0  0  0  0
  183.8240  177.7070  140.0720 C   0  0  0  0  0  1  0  0  0  0  0  0
  183.9370  178.6270  138.8570 C   0  0  0  0  0  0  0  0  0  0  0  0
  186.1840  178.1390  138.3320 C   0  0  2  0  0  3  0  0  0  0  0  0
  183.5690  177.9070  137.5500 C   0  0  1  0  0  3  0  0  0  0  0  0
  179.9390  173.9150  139.2080 O   0  0  0  0  0  0  0  0  0  0  0  0
  182.6590  175.8600  136.6320 C   0  0  1  0  0  3  0  0  0  0  0  0
  185.8480  177.5970  137.0680 O   0  0  0  0  0  0  0  0  0  0  0  0
  185.2610  179.1490  138.7400 O   0  0  0  0  0  0  0  0  0  0  0  0
  180.2170  174.3500  138.0600 C   0  0  0  0  0  0  0  0  0  0  0  0
  181.1890  177.9370  136.6560 C   0  0  0  0  0  0  0  0  0  0  0  0
  183.8470  173.8980  137.1760 C   0  0  0  0  0  0  0  0  0  0  0  0
  187.5220  178.7000  138.2770 N   0  0  0  0  0  1  0  0  0  0  0  0
  181.3740  173.7710  137.3110 C   0  0  0  0  0  2  0  0  0  0  0  0
  181.3480  179.3310  136.5270 C   0  0  0  0  0  3  0  0  0  0  0  0
  179.0270  178.1710  135.5350 C   0  0  0  0  0  3  0  0  0  0  0  0
  179.2170  179.5460  135.4200 C   0  0  0  0  0  3  0  0  0  0  0  0
  179.4620  175.4300  137.5130 N   0  0  0  0  0  2  0  0  0  0  0  0
  184.1420  176.0150  136.2230 C   0  0  1  0  0  3  0  0  0  0  0  0
  182.6120  174.6200  137.5520 C   0  0  2  0  0  3  0  0  0  0  0  0
  184.6580  176.9160  137.3150 C   0  0  2  0  0  3  0  0  0  0  0  0
  186.0800  174.3400  136.0490 C   0  0  0  0  0  1  0  0  0  0  0  0
  182.2520  177.1300  137.4090 C   0  0  2  0  0  3  0  0  0  0  0  0
  1  6  1  0  0  0  0
  1 16  1  0  0  0  0
  4 20  1  0  0  0  0
  5 17  1  0  0  0  0
  6 23  1  0  0  0  0
  8  2  1  0  0  0  0
  8  7  1  0  0  0  0
  9 18  1  6  0  0  0
  9 14  1  0  0  0  0
 10  8  1  1  0  0  0
 12 28  1  0  0  0  0
 12 25  1  0  0  0  0
 13 26  1  0  0  0  0
 13  9  1  0  0  0  0
 14  8  1  0  0  0  0
 15 11  2  0  0  0  0
 16 28  1  0  0  0  0
 17 25  1  0  0  0  0
 17  3  2  0  0  0  0
 19 25  1  0  0  0  0
 19 15  1  0  0  0  0
 20 16  2  0  0  0  0
 21  1  2  0  0  0  0
 22 21  1  0  0  0  0
 22  4  2  0  0  0  0
 23 15  1  0  0  0  0
 24  5  1  0  0  0  0
 24 12  1  0  0  0  0
 24 26  1  0  0  0  0
 26 10  1  0  0  0  0
 27  5  1  0  0  0  0
 28 10  1  0  0  0  0
M  END
>  <MODEL>
6

>  <REMARK>
 VINA RESULT:      -5.0      5.031      8.122
  Name = 
  0 active torsions:
  status: ('A' for Active; 'I' for Inactive)
                            x       y       z     vdW  Elec       q    Type
                         _______ _______ _______ _____ _____    ______ ____

>  <TORSDO>
F 0

$$$$
=
 OpenBabel11122411533D

 28 32  0  0  1  0  0  0  0  0999 V2000
  180.8030  180.2210  136.5020 C   0  0  0  0  0  0  0  0  0  0  0  0
  180.6530  179.3880  141.2820 C   0  0  0  0  0  1  0  0  0  0  0  0
  185.4200  175.8550  137.0270 O   0  0  0  0  0  0  0  0  0  0  0  0
  179.9530  182.1720  138.3260 C   0  0  0  0  0  3  0  0  0  0  0  0
  185.5140  177.9870  138.0170 N   0  0  0  0  0  0  0  0  0  0  0  0
  181.2480  179.2760  135.4380 C   0  0  0  0  0  2  0  0  0  0  0  0
  181.7770  177.2250  141.0070 C   0  0  0  0  0  1  0  0  0  0  0  0
  182.0040  178.7360  141.0720 C   0  0  0  0  0  0  0  0  0  0  0  0
  184.1830  178.6650  141.9700 C   0  0  2  0  0  3  0  0  0  0  0  0
  182.6480  179.2790  139.7860 C   0  0  1  0  0  3  0  0  0  0  0  0
  180.9240  175.6670  135.8060 O   0  0  0  0  0  0  0  0  0  0  0  0
  183.3020  178.6990  137.5280 C   0  0  1  0  0  3  0  0  0  0  0  0
  184.7510  179.2890  140.8340 O   0  0  0  0  0  0  0  0  0  0  0  0
  182.8320  179.0760  142.1830 O   0  0  0  0  0  0  0  0  0  0  0  0
  181.4650  176.7990  135.7120 C   0  0  0  0  0  0  0  0  0  0  0  0
  181.2250  180.1320  137.8590 C   0  0  0  0  0  0  0  0  0  0  0  0
  184.8510  176.9310  137.3520 C   0  0  0  0  0  0  0  0  0  0  0  0
  184.9760  178.9830  143.1440 N   0  0  0  0  0  1  0  0  0  0  0  0
  182.9560  176.9110  135.7510 C   0  0  0  0  0  2  0  0  0  0  0  0
  180.7730  181.1270  138.7480 C   0  0  0  0  0  3  0  0  0  0  0  0
  179.9810  181.2760  136.0900 C   0  0  0  0  0  3  0  0  0  0  0  0
  179.5540  182.2450  136.9940 C   0  0  0  0  0  3  0  0  0  0  0  0
  180.6500  177.9660  135.6270 N   0  0  0  0  0  2  0  0  0  0  0  0
  184.5520  179.0100  138.3820 C   0  0  1  0  0  3  0  0  0  0  0  0
  183.4060  177.1990  137.1740 C   0  0  2  0  0  3  0  0  0  0  0  0
  184.0370  178.7370  139.7710 C   0  0  2  0  0  3  0  0  0  0  0  0
  186.8730  177.9220  138.5260 C   0  0  0  0  0  1  0  0  0  0  0  0
  182.0590  178.9660  138.4030 C   0  0  2  0  0  3  0  0  0  0  0  0
  1 16  1  0  0  0  0
  3 17  2  0  0  0  0
  4 20  1  0  0  0  0
  5 24  1  0  0  0  0
  5 27  1  0  0  0  0
  6 23  1  0  0  0  0
  6  1  1  0  0  0  0
  7  8  1  0  0  0  0
  8  2  1  0  0  0  0
  8 14  1  0  0  0  0
  9 14  1  0  0  0  0
  9 18  1  1  0  0  0
 10  8  1  1  0  0  0
 12 24  1  0  0  0  0
 12 28  1  0  0  0  0
 13  9  1  0  0  0  0
 15 19  1  0  0  0  0
 15 11  2  0  0  0  0
 16 28  1  0  0  0  0
 16 20  2  0  0  0  0
 17  5  1  0  0  0  0
 19 25  1  0  0  0  0
 21  1  2  0  0  0  0
 21 22  1  0  0  0  0
 22  4  2  0  0  0  0
 23 15  1  0  0  0  0
 24 26  1  0  0  0  0
 25 17  1  0  0  0  0
 25 12  1  0  0  0  0
 26 10  1  0  0  0  0
 26 13  1  0  0  0  0
 28 10  1  0  0  0  0
M  END
>  <MODEL>
7

>  <REMARK>
 VINA RESULT:      -4.9      5.732      8.994
  Name = 
  0 active torsions:
  status: ('A' for Active; 'I' for Inactive)
                            x       y       z     vdW  Elec       q    Type
                         _______ _______ _______ _____ _____    ______ ____

>  <TORSDO>
F 0

$$$$
=
 OpenBabel11122411533D

 28 32  0  0  1  0  0  0  0  0999 V2000
  190.1550  176.1220  136.1520 C   0  0  0  0  0  0  0  0  0  0  0  0
  187.7680  171.9020  136.3970 C   0  0  0  0  0  1  0  0  0  0  0  0
  184.3790  178.1980  137.8810 O   0  0  0  0  0  0  0  0  0  0  0  0
  190.8820  173.9100  134.5940 C   0  0  0  0  0  3  0  0  0  0  0  0
  184.8300  177.1270  135.8340 N   0  0  0  0  0  0  0  0  0  0  0  0
  189.8580  177.3690  136.9140 C   0  0  0  0  0  2  0  0  0  0  0  0
  186.0440  172.8850  137.8390 C   0  0  0  0  0  1  0  0  0  0  0  0
  186.5230  172.7640  136.3930 C   0  0  0  0  0  0  0  0  0  0  0  0
  184.4060  172.9480  135.3700 C   0  0  2  0  0  3  0  0  0  0  0  0
  186.8420  174.1340  135.7720 C   0  0  1  0  0  3  0  0  0  0  0  0
  188.3140  177.2930  140.2130 O   0  0  0  0  0  0  0  0  0  0  0  0
  187.0790  176.4940  136.2560 C   0  0  1  0  0  3  0  0  0  0  0  0
  184.7540  174.1420  134.6950 O   0  0  0  0  0  0  0  0  0  0  0  0
  185.5410  172.1100  135.5880 O   0  0  0  0  0  0  0  0  0  0  0  0
  188.4490  177.4940  138.9780 C   0  0  0  0  0  0  0  0  0  0  0  0
  189.1850  175.1150  135.8820 C   0  0  0  0  0  0  0  0  0  0  0  0
  185.1610  177.5370  137.1460 C   0  0  0  0  0  0  0  0  0  0  0  0
  183.4140  172.2250  134.5940 N   0  0  0  0  0  1  0  0  0  0  0  0
  187.3290  178.1130  138.2040 C   0  0  0  0  0  2  0  0  0  0  0  0
  189.5880  174.0150  135.1000 C   0  0  0  0  0  3  0  0  0  0  0  0
  191.4510  176.0050  135.6370 C   0  0  0  0  0  3  0  0  0  0  0  0
  191.8160  174.9060  134.8640 C   0  0  0  0  0  3  0  0  0  0  0  0
  189.6440  177.0770  138.3210 N   0  0  0  0  0  2  0  0  0  0  0  0
  185.8720  176.2610  135.3180 C   0  0  1  0  0  3  0  0  0  0  0  0
  186.4780  177.0200  137.5790 C   0  0  2  0  0  3  0  0  0  0  0  0
  185.5290  174.8270  135.6290 C   0  0  2  0  0  3  0  0  0  0  0  0
  183.5220  177.2900  135.2220 C   0  0  0  0  0  1  0  0  0  0  0  0
  187.7720  175.1330  136.4760 C   0  0  2  0  0  3  0  0  0  0  0  0
  1  6  1  0  0  0  0
  4 22  2  0  0  0  0
  4 20  1  0  0  0  0
  5 17  1  0  0  0  0
  6 23  1  0  0  0  0
  8  2  1  0  0  0  0
  8  7  1  0  0  0  0
  9 18  1  6  0  0  0
  9 14  1  0  0  0  0
 10  8  1  1  0  0  0
 10 28  1  0  0  0  0
 12 28  1  0  0  0  0
 12 25  1  0  0  0  0
 13  9  1  0  0  0  0
 13 26  1  0  0  0  0
 14  8  1  0  0  0  0
 15 11  2  0  0  0  0
 16  1  1  0  0  0  0
 16 28  1  0  0  0  0
 17 25  1  0  0  0  0
 17  3  2  0  0  0  0
 19 15  1  0  0  0  0
 20 16  2  0  0  0  0
 21  1  2  0  0  0  0
 22 21  1  0  0  0  0
 23 15  1  0  0  0  0
 24 26  1  0  0  0  0
 24  5  1  0  0  0  0
 24 12  1  0  0  0  0
 25 19  1  0  0  0  0
 26 10  1  0  0  0  0
 27  5  1  0  0  0  0
M  END
>  <MODEL>
8

>  <REMARK>
 VINA RESULT:      -4.7      2.396      5.662
  Name = 
  0 active torsions:
  status: ('A' for Active; 'I' for Inactive)
                            x       y       z     vdW  Elec       q    Type
                         _______ _______ _______ _____ _____    ______ ____

>  <TORSDO>
F 0

$$$$
=
 OpenBabel11122411533D

 28 32  0  0  1  0  0  0  0  0999 V2000
  184.7240  176.4060  137.5510 C   0  0  0  0  0  0  0  0  0  0  0  0
  181.9650  180.2470  138.6450 C   0  0  0  0  0  1  0  0  0  0  0  0
  179.0890  173.5400  138.3860 O   0  0  0  0  0  0  0  0  0  0  0  0
  185.7800  178.6950  138.7760 C   0  0  0  0  0  3  0  0  0  0  0  0
  180.2570  174.6580  140.0950 N   0  0  0  0  0  0  0  0  0  0  0  0
  184.2800  175.1320  136.9170 C   0  0  0  0  0  2  0  0  0  0  0  0
  179.9200  179.0340  138.0390 C   0  0  0  0  0  1  0  0  0  0  0  0
  180.9680  179.2180  139.1370 C   0  0  0  0  0  0  0  0  0  0  0  0
  179.5610  178.7340  140.9660 C   0  0  2  0  0  3  0  0  0  0  0  0
  181.6970  177.9050  139.4660 C   0  0  1  0  0  3  0  0  0  0  0  0
  181.4450  174.9960  134.6350 O   0  0  0  0  0  0  0  0  0  0  0  0
  181.9910  175.6030  138.7760 C   0  0  1  0  0  3  0  0  0  0  0  0
  180.3180  177.6000  141.3430 O   0  0  0  0  0  0  0  0  0  0  0  0
  180.3680  179.7250  140.3290 O   0  0  0  0  0  0  0  0  0  0  0  0
  182.1340  174.8130  135.6710 C   0  0  0  0  0  0  0  0  0  0  0  0
  183.8540  177.2650  138.2820 C   0  0  0  0  0  0  0  0  0  0  0  0
  180.0250  174.3020  138.7470 C   0  0  0  0  0  0  0  0  0  0  0  0
  178.9310  179.3080  142.1420 N   0  0  0  0  0  1  0  0  0  0  0  0
  181.5580  174.0410  136.8150 C   0  0  0  0  0  2  0  0  0  0  0  0
  184.4190  178.4090  138.8790 C   0  0  0  0  0  3  0  0  0  0  0  0
  186.0880  176.7030  137.4570 C   0  0  0  0  0  3  0  0  0  0  0  0
  186.6160  177.8410  138.0620 C   0  0  0  0  0  3  0  0  0  0  0  0
  183.4340  175.3940  135.7660 N   0  0  0  0  0  2  0  0  0  0  0  0
  181.3030  175.6620  140.1590 C   0  0  1  0  0  3  0  0  0  0  0  0
  180.9400  175.0010  137.8170 C   0  0  2  0  0  3  0  0  0  0  0  0
  180.6810  177.0330  140.1230 C   0  0  2  0  0  3  0  0  0  0  0  0
  179.3860  174.3110  141.2050 C   0  0  0  0  0  1  0  0  0  0  0  0
  182.3390  177.0490  138.3640 C   0  0  2  0  0  3  0  0  0  0  0  0
  1 16  1  0  0  0  0
  2  8  1  0  0  0  0
  3 17  2  0  0  0  0
  4 20  1  0  0  0  0
  5 24  1  0  0  0  0
  5 27  1  0  0  0  0
  6  1  1  0  0  0  0
  7  8  1  0  0  0  0
  8 14  1  0  0  0  0
  9 13  1  0  0  0  0
  9 18  1  1  0  0  0
 10  8  1  6  0  0  0
 10 26  1  0  0  0  0
 11 15  2  0  0  0  0
 12 24  1  0  0  0  0
 14  9  1  0  0  0  0
 15 23  1  0  0  0  0
 15 19  1  0  0  0  0
 16 28  1  0  0  0  0
 16 20  2  0  0  0  0
 17  5  1  0  0  0  0
 19 25  1  0  0  0  0
 21  1  2  0  0  0  0
 21 22  1  0  0  0  0
 22  4  2  0  0  0  0
 23  6  1  0  0  0  0
 25 17  1  0  0  0  0
 25 12  1  0  0  0  0
 26 24  1  0  0  0  0
 26 13  1  0  0  0  0
 28 12  1  0  0  0  0
 28 10  1  0  0  0  0
M  END
>  <MODEL>
9

>  <REMARK>
 VINA RESULT:      -4.7      6.087      9.536
  Name = 
  0 active torsions:
  status: ('A' for Active; 'I' for Inactive)
                            x       y       z     vdW  Elec       q    Type
                         _______ _______ _______ _____ _____    ______ ____

>  <TORSDO>
F 0

$$$$
