=
 OpenBabel11122412193D

 34 40  0  0  1  0  0  0  0  0999 V2000
  183.7890  178.6780  143.8400 C   0  0  0  0  0  0  0  0  0  0  0  0
  181.4270  179.1090  142.7490 C   0  0  0  0  0  2  0  0  0  0  0  0
  190.3480  178.0930  143.5780 C   0  0  2  0  0  3  0  0  0  0  0  0
  186.0480  178.2530  144.6780 C   0  0  0  0  0  0  0  0  0  0  0  0
  187.8480  177.8700  143.0720 C   0  0  0  0  0  0  0  0  0  0  0  0
  189.4840  177.8540  141.3280 O   0  0  0  0  0  1  0  0  0  0  0  0
  191.6740  178.3010  142.8620 C   0  0  0  0  0  1  0  0  0  0  0  0
  189.3250  176.7240  145.4730 C   0  0  0  0  0  2  0  0  0  0  0  0
  183.3140  178.6640  141.4560 C   0  0  0  0  0  0  0  0  0  0  0  0
  183.2650  178.8160  138.2890 C   0  0  0  0  0  2  0  0  0  0  0  0
  186.9340  178.0030  142.0690 N   0  0  0  0  0  0  0  0  0  0  0  0
  188.3470  177.8760  145.6070 C   0  0  0  0  0  2  0  0  0  0  0  0
  184.7090  178.4140  141.1740 N   0  0  0  0  0  0  0  0  0  0  0  0
  181.0490  179.3190  141.2840 C   0  0  0  0  0  2  0  0  0  0  0  0
  187.4090  177.9710  144.4260 C   0  0  0  0  0  0  0  0  0  0  0  0
  190.6040  177.1880  144.7830 C   0  0  0  0  0  2  0  0  0  0  0  0
  182.6380  179.6340  139.3350 N   0  0  0  0  0  0  0  0  0  0  0  0
  185.1500  178.3970  143.6010 C   0  0  0  0  0  0  0  0  0  0  0  0
  189.2650  177.4950  142.6640 C   0  0  1  0  0  3  0  0  0  0  0  0
  185.6190  178.2660  142.2850 C   0  0  0  0  0  0  0  0  0  0  0  0
  184.2110  178.6750  146.2240 C   0  0  0  0  0  3  0  0  0  0  0  0
  184.3670  177.8770  138.7940 C   0  0  0  0  0  2  0  0  0  0  0  0
  185.5600  178.3950  145.9890 C   0  0  0  0  0  3  0  0  0  0  0  0
  185.2560  178.5560  139.8230 C   0  0  0  0  0  2  0  0  0  0  0  0
  182.2190  178.7640  140.4480 C   0  0  1  0  0  3  0  0  0  0  0  0
  183.3260  178.8160  145.1530 C   0  0  0  0  0  3  0  0  0  0  0  0
  182.8770  178.8100  142.6910 C   0  0  0  0  0  0  0  0  0  0  0  0
  181.4820  180.2420  138.6830 C   0  0  0  0  0  2  0  0  0  0  0  0
  181.7420  181.7220  138.4640 C   0  0  0  0  0  2  0  0  0  0  0  0
  180.6960  183.7510  135.6740 C   0  0  0  0  0  2  0  0  0  0  0  0
  180.6730  181.4130  136.2300 C   0  0  0  0  0  2  0  0  0  0  0  0
  180.7510  182.2890  137.4630 C   0  0  2  0  0  3  0  0  0  0  0  0
  180.6210  182.3690  135.0650 C   0  0  0  0  0  2  0  0  0  0  0  0
  181.1840  183.6100  137.0380 N   0  0  0  0  0  2  0  0  0  0  0  0
  1 26  1  0  0  0  0
  3  7  1  6  0  0  0
  3 16  1  0  0  0  0
  4 23  2  0  0  0  0
  5 15  2  0  0  0  0
  8 12  1  0  0  0  0
  9 27  2  0  0  0  0
 10 22  1  0  0  0  0
 10 17  1  0  0  0  0
 11 20  2  0  0  0  0
 11  5  1  0  0  0  0
 13  9  1  0  0  0  0
 13 20  1  0  0  0  0
 14  2  1  0  0  0  0
 15  4  1  0  0  0  0
 15 12  1  0  0  0  0
 16  8  1  0  0  0  0
 17 25  1  0  0  0  0
 18  1  2  0  0  0  0
 18  4  1  0  0  0  0
 19  6  1  6  0  0  0
 19  5  1  0  0  0  0
 19  3  1  0  0  0  0
 20 18  1  0  0  0  0
 22 24  1  0  0  0  0
 23 21  1  0  0  0  0
 24 13  1  0  0  0  0
 25 14  1  1  0  0  0
 25  9  1  0  0  0  0
 26 21  2  0  0  0  0
 27  2  1  0  0  0  0
 27  1  1  0  0  0  0
 28 17  1  0  0  0  0
 29 28  1  0  0  0  0
 30 34  1  0  0  0  0
 31 32  1  0  0  0  0
 32 29  1  1  0  0  0
 33 30  1  0  0  0  0
 33 31  1  0  0  0  0
 34 32  1  0  0  0  0
M  END
>  <MODEL>
1

>  <REMARK>
 VINA RESULT:     -10.7      0.000      0.000
  Name = 
  3 active torsions:
  status: ('A' for Active; 'I' for Inactive)
    1  A    between atoms: N_17  and  C_28
    2  A    between atoms: C_28  and  C_29
    3  A    between atoms: C_29  and  C_32
                            x       y       z     vdW  Elec       q    Type
                         _______ _______ _______ _____ _____    ______ ____

>  <TORSDO>
F 3

$$$$
=
 OpenBabel11122412193D

 34 40  0  0  1  0  0  0  0  0999 V2000
  188.7630  177.5710  143.4890 C   0  0  0  0  0  0  0  0  0  0  0  0
  191.2690  177.1250  142.7990 C   0  0  0  0  0  2  0  0  0  0  0  0
  182.3640  178.3790  142.1350 C   0  0  2  0  0  3  0  0  0  0  0  0
  186.4020  178.0220  143.9490 C   0  0  0  0  0  0  0  0  0  0  0  0
  184.9180  178.5490  142.0810 C   0  0  0  0  0  0  0  0  0  0  0  0
  183.6110  178.7110  140.0860 O   0  0  0  0  0  1  0  0  0  0  0  0
  181.1790  178.2520  141.1900 C   0  0  0  0  0  1  0  0  0  0  0  0
  183.0720  179.6090  144.2550 C   0  0  0  0  0  2  0  0  0  0  0  0
  189.6460  177.7000  141.2280 C   0  0  0  0  0  0  0  0  0  0  0  0
  190.2420  177.7180  138.1130 C   0  0  0  0  0  2  0  0  0  0  0  0
  185.9900  178.4410  141.2450 N   0  0  0  0  0  0  0  0  0  0  0  0
  183.9860  178.4210  144.4880 C   0  0  0  0  0  2  0  0  0  0  0  0
  188.3270  178.0090  140.7250 N   0  0  0  0  0  0  0  0  0  0  0  0
  191.8910  176.9830  141.4110 C   0  0  0  0  0  2  0  0  0  0  0  0
  185.1130  178.3600  143.4830 C   0  0  0  0  0  0  0  0  0  0  0  0
  181.9230  179.2240  143.3290 C   0  0  0  0  0  2  0  0  0  0  0  0
  190.6590  176.8250  139.2010 N   0  0  0  0  0  0  0  0  0  0  0  0
  187.4710  177.9080  143.0360 C   0  0  0  0  0  0  0  0  0  0  0  0
  183.6030  178.9900  141.4580 C   0  0  1  0  0  3  0  0  0  0  0  0
  187.2410  178.1250  141.6690 C   0  0  0  0  0  0  0  0  0  0  0  0
  187.9330  177.4590  145.7610 C   0  0  0  0  0  3  0  0  0  0  0  0
  189.0900  178.6630  138.4750 C   0  0  0  0  0  2  0  0  0  0  0  0
  186.6520  177.7940  145.3130 C   0  0  0  0  0  3  0  0  0  0  0  0
  188.0200  177.9580  139.2940 C   0  0  0  0  0  2  0  0  0  0  0  0
  190.8980  177.6200  140.4190 C   0  0  1  0  0  3  0  0  0  0  0  0
  188.9870  177.3480  144.8520 C   0  0  0  0  0  3  0  0  0  0  0  0
  189.8580  177.4730  142.5090 C   0  0  0  0  0  0  0  0  0  0  0  0
  191.8970  176.2170  138.7240 C   0  0  0  0  0  2  0  0  0  0  0  0
  192.0120  176.4120  137.2220 C   0  0  0  0  0  2  0  0  0  0  0  0
  195.2140  174.7670  137.0330 C   0  0  0  0  0  2  0  0  0  0  0  0
  192.9220  174.0880  137.2810 C   0  0  0  0  0  2  0  0  0  0  0  0
  193.0430  175.4580  136.6450 C   0  0  2  0  0  3  0  0  0  0  0  0
  194.3400  173.6330  137.5190 C   0  0  0  0  0  2  0  0  0  0  0  0
  194.3810  175.9540  136.9230 N   0  0  0  0  0  2  0  0  0  0  0  0
  1 26  1  0  0  0  0
  3  7  1  6  0  0  0
  3 16  1  0  0  0  0
  4 23  2  0  0  0  0
  5 15  2  0  0  0  0
  8 12  1  0  0  0  0
  9 27  2  0  0  0  0
 10 22  1  0  0  0  0
 10 17  1  0  0  0  0
 11 20  2  0  0  0  0
 11  5  1  0  0  0  0
 13  9  1  0  0  0  0
 13 20  1  0  0  0  0
 14  2  1  0  0  0  0
 15  4  1  0  0  0  0
 15 12  1  0  0  0  0
 16  8  1  0  0  0  0
 17 25  1  0  0  0  0
 18  1  2  0  0  0  0
 18  4  1  0  0  0  0
 19  6  1  6  0  0  0
 19  5  1  0  0  0  0
 19  3  1  0  0  0  0
 20 18  1  0  0  0  0
 22 24  1  0  0  0  0
 23 21  1  0  0  0  0
 24 13  1  0  0  0  0
 25  9  1  0  0  0  0
 25 14  1  1  0  0  0
 26 21  2  0  0  0  0
 27  2  1  0  0  0  0
 27  1  1  0  0  0  0
 28 17  1  0  0  0  0
 29 28  1  0  0  0  0
 30 33  1  0  0  0  0
 31 33  1  0  0  0  0
 32 34  1  0  0  0  0
 32 29  1  1  0  0  0
 32 31  1  0  0  0  0
 34 30  1  0  0  0  0
M  END
>  <MODEL>
2

>  <REMARK>
 VINA RESULT:     -10.2      3.826      8.621
  Name = 
  3 active torsions:
  status: ('A' for Active; 'I' for Inactive)
    1  A    between atoms: N_17  and  C_28
    2  A    between atoms: C_28  and  C_29
    3  A    between atoms: C_29  and  C_32
                            x       y       z     vdW  Elec       q    Type
                         _______ _______ _______ _____ _____    ______ ____

>  <TORSDO>
F 3

$$$$
=
 OpenBabel11122412193D

 34 40  0  0  1  0  0  0  0  0999 V2000
  188.7110  177.5670  143.5210 C   0  0  0  0  0  0  0  0  0  0  0  0
  191.2150  177.1250  142.8190 C   0  0  0  0  0  2  0  0  0  0  0  0
  182.3110  178.4070  142.1930 C   0  0  2  0  0  3  0  0  0  0  0  0
  186.3520  178.0160  143.9920 C   0  0  0  0  0  0  0  0  0  0  0  0
  184.8650  178.5730  142.1360 C   0  0  0  0  0  0  0  0  0  0  0  0
  183.5540  178.7660  140.1450 O   0  0  0  0  0  1  0  0  0  0  0  0
  181.1240  178.2970  141.2490 C   0  0  0  0  0  1  0  0  0  0  0  0
  183.0270  179.6070  144.3280 C   0  0  0  0  0  2  0  0  0  0  0  0
  189.5890  177.7250  141.2600 C   0  0  0  0  0  0  0  0  0  0  0  0
  190.1780  177.7860  138.1440 C   0  0  0  0  0  2  0  0  0  0  0  0
  185.9350  178.4750  141.2960 N   0  0  0  0  0  0  0  0  0  0  0  0
  183.9390  178.4130  144.5420 C   0  0  0  0  0  2  0  0  0  0  0  0
  188.2700  178.0450  140.7640 N   0  0  0  0  0  0  0  0  0  0  0  0
  191.8330  177.0010  141.4280 C   0  0  0  0  0  2  0  0  0  0  0  0
  185.0620  178.3640  143.5340 C   0  0  0  0  0  0  0  0  0  0  0  0
  181.8740  179.2370  143.4000 C   0  0  0  0  0  2  0  0  0  0  0  0
  190.5960  176.8770  139.2190 N   0  0  0  0  0  0  0  0  0  0  0  0
  187.4190  177.9130  143.0760 C   0  0  0  0  0  0  0  0  0  0  0  0
  183.5500  179.0260  141.5220 C   0  0  1  0  0  3  0  0  0  0  0  0
  187.1860  178.1500  141.7120 C   0  0  0  0  0  0  0  0  0  0  0  0
  187.8850  177.4250  145.7930 C   0  0  0  0  0  3  0  0  0  0  0  0
  189.0300  178.7280  138.5220 C   0  0  0  0  0  2  0  0  0  0  0  0
  186.6050  177.7680  145.3530 C   0  0  0  0  0  3  0  0  0  0  0  0
  187.9600  178.0150  139.3330 C   0  0  0  0  0  2  0  0  0  0  0  0
  190.8390  177.6540  140.4470 C   0  0  1  0  0  3  0  0  0  0  0  0
  188.9380  177.3240  144.8800 C   0  0  0  0  0  3  0  0  0  0  0  0
  189.8040  177.4800  142.5370 C   0  0  0  0  0  0  0  0  0  0  0  0
  191.8310  176.2730  138.7300 C   0  0  0  0  0  2  0  0  0  0  0  0
  191.8820  176.3740  137.2160 C   0  0  0  0  0  2  0  0  0  0  0  0
  189.9740  173.3460  136.7840 C   0  0  0  0  0  2  0  0  0  0  0  0
  190.6010  175.2170  135.4120 C   0  0  0  0  0  2  0  0  0  0  0  0
  191.5400  175.0340  136.5870 C   0  0  2  0  0  3  0  0  0  0  0  0
  189.5900  174.1050  135.5340 C   0  0  0  0  0  2  0  0  0  0  0  0
  190.8650  174.1930  137.5620 N   0  0  0  0  0  2  0  0  0  0  0  0
  1 26  1  0  0  0  0
  3  7  1  6  0  0  0
  3 16  1  0  0  0  0
  4 23  2  0  0  0  0
  5 15  2  0  0  0  0
  8 12  1  0  0  0  0
  9 27  2  0  0  0  0
 10 22  1  0  0  0  0
 10 17  1  0  0  0  0
 11 20  2  0  0  0  0
 11  5  1  0  0  0  0
 13  9  1  0  0  0  0
 13 20  1  0  0  0  0
 14  2  1  0  0  0  0
 15  4  1  0  0  0  0
 15 12  1  0  0  0  0
 16  8  1  0  0  0  0
 17 25  1  0  0  0  0
 18  1  2  0  0  0  0
 18  4  1  0  0  0  0
 19  6  1  6  0  0  0
 19  5  1  0  0  0  0
 19  3  1  0  0  0  0
 20 18  1  0  0  0  0
 22 24  1  0  0  0  0
 23 21  1  0  0  0  0
 24 13  1  0  0  0  0
 25  9  1  0  0  0  0
 25 14  1  1  0  0  0
 26 21  2  0  0  0  0
 27  2  1  0  0  0  0
 27  1  1  0  0  0  0
 28 17  1  0  0  0  0
 29 28  1  0  0  0  0
 30 34  1  0  0  0  0
 31 33  1  0  0  0  0
 31 32  1  0  0  0  0
 32 29  1  1  0  0  0
 32 34  1  0  0  0  0
 33 30  1  0  0  0  0
M  END
>  <MODEL>
3

>  <REMARK>
 VINA RESULT:      -9.8      3.654      7.955
  Name = 
  3 active torsions:
  status: ('A' for Active; 'I' for Inactive)
    1  A    between atoms: N_17  and  C_28
    2  A    between atoms: C_28  and  C_29
    3  A    between atoms: C_29  and  C_32
                            x       y       z     vdW  Elec       q    Type
                         _______ _______ _______ _____ _____    ______ ____

>  <TORSDO>
F 3

$$$$
=
 OpenBabel11122412193D

 34 40  0  0  1  0  0  0  0  0999 V2000
  189.8660  176.9180  141.4580 C   0  0  0  0  0  0  0  0  0  0  0  0
  191.5850  176.4510  139.5140 C   0  0  0  0  0  2  0  0  0  0  0  0
  183.8800  178.4610  143.7450 C   0  0  2  0  0  3  0  0  0  0  0  0
  188.1560  177.4290  143.1330 C   0  0  0  0  0  0  0  0  0  0  0  0
  186.0610  178.4540  142.4040 C   0  0  0  0  0  0  0  0  0  0  0  0
  183.9920  179.1370  141.4220 O   0  0  0  0  0  1  0  0  0  0  0  0
  182.3820  178.6280  143.5420 C   0  0  0  0  0  1  0  0  0  0  0  0
  185.7410  179.1510  145.3490 C   0  0  0  0  0  2  0  0  0  0  0  0
  189.5260  177.4670  139.1150 C   0  0  0  0  0  0  0  0  0  0  0  0
  188.5030  178.1140  136.1830 C   0  0  0  0  0  2  0  0  0  0  0  0
  186.5450  178.4510  141.1300 N   0  0  0  0  0  0  0  0  0  0  0  0
  186.4300  177.8770  144.8960 C   0  0  0  0  0  2  0  0  0  0  0  0
  188.2070  177.9730  139.4180 N   0  0  0  0  0  0  0  0  0  0  0  0
  191.4070  176.5670  138.0020 C   0  0  0  0  0  2  0  0  0  0  0  0
  186.8850  177.9530  143.4580 C   0  0  0  0  0  0  0  0  0  0  0  0
  184.2380  179.0590  145.1060 C   0  0  0  0  0  2  0  0  0  0  0  0
  189.2410  176.9790  136.7520 N   0  0  0  0  0  0  0  0  0  0  0  0
  188.5990  177.4380  141.7940 C   0  0  0  0  0  0  0  0  0  0  0  0
  184.7090  179.1130  142.6240 C   0  0  1  0  0  3  0  0  0  0  0  0
  187.7660  177.9610  140.7930 C   0  0  0  0  0  0  0  0  0  0  0  0
  190.2570  176.3790  143.7860 C   0  0  0  0  0  3  0  0  0  0  0  0
  187.8630  179.0400  137.2240 C   0  0  0  0  0  2  0  0  0  0  0  0
  189.0020  176.8940  144.1210 C   0  0  0  0  0  3  0  0  0  0  0  0
  187.2320  178.2550  138.3630 C   0  0  0  0  0  2  0  0  0  0  0  0
  190.1820  177.4730  137.7740 C   0  0  1  0  0  3  0  0  0  0  0  0
  190.6900  176.3910  142.4580 C   0  0  0  0  0  3  0  0  0  0  0  0
  190.2990  176.9540  140.0510 C   0  0  0  0  0  0  0  0  0  0  0  0
  189.9560  176.4010  135.6200 C   0  0  0  0  0  2  0  0  0  0  0  0
  189.2960  175.0950  135.2150 C   0  0  0  0  0  2  0  0  0  0  0  0
  186.7010  173.1280  136.7620 C   0  0  0  0  0  2  0  0  0  0  0  0
  189.1010  173.2110  136.8410 C   0  0  0  0  0  2  0  0  0  0  0  0
  188.5030  174.5230  136.3780 C   0  0  2  0  0  3  0  0  0  0  0  0
  187.9230  172.3080  137.1070 C   0  0  0  0  0  2  0  0  0  0  0  0
  187.1370  174.2590  135.9570 N   0  0  0  0  0  2  0  0  0  0  0  0
  1 18  2  0  0  0  0
  1 26  1  0  0  0  0
  2 27  1  0  0  0  0
  3  7  1  6  0  0  0
  3 16  1  0  0  0  0
  4 15  1  0  0  0  0
  4 23  2  0  0  0  0
  5 19  1  0  0  0  0
  5 15  2  0  0  0  0
  9 13  1  0  0  0  0
  9 27  2  0  0  0  0
 10 17  1  0  0  0  0
 10 22  1  0  0  0  0
 11  5  1  0  0  0  0
 12  8  1  0  0  0  0
 13 20  1  0  0  0  0
 14  2  1  0  0  0  0
 15 12  1  0  0  0  0
 16  8  1  0  0  0  0
 17 25  1  0  0  0  0
 18  4  1  0  0  0  0
 19  6  1  6  0  0  0
 19  3  1  0  0  0  0
 20 11  2  0  0  0  0
 20 18  1  0  0  0  0
 21 23  1  0  0  0  0
 22 24  1  0  0  0  0
 24 13  1  0  0  0  0
 25 14  1  1  0  0  0
 25  9  1  0  0  0  0
 26 21  2  0  0  0  0
 27  1  1  0  0  0  0
 28 17  1  0  0  0  0
 29 28  1  0  0  0  0
 30 33  1  0  0  0  0
 31 33  1  0  0  0  0
 32 29  1  6  0  0  0
 32 31  1  0  0  0  0
 34 32  1  0  0  0  0
 34 30  1  0  0  0  0
M  END
>  <MODEL>
4

>  <REMARK>
 VINA RESULT:      -9.8      3.944      7.523
  Name = 
  3 active torsions:
  status: ('A' for Active; 'I' for Inactive)
    1  A    between atoms: N_17  and  C_28
    2  A    between atoms: C_28  and  C_29
    3  A    between atoms: C_29  and  C_32
                            x       y       z     vdW  Elec       q    Type
                         _______ _______ _______ _____ _____    ______ ____

>  <TORSDO>
F 3

$$$$
=
 OpenBabel11122412193D

 34 40  0  0  1  0  0  0  0  0999 V2000
  183.7960  178.6270  143.9060 C   0  0  0  0  0  0  0  0  0  0  0  0
  185.3230  178.4750  146.0510 C   0  0  0  0  0  2  0  0  0  0  0  0
  182.6800  177.9590  137.4450 C   0  0  2  0  0  3  0  0  0  0  0  0
  182.5350  178.7530  141.8120 C   0  0  0  0  0  0  0  0  0  0  0  0
  183.7420  178.5560  139.6970 C   0  0  0  0  0  0  0  0  0  0  0  0
  185.0770  178.0100  137.7900 O   0  0  0  0  0  1  0  0  0  0  0  0
  183.0620  177.4070  136.0800 C   0  0  0  0  0  1  0  0  0  0  0  0
  181.2160  179.7600  138.5030 C   0  0  0  0  0  2  0  0  0  0  0  0
  186.2130  178.3690  143.8990 C   0  0  0  0  0  0  0  0  0  0  0  0
  189.2780  177.7530  143.3690 C   0  0  0  0  0  2  0  0  0  0  0  0
  184.8990  178.4420  140.4090 N   0  0  0  0  0  0  0  0  0  0  0  0
  181.1740  178.8400  139.7090 C   0  0  0  0  0  2  0  0  0  0  0  0
  186.2090  178.3150  142.4560 N   0  0  0  0  0  0  0  0  0  0  0  0
  186.8030  178.1200  146.1750 C   0  0  0  0  0  2  0  0  0  0  0  0
  182.5130  178.7410  140.4000 C   0  0  0  0  0  0  0  0  0  0  0  0
  181.5540  178.9720  137.2420 C   0  0  0  0  0  2  0  0  0  0  0  0
  188.3120  177.2300  144.3430 N   0  0  0  0  0  0  0  0  0  0  0  0
  183.7600  178.6160  142.4970 C   0  0  0  0  0  0  0  0  0  0  0  0
  183.8690  178.6000  138.1820 C   0  0  1  0  0  3  0  0  0  0  0  0
  184.9480  178.4590  141.7660 C   0  0  0  0  0  0  0  0  0  0  0  0
  181.3920  178.9120  143.9590 C   0  0  0  0  0  3  0  0  0  0  0  0
  188.6500  178.5400  142.2130 C   0  0  0  0  0  2  0  0  0  0  0  0
  181.3560  178.9020  142.5620 C   0  0  0  0  0  3  0  0  0  0  0  0
  187.3840  177.8740  141.7010 C   0  0  0  0  0  2  0  0  0  0  0  0
  187.4190  178.3200  144.7770 C   0  0  1  0  0  3  0  0  0  0  0  0
  182.6090  178.7750  144.6310 C   0  0  0  0  0  3  0  0  0  0  0  0
  185.0950  178.4920  144.5870 C   0  0  0  0  0  0  0  0  0  0  0  0
  189.1300  176.7530  145.4530 C   0  0  0  0  0  2  0  0  0  0  0  0
  190.1490  177.8150  145.8270 C   0  0  0  0  0  2  0  0  0  0  0  0
  192.4300  175.6280  147.5620 C   0  0  0  0  0  2  0  0  0  0  0  0
  191.6820  175.9190  145.2960 C   0  0  0  0  0  2  0  0  0  0  0  0
  191.4940  177.1750  146.1210 C   0  0  2  0  0  3  0  0  0  0  0  0
  192.3070  174.9160  146.2340 C   0  0  0  0  0  2  0  0  0  0  0  0
  191.5590  176.7940  147.5230 N   0  0  0  0  0  2  0  0  0  0  0  0
  1 27  1  0  0  0  0
  1 26  1  0  0  0  0
  2 14  1  0  0  0  0
  3  7  1  6  0  0  0
  3 19  1  0  0  0  0
  4 18  1  0  0  0  0
  4 23  2  0  0  0  0
  5 15  2  0  0  0  0
  5 11  1  0  0  0  0
  8 12  1  0  0  0  0
  9 27  2  0  0  0  0
  9 25  1  0  0  0  0
 10 17  1  0  0  0  0
 11 20  2  0  0  0  0
 12 15  1  0  0  0  0
 13  9  1  0  0  0  0
 15  4  1  0  0  0  0
 16  3  1  0  0  0  0
 16  8  1  0  0  0  0
 17 25  1  0  0  0  0
 17 28  1  0  0  0  0
 18  1  2  0  0  0  0
 19  6  1  1  0  0  0
 19  5  1  0  0  0  0
 20 13  1  0  0  0  0
 20 18  1  0  0  0  0
 21 26  2  0  0  0  0
 22 10  1  0  0  0  0
 23 21  1  0  0  0  0
 24 22  1  0  0  0  0
 24 13  1  0  0  0  0
 25 14  1  1  0  0  0
 27  2  1  0  0  0  0
 28 29  1  0  0  0  0
 31 32  1  0  0  0  0
 31 33  1  0  0  0  0
 32 29  1  1  0  0  0
 32 34  1  0  0  0  0
 33 30  1  0  0  0  0
 34 30  1  0  0  0  0
M  END
>  <MODEL>
5

>  <REMARK>
 VINA RESULT:      -9.8      2.301      8.999
  Name = 
  3 active torsions:
  status: ('A' for Active; 'I' for Inactive)
    1  A    between atoms: N_17  and  C_28
    2  A    between atoms: C_28  and  C_29
    3  A    between atoms: C_29  and  C_32
                            x       y       z     vdW  Elec       q    Type
                         _______ _______ _______ _____ _____    ______ ____

>  <TORSDO>
F 3

$$$$
=
 OpenBabel11122412193D

 34 40  0  0  1  0  0  0  0  0999 V2000
  185.3960  178.5420  142.1000 C   0  0  0  0  0  0  0  0  0  0  0  0
  185.0950  178.6740  139.4830 C   0  0  0  0  0  2  0  0  0  0  0  0
  189.0550  178.1420  147.5660 C   0  0  2  0  0  3  0  0  0  0  0  0
  185.8530  178.3640  144.4970 C   0  0  0  0  0  0  0  0  0  0  0  0
  188.1000  177.7400  145.2250 C   0  0  0  0  0  0  0  0  0  0  0  0
  190.4260  177.4440  145.6950 O   0  0  0  0  0  1  0  0  0  0  0  0
  190.3930  178.2530  148.2820 C   0  0  0  0  0  1  0  0  0  0  0  0
  186.7330  177.1300  147.8740 C   0  0  0  0  0  2  0  0  0  0  0  0
  187.1190  178.0520  140.4570 C   0  0  0  0  0  0  0  0  0  0  0  0
  189.7460  177.5890  138.7410 C   0  0  0  0  0  2  0  0  0  0  0  0
  188.4600  177.6460  143.9140 N   0  0  0  0  0  0  0  0  0  0  0  0
  186.2630  178.2520  146.9690 C   0  0  0  0  0  2  0  0  0  0  0  0
  188.0670  177.8000  141.5180 N   0  0  0  0  0  0  0  0  0  0  0  0
  186.1390  178.5840  138.3730 C   0  0  0  0  0  2  0  0  0  0  0  0
  186.7530  178.0860  145.5500 C   0  0  0  0  0  0  0  0  0  0  0  0
  188.0610  177.4960  148.5310 C   0  0  0  0  0  2  0  0  0  0  0  0
  188.6580  178.5720  138.6510 N   0  0  0  0  0  0  0  0  0  0  0  0
  186.2850  178.2670  143.1590 C   0  0  0  0  0  0  0  0  0  0  0  0
  189.1460  177.3420  146.2550 C   0  0  1  0  0  3  0  0  0  0  0  0
  187.6120  177.9010  142.8840 C   0  0  0  0  0  0  0  0  0  0  0  0
  183.6420  179.0130  143.7010 C   0  0  0  0  0  3  0  0  0  0  0  0
  189.7830  176.8030  140.0570 C   0  0  0  0  0  2  0  0  0  0  0  0
  184.5220  178.7400  144.7520 C   0  0  0  0  0  3  0  0  0  0  0  0
  189.5040  177.6970  141.2540 C   0  0  0  0  0  2  0  0  0  0  0  0
  187.3820  177.9180  138.9940 C   0  0  1  0  0  3  0  0  0  0  0  0
  184.0770  178.9140  142.3770 C   0  0  0  0  0  3  0  0  0  0  0  0
  185.8800  178.4190  140.7140 C   0  0  0  0  0  0  0  0  0  0  0  0
  188.6670  179.0020  137.2570 C   0  0  0  0  0  2  0  0  0  0  0  0
  189.4300  177.9930  136.4180 C   0  0  0  0  0  2  0  0  0  0  0  0
  186.6720  175.9500  135.3160 C   0  0  0  0  0  2  0  0  0  0  0  0
  187.3260  178.2530  135.1010 C   0  0  0  0  0  2  0  0  0  0  0  0
  188.5080  177.3520  135.3960 C   0  0  2  0  0  3  0  0  0  0  0  0
  186.1320  177.3340  135.0330 C   0  0  0  0  0  2  0  0  0  0  0  0
  187.9860  176.1010  135.9220 N   0  0  0  0  0  2  0  0  0  0  0  0
  1 26  2  0  0  0  0
  1 18  1  0  0  0  0
  2 27  1  0  0  0  0
  3  7  1  1  0  0  0
  3 16  1  0  0  0  0
  4 23  1  0  0  0  0
  4 15  1  0  0  0  0
  5 15  2  0  0  0  0
  5 19  1  0  0  0  0
  8 16  1  0  0  0  0
  9 27  2  0  0  0  0
  9 13  1  0  0  0  0
 10 22  1  0  0  0  0
 11  5  1  0  0  0  0
 12  8  1  0  0  0  0
 13 20  1  0  0  0  0
 14  2  1  0  0  0  0
 15 12  1  0  0  0  0
 17 10  1  0  0  0  0
 17 25  1  0  0  0  0
 18  4  2  0  0  0  0
 19  6  1  6  0  0  0
 19  3  1  0  0  0  0
 20 18  1  0  0  0  0
 20 11  2  0  0  0  0
 21 23  2  0  0  0  0
 22 24  1  0  0  0  0
 24 13  1  0  0  0  0
 25 14  1  6  0  0  0
 25  9  1  0  0  0  0
 26 21  1  0  0  0  0
 27  1  1  0  0  0  0
 28 17  1  0  0  0  0
 29 28  1  0  0  0  0
 30 34  1  0  0  0  0
 31 32  1  0  0  0  0
 32 34  1  0  0  0  0
 32 29  1  1  0  0  0
 33 31  1  0  0  0  0
 33 30  1  0  0  0  0
M  END
>  <MODEL>
6

>  <REMARK>
 VINA RESULT:      -9.6      3.606      5.313
  Name = 
  3 active torsions:
  status: ('A' for Active; 'I' for Inactive)
    1  A    between atoms: N_17  and  C_28
    2  A    between atoms: C_28  and  C_29
    3  A    between atoms: C_29  and  C_32
                            x       y       z     vdW  Elec       q    Type
                         _______ _______ _______ _____ _____    ______ ____

>  <TORSDO>
F 3

$$$$
=
 OpenBabel11122412193D

 34 40  0  0  1  0  0  0  0  0999 V2000
  189.9180  176.9210  141.6230 C   0  0  0  0  0  0  0  0  0  0  0  0
  191.6920  176.4650  139.7250 C   0  0  0  0  0  2  0  0  0  0  0  0
  183.8670  178.4330  143.7500 C   0  0  2  0  0  3  0  0  0  0  0  0
  188.1620  177.4210  143.2520 C   0  0  0  0  0  0  0  0  0  0  0  0
  186.0830  178.4380  142.4690 C   0  0  0  0  0  0  0  0  0  0  0  0
  184.0380  179.1150  141.4320 O   0  0  0  0  0  1  0  0  0  0  0  0
  182.3740  178.5940  143.5070 C   0  0  0  0  0  1  0  0  0  0  0  0
  185.6810  179.1270  145.4050 C   0  0  0  0  0  2  0  0  0  0  0  0
  189.6400  177.4730  139.2720 C   0  0  0  0  0  0  0  0  0  0  0  0
  188.6940  178.1230  136.3150 C   0  0  0  0  0  2  0  0  0  0  0  0
  186.6010  178.4400  141.2080 N   0  0  0  0  0  0  0  0  0  0  0  0
  186.3870  177.8570  144.9680 C   0  0  0  0  0  2  0  0  0  0  0  0
  188.3110  177.9730  139.5410 N   0  0  0  0  0  0  0  0  0  0  0  0
  191.5550  176.5840  138.2090 C   0  0  0  0  0  2  0  0  0  0  0  0
  186.8810  177.9380  143.5430 C   0  0  0  0  0  0  0  0  0  0  0  0
  184.1850  179.0290  145.1210 C   0  0  0  0  0  2  0  0  0  0  0  0
  189.4220  176.9900  136.9020 N   0  0  0  0  0  0  0  0  0  0  0  0
  188.6410  177.4340  141.9260 C   0  0  0  0  0  0  0  0  0  0  0  0
  184.7230  179.0910  142.6530 C   0  0  1  0  0  3  0  0  0  0  0  0
  187.8330  177.9560  140.9030 C   0  0  0  0  0  0  0  0  0  0  0  0
  190.2490  176.3780  143.9590 C   0  0  0  0  0  3  0  0  0  0  0  0
  188.0220  179.0430  137.3410 C   0  0  0  0  0  2  0  0  0  0  0  0
  188.9830  176.8870  144.2610 C   0  0  0  0  0  3  0  0  0  0  0  0
  187.3640  178.2530  138.4600 C   0  0  0  0  0  2  0  0  0  0  0  0
  190.3320  177.4850  137.9490 C   0  0  1  0  0  3  0  0  0  0  0  0
  190.7170  176.3940  142.6430 C   0  0  0  0  0  3  0  0  0  0  0  0
  190.3900  176.9620  140.2280 C   0  0  0  0  0  0  0  0  0  0  0  0
  190.1700  176.4170  135.7880 C   0  0  0  0  0  2  0  0  0  0  0  0
  189.6250  175.0370  135.4660 C   0  0  0  0  0  2  0  0  0  0  0  0
  193.0740  174.0480  135.1250 C   0  0  0  0  0  2  0  0  0  0  0  0
  191.1970  173.3780  136.4680 C   0  0  0  0  0  2  0  0  0  0  0  0
  190.7640  174.0710  135.1930 C   0  0  2  0  0  3  0  0  0  0  0  0
  192.7040  173.3500  136.4140 C   0  0  0  0  0  2  0  0  0  0  0  0
  191.9120  174.7990  134.6770 N   0  0  0  0  0  2  0  0  0  0  0  0
  1 18  2  0  0  0  0
  1 26  1  0  0  0  0
  2 27  1  0  0  0  0
  3  7  1  6  0  0  0
  3 16  1  0  0  0  0
  4 15  1  0  0  0  0
  4 23  2  0  0  0  0
  5 19  1  0  0  0  0
  5 15  2  0  0  0  0
  9 13  1  0  0  0  0
  9 27  2  0  0  0  0
 10 17  1  0  0  0  0
 10 22  1  0  0  0  0
 11  5  1  0  0  0  0
 12  8  1  0  0  0  0
 13 20  1  0  0  0  0
 14  2  1  0  0  0  0
 15 12  1  0  0  0  0
 16  8  1  0  0  0  0
 17 25  1  0  0  0  0
 18  4  1  0  0  0  0
 19  6  1  6  0  0  0
 19  3  1  0  0  0  0
 20 11  2  0  0  0  0
 20 18  1  0  0  0  0
 21 23  1  0  0  0  0
 22 24  1  0  0  0  0
 24 13  1  0  0  0  0
 25 14  1  1  0  0  0
 25  9  1  0  0  0  0
 26 21  2  0  0  0  0
 27  1  1  0  0  0  0
 28 17  1  0  0  0  0
 29 28  1  0  0  0  0
 30 33  1  0  0  0  0
 32 29  1  1  0  0  0
 32 31  1  0  0  0  0
 33 31  1  0  0  0  0
 34 30  1  0  0  0  0
 34 32  1  0  0  0  0
M  END
>  <MODEL>
7

>  <REMARK>
 VINA RESULT:      -9.6      4.458      8.167
  Name = 
  3 active torsions:
  status: ('A' for Active; 'I' for Inactive)
    1  A    between atoms: N_17  and  C_28
    2  A    between atoms: C_28  and  C_29
    3  A    between atoms: C_29  and  C_32
                            x       y       z     vdW  Elec       q    Type
                         _______ _______ _______ _____ _____    ______ ____

>  <TORSDO>
F 3

$$$$
=
 OpenBabel11122412193D

 34 40  0  0  1  0  0  0  0  0999 V2000
  186.8880  178.3320  140.3850 C   0  0  0  0  0  0  0  0  0  0  0  0
  184.6390  178.8100  139.0920 C   0  0  0  0  0  2  0  0  0  0  0  0
  190.3290  176.8030  145.7940 C   0  0  2  0  0  3  0  0  0  0  0  0
  188.8780  177.9110  141.7450 C   0  0  0  0  0  0  0  0  0  0  0  0
  188.6560  177.8740  144.1780 C   0  0  0  0  0  0  0  0  0  0  0  0
  188.1360  177.5590  146.4900 O   0  0  0  0  0  1  0  0  0  0  0  0
  190.4030  176.2620  147.2130 C   0  0  0  0  0  1  0  0  0  0  0  0
  191.6800  178.2060  144.1450 C   0  0  0  0  0  2  0  0  0  0  0  0
  184.7320  178.7670  141.4210 C   0  0  0  0  0  0  0  0  0  0  0  0
  182.1290  178.9970  143.2190 C   0  0  0  0  0  2  0  0  0  0  0  0
  187.3310  178.1550  144.0260 N   0  0  0  0  0  0  0  0  0  0  0  0
  190.9480  177.4220  143.0730 C   0  0  0  0  0  2  0  0  0  0  0  0
  185.3170  178.5860  142.7290 N   0  0  0  0  0  0  0  0  0  0  0  0
  183.2080  178.8990  139.6180 C   0  0  0  0  0  2  0  0  0  0  0  0
  189.4780  177.7670  143.0150 C   0  0  0  0  0  0  0  0  0  0  0  0
  191.6800  177.4350  145.4620 C   0  0  0  0  0  2  0  0  0  0  0  0
  182.4050  178.3120  141.9490 N   0  0  0  0  0  0  0  0  0  0  0  0
  187.4980  178.1860  141.6470 C   0  0  0  0  0  0  0  0  0  0  0  0
  189.1870  177.8170  145.6020 C   0  0  1  0  0  3  0  0  0  0  0  0
  186.7320  178.3070  142.8170 C   0  0  0  0  0  0  0  0  0  0  0  0
  189.0210  177.9310  139.3120 C   0  0  0  0  0  3  0  0  0  0  0  0
  183.3800  179.4680  143.9690 C   0  0  0  0  0  2  0  0  0  0  0  0
  189.6270  177.7870  140.5620 C   0  0  0  0  0  3  0  0  0  0  0  0
  184.4880  178.4290  143.9260 C   0  0  0  0  0  2  0  0  0  0  0  0
  183.3150  179.1390  141.1370 C   0  0  1  0  0  3  0  0  0  0  0  0
  187.6540  178.2040  139.2220 C   0  0  0  0  0  3  0  0  0  0  0  0
  185.4460  178.6310  140.3220 C   0  0  0  0  0  0  0  0  0  0  0  0
  181.1010  178.1850  141.3090 C   0  0  0  0  0  2  0  0  0  0  0  0
  180.1050  179.0990  142.0000 C   0  0  0  0  0  2  0  0  0  0  0  0
  179.4570  181.7020  139.5910 C   0  0  0  0  0  2  0  0  0  0  0  0
  179.5160  179.2990  139.5830 C   0  0  0  0  0  2  0  0  0  0  0  0
  179.2830  179.8560  140.9720 C   0  0  2  0  0  3  0  0  0  0  0  0
  179.6140  180.5040  138.6810 C   0  0  0  0  0  2  0  0  0  0  0  0
  179.6820  181.2540  140.9570 N   0  0  0  0  0  2  0  0  0  0  0  0
  1 18  1  0  0  0  0
  2 14  1  0  0  0  0
  2 27  1  0  0  0  0
  3  7  1  1  0  0  0
  4 15  1  0  0  0  0
  5 19  1  0  0  0  0
  8 16  1  0  0  0  0
  9 13  1  0  0  0  0
 10 22  1  0  0  0  0
 11  5  1  0  0  0  0
 12  8  1  0  0  0  0
 13 20  1  0  0  0  0
 13 24  1  0  0  0  0
 15 12  1  0  0  0  0
 15  5  2  0  0  0  0
 16  3  1  0  0  0  0
 17 10  1  0  0  0  0
 18  4  2  0  0  0  0
 18 20  1  0  0  0  0
 19  3  1  0  0  0  0
 19  6  1  1  0  0  0
 20 11  2  0  0  0  0
 21 23  2  0  0  0  0
 23  4  1  0  0  0  0
 24 22  1  0  0  0  0
 25 14  1  6  0  0  0
 25  9  1  0  0  0  0
 25 17  1  0  0  0  0
 26 21  1  0  0  0  0
 26  1  2  0  0  0  0
 27  1  1  0  0  0  0
 27  9  2  0  0  0  0
 28 17  1  0  0  0  0
 28 29  1  0  0  0  0
 30 34  1  0  0  0  0
 31 32  1  0  0  0  0
 32 29  1  1  0  0  0
 33 31  1  0  0  0  0
 33 30  1  0  0  0  0
 34 32  1  0  0  0  0
M  END
>  <MODEL>
8

>  <REMARK>
 VINA RESULT:      -9.3      2.194      4.171
  Name = 
  3 active torsions:
  status: ('A' for Active; 'I' for Inactive)
    1  A    between atoms: N_17  and  C_28
    2  A    between atoms: C_28  and  C_29
    3  A    between atoms: C_29  and  C_32
                            x       y       z     vdW  Elec       q    Type
                         _______ _______ _______ _____ _____    ______ ____

>  <TORSDO>
F 3

$$$$
=
 OpenBabel11122412193D

 34 40  0  0  1  0  0  0  0  0999 V2000
  182.1120  178.6970  143.5010 C   0  0  0  0  0  0  0  0  0  0  0  0
  183.8500  178.6360  145.4840 C   0  0  0  0  0  2  0  0  0  0  0  0
  180.4190  178.0240  137.1680 C   0  0  2  0  0  3  0  0  0  0  0  0
  180.6460  178.7520  141.5430 C   0  0  0  0  0  0  0  0  0  0  0  0
  181.6500  178.6730  139.3170 C   0  0  0  0  0  0  0  0  0  0  0  0
  182.8280  178.2540  137.2790 O   0  0  0  0  0  1  0  0  0  0  0  0
  180.7050  177.5200  135.7620 C   0  0  0  0  0  1  0  0  0  0  0  0
  178.9360  179.6960  138.3980 C   0  0  0  0  0  2  0  0  0  0  0  0
  184.5290  178.6240  143.2550 C   0  0  0  0  0  0  0  0  0  0  0  0
  187.5650  178.2500  142.4170 C   0  0  0  0  0  2  0  0  0  0  0  0
  182.8770  178.6390  139.9100 N   0  0  0  0  0  0  0  0  0  0  0  0
  179.0810  178.7610  139.5840 C   0  0  0  0  0  2  0  0  0  0  0  0
  184.3880  178.5870  141.8170 N   0  0  0  0  0  0  0  0  0  0  0  0
  185.3580  178.3930  145.4570 C   0  0  0  0  0  2  0  0  0  0  0  0
  180.4860  178.7560  140.1400 C   0  0  0  0  0  0  0  0  0  0  0  0
  179.2060  178.9510  137.0950 C   0  0  0  0  0  2  0  0  0  0  0  0
  186.7410  177.6430  143.4700 N   0  0  0  0  0  0  0  0  0  0  0  0
  181.9400  178.7000  142.1020 C   0  0  0  0  0  0  0  0  0  0  0  0
  181.6240  178.7450  137.7980 C   0  0  1  0  0  3  0  0  0  0  0  0
  183.0580  178.6440  141.2560 C   0  0  0  0  0  0  0  0  0  0  0  0
  179.7110  178.7970  143.7930 C   0  0  0  0  0  3  0  0  0  0  0  0
  186.7690  179.0010  141.3430 C   0  0  0  0  0  2  0  0  0  0  0  0
  179.5380  178.8010  142.4070 C   0  0  0  0  0  3  0  0  0  0  0  0
  185.5120  178.2460  140.9440 C   0  0  0  0  0  2  0  0  0  0  0  0
  185.8170  178.6560  144.0090 C   0  0  1  0  0  3  0  0  0  0  0  0
  180.9950  178.7460  144.3410 C   0  0  0  0  0  3  0  0  0  0  0  0
  183.4790  178.6530  144.0500 C   0  0  0  0  0  0  0  0  0  0  0  0
  187.6980  177.2160  144.4850 C   0  0  0  0  0  2  0  0  0  0  0  0
  189.0930  177.6670  144.0900 C   0  0  0  0  0  2  0  0  0  0  0  0
  190.3860  176.7500  147.3280 C   0  0  0  0  0  2  0  0  0  0  0  0
  191.2930  177.1160  145.1320 C   0  0  0  0  0  2  0  0  0  0  0  0
  189.9660  177.8210  145.3230 C   0  0  2  0  0  3  0  0  0  0  0  0
  191.5730  176.4310  146.4460 C   0  0  0  0  0  2  0  0  0  0  0  0
  189.3080  177.2160  146.4690 N   0  0  0  0  0  2  0  0  0  0  0  0
  1 27  1  0  0  0  0
  1 26  1  0  0  0  0
  3  7  1  6  0  0  0
  3 19  1  0  0  0  0
  4 18  1  0  0  0  0
  4 23  2  0  0  0  0
  5 11  1  0  0  0  0
  5 15  2  0  0  0  0
  8 12  1  0  0  0  0
  9 25  1  0  0  0  0
  9 27  2  0  0  0  0
 10 17  1  0  0  0  0
 11 20  2  0  0  0  0
 12 15  1  0  0  0  0
 13  9  1  0  0  0  0
 14  2  1  0  0  0  0
 15  4  1  0  0  0  0
 16  3  1  0  0  0  0
 16  8  1  0  0  0  0
 17 25  1  0  0  0  0
 17 28  1  0  0  0  0
 18  1  2  0  0  0  0
 19  6  1  6  0  0  0
 19  5  1  0  0  0  0
 20 13  1  0  0  0  0
 20 18  1  0  0  0  0
 21 26  2  0  0  0  0
 22 10  1  0  0  0  0
 23 21  1  0  0  0  0
 24 22  1  0  0  0  0
 24 13  1  0  0  0  0
 25 14  1  1  0  0  0
 27  2  1  0  0  0  0
 29 28  1  0  0  0  0
 31 32  1  0  0  0  0
 31 33  1  0  0  0  0
 32 29  1  6  0  0  0
 32 34  1  0  0  0  0
 33 30  1  0  0  0  0
 34 30  1  0  0  0  0
M  END
>  <MODEL>
9

>  <REMARK>
 VINA RESULT:      -9.1      2.504      8.937
  Name = 
  3 active torsions:
  status: ('A' for Active; 'I' for Inactive)
    1  A    between atoms: N_17  and  C_28
    2  A    between atoms: C_28  and  C_29
    3  A    between atoms: C_29  and  C_32
                            x       y       z     vdW  Elec       q    Type
                         _______ _______ _______ _____ _____    ______ ____

>  <TORSDO>
F 3

$$$$
