=
 OpenBabel11122410513D

 32 37  0  0  1  0  0  0  0  0999 V2000
  185.6420  178.3760  141.2250 C   0  0  1  0  0  3  0  0  0  0  0  0
  190.4370  176.8890  140.7340 C   0  0  0  0  0  2  0  0  0  0  0  0
  190.4540  177.4320  139.3070 C   0  0  0  0  0  2  0  0  0  0  0  0
  184.3290  179.0360  139.1520 C   0  0  2  0  0  3  0  0  0  0  0  0
  184.1800  178.2060  137.8670 C   0  0  2  0  0  3  0  0  0  0  0  0
  184.7090  178.5890  143.2920 C   0  0  2  0  0  3  0  0  0  0  0  0
  186.9720  177.7570  143.1280 O   0  0  0  0  0  0  0  0  0  0  0  0
  185.5430  176.7090  136.5030 C   0  0  2  0  0  3  0  0  0  0  0  0
  189.4520  177.6840  141.5900 C   0  0  0  0  0  2  0  0  0  0  0  0
  187.0490  178.3680  141.8620 C   0  0  1  0  0  3  0  0  0  0  0  0
  188.0510  177.6090  140.9840 C   0  0  1  0  0  3  0  0  0  0  0  0
  186.6710  178.1070  138.9580 C   0  0  2  0  0  3  0  0  0  0  0  0
  184.8380  175.8680  137.5450 C   0  0  0  0  0  2  0  0  0  0  0  0
  186.1160  178.5380  143.9320 C   0  0  2  0  0  3  0  0  0  0  0  0
  183.7980  176.7680  138.1900 C   0  0  0  0  0  2  0  0  0  0  0  0
  189.0550  177.3650  138.7010 C   0  0  0  0  0  2  0  0  0  0  0  0
  188.0750  178.1720  139.5520 C   0  0  2  0  0  3  0  0  0  0  0  0
  186.6470  178.5920  137.6380 O   0  0  0  0  0  0  0  0  0  0  0  0
  184.7910  179.1740  142.0120 O   0  0  0  0  0  0  0  0  0  0  0  0
  184.0430  180.3730  138.8770 O   0  0  0  0  0  1  0  0  0  0  0  0
  186.8650  176.2890  136.3460 O   0  0  0  0  0  1  0  0  0  0  0  0
  185.7140  178.9400  139.8060 C   0  0  2  0  0  3  0  0  0  0  0  0
  185.4550  178.1480  136.9990 C   0  0  2  0  0  3  0  0  0  0  0  0
  187.1030  176.8310  145.4510 C   0  0  0  0  0  2  0  0  0  0  0  0
  186.0620  177.9250  145.3260 C   0  0  1  0  0  3  0  0  0  0  0  0
  187.3710  178.1970  146.0430 C   0  0  1  0  0  3  0  0  0  0  0  0
  187.1460  178.1540  147.4770 N   0  0  0  0  0  2  0  0  0  0  0  0
  188.2200  177.9660  148.3960 C   0  0  0  0  0  0  0  0  0  0  0  0
  187.9860  177.9430  149.6330 O   0  0  0  0  0  1  0  0  0  0  0  0
  189.5220  177.8060  147.9390 O   0  0  0  0  0  0  0  0  0  0  0  0
  182.6300  178.6350  144.4660 O   0  0  0  0  0  1  0  0  0  0  0  0
  183.7460  179.4050  144.1420 C   0  0  0  0  0  2  0  0  0  0  0  0
  1 10  1  0  0  0  0
  1 19  1  1  0  0  0
  2  9  1  0  0  0  0
  3  2  1  0  0  0  0
  4 20  1  6  0  0  0
  4 22  1  0  0  0  0
  5 15  1  1  0  0  0
  5  4  1  0  0  0  0
  6 14  1  0  0  0  0
  6 32  1  1  0  0  0
  8 21  1  1  0  0  0
  8 23  1  0  0  0  0
  8 13  1  0  0  0  0
 10  7  1  1  0  0  0
 11  9  1  1  0  0  0
 11 10  1  0  0  0  0
 12 18  1  6  0  0  0
 12 17  1  0  0  0  0
 12 22  1  0  0  0  0
 13 15  1  0  0  0  0
 14  7  1  6  0  0  0
 14 25  1  0  0  0  0
 16  3  1  0  0  0  0
 17 16  1  6  0  0  0
 17 11  1  0  0  0  0
 19  6  1  0  0  0  0
 22  1  1  0  0  0  0
 23 18  1  0  0  0  0
 23  5  1  0  0  0  0
 24 26  1  0  0  0  0
 25 24  1  0  0  0  0
 25 26  1  0  0  0  0
 26 27  1  0  0  0  0
 27 28  1  0  0  0  0
 28 29  1  0  0  0  0
 30 28  2  0  0  0  0
 32 31  1  0  0  0  0
M  END
>  <MODEL>
1

>  <REMARK>
 VINA RESULT:      -8.1      0.000      0.000
  Name = 
  3 active torsions:
  status: ('A' for Active; 'I' for Inactive)
    1  A    between atoms: C_7  and  C_19
    2  A    between atoms: C_10  and  C_17
    3  A    between atoms: C_20  and  N_29
                            x       y       z     vdW  Elec       q    Type
                         _______ _______ _______ _____ _____    ______ ____

>  <TORSDO>
F 3

$$$$
=
 OpenBabel11122410513D

 32 37  0  0  1  0  0  0  0  0999 V2000
  187.1040  178.0260  140.0580 C   0  0  1  0  0  3  0  0  0  0  0  0
  190.3520  176.9580  143.7670 C   0  0  0  0  0  2  0  0  0  0  0  0
  191.5160  177.2940  142.8380 C   0  0  0  0  0  2  0  0  0  0  0  0
  187.9680  178.2590  137.6810 C   0  0  2  0  0  3  0  0  0  0  0  0
  188.8470  177.2470  136.9290 C   0  0  2  0  0  3  0  0  0  0  0  0
  184.9130  178.4350  140.5300 C   0  0  2  0  0  3  0  0  0  0  0  0
  186.3860  177.8130  142.3420 O   0  0  0  0  0  0  0  0  0  0  0  0
  190.6800  175.7130  137.4250 C   0  0  2  0  0  3  0  0  0  0  0  0
  189.1150  177.7650  143.3780 C   0  0  0  0  0  2  0  0  0  0  0  0
  187.4630  178.2440  141.5450 C   0  0  1  0  0  3  0  0  0  0  0  0
  188.7310  177.4710  141.9290 C   0  0  1  0  0  3  0  0  0  0  0  0
  189.5090  177.5440  139.5520 C   0  0  2  0  0  3  0  0  0  0  0  0
  189.3830  174.9610  137.6330 C   0  0  0  0  0  2  0  0  0  0  0  0
  185.2680  178.6120  142.0250 C   0  0  2  0  0  3  0  0  0  0  0  0
  188.2840  175.8380  137.0570 C   0  0  0  0  0  2  0  0  0  0  0  0
  191.1340  177.0080  141.3880 C   0  0  0  0  0  2  0  0  0  0  0  0
  189.9040  177.8270  140.9980 C   0  0  2  0  0  3  0  0  0  0  0  0
  190.5590  177.8340  138.6640 O   0  0  0  0  0  0  0  0  0  0  0  0
  186.0030  178.8410  139.7330 O   0  0  0  0  0  0  0  0  0  0  0  0
  188.0790  179.5100  137.0740 O   0  0  0  0  0  1  0  0  0  0  0  0
  191.5930  175.4050  138.4350 O   0  0  0  0  0  1  0  0  0  0  0  0
  188.2960  178.3910  139.1740 C   0  0  2  0  0  3  0  0  0  0  0  0
  190.3100  177.1920  137.4190 C   0  0  2  0  0  3  0  0  0  0  0  0
  184.2960  178.7560  144.3130 C   0  0  0  0  0  2  0  0  0  0  0  0
  184.1040  178.1970  142.9170 C   0  0  1  0  0  3  0  0  0  0  0  0
  183.3440  179.4360  143.3540 C   0  0  1  0  0  3  0  0  0  0  0  0
  181.9800  179.0640  143.6860 N   0  0  0  0  0  2  0  0  0  0  0  0
  180.8810  179.4350  142.8550 C   0  0  0  0  0  0  0  0  0  0  0  0
  179.7140  179.0860  143.1720 O   0  0  0  0  0  1  0  0  0  0  0  0
  181.0870  180.1790  141.7010 O   0  0  0  0  0  0  0  0  0  0  0  0
  184.0520  180.2280  139.2090 O   0  0  0  0  0  1  0  0  0  0  0  0
  183.6950  179.2650  140.1510 C   0  0  0  0  0  2  0  0  0  0  0  0
  1 19  1  6  0  0  0
  1 10  1  0  0  0  0
  3  2  1  0  0  0  0
  4 20  1  6  0  0  0
  4 22  1  0  0  0  0
  5 15  1  1  0  0  0
  5 23  1  0  0  0  0
  5  4  1  0  0  0  0
  6 32  1  6  0  0  0
  6 14  1  0  0  0  0
  8 13  1  0  0  0  0
  8 21  1  1  0  0  0
  9  2  1  0  0  0  0
 10 11  1  0  0  0  0
 10  7  1  1  0  0  0
 11  9  1  1  0  0  0
 12 18  1  6  0  0  0
 12 17  1  0  0  0  0
 14  7  1  1  0  0  0
 14 25  1  0  0  0  0
 15 13  1  0  0  0  0
 16  3  1  0  0  0  0
 17 16  1  1  0  0  0
 17 11  1  0  0  0  0
 19  6  1  0  0  0  0
 22 12  1  0  0  0  0
 22  1  1  0  0  0  0
 23  8  1  0  0  0  0
 23 18  1  0  0  0  0
 25 26  1  0  0  0  0
 25 24  1  0  0  0  0
 26 27  1  0  0  0  0
 26 24  1  0  0  0  0
 28 29  1  0  0  0  0
 28 27  1  0  0  0  0
 30 28  2  0  0  0  0
 31 32  1  0  0  0  0
M  END
>  <MODEL>
2

>  <REMARK>
 VINA RESULT:      -8.0      2.955      4.799
  Name = 
  3 active torsions:
  status: ('A' for Active; 'I' for Inactive)
    1  A    between atoms: C_7  and  C_19
    2  A    between atoms: C_10  and  C_17
    3  A    between atoms: C_20  and  N_29
                            x       y       z     vdW  Elec       q    Type
                         _______ _______ _______ _____ _____    ______ ____

>  <TORSDO>
F 3

$$$$
=
 OpenBabel11122410513D

 32 37  0  0  1  0  0  0  0  0999 V2000
  187.1220  177.8880  139.1530 C   0  0  1  0  0  3  0  0  0  0  0  0
  191.0920  177.4810  142.2380 C   0  0  0  0  0  2  0  0  0  0  0  0
  192.0180  177.4030  141.0280 C   0  0  0  0  0  2  0  0  0  0  0  0
  187.4070  177.3520  136.6860 C   0  0  2  0  0  3  0  0  0  0  0  0
  188.0220  176.0720  136.0990 C   0  0  2  0  0  3  0  0  0  0  0  0
  185.1340  178.6790  139.9350 C   0  0  2  0  0  3  0  0  0  0  0  0
  186.9560  178.3980  141.4960 O   0  0  0  0  0  0  0  0  0  0  0  0
  189.8280  174.5160  136.6260 C   0  0  2  0  0  3  0  0  0  0  0  0
  189.8470  178.2980  141.8990 C   0  0  0  0  0  2  0  0  0  0  0  0
  187.8370  178.4580  140.3990 C   0  0  1  0  0  3  0  0  0  0  0  0
  189.1120  177.6680  140.7170 C   0  0  1  0  0  3  0  0  0  0  0  0
  189.3050  176.9910  138.3160 C   0  0  2  0  0  3  0  0  0  0  0  0
  188.5770  174.0180  137.3160 C   0  0  0  0  0  2  0  0  0  0  0  0
  185.8430  179.2130  141.2010 C   0  0  2  0  0  3  0  0  0  0  0  0
  187.4250  174.8330  136.7520 C   0  0  0  0  0  2  0  0  0  0  0  0
  191.2860  176.7800  139.8420 C   0  0  0  0  0  2  0  0  0  0  0  0
  190.0490  177.6080  139.4970 C   0  0  2  0  0  3  0  0  0  0  0  0
  190.1290  176.8940  137.1810 O   0  0  0  0  0  0  0  0  0  0  0  0
  186.0240  178.7120  138.8420 O   0  0  0  0  0  0  0  0  0  0  0  0
  187.4430  178.3650  135.7290 O   0  0  0  0  0  1  0  0  0  0  0  0
  190.9360  174.3860  137.4660 O   0  0  0  0  0  1  0  0  0  0  0  0
  188.0880  177.8450  137.9700 C   0  0  2  0  0  3  0  0  0  0  0  0
  189.5540  175.9710  136.2630 C   0  0  2  0  0  3  0  0  0  0  0  0
  184.4650  177.7880  142.7070 C   0  0  0  0  0  2  0  0  0  0  0  0
  184.9030  179.2060  142.4000 C   0  0  1  0  0  3  0  0  0  0  0  0
  185.5490  178.4380  143.5380 C   0  0  1  0  0  3  0  0  0  0  0  0
  184.9850  178.8910  144.7970 N   0  0  0  0  0  2  0  0  0  0  0  0
  185.6750  178.7100  146.0320 C   0  0  0  0  0  0  0  0  0  0  0  0
  185.1570  179.1240  147.1020 O   0  0  0  0  0  1  0  0  0  0  0  0
  186.9120  178.0800  146.0660 O   0  0  0  0  0  0  0  0  0  0  0  0
  184.2970  180.6520  138.8810 O   0  0  0  0  0  1  0  0  0  0  0  0
  183.9100  179.5180  139.5940 C   0  0  0  0  0  2  0  0  0  0  0  0
  1 19  1  6  0  0  0
  1 10  1  0  0  0  0
  3  2  1  0  0  0  0
  4 20  1  6  0  0  0
  4 22  1  0  0  0  0
  5 23  1  0  0  0  0
  5  4  1  0  0  0  0
  5 15  1  1  0  0  0
  6 32  1  6  0  0  0
  6 14  1  0  0  0  0
  8 13  1  0  0  0  0
  8 21  1  1  0  0  0
  9  2  1  0  0  0  0
 10 11  1  0  0  0  0
 10  7  1  1  0  0  0
 11  9  1  1  0  0  0
 12 18  1  6  0  0  0
 12 17  1  0  0  0  0
 14  7  1  1  0  0  0
 14 25  1  0  0  0  0
 15 13  1  0  0  0  0
 16  3  1  0  0  0  0
 17 16  1  1  0  0  0
 17 11  1  0  0  0  0
 19  6  1  0  0  0  0
 22 12  1  0  0  0  0
 22  1  1  0  0  0  0
 23  8  1  0  0  0  0
 23 18  1  0  0  0  0
 24 26  1  0  0  0  0
 25 24  1  0  0  0  0
 25 26  1  0  0  0  0
 26 27  1  0  0  0  0
 27 28  1  0  0  0  0
 28 30  2  0  0  0  0
 28 29  1  0  0  0  0
 31 32  1  0  0  0  0
M  END
>  <MODEL>
3

>  <REMARK>
 VINA RESULT:      -7.8      2.147      3.601
  Name = 
  3 active torsions:
  status: ('A' for Active; 'I' for Inactive)
    1  A    between atoms: C_7  and  C_19
    2  A    between atoms: C_10  and  C_17
    3  A    between atoms: C_20  and  N_29
                            x       y       z     vdW  Elec       q    Type
                         _______ _______ _______ _____ _____    ______ ____

>  <TORSDO>
F 3

$$$$
=
 OpenBabel11122410513D

 32 37  0  0  1  0  0  0  0  0999 V2000
  184.2210  178.5220  138.9390 C   0  0  1  0  0  3  0  0  0  0  0  0
  184.5060  179.1530  143.9350 C   0  0  0  0  0  2  0  0  0  0  0  0
  183.0250  178.8020  144.0590 C   0  0  0  0  0  2  0  0  0  0  0  0
  181.9380  178.3830  137.8330 C   0  0  2  0  0  3  0  0  0  0  0  0
  180.7830  179.3830  138.0030 C   0  0  2  0  0  3  0  0  0  0  0  0
  186.1140  178.2220  137.7070 C   0  0  2  0  0  3  0  0  0  0  0  0
  186.3350  178.6380  140.0770 O   0  0  0  0  0  0  0  0  0  0  0  0
  179.8220  180.7660  139.7710 C   0  0  2  0  0  3  0  0  0  0  0  0
  185.1160  178.4500  142.7240 C   0  0  0  0  0  2  0  0  0  0  0  0
  185.0080  178.1900  140.2260 C   0  0  1  0  0  3  0  0  0  0  0  0
  184.3730  178.8570  141.4520 C   0  0  1  0  0  3  0  0  0  0  0  0
  182.1510  178.8830  140.3020 C   0  0  2  0  0  3  0  0  0  0  0  0
  180.8920  181.5830  139.0790 C   0  0  0  0  0  2  0  0  0  0  0  0
  186.9100  177.9320  139.0010 C   0  0  2  0  0  3  0  0  0  0  0  0
  181.2720  180.8140  137.8250 C   0  0  0  0  0  2  0  0  0  0  0  0
  182.2810  179.2020  142.7880 C   0  0  0  0  0  2  0  0  0  0  0  0
  182.8840  178.4870  141.5800 C   0  0  2  0  0  3  0  0  0  0  0  0
  180.7800  178.5840  140.3790 O   0  0  0  0  0  0  0  0  0  0  0  0
  184.7780  177.8000  137.8670 O   0  0  0  0  0  0  0  0  0  0  0  0
  181.4340  177.1680  137.3700 O   0  0  0  0  0  1  0  0  0  0  0  0
  179.8800  180.9530  141.1530 O   0  0  0  0  0  1  0  0  0  0  0  0
  182.7510  178.1390  139.1120 C   0  0  2  0  0  3  0  0  0  0  0  0
  180.0830  179.3160  139.3780 C   0  0  2  0  0  3  0  0  0  0  0  0
  189.0680  178.2660  140.1970 C   0  0  0  0  0  2  0  0  0  0  0  0
  188.3650  178.3620  138.8580 C   0  0  1  0  0  3  0  0  0  0  0  0
  189.2670  177.1810  139.1620 C   0  0  1  0  0  3  0  0  0  0  0  0
  190.5450  177.3760  138.5000 N   0  0  0  0  0  2  0  0  0  0  0  0
  191.3580  176.2730  138.1060 C   0  0  0  0  0  0  0  0  0  0  0  0
  192.4560  176.4830  137.5260 O   0  0  0  0  0  0  0  0  0  0  0  0
  190.9510  174.9690  138.3580 O   0  0  0  0  0  1  0  0  0  0  0  0
  187.1020  178.4180  135.5420 O   0  0  0  0  0  1  0  0  0  0  0  0
  186.7170  177.4950  136.5140 C   0  0  0  0  0  2  0  0  0  0  0  0
  1 19  1  6  0  0  0
  1 22  1  0  0  0  0
  1 10  1  0  0  0  0
  2  3  1  0  0  0  0
  4 20  1  1  0  0  0
  4  5  1  0  0  0  0
  4 22  1  0  0  0  0
  5 15  1  1  0  0  0
  5 23  1  0  0  0  0
  6 32  1  6  0  0  0
  6 19  1  0  0  0  0
  6 14  1  0  0  0  0
  8 21  1  1  0  0  0
  9  2  1  0  0  0  0
 10  7  1  6  0  0  0
 10 11  1  0  0  0  0
 11 17  1  0  0  0  0
 11  9  1  1  0  0  0
 12 18  1  1  0  0  0
 12 17  1  0  0  0  0
 13  8  1  0  0  0  0
 14  7  1  1  0  0  0
 15 13  1  0  0  0  0
 16  3  1  0  0  0  0
 17 16  1  1  0  0  0
 22 12  1  0  0  0  0
 23  8  1  0  0  0  0
 23 18  1  0  0  0  0
 25 14  1  0  0  0  0
 25 26  1  0  0  0  0
 25 24  1  0  0  0  0
 26 24  1  0  0  0  0
 27 26  1  0  0  0  0
 28 30  1  0  0  0  0
 28 27  1  0  0  0  0
 29 28  2  0  0  0  0
 31 32  1  0  0  0  0
M  END
>  <MODEL>
4

>  <REMARK>
 VINA RESULT:      -7.8      3.624      6.911
  Name = 
  3 active torsions:
  status: ('A' for Active; 'I' for Inactive)
    1  A    between atoms: C_7  and  C_19
    2  A    between atoms: C_10  and  C_17
    3  A    between atoms: C_20  and  N_29
                            x       y       z     vdW  Elec       q    Type
                         _______ _______ _______ _____ _____    ______ ____

>  <TORSDO>
F 3

$$$$
=
 OpenBabel11122410513D

 32 37  0  0  1  0  0  0  0  0999 V2000
  188.8030  177.0220  139.6980 C   0  0  1  0  0  3  0  0  0  0  0  0
  193.4140  175.7950  138.0620 C   0  0  0  0  0  2  0  0  0  0  0  0
  193.0770  176.3760  136.6900 C   0  0  0  0  0  2  0  0  0  0  0  0
  187.0190  177.6700  138.0100 C   0  0  2  0  0  3  0  0  0  0  0  0
  186.6130  176.8690  136.7640 C   0  0  2  0  0  3  0  0  0  0  0  0
  188.3670  177.1320  141.9310 C   0  0  2  0  0  3  0  0  0  0  0  0
  190.5640  176.4210  141.2200 O   0  0  0  0  0  0  0  0  0  0  0  0
  187.6860  175.4800  135.0670 C   0  0  2  0  0  3  0  0  0  0  0  0
  192.6220  176.5150  139.1500 C   0  0  0  0  0  2  0  0  0  0  0  0
  190.3190  177.0690  139.9940 C   0  0  1  0  0  3  0  0  0  0  0  0
  191.1230  176.3860  138.8810 C   0  0  1  0  0  3  0  0  0  0  0  0
  189.2910  176.8670  137.2470 C   0  0  2  0  0  3  0  0  0  0  0  0
  187.2790  174.5760  136.2110 C   0  0  0  0  0  2  0  0  0  0  0  0
  189.8850  177.1360  142.2290 C   0  0  2  0  0  3  0  0  0  0  0  0
  186.3790  175.4050  137.1110 C   0  0  0  0  0  2  0  0  0  0  0  0
  191.5800  176.2540  136.4200 C   0  0  0  0  0  2  0  0  0  0  0  0
  190.7900  176.9870  137.5040 C   0  0  2  0  0  3  0  0  0  0  0  0
  188.9400  177.3850  135.9870 O   0  0  0  0  0  0  0  0  0  0  0  0
  188.1240  177.7550  140.6900 O   0  0  0  0  0  0  0  0  0  0  0  0
  186.6190  178.9980  137.8590 O   0  0  0  0  0  1  0  0  0  0  0  0
  188.9520  175.1320  134.5940 O   0  0  0  0  0  1  0  0  0  0  0  0
  188.5210  177.6270  138.3240 C   0  0  2  0  0  3  0  0  0  0  0  0
  187.6530  176.8990  135.6230 C   0  0  2  0  0  3  0  0  0  0  0  0
  191.6800  176.3760  143.7770 C   0  0  0  0  0  2  0  0  0  0  0  0
  190.1820  176.4830  143.5730 C   0  0  1  0  0  3  0  0  0  0  0  0
  190.9030  177.4790  144.4630 C   0  0  1  0  0  3  0  0  0  0  0  0
  190.6830  177.1200  145.8530 N   0  0  0  0  0  2  0  0  0  0  0  0
  189.4980  177.5060  146.5460 C   0  0  0  0  0  0  0  0  0  0  0  0
  189.3400  177.1690  147.7480 O   0  0  0  0  0  1  0  0  0  0  0  0
  188.5160  178.2530  145.9060 O   0  0  0  0  0  0  0  0  0  0  0  0
  186.4110  178.3880  142.4780 O   0  0  0  0  0  1  0  0  0  0  0  0
  187.5930  177.8750  143.0110 C   0  0  0  0  0  2  0  0  0  0  0  0
  1 10  1  0  0  0  0
  1 19  1  1  0  0  0
  2  9  1  0  0  0  0
  3  2  1  0  0  0  0
  4 20  1  6  0  0  0
  4 22  1  0  0  0  0
  5 15  1  1  0  0  0
  5  4  1  0  0  0  0
  6 14  1  0  0  0  0
  6 32  1  1  0  0  0
  8 21  1  1  0  0  0
  8 23  1  0  0  0  0
  8 13  1  0  0  0  0
 10  7  1  1  0  0  0
 11  9  1  1  0  0  0
 11 10  1  0  0  0  0
 12 18  1  6  0  0  0
 12 17  1  0  0  0  0
 12 22  1  0  0  0  0
 13 15  1  0  0  0  0
 14  7  1  6  0  0  0
 14 25  1  0  0  0  0
 16  3  1  0  0  0  0
 17 16  1  6  0  0  0
 17 11  1  0  0  0  0
 19  6  1  0  0  0  0
 22  1  1  0  0  0  0
 23 18  1  0  0  0  0
 23  5  1  0  0  0  0
 24 26  1  0  0  0  0
 25 24  1  0  0  0  0
 25 26  1  0  0  0  0
 26 27  1  0  0  0  0
 27 28  1  0  0  0  0
 28 29  1  0  0  0  0
 30 28  2  0  0  0  0
 31 32  1  0  0  0  0
M  END
>  <MODEL>
5

>  <REMARK>
 VINA RESULT:      -7.6      2.376      3.653
  Name = 
  3 active torsions:
  status: ('A' for Active; 'I' for Inactive)
    1  A    between atoms: C_7  and  C_19
    2  A    between atoms: C_10  and  C_17
    3  A    between atoms: C_20  and  N_29
                            x       y       z     vdW  Elec       q    Type
                         _______ _______ _______ _____ _____    ______ ____

>  <TORSDO>
F 3

$$$$
=
 OpenBabel11122410513D

 32 37  0  0  1  0  0  0  0  0999 V2000
  188.1450  177.7330  139.1840 C   0  0  1  0  0  3  0  0  0  0  0  0
  192.8900  176.0190  139.1730 C   0  0  0  0  0  2  0  0  0  0  0  0
  193.0330  176.4390  137.7120 C   0  0  0  0  0  2  0  0  0  0  0  0
  187.0150  178.2690  136.9730 C   0  0  2  0  0  3  0  0  0  0  0  0
  186.9190  177.3420  135.7520 C   0  0  2  0  0  3  0  0  0  0  0  0
  187.0800  178.1550  141.1520 C   0  0  2  0  0  3  0  0  0  0  0  0
  189.3070  177.2230  141.2250 O   0  0  0  0  0  0  0  0  0  0  0  0
  188.3040  175.6820  134.6180 C   0  0  2  0  0  3  0  0  0  0  0  0
  191.8850  176.9210  139.8860 C   0  0  0  0  0  2  0  0  0  0  0  0
  189.5020  177.7220  139.9230 C   0  0  1  0  0  3  0  0  0  0  0  0
  190.5280  176.8520  139.1860 C   0  0  1  0  0  3  0  0  0  0  0  0
  189.3200  177.2340  137.0290 C   0  0  2  0  0  3  0  0  0  0  0  0
  187.4900  174.9590  135.6690 C   0  0  0  0  0  2  0  0  0  0  0  0
  188.4340  178.1020  141.8980 C   0  0  2  0  0  3  0  0  0  0  0  0
  186.4500  175.9520  136.1600 C   0  0  0  0  0  2  0  0  0  0  0  0
  191.6790  176.3780  137.0100 C   0  0  0  0  0  2  0  0  0  0  0  0
  190.6790  177.2920  137.7180 C   0  0  2  0  0  3  0  0  0  0  0  0
  189.4110  177.6070  135.6760 O   0  0  0  0  0  0  0  0  0  0  0  0
  187.2790  178.6280  139.8390 O   0  0  0  0  0  0  0  0  0  0  0  0
  186.8110  179.5890  136.5700 O   0  0  0  0  0  1  0  0  0  0  0  0
  189.6140  175.1970  134.5940 O   0  0  0  0  0  1  0  0  0  0  0  0
  188.3440  178.1730  137.7340 C   0  0  2  0  0  3  0  0  0  0  0  0
  188.2480  177.1600  134.9880 C   0  0  2  0  0  3  0  0  0  0  0  0
  189.1230  176.3930  143.5720 C   0  0  0  0  0  2  0  0  0  0  0  0
  188.2530  177.6100  143.3280 C   0  0  1  0  0  3  0  0  0  0  0  0
  189.5670  177.7490  144.0740 C   0  0  1  0  0  3  0  0  0  0  0  0
  189.2970  177.8470  145.4980 N   0  0  0  0  0  2  0  0  0  0  0  0
  190.2370  177.3930  146.4690 C   0  0  0  0  0  0  0  0  0  0  0  0
  189.9710  177.5030  147.6940 O   0  0  0  0  0  1  0  0  0  0  0  0
  191.4440  176.8280  146.0750 O   0  0  0  0  0  0  0  0  0  0  0  0
  185.3050  179.7360  140.9210 O   0  0  0  0  0  1  0  0  0  0  0  0
  186.0970  179.0780  141.8600 C   0  0  0  0  0  2  0  0  0  0  0  0
  1 19  1  1  0  0  0
  1 10  1  0  0  0  0
  2  9  1  0  0  0  0
  3  2  1  0  0  0  0
  4 20  1  6  0  0  0
  4 22  1  0  0  0  0
  5 15  1  1  0  0  0
  5  4  1  0  0  0  0
  6 32  1  1  0  0  0
  6 14  1  0  0  0  0
  8 21  1  1  0  0  0
  8 23  1  0  0  0  0
  8 13  1  0  0  0  0
 10  7  1  1  0  0  0
 11  9  1  1  0  0  0
 11 10  1  0  0  0  0
 12 18  1  6  0  0  0
 12 17  1  0  0  0  0
 12 22  1  0  0  0  0
 13 15  1  0  0  0  0
 14  7  1  6  0  0  0
 14 25  1  0  0  0  0
 16  3  1  0  0  0  0
 17 16  1  6  0  0  0
 17 11  1  0  0  0  0
 19  6  1  0  0  0  0
 22  1  1  0  0  0  0
 23 18  1  0  0  0  0
 23  5  1  0  0  0  0
 24 26  1  0  0  0  0
 25 24  1  0  0  0  0
 25 26  1  0  0  0  0
 26 27  1  0  0  0  0
 27 28  1  0  0  0  0
 28 29  1  0  0  0  0
 30 28  2  0  0  0  0
 31 32  1  0  0  0  0
M  END
>  <MODEL>
6

>  <REMARK>
 VINA RESULT:      -7.6      2.319      3.293
  Name = 
  3 active torsions:
  status: ('A' for Active; 'I' for Inactive)
    1  A    between atoms: C_7  and  C_19
    2  A    between atoms: C_10  and  C_17
    3  A    between atoms: C_20  and  N_29
                            x       y       z     vdW  Elec       q    Type
                         _______ _______ _______ _____ _____    ______ ____

>  <TORSDO>
F 3

$$$$
=
 OpenBabel11122410513D

 32 37  0  0  1  0  0  0  0  0999 V2000
  186.7120  177.8540  140.8200 C   0  0  1  0  0  3  0  0  0  0  0  0
  191.1610  176.5140  138.8560 C   0  0  0  0  0  2  0  0  0  0  0  0
  190.7850  177.2040  137.5470 C   0  0  0  0  0  2  0  0  0  0  0  0
  184.8810  178.7060  139.2780 C   0  0  2  0  0  3  0  0  0  0  0  0
  184.3690  178.0130  138.0050 C   0  0  2  0  0  3  0  0  0  0  0  0
  186.3970  177.8320  143.0760 C   0  0  2  0  0  3  0  0  0  0  0  0
  188.5130  177.0630  142.2000 O   0  0  0  0  0  0  0  0  0  0  0  0
  185.2780  176.6930  136.1640 C   0  0  2  0  0  3  0  0  0  0  0  0
  190.4640  177.1960  140.0320 C   0  0  0  0  0  2  0  0  0  0  0  0
  188.2410  177.8040  141.0350 C   0  0  1  0  0  3  0  0  0  0  0  0
  188.9490  177.1600  139.8360 C   0  0  1  0  0  3  0  0  0  0  0  0
  187.0640  177.8440  138.3400 C   0  0  2  0  0  3  0  0  0  0  0  0
  184.8820  175.7340  137.2660 C   0  0  0  0  0  2  0  0  0  0  0  0
  187.9260  177.7390  143.2890 C   0  0  2  0  0  3  0  0  0  0  0  0
  184.0750  176.5430  138.2670 C   0  0  0  0  0  2  0  0  0  0  0  0
  189.2720  177.1760  137.3510 C   0  0  0  0  0  2  0  0  0  0  0  0
  188.5790  177.8720  138.5230 C   0  0  2  0  0  3  0  0  0  0  0  0
  186.6780  178.4650  137.1390 O   0  0  0  0  0  0  0  0  0  0  0  0
  186.1250  178.5500  141.8940 O   0  0  0  0  0  0  0  0  0  0  0  0
  184.5460  180.0590  139.2370 O   0  0  0  0  0  1  0  0  0  0  0  0
  186.4980  176.3150  135.6010 O   0  0  0  0  0  1  0  0  0  0  0  0
  186.3920  178.5660  139.5060 C   0  0  2  0  0  3  0  0  0  0  0  0
  185.3500  178.0700  136.8150 C   0  0  2  0  0  3  0  0  0  0  0  0
  189.7570  176.8360  144.7130 C   0  0  0  0  0  2  0  0  0  0  0  0
  188.2550  176.9820  144.5700 C   0  0  1  0  0  3  0  0  0  0  0  0
  189.0240  177.8950  145.5060 C   0  0  1  0  0  3  0  0  0  0  0  0
  188.8440  177.4350  146.8720 N   0  0  0  0  0  2  0  0  0  0  0  0
  187.8090  177.9530  147.7050 C   0  0  0  0  0  0  0  0  0  0  0  0
  187.6800  177.5220  148.8800 O   0  0  0  0  0  1  0  0  0  0  0  0
  186.9430  178.9300  147.2300 O   0  0  0  0  0  0  0  0  0  0  0  0
  184.3350  178.4500  144.1090 O   0  0  0  0  0  1  0  0  0  0  0  0
  185.7190  178.5360  144.2420 C   0  0  0  0  0  2  0  0  0  0  0  0
  1 10  1  0  0  0  0
  1 19  1  1  0  0  0
  2  9  1  0  0  0  0
  3  2  1  0  0  0  0
  4 20  1  6  0  0  0
  4 22  1  0  0  0  0
  5 15  1  1  0  0  0
  5  4  1  0  0  0  0
  6 14  1  0  0  0  0
  6 32  1  1  0  0  0
  8 21  1  1  0  0  0
  8 23  1  0  0  0  0
  8 13  1  0  0  0  0
 10  7  1  1  0  0  0
 11  9  1  1  0  0  0
 11 10  1  0  0  0  0
 12 18  1  6  0  0  0
 12 17  1  0  0  0  0
 12 22  1  0  0  0  0
 13 15  1  0  0  0  0
 14  7  1  6  0  0  0
 14 25  1  0  0  0  0
 16  3  1  0  0  0  0
 17 16  1  6  0  0  0
 17 11  1  0  0  0  0
 19  6  1  0  0  0  0
 22  1  1  0  0  0  0
 23 18  1  0  0  0  0
 23  5  1  0  0  0  0
 24 26  1  0  0  0  0
 25 24  1  0  0  0  0
 25 26  1  0  0  0  0
 26 27  1  0  0  0  0
 27 28  1  0  0  0  0
 28 29  1  0  0  0  0
 30 28  2  0  0  0  0
 31 32  1  0  0  0  0
M  END
>  <MODEL>
7

>  <REMARK>
 VINA RESULT:      -7.5      1.299      1.547
  Name = 
  3 active torsions:
  status: ('A' for Active; 'I' for Inactive)
    1  A    between atoms: C_7  and  C_19
    2  A    between atoms: C_10  and  C_17
    3  A    between atoms: C_20  and  N_29
                            x       y       z     vdW  Elec       q    Type
                         _______ _______ _______ _____ _____    ______ ____

>  <TORSDO>
F 3

$$$$
=
 OpenBabel11122410513D

 32 37  0  0  1  0  0  0  0  0999 V2000
  184.6950  178.2250  141.8050 C   0  0  1  0  0  3  0  0  0  0  0  0
  188.4190  177.8510  138.4220 C   0  0  0  0  0  2  0  0  0  0  0  0
  187.5130  178.4740  137.3630 C   0  0  0  0  0  2  0  0  0  0  0  0
  182.3350  178.7150  141.0030 C   0  0  2  0  0  3  0  0  0  0  0  0
  181.5710  177.9570  139.9060 C   0  0  2  0  0  3  0  0  0  0  0  0
  185.1490  178.0970  144.0330 C   0  0  2  0  0  3  0  0  0  0  0  0
  186.9640  177.7900  142.4690 O   0  0  0  0  0  0  0  0  0  0  0  0
  182.0530  176.8820  137.7680 C   0  0  2  0  0  3  0  0  0  0  0  0
  188.0330  178.3560  139.8110 C   0  0  0  0  0  2  0  0  0  0  0  0
  186.1910  178.4820  141.5160 C   0  0  1  0  0  3  0  0  0  0  0  0
  186.5730  178.0170  140.1060 C   0  0  1  0  0  3  0  0  0  0  0  0
  184.2090  178.3320  139.3500 C   0  0  2  0  0  3  0  0  0  0  0  0
  182.2280  175.8420  138.8540 C   0  0  0  0  0  2  0  0  0  0  0  0
  186.6520  178.3130  143.7400 C   0  0  2  0  0  3  0  0  0  0  0  0
  181.6580  176.4520  140.1240 C   0  0  0  0  0  2  0  0  0  0  0  0
  186.0520  178.1440  137.6580 C   0  0  0  0  0  2  0  0  0  0  0  0
  185.6660  178.6620  139.0420 C   0  0  2  0  0  3  0  0  0  0  0  0
  183.3410  178.8830  138.3910 O   0  0  0  0  0  0  0  0  0  0  0  0
  184.3750  178.7670  143.0640 O   0  0  0  0  0  0  0  0  0  0  0  0
  181.7600  179.9730  141.1840 O   0  0  0  0  0  1  0  0  0  0  0  0
  183.0680  176.7700  136.8150 O   0  0  0  0  0  1  0  0  0  0  0  0
  183.8350  178.8810  140.7250 C   0  0  2  0  0  3  0  0  0  0  0  0
  182.0780  178.2330  138.4740 C   0  0  2  0  0  3  0  0  0  0  0  0
  188.3630  176.5450  144.1180 C   0  0  0  0  0  2  0  0  0  0  0  0
  187.5190  177.6150  144.7810 C   0  0  1  0  0  3  0  0  0  0  0  0
  188.9800  177.8800  144.4720 C   0  0  1  0  0  3  0  0  0  0  0  0
  189.7560  177.7430  145.6930 N   0  0  0  0  0  2  0  0  0  0  0  0
  191.0840  177.2230  145.6800 C   0  0  0  0  0  0  0  0  0  0  0  0
  191.7270  177.1280  146.7570 O   0  0  0  0  0  1  0  0  0  0  0  0
  191.6730  176.8170  144.4880 O   0  0  0  0  0  0  0  0  0  0  0  0
  183.4310  179.0030  145.4230 O   0  0  0  0  0  1  0  0  0  0  0  0
  184.7740  178.6290  145.4090 C   0  0  0  0  0  2  0  0  0  0  0  0
  1 19  1  1  0  0  0
  2  9  1  0  0  0  0
  3 16  1  0  0  0  0
  3  2  1  0  0  0  0
  4 20  1  6  0  0  0
  5 15  1  1  0  0  0
  5  4  1  0  0  0  0
  6 32  1  1  0  0  0
  8 21  1  6  0  0  0
  8 23  1  0  0  0  0
  8 13  1  0  0  0  0
 10  1  1  0  0  0  0
 10  7  1  1  0  0  0
 11  9  1  6  0  0  0
 11 10  1  0  0  0  0
 12 18  1  6  0  0  0
 12 22  1  0  0  0  0
 13 15  1  0  0  0  0
 14  7  1  6  0  0  0
 14  6  1  0  0  0  0
 14 25  1  0  0  0  0
 17 16  1  6  0  0  0
 17 12  1  0  0  0  0
 17 11  1  0  0  0  0
 18 23  1  0  0  0  0
 19  6  1  0  0  0  0
 22  4  1  0  0  0  0
 22  1  1  0  0  0  0
 23  5  1  0  0  0  0
 24 26  1  0  0  0  0
 24 25  1  0  0  0  0
 26 25  1  0  0  0  0
 26 27  1  0  0  0  0
 28 27  1  0  0  0  0
 28 29  1  0  0  0  0
 30 28  2  0  0  0  0
 32 31  1  0  0  0  0
M  END
>  <MODEL>
8

>  <REMARK>
 VINA RESULT:      -7.4      2.118      2.787
  Name = 
  3 active torsions:
  status: ('A' for Active; 'I' for Inactive)
    1  A    between atoms: C_7  and  C_19
    2  A    between atoms: C_10  and  C_17
    3  A    between atoms: C_20  and  N_29
                            x       y       z     vdW  Elec       q    Type
                         _______ _______ _______ _____ _____    ______ ____

>  <TORSDO>
F 3

$$$$
=
 OpenBabel11122410513D

 32 37  0  0  1  0  0  0  0  0999 V2000
  187.9420  177.8250  139.8190 C   0  0  1  0  0  3  0  0  0  0  0  0
  192.6810  176.7490  141.1710 C   0  0  0  0  0  2  0  0  0  0  0  0
  193.1630  177.1430  139.7770 C   0  0  0  0  0  2  0  0  0  0  0  0
  187.3960  178.1470  137.3590 C   0  0  2  0  0  3  0  0  0  0  0  0
  187.7450  177.1800  136.2160 C   0  0  2  0  0  3  0  0  0  0  0  0
  186.3410  178.1590  141.4050 C   0  0  2  0  0  3  0  0  0  0  0  0
  188.5600  177.5300  142.1230 O   0  0  0  0  0  0  0  0  0  0  0  0
  189.5730  175.6860  135.5950 C   0  0  2  0  0  3  0  0  0  0  0  0
  191.4210  177.5320  141.5350 C   0  0  0  0  0  2  0  0  0  0  0  0
  189.0400  178.0130  140.8900 C   0  0  1  0  0  3  0  0  0  0  0  0
  190.3220  177.2660  140.5060 C   0  0  1  0  0  3  0  0  0  0  0  0
  189.7060  177.4250  138.0870 C   0  0  2  0  0  3  0  0  0  0  0  0
  188.5960  174.8920  136.4360 C   0  0  0  0  0  2  0  0  0  0  0  0
  187.4390  178.3050  142.4840 C   0  0  2  0  0  3  0  0  0  0  0  0
  187.3510  175.7530  136.5710 C   0  0  0  0  0  2  0  0  0  0  0  0
  192.0660  176.8860  138.7470 C   0  0  0  0  0  2  0  0  0  0  0  0
  190.8110  177.6800  139.1070 C   0  0  2  0  0  3  0  0  0  0  0  0
  190.1150  177.7680  136.7860 O   0  0  0  0  0  0  0  0  0  0  0  0
  186.8300  178.6170  140.1640 O   0  0  0  0  0  0  0  0  0  0  0  0
  187.1530  179.4160  136.8350 O   0  0  0  0  0  1  0  0  0  0  0  0
  190.8880  175.3760  135.9490 O   0  0  0  0  0  1  0  0  0  0  0  0
  188.4720  178.2470  138.4490 C   0  0  2  0  0  3  0  0  0  0  0  0
  189.2440  177.1530  135.8440 C   0  0  2  0  0  3  0  0  0  0  0  0
  187.5960  176.5200  144.2120 C   0  0  0  0  0  2  0  0  0  0  0  0
  186.9380  177.8340  143.8430 C   0  0  1  0  0  3  0  0  0  0  0  0
  188.0970  177.8100  144.8220 C   0  0  1  0  0  3  0  0  0  0  0  0
  187.5800  177.9360  146.1740 N   0  0  0  0  0  2  0  0  0  0  0  0
  188.3820  177.6270  147.3120 C   0  0  0  0  0  0  0  0  0  0  0  0
  187.9010  177.7560  148.4680 O   0  0  0  0  0  1  0  0  0  0  0  0
  189.6890  177.1820  147.1560 O   0  0  0  0  0  0  0  0  0  0  0  0
  184.4230  179.3390  140.6090 O   0  0  0  0  0  1  0  0  0  0  0  0
  185.1010  178.9650  141.7680 C   0  0  0  0  0  2  0  0  0  0  0  0
  1 19  1  1  0  0  0
  1 10  1  0  0  0  0
  2  9  1  0  0  0  0
  3  2  1  0  0  0  0
  4 20  1  6  0  0  0
  4 22  1  0  0  0  0
  5 15  1  1  0  0  0
  5  4  1  0  0  0  0
  6 32  1  1  0  0  0
  6 14  1  0  0  0  0
  8 23  1  0  0  0  0
  8 21  1  1  0  0  0
  8 13  1  0  0  0  0
 10  7  1  1  0  0  0
 11 10  1  0  0  0  0
 11  9  1  1  0  0  0
 12 18  1  6  0  0  0
 12 22  1  0  0  0  0
 12 17  1  0  0  0  0
 13 15  1  0  0  0  0
 14  7  1  6  0  0  0
 14 25  1  0  0  0  0
 16  3  1  0  0  0  0
 17 16  1  6  0  0  0
 17 11  1  0  0  0  0
 19  6  1  0  0  0  0
 22  1  1  0  0  0  0
 23  5  1  0  0  0  0
 23 18  1  0  0  0  0
 24 26  1  0  0  0  0
 25 24  1  0  0  0  0
 25 26  1  0  0  0  0
 26 27  1  0  0  0  0
 27 28  1  0  0  0  0
 28 29  1  0  0  0  0
 30 28  2  0  0  0  0
 31 32  1  0  0  0  0
M  END
>  <MODEL>
9

>  <REMARK>
 VINA RESULT:      -7.3      1.967      2.936
  Name = 
  3 active torsions:
  status: ('A' for Active; 'I' for Inactive)
    1  A    between atoms: C_7  and  C_19
    2  A    between atoms: C_10  and  C_17
    3  A    between atoms: C_20  and  N_29
                            x       y       z     vdW  Elec       q    Type
                         _______ _______ _______ _____ _____    ______ ____

>  <TORSDO>
F 3

$$$$
