=
 OpenBabel11122411553D

 28 32  0  0  1  0  0  0  0  0999 V2000
  180.0700  177.9510  141.9020 C   0  0  0  0  0  0  0  0  0  0  0  0
  180.1490  180.5130  139.1930 O   0  0  0  0  0  0  0  0  0  0  0  0
  181.6830  174.1090  137.1230 O   0  0  0  0  0  0  0  0  0  0  0  0
  182.2010  179.0500  143.3560 C   0  0  0  0  0  3  0  0  0  0  0  0
  183.4940  175.5780  137.7990 C   0  0  2  0  0  3  0  0  0  0  0  0
  178.9310  177.2970  141.1910 C   0  0  0  0  0  2  0  0  0  0  0  0
  182.2730  181.5540  138.5220 O   0  0  0  0  0  0  0  0  0  0  0  0
  181.4260  180.3170  138.4230 S   0  0  0  0  0  0  0  0  0  0  0  0
  181.4300  178.8980  136.1920 C   0  0  0  0  0  0  0  0  0  0  0  0
  182.3400  178.9360  139.0740 C   0  0  2  0  0  3  0  0  0  0  0  0
  179.7060  173.7540  140.6880 O   0  0  0  0  0  0  0  0  0  0  0  0
  182.1890  176.5780  139.6220 C   0  0  2  0  0  3  0  0  0  0  0  0
  182.1600  177.9140  136.8700 O   0  0  0  0  0  0  0  0  0  0  0  0
  181.0670  179.9980  136.7680 N   0  0  0  0  0  0  0  0  0  0  0  0
  179.5470  174.9690  140.4020 C   0  0  0  0  0  0  0  0  0  0  0  0
  181.2880  178.2340  141.2510 C   0  0  0  0  0  0  0  0  0  0  0  0
  182.1240  175.0220  137.8720 C   0  0  0  0  0  0  0  0  0  0  0  0
  181.0220  178.6460  134.7860 C   0  0  0  0  0  1  0  0  0  0  0  0
  179.9200  175.4570  139.0400 C   0  0  0  0  0  2  0  0  0  0  0  0
  182.3530  178.7720  141.9960 C   0  0  0  0  0  3  0  0  0  0  0  0
  179.9300  178.2290  143.2680 C   0  0  0  0  0  3  0  0  0  0  0  0
  180.9870  178.7820  143.9910 C   0  0  0  0  0  3  0  0  0  0  0  0
  178.9980  175.8550  141.3790 N   0  0  0  0  0  2  0  0  0  0  0  0
  183.3840  176.8390  138.6880 C   0  0  2  0  0  3  0  0  0  0  0  0
  181.3660  175.5970  138.9200 N   0  0  0  0  0  0  0  0  0  0  0  0
  183.0410  178.1600  137.9770 C   0  0  2  0  0  3  0  0  0  0  0  0
  183.9770  175.8250  136.3760 C   0  0  0  0  0  1  0  0  0  0  0  0
  181.4690  177.9140  139.7910 C   0  0  1  0  0  3  0  0  0  0  0  0
  1 21  1  0  0  0  0
  3 17  2  0  0  0  0
  4 22  1  0  0  0  0
  5 27  1  6  0  0  0
  5 17  1  0  0  0  0
  5 24  1  0  0  0  0
  6 23  1  0  0  0  0
  6  1  1  0  0  0  0
  8  7  2  0  0  0  0
  8  2  2  0  0  0  0
  9 14  2  0  0  0  0
  9 13  1  0  0  0  0
 10  8  1  6  0  0  0
 10 28  1  0  0  0  0
 12 25  1  6  0  0  0
 12 28  1  0  0  0  0
 13 26  1  0  0  0  0
 14  8  1  0  0  0  0
 15 11  2  0  0  0  0
 15 23  1  0  0  0  0
 16  1  2  0  0  0  0
 16 20  1  0  0  0  0
 17 25  1  0  0  0  0
 18  9  1  0  0  0  0
 19 15  1  0  0  0  0
 20  4  2  0  0  0  0
 21 22  2  0  0  0  0
 24 12  1  0  0  0  0
 25 19  1  0  0  0  0
 26 24  1  0  0  0  0
 26 10  1  0  0  0  0
 28 16  1  0  0  0  0
M  END
>  <MODEL>
1

>  <REMARK>
 VINA RESULT:      -6.3      0.000      0.000
  Name = 
  0 active torsions:
  status: ('A' for Active; 'I' for Inactive)
                            x       y       z     vdW  Elec       q    Type
                         _______ _______ _______ _____ _____    ______ ____

>  <TORSDO>
F 0

$$$$
=
 OpenBabel11122411553D

 28 32  0  0  1  0  0  0  0  0999 V2000
  180.4930  180.7210  138.3730 C   0  0  0  0  0  0  0  0  0  0  0  0
  184.1790  180.6600  138.9360 O   0  0  0  0  0  0  0  0  0  0  0  0
  181.7720  175.4010  135.1680 O   0  0  0  0  0  0  0  0  0  0  0  0
  179.8160  180.3840  141.0730 C   0  0  0  0  0  3  0  0  0  0  0  0
  181.9630  175.1180  137.5710 C   0  0  2  0  0  3  0  0  0  0  0  0
  180.7620  180.8980  136.9150 C   0  0  0  0  0  2  0  0  0  0  0  0
  185.1420  179.3050  140.7470 O   0  0  0  0  0  0  0  0  0  0  0  0
  184.5470  179.2670  139.3680 S   0  0  0  0  0  0  0  0  0  0  0  0
  185.4410  177.5180  137.5990 C   0  0  0  0  0  0  0  0  0  0  0  0
  183.1090  178.2200  139.3870 C   0  0  2  0  0  3  0  0  0  0  0  0
  178.9310  178.3430  135.0370 O   0  0  0  0  0  0  0  0  0  0  0  0
  181.2570  177.4210  138.0400 C   0  0  2  0  0  3  0  0  0  0  0  0
  184.2410  176.8150  137.7510 O   0  0  0  0  0  0  0  0  0  0  0  0
  185.6910  178.5980  138.2670 N   0  0  0  0  0  0  0  0  0  0  0  0
  179.9100  178.9260  135.5700 C   0  0  0  0  0  0  0  0  0  0  0  0
  181.0640  179.6630  139.1110 C   0  0  0  0  0  0  0  0  0  0  0  0
  181.6950  175.8800  136.3310 C   0  0  0  0  0  0  0  0  0  0  0  0
  186.4350  177.0340  136.6060 C   0  0  0  0  0  1  0  0  0  0  0  0
  181.2450  178.2560  135.5810 C   0  0  0  0  0  2  0  0  0  0  0  0
  180.7040  179.4980  140.4600 C   0  0  0  0  0  3  0  0  0  0  0  0
  179.5990  181.6000  138.9960 C   0  0  0  0  0  3  0  0  0  0  0  0
  179.2660  181.4370  140.3410 C   0  0  0  0  0  3  0  0  0  0  0  0
  179.7300  180.2240  136.1400 N   0  0  0  0  0  2  0  0  0  0  0  0
  182.0400  176.2380  138.6350 C   0  0  2  0  0  3  0  0  0  0  0  0
  181.2900  177.2100  136.5950 N   0  0  0  0  0  0  0  0  0  0  0  0
  183.4360  176.8090  138.9400 C   0  0  2  0  0  3  0  0  0  0  0  0
  183.1900  174.2200  137.4820 C   0  0  0  0  0  1  0  0  0  0  0  0
  182.0030  178.6880  138.4510 C   0  0  1  0  0  3  0  0  0  0  0  0
  1 21  2  0  0  0  0
  1 16  1  0  0  0  0
  2  8  2  0  0  0  0
  3 17  2  0  0  0  0
  5 27  1  6  0  0  0
  5 24  1  0  0  0  0
  6  1  1  0  0  0  0
  8  7  2  0  0  0  0
  9 13  1  0  0  0  0
  9 14  2  0  0  0  0
 10  8  1  6  0  0  0
 11 15  2  0  0  0  0
 12 25  1  6  0  0  0
 12 28  1  0  0  0  0
 12 24  1  0  0  0  0
 13 26  1  0  0  0  0
 14  8  1  0  0  0  0
 15 19  1  0  0  0  0
 15 23  1  0  0  0  0
 16 20  2  0  0  0  0
 17 25  1  0  0  0  0
 17  5  1  0  0  0  0
 18  9  1  0  0  0  0
 19 25  1  0  0  0  0
 20  4  1  0  0  0  0
 21 22  1  0  0  0  0
 22  4  2  0  0  0  0
 23  6  1  0  0  0  0
 24 26  1  0  0  0  0
 26 10  1  0  0  0  0
 28 16  1  0  0  0  0
 28 10  1  0  0  0  0
M  END
>  <MODEL>
2

>  <REMARK>
 VINA RESULT:      -5.7      2.718      4.073
  Name = 
  0 active torsions:
  status: ('A' for Active; 'I' for Inactive)
                            x       y       z     vdW  Elec       q    Type
                         _______ _______ _______ _____ _____    ______ ____

>  <TORSDO>
F 0

$$$$
=
 OpenBabel11122411553D

 28 32  0  0  1  0  0  0  0  0999 V2000
  180.9210  178.5280  142.3890 C   0  0  0  0  0  0  0  0  0  0  0  0
  180.5320  181.3460  139.9770 O   0  0  0  0  0  0  0  0  0  0  0  0
  179.9670  175.0700  137.1600 O   0  0  0  0  0  0  0  0  0  0  0  0
  183.5970  179.0880  143.0080 C   0  0  0  0  0  3  0  0  0  0  0  0
  182.1470  176.1360  137.1960 C   0  0  2  0  0  3  0  0  0  0  0  0
  179.5000  178.1550  142.1150 C   0  0  0  0  0  2  0  0  0  0  0  0
  182.4410  182.1030  138.6250 O   0  0  0  0  0  0  0  0  0  0  0  0
  181.3920  181.0380  138.7820 S   0  0  0  0  0  0  0  0  0  0  0  0
  180.3330  179.9120  136.6370 C   0  0  0  0  0  0  0  0  0  0  0  0
  182.1900  179.4610  138.9780 C   0  0  2  0  0  3  0  0  0  0  0  0
  179.3470  174.6180  141.1800 O   0  0  0  0  0  0  0  0  0  0  0  0
  181.7900  177.1100  139.4200 C   0  0  2  0  0  3  0  0  0  0  0  0
  181.0500  178.7500  136.9460 O   0  0  0  0  0  0  0  0  0  0  0  0
  180.4160  180.9810  137.3620 N   0  0  0  0  0  0  0  0  0  0  0  0
  179.3360  175.8680  141.0360 C   0  0  0  0  0  0  0  0  0  0  0  0
  181.8610  178.6860  141.3500 C   0  0  0  0  0  0  0  0  0  0  0  0
  180.8110  175.8030  137.7410 C   0  0  0  0  0  0  0  0  0  0  0  0
  179.4140  179.8980  135.4690 C   0  0  0  0  0  1  0  0  0  0  0  0
  179.2910  176.4470  139.6590 C   0  0  0  0  0  2  0  0  0  0  0  0
  183.2030  178.9520  141.6760 C   0  0  0  0  0  3  0  0  0  0  0  0
  181.3280  178.6600  143.7220 C   0  0  0  0  0  3  0  0  0  0  0  0
  182.6590  178.9460  144.0320 C   0  0  0  0  0  3  0  0  0  0  0  0
  179.3500  176.7090  142.1910 N   0  0  0  0  0  2  0  0  0  0  0  0
  182.6040  177.2840  138.1260 C   0  0  2  0  0  3  0  0  0  0  0  0
  180.5990  176.3650  139.0220 N   0  0  0  0  0  0  0  0  0  0  0  0
  182.2950  178.7180  137.6610 C   0  0  2  0  0  3  0  0  0  0  0  0
  182.1340  176.4690  135.7090 C   0  0  0  0  0  1  0  0  0  0  0  0
  181.4490  178.5150  139.9110 C   0  0  1  0  0  3  0  0  0  0  0  0
  1 21  1  0  0  0  0
  3 17  2  0  0  0  0
  4 22  1  0  0  0  0
  5 27  1  6  0  0  0
  5 17  1  0  0  0  0
  5 24  1  0  0  0  0
  6 23  1  0  0  0  0
  6  1  1  0  0  0  0
  7  8  2  0  0  0  0
  8  2  2  0  0  0  0
  9 13  1  0  0  0  0
  9 14  2  0  0  0  0
 10  8  1  6  0  0  0
 10 28  1  0  0  0  0
 12 25  1  6  0  0  0
 12 28  1  0  0  0  0
 13 26  1  0  0  0  0
 14  8  1  0  0  0  0
 15 11  2  0  0  0  0
 15 23  1  0  0  0  0
 16 20  1  0  0  0  0
 16  1  2  0  0  0  0
 17 25  1  0  0  0  0
 18  9  1  0  0  0  0
 19 15  1  0  0  0  0
 20  4  2  0  0  0  0
 21 22  2  0  0  0  0
 24 12  1  0  0  0  0
 25 19  1  0  0  0  0
 26 24  1  0  0  0  0
 26 10  1  0  0  0  0
 28 16  1  0  0  0  0
M  END
>  <MODEL>
3

>  <REMARK>
 VINA RESULT:      -5.6      1.216      1.310
  Name = 
  0 active torsions:
  status: ('A' for Active; 'I' for Inactive)
                            x       y       z     vdW  Elec       q    Type
                         _______ _______ _______ _____ _____    ______ ____

>  <TORSDO>
F 0

$$$$
=
 OpenBabel11122411553D

 28 32  0  0  1  0  0  0  0  0999 V2000
  182.5850  176.2900  138.3280 C   0  0  0  0  0  0  0  0  0  0  0  0
  184.7730  173.2910  137.9680 O   0  0  0  0  0  0  0  0  0  0  0  0
  188.0070  179.3200  137.0540 O   0  0  0  0  0  0  0  0  0  0  0  0
  180.9710  175.6960  136.1140 C   0  0  0  0  0  3  0  0  0  0  0  0
  187.0860  178.1890  135.1140 C   0  0  2  0  0  3  0  0  0  0  0  0
  183.3960  176.6840  139.5190 C   0  0  0  0  0  2  0  0  0  0  0  0
  185.2570  172.3590  135.7450 O   0  0  0  0  0  0  0  0  0  0  0  0
  185.5760  173.4670  136.7090 S   0  0  0  0  0  0  0  0  0  0  0  0
  188.0320  174.4410  136.8220 C   0  0  0  0  0  0  0  0  0  0  0  0
  185.2010  175.0280  135.9430 C   0  0  2  0  0  3  0  0  0  0  0  0
  184.5540  180.1320  139.0930 O   0  0  0  0  0  0  0  0  0  0  0  0
  185.0980  177.4200  136.3320 C   0  0  2  0  0  3  0  0  0  0  0  0
  187.5540  175.6010  136.2000 O   0  0  0  0  0  0  0  0  0  0  0  0
  187.2590  173.4360  137.0810 N   0  0  0  0  0  0  0  0  0  0  0  0
  184.6080  178.8750  139.1280 C   0  0  0  0  0  0  0  0  0  0  0  0
  183.1830  176.0130  137.0810 C   0  0  0  0  0  0  0  0  0  0  0  0
  187.1050  178.6110  136.5330 C   0  0  0  0  0  0  0  0  0  0  0  0
  189.4570  174.3860  137.2390 C   0  0  0  0  0  1  0  0  0  0  0  0
  185.8590  178.1830  138.6940 C   0  0  0  0  0  2  0  0  0  0  0  0
  182.3600  175.7310  135.9760 C   0  0  0  0  0  3  0  0  0  0  0  0
  181.1910  176.2570  138.4550 C   0  0  0  0  0  3  0  0  0  0  0  0
  180.3870  175.9560  137.3550 C   0  0  0  0  0  3  0  0  0  0  0  0
  183.4790  178.1360  139.5970 N   0  0  0  0  0  2  0  0  0  0  0  0
  185.9780  177.1100  135.1070 C   0  0  2  0  0  3  0  0  0  0  0  0
  185.9630  178.1670  137.2400 N   0  0  0  0  0  0  0  0  0  0  0  0
  186.4280  175.6530  135.3110 C   0  0  2  0  0  3  0  0  0  0  0  0
  188.4420  177.7320  134.5940 C   0  0  0  0  0  1  0  0  0  0  0  0
  184.6790  176.0740  136.9180 C   0  0  1  0  0  3  0  0  0  0  0  0
  1 21  1  0  0  0  0
  1  6  1  0  0  0  0
  4 22  1  0  0  0  0
  5 27  1  1  0  0  0
  5 17  1  0  0  0  0
  6 23  1  0  0  0  0
  7  8  2  0  0  0  0
  8 14  1  0  0  0  0
  8  2  2  0  0  0  0
  9 14  2  0  0  0  0
  9 18  1  0  0  0  0
 10  8  1  1  0  0  0
 10 28  1  0  0  0  0
 11 15  2  0  0  0  0
 12 28  1  0  0  0  0
 12 25  1  1  0  0  0
 13  9  1  0  0  0  0
 15 23  1  0  0  0  0
 16  1  2  0  0  0  0
 17  3  2  0  0  0  0
 17 25  1  0  0  0  0
 19 15  1  0  0  0  0
 20  4  2  0  0  0  0
 20 16  1  0  0  0  0
 22 21  2  0  0  0  0
 24  5  1  0  0  0  0
 24 26  1  0  0  0  0
 24 12  1  0  0  0  0
 25 19  1  0  0  0  0
 26 10  1  0  0  0  0
 26 13  1  0  0  0  0
 28 16  1  0  0  0  0
M  END
>  <MODEL>
4

>  <REMARK>
 VINA RESULT:      -5.5      3.865      6.741
  Name = 
  0 active torsions:
  status: ('A' for Active; 'I' for Inactive)
                            x       y       z     vdW  Elec       q    Type
                         _______ _______ _______ _____ _____    ______ ____

>  <TORSDO>
F 0

$$$$
=
 OpenBabel11122411553D

 28 32  0  0  1  0  0  0  0  0999 V2000
  180.5570  179.3780  142.0000 C   0  0  0  0  0  0  0  0  0  0  0  0
  179.9110  176.5150  139.6980 O   0  0  0  0  0  0  0  0  0  0  0  0
  186.5820  178.0990  140.4920 O   0  0  0  0  0  0  0  0  0  0  0  0
  179.2790  181.2890  140.3960 C   0  0  0  0  0  3  0  0  0  0  0  0
  185.3540  179.1210  138.6650 C   0  0  2  0  0  3  0  0  0  0  0  0
  181.2610  178.4280  142.9130 C   0  0  0  0  0  2  0  0  0  0  0  0
  179.8140  176.8660  137.2670 O   0  0  0  0  0  0  0  0  0  0  0  0
  180.7260  176.7430  138.4550 S   0  0  0  0  0  0  0  0  0  0  0  0
  183.0880  175.5870  138.1820 C   0  0  0  0  0  0  0  0  0  0  0  0
  181.6880  178.2310  138.6040 C   0  0  2  0  0  3  0  0  0  0  0  0
  184.5950  179.7400  143.6700 O   0  0  0  0  0  0  0  0  0  0  0  0
  183.3090  179.3780  139.9980 C   0  0  2  0  0  3  0  0  0  0  0  0
  183.6730  176.8510  138.3120 O   0  0  0  0  0  0  0  0  0  0  0  0
  181.8050  175.4200  138.2150 N   0  0  0  0  0  0  0  0  0  0  0  0
  183.7170  179.0110  143.1400 C   0  0  0  0  0  0  0  0  0  0  0  0
  180.9030  179.4920  140.6370 C   0  0  0  0  0  0  0  0  0  0  0  0
  185.5130  178.5880  140.0360 C   0  0  0  0  0  0  0  0  0  0  0  0
  183.9690  174.3980  138.0520 C   0  0  0  0  0  1  0  0  0  0  0  0
  184.1140  178.0430  142.0740 C   0  0  0  0  0  2  0  0  0  0  0  0
  180.2640  180.4650  139.8480 C   0  0  0  0  0  3  0  0  0  0  0  0
  179.5720  180.2140  142.5400 C   0  0  0  0  0  3  0  0  0  0  0  0
  178.9310  181.1610  141.7410 C   0  0  0  0  0  3  0  0  0  0  0  0
  182.3610  179.1120  143.5780 N   0  0  0  0  0  2  0  0  0  0  0  0
  183.8190  179.2760  138.5490 C   0  0  2  0  0  3  0  0  0  0  0  0
  184.3360  178.7310  140.8080 N   0  0  0  0  0  0  0  0  0  0  0  0
  183.0460  178.0900  137.9470 C   0  0  2  0  0  3  0  0  0  0  0  0
  186.0030  178.2540  137.5930 C   0  0  0  0  0  1  0  0  0  0  0  0
  181.9820  178.6240  140.0450 C   0  0  1  0  0  3  0  0  0  0  0  0
  1 21  1  0  0  0  0
  1  6  1  0  0  0  0
  4 22  1  0  0  0  0
  5 27  1  6  0  0  0
  5 17  1  0  0  0  0
  6 23  1  0  0  0  0
  7  8  2  0  0  0  0
  8  2  2  0  0  0  0
  9 14  2  0  0  0  0
  9 13  1  0  0  0  0
 10  8  1  1  0  0  0
 10 28  1  0  0  0  0
 12 28  1  0  0  0  0
 12 25  1  1  0  0  0
 14  8  1  0  0  0  0
 15 23  1  0  0  0  0
 15 11  2  0  0  0  0
 16  1  2  0  0  0  0
 17  3  2  0  0  0  0
 17 25  1  0  0  0  0
 18  9  1  0  0  0  0
 19 15  1  0  0  0  0
 20  4  2  0  0  0  0
 20 16  1  0  0  0  0
 22 21  2  0  0  0  0
 24  5  1  0  0  0  0
 24 12  1  0  0  0  0
 25 19  1  0  0  0  0
 26 13  1  0  0  0  0
 26 24  1  0  0  0  0
 26 10  1  0  0  0  0
 28 16  1  0  0  0  0
M  END
>  <MODEL>
5

>  <REMARK>
 VINA RESULT:      -5.4      2.892      4.347
  Name = 
  0 active torsions:
  status: ('A' for Active; 'I' for Inactive)
                            x       y       z     vdW  Elec       q    Type
                         _______ _______ _______ _____ _____    ______ ____

>  <TORSDO>
F 0

$$$$
=
 OpenBabel11122411553D

 28 32  0  0  1  0  0  0  0  0999 V2000
  190.1670  174.5610  136.5210 C   0  0  0  0  0  0  0  0  0  0  0  0
  189.3840  177.5290  138.6380 O   0  0  0  0  0  0  0  0  0  0  0  0
  183.8690  174.5190  135.7800 O   0  0  0  0  0  0  0  0  0  0  0  0
  191.6110  175.9950  134.5940 C   0  0  0  0  0  3  0  0  0  0  0  0
  184.9420  176.3450  134.5950 C   0  0  2  0  0  3  0  0  0  0  0  0
  189.4100  173.7190  137.4970 C   0  0  0  0  0  2  0  0  0  0  0  0
  189.0720  179.7430  137.6160 O   0  0  0  0  0  0  0  0  0  0  0  0
  188.4390  178.4020  137.8600 S   0  0  0  0  0  0  0  0  0  0  0  0
  185.8320  178.2350  138.2680 C   0  0  0  0  0  0  0  0  0  0  0  0
  188.0450  177.6540  136.2950 C   0  0  2  0  0  3  0  0  0  0  0  0
  186.8930  171.7630  135.6960 O   0  0  0  0  0  0  0  0  0  0  0  0
  187.1970  175.6340  135.2540 C   0  0  2  0  0  3  0  0  0  0  0  0
  185.7130  177.6630  136.9960 O   0  0  0  0  0  0  0  0  0  0  0  0
  186.9750  178.6110  138.7450 N   0  0  0  0  0  0  0  0  0  0  0  0
  187.3660  172.6720  136.4260 C   0  0  0  0  0  0  0  0  0  0  0  0
  189.5950  175.7050  135.9270 C   0  0  0  0  0  0  0  0  0  0  0  0
  184.9160  175.1410  135.4550 C   0  0  0  0  0  0  0  0  0  0  0  0
  184.6150  178.3690  139.1110 C   0  0  0  0  0  1  0  0  0  0  0  0
  186.4710  173.7670  136.9060 C   0  0  0  0  0  2  0  0  0  0  0  0
  190.3260  176.4060  134.9510 C   0  0  0  0  0  3  0  0  0  0  0  0
  191.4540  174.1540  136.1510 C   0  0  0  0  0  3  0  0  0  0  0  0
  192.1770  174.8700  135.1960 C   0  0  0  0  0  3  0  0  0  0  0  0
  188.7460  172.6310  136.7940 N   0  0  0  0  0  2  0  0  0  0  0  0
  186.3870  176.8590  134.7920 C   0  0  2  0  0  3  0  0  0  0  0  0
  186.2140  174.7290  135.8410 N   0  0  0  0  0  0  0  0  0  0  0  0
  186.6050  177.9070  135.8980 C   0  0  2  0  0  3  0  0  0  0  0  0
  183.8440  177.3500  134.9180 C   0  0  0  0  0  1  0  0  0  0  0  0
  188.1990  176.1400  136.2880 C   0  0  1  0  0  3  0  0  0  0  0  0
  1  6  1  0  0  0  0
  4 20  2  0  0  0  0
  4 22  1  0  0  0  0
  5 24  1  0  0  0  0
  5 27  1  1  0  0  0
  5 17  1  0  0  0  0
  7  8  2  0  0  0  0
  8  2  2  0  0  0  0
  8 14  1  0  0  0  0
  9 14  2  0  0  0  0
  9 18  1  0  0  0  0
 10  8  1  1  0  0  0
 11 15  2  0  0  0  0
 12 25  1  1  0  0  0
 12 28  1  0  0  0  0
 13  9  1  0  0  0  0
 15 23  1  0  0  0  0
 15 19  1  0  0  0  0
 16 28  1  0  0  0  0
 16  1  2  0  0  0  0
 17  3  2  0  0  0  0
 17 25  1  0  0  0  0
 20 16  1  0  0  0  0
 21  1  1  0  0  0  0
 22 21  2  0  0  0  0
 23  6  1  0  0  0  0
 24 12  1  0  0  0  0
 24 26  1  0  0  0  0
 25 19  1  0  0  0  0
 26 10  1  0  0  0  0
 26 13  1  0  0  0  0
 28 10  1  0  0  0  0
M  END
>  <MODEL>
6

>  <REMARK>
 VINA RESULT:      -5.2      5.411      8.454
  Name = 
  0 active torsions:
  status: ('A' for Active; 'I' for Inactive)
                            x       y       z     vdW  Elec       q    Type
                         _______ _______ _______ _____ _____    ______ ____

>  <TORSDO>
F 0

$$$$
=
 OpenBabel11122411553D

 28 32  0  0  1  0  0  0  0  0999 V2000
  185.6210  176.8580  137.4490 C   0  0  0  0  0  0  0  0  0  0  0  0
  182.9570  177.4700  134.9120 O   0  0  0  0  0  0  0  0  0  0  0  0
  181.2870  179.3770  141.3320 O   0  0  0  0  0  0  0  0  0  0  0  0
  185.5660  174.0650  137.2090 C   0  0  0  0  0  3  0  0  0  0  0  0
  180.6990  177.1410  140.5940 C   0  0  2  0  0  3  0  0  0  0  0  0
  185.7140  178.3360  137.6440 C   0  0  0  0  0  2  0  0  0  0  0  0
  181.1320  175.8510  134.6040 O   0  0  0  0  0  0  0  0  0  0  0  0
  181.6650  176.9500  135.4800 S   0  0  0  0  0  0  0  0  0  0  0  0
  179.9860  178.5950  136.6900 C   0  0  0  0  0  0  0  0  0  0  0  0
  181.9180  176.3110  137.1210 C   0  0  2  0  0  3  0  0  0  0  0  0
  185.3680  179.1000  141.2080 O   0  0  0  0  0  0  0  0  0  0  0  0
  182.7790  176.8630  139.3200 C   0  0  2  0  0  3  0  0  0  0  0  0
  180.3040  177.9620  137.8970 O   0  0  0  0  0  0  0  0  0  0  0  0
  180.5100  178.2260  135.5650 N   0  0  0  0  0  0  0  0  0  0  0  0
  185.0460  179.0030  139.9960 C   0  0  0  0  0  0  0  0  0  0  0  0
  184.3930  176.1710  137.5530 C   0  0  0  0  0  0  0  0  0  0  0  0
  181.5590  178.3440  140.6640 C   0  0  0  0  0  0  0  0  0  0  0  0
  179.0560  179.7530  136.7110 C   0  0  0  0  0  1  0  0  0  0  0  0
  183.6400  179.2980  139.5850 C   0  0  0  0  0  2  0  0  0  0  0  0
  184.3830  174.7690  137.4450 C   0  0  0  0  0  3  0  0  0  0  0  0
  186.8020  176.1420  137.2180 C   0  0  0  0  0  3  0  0  0  0  0  0
  186.7750  174.7520  137.0920 C   0  0  0  0  0  3  0  0  0  0  0  0
  186.0340  178.6280  139.0340 N   0  0  0  0  0  2  0  0  0  0  0  0
  181.3300  176.3540  139.4210 C   0  0  2  0  0  3  0  0  0  0  0  0
  182.7580  178.1900  139.9280 N   0  0  0  0  0  0  0  0  0  0  0  0
  180.7340  176.5980  138.0230 C   0  0  2  0  0  3  0  0  0  0  0  0
  179.2170  177.4580  140.4420 C   0  0  0  0  0  1  0  0  0  0  0  0
  183.1170  176.9200  137.8320 C   0  0  1  0  0  3  0  0  0  0  0  0
  1 16  1  0  0  0  0
  1  6  1  0  0  0  0
  2  8  2  0  0  0  0
  4 20  1  0  0  0  0
  5 27  1  6  0  0  0
  5 17  1  0  0  0  0
  6 23  1  0  0  0  0
  7  8  2  0  0  0  0
  8 14  1  0  0  0  0
  9 18  1  0  0  0  0
  9 13  1  0  0  0  0
 10  8  1  6  0  0  0
 10 28  1  0  0  0  0
 10 26  1  0  0  0  0
 12 24  1  0  0  0  0
 12 25  1  6  0  0  0
 13 26  1  0  0  0  0
 14  9  2  0  0  0  0
 15 11  2  0  0  0  0
 16 28  1  0  0  0  0
 17  3  2  0  0  0  0
 19 25  1  0  0  0  0
 19 15  1  0  0  0  0
 20 16  2  0  0  0  0
 21  1  2  0  0  0  0
 22  4  2  0  0  0  0
 22 21  1  0  0  0  0
 23 15  1  0  0  0  0
 24  5  1  0  0  0  0
 25 17  1  0  0  0  0
 26 24  1  0  0  0  0
 28 12  1  0  0  0  0
M  END
>  <MODEL>
7

>  <REMARK>
 VINA RESULT:      -5.2      2.562      5.763
  Name = 
  0 active torsions:
  status: ('A' for Active; 'I' for Inactive)
                            x       y       z     vdW  Elec       q    Type
                         _______ _______ _______ _____ _____    ______ ____

>  <TORSDO>
F 0

$$$$
=
 OpenBabel11122411553D

 28 32  0  0  1  0  0  0  0  0999 V2000
  184.5470  175.9940  135.4360 C   0  0  0  0  0  0  0  0  0  0  0  0
  181.7490  178.4040  134.9180 O   0  0  0  0  0  0  0  0  0  0  0  0
  185.3270  179.3800  140.7400 O   0  0  0  0  0  0  0  0  0  0  0  0
  182.9010  173.7350  135.6620 C   0  0  0  0  0  3  0  0  0  0  0  0
  183.3550  177.9660  140.8100 C   0  0  2  0  0  3  0  0  0  0  0  0
  185.4980  177.1410  135.3310 C   0  0  0  0  0  2  0  0  0  0  0  0
  179.5640  178.0250  135.9780 O   0  0  0  0  0  0  0  0  0  0  0  0
  180.9770  178.4820  136.2060 S   0  0  0  0  0  0  0  0  0  0  0  0
  181.4660  180.4210  137.9350 C   0  0  0  0  0  0  0  0  0  0  0  0
  181.7270  177.4510  137.4460 C   0  0  2  0  0  3  0  0  0  0  0  0
  187.6960  177.1480  138.2600 O   0  0  0  0  0  0  0  0  0  0  0  0
  183.8070  176.9880  138.6050 C   0  0  2  0  0  3  0  0  0  0  0  0
  182.0160  179.4600  138.7920 O   0  0  0  0  0  0  0  0  0  0  0  0
  180.9680  180.1060  136.7830 N   0  0  0  0  0  0  0  0  0  0  0  0
  186.7560  177.5010  137.5020 C   0  0  0  0  0  0  0  0  0  0  0  0
  183.4650  176.0050  136.3400 C   0  0  0  0  0  0  0  0  0  0  0  0
  184.5750  178.5310  140.1900 C   0  0  0  0  0  0  0  0  0  0  0  0
  181.5010  181.8490  138.3440 C   0  0  0  0  0  1  0  0  0  0  0  0
  185.7890  178.5390  137.9680 C   0  0  0  0  0  2  0  0  0  0  0  0
  182.6570  174.8600  136.4540 C   0  0  0  0  0  3  0  0  0  0  0  0
  184.7870  174.8590  134.6510 C   0  0  0  0  0  3  0  0  0  0  0  0
  183.9650  173.7370  134.7580 C   0  0  0  0  0  3  0  0  0  0  0  0
  186.6400  176.9130  136.2050 N   0  0  0  0  0  2  0  0  0  0  0  0
  182.6770  177.2590  139.6140 C   0  0  2  0  0  3  0  0  0  0  0  0
  184.8380  177.9720  138.9170 N   0  0  0  0  0  0  0  0  0  0  0  0
  181.6380  178.0750  138.8240 C   0  0  2  0  0  3  0  0  0  0  0  0
  182.4980  179.0030  141.5250 C   0  0  0  0  0  1  0  0  0  0  0  0
  183.2110  177.2030  137.2150 C   0  0  1  0  0  3  0  0  0  0  0  0
  1 16  1  0  0  0  0
  2  8  2  0  0  0  0
  4 20  1  0  0  0  0
  5 27  1  6  0  0  0
  6  1  1  0  0  0  0
  6 23  1  0  0  0  0
  7  8  2  0  0  0  0
  8 14  1  0  0  0  0
  9 18  1  0  0  0  0
  9 13  1  0  0  0  0
 10  8  1  6  0  0  0
 10 26  1  0  0  0  0
 12 25  1  1  0  0  0
 12 24  1  0  0  0  0
 13 26  1  0  0  0  0
 14  9  2  0  0  0  0
 15 19  1  0  0  0  0
 15 11  2  0  0  0  0
 16 20  2  0  0  0  0
 16 28  1  0  0  0  0
 17  3  2  0  0  0  0
 17  5  1  0  0  0  0
 19 25  1  0  0  0  0
 21 22  1  0  0  0  0
 21  1  2  0  0  0  0
 22  4  2  0  0  0  0
 23 15  1  0  0  0  0
 24  5  1  0  0  0  0
 25 17  1  0  0  0  0
 26 24  1  0  0  0  0
 28 10  1  0  0  0  0
 28 12  1  0  0  0  0
M  END
>  <MODEL>
8

>  <REMARK>
 VINA RESULT:      -5.2      2.912      6.229
  Name = 
  0 active torsions:
  status: ('A' for Active; 'I' for Inactive)
                            x       y       z     vdW  Elec       q    Type
                         _______ _______ _______ _____ _____    ______ ____

>  <TORSDO>
F 0

$$$$
=
 OpenBabel11122411553D

 28 32  0  0  1  0  0  0  0  0999 V2000
  181.0940  178.4840  137.3470 C   0  0  0  0  0  0  0  0  0  0  0  0
  181.0050  174.7890  136.8450 O   0  0  0  0  0  0  0  0  0  0  0  0
  187.2690  177.3390  138.2270 O   0  0  0  0  0  0  0  0  0  0  0  0
  180.3340  179.1160  134.7230 C   0  0  0  0  0  3  0  0  0  0  0  0
  186.5930  177.1090  135.9070 C   0  0  2  0  0  3  0  0  0  0  0  0
  181.5070  178.2380  138.7610 C   0  0  0  0  0  2  0  0  0  0  0  0
  181.5620  173.8130  134.6590 O   0  0  0  0  0  0  0  0  0  0  0  0
  182.1240  174.4340  135.9060 S   0  0  0  0  0  0  0  0  0  0  0  0
  184.4440  173.5960  136.8590 C   0  0  0  0  0  0  0  0  0  0  0  0
  183.0510  175.8860  135.4640 C   0  0  2  0  0  3  0  0  0  0  0  0
  184.5550  180.1400  139.4690 O   0  0  0  0  0  0  0  0  0  0  0  0
  184.2760  177.7740  136.3700 C   0  0  2  0  0  3  0  0  0  0  0  0
  185.0070  174.8040  136.4300 O   0  0  0  0  0  0  0  0  0  0  0  0
  183.1940  173.3190  136.6700 N   0  0  0  0  0  0  0  0  0  0  0  0
  183.8300  179.1420  139.2170 C   0  0  0  0  0  0  0  0  0  0  0  0
  181.7900  177.9140  136.2600 C   0  0  0  0  0  0  0  0  0  0  0  0
  186.3710  177.3880  137.3440 C   0  0  0  0  0  0  0  0  0  0  0  0
  185.2980  172.6280  137.5930 C   0  0  0  0  0  1  0  0  0  0  0  0
  184.4700  177.8170  138.9590 C   0  0  0  0  0  2  0  0  0  0  0  0
  181.4070  178.2520  134.9500 C   0  0  0  0  0  3  0  0  0  0  0  0
  180.0230  179.3540  137.1080 C   0  0  0  0  0  3  0  0  0  0  0  0
  179.6400  179.6640  135.8030 C   0  0  0  0  0  3  0  0  0  0  0  0
  182.4100  179.2930  139.1990 N   0  0  0  0  0  2  0  0  0  0  0  0
  185.1480  176.9970  135.3680 C   0  0  2  0  0  3  0  0  0  0  0  0
  185.0360  177.7690  137.6170 N   0  0  0  0  0  0  0  0  0  0  0  0
  184.5310  175.5880  135.3260 C   0  0  2  0  0  3  0  0  0  0  0  0
  187.4790  175.8970  135.6510 C   0  0  0  0  0  1  0  0  0  0  0  0
  182.9640  177.0020  136.4960 C   0  0  1  0  0  3  0  0  0  0  0  0
  1  6  1  0  0  0  0
  4 20  2  0  0  0  0
  4 22  1  0  0  0  0
  5 27  1  1  0  0  0
  5 17  1  0  0  0  0
  6 23  1  0  0  0  0
  7  8  2  0  0  0  0
  8 14  1  0  0  0  0
  8  2  2  0  0  0  0
  9 18  1  0  0  0  0
 10  8  1  1  0  0  0
 10 28  1  0  0  0  0
 12 28  1  0  0  0  0
 12 25  1  1  0  0  0
 13  9  1  0  0  0  0
 14  9  2  0  0  0  0
 15 11  2  0  0  0  0
 16 28  1  0  0  0  0
 16  1  2  0  0  0  0
 17 25  1  0  0  0  0
 17  3  2  0  0  0  0
 19 15  1  0  0  0  0
 20 16  1  0  0  0  0
 21  1  1  0  0  0  0
 22 21  2  0  0  0  0
 23 15  1  0  0  0  0
 24  5  1  0  0  0  0
 24 12  1  0  0  0  0
 25 19  1  0  0  0  0
 26 24  1  0  0  0  0
 26 10  1  0  0  0  0
 26 13  1  0  0  0  0
M  END
>  <MODEL>
9

>  <REMARK>
 VINA RESULT:      -4.7      3.347      5.907
  Name = 
  0 active torsions:
  status: ('A' for Active; 'I' for Inactive)
                            x       y       z     vdW  Elec       q    Type
                         _______ _______ _______ _____ _____    ______ ____

>  <TORSDO>
F 0

$$$$
