=
 OpenBabel11122410593D

 31 35  0  0  1  0  0  0  0  0999 V2000
  188.5610  178.1070  140.2570 C   0  0  0  0  0  0  0  0  0  0  0  0
  185.8920  178.6860  142.8290 N   0  0  0  0  0  0  0  0  0  0  0  0
  184.5960  178.7450  142.1830 C   0  0  0  0  0  0  0  0  0  0  0  0
  183.2000  178.7060  140.1910 C   0  0  0  0  0  0  0  0  0  0  0  0
  187.0570  178.1840  142.1420 C   0  0  0  0  0  0  0  0  0  0  0  0
  189.3240  177.1870  140.9080 N   0  0  0  0  0  0  0  0  0  0  0  0
  184.4630  178.7220  140.7860 C   0  0  0  0  0  3  0  0  0  0  0  0
  186.3330  177.2300  144.7400 C   0  0  2  0  0  3  0  0  0  0  0  0
  189.0170  178.6450  138.6550 Cl  0  0  0  0  0  0  0  0  0  0  0  0
  183.5440  178.7760  144.3630 O   0  0  0  0  0  0  0  0  0  0  0  0
  183.0550  178.6800  138.4480 Cl  0  0  0  0  0  0  0  0  0  0  0  0
  187.5390  176.8130  144.0920 O   0  0  0  0  0  0  0  0  0  0  0  0
  185.9830  178.6540  144.2990 C   0  0  2  0  0  3  0  0  0  0  0  0
  187.4150  178.6260  140.8640 C   0  0  0  0  0  3  0  0  0  0  0  0
  182.0530  178.6950  140.9880 C   0  0  0  0  0  3  0  0  0  0  0  0
  187.8660  177.2390  142.7960 C   0  0  0  0  0  0  0  0  0  0  0  0
  189.0040  176.7490  142.1550 C   0  0  0  0  0  3  0  0  0  0  0  0
  184.7390  179.2230  144.9900 C   0  0  0  0  0  2  0  0  0  0  0  0
  183.4330  178.7510  142.9750 C   0  0  0  0  0  0  0  0  0  0  0  0
  182.1690  178.7150  142.3790 C   0  0  0  0  0  3  0  0  0  0  0  0
  186.4990  177.1710  146.1270 O   0  0  0  0  0  0  0  0  0  0  0  0
  187.1960  178.8800  147.6470 C   0  0  0  0  0  1  0  0  0  0  0  0
  187.5350  178.0690  146.4100 C   0  0  1  0  0  3  0  0  0  0  0  0
  191.3260  176.2450  147.2310 N   0  0  0  0  0  0  0  0  0  0  0  0
  188.8840  176.3530  147.4880 C   0  0  0  0  0  3  0  0  0  0  0  0
  189.9950  178.7040  144.8520 O   0  0  0  0  0  1  0  0  0  0  0  0
  192.6340  175.7590  147.6250 C   0  0  0  0  0  1  0  0  0  0  0  0
  190.1360  175.5520  147.7250 C   0  0  0  0  0  2  0  0  0  0  0  0
  190.0580  177.7520  145.8620 C   0  0  0  0  0  0  0  0  0  0  0  0
  188.8340  177.3430  146.5900 C   0  0  0  0  0  0  0  0  0  0  0  0
  191.2380  177.2290  146.1940 C   0  0  0  0  0  3  0  0  0  0  0  0
  1 14  2  0  0  0  0
  1  6  1  0  0  0  0
  2 13  1  0  0  0  0
  3  2  1  0  0  0  0
  3 19  1  0  0  0  0
  4  7  1  0  0  0  0
  4 15  2  0  0  0  0
  5 16  2  0  0  0  0
  5  2  1  0  0  0  0
  6 17  2  0  0  0  0
  7  3  2  0  0  0  0
  8 21  1  1  0  0  0
  9  1  1  0  0  0  0
 10 18  1  0  0  0  0
 11  4  1  0  0  0  0
 12  8  1  0  0  0  0
 13  8  1  0  0  0  0
 13 18  1  1  0  0  0
 14  5  1  0  0  0  0
 15 20  1  0  0  0  0
 16 12  1  0  0  0  0
 17 16  1  0  0  0  0
 19 10  1  0  0  0  0
 20 19  2  0  0  0  0
 21 23  1  0  0  0  0
 23 30  1  0  0  0  0
 23 22  1  1  0  0  0
 24 27  1  0  0  0  0
 24 28  1  0  0  0  0
 25 28  1  0  0  0  0
 26 29  1  0  0  0  0
 29 31  2  0  0  0  0
 29 30  1  0  0  0  0
 30 25  2  0  0  0  0
 31 24  1  0  0  0  0
M  END
>  <MODEL>
1

>  <REMARK>
 VINA RESULT:      -8.5      0.000      0.000
  Name = 
  3 active torsions:
  status: ('A' for Active; 'I' for Inactive)
    1  A    between atoms: C_5  and  O_16
    2  A    between atoms: C_5  and  C_30
    3  A    between atoms: C_10  and  O_16
                            x       y       z     vdW  Elec       q    Type
                         _______ _______ _______ _____ _____    ______ ____

>  <TORSDO>
F 3

$$$$
=
 OpenBabel11122410593D

 31 35  0  0  1  0  0  0  0  0999 V2000
  187.4650  178.0360  136.2890 C   0  0  0  0  0  0  0  0  0  0  0  0
  185.9420  178.6210  139.6680 N   0  0  0  0  0  0  0  0  0  0  0  0
  184.5500  178.2190  139.6510 C   0  0  0  0  0  0  0  0  0  0  0  0
  182.5880  177.3630  138.4950 C   0  0  0  0  0  0  0  0  0  0  0  0
  186.8510  178.2400  138.6140 C   0  0  0  0  0  0  0  0  0  0  0  0
  188.6640  177.5080  136.6570 N   0  0  0  0  0  0  0  0  0  0  0  0
  183.9090  177.8150  138.4700 C   0  0  0  0  0  3  0  0  0  0  0  0
  187.5090  177.8320  141.3680 C   0  0  2  0  0  3  0  0  0  0  0  0
  187.0840  178.2430  134.5940 Cl  0  0  0  0  0  0  0  0  0  0  0  0
  184.4560  178.5570  142.0460 O   0  0  0  0  0  0  0  0  0  0  0  0
  181.8060  176.8680  137.0110 Cl  0  0  0  0  0  0  0  0  0  0  0  0
  188.4420  177.5510  140.3190 O   0  0  0  0  0  0  0  0  0  0  0  0
  186.5920  178.9810  140.9400 C   0  0  2  0  0  3  0  0  0  0  0  0
  186.5370  178.4160  137.2610 C   0  0  0  0  0  3  0  0  0  0  0  0
  181.8970  177.2930  139.7070 C   0  0  0  0  0  3  0  0  0  0  0  0
  188.1000  177.7000  138.9670 C   0  0  0  0  0  0  0  0  0  0  0  0
  188.9990  177.3370  137.9640 C   0  0  0  0  0  3  0  0  0  0  0  0
  185.5950  179.4080  142.0230 C   0  0  0  0  0  2  0  0  0  0  0  0
  183.8380  178.1600  140.8630 C   0  0  0  0  0  0  0  0  0  0  0  0
  182.5220  177.6880  140.8910 C   0  0  0  0  0  3  0  0  0  0  0  0
  188.2010  178.1640  142.5360 O   0  0  0  0  0  0  0  0  0  0  0  0
  189.1780  176.0460  143.0580 C   0  0  0  0  0  1  0  0  0  0  0  0
  188.0770  177.0430  143.3660 C   0  0  1  0  0  3  0  0  0  0  0  0
  188.1490  177.7970  147.5850 N   0  0  0  0  0  0  0  0  0  0  0  0
  189.2910  177.4360  145.4390 C   0  0  0  0  0  3  0  0  0  0  0  0
  185.6570  177.8800  144.8900 O   0  0  0  0  0  1  0  0  0  0  0  0
  188.1410  177.8790  149.0330 C   0  0  0  0  0  1  0  0  0  0  0  0
  189.4310  177.8420  146.8810 C   0  0  0  0  0  2  0  0  0  0  0  0
  186.8720  177.7640  145.5550 C   0  0  0  0  0  0  0  0  0  0  0  0
  188.1120  177.4440  144.8100 C   0  0  0  0  0  0  0  0  0  0  0  0
  186.9080  177.9120  146.8790 C   0  0  0  0  0  3  0  0  0  0  0  0
  1  6  2  0  0  0  0
  1 14  1  0  0  0  0
  2 13  1  0  0  0  0
  3  2  1  0  0  0  0
  3 19  1  0  0  0  0
  4 15  2  0  0  0  0
  5 16  1  0  0  0  0
  5  2  1  0  0  0  0
  6 17  1  0  0  0  0
  7  4  1  0  0  0  0
  7  3  2  0  0  0  0
  8 21  1  1  0  0  0
  9  1  1  0  0  0  0
 11  4  1  0  0  0  0
 12  8  1  0  0  0  0
 13  8  1  0  0  0  0
 13 18  1  1  0  0  0
 14  5  2  0  0  0  0
 15 20  1  0  0  0  0
 16 12  1  0  0  0  0
 17 16  2  0  0  0  0
 18 10  1  0  0  0  0
 19 20  2  0  0  0  0
 19 10  1  0  0  0  0
 21 23  1  0  0  0  0
 23 22  1  1  0  0  0
 23 30  1  0  0  0  0
 24 27  1  0  0  0  0
 25 28  1  0  0  0  0
 26 29  1  0  0  0  0
 28 24  1  0  0  0  0
 29 31  2  0  0  0  0
 30 25  2  0  0  0  0
 30 29  1  0  0  0  0
 31 24  1  0  0  0  0
M  END
>  <MODEL>
2

>  <REMARK>
 VINA RESULT:      -8.3      2.365      3.517
  Name = 
  3 active torsions:
  status: ('A' for Active; 'I' for Inactive)
    1  A    between atoms: C_5  and  O_16
    2  A    between atoms: C_5  and  C_30
    3  A    between atoms: C_10  and  O_16
                            x       y       z     vdW  Elec       q    Type
                         _______ _______ _______ _____ _____    ______ ____

>  <TORSDO>
F 3

$$$$
=
 OpenBabel11122410593D

 31 35  0  0  1  0  0  0  0  0999 V2000
  188.1390  177.8070  136.7490 C   0  0  0  0  0  0  0  0  0  0  0  0
  186.4460  178.6280  139.9960 N   0  0  0  0  0  0  0  0  0  0  0  0
  185.0470  178.2540  139.9250 C   0  0  0  0  0  0  0  0  0  0  0  0
  183.1330  177.3690  138.7130 C   0  0  0  0  0  0  0  0  0  0  0  0
  187.4020  178.1650  139.0190 C   0  0  0  0  0  0  0  0  0  0  0  0
  189.3030  177.2780  137.2150 N   0  0  0  0  0  0  0  0  0  0  0  0
  184.4640  177.7920  138.7350 C   0  0  0  0  0  3  0  0  0  0  0  0
  187.8980  177.9130  141.8260 C   0  0  2  0  0  3  0  0  0  0  0  0
  187.8560  177.9170  135.0260 Cl  0  0  0  0  0  0  0  0  0  0  0  0
  184.8300  178.7390  142.2860 O   0  0  0  0  0  0  0  0  0  0  0  0
  182.4220  176.7990  137.2190 Cl  0  0  0  0  0  0  0  0  0  0  0  0
  188.8810  177.5500  140.8500 O   0  0  0  0  0  0  0  0  0  0  0  0
  187.0330  179.0520  141.2780 C   0  0  2  0  0  3  0  0  0  0  0  0
  187.1680  178.2650  137.6430 C   0  0  0  0  0  3  0  0  0  0  0  0
  182.3750  177.3870  139.8860 C   0  0  0  0  0  3  0  0  0  0  0  0
  188.6170  177.6230  139.4740 C   0  0  0  0  0  0  0  0  0  0  0  0
  189.5610  177.1800  138.5470 C   0  0  0  0  0  3  0  0  0  0  0  0
  185.9890  179.5640  142.2760 C   0  0  0  0  0  2  0  0  0  0  0  0
  184.2690  178.2830  141.0960 C   0  0  0  0  0  0  0  0  0  0  0  0
  182.9430  177.8410  141.0770 C   0  0  0  0  0  3  0  0  0  0  0  0
  188.5320  178.3010  143.0100 O   0  0  0  0  0  0  0  0  0  0  0  0
  187.9180  176.0030  143.2410 C   0  0  0  0  0  1  0  0  0  0  0  0
  188.1920  177.3190  143.9460 C   0  0  1  0  0  3  0  0  0  0  0  0
  191.2350  176.4620  146.8420 N   0  0  0  0  0  0  0  0  0  0  0  0
  190.5200  176.9190  144.5350 C   0  0  0  0  0  3  0  0  0  0  0  0
  187.7240  177.5330  146.8820 O   0  0  0  0  0  1  0  0  0  0  0  0
  192.2100  176.0050  147.8130 C   0  0  0  0  0  1  0  0  0  0  0  0
  191.6800  176.7650  145.4810 C   0  0  0  0  0  2  0  0  0  0  0  0
  188.9860  177.1800  146.4190 C   0  0  0  0  0  0  0  0  0  0  0  0
  189.2780  177.1580  144.9670 C   0  0  0  0  0  0  0  0  0  0  0  0
  189.9270  176.8290  147.2950 C   0  0  0  0  0  3  0  0  0  0  0  0
  1  6  2  0  0  0  0
  1 14  1  0  0  0  0
  2 13  1  0  0  0  0
  3  2  1  0  0  0  0
  3 19  1  0  0  0  0
  4  7  1  0  0  0  0
  4 15  2  0  0  0  0
  5 16  1  0  0  0  0
  5  2  1  0  0  0  0
  6 17  1  0  0  0  0
  7  3  2  0  0  0  0
  8 21  1  1  0  0  0
  9  1  1  0  0  0  0
 11  4  1  0  0  0  0
 12  8  1  0  0  0  0
 13  8  1  0  0  0  0
 13 18  1  1  0  0  0
 14  5  2  0  0  0  0
 15 20  1  0  0  0  0
 16 12  1  0  0  0  0
 17 16  2  0  0  0  0
 18 10  1  0  0  0  0
 19 10  1  0  0  0  0
 20 19  2  0  0  0  0
 21 23  1  0  0  0  0
 23 22  1  6  0  0  0
 23 30  1  0  0  0  0
 24 31  1  0  0  0  0
 24 27  1  0  0  0  0
 25 30  2  0  0  0  0
 25 28  1  0  0  0  0
 28 24  1  0  0  0  0
 29 26  1  0  0  0  0
 29 31  2  0  0  0  0
 30 29  1  0  0  0  0
M  END
>  <MODEL>
3

>  <REMARK>
 VINA RESULT:      -8.1      2.019      2.926
  Name = 
  3 active torsions:
  status: ('A' for Active; 'I' for Inactive)
    1  A    between atoms: C_5  and  O_16
    2  A    between atoms: C_5  and  C_30
    3  A    between atoms: C_10  and  O_16
                            x       y       z     vdW  Elec       q    Type
                         _______ _______ _______ _____ _____    ______ ____

>  <TORSDO>
F 3

$$$$
=
 OpenBabel11122410593D

 31 35  0  0  1  0  0  0  0  0999 V2000
  190.0430  176.8270  136.3430 C   0  0  0  0  0  0  0  0  0  0  0  0
  188.0800  178.2050  139.2290 N   0  0  0  0  0  0  0  0  0  0  0  0
  186.6630  178.1330  138.9330 C   0  0  0  0  0  0  0  0  0  0  0  0
  184.8170  177.5950  137.4420 C   0  0  0  0  0  0  0  0  0  0  0  0
  189.0530  177.4850  138.4430 C   0  0  0  0  0  0  0  0  0  0  0  0
  190.9730  176.0950  137.0150 N   0  0  0  0  0  0  0  0  0  0  0  0
  186.1880  177.7260  137.6770 C   0  0  0  0  0  3  0  0  0  0  0  0
  189.0290  177.3230  141.2990 C   0  0  2  0  0  3  0  0  0  0  0  0
  190.0680  176.8780  134.5940 Cl  0  0  0  0  0  0  0  0  0  0  0  0
  186.1860  178.8120  141.2070 O   0  0  0  0  0  0  0  0  0  0  0  0
  184.2440  177.0900  135.8690 Cl  0  0  0  0  0  0  0  0  0  0  0  0
  190.0500  176.6950  140.5160 O   0  0  0  0  0  0  0  0  0  0  0  0
  188.5350  178.5800  140.5780 C   0  0  2  0  0  3  0  0  0  0  0  0
  189.0680  177.5390  137.0450 C   0  0  0  0  0  3  0  0  0  0  0  0
  183.9060  177.8520  138.4690 C   0  0  0  0  0  3  0  0  0  0  0  0
  190.0300  176.7290  139.1130 C   0  0  0  0  0  0  0  0  0  0  0  0
  190.9880  176.0350  138.3740 C   0  0  0  0  0  3  0  0  0  0  0  0
  187.4850  179.3680  141.3680 C   0  0  0  0  0  2  0  0  0  0  0  0
  185.7340  178.4050  139.9540 C   0  0  0  0  0  0  0  0  0  0  0  0
  184.3640  178.2550  139.7250 C   0  0  0  0  0  3  0  0  0  0  0  0
  189.5380  177.6470  142.5610 O   0  0  0  0  0  0  0  0  0  0  0  0
  190.2670  175.5320  143.4030 C   0  0  0  0  0  1  0  0  0  0  0  0
  189.1700  176.5800  143.3880 C   0  0  1  0  0  3  0  0  0  0  0  0
  188.2700  177.5710  147.4610 N   0  0  0  0  0  0  0  0  0  0  0  0
  189.8740  177.0700  145.6670 C   0  0  0  0  0  3  0  0  0  0  0  0
  186.4850  177.5420  144.2530 O   0  0  0  0  0  1  0  0  0  0  0  0
  187.9250  177.7360  148.8590 C   0  0  0  0  0  1  0  0  0  0  0  0
  189.6820  177.5550  147.0780 C   0  0  0  0  0  2  0  0  0  0  0  0
  187.5050  177.4440  145.1910 C   0  0  0  0  0  0  0  0  0  0  0  0
  188.8760  177.0620  144.7770 C   0  0  0  0  0  0  0  0  0  0  0  0
  187.2340  177.6660  146.4770 C   0  0  0  0  0  3  0  0  0  0  0  0
  1  6  2  0  0  0  0
  1 14  1  0  0  0  0
  2 13  1  0  0  0  0
  3  2  1  0  0  0  0
  3 19  1  0  0  0  0
  4  7  1  0  0  0  0
  4 15  2  0  0  0  0
  5 16  1  0  0  0  0
  5  2  1  0  0  0  0
  6 17  1  0  0  0  0
  7  3  2  0  0  0  0
  8 21  1  1  0  0  0
  9  1  1  0  0  0  0
 10 18  1  0  0  0  0
 11  4  1  0  0  0  0
 12  8  1  0  0  0  0
 13  8  1  0  0  0  0
 13 18  1  1  0  0  0
 14  5  2  0  0  0  0
 15 20  1  0  0  0  0
 16 12  1  0  0  0  0
 17 16  2  0  0  0  0
 19 10  1  0  0  0  0
 20 19  2  0  0  0  0
 21 23  1  0  0  0  0
 23 22  1  1  0  0  0
 23 30  1  0  0  0  0
 24 27  1  0  0  0  0
 25 28  1  0  0  0  0
 26 29  1  0  0  0  0
 28 24  1  0  0  0  0
 29 31  2  0  0  0  0
 30 29  1  0  0  0  0
 30 25  2  0  0  0  0
 31 24  1  0  0  0  0
M  END
>  <MODEL>
4

>  <REMARK>
 VINA RESULT:      -8.1      2.640      4.011
  Name = 
  3 active torsions:
  status: ('A' for Active; 'I' for Inactive)
    1  A    between atoms: C_5  and  O_16
    2  A    between atoms: C_5  and  C_30
    3  A    between atoms: C_10  and  O_16
                            x       y       z     vdW  Elec       q    Type
                         _______ _______ _______ _____ _____    ______ ____

>  <TORSDO>
F 3

$$$$
=
 OpenBabel11122410593D

 31 35  0  0  1  0  0  0  0  0999 V2000
  185.1890  178.5760  144.1680 C   0  0  0  0  0  0  0  0  0  0  0  0
  188.9230  178.3080  143.9000 N   0  0  0  0  0  0  0  0  0  0  0  0
  189.4560  177.7000  145.1030 C   0  0  0  0  0  0  0  0  0  0  0  0
  189.1670  176.7610  147.3290 C   0  0  0  0  0  0  0  0  0  0  0  0
  187.5130  178.2670  143.5930 C   0  0  0  0  0  0  0  0  0  0  0  0
  184.8330  178.1880  142.9130 N   0  0  0  0  0  0  0  0  0  0  0  0
  188.6430  177.4140  146.2110 C   0  0  0  0  0  3  0  0  0  0  0  0
  189.4790  177.4900  141.6670 C   0  0  2  0  0  3  0  0  0  0  0  0
  183.9580  179.0140  145.3310 Cl  0  0  0  0  0  0  0  0  0  0  0  0
  191.6310  177.5910  144.0470 O   0  0  0  0  0  0  0  0  0  0  0  0
  188.1390  176.4170  148.7020 Cl  0  0  0  0  0  0  0  0  0  0  0  0
  188.0860  177.5490  141.3420 O   0  0  0  0  0  0  0  0  0  0  0  0
  189.7980  178.5360  142.7380 C   0  0  2  0  0  3  0  0  0  0  0  0
  186.5380  178.6270  144.5300 C   0  0  0  0  0  3  0  0  0  0  0  0
  190.5080  176.3710  147.3440 C   0  0  0  0  0  3  0  0  0  0  0  0
  187.1180  177.8780  142.3020 C   0  0  0  0  0  0  0  0  0  0  0  0
  185.7610  177.8430  141.9800 C   0  0  0  0  0  3  0  0  0  0  0  0
  191.2830  178.6020  143.1090 C   0  0  0  0  0  2  0  0  0  0  0  0
  190.8080  177.3160  145.1370 C   0  0  0  0  0  0  0  0  0  0  0  0
  191.3280  176.6450  146.2480 C   0  0  0  0  0  3  0  0  0  0  0  0
  190.2410  177.7150  140.5150 O   0  0  0  0  0  0  0  0  0  0  0  0
  189.0560  178.6650  138.6700 C   0  0  0  0  0  1  0  0  0  0  0  0
  189.3900  177.4060  139.4480 C   0  0  1  0  0  3  0  0  0  0  0  0
  191.2380  174.7640  136.6230 N   0  0  0  0  0  0  0  0  0  0  0  0
  191.3410  176.2210  138.5990 C   0  0  0  0  0  3  0  0  0  0  0  0
  187.8180  175.6820  137.5930 O   0  0  0  0  0  1  0  0  0  0  0  0
  191.8650  174.0080  135.5560 C   0  0  0  0  0  1  0  0  0  0  0  0
  192.0550  175.2010  137.7550 C   0  0  0  0  0  2  0  0  0  0  0  0
  189.2060  175.6070  137.5780 C   0  0  0  0  0  0  0  0  0  0  0  0
  190.0140  176.3780  138.5530 C   0  0  0  0  0  0  0  0  0  0  0  0
  189.8090  174.8570  136.6570 C   0  0  0  0  0  3  0  0  0  0  0  0
  1 14  1  0  0  0  0
  1  9  1  0  0  0  0
  2  3  1  0  0  0  0
  3 19  2  0  0  0  0
  3  7  1  0  0  0  0
  4 15  1  0  0  0  0
  4 11  1  0  0  0  0
  5  2  1  0  0  0  0
  5 14  2  0  0  0  0
  6  1  2  0  0  0  0
  7  4  2  0  0  0  0
  8 21  1  6  0  0  0
  8 13  1  0  0  0  0
 10 19  1  0  0  0  0
 12  8  1  0  0  0  0
 12 16  1  0  0  0  0
 13 18  1  1  0  0  0
 13  2  1  0  0  0  0
 16  5  1  0  0  0  0
 17 16  2  0  0  0  0
 17  6  1  0  0  0  0
 18 10  1  0  0  0  0
 19 20  1  0  0  0  0
 20 15  2  0  0  0  0
 23 22  1  6  0  0  0
 23 21  1  0  0  0  0
 24 31  1  0  0  0  0
 24 28  1  0  0  0  0
 27 24  1  0  0  0  0
 28 25  1  0  0  0  0
 29 26  1  0  0  0  0
 29 30  1  0  0  0  0
 30 25  2  0  0  0  0
 30 23  1  0  0  0  0
 31 29  2  0  0  0  0
M  END
>  <MODEL>
5

>  <REMARK>
 VINA RESULT:      -8.0      3.755      7.728
  Name = 
  3 active torsions:
  status: ('A' for Active; 'I' for Inactive)
    1  A    between atoms: C_5  and  O_16
    2  A    between atoms: C_5  and  C_30
    3  A    between atoms: C_10  and  O_16
                            x       y       z     vdW  Elec       q    Type
                         _______ _______ _______ _____ _____    ______ ____

>  <TORSDO>
F 3

$$$$
=
 OpenBabel11122410593D

 31 35  0  0  1  0  0  0  0  0999 V2000
  179.6820  178.7730  143.1990 C   0  0  0  0  0  0  0  0  0  0  0  0
  182.9780  178.9330  141.4140 N   0  0  0  0  0  0  0  0  0  0  0  0
  184.0560  178.7290  142.3610 C   0  0  0  0  0  0  0  0  0  0  0  0
  184.8690  178.3640  144.6250 C   0  0  0  0  0  0  0  0  0  0  0  0
  181.6080  178.6320  141.7530 C   0  0  0  0  0  0  0  0  0  0  0  0
  178.9650  178.0330  142.3100 N   0  0  0  0  0  0  0  0  0  0  0  0
  183.8210  178.6340  143.7420 C   0  0  0  0  0  3  0  0  0  0  0  0
  182.7980  177.6490  139.3440 C   0  0  2  0  0  3  0  0  0  0  0  0
  178.9310  179.3320  144.6780 Cl  0  0  0  0  0  0  0  0  0  0  0  0
  185.6190  178.6370  140.5150 O   0  0  0  0  0  0  0  0  0  0  0  0
  184.5570  178.2530  146.3430 Cl  0  0  0  0  0  0  0  0  0  0  0  0
  181.4130  177.4420  139.6410 O   0  0  0  0  0  0  0  0  0  0  0  0
  183.2610  178.9680  139.9690 C   0  0  2  0  0  3  0  0  0  0  0  0
  181.0160  179.0900  142.9350 C   0  0  0  0  0  3  0  0  0  0  0  0
  186.1620  178.1670  144.1350 C   0  0  0  0  0  3  0  0  0  0  0  0
  180.8430  177.8770  140.8470 C   0  0  0  0  0  0  0  0  0  0  0  0
  179.5130  177.5850  141.1480 C   0  0  0  0  0  3  0  0  0  0  0  0
  184.7190  179.3190  139.6520 C   0  0  0  0  0  2  0  0  0  0  0  0
  185.3660  178.5450  141.8820 C   0  0  0  0  0  0  0  0  0  0  0  0
  186.4100  178.2550  142.7650 C   0  0  0  0  0  3  0  0  0  0  0  0
  182.9840  177.6690  137.9580 O   0  0  0  0  0  0  0  0  0  0  0  0
  182.2510  175.9420  136.4770 C   0  0  0  0  0  1  0  0  0  0  0  0
  183.1960  176.3330  137.5980 C   0  0  1  0  0  3  0  0  0  0  0  0
  187.1380  175.6480  136.0620 N   0  0  0  0  0  0  0  0  0  0  0  0
  185.3150  177.1560  136.7280 C   0  0  0  0  0  3  0  0  0  0  0  0
  184.5630  173.6930  137.8010 O   0  0  0  0  0  1  0  0  0  0  0  0
  188.3940  175.3770  135.3880 C   0  0  0  0  0  1  0  0  0  0  0  0
  186.7580  177.0380  136.3170 C   0  0  0  0  0  2  0  0  0  0  0  0
  185.2350  174.7630  137.2220 C   0  0  0  0  0  0  0  0  0  0  0  0
  184.6220  176.1120  137.1930 C   0  0  0  0  0  0  0  0  0  0  0  0
  186.4270  174.5600  136.6630 C   0  0  0  0  0  3  0  0  0  0  0  0
  1  9  1  0  0  0  0
  2  5  1  0  0  0  0
  2  3  1  0  0  0  0
  3  7  1  0  0  0  0
  4 11  1  0  0  0  0
  5 14  2  0  0  0  0
  6  1  2  0  0  0  0
  7  4  2  0  0  0  0
  8 21  1  6  0  0  0
  8 12  1  0  0  0  0
  8 13  1  0  0  0  0
 10 19  1  0  0  0  0
 12 16  1  0  0  0  0
 13 18  1  1  0  0  0
 13  2  1  0  0  0  0
 14  1  1  0  0  0  0
 15  4  1  0  0  0  0
 16 17  2  0  0  0  0
 16  5  1  0  0  0  0
 17  6  1  0  0  0  0
 18 10  1  0  0  0  0
 19  3  2  0  0  0  0
 19 20  1  0  0  0  0
 20 15  2  0  0  0  0
 23 22  1  6  0  0  0
 23 21  1  0  0  0  0
 24 28  1  0  0  0  0
 24 31  1  0  0  0  0
 25 30  2  0  0  0  0
 27 24  1  0  0  0  0
 28 25  1  0  0  0  0
 29 26  1  0  0  0  0
 30 29  1  0  0  0  0
 30 23  1  0  0  0  0
 31 29  2  0  0  0  0
M  END
>  <MODEL>
6

>  <REMARK>
 VINA RESULT:      -7.9      4.529      8.516
  Name = 
  3 active torsions:
  status: ('A' for Active; 'I' for Inactive)
    1  A    between atoms: C_5  and  O_16
    2  A    between atoms: C_5  and  C_30
    3  A    between atoms: C_10  and  O_16
                            x       y       z     vdW  Elec       q    Type
                         _______ _______ _______ _____ _____    ______ ____

>  <TORSDO>
F 3

$$$$
=
 OpenBabel11122410593D

 31 35  0  0  1  0  0  0  0  0999 V2000
  189.7920  176.2960  142.5450 C   0  0  0  0  0  0  0  0  0  0  0  0
  186.3660  177.6700  143.2180 N   0  0  0  0  0  0  0  0  0  0  0  0
  186.2180  177.9400  144.6340 C   0  0  0  0  0  0  0  0  0  0  0  0
  187.0710  177.9180  146.9120 C   0  0  0  0  0  0  0  0  0  0  0  0
  187.6580  177.4210  142.6270 C   0  0  0  0  0  0  0  0  0  0  0  0
  190.1060  176.9840  141.4130 N   0  0  0  0  0  0  0  0  0  0  0  0
  187.2060  177.5800  145.5640 C   0  0  0  0  0  3  0  0  0  0  0  0
  185.8540  179.3390  141.5100 C   0  0  2  0  0  3  0  0  0  0  0  0
  190.9330  175.1540  143.2190 Cl  0  0  0  0  0  0  0  0  0  0  0  0
  184.0970  179.0130  144.1770 O   0  0  0  0  0  0  0  0  0  0  0  0
  188.3120  177.4580  148.0570 Cl  0  0  0  0  0  0  0  0  0  0  0  0
  187.0950  179.0120  140.8760 O   0  0  0  0  0  0  0  0  0  0  0  0
  185.3310  178.1160  142.2690 C   0  0  2  0  0  3  0  0  0  0  0  0
  188.5600  176.4990  143.1710 C   0  0  0  0  0  3  0  0  0  0  0  0
  185.9530  178.6360  147.3440 C   0  0  0  0  0  3  0  0  0  0  0  0
  188.0040  178.1120  141.4520 C   0  0  0  0  0  0  0  0  0  0  0  0
  189.2430  177.8770  140.8580 C   0  0  0  0  0  3  0  0  0  0  0  0
  183.9670  178.3410  142.9300 C   0  0  0  0  0  2  0  0  0  0  0  0
  185.0890  178.6480  145.0840 C   0  0  0  0  0  0  0  0  0  0  0  0
  184.9640  179.0030  146.4300 C   0  0  0  0  0  3  0  0  0  0  0  0
  184.9290  179.7530  140.5460 O   0  0  0  0  0  0  0  0  0  0  0  0
  182.7070  178.9540  140.1760 C   0  0  0  0  0  1  0  0  0  0  0  0
  184.1830  178.6090  140.2400 C   0  0  1  0  0  3  0  0  0  0  0  0
  185.2410  177.1280  136.3590 N   0  0  0  0  0  0  0  0  0  0  0  0
  185.6170  178.6240  138.2720 C   0  0  0  0  0  3  0  0  0  0  0  0
  183.0550  176.0880  139.1190 O   0  0  0  0  0  1  0  0  0  0  0  0
  185.4670  176.7270  134.9840 C   0  0  0  0  0  1  0  0  0  0  0  0
  186.1610  178.0830  136.9780 C   0  0  0  0  0  2  0  0  0  0  0  0
  183.9920  176.8010  138.3800 C   0  0  0  0  0  0  0  0  0  0  0  0
  184.6440  178.0040  138.9470 C   0  0  0  0  0  0  0  0  0  0  0  0
  184.2780  176.4090  137.1390 C   0  0  0  0  0  3  0  0  0  0  0  0
  1 14  1  0  0  0  0
  1  9  1  0  0  0  0
  2  3  1  0  0  0  0
  3 19  2  0  0  0  0
  3  7  1  0  0  0  0
  4 15  1  0  0  0  0
  4 11  1  0  0  0  0
  5 14  2  0  0  0  0
  5  2  1  0  0  0  0
  6  1  2  0  0  0  0
  7  4  2  0  0  0  0
  8 21  1  6  0  0  0
  8 13  1  0  0  0  0
 10 19  1  0  0  0  0
 12 16  1  0  0  0  0
 12  8  1  0  0  0  0
 13 18  1  1  0  0  0
 13  2  1  0  0  0  0
 16  5  1  0  0  0  0
 17  6  1  0  0  0  0
 17 16  2  0  0  0  0
 18 10  1  0  0  0  0
 19 20  1  0  0  0  0
 20 15  2  0  0  0  0
 23 22  1  6  0  0  0
 23 21  1  0  0  0  0
 24 28  1  0  0  0  0
 24 31  1  0  0  0  0
 25 30  2  0  0  0  0
 27 24  1  0  0  0  0
 28 25  1  0  0  0  0
 29 30  1  0  0  0  0
 29 26  1  0  0  0  0
 30 23  1  0  0  0  0
 31 29  2  0  0  0  0
M  END
>  <MODEL>
7

>  <REMARK>
 VINA RESULT:      -7.8      3.299      7.139
  Name = 
  3 active torsions:
  status: ('A' for Active; 'I' for Inactive)
    1  A    between atoms: C_5  and  O_16
    2  A    between atoms: C_5  and  C_30
    3  A    between atoms: C_10  and  O_16
                            x       y       z     vdW  Elec       q    Type
                         _______ _______ _______ _____ _____    ______ ____

>  <TORSDO>
F 3

$$$$
=
 OpenBabel11122410593D

 31 35  0  0  1  0  0  0  0  0999 V2000
  193.4330  176.0080  137.0640 C   0  0  0  0  0  0  0  0  0  0  0  0
  189.7840  176.7130  137.5790 N   0  0  0  0  0  0  0  0  0  0  0  0
  188.9930  175.6640  136.9650 C   0  0  0  0  0  0  0  0  0  0  0  0
  188.8040  173.6110  135.6740 C   0  0  0  0  0  0  0  0  0  0  0  0
  191.2010  176.5590  137.7990 C   0  0  0  0  0  0  0  0  0  0  0  0
  193.9120  176.3200  138.3000 N   0  0  0  0  0  0  0  0  0  0  0  0
  189.5800  174.6500  136.1920 C   0  0  0  0  0  3  0  0  0  0  0  0
  189.4520  177.4130  139.8950 C   0  0  2  0  0  3  0  0  0  0  0  0
  194.5280  175.4590  135.8150 Cl  0  0  0  0  0  0  0  0  0  0  0  0
  187.0080  176.6150  137.9720 O   0  0  0  0  0  0  0  0  0  0  0  0
  189.5530  172.3580  134.7110 Cl  0  0  0  0  0  0  0  0  0  0  0  0
  190.8710  177.3530  140.0740 O   0  0  0  0  0  0  0  0  0  0  0  0
  189.1350  177.7250  138.4300 C   0  0  2  0  0  3  0  0  0  0  0  0
  192.0680  176.1260  136.7900 C   0  0  0  0  0  3  0  0  0  0  0  0
  187.4330  173.5660  135.9370 C   0  0  0  0  0  3  0  0  0  0  0  0
  191.7230  176.8830  139.0630 C   0  0  0  0  0  0  0  0  0  0  0  0
  193.0920  176.7540  139.2950 C   0  0  0  0  0  3  0  0  0  0  0  0
  187.6370  177.8780  138.1440 C   0  0  0  0  0  2  0  0  0  0  0  0
  187.6090  175.6170  137.2090 C   0  0  0  0  0  0  0  0  0  0  0  0
  186.8360  174.5660  136.7060 C   0  0  0  0  0  3  0  0  0  0  0  0
  188.9130  178.3920  140.7350 O   0  0  0  0  0  0  0  0  0  0  0  0
  189.7630  178.2540  142.9640 C   0  0  0  0  0  1  0  0  0  0  0  0
  188.7310  177.7570  141.9680 C   0  0  1  0  0  3  0  0  0  0  0  0
  184.8890  178.7660  143.5790 N   0  0  0  0  0  0  0  0  0  0  0  0
  186.4860  178.6630  141.7140 C   0  0  0  0  0  3  0  0  0  0  0  0
  187.7810  176.7530  144.6080 O   0  0  0  0  0  1  0  0  0  0  0  0
  183.6670  179.2500  144.1930 C   0  0  0  0  0  1  0  0  0  0  0  0
  185.0650  178.9240  142.1350 C   0  0  0  0  0  2  0  0  0  0  0  0
  186.9390  177.5490  143.8420 C   0  0  0  0  0  0  0  0  0  0  0  0
  187.3420  177.9850  142.4840 C   0  0  0  0  0  0  0  0  0  0  0  0
  185.7730  177.9460  144.3510 C   0  0  0  0  0  3  0  0  0  0  0  0
  1  6  1  0  0  0  0
  2  5  1  0  0  0  0
  2 13  1  0  0  0  0
  3 19  1  0  0  0  0
  3  2  1  0  0  0  0
  4 15  2  0  0  0  0
  4  7  1  0  0  0  0
  5 16  2  0  0  0  0
  6 17  2  0  0  0  0
  7  3  2  0  0  0  0
  8 12  1  0  0  0  0
  8 21  1  1  0  0  0
  9  1  1  0  0  0  0
 10 18  1  0  0  0  0
 11  4  1  0  0  0  0
 13 18  1  1  0  0  0
 13  8  1  0  0  0  0
 14  1  2  0  0  0  0
 14  5  1  0  0  0  0
 15 20  1  0  0  0  0
 16 17  1  0  0  0  0
 16 12  1  0  0  0  0
 19 10  1  0  0  0  0
 20 19  2  0  0  0  0
 21 23  1  0  0  0  0
 23 30  1  0  0  0  0
 23 22  1  1  0  0  0
 24 27  1  0  0  0  0
 24 31  1  0  0  0  0
 25 28  1  0  0  0  0
 25 30  2  0  0  0  0
 28 24  1  0  0  0  0
 29 31  2  0  0  0  0
 29 26  1  0  0  0  0
 30 29  1  0  0  0  0
M  END
>  <MODEL>
8

>  <REMARK>
 VINA RESULT:      -7.6      4.158      6.879
  Name = 
  3 active torsions:
  status: ('A' for Active; 'I' for Inactive)
    1  A    between atoms: C_5  and  O_16
    2  A    between atoms: C_5  and  C_30
    3  A    between atoms: C_10  and  O_16
                            x       y       z     vdW  Elec       q    Type
                         _______ _______ _______ _____ _____    ______ ____

>  <TORSDO>
F 3

$$$$
=
 OpenBabel11122410593D

 31 35  0  0  1  0  0  0  0  0999 V2000
  188.8370  177.0240  141.9150 C   0  0  0  0  0  0  0  0  0  0  0  0
  186.3410  177.8250  144.5990 N   0  0  0  0  0  0  0  0  0  0  0  0
  187.0170  177.9380  145.8760 C   0  0  0  0  0  0  0  0  0  0  0  0
  189.0240  177.8240  147.2470 C   0  0  0  0  0  0  0  0  0  0  0  0
  187.0720  177.8200  143.3550 C   0  0  0  0  0  0  0  0  0  0  0  0
  188.3990  177.8520  140.9280 N   0  0  0  0  0  0  0  0  0  0  0  0
  188.3800  177.6370  146.0220 C   0  0  0  0  0  3  0  0  0  0  0  0
  184.8360  179.5570  143.7620 C   0  0  2  0  0  3  0  0  0  0  0  0
  190.2270  175.9970  141.6420 Cl  0  0  0  0  0  0  0  0  0  0  0  0
  184.9560  178.7350  146.8630 O   0  0  0  0  0  0  0  0  0  0  0  0
  190.7230  177.4400  147.4090 Cl  0  0  0  0  0  0  0  0  0  0  0  0
  185.5050  179.4710  142.4990 O   0  0  0  0  0  0  0  0  0  0  0  0
  184.9230  178.2070  144.4780 C   0  0  2  0  0  3  0  0  0  0  0  0
  188.1780  176.9890  143.1460 C   0  0  0  0  0  3  0  0  0  0  0  0
  188.3140  178.3310  148.3380 C   0  0  0  0  0  3  0  0  0  0  0  0
  186.6350  178.6600  142.3160 C   0  0  0  0  0  0  0  0  0  0  0  0
  187.3190  178.6610  141.1010 C   0  0  0  0  0  3  0  0  0  0  0  0
  184.1760  178.1720  145.8150 C   0  0  0  0  0  2  0  0  0  0  0  0
  186.3090  178.4320  146.9870 C   0  0  0  0  0  0  0  0  0  0  0  0
  186.9590  178.6380  148.2070 C   0  0  0  0  0  3  0  0  0  0  0  0
  183.5010  179.9240  143.5620 O   0  0  0  0  0  0  0  0  0  0  0  0
  181.5900  178.6130  144.1440 C   0  0  0  0  0  1  0  0  0  0  0  0
  182.8320  178.7280  143.2800 C   0  0  1  0  0  3  0  0  0  0  0  0
  182.0870  178.7910  139.0590 N   0  0  0  0  0  0  0  0  0  0  0  0
  183.2310  177.8780  141.0340 C   0  0  0  0  0  3  0  0  0  0  0  0
  180.5200  180.1730  142.0780 O   0  0  0  0  0  1  0  0  0  0  0  0
  181.9420  178.9530  137.6260 C   0  0  0  0  0  1  0  0  0  0  0  0
  182.9410  177.7160  139.5660 C   0  0  0  0  0  2  0  0  0  0  0  0
  181.3760  179.4550  141.2510 C   0  0  0  0  0  0  0  0  0  0  0  0
  182.4770  178.6470  141.8260 C   0  0  0  0  0  0  0  0  0  0  0  0
  181.2170  179.5230  139.9300 C   0  0  0  0  0  3  0  0  0  0  0  0
  1 14  1  0  0  0  0
  2  3  1  0  0  0  0
  3  7  2  0  0  0  0
  3 19  1  0  0  0  0
  4 11  1  0  0  0  0
  4 15  2  0  0  0  0
  5  2  1  0  0  0  0
  6 17  1  0  0  0  0
  6  1  2  0  0  0  0
  7  4  1  0  0  0  0
  8 21  1  6  0  0  0
  8 13  1  0  0  0  0
  9  1  1  0  0  0  0
 10 19  1  0  0  0  0
 12  8  1  0  0  0  0
 13  2  1  0  0  0  0
 13 18  1  1  0  0  0
 14  5  2  0  0  0  0
 16 12  1  0  0  0  0
 16  5  1  0  0  0  0
 17 16  2  0  0  0  0
 18 10  1  0  0  0  0
 19 20  2  0  0  0  0
 20 15  1  0  0  0  0
 23 21  1  0  0  0  0
 23 22  1  1  0  0  0
 24 28  1  0  0  0  0
 24 31  1  0  0  0  0
 25 30  2  0  0  0  0
 27 24  1  0  0  0  0
 28 25  1  0  0  0  0
 29 30  1  0  0  0  0
 29 26  1  0  0  0  0
 30 23  1  0  0  0  0
 31 29  2  0  0  0  0
M  END
>  <MODEL>
9

>  <REMARK>
 VINA RESULT:      -7.5      2.709      7.266
  Name = 
  3 active torsions:
  status: ('A' for Active; 'I' for Inactive)
    1  A    between atoms: C_5  and  O_16
    2  A    between atoms: C_5  and  C_30
    3  A    between atoms: C_10  and  O_16
                            x       y       z     vdW  Elec       q    Type
                         _______ _______ _______ _____ _____    ______ ____

>  <TORSDO>
F 3

$$$$
