=
 OpenBabel11122410303D

 30 35  0  0  1  0  0  0  0  0999 V2000
  187.3460  177.8450  144.5160 C   0  0  0  0  0  0  0  0  0  0  0  0
  185.0710  178.3530  145.3830 C   0  0  0  0  0  0  0  0  0  0  0  0
  186.1690  178.7670  140.5870 N   0  0  0  0  0  2  0  0  0  0  0  0
  188.2280  177.7130  143.4180 C   0  0  0  0  0  0  0  0  0  0  0  0
  187.8260  177.5820  145.8000 O   0  0  0  0  0  0  0  0  0  0  0  0
  191.3690  176.9290  145.2560 O   0  0  0  0  0  1  0  0  0  0  0  0
  190.4470  176.5240  141.2980 C   0  0  1  0  0  3  0  0  0  0  0  0
  189.9940  176.7400  145.0800 C   0  0  1  0  0  3  0  0  0  0  0  0
  189.1860  176.8300  140.4850 C   0  0  2  0  0  3  0  0  0  0  0  0
  187.4160  178.5670  139.9300 C   0  0  0  0  0  0  0  0  0  0  0  0
  189.2200  177.5890  146.0900 C   0  0  2  0  0  3  0  0  0  0  0  0
  189.5620  177.0160  143.6240 C   0  0  2  0  0  3  0  0  0  0  0  0
  183.7550  178.7510  145.1330 C   0  0  0  0  0  3  0  0  0  0  0  0
  189.5280  176.8210  139.1150 O   0  0  0  0  0  0  0  0  0  0  0  0
  191.5640  176.6750  140.3240 C   0  0  0  0  0  2  0  0  0  0  0  0
  185.4370  178.0710  146.6950 O   0  0  0  0  0  1  0  0  0  0  0  0
  186.4560  178.4650  141.9430 C   0  0  0  0  0  0  0  0  0  0  0  0
  183.3330  179.0450  143.8370 C   0  0  0  0  0  3  0  0  0  0  0  0
  185.9950  178.2440  144.3160 C   0  0  0  0  0  0  0  0  0  0  0  0
  187.7630  178.0710  142.1420 C   0  0  0  0  0  0  0  0  0  0  0  0
  187.5670  178.7800  138.6990 O   0  0  0  0  0  0  0  0  0  0  0  0
  188.5300  178.1660  140.8570 C   0  0  1  0  0  3  0  0  0  0  0  0
  190.8700  176.4100  139.0150 C   0  0  0  0  0  2  0  0  0  0  0  0
  191.0140  178.7640  142.4640 C   0  0  0  0  0  1  0  0  0  0  0  0
  184.2280  178.9470  142.7730 C   0  0  0  0  0  3  0  0  0  0  0  0
  185.5500  178.5500  143.0000 C   0  0  0  0  0  0  0  0  0  0  0  0
  190.6850  177.2820  142.6170 C   0  0  2  0  0  3  0  0  0  0  0  0
  189.4660  177.1300  147.5250 C   0  0  0  0  0  2  0  0  0  0  0  0
  187.8170  177.9500  149.1820 C   0  0  0  0  0  1  0  0  0  0  0  0
  189.1550  178.2280  148.5310 C   0  0  0  0  0  2  0  0  0  0  0  0
  1  5  1  0  0  0  0
  2 16  1  0  0  0  0
  3 17  1  0  0  0  0
  4  1  2  0  0  0  0
  5 11  1  0  0  0  0
  7 15  1  6  0  0  0
  7 27  1  0  0  0  0
  8  6  1  6  0  0  0
  8 11  1  0  0  0  0
  9 14  1  6  0  0  0
  9 22  1  0  0  0  0
  9  7  1  0  0  0  0
 10  3  1  0  0  0  0
 11 28  1  1  0  0  0
 12  4  1  1  0  0  0
 12  8  1  0  0  0  0
 13  2  1  0  0  0  0
 17 20  2  0  0  0  0
 17 26  1  0  0  0  0
 18 13  2  0  0  0  0
 19  1  1  0  0  0  0
 19  2  2  0  0  0  0
 20  4  1  0  0  0  0
 21 10  2  0  0  0  0
 22 10  1  6  0  0  0
 22 20  1  0  0  0  0
 23 14  1  0  0  0  0
 23 15  1  0  0  0  0
 25 26  2  0  0  0  0
 25 18  1  0  0  0  0
 26 19  1  0  0  0  0
 27 24  1  6  0  0  0
 27 12  1  0  0  0  0
 28 30  1  0  0  0  0
 30 29  1  0  0  0  0
M  END
>  <MODEL>
1

>  <REMARK>
 VINA RESULT:     -10.3      0.000      0.000
  Name = 
  2 active torsions:
  status: ('A' for Active; 'I' for Inactive)
    1  A    between atoms: C_11  and  C_28
    2  A    between atoms: C_28  and  C_30
                            x       y       z     vdW  Elec       q    Type
                         _______ _______ _______ _____ _____    ______ ____

>  <TORSDO>
F 2

$$$$
=
 OpenBabel11122410303D

 30 35  0  0  1  0  0  0  0  0999 V2000
  186.8660  178.2890  142.0370 C   0  0  0  0  0  0  0  0  0  0  0  0
  184.5270  179.0720  141.7240 C   0  0  0  0  0  0  0  0  0  0  0  0
  186.2030  177.6130  146.1320 N   0  0  0  0  0  2  0  0  0  0  0  0
  187.8940  177.8410  142.8990 C   0  0  0  0  0  0  0  0  0  0  0  0
  187.1440  178.4310  140.6760 O   0  0  0  0  0  0  0  0  0  0  0  0
  190.5550  177.1870  140.3800 O   0  0  0  0  0  1  0  0  0  0  0  0
  190.7830  177.5260  144.4430 C   0  0  1  0  0  3  0  0  0  0  0  0
  189.5330  178.0060  140.8710 C   0  0  1  0  0  3  0  0  0  0  0  0
  189.7340  177.7870  145.5280 C   0  0  2  0  0  3  0  0  0  0  0  0
  187.4820  177.0950  146.4810 C   0  0  0  0  0  0  0  0  0  0  0  0
  188.2510  177.7730  140.0700 C   0  0  2  0  0  3  0  0  0  0  0  0
  189.3240  177.8090  142.3880 C   0  0  2  0  0  3  0  0  0  0  0  0
  183.2720  179.3480  142.2730 C   0  0  0  0  0  3  0  0  0  0  0  0
  190.3010  177.4660  146.7810 O   0  0  0  0  0  0  0  0  0  0  0  0
  191.8400  176.7320  145.1300 C   0  0  0  0  0  2  0  0  0  0  0  0
  184.7120  179.2900  140.3630 O   0  0  0  0  0  1  0  0  0  0  0  0
  186.3230  177.8910  144.7470 C   0  0  0  0  0  0  0  0  0  0  0  0
  183.0300  179.1490  143.6320 C   0  0  0  0  0  3  0  0  0  0  0  0
  185.5710  178.5860  142.5470 C   0  0  0  0  0  0  0  0  0  0  0  0
  187.5800  177.6110  144.2490 C   0  0  0  0  0  0  0  0  0  0  0  0
  187.7490  176.6930  147.6440 O   0  0  0  0  0  0  0  0  0  0  0  0
  188.4330  177.0010  145.3200 C   0  0  1  0  0  3  0  0  0  0  0  0
  191.6550  177.1480  146.5650 C   0  0  0  0  0  2  0  0  0  0  0  0
  189.8910  175.4520  143.1790 C   0  0  0  0  0  1  0  0  0  0  0  0
  184.0430  178.6690  144.4590 C   0  0  0  0  0  3  0  0  0  0  0  0
  185.3080  178.3870  143.9300 C   0  0  0  0  0  0  0  0  0  0  0  0
  190.3340  176.9100  143.1060 C   0  0  2  0  0  3  0  0  0  0  0  0
  188.4000  178.2160  138.6170 C   0  0  0  0  0  2  0  0  0  0  0  0
  187.2860  178.5480  136.4290 C   0  0  0  0  0  1  0  0  0  0  0  0
  187.1380  177.9500  137.8120 C   0  0  0  0  0  2  0  0  0  0  0  0
  1 19  2  0  0  0  0
  1  4  1  0  0  0  0
  2 13  2  0  0  0  0
  2 19  1  0  0  0  0
  3 10  1  0  0  0  0
  4 20  2  0  0  0  0
  5  1  1  0  0  0  0
  7 15  1  1  0  0  0
  7  9  1  0  0  0  0
  8  6  1  6  0  0  0
  8 12  1  0  0  0  0
  9 14  1  1  0  0  0
 10 21  2  0  0  0  0
 11 28  1  6  0  0  0
 11  5  1  0  0  0  0
 11  8  1  0  0  0  0
 12  4  1  6  0  0  0
 12 27  1  0  0  0  0
 13 18  1  0  0  0  0
 15 23  1  0  0  0  0
 16  2  1  0  0  0  0
 17  3  1  0  0  0  0
 18 25  2  0  0  0  0
 19 26  1  0  0  0  0
 20 17  1  0  0  0  0
 22 20  1  6  0  0  0
 22  9  1  0  0  0  0
 22 10  1  0  0  0  0
 23 14  1  0  0  0  0
 26 25  1  0  0  0  0
 26 17  2  0  0  0  0
 27 24  1  1  0  0  0
 27  7  1  0  0  0  0
 29 30  1  0  0  0  0
 30 28  1  0  0  0  0
M  END
>  <MODEL>
2

>  <REMARK>
 VINA RESULT:     -10.0      1.917      5.604
  Name = 
  2 active torsions:
  status: ('A' for Active; 'I' for Inactive)
    1  A    between atoms: C_11  and  C_28
    2  A    between atoms: C_28  and  C_30
                            x       y       z     vdW  Elec       q    Type
                         _______ _______ _______ _____ _____    ______ ____

>  <TORSDO>
F 2

$$$$
=
 OpenBabel11122410303D

 30 35  0  0  1  0  0  0  0  0999 V2000
  187.3060  178.1700  140.8400 C   0  0  0  0  0  0  0  0  0  0  0  0
  185.0950  178.8520  139.9260 C   0  0  0  0  0  0  0  0  0  0  0  0
  185.7250  177.8660  144.7230 N   0  0  0  0  0  2  0  0  0  0  0  0
  188.1110  177.8350  141.9540 C   0  0  0  0  0  0  0  0  0  0  0  0
  187.8870  178.1900  139.5710 O   0  0  0  0  0  0  0  0  0  0  0  0
  191.2840  177.0230  140.1840 O   0  0  0  0  0  1  0  0  0  0  0  0
  190.5710  177.7520  144.1380 C   0  0  1  0  0  3  0  0  0  0  0  0
  190.1710  177.8550  140.3460 C   0  0  1  0  0  3  0  0  0  0  0  0
  189.2990  178.0840  144.9250 C   0  0  2  0  0  3  0  0  0  0  0  0
  186.8930  177.4200  145.4030 C   0  0  0  0  0  0  0  0  0  0  0  0
  189.1090  177.5100  139.3010 C   0  0  2  0  0  3  0  0  0  0  0  0
  189.6210  177.7970  141.7870 C   0  0  2  0  0  3  0  0  0  0  0  0
  183.7460  179.1420  140.1460 C   0  0  0  0  0  3  0  0  0  0  0  0
  189.5660  177.8990  146.2990 O   0  0  0  0  0  0  0  0  0  0  0  0
  191.4470  177.0570  145.1230 C   0  0  0  0  0  2  0  0  0  0  0  0
  185.5870  178.9450  138.6290 O   0  0  0  0  0  1  0  0  0  0  0  0
  186.1580  178.0150  143.3810 C   0  0  0  0  0  0  0  0  0  0  0  0
  183.2000  179.0660  141.4270 C   0  0  0  0  0  3  0  0  0  0  0  0
  185.9270  178.4770  141.0100 C   0  0  0  0  0  0  0  0  0  0  0  0
  187.4970  177.7260  143.2120 C   0  0  0  0  0  0  0  0  0  0  0  0
  186.8890  177.1380  146.6300 O   0  0  0  0  0  0  0  0  0  0  0  0
  188.0850  177.2440  144.5050 C   0  0  1  0  0  3  0  0  0  0  0  0
  190.9350  177.6020  146.4300 C   0  0  0  0  0  2  0  0  0  0  0  0
  190.0060  175.5420  142.9160 C   0  0  0  0  0  1  0  0  0  0  0  0
  184.0000  178.6960  142.5050 C   0  0  0  0  0  3  0  0  0  0  0  0
  185.3550  178.4020  142.3090 C   0  0  0  0  0  0  0  0  0  0  0  0
  190.4440  176.9990  142.8020 C   0  0  2  0  0  3  0  0  0  0  0  0
  189.5840  177.8180  137.8840 C   0  0  0  0  0  2  0  0  0  0  0  0
  187.9290  178.0580  136.0560 C   0  0  0  0  0  1  0  0  0  0  0  0
  188.6510  178.7840  137.1710 C   0  0  0  0  0  2  0  0  0  0  0  0
  1 19  2  0  0  0  0
  1  4  1  0  0  0  0
  2 13  2  0  0  0  0
  2 19  1  0  0  0  0
  3 10  1  0  0  0  0
  4 20  2  0  0  0  0
  5  1  1  0  0  0  0
  7  9  1  0  0  0  0
  7 15  1  1  0  0  0
  8  6  1  1  0  0  0
  8 12  1  0  0  0  0
  9 14  1  1  0  0  0
 10 21  2  0  0  0  0
 11 28  1  6  0  0  0
 11  5  1  0  0  0  0
 11  8  1  0  0  0  0
 12  4  1  6  0  0  0
 12 27  1  0  0  0  0
 13 18  1  0  0  0  0
 14 23  1  0  0  0  0
 15 23  1  0  0  0  0
 16  2  1  0  0  0  0
 17  3  1  0  0  0  0
 18 25  2  0  0  0  0
 19 26  1  0  0  0  0
 20 17  1  0  0  0  0
 22 20  1  6  0  0  0
 22  9  1  0  0  0  0
 22 10  1  0  0  0  0
 26 25  1  0  0  0  0
 26 17  2  0  0  0  0
 27 24  1  1  0  0  0
 27  7  1  0  0  0  0
 29 30  1  0  0  0  0
 30 28  1  0  0  0  0
M  END
>  <MODEL>
3

>  <REMARK>
 VINA RESULT:      -9.9      1.845      5.765
  Name = 
  2 active torsions:
  status: ('A' for Active; 'I' for Inactive)
    1  A    between atoms: C_11  and  C_28
    2  A    between atoms: C_28  and  C_30
                            x       y       z     vdW  Elec       q    Type
                         _______ _______ _______ _____ _____    ______ ____

>  <TORSDO>
F 2

$$$$
=
 OpenBabel11122410303D

 30 35  0  0  1  0  0  0  0  0999 V2000
  189.3640  177.1960  143.6420 C   0  0  0  0  0  0  0  0  0  0  0  0
  191.3200  176.3430  144.9190 C   0  0  0  0  0  0  0  0  0  0  0  0
  187.2680  178.0090  147.1940 N   0  0  0  0  0  2  0  0  0  0  0  0
  188.0430  177.7020  143.6350 C   0  0  0  0  0  0  0  0  0  0  0  0
  190.0210  177.0100  142.4240 O   0  0  0  0  0  0  0  0  0  0  0  0
  187.6560  178.3280  139.9860 O   0  0  0  0  0  1  0  0  0  0  0  0
  184.8550  178.1480  142.9520 C   0  0  1  0  0  3  0  0  0  0  0  0
  188.0860  177.5030  141.0300 C   0  0  1  0  0  3  0  0  0  0  0  0
  184.9490  177.9020  144.4610 C   0  0  2  0  0  3  0  0  0  0  0  0
  186.0880  178.5720  146.6310 C   0  0  0  0  0  0  0  0  0  0  0  0
  189.5920  177.6730  141.2390 C   0  0  2  0  0  3  0  0  0  0  0  0
  187.2800  177.7510  142.3220 C   0  0  2  0  0  3  0  0  0  0  0  0
  191.9150  176.0560  146.1500 C   0  0  0  0  0  3  0  0  0  0  0  0
  183.7240  178.2840  145.0500 O   0  0  0  0  0  0  0  0  0  0  0  0
  183.6400  178.9940  142.7870 C   0  0  0  0  0  2  0  0  0  0  0  0
  192.0440  176.0790  143.7610 O   0  0  0  0  0  1  0  0  0  0  0  0
  188.0550  177.6820  146.0600 C   0  0  0  0  0  0  0  0  0  0  0  0
  191.2350  176.3000  147.3440 C   0  0  0  0  0  3  0  0  0  0  0  0
  190.0140  176.8860  144.8690 C   0  0  0  0  0  0  0  0  0  0  0  0
  187.4260  177.9750  144.8670 C   0  0  0  0  0  0  0  0  0  0  0  0
  185.1550  179.0240  147.3430 O   0  0  0  0  0  0  0  0  0  0  0  0
  186.1120  178.6460  145.1290 C   0  0  1  0  0  3  0  0  0  0  0  0
  182.8400  178.6280  144.0090 C   0  0  0  0  0  2  0  0  0  0  0  0
  186.4400  180.1500  142.5340 C   0  0  0  0  0  1  0  0  0  0  0  0
  189.9500  176.8360  147.3170 C   0  0  0  0  0  3  0  0  0  0  0  0
  189.3340  177.1300  146.0950 C   0  0  0  0  0  0  0  0  0  0  0  0
  186.0850  178.7020  142.2110 C   0  0  2  0  0  3  0  0  0  0  0  0
  190.3920  177.1790  140.0370 C   0  0  0  0  0  2  0  0  0  0  0  0
  192.6370  176.7710  139.0720 C   0  0  0  0  0  1  0  0  0  0  0  0
  191.8840  177.4180  140.2130 C   0  0  0  0  0  2  0  0  0  0  0  0
  1 19  1  0  0  0  0
  2 13  1  0  0  0  0
  4  1  2  0  0  0  0
  4 20  1  0  0  0  0
  5  1  1  0  0  0  0
  7 15  1  1  0  0  0
  7  9  1  0  0  0  0
  8  6  1  6  0  0  0
  8 11  1  0  0  0  0
  8 12  1  0  0  0  0
  9 14  1  1  0  0  0
  9 22  1  0  0  0  0
 10  3  1  0  0  0  0
 10 21  2  0  0  0  0
 11 28  1  6  0  0  0
 11  5  1  0  0  0  0
 12  4  1  1  0  0  0
 13 18  2  0  0  0  0
 15 23  1  0  0  0  0
 16  2  1  0  0  0  0
 17 26  1  0  0  0  0
 17  3  1  0  0  0  0
 19  2  2  0  0  0  0
 19 26  1  0  0  0  0
 20 17  2  0  0  0  0
 22 20  1  6  0  0  0
 22 10  1  0  0  0  0
 23 14  1  0  0  0  0
 25 18  1  0  0  0  0
 26 25  2  0  0  0  0
 27 12  1  0  0  0  0
 27 24  1  1  0  0  0
 27  7  1  0  0  0  0
 28 30  1  0  0  0  0
 29 30  1  0  0  0  0
M  END
>  <MODEL>
4

>  <REMARK>
 VINA RESULT:      -9.5      1.894      6.631
  Name = 
  2 active torsions:
  status: ('A' for Active; 'I' for Inactive)
    1  A    between atoms: C_11  and  C_28
    2  A    between atoms: C_28  and  C_30
                            x       y       z     vdW  Elec       q    Type
                         _______ _______ _______ _____ _____    ______ ____

>  <TORSDO>
F 2

$$$$
=
 OpenBabel11122410303D

 30 35  0  0  1  0  0  0  0  0999 V2000
  188.0460  177.7660  142.5650 C   0  0  0  0  0  0  0  0  0  0  0  0
  187.1420  177.9390  144.8760 C   0  0  0  0  0  0  0  0  0  0  0  0
  184.3840  179.0150  140.9240 N   0  0  0  0  0  2  0  0  0  0  0  0
  187.8410  177.8520  141.1690 C   0  0  0  0  0  0  0  0  0  0  0  0
  189.3090  177.4050  143.0390 O   0  0  0  0  0  0  0  0  0  0  0  0
  191.3110  177.1790  140.0030 O   0  0  0  0  0  1  0  0  0  0  0  0
  187.7780  177.1460  137.9550 C   0  0  1  0  0  3  0  0  0  0  0  0
  190.2430  176.8750  140.8540 C   0  0  1  0  0  3  0  0  0  0  0  0
  186.3290  177.4170  138.3710 C   0  0  2  0  0  3  0  0  0  0  0  0
  184.7480  179.0190  139.5480 C   0  0  0  0  0  0  0  0  0  0  0  0
  190.4710  177.5180  142.2220 C   0  0  2  0  0  3  0  0  0  0  0  0
  188.8880  177.2730  140.2320 C   0  0  2  0  0  3  0  0  0  0  0  0
  186.0700  178.2280  145.7240 C   0  0  0  0  0  3  0  0  0  0  0  0
  185.5590  177.6010  137.2020 O   0  0  0  0  0  0  0  0  0  0  0  0
  187.8280  177.5210  136.5140 C   0  0  0  0  0  2  0  0  0  0  0  0
  188.3460  177.5440  145.4470 O   0  0  0  0  0  1  0  0  0  0  0  0
  185.5670  178.5880  141.5800 C   0  0  0  0  0  0  0  0  0  0  0  0
  184.8380  178.6280  145.2050 C   0  0  0  0  0  3  0  0  0  0  0  0
  186.9870  178.0480  143.4720 C   0  0  0  0  0  0  0  0  0  0  0  0
  186.5960  178.3070  140.7040 C   0  0  0  0  0  0  0  0  0  0  0  0
  183.9520  179.3880  138.6450 O   0  0  0  0  0  0  0  0  0  0  0  0
  186.1780  178.6280  139.3010 C   0  0  1  0  0  3  0  0  0  0  0  0
  186.3930  177.3420  136.0980 C   0  0  0  0  0  2  0  0  0  0  0  0
  189.0550  179.2810  138.6680 C   0  0  0  0  0  1  0  0  0  0  0  0
  184.6660  178.7440  143.8280 C   0  0  0  0  0  3  0  0  0  0  0  0
  185.7260  178.4590  142.9590 C   0  0  0  0  0  0  0  0  0  0  0  0
  188.9180  177.7660  138.7830 C   0  0  2  0  0  3  0  0  0  0  0  0
  191.6810  176.9230  142.9370 C   0  0  0  0  0  2  0  0  0  0  0  0
  191.6800  176.3780  145.3540 C   0  0  0  0  0  1  0  0  0  0  0  0
  191.2730  175.8940  143.9790 C   0  0  0  0  0  2  0  0  0  0  0  0
  1  5  1  0  0  0  0
  1 19  1  0  0  0  0
  2 16  1  0  0  0  0
  2 13  1  0  0  0  0
  3 17  1  0  0  0  0
  4  1  2  0  0  0  0
  7 15  1  6  0  0  0
  7  9  1  0  0  0  0
  7 27  1  0  0  0  0
  8  6  1  6  0  0  0
  8 11  1  0  0  0  0
  9 14  1  6  0  0  0
  9 22  1  0  0  0  0
 10  3  1  0  0  0  0
 11 28  1  1  0  0  0
 11  5  1  0  0  0  0
 12  8  1  0  0  0  0
 12  4  1  1  0  0  0
 17 26  1  0  0  0  0
 18 13  2  0  0  0  0
 19  2  2  0  0  0  0
 20  4  1  0  0  0  0
 20 17  2  0  0  0  0
 21 10  2  0  0  0  0
 22 10  1  1  0  0  0
 22 20  1  0  0  0  0
 23 15  1  0  0  0  0
 23 14  1  0  0  0  0
 25 18  1  0  0  0  0
 26 19  1  0  0  0  0
 26 25  2  0  0  0  0
 27 24  1  1  0  0  0
 27 12  1  0  0  0  0
 28 30  1  0  0  0  0
 30 29  1  0  0  0  0
M  END
>  <MODEL>
5

>  <REMARK>
 VINA RESULT:      -8.8      1.947      3.626
  Name = 
  2 active torsions:
  status: ('A' for Active; 'I' for Inactive)
    1  A    between atoms: C_11  and  C_28
    2  A    between atoms: C_28  and  C_30
                            x       y       z     vdW  Elec       q    Type
                         _______ _______ _______ _____ _____    ______ ____

>  <TORSDO>
F 2

$$$$
=
 OpenBabel11122410303D

 30 35  0  0  1  0  0  0  0  0999 V2000
  186.4270  178.2160  141.9660 C   0  0  0  0  0  0  0  0  0  0  0  0
  185.1290  178.6480  139.8890 C   0  0  0  0  0  0  0  0  0  0  0  0
  189.9500  177.5900  139.7610 N   0  0  0  0  0  2  0  0  0  0  0  0
  187.6460  177.8540  142.5860 C   0  0  0  0  0  0  0  0  0  0  0  0
  185.3130  178.4710  142.7690 O   0  0  0  0  0  0  0  0  0  0  0  0
  186.6350  178.1960  146.1530 O   0  0  0  0  0  1  0  0  0  0  0  0
  189.8810  176.3620  144.4850 C   0  0  1  0  0  3  0  0  0  0  0  0
  186.3510  177.7610  144.8540 C   0  0  1  0  0  3  0  0  0  0  0  0
  190.3530  176.1910  143.0380 C   0  0  2  0  0  3  0  0  0  0  0  0
  190.8500  177.3650  140.8400 C   0  0  0  0  0  0  0  0  0  0  0  0
  185.4470  178.7770  144.1530 C   0  0  2  0  0  3  0  0  0  0  0  0
  187.6400  177.4690  144.0560 C   0  0  2  0  0  3  0  0  0  0  0  0
  185.0960  178.7430  138.4960 C   0  0  0  0  0  3  0  0  0  0  0  0
  191.7020  175.7750  143.0580 O   0  0  0  0  0  0  0  0  0  0  0  0
  191.1340  176.3390  145.2910 C   0  0  0  0  0  2  0  0  0  0  0  0
  183.9520  178.8770  140.5940 O   0  0  0  0  0  1  0  0  0  0  0  0
  188.7040  177.8040  140.4050 C   0  0  0  0  0  0  0  0  0  0  0  0
  186.2460  178.5230  137.7380 C   0  0  0  0  0  3  0  0  0  0  0  0
  186.3390  178.3240  140.5500 C   0  0  0  0  0  0  0  0  0  0  0  0
  188.7830  177.6930  141.7780 C   0  0  0  0  0  0  0  0  0  0  0  0
  192.0810  177.1740  140.6590 O   0  0  0  0  0  0  0  0  0  0  0  0
  190.2050  177.4640  142.1950 C   0  0  1  0  0  3  0  0  0  0  0  0
  192.0600  175.5540  144.4010 C   0  0  0  0  0  2  0  0  0  0  0  0
  189.6120  178.9190  144.7710 C   0  0  0  0  0  1  0  0  0  0  0  0
  187.4460  178.2060  138.3700 C   0  0  0  0  0  3  0  0  0  0  0  0
  187.5030  178.1050  139.7640 C   0  0  0  0  0  0  0  0  0  0  0  0
  188.9570  177.5430  144.8330 C   0  0  2  0  0  3  0  0  0  0  0  0
  184.0740  178.8650  144.8120 C   0  0  0  0  0  2  0  0  0  0  0  0
  181.7160  178.6480  144.0820 C   0  0  0  0  0  1  0  0  0  0  0  0
  183.0170  179.3850  143.8500 C   0  0  0  0  0  2  0  0  0  0  0  0
  1  4  1  0  0  0  0
  1  5  1  0  0  0  0
  2 19  1  0  0  0  0
  2 16  1  0  0  0  0
  3 17  1  0  0  0  0
  3 10  1  0  0  0  0
  5 11  1  0  0  0  0
  7 27  1  0  0  0  0
  7 15  1  1  0  0  0
  8  6  1  1  0  0  0
  9 14  1  1  0  0  0
  9  7  1  0  0  0  0
 11 28  1  1  0  0  0
 11  8  1  0  0  0  0
 12  4  1  6  0  0  0
 12 27  1  0  0  0  0
 12  8  1  0  0  0  0
 13  2  2  0  0  0  0
 14 23  1  0  0  0  0
 17 20  1  0  0  0  0
 18 25  2  0  0  0  0
 18 13  1  0  0  0  0
 19  1  2  0  0  0  0
 20 22  1  0  0  0  0
 20  4  2  0  0  0  0
 21 10  2  0  0  0  0
 22 10  1  6  0  0  0
 22  9  1  0  0  0  0
 23 15  1  0  0  0  0
 25 26  1  0  0  0  0
 26 17  2  0  0  0  0
 26 19  1  0  0  0  0
 27 24  1  6  0  0  0
 30 29  1  0  0  0  0
 30 28  1  0  0  0  0
M  END
>  <MODEL>
6

>  <REMARK>
 VINA RESULT:      -8.6      1.977      4.676
  Name = 
  2 active torsions:
  status: ('A' for Active; 'I' for Inactive)
    1  A    between atoms: C_11  and  C_28
    2  A    between atoms: C_28  and  C_30
                            x       y       z     vdW  Elec       q    Type
                         _______ _______ _______ _____ _____    ______ ____

>  <TORSDO>
F 2

$$$$
=
 OpenBabel11122410303D

 30 35  0  0  1  0  0  0  0  0999 V2000
  185.7650  178.3470  142.2750 C   0  0  0  0  0  0  0  0  0  0  0  0
  186.6880  178.2020  144.5800 C   0  0  0  0  0  0  0  0  0  0  0  0
  181.8750  178.9350  143.7550 N   0  0  0  0  0  2  0  0  0  0  0  0
  184.6470  178.4700  141.4170 C   0  0  0  0  0  0  0  0  0  0  0  0
  187.0360  178.2170  141.7100 O   0  0  0  0  0  0  0  0  0  0  0  0
  186.4070  178.5700  138.1390 O   0  0  0  0  0  1  0  0  0  0  0  0
  182.4650  177.9540  139.0090 C   0  0  1  0  0  3  0  0  0  0  0  0
  186.2580  178.0110  139.4120 C   0  0  1  0  0  3  0  0  0  0  0  0
  181.6830  177.9060  140.3250 C   0  0  2  0  0  3  0  0  0  0  0  0
  181.1890  179.0910  142.5180 C   0  0  0  0  0  0  0  0  0  0  0  0
  187.2960  178.6060  140.3650 C   0  0  2  0  0  3  0  0  0  0  0  0
  184.8150  178.1670  139.9390 C   0  0  2  0  0  3  0  0  0  0  0  0
  186.4710  178.2230  145.9610 C   0  0  0  0  0  3  0  0  0  0  0  0
  180.3060  178.0010  140.0270 O   0  0  0  0  0  0  0  0  0  0  0  0
  181.4700  178.4140  138.0010 C   0  0  0  0  0  2  0  0  0  0  0  0
  187.9870  178.0220  144.1200 O   0  0  0  0  0  1  0  0  0  0  0  0
  183.2210  178.7150  143.3640 C   0  0  0  0  0  0  0  0  0  0  0  0
  185.1880  178.3990  146.4780 C   0  0  0  0  0  3  0  0  0  0  0  0
  185.5990  178.3590  143.6880 C   0  0  0  0  0  0  0  0  0  0  0  0
  183.3860  178.6950  141.9940 C   0  0  0  0  0  0  0  0  0  0  0  0
  179.9580  179.3460  142.4610 O   0  0  0  0  0  0  0  0  0  0  0  0
  182.0860  179.0070  141.3150 C   0  0  1  0  0  3  0  0  0  0  0  0
  180.1720  177.9770  138.6260 C   0  0  0  0  0  2  0  0  0  0  0  0
  183.6480  180.2550  139.0530 C   0  0  0  0  0  1  0  0  0  0  0  0
  184.1050  178.5580  145.6180 C   0  0  0  0  0  3  0  0  0  0  0  0
  184.2970  178.5400  144.2320 C   0  0  0  0  0  0  0  0  0  0  0  0
  183.7880  178.7390  138.9580 C   0  0  2  0  0  3  0  0  0  0  0  0
  188.7180  178.2230  139.9690 C   0  0  0  0  0  2  0  0  0  0  0  0
  190.8130  177.0680  140.6150 C   0  0  0  0  0  1  0  0  0  0  0  0
  189.3760  177.3330  141.0110 C   0  0  0  0  0  2  0  0  0  0  0  0
  1 19  1  0  0  0  0
  2 13  1  0  0  0  0
  4 20  1  0  0  0  0
  4  1  2  0  0  0  0
  5  1  1  0  0  0  0
  7 15  1  6  0  0  0
  7  9  1  0  0  0  0
  8  6  1  6  0  0  0
  8 12  1  0  0  0  0
  8 11  1  0  0  0  0
  9 14  1  6  0  0  0
  9 22  1  0  0  0  0
 10  3  1  0  0  0  0
 11 28  1  6  0  0  0
 11  5  1  0  0  0  0
 12  4  1  1  0  0  0
 13 18  2  0  0  0  0
 15 23  1  0  0  0  0
 16  2  1  0  0  0  0
 17  3  1  0  0  0  0
 17 26  1  0  0  0  0
 19 26  1  0  0  0  0
 19  2  2  0  0  0  0
 20 17  2  0  0  0  0
 21 10  2  0  0  0  0
 22 20  1  1  0  0  0
 22 10  1  0  0  0  0
 23 14  1  0  0  0  0
 25 18  1  0  0  0  0
 26 25  2  0  0  0  0
 27  7  1  0  0  0  0
 27 24  1  1  0  0  0
 27 12  1  0  0  0  0
 28 30  1  0  0  0  0
 29 30  1  0  0  0  0
M  END
>  <MODEL>
7

>  <REMARK>
 VINA RESULT:      -8.5      3.212      6.547
  Name = 
  2 active torsions:
  status: ('A' for Active; 'I' for Inactive)
    1  A    between atoms: C_11  and  C_28
    2  A    between atoms: C_28  and  C_30
                            x       y       z     vdW  Elec       q    Type
                         _______ _______ _______ _____ _____    ______ ____

>  <TORSDO>
F 2

$$$$
=
 OpenBabel11122410303D

 30 35  0  0  1  0  0  0  0  0999 V2000
  189.5630  177.5590  143.2050 C   0  0  0  0  0  0  0  0  0  0  0  0
  191.1000  177.4600  141.2520 C   0  0  0  0  0  0  0  0  0  0  0  0
  186.2290  178.0380  140.6910 N   0  0  0  0  0  2  0  0  0  0  0  0
  188.2570  177.7360  143.7170 C   0  0  0  0  0  0  0  0  0  0  0  0
  190.6130  177.3420  144.0990 O   0  0  0  0  0  0  0  0  0  0  0  0
  188.9410  177.1570  147.3300 O   0  0  0  0  0  1  0  0  0  0  0  0
  185.6950  178.8080  145.4820 C   0  0  1  0  0  3  0  0  0  0  0  0
  189.3030  177.7400  146.1120 C   0  0  1  0  0  3  0  0  0  0  0  0
  185.3520  179.0680  144.0120 C   0  0  2  0  0  3  0  0  0  0  0  0
  185.2070  178.0660  141.6810 C   0  0  0  0  0  0  0  0  0  0  0  0
  190.3770  176.8930  145.4300 C   0  0  2  0  0  3  0  0  0  0  0  0
  188.0750  177.9780  145.2060 C   0  0  2  0  0  3  0  0  0  0  0  0
  191.2820  177.5030  139.8670 C   0  0  0  0  0  3  0  0  0  0  0  0
  183.9710  179.3440  143.9200 O   0  0  0  0  0  0  0  0  0  0  0  0
  184.3730  178.6280  146.1460 C   0  0  0  0  0  2  0  0  0  0  0  0
  192.2200  177.2840  142.0580 O   0  0  0  0  0  1  0  0  0  0  0  0
  187.4210  177.8890  141.4460 C   0  0  0  0  0  0  0  0  0  0  0  0
  190.1950  177.6780  139.0110 C   0  0  0  0  0  3  0  0  0  0  0  0
  189.8030  177.5960  141.8030 C   0  0  0  0  0  0  0  0  0  0  0  0
  187.1940  177.8590  142.8070 C   0  0  0  0  0  0  0  0  0  0  0  0
  183.9870  178.1500  141.3840 O   0  0  0  0  0  0  0  0  0  0  0  0
  185.7220  177.9030  143.0840 C   0  0  1  0  0  3  0  0  0  0  0  0
  183.4600  179.3980  145.2300 C   0  0  0  0  0  2  0  0  0  0  0  0
  186.2130  176.2750  145.5780 C   0  0  0  0  0  1  0  0  0  0  0  0
  188.9100  177.8110  139.5330 C   0  0  0  0  0  3  0  0  0  0  0  0
  188.7050  177.7720  140.9170 C   0  0  0  0  0  0  0  0  0  0  0  0
  186.7030  177.6980  145.8260 C   0  0  2  0  0  3  0  0  0  0  0  0
  191.6800  176.8800  146.2240 C   0  0  0  0  0  2  0  0  0  0  0  0
  192.7180  175.6280  148.0930 C   0  0  0  0  0  1  0  0  0  0  0  0
  191.9980  175.4960  146.7680 C   0  0  0  0  0  2  0  0  0  0  0  0
  1  4  1  0  0  0  0
  1  5  1  0  0  0  0
  2 19  1  0  0  0  0
  2 16  1  0  0  0  0
  3 17  1  0  0  0  0
  3 10  1  0  0  0  0
  5 11  1  0  0  0  0
  7 27  1  0  0  0  0
  7 15  1  1  0  0  0
  8  6  1  1  0  0  0
  9 14  1  1  0  0  0
  9  7  1  0  0  0  0
 11  8  1  0  0  0  0
 11 28  1  1  0  0  0
 12  4  1  6  0  0  0
 12 27  1  0  0  0  0
 12  8  1  0  0  0  0
 13  2  2  0  0  0  0
 14 23  1  0  0  0  0
 17 20  1  0  0  0  0
 18 25  2  0  0  0  0
 18 13  1  0  0  0  0
 19  1  2  0  0  0  0
 20 22  1  0  0  0  0
 20  4  2  0  0  0  0
 21 10  2  0  0  0  0
 22 10  1  6  0  0  0
 22  9  1  0  0  0  0
 23 15  1  0  0  0  0
 25 26  1  0  0  0  0
 26 17  2  0  0  0  0
 26 19  1  0  0  0  0
 27 24  1  6  0  0  0
 28 30  1  0  0  0  0
 30 29  1  0  0  0  0
M  END
>  <MODEL>
8

>  <REMARK>
 VINA RESULT:      -8.4      1.822      5.428
  Name = 
  2 active torsions:
  status: ('A' for Active; 'I' for Inactive)
    1  A    between atoms: C_11  and  C_28
    2  A    between atoms: C_28  and  C_30
                            x       y       z     vdW  Elec       q    Type
                         _______ _______ _______ _____ _____    ______ ____

>  <TORSDO>
F 2

$$$$
=
 OpenBabel11122410303D

 30 35  0  0  1  0  0  0  0  0999 V2000
  188.4770  177.5400  144.5250 C   0  0  0  0  0  0  0  0  0  0  0  0
  189.5130  177.2340  146.7660 C   0  0  0  0  0  0  0  0  0  0  0  0
  184.9130  178.9540  146.2490 N   0  0  0  0  0  2  0  0  0  0  0  0
  187.3500  177.8850  143.7420 C   0  0  0  0  0  0  0  0  0  0  0  0
  189.6480  177.1390  143.8790 O   0  0  0  0  0  0  0  0  0  0  0  0
  188.8510  177.5700  140.3510 O   0  0  0  0  0  1  0  0  0  0  0  0
  184.9400  177.8090  141.5030 C   0  0  1  0  0  3  0  0  0  0  0  0
  188.6800  177.0710  141.6460 C   0  0  1  0  0  3  0  0  0  0  0  0
  184.2630  177.9440  142.8700 C   0  0  2  0  0  3  0  0  0  0  0  0
  184.1870  179.2350  145.0570 C   0  0  0  0  0  0  0  0  0  0  0  0
  189.8860  177.4470  142.5090 C   0  0  2  0  0  3  0  0  0  0  0  0
  187.3440  177.5340  142.2650 C   0  0  2  0  0  3  0  0  0  0  0  0
  189.4060  177.3180  148.1560 C   0  0  0  0  0  3  0  0  0  0  0  0
  182.9190  178.3240  142.6630 O   0  0  0  0  0  0  0  0  0  0  0  0
  183.9930  178.4550  140.5520 C   0  0  0  0  0  2  0  0  0  0  0  0
  190.7090  176.7780  146.2230 O   0  0  0  0  0  1  0  0  0  0  0  0
  186.1510  178.4500  145.7740 C   0  0  0  0  0  0  0  0  0  0  0  0
  188.2290  177.7670  148.7550 C   0  0  0  0  0  3  0  0  0  0  0  0
  188.4200  177.6060  145.9460 C   0  0  0  0  0  0  0  0  0  0  0  0
  186.2090  178.3780  144.3960 C   0  0  0  0  0  0  0  0  0  0  0  0
  183.0360  179.7430  145.0780 O   0  0  0  0  0  0  0  0  0  0  0  0
  184.9580  178.9480  143.7990 C   0  0  1  0  0  3  0  0  0  0  0  0
  182.6810  178.3100  141.2760 C   0  0  0  0  0  2  0  0  0  0  0  0
  186.5780  179.8100  141.4030 C   0  0  0  0  0  1  0  0  0  0  0  0
  187.1430  178.1400  147.9660 C   0  0  0  0  0  3  0  0  0  0  0  0
  187.2270  178.0630  146.5710 C   0  0  0  0  0  0  0  0  0  0  0  0
  186.3910  178.2970  141.3400 C   0  0  2  0  0  3  0  0  0  0  0  0
  191.1640  176.7680  142.0280 C   0  0  0  0  0  2  0  0  0  0  0  0
  192.2890  177.2130  139.8660 C   0  0  0  0  0  1  0  0  0  0  0  0
  192.0660  177.7300  141.2710 C   0  0  0  0  0  2  0  0  0  0  0  0
  1 19  1  0  0  0  0
  2 13  1  0  0  0  0
  4 20  1  0  0  0  0
  4  1  2  0  0  0  0
  5  1  1  0  0  0  0
  7 15  1  6  0  0  0
  7  9  1  0  0  0  0
  8  6  1  6  0  0  0
  8 12  1  0  0  0  0
  8 11  1  0  0  0  0
  9 14  1  6  0  0  0
  9 22  1  0  0  0  0
 10 21  2  0  0  0  0
 10  3  1  0  0  0  0
 11 28  1  6  0  0  0
 11  5  1  0  0  0  0
 12  4  1  1  0  0  0
 13 18  2  0  0  0  0
 15 23  1  0  0  0  0
 16  2  1  0  0  0  0
 17  3  1  0  0  0  0
 17 26  1  0  0  0  0
 19 26  1  0  0  0  0
 19  2  2  0  0  0  0
 20 17  2  0  0  0  0
 22 20  1  1  0  0  0
 22 10  1  0  0  0  0
 23 14  1  0  0  0  0
 25 18  1  0  0  0  0
 26 25  2  0  0  0  0
 27 24  1  1  0  0  0
 27  7  1  0  0  0  0
 27 12  1  0  0  0  0
 29 30  1  0  0  0  0
 30 28  1  0  0  0  0
M  END
>  <MODEL>
9

>  <REMARK>
 VINA RESULT:      -8.0      1.943      5.660
  Name = 
  2 active torsions:
  status: ('A' for Active; 'I' for Inactive)
    1  A    between atoms: C_11  and  C_28
    2  A    between atoms: C_28  and  C_30
                            x       y       z     vdW  Elec       q    Type
                         _______ _______ _______ _____ _____    ______ ____

>  <TORSDO>
F 2

$$$$
