=
 OpenBabel11122411103D

 31 35  0  0  0  0  0  0  0  0999 V2000
  185.5690  178.5830  144.2160 C   0  0  0  0  0  0  0  0  0  0  0  0
  189.0950  177.2880  144.0680 C   0  0  0  0  0  0  0  0  0  0  0  0
  189.5600  177.2430  145.4120 C   0  0  0  0  0  0  0  0  0  0  0  0
  189.0770  176.8050  138.8260 O   0  0  0  0  0  0  0  0  0  0  0  0
  190.2030  176.4360  139.2570 C   0  0  0  0  0  0  0  0  0  0  0  0
  189.2400  177.5770  147.7420 C   0  0  0  0  0  0  0  0  0  0  0  0
  187.7930  177.7250  143.6920 C   0  0  0  0  0  0  0  0  0  0  0  0
  185.2360  178.5780  142.8620 C   0  0  0  0  0  3  0  0  0  0  0  0
  188.7830  177.6240  146.4630 N   0  0  0  0  0  0  0  0  0  0  0  0
  189.5760  176.8920  141.6980 C   0  0  0  0  0  0  0  0  0  0  0  0
  184.6420  179.0070  145.1570 O   0  0  0  0  0  1  0  0  0  0  0  0
  191.6840  176.4020  144.6620 N   0  0  0  0  0  0  0  0  0  0  0  0
  188.3970  177.9830  148.8120 N   0  0  0  0  0  1  0  0  0  0  0  0
  188.3260  177.3170  141.3810 N   0  0  0  0  0  0  0  0  0  0  0  0
  189.9840  176.8690  143.0410 C   0  0  0  0  0  0  0  0  0  0  0  0
  190.4800  176.4670  140.6650 N   0  0  0  0  0  2  0  0  0  0  0  0
  186.8360  178.1600  144.6260 C   0  0  0  0  0  3  0  0  0  0  0  0
  190.5010  177.1430  147.9990 N   0  0  0  0  0  0  0  0  0  0  0  0
  187.4380  177.7270  142.3200 C   0  0  0  0  0  0  0  0  0  0  0  0
  186.1690  178.1500  141.9160 C   0  0  0  0  0  3  0  0  0  0  0  0
  191.2720  176.4310  143.3720 C   0  0  0  0  0  3  0  0  0  0  0  0
  190.8710  176.7920  145.6740 C   0  0  0  0  0  0  0  0  0  0  0  0
  191.3210  176.7510  146.9900 C   0  0  0  0  0  3  0  0  0  0  0  0
  193.2970  175.1590  136.5670 C   0  0  0  0  0  0  0  0  0  0  0  0
  192.4420  176.7030  138.2180 C   0  0  0  0  0  3  0  0  0  0  0  0
  189.9380  174.0420  137.5780 O   0  0  0  0  0  1  0  0  0  0  0  0
  194.2830  174.7700  135.7230 F   0  0  0  0  0  0  0  0  0  0  0  0
  193.4590  176.3020  137.3490 C   0  0  0  0  0  3  0  0  0  0  0  0
  191.0940  174.8110  137.5210 C   0  0  0  0  0  0  0  0  0  0  0  0
  191.2500  175.9680  138.3190 C   0  0  0  0  0  0  0  0  0  0  0  0
  192.1180  174.4170  136.6540 C   0  0  0  0  0  3  0  0  0  0  0  0
  1 17  1  0  0  0  0
  1 11  1  0  0  0  0
  2  3  1  0  0  0  0
  3 22  2  0  0  0  0
  3  9  1  0  0  0  0
  4  5  2  0  0  0  0
  5 16  1  0  0  0  0
  6 18  1  0  0  0  0
  6 13  1  0  0  0  0
  7  2  1  0  0  0  0
  7 17  2  0  0  0  0
  8  1  2  0  0  0  0
  9  6  2  0  0  0  0
 10 15  1  0  0  0  0
 12 22  1  0  0  0  0
 14 10  2  0  0  0  0
 14 19  1  0  0  0  0
 15 21  1  0  0  0  0
 15  2  2  0  0  0  0
 16 10  1  0  0  0  0
 19  7  1  0  0  0  0
 20 19  2  0  0  0  0
 20  8  1  0  0  0  0
 21 12  2  0  0  0  0
 22 23  1  0  0  0  0
 23 18  2  0  0  0  0
 24 31  2  0  0  0  0
 24 28  1  0  0  0  0
 25 30  1  0  0  0  0
 27 24  1  0  0  0  0
 28 25  2  0  0  0  0
 29 26  1  0  0  0  0
 29 30  2  0  0  0  0
 30  5  1  0  0  0  0
 31 29  1  0  0  0  0
M  END
>  <MODEL>
1

>  <REMARK>
 VINA RESULT:     -10.7      0.000      0.000
  Name = 
  1 active torsions:
  status: ('A' for Active; 'I' for Inactive)
    1  A    between atoms: C_5  and  C_30
                            x       y       z     vdW  Elec       q    Type
                         _______ _______ _______ _____ _____    ______ ____

>  <TORSDO>
F 1

$$$$
=
 OpenBabel11122411103D

 31 35  0  0  0  0  0  0  0  0999 V2000
  184.7790  178.7120  144.7840 C   0  0  0  0  0  0  0  0  0  0  0  0
  188.3090  177.5850  144.1500 C   0  0  0  0  0  0  0  0  0  0  0  0
  188.9210  177.4520  145.4280 C   0  0  0  0  0  0  0  0  0  0  0  0
  187.7300  177.5300  138.9180 O   0  0  0  0  0  0  0  0  0  0  0  0
  188.9080  177.1760  139.1930 C   0  0  0  0  0  0  0  0  0  0  0  0
  188.8480  177.5810  147.7990 C   0  0  0  0  0  0  0  0  0  0  0  0
  186.9600  177.9960  143.9540 C   0  0  0  0  0  0  0  0  0  0  0  0
  184.2990  178.8030  143.4780 C   0  0  0  0  0  3  0  0  0  0  0  0
  188.2510  177.7120  146.5850 N   0  0  0  0  0  0  0  0  0  0  0  0
  188.5390  177.4050  141.7170 C   0  0  0  0  0  0  0  0  0  0  0  0
  183.9470  179.0180  145.8520 O   0  0  0  0  0  1  0  0  0  0  0  0
  190.9760  176.7660  144.3860 N   0  0  0  0  0  0  0  0  0  0  0  0
  188.1150  177.8620  148.9840 N   0  0  0  0  0  1  0  0  0  0  0  0
  187.2480  177.8000  141.5730 N   0  0  0  0  0  0  0  0  0  0  0  0
  189.0930  177.2900  143.0020 C   0  0  0  0  0  0  0  0  0  0  0  0
  189.3380  177.1040  140.5610 N   0  0  0  0  0  2  0  0  0  0  0  0
  186.0970  178.3120  145.0180 C   0  0  0  0  0  3  0  0  0  0  0  0
  190.1430  177.1820  147.8810 N   0  0  0  0  0  0  0  0  0  0  0  0
  186.4560  178.0940  142.6330 C   0  0  0  0  0  0  0  0  0  0  0  0
  185.1360  178.4940  142.4050 C   0  0  0  0  0  3  0  0  0  0  0  0
  190.4230  176.8830  143.1540 C   0  0  0  0  0  3  0  0  0  0  0  0
  190.2670  177.0370  145.5080 C   0  0  0  0  0  0  0  0  0  0  0  0
  190.8600  176.9090  146.7610 C   0  0  0  0  0  3  0  0  0  0  0  0
  191.7460  176.1760  136.1290 C   0  0  0  0  0  0  0  0  0  0  0  0
  191.2160  176.6560  138.4380 C   0  0  0  0  0  3  0  0  0  0  0  0
  188.1330  176.8330  136.3820 O   0  0  0  0  0  1  0  0  0  0  0  0
  192.6540  175.8600  135.1740 F   0  0  0  0  0  0  0  0  0  0  0  0
  192.1520  176.3310  137.4540 C   0  0  0  0  0  3  0  0  0  0  0  0
  189.4590  176.6730  136.7660 C   0  0  0  0  0  0  0  0  0  0  0  0
  189.8610  176.8310  138.1120 C   0  0  0  0  0  0  0  0  0  0  0  0
  190.4030  176.3470  135.7870 C   0  0  0  0  0  3  0  0  0  0  0  0
  1 17  1  0  0  0  0
  1 11  1  0  0  0  0
  2  3  1  0  0  0  0
  3 22  2  0  0  0  0
  3  9  1  0  0  0  0
  4  5  2  0  0  0  0
  5 16  1  0  0  0  0
  6 18  1  0  0  0  0
  6 13  1  0  0  0  0
  7  2  1  0  0  0  0
  7 17  2  0  0  0  0
  8  1  2  0  0  0  0
  9  6  2  0  0  0  0
 10 15  1  0  0  0  0
 12 22  1  0  0  0  0
 14 10  2  0  0  0  0
 14 19  1  0  0  0  0
 15 21  1  0  0  0  0
 15  2  2  0  0  0  0
 16 10  1  0  0  0  0
 19  7  1  0  0  0  0
 20 19  2  0  0  0  0
 20  8  1  0  0  0  0
 21 12  2  0  0  0  0
 22 23  1  0  0  0  0
 23 18  2  0  0  0  0
 24 28  1  0  0  0  0
 26 29  1  0  0  0  0
 27 24  1  0  0  0  0
 28 25  2  0  0  0  0
 29 30  2  0  0  0  0
 30 25  1  0  0  0  0
 30  5  1  0  0  0  0
 31 24  2  0  0  0  0
 31 29  1  0  0  0  0
M  END
>  <MODEL>
2

>  <REMARK>
 VINA RESULT:     -10.7      1.245      1.416
  Name = 
  1 active torsions:
  status: ('A' for Active; 'I' for Inactive)
    1  A    between atoms: C_5  and  C_30
                            x       y       z     vdW  Elec       q    Type
                         _______ _______ _______ _____ _____    ______ ____

>  <TORSDO>
F 1

$$$$
=
 OpenBabel11122411103D

 31 35  0  0  0  0  0  0  0  0999 V2000
  187.1710  178.1520  147.7620 C   0  0  0  0  0  0  0  0  0  0  0  0
  187.7700  177.6100  144.0910 C   0  0  0  0  0  0  0  0  0  0  0  0
  189.1290  177.2090  143.9630 C   0  0  0  0  0  0  0  0  0  0  0  0
  182.8440  178.8800  142.7350 O   0  0  0  0  0  0  0  0  0  0  0  0
  183.4850  178.5910  141.6880 C   0  0  0  0  0  0  0  0  0  0  0  0
  191.2500  176.6980  144.9030 C   0  0  0  0  0  0  0  0  0  0  0  0
  187.1440  177.9140  145.3330 C   0  0  0  0  0  0  0  0  0  0  0  0
  185.8300  178.5340  147.7500 C   0  0  0  0  0  3  0  0  0  0  0  0
  189.9540  177.0820  145.0400 N   0  0  0  0  0  0  0  0  0  0  0  0
  185.6450  178.1050  142.9740 C   0  0  0  0  0  0  0  0  0  0  0  0
  187.8610  178.0760  148.9640 O   0  0  0  0  0  1  0  0  0  0  0  0
  188.8700  177.0420  141.5790 N   0  0  0  0  0  0  0  0  0  0  0  0
  192.0790  176.5770  146.0530 N   0  0  0  0  0  1  0  0  0  0  0  0
  185.0870  178.3860  144.1790 N   0  0  0  0  0  0  0  0  0  0  0  0
  186.9920  177.7130  142.9060 C   0  0  0  0  0  0  0  0  0  0  0  0
  184.8650  178.2060  141.7720 N   0  0  0  0  0  2  0  0  0  0  0  0
  187.8210  177.8450  146.5640 C   0  0  0  0  0  3  0  0  0  0  0  0
  191.7550  176.4290  143.6720 N   0  0  0  0  0  0  0  0  0  0  0  0
  185.7820  178.3040  145.3390 C   0  0  0  0  0  0  0  0  0  0  0  0
  185.1380  178.6100  146.5410 C   0  0  0  0  0  3  0  0  0  0  0  0
  187.5720  177.4220  141.6650 C   0  0  0  0  0  3  0  0  0  0  0  0
  189.6490  176.9310  142.6820 C   0  0  0  0  0  0  0  0  0  0  0  0
  190.9800  176.5390  142.5630 C   0  0  0  0  0  3  0  0  0  0  0  0
  181.4950  178.6890  137.8840 C   0  0  0  0  0  0  0  0  0  0  0  0
  181.6350  177.9240  140.1730 C   0  0  0  0  0  3  0  0  0  0  0  0
  184.5160  180.1340  139.4130 O   0  0  0  0  0  1  0  0  0  0  0  0
  180.8550  178.7090  136.6900 F   0  0  0  0  0  0  0  0  0  0  0  0
  180.9750  177.9440  138.9430 C   0  0  0  0  0  3  0  0  0  0  0  0
  183.3440  179.3980  139.2840 C   0  0  0  0  0  0  0  0  0  0  0  0
  182.8230  178.6460  140.3640 C   0  0  0  0  0  0  0  0  0  0  0  0
  182.6760  179.4130  138.0560 C   0  0  0  0  0  3  0  0  0  0  0  0
  1 11  1  0  0  0  0
  2  7  1  0  0  0  0
  3  2  1  0  0  0  0
  3  9  1  0  0  0  0
  5 16  1  0  0  0  0
  5  4  2  0  0  0  0
  6  9  2  0  0  0  0
  6 13  1  0  0  0  0
  7 19  2  0  0  0  0
  7 17  1  0  0  0  0
  8  1  1  0  0  0  0
 10 14  2  0  0  0  0
 12 21  2  0  0  0  0
 12 22  1  0  0  0  0
 14 19  1  0  0  0  0
 15 10  1  0  0  0  0
 15  2  2  0  0  0  0
 16 10  1  0  0  0  0
 17  1  2  0  0  0  0
 18  6  1  0  0  0  0
 19 20  1  0  0  0  0
 20  8  2  0  0  0  0
 21 15  1  0  0  0  0
 22  3  2  0  0  0  0
 23 22  1  0  0  0  0
 23 18  2  0  0  0  0
 24 31  2  0  0  0  0
 24 28  1  0  0  0  0
 25 30  1  0  0  0  0
 27 24  1  0  0  0  0
 28 25  2  0  0  0  0
 29 26  1  0  0  0  0
 29 30  2  0  0  0  0
 30  5  1  0  0  0  0
 31 29  1  0  0  0  0
M  END
>  <MODEL>
3

>  <REMARK>
 VINA RESULT:     -10.5      4.231      6.773
  Name = 
  1 active torsions:
  status: ('A' for Active; 'I' for Inactive)
    1  A    between atoms: C_5  and  C_30
                            x       y       z     vdW  Elec       q    Type
                         _______ _______ _______ _____ _____    ______ ____

>  <TORSDO>
F 1

$$$$
=
 OpenBabel11122411103D

 31 35  0  0  0  0  0  0  0  0999 V2000
  190.4600  177.3640  141.8810 C   0  0  0  0  0  0  0  0  0  0  0  0
  187.0310  178.1650  143.1970 C   0  0  0  0  0  0  0  0  0  0  0  0
  187.0930  177.9870  144.6070 C   0  0  0  0  0  0  0  0  0  0  0  0
  185.0670  179.2520  138.4350 O   0  0  0  0  0  0  0  0  0  0  0  0
  184.1530  179.4080  139.2890 C   0  0  0  0  0  0  0  0  0  0  0  0
  188.2790  177.4320  146.5890 C   0  0  0  0  0  0  0  0  0  0  0  0
  188.1330  177.9590  142.3200 C   0  0  0  0  0  0  0  0  0  0  0  0
  190.2670  177.5720  140.5160 C   0  0  0  0  0  3  0  0  0  0  0  0
  188.2340  177.5980  145.2410 N   0  0  0  0  0  0  0  0  0  0  0  0
  185.6750  178.7620  141.2440 C   0  0  0  0  0  0  0  0  0  0  0  0
  191.7020  176.9660  142.3530 O   0  0  0  0  0  1  0  0  0  0  0  0
  184.7780  178.6070  144.8010 N   0  0  0  0  0  0  0  0  0  0  0  0
  189.4910  177.0250  147.2130 N   0  0  0  0  0  1  0  0  0  0  0  0
  186.7510  178.5560  140.4440 N   0  0  0  0  0  0  0  0  0  0  0  0
  185.7920  178.5720  142.6310 C   0  0  0  0  0  0  0  0  0  0  0  0
  184.4190  179.1750  140.6800 N   0  0  0  0  0  2  0  0  0  0  0  0
  189.4020  177.5560  142.7730 C   0  0  0  0  0  3  0  0  0  0  0  0
  187.1710  177.6540  147.3400 N   0  0  0  0  0  0  0  0  0  0  0  0
  187.9550  178.1660  140.9300 C   0  0  0  0  0  0  0  0  0  0  0  0
  189.0160  177.9730  140.0420 C   0  0  0  0  0  3  0  0  0  0  0  0
  184.6850  178.7850  143.4600 C   0  0  0  0  0  3  0  0  0  0  0  0
  185.9380  178.2190  145.3830 C   0  0  0  0  0  0  0  0  0  0  0  0
  186.0050  178.0430  146.7630 C   0  0  0  0  0  3  0  0  0  0  0  0
  180.2530  180.7340  138.0720 C   0  0  0  0  0  0  0  0  0  0  0  0
  182.5490  181.1990  138.6710 C   0  0  0  0  0  3  0  0  0  0  0  0
  181.9270  177.5460  138.8420 O   0  0  0  0  0  1  0  0  0  0  0  0
  179.0290  181.1680  137.6880 F   0  0  0  0  0  0  0  0  0  0  0  0
  181.2870  181.6480  138.2750 C   0  0  0  0  0  3  0  0  0  0  0  0
  181.7420  178.9120  138.6620 C   0  0  0  0  0  0  0  0  0  0  0  0
  182.7960  179.8320  138.8690 C   0  0  0  0  0  0  0  0  0  0  0  0
  180.4820  179.3700  138.2650 C   0  0  0  0  0  3  0  0  0  0  0  0
  1 11  1  0  0  0  0
  1 17  1  0  0  0  0
  2  3  1  0  0  0  0
  3  9  1  0  0  0  0
  3 22  2  0  0  0  0
  4  5  2  0  0  0  0
  5 16  1  0  0  0  0
  6 13  1  0  0  0  0
  6 18  1  0  0  0  0
  7 17  2  0  0  0  0
  7  2  1  0  0  0  0
  8  1  2  0  0  0  0
  9  6  2  0  0  0  0
 10 15  1  0  0  0  0
 12 22  1  0  0  0  0
 14 19  1  0  0  0  0
 14 10  2  0  0  0  0
 15  2  2  0  0  0  0
 15 21  1  0  0  0  0
 16 10  1  0  0  0  0
 19  7  1  0  0  0  0
 20  8  1  0  0  0  0
 20 19  2  0  0  0  0
 21 12  2  0  0  0  0
 22 23  1  0  0  0  0
 23 18  2  0  0  0  0
 24 31  2  0  0  0  0
 24 28  1  0  0  0  0
 25 30  1  0  0  0  0
 27 24  1  0  0  0  0
 28 25  2  0  0  0  0
 29 26  1  0  0  0  0
 29 30  2  0  0  0  0
 30  5  1  0  0  0  0
 31 29  1  0  0  0  0
M  END
>  <MODEL>
4

>  <REMARK>
 VINA RESULT:     -10.0      4.694      7.424
  Name = 
  1 active torsions:
  status: ('A' for Active; 'I' for Inactive)
    1  A    between atoms: C_5  and  C_30
                            x       y       z     vdW  Elec       q    Type
                         _______ _______ _______ _____ _____    ______ ____

>  <TORSDO>
F 1

$$$$
=
 OpenBabel11122411103D

 31 35  0  0  0  0  0  0  0  0999 V2000
  191.5380  176.4410  146.0200 C   0  0  0  0  0  0  0  0  0  0  0  0
  188.3000  177.5920  144.4950 C   0  0  0  0  0  0  0  0  0  0  0  0
  187.4560  177.9590  145.5810 C   0  0  0  0  0  0  0  0  0  0  0  0
  189.9180  176.7620  139.5550 O   0  0  0  0  0  0  0  0  0  0  0  0
  188.7370  177.2050  139.5200 C   0  0  0  0  0  0  0  0  0  0  0  0
  187.0430  178.2190  147.9050 C   0  0  0  0  0  0  0  0  0  0  0  0
  189.6270  177.1000  144.6510 C   0  0  0  0  0  0  0  0  0  0  0  0
  192.2610  176.1170  144.8730 C   0  0  0  0  0  3  0  0  0  0  0  0
  187.8590  177.8650  146.8790 N   0  0  0  0  0  0  0  0  0  0  0  0
  188.5760  177.3790  142.0700 C   0  0  0  0  0  0  0  0  0  0  0  0
  192.1140  176.2810  147.2720 O   0  0  0  0  0  1  0  0  0  0  0  0
  185.7080  178.5480  144.0390 N   0  0  0  0  0  0  0  0  0  0  0  0
  187.5010  178.1070  149.2470 N   0  0  0  0  0  1  0  0  0  0  0  0
  189.8370  176.9130  142.2620 N   0  0  0  0  0  0  0  0  0  0  0  0
  187.7860  177.7260  143.1770 C   0  0  0  0  0  0  0  0  0  0  0  0
  188.0490  177.5180  140.7400 N   0  0  0  0  0  2  0  0  0  0  0  0
  190.2330  176.9280  145.9090 C   0  0  0  0  0  3  0  0  0  0  0  0
  185.7910  178.6790  147.6530 N   0  0  0  0  0  0  0  0  0  0  0  0
  190.3760  176.7650  143.4960 C   0  0  0  0  0  0  0  0  0  0  0  0
  191.6810  176.2790  143.6140 C   0  0  0  0  0  3  0  0  0  0  0  0
  186.4860  178.2080  142.9830 C   0  0  0  0  0  3  0  0  0  0  0  0
  186.1560  178.4370  145.3130 C   0  0  0  0  0  0  0  0  0  0  0  0
  185.3350  178.7930  146.3790 C   0  0  0  0  0  3  0  0  0  0  0  0
  186.6960  177.6960  135.7730 C   0  0  0  0  0  0  0  0  0  0  0  0
  187.1920  176.3980  137.7510 C   0  0  0  0  0  3  0  0  0  0  0  0
  189.0560  179.6050  137.8580 O   0  0  0  0  0  1  0  0  0  0  0  0
  186.0460  177.8350  134.5940 F   0  0  0  0  0  0  0  0  0  0  0  0
  186.5210  176.5410  136.5360 C   0  0  0  0  0  3  0  0  0  0  0  0
  188.2220  178.5730  137.4430 C   0  0  0  0  0  0  0  0  0  0  0  0
  188.0490  177.4060  138.2230 C   0  0  0  0  0  0  0  0  0  0  0  0
  187.5450  178.7080  136.2270 C   0  0  0  0  0  3  0  0  0  0  0  0
  1 11  1  0  0  0  0
  2  7  1  0  0  0  0
  2  3  1  0  0  0  0
  3  9  1  0  0  0  0
  5  4  2  0  0  0  0
  5 16  1  0  0  0  0
  6 13  1  0  0  0  0
  7 17  2  0  0  0  0
  8  1  2  0  0  0  0
  9  6  2  0  0  0  0
 10 14  2  0  0  0  0
 10 15  1  0  0  0  0
 12 22  1  0  0  0  0
 14 19  1  0  0  0  0
 15  2  2  0  0  0  0
 16 10  1  0  0  0  0
 17  1  1  0  0  0  0
 18  6  1  0  0  0  0
 19 20  2  0  0  0  0
 19  7  1  0  0  0  0
 20  8  1  0  0  0  0
 21 15  1  0  0  0  0
 21 12  2  0  0  0  0
 22  3  2  0  0  0  0
 22 23  1  0  0  0  0
 23 18  2  0  0  0  0
 24 31  2  0  0  0  0
 24 28  1  0  0  0  0
 25 30  1  0  0  0  0
 27 24  1  0  0  0  0
 28 25  2  0  0  0  0
 29 26  1  0  0  0  0
 29 30  2  0  0  0  0
 30  5  1  0  0  0  0
 31 29  1  0  0  0  0
M  END
>  <MODEL>
5

>  <REMARK>
 VINA RESULT:      -9.6      3.250      4.890
  Name = 
  1 active torsions:
  status: ('A' for Active; 'I' for Inactive)
    1  A    between atoms: C_5  and  C_30
                            x       y       z     vdW  Elec       q    Type
                         _______ _______ _______ _____ _____    ______ ____

>  <TORSDO>
F 1

$$$$
=
 OpenBabel11122411103D

 31 35  0  0  0  0  0  0  0  0999 V2000
  183.7800  179.1340  139.3320 C   0  0  0  0  0  0  0  0  0  0  0  0
  187.3820  178.1040  139.6520 C   0  0  0  0  0  0  0  0  0  0  0  0
  187.8870  178.0040  138.3260 C   0  0  0  0  0  0  0  0  0  0  0  0
  187.2490  177.9760  144.9130 O   0  0  0  0  0  0  0  0  0  0  0  0
  188.4090  177.6590  144.5350 C   0  0  0  0  0  0  0  0  0  0  0  0
  187.6110  178.1560  135.9720 C   0  0  0  0  0  0  0  0  0  0  0  0
  186.0430  178.4740  139.9670 C   0  0  0  0  0  0  0  0  0  0  0  0
  183.4100  179.1960  140.6750 C   0  0  0  0  0  3  0  0  0  0  0  0
  187.1150  178.2570  137.2330 N   0  0  0  0  0  0  0  0  0  0  0  0
  187.8210  177.9030  142.0550 C   0  0  0  0  0  0  0  0  0  0  0  0
  182.8540  179.4280  138.3420 O   0  0  0  0  0  1  0  0  0  0  0  0
  190.0420  177.3660  139.1820 N   0  0  0  0  0  0  0  0  0  0  0  0
  186.7730  178.4290  134.8560 N   0  0  0  0  0  1  0  0  0  0  0  0
  186.5370  178.2590  142.3120 N   0  0  0  0  0  0  0  0  0  0  0  0
  188.2670  177.8190  140.7260 C   0  0  0  0  0  0  0  0  0  0  0  0
  188.7230  177.6140  143.1350 N   0  0  0  0  0  2  0  0  0  0  0  0
  185.0850  178.7760  138.9830 C   0  0  0  0  0  3  0  0  0  0  0  0
  188.9050  177.7960  135.7750 N   0  0  0  0  0  0  0  0  0  0  0  0
  185.6500  178.5410  141.3260 C   0  0  0  0  0  0  0  0  0  0  0  0
  184.3440  178.9000  141.6700 C   0  0  0  0  0  3  0  0  0  0  0  0
  189.5920  177.4530  140.4570 C   0  0  0  0  0  3  0  0  0  0  0  0
  189.2330  177.6290  138.1270 C   0  0  0  0  0  0  0  0  0  0  0  0
  189.7210  177.5310  136.8270 C   0  0  0  0  0  3  0  0  0  0  0  0
  191.5140  176.6770  147.3350 C   0  0  0  0  0  0  0  0  0  0  0  0
  190.6860  176.8240  145.0690 C   0  0  0  0  0  3  0  0  0  0  0  0
  188.0820  178.0040  147.4330 O   0  0  0  0  0  1  0  0  0  0  0  0
  192.5040  176.3620  148.2040 F   0  0  0  0  0  0  0  0  0  0  0  0
  191.7070  176.4990  145.9650 C   0  0  0  0  0  3  0  0  0  0  0  0
  189.2730  177.5060  146.9180 C   0  0  0  0  0  0  0  0  0  0  0  0
  189.4600  177.3300  145.5270 C   0  0  0  0  0  0  0  0  0  0  0  0
  190.3010  177.1790  147.8080 C   0  0  0  0  0  3  0  0  0  0  0  0
  1  8  1  0  0  0  0
  2  7  1  0  0  0  0
  2 15  1  0  0  0  0
  3  2  2  0  0  0  0
  5  4  2  0  0  0  0
  5 30  1  0  0  0  0
  6  9  2  0  0  0  0
  7 19  2  0  0  0  0
  8 20  2  0  0  0  0
  9  3  1  0  0  0  0
 10 14  2  0  0  0  0
 10 16  1  0  0  0  0
 11  1  1  0  0  0  0
 12 21  1  0  0  0  0
 13  6  1  0  0  0  0
 15 10  1  0  0  0  0
 16  5  1  0  0  0  0
 17  1  2  0  0  0  0
 17  7  1  0  0  0  0
 18  6  1  0  0  0  0
 18 23  2  0  0  0  0
 19 20  1  0  0  0  0
 19 14  1  0  0  0  0
 21 15  2  0  0  0  0
 22  3  1  0  0  0  0
 22 12  2  0  0  0  0
 23 22  1  0  0  0  0
 24 31  1  0  0  0  0
 24 27  1  0  0  0  0
 25 30  2  0  0  0  0
 25 28  1  0  0  0  0
 28 24  2  0  0  0  0
 29 26  1  0  0  0  0
 29 31  2  0  0  0  0
 30 29  1  0  0  0  0
M  END
>  <MODEL>
6

>  <REMARK>
 VINA RESULT:      -9.5      3.950      7.906
  Name = 
  1 active torsions:
  status: ('A' for Active; 'I' for Inactive)
    1  A    between atoms: C_5  and  C_30
                            x       y       z     vdW  Elec       q    Type
                         _______ _______ _______ _____ _____    ______ ____

>  <TORSDO>
F 1

$$$$
=
 OpenBabel11122411103D

 31 35  0  0  0  0  0  0  0  0999 V2000
  191.4430  177.2520  141.5800 C   0  0  0  0  0  0  0  0  0  0  0  0
  188.4510  177.6200  143.8260 C   0  0  0  0  0  0  0  0  0  0  0  0
  188.9210  177.4140  145.1540 C   0  0  0  0  0  0  0  0  0  0  0  0
  185.1400  178.6000  139.8520 O   0  0  0  0  0  0  0  0  0  0  0  0
  184.4890  178.6280  140.9310 C   0  0  0  0  0  0  0  0  0  0  0  0
  190.6620  176.9470  146.7010 C   0  0  0  0  0  0  0  0  0  0  0  0
  189.2820  177.5650  142.6720 C   0  0  0  0  0  0  0  0  0  0  0  0
  190.8580  177.4730  140.3340 C   0  0  0  0  0  3  0  0  0  0  0  0
  190.2270  177.1420  145.4280 N   0  0  0  0  0  0  0  0  0  0  0  0
  186.5530  178.1100  142.3560 C   0  0  0  0  0  0  0  0  0  0  0  0
  192.8020  176.9870  141.6720 O   0  0  0  0  0  1  0  0  0  0  0  0
  186.7000  177.7600  146.0070 N   0  0  0  0  0  0  0  0  0  0  0  0
  192.0340  176.6650  146.9460 N   0  0  0  0  0  1  0  0  0  0  0  0
  187.3790  178.0490  141.2810 N   0  0  0  0  0  0  0  0  0  0  0  0
  187.0690  177.8980  143.6440 C   0  0  0  0  0  0  0  0  0  0  0  0
  185.1540  178.3910  142.1810 N   0  0  0  0  0  2  0  0  0  0  0  0
  190.6610  177.2980  142.7370 C   0  0  0  0  0  3  0  0  0  0  0  0
  189.7890  177.0210  147.7380 N   0  0  0  0  0  0  0  0  0  0  0  0
  188.7040  177.7870  141.3970 C   0  0  0  0  0  0  0  0  0  0  0  0
  189.4910  177.7400  140.2430 C   0  0  0  0  0  3  0  0  0  0  0  0
  186.2200  177.9610  144.7560 C   0  0  0  0  0  3  0  0  0  0  0  0
  188.0100  177.4910  146.2280 C   0  0  0  0  0  0  0  0  0  0  0  0
  188.4750  177.2880  147.5240 C   0  0  0  0  0  3  0  0  0  0  0  0
  180.2640  179.3960  141.0030 C   0  0  0  0  0  0  0  0  0  0  0  0
  182.2860  178.6180  142.0760 C   0  0  0  0  0  3  0  0  0  0  0  0
  183.0550  179.7510  138.6280 O   0  0  0  0  0  1  0  0  0  0  0  0
  178.9310  179.6320  141.0420 F   0  0  0  0  0  0  0  0  0  0  0  0
  180.9110  178.8610  142.1170 C   0  0  0  0  0  3  0  0  0  0  0  0
  182.3690  179.4460  139.7980 C   0  0  0  0  0  0  0  0  0  0  0  0
  183.0330  178.9050  140.9230 C   0  0  0  0  0  0  0  0  0  0  0  0
  180.9920  179.6870  139.8470 C   0  0  0  0  0  3  0  0  0  0  0  0
  1 11  1  0  0  0  0
  1 17  1  0  0  0  0
  2  3  1  0  0  0  0
  3  9  1  0  0  0  0
  3 22  2  0  0  0  0
  4  5  2  0  0  0  0
  5 16  1  0  0  0  0
  6 13  1  0  0  0  0
  6 18  1  0  0  0  0
  7 17  2  0  0  0  0
  7  2  1  0  0  0  0
  8  1  2  0  0  0  0
  9  6  2  0  0  0  0
 10 15  1  0  0  0  0
 12 22  1  0  0  0  0
 14 19  1  0  0  0  0
 14 10  2  0  0  0  0
 15  2  2  0  0  0  0
 15 21  1  0  0  0  0
 16 10  1  0  0  0  0
 19  7  1  0  0  0  0
 20  8  1  0  0  0  0
 20 19  2  0  0  0  0
 21 12  2  0  0  0  0
 22 23  1  0  0  0  0
 23 18  2  0  0  0  0
 24 27  1  0  0  0  0
 24 28  1  0  0  0  0
 25 28  2  0  0  0  0
 26 29  1  0  0  0  0
 29 31  1  0  0  0  0
 29 30  2  0  0  0  0
 30  5  1  0  0  0  0
 30 25  1  0  0  0  0
 31 24  2  0  0  0  0
M  END
>  <MODEL>
7

>  <REMARK>
 VINA RESULT:      -9.5      4.158      7.308
  Name = 
  1 active torsions:
  status: ('A' for Active; 'I' for Inactive)
    1  A    between atoms: C_5  and  C_30
                            x       y       z     vdW  Elec       q    Type
                         _______ _______ _______ _____ _____    ______ ____

>  <TORSDO>
F 1

$$$$
=
 OpenBabel11122411103D

 31 35  0  0  0  0  0  0  0  0999 V2000
  186.7000  177.9500  146.2900 C   0  0  0  0  0  0  0  0  0  0  0  0
  187.3140  178.0500  142.5830 C   0  0  0  0  0  0  0  0  0  0  0  0
  188.6930  177.7500  142.3990 C   0  0  0  0  0  0  0  0  0  0  0  0
  182.3210  179.2530  141.4270 O   0  0  0  0  0  0  0  0  0  0  0  0
  182.9730  179.1750  140.3500 C   0  0  0  0  0  0  0  0  0  0  0  0
  190.8420  177.2090  143.2540 C   0  0  0  0  0  0  0  0  0  0  0  0
  186.6770  178.1120  143.8550 C   0  0  0  0  0  0  0  0  0  0  0  0
  185.3400  178.2540  146.3340 C   0  0  0  0  0  3  0  0  0  0  0  0
  189.5270  177.4940  143.4440 N   0  0  0  0  0  0  0  0  0  0  0  0
  185.1610  178.6040  141.5510 C   0  0  0  0  0  0  0  0  0  0  0  0
  187.3970  177.7150  147.4670 O   0  0  0  0  0  1  0  0  0  0  0  0
  188.4340  177.9620  140.0180 N   0  0  0  0  0  0  0  0  0  0  0  0
  191.6800  176.9470  144.3720 N   0  0  0  0  0  1  0  0  0  0  0  0
  184.5930  178.6520  142.7820 N   0  0  0  0  0  0  0  0  0  0  0  0
  186.5270  178.3030  141.4270 C   0  0  0  0  0  0  0  0  0  0  0  0
  184.3720  178.8580  140.3770 N   0  0  0  0  0  2  0  0  0  0  0  0
  187.3610  177.8790  145.0620 C   0  0  0  0  0  3  0  0  0  0  0  0
  191.3560  177.1730  141.9980 N   0  0  0  0  0  0  0  0  0  0  0  0
  185.2960  178.4200  143.9170 C   0  0  0  0  0  0  0  0  0  0  0  0
  184.6400  178.4890  145.1490 C   0  0  0  0  0  3  0  0  0  0  0  0
  187.1180  178.2510  140.1580 C   0  0  0  0  0  3  0  0  0  0  0  0
  189.2230  177.7150  141.0920 C   0  0  0  0  0  0  0  0  0  0  0  0
  190.5720  177.4210  140.9180 C   0  0  0  0  0  3  0  0  0  0  0  0
  181.0210  179.9550  136.6050 C   0  0  0  0  0  0  0  0  0  0  0  0
  181.8120  180.6940  138.7660 C   0  0  0  0  0  3  0  0  0  0  0  0
  182.6090  177.1010  138.3040 O   0  0  0  0  0  1  0  0  0  0  0  0
  180.4030  180.2170  135.4290 F   0  0  0  0  0  0  0  0  0  0  0  0
  181.1750  180.9660  137.5540 C   0  0  0  0  0  3  0  0  0  0  0  0
  182.1430  178.3910  138.0820 C   0  0  0  0  0  0  0  0  0  0  0  0
  182.3050  179.4100  139.0490 C   0  0  0  0  0  0  0  0  0  0  0  0
  181.5040  178.6720  136.8710 C   0  0  0  0  0  3  0  0  0  0  0  0
  1  8  1  0  0  0  0
  1 11  1  0  0  0  0
  2  7  1  0  0  0  0
  3  2  1  0  0  0  0
  3  9  1  0  0  0  0
  5 16  1  0  0  0  0
  5  4  2  0  0  0  0
  6  9  2  0  0  0  0
  6 13  1  0  0  0  0
  7 19  2  0  0  0  0
  7 17  1  0  0  0  0
 10 14  2  0  0  0  0
 12 21  2  0  0  0  0
 12 22  1  0  0  0  0
 14 19  1  0  0  0  0
 15 10  1  0  0  0  0
 15  2  2  0  0  0  0
 16 10  1  0  0  0  0
 17  1  2  0  0  0  0
 18  6  1  0  0  0  0
 19 20  1  0  0  0  0
 20  8  2  0  0  0  0
 21 15  1  0  0  0  0
 22  3  2  0  0  0  0
 23 22  1  0  0  0  0
 23 18  2  0  0  0  0
 24 31  2  0  0  0  0
 24 28  1  0  0  0  0
 25 30  1  0  0  0  0
 27 24  1  0  0  0  0
 28 25  2  0  0  0  0
 29 26  1  0  0  0  0
 29 30  2  0  0  0  0
 30  5  1  0  0  0  0
 31 29  1  0  0  0  0
M  END
>  <MODEL>
8

>  <REMARK>
 VINA RESULT:      -9.5      4.487      7.178
  Name = 
  1 active torsions:
  status: ('A' for Active; 'I' for Inactive)
    1  A    between atoms: C_5  and  C_30
                            x       y       z     vdW  Elec       q    Type
                         _______ _______ _______ _____ _____    ______ ____

>  <TORSDO>
F 1

$$$$
=
 OpenBabel11122411103D

 31 35  0  0  0  0  0  0  0  0999 V2000
  182.7280  178.5080  138.3280 C   0  0  0  0  0  0  0  0  0  0  0  0
  186.2710  178.2840  139.5640 C   0  0  0  0  0  0  0  0  0  0  0  0
  187.0970  178.2530  138.4050 C   0  0  0  0  0  0  0  0  0  0  0  0
  184.8780  178.2920  144.6410 O   0  0  0  0  0  0  0  0  0  0  0  0
  186.1350  178.2200  144.5720 C   0  0  0  0  0  0  0  0  0  0  0  0
  187.3830  178.2690  136.0480 C   0  0  0  0  0  0  0  0  0  0  0  0
  184.8500  178.3670  139.5260 C   0  0  0  0  0  0  0  0  0  0  0  0
  182.0350  178.5310  139.5370 C   0  0  0  0  0  3  0  0  0  0  0  0
  186.5830  178.3000  137.1450 N   0  0  0  0  0  0  0  0  0  0  0  0
  186.1370  178.2560  142.0110 C   0  0  0  0  0  0  0  0  0  0  0  0
  182.0340  178.5660  137.1280 O   0  0  0  0  0  1  0  0  0  0  0  0
  189.0570  178.1180  139.7910 N   0  0  0  0  0  0  0  0  0  0  0  0
  186.8080  178.3220  134.7480 N   0  0  0  0  0  1  0  0  0  0  0  0
  184.7850  178.3360  141.9300 N   0  0  0  0  0  0  0  0  0  0  0  0
  186.9040  178.2280  140.8350 C   0  0  0  0  0  0  0  0  0  0  0  0
  186.7850  178.2000  143.2930 N   0  0  0  0  0  2  0  0  0  0  0  0
  184.1230  178.4270  138.3230 C   0  0  0  0  0  3  0  0  0  0  0  0
  188.7310  178.1890  136.1890 N   0  0  0  0  0  0  0  0  0  0  0  0
  184.1300  178.3910  140.7450 C   0  0  0  0  0  0  0  0  0  0  0  0
  182.7350  178.4730  140.7430 C   0  0  0  0  0  3  0  0  0  0  0  0
  188.3000  178.1460  140.9140 C   0  0  0  0  0  3  0  0  0  0  0  0
  188.4970  178.1690  138.5580 C   0  0  0  0  0  0  0  0  0  0  0  0
  189.2990  178.1380  137.4210 C   0  0  0  0  0  3  0  0  0  0  0  0
  188.5770  177.9790  148.0960 C   0  0  0  0  0  0  0  0  0  0  0  0
  188.1970  177.5070  145.7560 C   0  0  0  0  0  3  0  0  0  0  0  0
  185.3050  179.3730  147.1420 O   0  0  0  0  0  1  0  0  0  0  0  0
  189.3590  177.8940  149.1990 F   0  0  0  0  0  0  0  0  0  0  0  0
  189.0040  177.4190  146.8920 C   0  0  0  0  0  3  0  0  0  0  0  0
  186.5270  178.7190  147.0310 C   0  0  0  0  0  0  0  0  0  0  0  0
  186.9520  178.1550  145.8050 C   0  0  0  0  0  0  0  0  0  0  0  0
  187.3410  178.6260  148.1630 C   0  0  0  0  0  3  0  0  0  0  0  0
  1  8  1  0  0  0  0
  2 15  1  0  0  0  0
  3 22  1  0  0  0  0
  3  2  2  0  0  0  0
  5  4  2  0  0  0  0
  5 30  1  0  0  0  0
  6 18  1  0  0  0  0
  6  9  2  0  0  0  0
  7  2  1  0  0  0  0
  7 19  2  0  0  0  0
  8 20  2  0  0  0  0
  9  3  1  0  0  0  0
 10 16  1  0  0  0  0
 11  1  1  0  0  0  0
 12 21  1  0  0  0  0
 13  6  1  0  0  0  0
 14 10  2  0  0  0  0
 15 21  2  0  0  0  0
 15 10  1  0  0  0  0
 16  5  1  0  0  0  0
 17  1  2  0  0  0  0
 17  7  1  0  0  0  0
 18 23  2  0  0  0  0
 19 14  1  0  0  0  0
 20 19  1  0  0  0  0
 22 12  2  0  0  0  0
 23 22  1  0  0  0  0
 24 31  1  0  0  0  0
 24 27  1  0  0  0  0
 25 30  2  0  0  0  0
 25 28  1  0  0  0  0
 28 24  2  0  0  0  0
 29 26  1  0  0  0  0
 29 31  2  0  0  0  0
 30 29  1  0  0  0  0
M  END
>  <MODEL>
9

>  <REMARK>
 VINA RESULT:      -9.3      4.553      8.728
  Name = 
  1 active torsions:
  status: ('A' for Active; 'I' for Inactive)
    1  A    between atoms: C_5  and  C_30
                            x       y       z     vdW  Elec       q    Type
                         _______ _______ _______ _____ _____    ______ ____

>  <TORSDO>
F 1

$$$$
