=
 OpenBabel11122411173D

 31 35  0  0  1  0  0  0  0  0999 V2000
  190.0740  175.8730  142.8320 C   0  0  0  0  0  0  0  0  0  0  0  0
  186.6950  177.0640  144.1170 C   0  0  2  0  0  3  0  0  0  0  0  0
  186.9650  177.7700  145.4410 C   0  0  0  0  0  0  0  0  0  0  0  0
  188.3820  178.0840  147.3980 C   0  0  0  0  0  0  0  0  0  0  0  0
  187.9260  176.9300  143.2460 C   0  0  0  0  0  0  0  0  0  0  0  0
  190.2700  176.6940  141.7200 C   0  0  0  0  0  3  0  0  0  0  0  0
  188.1520  177.5120  146.1460 C   0  0  0  0  0  3  0  0  0  0  0  0
  185.9620  178.9700  142.6290 C   0  0  2  0  0  3  0  0  0  0  0  0
  191.0170  174.9650  143.1790 F   0  0  0  0  0  0  0  0  0  0  0  0
  184.6850  178.9140  145.3650 C   0  0  0  0  0  2  0  0  0  0  0  0
  189.5690  177.8300  148.0700 O   0  0  0  0  0  1  0  0  0  0  0  0
  187.0450  178.6630  141.5970 C   0  0  0  0  0  2  0  0  0  0  0  0
  185.5200  177.6810  143.3350 C   0  0  2  0  0  3  0  0  0  0  0  0
  188.9060  175.9890  143.5890 C   0  0  0  0  0  3  0  0  0  0  0  0
  187.4170  178.9090  147.9750 C   0  0  0  0  0  3  0  0  0  0  0  0
  188.1230  177.7540  142.1140 C   0  0  0  0  0  0  0  0  0  0  0  0
  189.2920  177.6230  141.3580 C   0  0  0  0  0  3  0  0  0  0  0  0
  184.3330  177.9050  144.2750 C   0  0  0  0  0  2  0  0  0  0  0  0
  185.9750  178.5770  146.0530 C   0  0  0  0  0  0  0  0  0  0  0  0
  186.2180  179.1560  147.3030 C   0  0  0  0  0  3  0  0  0  0  0  0
  184.0960  177.6390  140.9350 O   0  0  0  0  0  0  0  0  0  0  0  0
  183.9260  178.8720  141.1330 C   0  0  0  0  0  0  0  0  0  0  0  0
  184.8300  179.6010  141.9650 N   0  0  0  0  0  2  0  0  0  0  0  0
  181.6310  177.9050  138.4540 C   0  0  0  0  0  0  0  0  0  0  0  0
  181.4380  178.8990  140.7230 C   0  0  0  0  0  2  0  0  0  0  0  0
  184.2310  180.5200  138.7810 O   0  0  0  0  0  1  0  0  0  0  0  0
  180.9140  177.4890  137.5610 O   0  0  0  0  0  0  0  0  0  0  0  0
  181.2930  177.6250  139.8870 C   0  0  0  0  0  2  0  0  0  0  0  0
  183.0020  179.8940  138.9930 C   0  0  2  0  0  3  0  0  0  0  0  0
  182.7830  179.6010  140.4880 C   0  0  2  0  0  3  0  0  0  0  0  0
  182.8960  178.6360  138.1300 C   0  0  0  0  0  2  0  0  0  0  0  0
  1  9  1  0  0  0  0
  1 14  1  0  0  0  0
  2  5  1  6  0  0  0
  2  3  1  0  0  0  0
  3 19  2  0  0  0  0
  3  7  1  0  0  0  0
  4 15  1  0  0  0  0
  4 11  1  0  0  0  0
  5 14  2  0  0  0  0
  6  1  2  0  0  0  0
  7  4  2  0  0  0  0
  8 23  1  6  0  0  0
  8 13  1  0  0  0  0
 10 19  1  0  0  0  0
 12 16  1  0  0  0  0
 12  8  1  0  0  0  0
 13  2  1  0  0  0  0
 13 18  1  1  0  0  0
 16  5  1  0  0  0  0
 17  6  1  0  0  0  0
 17 16  2  0  0  0  0
 18 10  1  0  0  0  0
 19 20  1  0  0  0  0
 20 15  2  0  0  0  0
 21 22  2  0  0  0  0
 22 23  1  0  0  0  0
 24 28  1  0  0  0  0
 27 24  2  0  0  0  0
 28 25  1  0  0  0  0
 29 26  1  1  0  0  0
 29 30  1  0  0  0  0
 30 25  1  0  0  0  0
 30 22  1  6  0  0  0
 31 24  1  0  0  0  0
 31 29  1  0  0  0  0
M  END
>  <MODEL>
1

>  <REMARK>
 VINA RESULT:      -9.8      0.000      0.000
  Name = 
  2 active torsions:
  status: ('A' for Active; 'I' for Inactive)
    1  A    between atoms: C_5  and  C_30
    2  A    between atoms: C_10  and  N_16
                            x       y       z     vdW  Elec       q    Type
                         _______ _______ _______ _____ _____    ______ ____

>  <TORSDO>
F 2

$$$$
=
 OpenBabel11122411173D

 31 35  0  0  1  0  0  0  0  0999 V2000
  191.3820  176.8610  145.2960 C   0  0  0  0  0  0  0  0  0  0  0  0
  187.8160  177.0660  143.9830 C   0  0  2  0  0  3  0  0  0  0  0  0
  187.0260  177.8700  145.0090 C   0  0  0  0  0  0  0  0  0  0  0  0
  186.7600  178.6580  147.3000 C   0  0  0  0  0  0  0  0  0  0  0  0
  189.3130  177.2630  144.0870 C   0  0  0  0  0  0  0  0  0  0  0  0
  192.0750  177.6600  144.3860 C   0  0  0  0  0  3  0  0  0  0  0  0
  187.5070  177.9960  146.3230 C   0  0  0  0  0  3  0  0  0  0  0  0
  187.8440  178.6180  141.9890 C   0  0  2  0  0  3  0  0  0  0  0  0
  192.0400  176.2810  146.3280 F   0  0  0  0  0  0  0  0  0  0  0  0
  185.1570  178.2970  143.3270 C   0  0  0  0  0  2  0  0  0  0  0  0
  187.2610  178.7850  148.5880 O   0  0  0  0  0  1  0  0  0  0  0  0
  189.3700  178.6000  141.9180 C   0  0  0  0  0  2  0  0  0  0  0  0
  187.3220  177.2830  142.5400 C   0  0  2  0  0  3  0  0  0  0  0  0
  190.0080  176.6620  145.1450 C   0  0  0  0  0  3  0  0  0  0  0  0
  185.5110  179.1880  146.9810 C   0  0  0  0  0  3  0  0  0  0  0  0
  190.0190  178.0640  143.1620 C   0  0  0  0  0  0  0  0  0  0  0  0
  191.3970  178.2500  143.3170 C   0  0  0  0  0  3  0  0  0  0  0  0
  185.7950  177.1890  142.4950 C   0  0  0  0  0  2  0  0  0  0  0  0
  185.7380  178.3770  144.7070 C   0  0  0  0  0  0  0  0  0  0  0  0
  185.0030  179.0490  145.6880 C   0  0  0  0  0  3  0  0  0  0  0  0
  188.5910  177.2190  139.6210 O   0  0  0  0  0  0  0  0  0  0  0  0
  187.7180  178.1210  139.5130 C   0  0  0  0  0  0  0  0  0  0  0  0
  187.3040  178.8660  140.6590 N   0  0  0  0  0  2  0  0  0  0  0  0
  188.0310  176.5030  136.2480 C   0  0  0  0  0  0  0  0  0  0  0  0
  186.1760  177.3270  137.6820 C   0  0  0  0  0  2  0  0  0  0  0  0
  188.9930  179.8270  137.5630 O   0  0  0  0  0  1  0  0  0  0  0  0
  188.1950  175.8910  135.2060 O   0  0  0  0  0  0  0  0  0  0  0  0
  186.9490  176.0960  137.2010 C   0  0  0  0  0  2  0  0  0  0  0  0
  188.1400  178.8230  137.1030 C   0  0  2  0  0  3  0  0  0  0  0  0
  187.1080  178.4410  138.1790 C   0  0  2  0  0  3  0  0  0  0  0  0
  188.9530  177.6210  136.6210 C   0  0  0  0  0  2  0  0  0  0  0  0
  1  9  1  0  0  0  0
  2  5  1  6  0  0  0
  2  3  1  0  0  0  0
  3  7  1  0  0  0  0
  4 11  1  0  0  0  0
  5 14  2  0  0  0  0
  6  1  2  0  0  0  0
  7  4  2  0  0  0  0
  8 23  1  6  0  0  0
  8 13  1  0  0  0  0
 10 19  1  0  0  0  0
 12  8  1  0  0  0  0
 12 16  1  0  0  0  0
 13 18  1  1  0  0  0
 13  2  1  0  0  0  0
 14  1  1  0  0  0  0
 15  4  1  0  0  0  0
 16 17  2  0  0  0  0
 16  5  1  0  0  0  0
 17  6  1  0  0  0  0
 18 10  1  0  0  0  0
 19  3  2  0  0  0  0
 19 20  1  0  0  0  0
 20 15  2  0  0  0  0
 22 21  2  0  0  0  0
 22 23  1  0  0  0  0
 24 31  1  0  0  0  0
 24 28  1  0  0  0  0
 25 30  1  0  0  0  0
 27 24  2  0  0  0  0
 28 25  1  0  0  0  0
 29 26  1  1  0  0  0
 29 30  1  0  0  0  0
 30 22  1  1  0  0  0
 31 29  1  0  0  0  0
M  END
>  <MODEL>
2

>  <REMARK>
 VINA RESULT:      -9.1      3.079      3.824
  Name = 
  2 active torsions:
  status: ('A' for Active; 'I' for Inactive)
    1  A    between atoms: C_5  and  C_30
    2  A    between atoms: C_10  and  N_16
                            x       y       z     vdW  Elec       q    Type
                         _______ _______ _______ _____ _____    ______ ____

>  <TORSDO>
F 2

$$$$
=
 OpenBabel11122411173D

 31 35  0  0  1  0  0  0  0  0999 V2000
  193.4550  175.3270  135.7390 C   0  0  0  0  0  0  0  0  0  0  0  0
  190.1550  176.8770  136.8310 C   0  0  2  0  0  3  0  0  0  0  0  0
  189.0930  175.7980  136.6490 C   0  0  0  0  0  0  0  0  0  0  0  0
  188.3460  173.7590  135.5440 C   0  0  0  0  0  0  0  0  0  0  0  0
  191.5650  176.3290  136.8910 C   0  0  0  0  0  0  0  0  0  0  0  0
  194.1440  175.2230  136.9490 C   0  0  0  0  0  3  0  0  0  0  0  0
  189.3340  174.7140  135.7890 C   0  0  0  0  0  3  0  0  0  0  0  0
  190.2440  177.1270  139.3430 C   0  0  2  0  0  3  0  0  0  0  0  0
  194.0280  174.8880  134.5940 F   0  0  0  0  0  0  0  0  0  0  0  0
  187.4680  177.0580  138.1590 C   0  0  0  0  0  2  0  0  0  0  0  0
  188.6090  172.6870  134.7040 O   0  0  0  0  0  1  0  0  0  0  0  0
  191.7440  176.8420  139.3810 C   0  0  0  0  0  2  0  0  0  0  0  0
  189.8660  177.8100  138.0210 C   0  0  2  0  0  3  0  0  0  0  0  0
  192.1730  175.8790  135.7110 C   0  0  0  0  0  3  0  0  0  0  0  0
  187.0920  173.8850  136.1420 C   0  0  0  0  0  3  0  0  0  0  0  0
  192.2680  176.2310  138.1130 C   0  0  0  0  0  0  0  0  0  0  0  0
  193.5550  175.6840  138.1290 C   0  0  0  0  0  3  0  0  0  0  0  0
  188.4010  178.2530  137.9890 C   0  0  0  0  0  2  0  0  0  0  0  0
  187.8040  175.9380  137.2190 C   0  0  0  0  0  0  0  0  0  0  0  0
  186.8240  174.9700  136.9780 C   0  0  0  0  0  3  0  0  0  0  0  0
  190.0500  176.2600  142.0520 O   0  0  0  0  0  0  0  0  0  0  0  0
  189.8150  177.4750  141.8110 C   0  0  0  0  0  0  0  0  0  0  0  0
  189.8870  177.9730  140.4740 N   0  0  0  0  0  2  0  0  0  0  0  0
  189.9610  177.1270  145.4490 C   0  0  0  0  0  0  0  0  0  0  0  0
  190.6510  178.8240  143.7700 C   0  0  0  0  0  2  0  0  0  0  0  0
  187.1940  177.5250  143.0220 O   0  0  0  0  0  1  0  0  0  0  0  0
  190.0540  176.9160  146.6460 O   0  0  0  0  0  0  0  0  0  0  0  0
  191.1220  177.6930  144.6890 C   0  0  0  0  0  2  0  0  0  0  0  0
  188.2880  177.9060  143.8010 C   0  0  2  0  0  3  0  0  0  0  0  0
  189.4400  178.4160  142.9190 C   0  0  2  0  0  3  0  0  0  0  0  0
  188.7140  176.7530  144.7100 C   0  0  0  0  0  2  0  0  0  0  0  0
  1  6  1  0  0  0  0
  2  3  1  1  0  0  0
  2  5  1  0  0  0  0
  2 13  1  0  0  0  0
  3 19  1  0  0  0  0
  4  7  1  0  0  0  0
  4 15  2  0  0  0  0
  5 16  2  0  0  0  0
  6 17  2  0  0  0  0
  7  3  2  0  0  0  0
  8 12  1  0  0  0  0
  8 23  1  1  0  0  0
  9  1  1  0  0  0  0
 11  4  1  0  0  0  0
 13 18  1  1  0  0  0
 13  8  1  0  0  0  0
 14  1  2  0  0  0  0
 14  5  1  0  0  0  0
 15 20  1  0  0  0  0
 16 17  1  0  0  0  0
 16 12  1  0  0  0  0
 18 10  1  0  0  0  0
 19 10  1  0  0  0  0
 20 19  2  0  0  0  0
 22 21  2  0  0  0  0
 23 22  1  0  0  0  0
 24 27  2  0  0  0  0
 25 28  1  0  0  0  0
 28 24  1  0  0  0  0
 29 26  1  6  0  0  0
 29 31  1  0  0  0  0
 30 22  1  6  0  0  0
 30 25  1  0  0  0  0
 30 29  1  0  0  0  0
 31 24  1  0  0  0  0
M  END
>  <MODEL>
3

>  <REMARK>
 VINA RESULT:      -8.4      4.947      8.886
  Name = 
  2 active torsions:
  status: ('A' for Active; 'I' for Inactive)
    1  A    between atoms: C_5  and  C_30
    2  A    between atoms: C_10  and  N_16
                            x       y       z     vdW  Elec       q    Type
                         _______ _______ _______ _____ _____    ______ ____

>  <TORSDO>
F 2

$$$$
=
 OpenBabel11122411173D

 31 35  0  0  1  0  0  0  0  0999 V2000
  188.6080  178.2290  142.7810 C   0  0  0  0  0  0  0  0  0  0  0  0
  185.9860  178.9930  140.1310 C   0  0  2  0  0  3  0  0  0  0  0  0
  186.2550  178.0380  138.9730 C   0  0  0  0  0  0  0  0  0  0  0  0
  187.8110  176.6220  137.7430 C   0  0  0  0  0  0  0  0  0  0  0  0
  186.6100  178.5470  141.4350 C   0  0  0  0  0  0  0  0  0  0  0  0
  187.8380  177.6590  143.7980 C   0  0  0  0  0  3  0  0  0  0  0  0
  187.5170  177.4350  138.8390 C   0  0  0  0  0  3  0  0  0  0  0  0
  183.7700  178.1600  141.0120 C   0  0  2  0  0  3  0  0  0  0  0  0
  189.9480  178.3470  142.9320 F   0  0  0  0  0  0  0  0  0  0  0  0
  183.9290  178.4510  138.0110 C   0  0  0  0  0  2  0  0  0  0  0  0
  189.0570  176.0220  137.6380 O   0  0  0  0  0  1  0  0  0  0  0  0
  184.3320  177.9660  142.4190 C   0  0  0  0  0  2  0  0  0  0  0  0
  184.4910  179.3170  140.3070 C   0  0  2  0  0  3  0  0  0  0  0  0
  187.9950  178.6730  141.6080 C   0  0  0  0  0  3  0  0  0  0  0  0
  186.8520  176.4170  136.7510 C   0  0  0  0  0  3  0  0  0  0  0  0
  185.8320  177.9790  142.4700 C   0  0  0  0  0  0  0  0  0  0  0  0
  186.4550  177.5450  143.6450 C   0  0  0  0  0  3  0  0  0  0  0  0
  183.8690  179.6530  138.9490 C   0  0  0  0  0  2  0  0  0  0  0  0
  185.3030  177.8550  137.9400 C   0  0  0  0  0  0  0  0  0  0  0  0
  185.6020  177.0290  136.8520 C   0  0  0  0  0  3  0  0  0  0  0  0
  181.7170  176.5060  139.9260 O   0  0  0  0  0  0  0  0  0  0  0  0
  181.3620  177.5500  140.5360 C   0  0  0  0  0  0  0  0  0  0  0  0
  182.3400  178.4270  141.0980 N   0  0  0  0  0  2  0  0  0  0  0  0
  179.6730  180.7510  141.0660 C   0  0  0  0  0  0  0  0  0  0  0  0
  179.4200  178.8100  139.5360 C   0  0  0  0  0  2  0  0  0  0  0  0
  179.9950  177.6600  143.0780 O   0  0  0  0  0  1  0  0  0  0  0  0
  179.2050  181.8640  141.2370 O   0  0  0  0  0  0  0  0  0  0  0  0
  179.9330  180.2450  139.6800 C   0  0  0  0  0  2  0  0  0  0  0  0
  179.5390  178.4840  142.0470 C   0  0  2  0  0  3  0  0  0  0  0  0
  179.9090  177.9010  140.6720 C   0  0  2  0  0  3  0  0  0  0  0  0
  180.0630  179.9070  142.2390 C   0  0  0  0  0  2  0  0  0  0  0  0
  1  9  1  0  0  0  0
  1  6  1  0  0  0  0
  2  3  1  6  0  0  0
  2 13  1  0  0  0  0
  2  5  1  0  0  0  0
  4  7  2  0  0  0  0
  5 14  1  0  0  0  0
  5 16  2  0  0  0  0
  7  3  1  0  0  0  0
  8 23  1  1  0  0  0
  8 12  1  0  0  0  0
 10 18  1  0  0  0  0
 11  4  1  0  0  0  0
 12 16  1  0  0  0  0
 13 18  1  6  0  0  0
 13  8  1  0  0  0  0
 14  1  2  0  0  0  0
 15 20  2  0  0  0  0
 15  4  1  0  0  0  0
 16 17  1  0  0  0  0
 17  6  2  0  0  0  0
 19 10  1  0  0  0  0
 19  3  2  0  0  0  0
 20 19  1  0  0  0  0
 21 22  2  0  0  0  0
 22 23  1  0  0  0  0
 24 27  2  0  0  0  0
 24 31  1  0  0  0  0
 25 28  1  0  0  0  0
 25 30  1  0  0  0  0
 28 24  1  0  0  0  0
 29 31  1  0  0  0  0
 29 26  1  1  0  0  0
 30 22  1  1  0  0  0
 30 29  1  0  0  0  0
M  END
>  <MODEL>
4

>  <REMARK>
 VINA RESULT:      -7.9      3.038      5.744
  Name = 
  2 active torsions:
  status: ('A' for Active; 'I' for Inactive)
    1  A    between atoms: C_5  and  C_30
    2  A    between atoms: C_10  and  N_16
                            x       y       z     vdW  Elec       q    Type
                         _______ _______ _______ _____ _____    ______ ____

>  <TORSDO>
F 2

$$$$
=
 OpenBabel11122411173D

 31 35  0  0  1  0  0  0  0  0999 V2000
  183.4530  178.8630  144.2500 C   0  0  0  0  0  0  0  0  0  0  0  0
  182.5710  178.1360  140.6210 C   0  0  2  0  0  3  0  0  0  0  0  0
  181.5010  179.1490  140.2280 C   0  0  0  0  0  0  0  0  0  0  0  0
  179.7100  180.6660  140.8820 C   0  0  0  0  0  0  0  0  0  0  0  0
  183.3640  178.5430  141.8440 C   0  0  0  0  0  0  0  0  0  0  0  0
  184.7520  179.3630  144.1410 C   0  0  0  0  0  3  0  0  0  0  0  0
  180.7490  179.7960  141.2210 C   0  0  0  0  0  3  0  0  0  0  0  0
  184.5410  178.8600  139.2150 C   0  0  2  0  0  3  0  0  0  0  0  0
  182.8590  178.7800  145.4640 F   0  0  0  0  0  0  0  0  0  0  0  0
  181.9070  178.7070  137.7480 C   0  0  0  0  0  2  0  0  0  0  0  0
  178.9900  181.3080  141.8790 O   0  0  0  0  0  1  0  0  0  0  0  0
  185.4400  179.0090  140.4410 C   0  0  0  0  0  2  0  0  0  0  0  0
  183.4990  177.7580  139.4510 C   0  0  2  0  0  3  0  0  0  0  0  0
  182.7650  178.4530  143.1070 C   0  0  0  0  0  3  0  0  0  0  0  0
  179.3950  180.8850  139.5420 C   0  0  0  0  0  3  0  0  0  0  0  0
  184.6830  179.0410  141.7370 C   0  0  0  0  0  0  0  0  0  0  0  0
  185.3670  179.4410  142.8890 C   0  0  0  0  0  3  0  0  0  0  0  0
  182.6660  177.4630  138.2020 C   0  0  0  0  0  2  0  0  0  0  0  0
  181.1470  179.3480  138.8710 C   0  0  0  0  0  0  0  0  0  0  0  0
  180.1130  180.2300  138.5400 C   0  0  0  0  0  3  0  0  0  0  0  0
  187.3270  178.2600  139.2790 O   0  0  0  0  0  0  0  0  0  0  0  0
  186.7540  178.2450  138.1560 C   0  0  0  0  0  0  0  0  0  0  0  0
  185.3610  178.5450  138.0530 N   0  0  0  0  0  2  0  0  0  0  0  0
  189.6170  176.0490  137.5580 C   0  0  0  0  0  0  0  0  0  0  0  0
  187.4020  176.4530  136.5050 C   0  0  0  0  0  2  0  0  0  0  0  0
  189.1050  179.7090  137.3390 O   0  0  0  0  0  1  0  0  0  0  0  0
  190.5650  175.2890  137.4590 O   0  0  0  0  0  0  0  0  0  0  0  0
  188.2170  175.5330  137.4190 C   0  0  0  0  0  2  0  0  0  0  0  0
  188.9980  178.3700  136.9610 C   0  0  2  0  0  3  0  0  0  0  0  0
  187.5240  177.9290  136.9070 C   0  0  2  0  0  3  0  0  0  0  0  0
  189.8360  177.4920  137.8910 C   0  0  0  0  0  2  0  0  0  0  0  0
  1  9  1  0  0  0  0
  2  3  1  6  0  0  0
  2  5  1  0  0  0  0
  3  7  1  0  0  0  0
  4  7  2  0  0  0  0
  4 11  1  0  0  0  0
  5 14  1  0  0  0  0
  6  1  1  0  0  0  0
  8 23  1  6  0  0  0
  8 13  1  0  0  0  0
  8 12  1  0  0  0  0
 10 18  1  0  0  0  0
 10 19  1  0  0  0  0
 12 16  1  0  0  0  0
 13 18  1  6  0  0  0
 13  2  1  0  0  0  0
 14  1  2  0  0  0  0
 15  4  1  0  0  0  0
 16  5  2  0  0  0  0
 16 17  1  0  0  0  0
 17  6  2  0  0  0  0
 19  3  2  0  0  0  0
 20 19  1  0  0  0  0
 20 15  2  0  0  0  0
 22 21  2  0  0  0  0
 23 22  1  0  0  0  0
 24 31  1  0  0  0  0
 25 30  1  0  0  0  0
 25 28  1  0  0  0  0
 27 24  2  0  0  0  0
 28 24  1  0  0  0  0
 29 26  1  1  0  0  0
 29 31  1  0  0  0  0
 30 29  1  0  0  0  0
 30 22  1  1  0  0  0
M  END
>  <MODEL>
5

>  <REMARK>
 VINA RESULT:      -7.8      3.935      7.426
  Name = 
  2 active torsions:
  status: ('A' for Active; 'I' for Inactive)
    1  A    between atoms: C_5  and  C_30
    2  A    between atoms: C_10  and  N_16
                            x       y       z     vdW  Elec       q    Type
                         _______ _______ _______ _____ _____    ______ ____

>  <TORSDO>
F 2

$$$$
=
 OpenBabel11122411173D

 31 35  0  0  1  0  0  0  0  0999 V2000
  186.6750  178.1750  147.1280 C   0  0  0  0  0  0  0  0  0  0  0  0
  189.7390  178.2530  144.8720 C   0  0  2  0  0  3  0  0  0  0  0  0
  190.5720  177.0300  145.2380 C   0  0  0  0  0  0  0  0  0  0  0  0
  191.1960  175.3300  146.8690 C   0  0  0  0  0  0  0  0  0  0  0  0
  188.2960  178.1530  145.3180 C   0  0  0  0  0  0  0  0  0  0  0  0
  185.6510  177.8940  146.2210 C   0  0  0  0  0  3  0  0  0  0  0  0
  190.3890  176.4010  146.4800 C   0  0  0  0  0  3  0  0  0  0  0  0
  188.9590  177.6950  142.5350 C   0  0  2  0  0  3  0  0  0  0  0  0
  186.3930  178.3170  148.4440 F   0  0  0  0  0  0  0  0  0  0  0  0
  191.8910  177.2010  143.0610 C   0  0  0  0  0  2  0  0  0  0  0  0
  190.9870  174.7120  148.0930 O   0  0  0  0  0  1  0  0  0  0  0  0
  187.4900  177.8660  142.9180 C   0  0  0  0  0  2  0  0  0  0  0  0
  189.8400  178.6250  143.3810 C   0  0  2  0  0  3  0  0  0  0  0  0
  187.9900  178.3070  146.6770 C   0  0  0  0  0  3  0  0  0  0  0  0
  192.2140  174.8840  146.0270 C   0  0  0  0  0  3  0  0  0  0  0  0
  187.2570  177.8780  144.4010 C   0  0  0  0  0  0  0  0  0  0  0  0
  185.9420  177.7570  144.8610 C   0  0  0  0  0  3  0  0  0  0  0  0
  191.3050  178.6050  142.9400 C   0  0  0  0  0  2  0  0  0  0  0  0
  191.6350  176.5940  144.4080 C   0  0  0  0  0  0  0  0  0  0  0  0
  192.4300  175.5130  144.8000 C   0  0  0  0  0  3  0  0  0  0  0  0
  190.2580  176.0030  140.6440 O   0  0  0  0  0  0  0  0  0  0  0  0
  189.7800  177.0900  140.2210 C   0  0  0  0  0  0  0  0  0  0  0  0
  189.1240  177.9880  141.1170 N   0  0  0  0  0  2  0  0  0  0  0  0
  187.3810  176.9740  137.4630 C   0  0  0  0  0  0  0  0  0  0  0  0
  188.9780  178.6340  138.3950 C   0  0  0  0  0  2  0  0  0  0  0  0
  190.5680  175.2250  138.1620 O   0  0  0  0  0  1  0  0  0  0  0  0
  186.5100  176.9020  136.6130 O   0  0  0  0  0  0  0  0  0  0  0  0
  187.5120  178.2030  138.3090 C   0  0  0  0  0  2  0  0  0  0  0  0
  189.7330  176.2850  137.8070 C   0  0  2  0  0  3  0  0  0  0  0  0
  189.9050  177.4700  138.7740 C   0  0  2  0  0  3  0  0  0  0  0  0
  188.2830  175.8080  137.7210 C   0  0  0  0  0  2  0  0  0  0  0  0
  1  9  1  0  0  0  0
  2  3  1  6  0  0  0
  2  5  1  0  0  0  0
  3  7  1  0  0  0  0
  4 11  1  0  0  0  0
  5 14  2  0  0  0  0
  6  1  2  0  0  0  0
  7  4  2  0  0  0  0
  8 23  1  6  0  0  0
  8 12  1  0  0  0  0
  8 13  1  0  0  0  0
 10 19  1  0  0  0  0
 12 16  1  0  0  0  0
 13 18  1  6  0  0  0
 13  2  1  0  0  0  0
 14  1  1  0  0  0  0
 15  4  1  0  0  0  0
 16 17  2  0  0  0  0
 16  5  1  0  0  0  0
 17  6  1  0  0  0  0
 18 10  1  0  0  0  0
 19 20  1  0  0  0  0
 19  3  2  0  0  0  0
 20 15  2  0  0  0  0
 22 21  2  0  0  0  0
 22 23  1  0  0  0  0
 24 31  1  0  0  0  0
 24 28  1  0  0  0  0
 25 30  1  0  0  0  0
 27 24  2  0  0  0  0
 28 25  1  0  0  0  0
 29 26  1  1  0  0  0
 29 30  1  0  0  0  0
 30 22  1  1  0  0  0
 31 29  1  0  0  0  0
M  END
>  <MODEL>
6

>  <REMARK>
 VINA RESULT:      -7.8      3.669      5.758
  Name = 
  2 active torsions:
  status: ('A' for Active; 'I' for Inactive)
    1  A    between atoms: C_5  and  C_30
    2  A    between atoms: C_10  and  N_16
                            x       y       z     vdW  Elec       q    Type
                         _______ _______ _______ _____ _____    ______ ____

>  <TORSDO>
F 2

$$$$
=
 OpenBabel11122411173D

 31 35  0  0  1  0  0  0  0  0999 V2000
  184.7540  178.7500  139.2000 C   0  0  0  0  0  0  0  0  0  0  0  0
  188.4990  178.1820  139.5590 C   0  0  2  0  0  3  0  0  0  0  0  0
  188.6990  177.4650  140.8890 C   0  0  0  0  0  0  0  0  0  0  0  0
  187.8980  176.9470  143.1320 C   0  0  0  0  0  0  0  0  0  0  0  0
  187.0850  178.0860  139.0300 C   0  0  0  0  0  0  0  0  0  0  0  0
  184.4260  177.8870  138.1520 C   0  0  0  0  0  3  0  0  0  0  0  0
  187.7020  177.5280  141.8770 C   0  0  0  0  0  3  0  0  0  0  0  0
  189.1480  176.4040  137.8860 C   0  0  2  0  0  3  0  0  0  0  0  0
  183.7880  179.4870  139.7970 F   0  0  0  0  0  0  0  0  0  0  0  0
  191.0460  176.7300  140.2110 C   0  0  0  0  0  2  0  0  0  0  0  0
  186.8940  177.0060  144.0880 O   0  0  0  0  0  1  0  0  0  0  0  0
  187.8030  176.5010  137.1680 C   0  0  0  0  0  2  0  0  0  0  0  0
  189.5270  177.7630  138.4910 C   0  0  2  0  0  3  0  0  0  0  0  0
  186.0770  178.8500  139.6340 C   0  0  0  0  0  3  0  0  0  0  0  0
  189.1040  176.3120  143.4250 C   0  0  0  0  0  3  0  0  0  0  0  0
  186.7520  177.2200  137.9640 C   0  0  0  0  0  0  0  0  0  0  0  0
  185.4250  177.1340  137.5310 C   0  0  0  0  0  3  0  0  0  0  0  0
  190.9330  177.7640  139.0950 C   0  0  0  0  0  2  0  0  0  0  0  0
  189.9350  176.8520  141.2110 C   0  0  0  0  0  0  0  0  0  0  0  0
  190.1180  176.2630  142.4660 C   0  0  0  0  0  3  0  0  0  0  0  0
  190.0040  173.7100  137.5200 O   0  0  0  0  0  0  0  0  0  0  0  0
  190.5440  174.5950  136.8030 C   0  0  0  0  0  0  0  0  0  0  0  0
  190.1660  175.9660  136.9410 N   0  0  0  0  0  2  0  0  0  0  0  0
  194.1570  175.1600  136.7730 C   0  0  0  0  0  0  0  0  0  0  0  0
  192.6290  173.2420  136.3750 C   0  0  0  0  0  2  0  0  0  0  0  0
  191.3610  176.3470  134.6570 O   0  0  0  0  0  1  0  0  0  0  0  0
  195.3510  175.3910  136.8590 O   0  0  0  0  0  0  0  0  0  0  0  0
  193.5850  173.9090  137.3670 C   0  0  0  0  0  2  0  0  0  0  0  0
  192.2980  175.4460  135.1660 C   0  0  2  0  0  3  0  0  0  0  0  0
  191.6020  174.2300  135.8030 C   0  0  2  0  0  3  0  0  0  0  0  0
  193.2380  176.1570  136.1390 C   0  0  0  0  0  2  0  0  0  0  0  0
  1 14  1  0  0  0  0
  1  9  1  0  0  0  0
  2  5  1  6  0  0  0
  2  3  1  0  0  0  0
  3 19  2  0  0  0  0
  3  7  1  0  0  0  0
  4 15  1  0  0  0  0
  4 11  1  0  0  0  0
  5 14  2  0  0  0  0
  6  1  2  0  0  0  0
  7  4  2  0  0  0  0
  8 23  1  6  0  0  0
  8 13  1  0  0  0  0
 10 19  1  0  0  0  0
 12  8  1  0  0  0  0
 12 16  1  0  0  0  0
 13 18  1  1  0  0  0
 13  2  1  0  0  0  0
 16  5  1  0  0  0  0
 17 16  2  0  0  0  0
 17  6  1  0  0  0  0
 18 10  1  0  0  0  0
 19 20  1  0  0  0  0
 20 15  2  0  0  0  0
 22 23  1  0  0  0  0
 22 21  2  0  0  0  0
 24 27  2  0  0  0  0
 24 28  1  0  0  0  0
 25 28  1  0  0  0  0
 29 26  1  1  0  0  0
 29 30  1  0  0  0  0
 29 31  1  0  0  0  0
 30 25  1  0  0  0  0
 30 22  1  1  0  0  0
 31 24  1  0  0  0  0
M  END
>  <MODEL>
7

>  <REMARK>
 VINA RESULT:      -7.8      5.248      8.325
  Name = 
  2 active torsions:
  status: ('A' for Active; 'I' for Inactive)
    1  A    between atoms: C_5  and  C_30
    2  A    between atoms: C_10  and  N_16
                            x       y       z     vdW  Elec       q    Type
                         _______ _______ _______ _____ _____    ______ ____

>  <TORSDO>
F 2

$$$$
=
 OpenBabel11122411173D

 31 35  0  0  1  0  0  0  0  0999 V2000
  179.5790  179.2810  143.1850 C   0  0  0  0  0  0  0  0  0  0  0  0
  183.0060  179.3490  141.5310 C   0  0  2  0  0  3  0  0  0  0  0  0
  183.9960  178.8490  142.5760 C   0  0  0  0  0  0  0  0  0  0  0  0
  184.5790  178.5080  144.9180 C   0  0  0  0  0  0  0  0  0  0  0  0
  181.5720  178.9690  141.8310 C   0  0  0  0  0  0  0  0  0  0  0  0
  178.9410  178.2500  142.4930 C   0  0  0  0  0  3  0  0  0  0  0  0
  183.6570  178.8840  143.9390 C   0  0  0  0  0  3  0  0  0  0  0  0
  183.0450  177.4920  139.8200 C   0  0  2  0  0  3  0  0  0  0  0  0
  178.9310  179.9310  144.1800 F   0  0  0  0  0  0  0  0  0  0  0  0
  185.7560  178.4040  140.7840 C   0  0  0  0  0  2  0  0  0  0  0  0
  184.2180  178.5340  146.2570 O   0  0  0  0  0  1  0  0  0  0  0  0
  181.5340  177.2860  139.9170 C   0  0  0  0  0  2  0  0  0  0  0  0
  183.4000  178.9590  140.0940 C   0  0  2  0  0  3  0  0  0  0  0  0
  180.8870  179.6390  142.8530 C   0  0  0  0  0  3  0  0  0  0  0  0
  185.8630  178.1090  144.5490 C   0  0  0  0  0  3  0  0  0  0  0  0
  180.9200  177.9310  141.1250 C   0  0  0  0  0  0  0  0  0  0  0  0
  179.6070  177.5860  141.4600 C   0  0  0  0  0  3  0  0  0  0  0  0
  184.8840  179.2550  139.8660 C   0  0  0  0  0  2  0  0  0  0  0  0
  185.3160  178.4810  142.2160 C   0  0  0  0  0  0  0  0  0  0  0  0
  186.2290  178.0940  143.2020 C   0  0  0  0  0  3  0  0  0  0  0  0
  183.1000  174.8210  138.8240 O   0  0  0  0  0  0  0  0  0  0  0  0
  183.4940  175.7380  138.0540 C   0  0  0  0  0  0  0  0  0  0  0  0
  183.4990  177.0970  138.4930 N   0  0  0  0  0  2  0  0  0  0  0  0
  184.7230  172.6320  136.5640 C   0  0  0  0  0  0  0  0  0  0  0  0
  183.0810  174.3950  135.9590 C   0  0  0  0  0  2  0  0  0  0  0  0
  186.2670  175.9220  137.2690 O   0  0  0  0  0  1  0  0  0  0  0  0
  185.1120  171.5500  136.1600 O   0  0  0  0  0  0  0  0  0  0  0  0
  183.2670  172.9800  136.5110 C   0  0  0  0  0  2  0  0  0  0  0  0
  185.4560  174.9950  136.6130 C   0  0  2  0  0  3  0  0  0  0  0  0
  183.9780  175.4200  136.6690 C   0  0  2  0  0  3  0  0  0  0  0  0
  185.6840  173.5960  137.1860 C   0  0  0  0  0  2  0  0  0  0  0  0
  1  9  1  0  0  0  0
  2  5  1  1  0  0  0
  2  3  1  0  0  0  0
  3  7  1  0  0  0  0
  4 11  1  0  0  0  0
  5 14  2  0  0  0  0
  6  1  2  0  0  0  0
  7  4  2  0  0  0  0
  8 23  1  6  0  0  0
  8 12  1  0  0  0  0
  8 13  1  0  0  0  0
 10 19  1  0  0  0  0
 12 16  1  0  0  0  0
 13 18  1  1  0  0  0
 13  2  1  0  0  0  0
 14  1  1  0  0  0  0
 15  4  1  0  0  0  0
 16 17  2  0  0  0  0
 16  5  1  0  0  0  0
 17  6  1  0  0  0  0
 18 10  1  0  0  0  0
 19  3  2  0  0  0  0
 19 20  1  0  0  0  0
 20 15  2  0  0  0  0
 22 23  1  0  0  0  0
 22 21  2  0  0  0  0
 24 31  1  0  0  0  0
 25 28  1  0  0  0  0
 25 30  1  0  0  0  0
 27 24  2  0  0  0  0
 28 24  1  0  0  0  0
 29 30  1  0  0  0  0
 29 31  1  0  0  0  0
 29 26  1  1  0  0  0
 30 22  1  1  0  0  0
M  END
>  <MODEL>
8

>  <REMARK>
 VINA RESULT:      -7.5      4.140      6.586
  Name = 
  2 active torsions:
  status: ('A' for Active; 'I' for Inactive)
    1  A    between atoms: C_5  and  C_30
    2  A    between atoms: C_10  and  N_16
                            x       y       z     vdW  Elec       q    Type
                         _______ _______ _______ _____ _____    ______ ____

>  <TORSDO>
F 2

$$$$
=
 OpenBabel11122411173D

 31 35  0  0  1  0  0  0  0  0999 V2000
  191.4960  177.3680  141.0830 C   0  0  0  0  0  0  0  0  0  0  0  0
  189.2350  177.8340  138.0580 C   0  0  2  0  0  3  0  0  0  0  0  0
  189.1770  176.4830  137.3530 C   0  0  0  0  0  0  0  0  0  0  0  0
  190.1910  174.3160  136.8900 C   0  0  0  0  0  0  0  0  0  0  0  0
  189.6940  177.7420  139.4970 C   0  0  0  0  0  0  0  0  0  0  0  0
  190.5930  177.4760  142.1430 C   0  0  0  0  0  3  0  0  0  0  0  0
  190.1800  175.5260  137.5850 C   0  0  0  0  0  3  0  0  0  0  0  0
  186.8760  178.0910  138.9230 C   0  0  2  0  0  3  0  0  0  0  0  0
  192.8060  177.1280  141.3310 F   0  0  0  0  0  0  0  0  0  0  0  0
  187.0970  177.1810  136.0530 C   0  0  0  0  0  2  0  0  0  0  0  0
  191.1800  173.3780  137.1460 O   0  0  0  0  0  1  0  0  0  0  0  0
  187.3570  178.2780  140.3610 C   0  0  0  0  0  2  0  0  0  0  0  0
  187.9230  178.6300  137.9380 C   0  0  2  0  0  3  0  0  0  0  0  0
  191.0480  177.5030  139.7680 C   0  0  0  0  0  3  0  0  0  0  0  0
  189.2100  174.0520  135.9350 C   0  0  0  0  0  3  0  0  0  0  0  0
  188.7830  177.8600  140.5720 C   0  0  0  0  0  0  0  0  0  0  0  0
  189.2440  177.7310  141.8860 C   0  0  0  0  0  3  0  0  0  0  0  0
  187.4310  178.6050  136.4890 C   0  0  0  0  0  2  0  0  0  0  0  0
  188.2090  176.2210  136.3530 C   0  0  0  0  0  0  0  0  0  0  0  0
  188.2210  175.0010  135.6700 C   0  0  0  0  0  3  0  0  0  0  0  0
  184.3810  176.8390  138.3440 O   0  0  0  0  0  0  0  0  0  0  0  0
  184.3890  178.0940  138.4650 C   0  0  0  0  0  0  0  0  0  0  0  0
  185.6060  178.7850  138.7470 N   0  0  0  0  0  2  0  0  0  0  0  0
  180.9680  177.4750  139.6020 C   0  0  0  0  0  0  0  0  0  0  0  0
  182.5660  179.3780  139.6430 C   0  0  0  0  0  2  0  0  0  0  0  0
  182.5570  177.7040  136.2660 O   0  0  0  0  0  1  0  0  0  0  0  0
  179.8640  177.1830  140.0290 O   0  0  0  0  0  0  0  0  0  0  0  0
  181.9280  178.2470  140.4550 C   0  0  0  0  0  2  0  0  0  0  0  0
  182.0420  178.1600  137.4810 C   0  0  2  0  0  3  0  0  0  0  0  0
  183.1240  178.8860  138.3000 C   0  0  2  0  0  3  0  0  0  0  0  0
  181.4050  177.0030  138.2510 C   0  0  0  0  0  2  0  0  0  0  0  0
  1  9  1  0  0  0  0
  1  6  1  0  0  0  0
  2  3  1  1  0  0  0
  2  5  1  0  0  0  0
  3  7  1  0  0  0  0
  4 11  1  0  0  0  0
  4  7  2  0  0  0  0
  5 14  1  0  0  0  0
  5 16  2  0  0  0  0
  8 23  1  1  0  0  0
  8 12  1  0  0  0  0
 10 19  1  0  0  0  0
 10 18  1  0  0  0  0
 12 16  1  0  0  0  0
 13 18  1  6  0  0  0
 13  2  1  0  0  0  0
 13  8  1  0  0  0  0
 14  1  2  0  0  0  0
 15  4  1  0  0  0  0
 16 17  1  0  0  0  0
 17  6  2  0  0  0  0
 19  3  2  0  0  0  0
 20 15  2  0  0  0  0
 20 19  1  0  0  0  0
 21 22  2  0  0  0  0
 22 23  1  0  0  0  0
 24 27  2  0  0  0  0
 24 28  1  0  0  0  0
 25 28  1  0  0  0  0
 29 26  1  6  0  0  0
 29 31  1  0  0  0  0
 29 30  1  0  0  0  0
 30 22  1  1  0  0  0
 30 25  1  0  0  0  0
 31 24  1  0  0  0  0
M  END
>  <MODEL>
9

>  <REMARK>
 VINA RESULT:      -7.5      3.857      6.361
  Name = 
  2 active torsions:
  status: ('A' for Active; 'I' for Inactive)
    1  A    between atoms: C_5  and  C_30
    2  A    between atoms: C_10  and  N_16
                            x       y       z     vdW  Elec       q    Type
                         _______ _______ _______ _____ _____    ______ ____

>  <TORSDO>
F 2

$$$$
