=
 OpenBabel11122412263D

 34 40  0  0  1  0  0  0  0  0999 V2000
  189.1450  177.7030  140.3070 C   0  0  1  0  0  3  0  0  0  0  0  0
  190.9690  176.7750  138.9920 C   0  0  0  0  0  2  0  0  0  0  0  0
  182.8630  178.2310  140.9440 C   0  0  0  0  0  0  0  0  0  0  0  0
  187.1490  178.5220  141.5840 C   0  0  2  0  0  3  0  0  0  0  0  0
  185.1020  179.2120  140.2540 C   0  0  2  0  0  3  0  0  0  0  0  0
  183.0020  179.5960  138.8110 C   0  0  0  0  0  1  0  0  0  0  0  0
  182.2590  177.3140  140.3280 O   0  0  0  0  0  0  0  0  0  0  0  0
  183.6190  179.2570  143.1180 C   0  0  0  0  0  2  0  0  0  0  0  0
  189.1500  177.6580  137.9850 C   0  0  2  0  0  3  0  0  0  0  0  0
  187.9150  176.4020  135.3430 C   0  0  0  0  0  2  0  0  0  0  0  0
  185.6550  178.3670  139.1040 C   0  0  0  0  0  2  0  0  0  0  0  0
  185.1280  179.3790  142.8280 C   0  0  0  0  0  2  0  0  0  0  0  0
  187.6190  177.7620  137.8870 C   0  0  1  0  0  3  0  0  0  0  0  0
  191.2020  176.5640  137.4970 C   0  0  0  0  0  2  0  0  0  0  0  0
  185.6210  178.6230  141.5870 C   0  0  2  0  0  3  0  0  0  0  0  0
  182.9660  178.1850  142.3690 N   0  0  0  0  0  2  0  0  0  0  0  0
  189.1910  175.9470  136.0740 C   0  0  1  0  0  3  0  0  0  0  0  0
  187.6100  177.7930  140.3090 C   0  0  1  0  0  3  0  0  0  0  0  0
  183.5650  179.3330  140.2010 C   0  0  1  0  0  3  0  0  0  0  0  0
  187.1150  178.4620  139.0880 N   0  0  2  0  0  0  0  0  0  0  0  0
  188.9790  177.8780  142.7730 C   0  0  0  0  0  2  0  0  0  0  0  0
  187.7320  177.9210  135.2980 C   0  0  0  0  0  2  0  0  0  0  0  0
  187.5750  177.7910  142.7140 O   0  0  0  0  0  0  0  0  0  0  0  0
  187.1810  178.5020  136.6090 C   0  0  0  0  0  2  0  0  0  0  0  0
  189.9350  177.0730  136.8230 C   0  0  1  0  0  3  0  0  0  0  0  0
  189.6050  177.0810  141.6250 C   0  0  0  0  0  2  0  0  0  0  0  0
  189.5290  176.8940  139.1560 N   0  0  2  0  0  0  0  0  0  0  0  0
  188.8820  174.8830  136.9310 O   0  0  0  0  0  0  0  0  0  0  0  0
  187.6270  174.5820  136.6630 O   0  0  0  0  0  0  0  0  0  0  0  0
  185.5870  172.0320  136.4730 O   0  0  0  0  0  0  0  0  0  0  0  0
  187.6770  172.3860  135.8030 C   0  0  0  0  0  3  0  0  0  0  0  0
  187.4980  173.2370  137.0160 C   0  0  2  0  0  3  0  0  0  0  0  0
  186.5640  171.7280  135.5450 C   0  0  0  0  0  3  0  0  0  0  0  0
  186.0590  172.9540  137.4380 C   0  0  0  0  0  2  0  0  0  0  0  0
  1 18  1  0  0  0  0
  1 26  1  1  0  0  0
  2 27  1  0  0  0  0
  3 16  1  0  0  0  0
  4 15  1  0  0  0  0
  4 23  1  1  0  0  0
  5 11  1  6  0  0  0
  5 15  1  0  0  0  0
  6 19  1  0  0  0  0
  7  3  2  0  0  0  0
  9 27  1  0  0  0  0
 10 17  1  0  0  0  0
 12  8  1  0  0  0  0
 13  9  1  0  0  0  0
 13 20  1  0  0  0  0
 14  2  1  0  0  0  0
 15 12  1  0  0  0  0
 16  8  1  0  0  0  0
 17 25  1  0  0  0  0
 17 28  1  0  0  0  0
 18  4  1  0  0  0  0
 19  5  1  0  0  0  0
 19  3  1  0  0  0  0
 20 11  1  0  0  0  0
 20 18  1  0  0  0  0
 22 10  1  0  0  0  0
 22 24  1  0  0  0  0
 23 21  1  0  0  0  0
 24 13  1  0  0  0  0
 25 14  1  0  0  0  0
 25  9  1  0  0  0  0
 26 21  1  0  0  0  0
 27  1  1  0  0  0  0
 29 28  1  0  0  0  0
 29 32  1  0  0  0  0
 30 34  1  0  0  0  0
 31 32  1  0  0  0  0
 32 34  1  0  0  0  0
 33 31  2  0  0  0  0
 33 30  1  0  0  0  0
M  END
>  <MODEL>
1

>  <REMARK>
 VINA RESULT:      -7.4      0.000      0.000
  Name = 
  3 active torsions:
  status: ('A' for Active; 'I' for Inactive)
    1  A    between atoms: C_17  and  O_28
    2  A    between atoms: O_28  and  O_29
    3  A    between atoms: O_29  and  C_32
                            x       y       z     vdW  Elec       q    Type
                         _______ _______ _______ _____ _____    ______ ____

>  <TORSDO>
F 3

$$$$
=
 OpenBabel11122412263D

 34 40  0  0  1  0  0  0  0  0999 V2000
  190.8770  177.0420  137.8640 C   0  0  1  0  0  3  0  0  0  0  0  0
  190.5710  176.4270  135.5310 C   0  0  0  0  0  2  0  0  0  0  0  0
  188.4370  176.8670  143.7100 C   0  0  0  0  0  0  0  0  0  0  0  0
  191.0630  177.5350  140.3160 C   0  0  2  0  0  3  0  0  0  0  0  0
  188.9350  178.1290  141.5630 C   0  0  2  0  0  3  0  0  0  0  0  0
  186.6740  178.4250  142.7630 C   0  0  0  0  0  1  0  0  0  0  0  0
  187.5800  175.9510  143.8230 O   0  0  0  0  0  0  0  0  0  0  0  0
  190.7380  177.7650  144.2130 C   0  0  0  0  0  2  0  0  0  0  0  0
  188.8410  177.2070  136.7570 C   0  0  2  0  0  3  0  0  0  0  0  0
  185.8940  176.0740  136.4200 C   0  0  0  0  0  2  0  0  0  0  0  0
  188.1670  177.4520  140.4260 C   0  0  0  0  0  2  0  0  0  0  0  0
  191.2100  178.0660  142.7780 C   0  0  0  0  0  2  0  0  0  0  0  0
  188.0230  177.1620  138.0590 C   0  0  1  0  0  3  0  0  0  0  0  0
  189.3650  176.3760  134.5940 C   0  0  0  0  0  2  0  0  0  0  0  0
  190.3360  177.4790  141.6610 C   0  0  2  0  0  3  0  0  0  0  0  0
  189.7350  176.7030  144.2860 N   0  0  0  0  0  2  0  0  0  0  0  0
  187.1340  175.6880  135.5920 C   0  0  1  0  0  3  0  0  0  0  0  0
  190.1440  176.9740  139.2150 C   0  0  1  0  0  3  0  0  0  0  0  0
  188.1560  178.0970  142.8930 C   0  0  1  0  0  3  0  0  0  0  0  0
  188.8560  177.6960  139.1580 N   0  0  2  0  0  0  0  0  0  0  0  0
  192.9640  176.9770  139.1960 C   0  0  0  0  0  2  0  0  0  0  0  0
  185.8130  177.5640  136.7590 C   0  0  0  0  0  2  0  0  0  0  0  0
  192.2370  176.7530  140.3810 O   0  0  0  0  0  0  0  0  0  0  0  0
  186.7150  177.9660  137.9350 C   0  0  0  0  0  2  0  0  0  0  0  0
  188.1810  176.8120  135.4470 C   0  0  1  0  0  3  0  0  0  0  0  0
  192.2340  176.3540  138.0030 C   0  0  0  0  0  2  0  0  0  0  0  0
  190.0270  176.3830  136.8790 N   0  0  2  0  0  0  0  0  0  0  0  0
  187.7050  174.5250  136.1260 O   0  0  0  0  0  0  0  0  0  0  0  0
  187.4370  173.5790  135.2490 O   0  0  0  0  0  0  0  0  0  0  0  0
  185.8010  172.8240  137.9800 O   0  0  0  0  0  0  0  0  0  0  0  0
  185.5250  172.3250  135.8320 C   0  0  0  0  0  3  0  0  0  0  0  0
  186.9960  172.4960  136.0130 C   0  0  2  0  0  3  0  0  0  0  0  0
  184.9020  172.5220  136.9760 C   0  0  0  0  0  3  0  0  0  0  0  0
  187.1320  172.8290  137.4970 C   0  0  0  0  0  2  0  0  0  0  0  0
  1 26  1  1  0  0  0
  1 18  1  0  0  0  0
  2 27  1  0  0  0  0
  3  7  2  0  0  0  0
  3 16  1  0  0  0  0
  4 23  1  1  0  0  0
  4 15  1  0  0  0  0
  5 11  1  6  0  0  0
  5 15  1  0  0  0  0
  5 19  1  0  0  0  0
  6 19  1  0  0  0  0
  8 16  1  0  0  0  0
  9 27  1  0  0  0  0
  9 13  1  0  0  0  0
 10 22  1  0  0  0  0
 12  8  1  0  0  0  0
 13 20  1  0  0  0  0
 14 25  1  0  0  0  0
 14  2  1  0  0  0  0
 15 12  1  0  0  0  0
 17 28  1  0  0  0  0
 17 10  1  0  0  0  0
 18  4  1  0  0  0  0
 19  3  1  0  0  0  0
 20 18  1  0  0  0  0
 20 11  1  0  0  0  0
 21 23  1  0  0  0  0
 22 24  1  0  0  0  0
 24 13  1  0  0  0  0
 25 17  1  0  0  0  0
 25  9  1  0  0  0  0
 26 21  1  0  0  0  0
 27  1  1  0  0  0  0
 29 32  1  0  0  0  0
 29 28  1  0  0  0  0
 31 32  1  0  0  0  0
 31 33  2  0  0  0  0
 32 34  1  0  0  0  0
 33 30  1  0  0  0  0
 34 30  1  0  0  0  0
M  END
>  <MODEL>
2

>  <REMARK>
 VINA RESULT:      -6.8      2.399      3.955
  Name = 
  3 active torsions:
  status: ('A' for Active; 'I' for Inactive)
    1  A    between atoms: C_17  and  O_28
    2  A    between atoms: O_28  and  O_29
    3  A    between atoms: O_29  and  C_32
                            x       y       z     vdW  Elec       q    Type
                         _______ _______ _______ _____ _____    ______ ____

>  <TORSDO>
F 3

$$$$
=
 OpenBabel11122412263D

 34 40  0  0  1  0  0  0  0  0999 V2000
  189.1590  177.5810  141.6640 C   0  0  1  0  0  3  0  0  0  0  0  0
  191.2690  176.8170  140.7240 C   0  0  0  0  0  2  0  0  0  0  0  0
  182.9110  178.1550  140.7770 C   0  0  0  0  0  0  0  0  0  0  0  0
  186.8930  178.2460  142.5070 C   0  0  2  0  0  3  0  0  0  0  0  0
  185.2360  179.1750  140.8260 C   0  0  2  0  0  3  0  0  0  0  0  0
  183.5610  179.8190  138.9770 C   0  0  0  0  0  1  0  0  0  0  0  0
  182.4960  177.3540  139.8980 O   0  0  0  0  0  0  0  0  0  0  0  0
  183.0810  178.8260  143.2000 C   0  0  0  0  0  2  0  0  0  0  0  0
  189.7480  177.8840  139.4380 C   0  0  2  0  0  3  0  0  0  0  0  0
  189.2360  177.0660  136.4130 C   0  0  0  0  0  2  0  0  0  0  0  0
  186.0740  178.4990  139.7380 C   0  0  0  0  0  2  0  0  0  0  0  0
  184.6120  178.9550  143.3190 C   0  0  0  0  0  2  0  0  0  0  0  0
  188.2890  178.0360  138.9750 C   0  0  1  0  0  3  0  0  0  0  0  0
  191.8730  176.8270  139.3210 C   0  0  0  0  0  2  0  0  0  0  0  0
  185.4130  178.3820  142.1420 C   0  0  2  0  0  3  0  0  0  0  0  0
  182.6530  177.8930  142.1580 N   0  0  0  0  0  2  0  0  0  0  0  0
  190.2940  176.4770  137.3640 C   0  0  1  0  0  3  0  0  0  0  0  0
  187.6710  177.7050  141.2940 C   0  0  1  0  0  3  0  0  0  0  0  0
  183.7600  179.3390  140.4080 C   0  0  1  0  0  3  0  0  0  0  0  0
  187.4890  178.5610  140.1030 N   0  0  2  0  0  0  0  0  0  0  0  0
  188.3760  177.3900  144.0060 C   0  0  0  0  0  2  0  0  0  0  0  0
  189.0480  178.5780  136.5520 C   0  0  0  0  0  2  0  0  0  0  0  0
  187.0320  177.3450  143.5850 O   0  0  0  0  0  0  0  0  0  0  0  0
  188.1760  178.9700  137.7550 C   0  0  0  0  0  2  0  0  0  0  0  0
  190.8090  177.4610  138.4350 C   0  0  1  0  0  3  0  0  0  0  0  0
  189.2820  176.7580  142.9460 C   0  0  0  0  0  2  0  0  0  0  0  0
  189.8310  176.9440  140.5370 N   0  0  2  0  0  0  0  0  0  0  0  0
  189.7950  175.3050  137.9450 O   0  0  0  0  0  0  0  0  0  0  0  0
  190.6590  174.3650  137.6170 O   0  0  0  0  0  0  0  0  0  0  0  0
  187.9740  173.9350  135.7970 O   0  0  0  0  0  0  0  0  0  0  0  0
  190.1240  173.4480  135.5100 C   0  0  0  0  0  3  0  0  0  0  0  0
  189.8960  173.3820  136.9820 C   0  0  2  0  0  3  0  0  0  0  0  0
  189.0040  173.7640  134.8920 C   0  0  0  0  0  3  0  0  0  0  0  0
  188.4130  173.7150  137.1250 C   0  0  0  0  0  2  0  0  0  0  0  0
  1 26  1  1  0  0  0
  3 16  1  0  0  0  0
  4 23  1  1  0  0  0
  5 11  1  6  0  0  0
  5 15  1  0  0  0  0
  6 19  1  0  0  0  0
  7  3  2  0  0  0  0
  8 12  1  0  0  0  0
  9 27  1  0  0  0  0
 10 22  1  0  0  0  0
 10 17  1  0  0  0  0
 11 20  1  0  0  0  0
 13  9  1  0  0  0  0
 13 20  1  0  0  0  0
 14  2  1  0  0  0  0
 15  4  1  0  0  0  0
 15 12  1  0  0  0  0
 16  8  1  0  0  0  0
 17 28  1  0  0  0  0
 17 25  1  0  0  0  0
 18  1  1  0  0  0  0
 18  4  1  0  0  0  0
 19  3  1  0  0  0  0
 19  5  1  0  0  0  0
 20 18  1  0  0  0  0
 22 24  1  0  0  0  0
 23 21  1  0  0  0  0
 24 13  1  0  0  0  0
 25 14  1  0  0  0  0
 25  9  1  0  0  0  0
 26 21  1  0  0  0  0
 27  2  1  0  0  0  0
 27  1  1  0  0  0  0
 29 28  1  0  0  0  0
 30 34  1  0  0  0  0
 31 32  1  0  0  0  0
 32 34  1  0  0  0  0
 32 29  1  0  0  0  0
 33 31  2  0  0  0  0
 33 30  1  0  0  0  0
M  END
>  <MODEL>
3

>  <REMARK>
 VINA RESULT:      -6.8      1.372      1.671
  Name = 
  3 active torsions:
  status: ('A' for Active; 'I' for Inactive)
    1  A    between atoms: C_17  and  O_28
    2  A    between atoms: O_28  and  O_29
    3  A    between atoms: O_29  and  C_32
                            x       y       z     vdW  Elec       q    Type
                         _______ _______ _______ _____ _____    ______ ____

>  <TORSDO>
F 3

$$$$
=
 OpenBabel11122412263D

 34 40  0  0  1  0  0  0  0  0999 V2000
  189.0350  177.7590  140.6640 C   0  0  1  0  0  3  0  0  0  0  0  0
  190.9280  176.8600  139.4280 C   0  0  0  0  0  2  0  0  0  0  0  0
  182.7260  178.2540  140.9850 C   0  0  0  0  0  0  0  0  0  0  0  0
  186.9720  178.5470  141.8500 C   0  0  2  0  0  3  0  0  0  0  0  0
  184.9930  179.2550  140.4290 C   0  0  2  0  0  3  0  0  0  0  0  0
  182.9690  179.6580  138.8860 C   0  0  0  0  0  1  0  0  0  0  0  0
  182.1590  177.3460  140.3220 O   0  0  0  0  0  0  0  0  0  0  0  0
  183.3650  179.2430  143.2130 C   0  0  0  0  0  2  0  0  0  0  0  0
  189.1600  177.7560  138.3440 C   0  0  2  0  0  3  0  0  0  0  0  0
  188.0680  176.5440  135.6210 C   0  0  0  0  0  2  0  0  0  0  0  0
  185.6090  178.4330  139.2940 C   0  0  0  0  0  2  0  0  0  0  0  0
  184.8860  179.3750  143.0030 C   0  0  0  0  0  2  0  0  0  0  0  0
  187.6350  177.8560  138.1690 C   0  0  1  0  0  3  0  0  0  0  0  0
  191.2390  176.6770  137.9440 C   0  0  0  0  0  2  0  0  0  0  0  0
  185.4460  178.6440  141.7760 C   0  0  2  0  0  3  0  0  0  0  0  0
  182.7560  178.1820  142.4120 N   0  0  0  0  0  2  0  0  0  0  0  0
  189.3070  176.0800  136.4080 C   0  0  1  0  0  3  0  0  0  0  0  0
  187.5010  177.8430  140.5880 C   0  0  1  0  0  3  0  0  0  0  0  0
  183.4610  179.3720  140.2990 C   0  0  1  0  0  3  0  0  0  0  0  0
  187.0670  178.5330  139.3550 N   0  0  2  0  0  0  0  0  0  0  0  0
  188.7410  177.8890  143.1200 C   0  0  0  0  0  2  0  0  0  0  0  0
  187.8810  178.0620  135.5930 C   0  0  0  0  0  2  0  0  0  0  0  0
  187.3420  177.7980  142.9880 O   0  0  0  0  0  0  0  0  0  0  0  0
  187.2610  178.6180  136.8840 C   0  0  0  0  0  2  0  0  0  0  0  0
  190.0060  177.1950  137.2140 C   0  0  1  0  0  3  0  0  0  0  0  0
  189.4290  177.1140  141.9920 C   0  0  0  0  0  2  0  0  0  0  0  0
  189.4800  176.9710  139.5190 N   0  0  2  0  0  0  0  0  0  0  0  0
  188.9580  175.0000  137.2290 O   0  0  0  0  0  0  0  0  0  0  0  0
  189.5240  173.9490  136.6710 O   0  0  0  0  0  0  0  0  0  0  0  0
  188.7830  171.2720  134.9420 O   0  0  0  0  0  0  0  0  0  0  0  0
  187.8090  172.3290  136.6380 C   0  0  0  0  0  3  0  0  0  0  0  0
  188.5270  173.3870  135.8700 C   0  0  2  0  0  3  0  0  0  0  0  0
  187.9890  171.1550  136.0670 C   0  0  0  0  0  3  0  0  0  0  0  0
  189.1690  172.6160  134.7200 C   0  0  0  0  0  2  0  0  0  0  0  0
  1 26  1  1  0  0  0
  2 27  1  0  0  0  0
  3 16  1  0  0  0  0
  4 23  1  1  0  0  0
  5 11  1  6  0  0  0
  5 15  1  0  0  0  0
  6 19  1  0  0  0  0
  7  3  2  0  0  0  0
  9 27  1  0  0  0  0
 10 17  1  0  0  0  0
 11 20  1  0  0  0  0
 12  8  1  0  0  0  0
 13  9  1  0  0  0  0
 13 20  1  0  0  0  0
 14  2  1  0  0  0  0
 15  4  1  0  0  0  0
 15 12  1  0  0  0  0
 16  8  1  0  0  0  0
 17 25  1  0  0  0  0
 17 28  1  0  0  0  0
 18  1  1  0  0  0  0
 18  4  1  0  0  0  0
 19  5  1  0  0  0  0
 19  3  1  0  0  0  0
 20 18  1  0  0  0  0
 22 10  1  0  0  0  0
 22 24  1  0  0  0  0
 23 21  1  0  0  0  0
 24 13  1  0  0  0  0
 25 14  1  0  0  0  0
 25  9  1  0  0  0  0
 26 21  1  0  0  0  0
 27  1  1  0  0  0  0
 29 28  1  0  0  0  0
 30 33  1  0  0  0  0
 32 31  1  0  0  0  0
 32 29  1  0  0  0  0
 33 31  2  0  0  0  0
 34 30  1  0  0  0  0
 34 32  1  0  0  0  0
M  END
>  <MODEL>
4

>  <REMARK>
 VINA RESULT:      -6.7      0.887      1.124
  Name = 
  3 active torsions:
  status: ('A' for Active; 'I' for Inactive)
    1  A    between atoms: C_17  and  O_28
    2  A    between atoms: O_28  and  O_29
    3  A    between atoms: O_29  and  C_32
                            x       y       z     vdW  Elec       q    Type
                         _______ _______ _______ _____ _____    ______ ____

>  <TORSDO>
F 3

$$$$
=
 OpenBabel11122412263D

 34 40  0  0  1  0  0  0  0  0999 V2000
  189.3730  177.2490  137.0810 C   0  0  1  0  0  3  0  0  0  0  0  0
  188.1440  177.0140  134.9950 C   0  0  0  0  0  2  0  0  0  0  0  0
  189.2700  176.4260  143.3630 C   0  0  0  0  0  0  0  0  0  0  0  0
  190.5190  177.3560  139.3090 C   0  0  2  0  0  3  0  0  0  0  0  0
  189.1060  177.9430  141.3330 C   0  0  2  0  0  3  0  0  0  0  0  0
  187.5130  178.2540  143.3340 C   0  0  0  0  0  1  0  0  0  0  0  0
  188.4000  175.5820  143.7020 O   0  0  0  0  0  0  0  0  0  0  0  0
  191.6930  177.0360  143.0330 C   0  0  0  0  0  2  0  0  0  0  0  0
  187.1160  177.7520  136.8660 C   0  0  2  0  0  3  0  0  0  0  0  0
  184.1280  176.9420  137.5730 C   0  0  0  0  0  2  0  0  0  0  0  0
  187.8870  177.5100  140.5150 C   0  0  0  0  0  2  0  0  0  0  0  0
  191.6370  177.5030  141.5650 C   0  0  0  0  0  2  0  0  0  0  0  0
  186.8400  177.5860  138.3700 C   0  0  1  0  0  3  0  0  0  0  0  0
  186.6820  177.2070  134.5940 C   0  0  0  0  0  2  0  0  0  0  0  0
  190.3410  177.1660  140.8170 C   0  0  2  0  0  3  0  0  0  0  0  0
  190.6540  176.0660  143.3760 N   0  0  0  0  0  2  0  0  0  0  0  0
  184.9080  176.5750  136.2970 C   0  0  1  0  0  3  0  0  0  0  0  0
  189.1910  177.0460  138.5950 C   0  0  1  0  0  3  0  0  0  0  0  0
  188.8780  177.7830  142.8500 C   0  0  1  0  0  3  0  0  0  0  0  0
  188.0850  177.8780  139.1130 N   0  0  2  0  0  0  0  0  0  0  0  0
  191.7750  176.8070  137.4930 C   0  0  0  0  0  2  0  0  0  0  0  0
  184.3820  178.3660  138.0700 C   0  0  0  0  0  2  0  0  0  0  0  0
  191.5150  176.4740  138.8370 O   0  0  0  0  0  0  0  0  0  0  0  0
  185.7010  178.5100  138.8430 C   0  0  0  0  0  2  0  0  0  0  0  0
  185.9700  177.6140  135.8770 C   0  0  1  0  0  3  0  0  0  0  0  0
  190.5780  176.4320  136.6150 C   0  0  0  0  0  2  0  0  0  0  0  0
  188.1370  176.8190  136.4360 N   0  0  2  0  0  0  0  0  0  0  0  0
  185.4710  175.3020  136.4470 O   0  0  0  0  0  0  0  0  0  0  0  0
  184.8290  174.7610  137.4630 O   0  0  0  0  0  0  0  0  0  0  0  0
  184.6520  171.8650  135.9500 O   0  0  0  0  0  0  0  0  0  0  0  0
  186.3260  173.2350  136.4630 C   0  0  0  0  0  3  0  0  0  0  0  0
  185.3000  173.4470  137.5250 C   0  0  2  0  0  3  0  0  0  0  0  0
  185.9050  172.3310  135.6020 C   0  0  0  0  0  3  0  0  0  0  0  0
  184.1810  172.4850  137.1330 C   0  0  0  0  0  2  0  0  0  0  0  0
  1 26  1  6  0  0  0
  1 18  1  0  0  0  0
  2 27  1  0  0  0  0
  3 16  1  0  0  0  0
  3  7  2  0  0  0  0
  4 23  1  6  0  0  0
  4 15  1  0  0  0  0
  5 11  1  6  0  0  0
  5 19  1  0  0  0  0
  8 16  1  0  0  0  0
  9 13  1  0  0  0  0
 10 22  1  0  0  0  0
 12  8  1  0  0  0  0
 13 24  1  0  0  0  0
 13 20  1  0  0  0  0
 14  2  1  0  0  0  0
 14 25  1  0  0  0  0
 15  5  1  0  0  0  0
 15 12  1  0  0  0  0
 17 28  1  0  0  0  0
 17 10  1  0  0  0  0
 18 20  1  0  0  0  0
 18  4  1  0  0  0  0
 19  6  1  0  0  0  0
 19  3  1  0  0  0  0
 20 11  1  0  0  0  0
 21 23  1  0  0  0  0
 22 24  1  0  0  0  0
 25 17  1  0  0  0  0
 25  9  1  0  0  0  0
 26 21  1  0  0  0  0
 27  9  1  0  0  0  0
 27  1  1  0  0  0  0
 28 29  1  0  0  0  0
 29 32  1  0  0  0  0
 30 34  1  0  0  0  0
 31 32  1  0  0  0  0
 33 30  1  0  0  0  0
 33 31  2  0  0  0  0
 34 32  1  0  0  0  0
M  END
>  <MODEL>
5

>  <REMARK>
 VINA RESULT:      -6.4      2.173      4.642
  Name = 
  3 active torsions:
  status: ('A' for Active; 'I' for Inactive)
    1  A    between atoms: C_17  and  O_28
    2  A    between atoms: O_28  and  O_29
    3  A    between atoms: O_29  and  C_32
                            x       y       z     vdW  Elec       q    Type
                         _______ _______ _______ _____ _____    ______ ____

>  <TORSDO>
F 3

$$$$
=
 OpenBabel11122412263D

 34 40  0  0  1  0  0  0  0  0999 V2000
  189.3470  177.7540  139.2560 C   0  0  1  0  0  3  0  0  0  0  0  0
  188.7990  177.3850  136.9140 C   0  0  0  0  0  2  0  0  0  0  0  0
  187.3830  177.2350  145.2570 C   0  0  0  0  0  0  0  0  0  0  0  0
  189.7740  178.0000  141.7140 C   0  0  2  0  0  3  0  0  0  0  0  0
  187.8160  178.6460  143.1910 C   0  0  2  0  0  3  0  0  0  0  0  0
  185.6940  179.0120  144.6070 C   0  0  0  0  0  1  0  0  0  0  0  0
  186.4600  176.3860  145.3680 O   0  0  0  0  0  0  0  0  0  0  0  0
  189.7870  177.8930  145.6300 C   0  0  0  0  0  2  0  0  0  0  0  0
  187.2510  178.1850  138.3520 C   0  0  2  0  0  3  0  0  0  0  0  0
  184.1980  177.3320  138.1810 C   0  0  0  0  0  2  0  0  0  0  0  0
  186.9010  178.1420  142.0730 C   0  0  0  0  0  2  0  0  0  0  0  0
  190.1660  178.2860  144.1890 C   0  0  0  0  0  2  0  0  0  0  0  0
  186.5410  178.0860  139.7120 C   0  0  1  0  0  3  0  0  0  0  0  0
  187.5220  177.5190  136.0870 C   0  0  0  0  0  2  0  0  0  0  0  0
  189.1560  177.8790  143.1090 C   0  0  2  0  0  3  0  0  0  0  0  0
  188.7030  176.9130  145.7010 N   0  0  0  0  0  2  0  0  0  0  0  0
  185.3270  176.9240  137.2170 C   0  0  1  0  0  3  0  0  0  0  0  0
  188.7230  177.6200  140.6550 C   0  0  1  0  0  3  0  0  0  0  0  0
  187.1470  178.5540  144.5780 C   0  0  1  0  0  3  0  0  0  0  0  0
  187.5040  178.4470  140.7740 N   0  0  2  0  0  0  0  0  0  0  0  0
  191.5210  177.3960  140.3870 C   0  0  0  0  0  2  0  0  0  0  0  0
  184.2770  178.7850  138.6520 C   0  0  0  0  0  2  0  0  0  0  0  0
  190.8750  177.1220  141.6080 O   0  0  0  0  0  0  0  0  0  0  0  0
  185.3030  179.0020  139.7740 C   0  0  0  0  0  2  0  0  0  0  0  0
  186.4550  177.9690  137.0760 C   0  0  1  0  0  3  0  0  0  0  0  0
  190.6450  176.9480  139.2140 C   0  0  0  0  0  2  0  0  0  0  0  0
  188.3640  177.2600  138.2970 N   0  0  2  0  0  0  0  0  0  0  0  0
  185.8330  175.6750  137.5960 O   0  0  0  0  0  0  0  0  0  0  0  0
  184.8840  174.8140  137.2910 O   0  0  0  0  0  0  0  0  0  0  0  0
  185.0670  171.7340  136.2010 O   0  0  0  0  0  0  0  0  0  0  0  0
  186.5800  173.2890  136.6860 C   0  0  0  0  0  3  0  0  0  0  0  0
  185.4260  173.5620  137.5910 C   0  0  2  0  0  3  0  0  0  0  0  0
  186.3200  172.2460  135.9240 C   0  0  0  0  0  3  0  0  0  0  0  0
  184.4240  172.4700  137.2250 C   0  0  0  0  0  2  0  0  0  0  0  0
  1 26  1  1  0  0  0
  1 18  1  0  0  0  0
  2 27  1  0  0  0  0
  3  7  2  0  0  0  0
  3 16  1  0  0  0  0
  4 23  1  1  0  0  0
  4 15  1  0  0  0  0
  5 11  1  6  0  0  0
  5 19  1  0  0  0  0
  8 16  1  0  0  0  0
  9 13  1  0  0  0  0
 10 22  1  0  0  0  0
 12  8  1  0  0  0  0
 13 24  1  0  0  0  0
 13 20  1  0  0  0  0
 14  2  1  0  0  0  0
 14 25  1  0  0  0  0
 15  5  1  0  0  0  0
 15 12  1  0  0  0  0
 17 28  1  0  0  0  0
 17 10  1  0  0  0  0
 18 20  1  0  0  0  0
 18  4  1  0  0  0  0
 19  6  1  0  0  0  0
 19  3  1  0  0  0  0
 20 11  1  0  0  0  0
 21 23  1  0  0  0  0
 22 24  1  0  0  0  0
 25 17  1  0  0  0  0
 25  9  1  0  0  0  0
 26 21  1  0  0  0  0
 27  9  1  0  0  0  0
 27  1  1  0  0  0  0
 29 32  1  0  0  0  0
 29 28  1  0  0  0  0
 30 34  1  0  0  0  0
 31 32  1  0  0  0  0
 33 30  1  0  0  0  0
 33 31  2  0  0  0  0
 34 32  1  0  0  0  0
M  END
>  <MODEL>
6

>  <REMARK>
 VINA RESULT:      -6.4      2.086      3.917
  Name = 
  3 active torsions:
  status: ('A' for Active; 'I' for Inactive)
    1  A    between atoms: C_17  and  O_28
    2  A    between atoms: O_28  and  O_29
    3  A    between atoms: O_29  and  C_32
                            x       y       z     vdW  Elec       q    Type
                         _______ _______ _______ _____ _____    ______ ____

>  <TORSDO>
F 3

$$$$
=
 OpenBabel11122412263D

 34 40  0  0  1  0  0  0  0  0999 V2000
  183.5370  178.7850  139.4310 C   0  0  1  0  0  3  0  0  0  0  0  0
  181.2990  178.6830  138.4820 C   0  0  0  0  0  2  0  0  0  0  0  0
  187.2640  177.1590  144.2900 C   0  0  0  0  0  0  0  0  0  0  0  0
  185.7950  178.7350  140.5200 C   0  0  2  0  0  3  0  0  0  0  0  0
  185.8870  178.8950  143.0500 C   0  0  2  0  0  3  0  0  0  0  0  0
  185.8240  178.7660  145.6230 C   0  0  0  0  0  1  0  0  0  0  0  0
  186.7860  176.1860  144.9310 O   0  0  0  0  0  0  0  0  0  0  0  0
  188.9860  178.0750  142.6940 C   0  0  0  0  0  2  0  0  0  0  0  0
  181.6030  179.0550  140.6900 C   0  0  2  0  0  3  0  0  0  0  0  0
  179.6610  177.8310  142.8840 C   0  0  0  0  0  2  0  0  0  0  0  0
  184.4270  178.4360  143.0580 C   0  0  0  0  0  2  0  0  0  0  0  0
  188.0480  178.7160  141.6540 C   0  0  0  0  0  2  0  0  0  0  0  0
  182.2950  178.6690  142.0080 C   0  0  1  0  0  3  0  0  0  0  0  0
  179.8900  178.7600  139.0690 C   0  0  0  0  0  2  0  0  0  0  0  0
  186.5680  178.3340  141.7790 C   0  0  2  0  0  3  0  0  0  0  0  0
  188.3780  176.9580  143.4170 N   0  0  0  0  0  2  0  0  0  0  0  0
  179.5150  177.7210  141.3550 C   0  0  1  0  0  3  0  0  0  0  0  0
  184.3090  178.3720  140.6950 C   0  0  1  0  0  3  0  0  0  0  0  0
  186.6250  178.5170  144.3510 C   0  0  1  0  0  3  0  0  0  0  0  0
  183.7320  179.0010  141.9010 N   0  0  2  0  0  0  0  0  0  0  0  0
  185.7040  178.5670  138.2520 C   0  0  0  0  0  2  0  0  0  0  0  0
  180.1470  179.2000  143.3650 C   0  0  0  0  0  2  0  0  0  0  0  0
  186.3130  178.0380  139.4070 O   0  0  0  0  0  0  0  0  0  0  0  0
  181.6630  179.3910  143.2130 C   0  0  0  0  0  2  0  0  0  0  0  0
  180.0940  178.9170  140.5700 C   0  0  1  0  0  3  0  0  0  0  0  0
  184.2240  178.1760  138.2100 C   0  0  0  0  0  2  0  0  0  0  0  0
  182.1680  178.3050  139.5860 N   0  0  2  0  0  0  0  0  0  0  0  0
  180.0700  176.5100  140.9210 O   0  0  0  0  0  0  0  0  0  0  0  0
  179.0880  175.8860  140.3020 O   0  0  0  0  0  0  0  0  0  0  0  0
  179.9080  174.3780  137.5170 O   0  0  0  0  0  0  0  0  0  0  0  0
  181.0450  175.0090  139.3200 C   0  0  0  0  0  3  0  0  0  0  0  0
  179.6650  174.7160  139.8040 C   0  0  2  0  0  3  0  0  0  0  0  0
  181.1230  174.8000  138.0210 C   0  0  0  0  0  3  0  0  0  0  0  0
  178.9310  174.2830  138.5370 C   0  0  0  0  0  2  0  0  0  0  0  0
  1 26  1  6  0  0  0
  1 27  1  0  0  0  0
  1 18  1  0  0  0  0
  2 14  1  0  0  0  0
  2 27  1  0  0  0  0
  3 19  1  0  0  0  0
  3  7  2  0  0  0  0
  4 23  1  6  0  0  0
  4 18  1  0  0  0  0
  4 15  1  0  0  0  0
  5 11  1  1  0  0  0
  5 19  1  0  0  0  0
  8 16  1  0  0  0  0
  9 13  1  0  0  0  0
 10 22  1  0  0  0  0
 12 15  1  0  0  0  0
 12  8  1  0  0  0  0
 13 24  1  0  0  0  0
 14 25  1  0  0  0  0
 15  5  1  0  0  0  0
 16  3  1  0  0  0  0
 17 10  1  0  0  0  0
 18 20  1  0  0  0  0
 19  6  1  0  0  0  0
 20 13  1  0  0  0  0
 20 11  1  0  0  0  0
 21 23  1  0  0  0  0
 24 22  1  0  0  0  0
 25  9  1  0  0  0  0
 25 17  1  0  0  0  0
 26 21  1  0  0  0  0
 27  9  1  0  0  0  0
 28 17  1  0  0  0  0
 29 28  1  0  0  0  0
 30 33  1  0  0  0  0
 30 34  1  0  0  0  0
 31 32  1  0  0  0  0
 32 29  1  0  0  0  0
 33 31  2  0  0  0  0
 34 32  1  0  0  0  0
M  END
>  <MODEL>
7

>  <REMARK>
 VINA RESULT:      -6.2      3.681      7.342
  Name = 
  3 active torsions:
  status: ('A' for Active; 'I' for Inactive)
    1  A    between atoms: C_17  and  O_28
    2  A    between atoms: O_28  and  O_29
    3  A    between atoms: O_29  and  C_32
                            x       y       z     vdW  Elec       q    Type
                         _______ _______ _______ _____ _____    ______ ____

>  <TORSDO>
F 3

$$$$
=
 OpenBabel11122412263D

 34 40  0  0  1  0  0  0  0  0999 V2000
  183.2650  178.6430  141.3960 C   0  0  1  0  0  3  0  0  0  0  0  0
  180.9130  179.2200  141.6300 C   0  0  0  0  0  2  0  0  0  0  0  0
  188.3970  178.9020  137.6890 C   0  0  0  0  0  0  0  0  0  0  0  0
  185.7020  178.1900  141.0190 C   0  0  2  0  0  3  0  0  0  0  0  0
  186.4410  177.6070  138.6630 C   0  0  2  0  0  3  0  0  0  0  0  0
  187.0990  177.3220  136.1880 C   0  0  0  0  0  1  0  0  0  0  0  0
  188.2970  179.8150  136.8280 O   0  0  0  0  0  0  0  0  0  0  0  0
  189.4260  178.0210  139.8140 C   0  0  0  0  0  2  0  0  0  0  0  0
  181.7260  178.4530  139.6660 C   0  0  2  0  0  3  0  0  0  0  0  0
  180.7080  179.5690  136.8740 C   0  0  0  0  0  2  0  0  0  0  0  0
  185.1480  178.2630  138.1740 C   0  0  0  0  0  2  0  0  0  0  0  0
  188.1410  177.6990  140.6010 C   0  0  0  0  0  2  0  0  0  0  0  0
  182.8070  178.5150  138.5730 C   0  0  1  0  0  3  0  0  0  0  0  0
  179.7260  179.2510  140.6690 C   0  0  0  0  0  2  0  0  0  0  0  0
  186.8460  178.2640  140.0040 C   0  0  2  0  0  3  0  0  0  0  0  0
  189.2520  179.0800  138.8210 N   0  0  0  0  0  2  0  0  0  0  0  0
  180.1780  179.9470  138.2690 C   0  0  1  0  0  3  0  0  0  0  0  0
  184.4120  178.7300  140.3750 C   0  0  1  0  0  3  0  0  0  0  0  0
  187.5590  177.6570  137.6010 C   0  0  1  0  0  3  0  0  0  0  0  0
  184.0750  178.0020  139.1340 N   0  0  2  0  0  0  0  0  0  0  0  0
  185.0360  178.7370  143.1250 C   0  0  0  0  0  2  0  0  0  0  0  0
  181.0440  178.0840  136.7180 C   0  0  0  0  0  2  0  0  0  0  0  0
  186.0210  178.9780  142.1470 O   0  0  0  0  0  0  0  0  0  0  0  0
  182.4010  177.7040  137.3280 C   0  0  0  0  0  2  0  0  0  0  0  0
  180.2940  178.8240  139.3220 C   0  0  1  0  0  3  0  0  0  0  0  0
  183.6980  179.3390  142.6860 C   0  0  0  0  0  2  0  0  0  0  0  0
  182.1020  179.2830  140.7930 N   0  0  2  0  0  0  0  0  0  0  0  0
  180.8090  181.1190  138.7030 O   0  0  0  0  0  0  0  0  0  0  0  0
  181.2380  181.7040  137.6030 O   0  0  0  0  0  0  0  0  0  0  0  0
  181.5520  184.7080  136.3450 O   0  0  0  0  0  0  0  0  0  0  0  0
  179.9010  183.2200  136.3850 C   0  0  0  0  0  3  0  0  0  0  0  0
  180.6790  182.9840  137.6360 C   0  0  2  0  0  3  0  0  0  0  0  0
  180.4410  184.2050  135.6960 C   0  0  0  0  0  3  0  0  0  0  0  0
  181.7890  184.0290  137.5640 C   0  0  0  0  0  2  0  0  0  0  0  0
  1 26  1  1  0  0  0
  3 16  1  0  0  0  0
  4 23  1  1  0  0  0
  5 11  1  6  0  0  0
  5 15  1  0  0  0  0
  6 19  1  0  0  0  0
  7  3  2  0  0  0  0
  8 12  1  0  0  0  0
  9 27  1  0  0  0  0
 10 17  1  0  0  0  0
 11 20  1  0  0  0  0
 13 20  1  0  0  0  0
 13  9  1  0  0  0  0
 14  2  1  0  0  0  0
 15 12  1  0  0  0  0
 15  4  1  0  0  0  0
 16  8  1  0  0  0  0
 17 28  1  0  0  0  0
 17 25  1  0  0  0  0
 18  4  1  0  0  0  0
 18  1  1  0  0  0  0
 19  3  1  0  0  0  0
 19  5  1  0  0  0  0
 20 18  1  0  0  0  0
 22 10  1  0  0  0  0
 22 24  1  0  0  0  0
 23 21  1  0  0  0  0
 24 13  1  0  0  0  0
 25  9  1  0  0  0  0
 25 14  1  0  0  0  0
 26 21  1  0  0  0  0
 27  1  1  0  0  0  0
 27  2  1  0  0  0  0
 29 32  1  0  0  0  0
 29 28  1  0  0  0  0
 30 34  1  0  0  0  0
 31 32  1  0  0  0  0
 33 30  1  0  0  0  0
 33 31  2  0  0  0  0
 34 32  1  0  0  0  0
M  END
>  <MODEL>
8

>  <REMARK>
 VINA RESULT:      -6.0      3.189      8.007
  Name = 
  3 active torsions:
  status: ('A' for Active; 'I' for Inactive)
    1  A    between atoms: C_17  and  O_28
    2  A    between atoms: O_28  and  O_29
    3  A    between atoms: O_29  and  C_32
                            x       y       z     vdW  Elec       q    Type
                         _______ _______ _______ _____ _____    ______ ____

>  <TORSDO>
F 3

$$$$
=
 OpenBabel11122412263D

 34 40  0  0  1  0  0  0  0  0999 V2000
  185.6560  178.7180  138.4830 C   0  0  1  0  0  3  0  0  0  0  0  0
  183.2950  178.9910  137.9640 C   0  0  0  0  0  2  0  0  0  0  0  0
  189.9070  176.3180  142.5220 C   0  0  0  0  0  0  0  0  0  0  0  0
  188.0390  178.2830  139.1300 C   0  0  2  0  0  3  0  0  0  0  0  0
  188.6100  178.2980  141.6020 C   0  0  2  0  0  3  0  0  0  0  0  0
  188.9940  178.0470  144.1370 C   0  0  0  0  0  1  0  0  0  0  0  0
  189.4100  175.3930  143.2170 O   0  0  0  0  0  0  0  0  0  0  0  0
  191.4320  177.0550  140.6550 C   0  0  0  0  0  2  0  0  0  0  0  0
  184.0450  179.2010  140.0850 C   0  0  2  0  0  3  0  0  0  0  0  0
  182.3680  178.1600  142.5720 C   0  0  0  0  0  2  0  0  0  0  0  0
  187.1230  178.0560  141.8710 C   0  0  0  0  0  2  0  0  0  0  0  0
  190.4310  177.8790  139.8230 C   0  0  0  0  0  2  0  0  0  0  0  0
  184.8970  178.6500  141.2420 C   0  0  1  0  0  3  0  0  0  0  0  0
  182.0440  179.2420  138.8050 C   0  0  0  0  0  2  0  0  0  0  0  0
  188.9560  177.7100  140.2130 C   0  0  2  0  0  3  0  0  0  0  0  0
  190.8010  176.0030  141.4520 N   0  0  0  0  0  2  0  0  0  0  0  0
  181.9330  178.1510  141.0950 C   0  0  1  0  0  3  0  0  0  0  0  0
  186.5720  178.1310  139.5700 C   0  0  1  0  0  3  0  0  0  0  0  0
  189.5040  177.7500  142.7330 C   0  0  1  0  0  3  0  0  0  0  0  0
  186.3240  178.7750  140.8770 N   0  0  2  0  0  0  0  0  0  0  0  0
  187.5160  178.2480  136.9150 C   0  0  0  0  0  2  0  0  0  0  0  0
  183.1350  179.4170  142.9870 C   0  0  0  0  0  2  0  0  0  0  0  0
  188.2350  177.5770  137.9230 O   0  0  0  0  0  0  0  0  0  0  0  0
  184.6100  179.3930  142.5600 C   0  0  0  0  0  2  0  0  0  0  0  0
  182.5370  179.2900  140.2450 C   0  0  1  0  0  3  0  0  0  0  0  0
  186.0110  178.0790  137.1410 C   0  0  0  0  0  2  0  0  0  0  0  0
  184.2810  178.4350  138.8780 N   0  0  2  0  0  0  0  0  0  0  0  0
  182.2090  176.8970  140.5370 O   0  0  0  0  0  0  0  0  0  0  0  0
  181.0320  176.4000  140.2140 O   0  0  0  0  0  0  0  0  0  0  0  0
  181.0920  175.2390  137.1560 O   0  0  0  0  0  0  0  0  0  0  0  0
  182.6200  175.4350  138.7590 C   0  0  0  0  0  3  0  0  0  0  0  0
  181.3200  175.2540  139.4680 C   0  0  2  0  0  3  0  0  0  0  0  0
  182.4290  175.4180  137.4550 C   0  0  0  0  0  3  0  0  0  0  0  0
  180.3120  175.1180  138.3310 C   0  0  0  0  0  2  0  0  0  0  0  0
  1 26  1  6  0  0  0
  1 27  1  0  0  0  0
  1 18  1  0  0  0  0
  2 14  1  0  0  0  0
  2 27  1  0  0  0  0
  3 19  1  0  0  0  0
  3  7  2  0  0  0  0
  4 23  1  6  0  0  0
  4 18  1  0  0  0  0
  4 15  1  0  0  0  0
  5 11  1  1  0  0  0
  5 19  1  0  0  0  0
  8 16  1  0  0  0  0
  9 25  1  0  0  0  0
  9 13  1  0  0  0  0
 10 22  1  0  0  0  0
 12 15  1  0  0  0  0
 12  8  1  0  0  0  0
 13 24  1  0  0  0  0
 14 25  1  0  0  0  0
 15  5  1  0  0  0  0
 16  3  1  0  0  0  0
 17 10  1  0  0  0  0
 18 20  1  0  0  0  0
 19  6  1  0  0  0  0
 20 13  1  0  0  0  0
 20 11  1  0  0  0  0
 21 26  1  0  0  0  0
 21 23  1  0  0  0  0
 24 22  1  0  0  0  0
 25 17  1  0  0  0  0
 27  9  1  0  0  0  0
 28 17  1  0  0  0  0
 29 28  1  0  0  0  0
 30 33  1  0  0  0  0
 30 34  1  0  0  0  0
 31 32  1  0  0  0  0
 32 29  1  0  0  0  0
 33 31  2  0  0  0  0
 34 32  1  0  0  0  0
M  END
>  <MODEL>
9

>  <REMARK>
 VINA RESULT:      -5.9      2.701      6.625
  Name = 
  3 active torsions:
  status: ('A' for Active; 'I' for Inactive)
    1  A    between atoms: C_17  and  O_28
    2  A    between atoms: O_28  and  O_29
    3  A    between atoms: O_29  and  C_32
                            x       y       z     vdW  Elec       q    Type
                         _______ _______ _______ _____ _____    ______ ____

>  <TORSDO>
F 3

$$$$
