=
 OpenBabel11122410323D

 30 35  0  0  1  0  0  0  0  0999 V2000
  186.8930  177.8950  142.6320 C   0  0  2  0  0  3  0  0  0  0  0  0
  184.5230  178.9050  142.1740 C   0  0  0  0  0  0  0  0  0  0  0  0
  186.1660  178.0830  146.6470 N   0  0  0  0  0  2  0  0  0  0  0  0
  187.9010  178.0290  143.7820 C   0  0  2  0  0  3  0  0  0  0  0  0
  187.3110  178.6700  141.5340 O   0  0  0  0  0  0  0  0  0  0  0  0
  190.7820  177.6670  141.3450 O   0  0  0  0  0  1  0  0  0  0  0  0
  190.4960  176.6710  145.2490 C   0  0  0  0  0  0  0  0  0  0  0  0
  189.6420  178.2850  141.8670 C   0  0  1  0  0  3  0  0  0  0  0  0
  189.7090  177.0320  146.2580 C   0  0  1  0  0  3  0  0  0  0  0  0
  187.5140  177.9380  147.0560 C   0  0  0  0  0  0  0  0  0  0  0  0
  188.4230  178.0090  140.9870 C   0  0  2  0  0  3  0  0  0  0  0  0
  189.3760  177.8530  143.3210 C   0  0  2  0  0  3  0  0  0  0  0  0
  183.3070  179.6070  142.7010 C   0  0  0  0  0  2  0  0  0  0  0  0
  190.4350  177.0970  147.4750 N   0  0  0  0  0  0  0  0  0  0  0  0
  191.8790  176.4840  145.7670 C   0  0  0  0  0  3  0  0  0  0  0  0
  184.6930  178.8360  140.9300 O   0  0  0  0  0  0  0  0  0  0  0  0
  186.0310  177.3780  145.3800 C   0  0  2  0  0  3  0  0  0  0  0  0
  182.9210  179.1140  144.0660 C   0  0  0  0  0  3  0  0  0  0  0  0
  185.5200  178.3300  143.1150 C   0  0  0  0  0  0  0  0  0  0  0  0
  187.4710  177.0900  144.9140 C   0  0  2  0  0  3  0  0  0  0  0  0
  187.9800  178.3870  148.3260 N   0  0  0  0  0  1  0  0  0  0  0  0
  188.2730  177.3630  146.1390 C   0  0  0  0  0  0  0  0  0  0  0  0
  191.6630  176.7880  147.2160 C   0  0  0  0  0  3  0  0  0  0  0  0
  189.4260  175.2940  143.4350 C   0  0  0  0  0  1  0  0  0  0  0  0
  183.7770  178.4540  144.8480 C   0  0  0  0  0  3  0  0  0  0  0  0
  185.1440  178.1120  144.3990 C   0  0  0  0  0  0  0  0  0  0  0  0
  190.1320  176.5940  143.7920 C   0  0  2  0  0  3  0  0  0  0  0  0
  188.6760  178.5210  139.5740 C   0  0  0  0  0  2  0  0  0  0  0  0
  186.7010  178.5610  138.2320 O   0  0  0  0  0  1  0  0  0  0  0  0
  187.8110  177.7860  138.5670 C   0  0  0  0  0  2  0  0  0  0  0  0
  1  5  1  6  0  0  0
  1 19  1  0  0  0  0
  1  4  1  0  0  0  0
  2 13  1  0  0  0  0
  2 19  1  0  0  0  0
  3 10  1  0  0  0  0
  4 20  1  0  0  0  0
  6  8  1  0  0  0  0
  7 15  2  0  0  0  0
  7  9  1  0  0  0  0
  8 12  1  0  0  0  0
  9 14  1  0  0  0  0
 10 21  1  0  0  0  0
 11  5  1  0  0  0  0
 11  8  1  0  0  0  0
 12  4  1  0  0  0  0
 12 27  1  0  0  0  0
 13 18  1  0  0  0  0
 15 23  1  0  0  0  0
 16  2  2  0  0  0  0
 17  3  1  0  0  0  0
 18 25  2  0  0  0  0
 19 26  2  0  0  0  0
 20 17  1  0  0  0  0
 20 22  1  0  0  0  0
 22  9  1  0  0  0  0
 22 10  2  0  0  0  0
 23 14  2  0  0  0  0
 24 27  1  0  0  0  0
 26 25  1  0  0  0  0
 26 17  1  0  0  0  0
 27  7  1  0  0  0  0
 28 11  1  0  0  0  0
 29 30  1  0  0  0  0
 30 28  1  0  0  0  0
M  END
>  <MODEL>
1

>  <REMARK>
 VINA RESULT:     -10.0      0.000      0.000
  Name = 
  2 active torsions:
  status: ('A' for Active; 'I' for Inactive)
    1  A    between atoms: C_11  and  C_28
    2  A    between atoms: C_28  and  C_30
                            x       y       z     vdW  Elec       q    Type
                         _______ _______ _______ _____ _____    ______ ____

>  <TORSDO>
F 2

$$$$
=
 OpenBabel11122410323D

 30 35  0  0  1  0  0  0  0  0999 V2000
  186.8140  178.0170  141.0410 C   0  0  2  0  0  3  0  0  0  0  0  0
  184.9260  178.8990  139.4590 C   0  0  0  0  0  0  0  0  0  0  0  0
  184.4310  178.7890  144.2680 N   0  0  0  0  0  2  0  0  0  0  0  0
  187.2300  178.3420  142.4830 C   0  0  2  0  0  3  0  0  0  0  0  0
  187.7020  178.6280  140.1360 O   0  0  0  0  0  0  0  0  0  0  0  0
  190.8620  177.6780  141.6210 O   0  0  0  0  0  1  0  0  0  0  0  0
  188.8670  177.2710  145.1100 C   0  0  0  0  0  0  0  0  0  0  0  0
  189.6380  178.3440  141.5010 C   0  0  1  0  0  3  0  0  0  0  0  0
  187.7390  177.7630  145.6130 C   0  0  0  0  0  0  0  0  0  0  0  0
  185.4610  178.7340  145.2380 C   0  0  0  0  0  0  0  0  0  0  0  0
  188.9090  177.9150  140.2270 C   0  0  2  0  0  3  0  0  0  0  0  0
  188.7490  178.1290  142.7400 C   0  0  2  0  0  3  0  0  0  0  0  0
  183.6360  179.6480  139.2980 C   0  0  0  0  0  2  0  0  0  0  0  0
  187.8690  178.0240  147.0020 N   0  0  0  0  0  0  0  0  0  0  0  0
  189.8790  177.1920  146.1980 C   0  0  0  0  0  2  0  0  0  0  0  0
  185.6140  178.6490  138.4360 O   0  0  0  0  0  0  0  0  0  0  0  0
  184.8240  177.9000  143.1830 C   0  0  2  0  0  3  0  0  0  0  0  0
  182.6750  179.3570  140.4140 C   0  0  0  0  0  3  0  0  0  0  0  0
  185.3890  178.4920  140.8110 C   0  0  0  0  0  0  0  0  0  0  0  0
  186.3090  177.5740  143.4370 C   0  0  2  0  0  3  0  0  0  0  0  0
  185.3510  179.3770  146.5050 N   0  0  0  0  0  1  0  0  0  0  0  0
  186.5140  178.0430  144.8350 C   0  0  0  0  0  0  0  0  0  0  0  0
  189.0720  177.7040  147.3500 C   0  0  0  0  0  3  0  0  0  0  0  0
  188.6240  175.6170  143.2300 C   0  0  0  0  0  1  0  0  0  0  0  0
  183.0760  178.8380  141.5760 C   0  0  0  0  0  3  0  0  0  0  0  0
  184.4850  178.4610  141.8210 C   0  0  0  0  0  0  0  0  0  0  0  0
  189.1670  176.9700  143.6680 C   0  0  2  0  0  3  0  0  0  0  0  0
  189.7720  178.2150  139.0090 C   0  0  0  0  0  2  0  0  0  0  0  0
  188.9870  179.7060  137.3170 O   0  0  0  0  0  1  0  0  0  0  0  0
  188.9170  178.3890  137.7670 C   0  0  0  0  0  2  0  0  0  0  0  0
  1  5  1  6  0  0  0
  1  4  1  0  0  0  0
  2 19  1  0  0  0  0
  3 10  1  0  0  0  0
  4 12  1  0  0  0  0
  4 20  1  0  0  0  0
  5 11  1  0  0  0  0
  7  9  2  0  0  0  0
  7 15  1  0  0  0  0
  8  6  1  0  0  0  0
  8 12  1  0  0  0  0
  9 14  1  0  0  0  0
 10 21  1  0  0  0  0
 11  8  1  0  0  0  0
 12 27  1  0  0  0  0
 13  2  1  0  0  0  0
 13 18  1  0  0  0  0
 14 23  2  0  0  0  0
 15 23  1  0  0  0  0
 16  2  2  0  0  0  0
 17 20  1  0  0  0  0
 17  3  1  0  0  0  0
 18 25  2  0  0  0  0
 19  1  1  0  0  0  0
 19 26  2  0  0  0  0
 20 22  1  0  0  0  0
 22 10  2  0  0  0  0
 22  9  1  0  0  0  0
 24 27  1  0  0  0  0
 25 26  1  0  0  0  0
 26 17  1  0  0  0  0
 27  7  1  0  0  0  0
 28 11  1  0  0  0  0
 29 30  1  0  0  0  0
 30 28  1  0  0  0  0
M  END
>  <MODEL>
2

>  <REMARK>
 VINA RESULT:      -9.7      1.533      2.291
  Name = 
  2 active torsions:
  status: ('A' for Active; 'I' for Inactive)
    1  A    between atoms: C_11  and  C_28
    2  A    between atoms: C_28  and  C_30
                            x       y       z     vdW  Elec       q    Type
                         _______ _______ _______ _____ _____    ______ ____

>  <TORSDO>
F 2

$$$$
=
 OpenBabel11122410323D

 30 35  0  0  1  0  0  0  0  0999 V2000
  187.7150  178.1590  144.3980 C   0  0  2  0  0  3  0  0  0  0  0  0
  185.1880  178.3600  145.0450 C   0  0  0  0  0  0  0  0  0  0  0  0
  186.6840  178.3010  140.4480 N   0  0  0  0  0  2  0  0  0  0  0  0
  188.4590  177.5680  143.1920 C   0  0  2  0  0  3  0  0  0  0  0  0
  187.8110  177.2850  145.4970 O   0  0  0  0  0  0  0  0  0  0  0  0
  191.3580  176.5750  145.4240 O   0  0  0  0  0  1  0  0  0  0  0  0
  191.2690  177.5660  141.5090 C   0  0  0  0  0  0  0  0  0  0  0  0
  190.0250  176.5490  145.0010 C   0  0  1  0  0  3  0  0  0  0  0  0
  190.3310  177.6020  140.5680 C   0  0  0  0  0  0  0  0  0  0  0  0
  187.9120  177.8050  139.9480 C   0  0  0  0  0  0  0  0  0  0  0  0
  189.1400  177.3620  145.9450 C   0  0  2  0  0  3  0  0  0  0  0  0
  189.8790  177.0460  143.5500 C   0  0  2  0  0  3  0  0  0  0  0  0
  183.7490  178.2940  144.6250 C   0  0  0  0  0  2  0  0  0  0  0  0
  190.8530  177.2010  139.3110 N   0  0  0  0  0  0  0  0  0  0  0  0
  192.5400  177.0900  140.8980 C   0  0  0  0  0  2  0  0  0  0  0  0
  185.4630  178.3500  146.2730 O   0  0  0  0  0  0  0  0  0  0  0  0
  186.9830  178.9970  141.6910 C   0  0  2  0  0  3  0  0  0  0  0  0
  183.5320  178.9000  143.2690 C   0  0  0  0  0  3  0  0  0  0  0  0
  186.2630  178.4030  144.0200 C   0  0  0  0  0  0  0  0  0  0  0  0
  188.4250  178.5920  142.0520 C   0  0  2  0  0  3  0  0  0  0  0  0
  188.0230  177.1840  138.6700 N   0  0  0  0  0  1  0  0  0  0  0  0
  188.9180  177.9710  140.7910 C   0  0  0  0  0  0  0  0  0  0  0  0
  192.1010  176.9100  139.4780 C   0  0  0  0  0  3  0  0  0  0  0  0
  191.0910  179.2920  143.3300 C   0  0  0  0  0  1  0  0  0  0  0  0
  184.5340  179.0860  142.4090 C   0  0  0  0  0  3  0  0  0  0  0  0
  185.9340  178.7620  142.7550 C   0  0  0  0  0  0  0  0  0  0  0  0
  191.0920  177.8110  142.9820 C   0  0  2  0  0  3  0  0  0  0  0  0
  189.2340  176.8010  147.3580 C   0  0  0  0  0  2  0  0  0  0  0  0
  187.7660  177.9760  148.8310 O   0  0  0  0  0  1  0  0  0  0  0  0
  189.0870  177.9020  148.3920 C   0  0  0  0  0  2  0  0  0  0  0  0
  1 19  1  6  0  0  0
  1  5  1  0  0  0  0
  2 16  2  0  0  0  0
  3 17  1  0  0  0  0
  4 12  1  0  0  0  0
  4  1  1  0  0  0  0
  5 11  1  0  0  0  0
  7 27  1  0  0  0  0
  8  6  1  0  0  0  0
  8 11  1  0  0  0  0
  9 22  1  0  0  0  0
  9  7  2  0  0  0  0
 10  3  1  0  0  0  0
 10 22  2  0  0  0  0
 11 28  1  0  0  0  0
 12  8  1  0  0  0  0
 13  2  1  0  0  0  0
 14 23  2  0  0  0  0
 14  9  1  0  0  0  0
 15  7  1  0  0  0  0
 17 20  1  0  0  0  0
 17 26  1  0  0  0  0
 18 13  1  0  0  0  0
 19  2  1  0  0  0  0
 20  4  1  0  0  0  0
 21 10  1  0  0  0  0
 22 20  1  0  0  0  0
 23 15  1  0  0  0  0
 25 26  1  0  0  0  0
 25 18  2  0  0  0  0
 26 19  2  0  0  0  0
 27 24  1  0  0  0  0
 27 12  1  0  0  0  0
 28 30  1  0  0  0  0
 30 29  1  0  0  0  0
M  END
>  <MODEL>
3

>  <REMARK>
 VINA RESULT:      -8.9      3.389      5.406
  Name = 
  2 active torsions:
  status: ('A' for Active; 'I' for Inactive)
    1  A    between atoms: C_11  and  C_28
    2  A    between atoms: C_28  and  C_30
                            x       y       z     vdW  Elec       q    Type
                         _______ _______ _______ _____ _____    ______ ____

>  <TORSDO>
F 2

$$$$
=
 OpenBabel11122410323D

 30 35  0  0  1  0  0  0  0  0999 V2000
  184.4580  178.8530  141.0730 C   0  0  2  0  0  3  0  0  0  0  0  0
  184.6250  178.4440  138.4950 C   0  0  0  0  0  0  0  0  0  0  0  0
  188.2660  177.4420  141.5150 N   0  0  0  0  0  2  0  0  0  0  0  0
  185.0950  178.1820  142.2990 C   0  0  2  0  0  3  0  0  0  0  0  0
  183.1200  178.4360  140.9390 O   0  0  0  0  0  0  0  0  0  0  0  0
  181.9790  178.8820  144.3430 O   0  0  0  0  0  1  0  0  0  0  0  0
  185.8440  178.5390  145.4680 C   0  0  0  0  0  0  0  0  0  0  0  0
  182.6900  178.3130  143.2820 C   0  0  1  0  0  3  0  0  0  0  0  0
  186.9330  177.9890  144.9400 C   0  0  0  0  0  0  0  0  0  0  0  0
  188.1910  177.2260  142.9120 C   0  0  0  0  0  0  0  0  0  0  0  0
  182.4080  179.0580  141.9770 C   0  0  2  0  0  3  0  0  0  0  0  0
  184.2030  178.2670  143.5700 C   0  0  2  0  0  3  0  0  0  0  0  0
  185.3450  177.8070  137.3430 C   0  0  0  0  0  2  0  0  0  0  0  0
  187.7480  177.4040  145.9430 N   0  0  0  0  0  0  0  0  0  0  0  0
  185.8650  178.3200  146.9390 C   0  0  0  0  0  2  0  0  0  0  0  0
  183.4670  178.8990  138.3090 O   0  0  0  0  0  0  0  0  0  0  0  0
  187.3650  178.5440  141.2080 C   0  0  2  0  0  3  0  0  0  0  0  0
  186.8360  177.8660  137.5110 C   0  0  0  0  0  3  0  0  0  0  0  0
  185.2650  178.5030  139.8350 C   0  0  0  0  0  0  0  0  0  0  0  0
  186.5100  178.7410  142.4760 C   0  0  2  0  0  3  0  0  0  0  0  0
  189.0450  176.3090  143.5900 N   0  0  0  0  0  1  0  0  0  0  0  0
  187.2500  177.9490  143.4970 C   0  0  0  0  0  0  0  0  0  0  0  0
  187.1610  177.5850  147.0810 C   0  0  0  0  0  3  0  0  0  0  0  0
  184.9630  180.5970  144.3180 C   0  0  0  0  0  1  0  0  0  0  0  0
  187.4060  178.0810  138.6970 C   0  0  0  0  0  3  0  0  0  0  0  0
  186.6070  178.3330  139.9160 C   0  0  0  0  0  0  0  0  0  0  0  0
  184.6880  179.1580  144.7320 C   0  0  2  0  0  3  0  0  0  0  0  0
  180.9170  179.0180  141.6680 C   0  0  0  0  0  2  0  0  0  0  0  0
  179.3750  177.1960  141.7430 O   0  0  0  0  0  1  0  0  0  0  0  0
  180.5160  177.6700  141.0980 C   0  0  0  0  0  2  0  0  0  0  0  0
  1 19  1  6  0  0  0
  1  4  1  0  0  0  0
  2 19  1  0  0  0  0
  3 10  1  0  0  0  0
  4 20  1  0  0  0  0
  4 12  1  0  0  0  0
  5  1  1  0  0  0  0
  5 11  1  0  0  0  0
  7 15  1  0  0  0  0
  8 12  1  0  0  0  0
  8  6  1  0  0  0  0
  9  7  2  0  0  0  0
  9 14  1  0  0  0  0
 10 22  2  0  0  0  0
 10 21  1  0  0  0  0
 11  8  1  0  0  0  0
 12 27  1  0  0  0  0
 13 18  1  0  0  0  0
 13  2  1  0  0  0  0
 14 23  2  0  0  0  0
 15 23  1  0  0  0  0
 16  2  2  0  0  0  0
 17  3  1  0  0  0  0
 17 20  1  0  0  0  0
 18 25  2  0  0  0  0
 19 26  2  0  0  0  0
 20 22  1  0  0  0  0
 22  9  1  0  0  0  0
 24 27  1  0  0  0  0
 25 26  1  0  0  0  0
 26 17  1  0  0  0  0
 27  7  1  0  0  0  0
 28 11  1  0  0  0  0
 30 28  1  0  0  0  0
 30 29  1  0  0  0  0
M  END
>  <MODEL>
4

>  <REMARK>
 VINA RESULT:      -8.0      2.627      5.610
  Name = 
  2 active torsions:
  status: ('A' for Active; 'I' for Inactive)
    1  A    between atoms: C_11  and  C_28
    2  A    between atoms: C_28  and  C_30
                            x       y       z     vdW  Elec       q    Type
                         _______ _______ _______ _____ _____    ______ ____

>  <TORSDO>
F 2

$$$$
=
 OpenBabel11122410323D

 30 35  0  0  1  0  0  0  0  0999 V2000
  189.5420  177.0450  144.1100 C   0  0  2  0  0  3  0  0  0  0  0  0
  191.6630  176.9130  142.5840 C   0  0  0  0  0  0  0  0  0  0  0  0
  187.3500  178.3080  140.9030 N   0  0  0  0  0  2  0  0  0  0  0  0
  188.2770  177.9150  144.0980 C   0  0  2  0  0  3  0  0  0  0  0  0
  190.4260  177.4970  145.1070 O   0  0  0  0  0  0  0  0  0  0  0  0
  188.1300  177.8120  147.8850 O   0  0  0  0  0  1  0  0  0  0  0  0
  185.1830  178.1680  145.1440 C   0  0  0  0  0  0  0  0  0  0  0  0
  188.7180  178.1160  146.6540 C   0  0  1  0  0  3  0  0  0  0  0  0
  185.1230  178.5400  143.8700 C   0  0  0  0  0  0  0  0  0  0  0  0
  186.2550  178.8070  141.6500 C   0  0  0  0  0  0  0  0  0  0  0  0
  189.8500  177.1370  146.3360 C   0  0  2  0  0  3  0  0  0  0  0  0
  187.6800  178.1370  145.5160 C   0  0  2  0  0  3  0  0  0  0  0  0
  192.3320  177.2630  141.2870 C   0  0  0  0  0  2  0  0  0  0  0  0
  183.9360  179.2720  143.6060 N   0  0  0  0  0  0  0  0  0  0  0  0
  183.9760  178.6800  145.8480 C   0  0  0  0  0  2  0  0  0  0  0  0
  192.3690  176.4920  143.5370 O   0  0  0  0  0  0  0  0  0  0  0  0
  187.9270  177.2170  141.6760 C   0  0  2  0  0  3  0  0  0  0  0  0
  191.3900  177.1590  140.1240 C   0  0  0  0  0  3  0  0  0  0  0  0
  190.1960  177.0920  142.7390 C   0  0  0  0  0  0  0  0  0  0  0  0
  187.2960  177.3280  143.0780 C   0  0  2  0  0  3  0  0  0  0  0  0
  185.3660  179.7960  141.1370 N   0  0  0  0  0  1  0  0  0  0  0  0
  186.1640  178.2690  142.8550 C   0  0  0  0  0  0  0  0  0  0  0  0
  183.2740  179.3570  144.7130 C   0  0  0  0  0  3  0  0  0  0  0  0
  186.3160  175.9710  145.6140 C   0  0  0  0  0  1  0  0  0  0  0  0
  190.0660  177.1590  140.2830 C   0  0  0  0  0  3  0  0  0  0  0  0
  189.4380  177.2030  141.6210 C   0  0  0  0  0  0  0  0  0  0  0  0
  186.3240  177.4760  145.8380 C   0  0  2  0  0  3  0  0  0  0  0  0
  190.9070  177.1940  147.4320 C   0  0  0  0  0  2  0  0  0  0  0  0
  192.8320  176.0760  148.2960 O   0  0  0  0  0  1  0  0  0  0  0  0
  192.0110  176.1850  147.1750 C   0  0  0  0  0  2  0  0  0  0  0  0
  1 19  1  6  0  0  0
  1  5  1  0  0  0  0
  2 19  1  0  0  0  0
  2 16  2  0  0  0  0
  3 10  1  0  0  0  0
  3 17  1  0  0  0  0
  4  1  1  0  0  0  0
  4 12  1  0  0  0  0
  5 11  1  0  0  0  0
  7 27  1  0  0  0  0
  7 15  1  0  0  0  0
  8  6  1  0  0  0  0
  9  7  2  0  0  0  0
 10 22  2  0  0  0  0
 11  8  1  0  0  0  0
 11 28  1  0  0  0  0
 12 27  1  0  0  0  0
 12  8  1  0  0  0  0
 13  2  1  0  0  0  0
 14  9  1  0  0  0  0
 14 23  2  0  0  0  0
 17 20  1  0  0  0  0
 18 25  2  0  0  0  0
 18 13  1  0  0  0  0
 20  4  1  0  0  0  0
 21 10  1  0  0  0  0
 22 20  1  0  0  0  0
 22  9  1  0  0  0  0
 23 15  1  0  0  0  0
 24 27  1  0  0  0  0
 25 26  1  0  0  0  0
 26 17  1  0  0  0  0
 26 19  2  0  0  0  0
 30 28  1  0  0  0  0
 30 29  1  0  0  0  0
M  END
>  <MODEL>
5

>  <REMARK>
 VINA RESULT:      -7.6      3.146      6.691
  Name = 
  2 active torsions:
  status: ('A' for Active; 'I' for Inactive)
    1  A    between atoms: C_11  and  C_28
    2  A    between atoms: C_28  and  C_30
                            x       y       z     vdW  Elec       q    Type
                         _______ _______ _______ _____ _____    ______ ____

>  <TORSDO>
F 2

$$$$
=
 OpenBabel11122410323D

 30 35  0  0  1  0  0  0  0  0999 V2000
  186.0430  178.6570  140.5700 C   0  0  2  0  0  3  0  0  0  0  0  0
  187.1290  178.1810  138.2380 C   0  0  0  0  0  0  0  0  0  0  0  0
  189.4770  177.4020  142.3920 N   0  0  0  0  0  2  0  0  0  0  0  0
  186.2170  178.0450  141.9680 C   0  0  2  0  0  3  0  0  0  0  0  0
  184.8520  178.1870  139.9860 O   0  0  0  0  0  0  0  0  0  0  0  0
  182.5620  178.6870  142.7420 O   0  0  0  0  0  1  0  0  0  0  0  0
  185.7790  178.5200  145.1790 C   0  0  0  0  0  0  0  0  0  0  0  0
  183.6180  178.1140  142.0260 C   0  0  1  0  0  3  0  0  0  0  0  0
  186.9970  177.9960  145.0950 C   0  0  0  0  0  0  0  0  0  0  0  0
  188.9140  177.2230  143.6790 C   0  0  0  0  0  0  0  0  0  0  0  0
  183.8010  178.8110  140.6780 C   0  0  2  0  0  3  0  0  0  0  0  0
  184.9290  178.1330  142.8340 C   0  0  2  0  0  3  0  0  0  0  0  0
  188.2270  177.5390  137.4430 C   0  0  0  0  0  2  0  0  0  0  0  0
  187.4160  177.4700  146.3450 N   0  0  0  0  0  0  0  0  0  0  0  0
  185.2790  178.3430  146.5700 C   0  0  0  0  0  2  0  0  0  0  0  0
  186.1020  178.5880  137.6350 O   0  0  0  0  0  0  0  0  0  0  0  0
  188.7180  178.4610  141.7410 C   0  0  2  0  0  3  0  0  0  0  0  0
  189.5580  177.6590  138.1280 C   0  0  0  0  0  3  0  0  0  0  0  0
  187.2470  178.3020  139.7140 C   0  0  0  0  0  0  0  0  0  0  0  0
  187.4630  178.6610  142.6140 C   0  0  2  0  0  3  0  0  0  0  0  0
  189.4920  176.3570  144.6520 N   0  0  0  0  0  1  0  0  0  0  0  0
  187.8090  177.9270  143.8620 C   0  0  0  0  0  0  0  0  0  0  0  0
  186.4570  177.6610  147.1910 C   0  0  0  0  0  3  0  0  0  0  0  0
  185.3150  180.5090  143.7110 C   0  0  0  0  0  1  0  0  0  0  0  0
  189.6630  177.9280  139.4300 C   0  0  0  0  0  3  0  0  0  0  0  0
  188.4760  178.1850  140.2740 C   0  0  0  0  0  0  0  0  0  0  0  0
  184.9460  179.0740  144.0560 C   0  0  2  0  0  3  0  0  0  0  0  0
  182.5200  178.7070  139.8610 C   0  0  0  0  0  2  0  0  0  0  0  0
  183.4400  180.6980  138.9170 O   0  0  0  0  0  1  0  0  0  0  0  0
  182.5540  179.6500  138.6720 C   0  0  0  0  0  2  0  0  0  0  0  0
  1 19  1  6  0  0  0
  1  4  1  0  0  0  0
  2 19  1  0  0  0  0
  3 10  1  0  0  0  0
  4 20  1  0  0  0  0
  4 12  1  0  0  0  0
  5  1  1  0  0  0  0
  5 11  1  0  0  0  0
  7 15  1  0  0  0  0
  8  6  1  0  0  0  0
  8 12  1  0  0  0  0
  9  7  2  0  0  0  0
  9 14  1  0  0  0  0
 10 22  2  0  0  0  0
 10 21  1  0  0  0  0
 11  8  1  0  0  0  0
 12 27  1  0  0  0  0
 13 18  1  0  0  0  0
 13  2  1  0  0  0  0
 14 23  2  0  0  0  0
 15 23  1  0  0  0  0
 16  2  2  0  0  0  0
 17  3  1  0  0  0  0
 17 20  1  0  0  0  0
 18 25  2  0  0  0  0
 19 26  2  0  0  0  0
 20 22  1  0  0  0  0
 22  9  1  0  0  0  0
 24 27  1  0  0  0  0
 25 26  1  0  0  0  0
 26 17  1  0  0  0  0
 27  7  1  0  0  0  0
 28 11  1  0  0  0  0
 30 29  1  0  0  0  0
 30 28  1  0  0  0  0
M  END
>  <MODEL>
6

>  <REMARK>
 VINA RESULT:      -7.5      2.157      5.265
  Name = 
  2 active torsions:
  status: ('A' for Active; 'I' for Inactive)
    1  A    between atoms: C_11  and  C_28
    2  A    between atoms: C_28  and  C_30
                            x       y       z     vdW  Elec       q    Type
                         _______ _______ _______ _____ _____    ______ ____

>  <TORSDO>
F 2

$$$$
=
 OpenBabel11122410323D

 30 35  0  0  1  0  0  0  0  0999 V2000
  188.0300  177.8710  143.9020 C   0  0  2  0  0  3  0  0  0  0  0  0
  187.2470  177.7250  146.3940 C   0  0  0  0  0  0  0  0  0  0  0  0
  184.1800  178.6330  142.7670 N   0  0  0  0  0  2  0  0  0  0  0  0
  187.3520  177.5770  142.5560 C   0  0  2  0  0  3  0  0  0  0  0  0
  188.9110  176.8260  144.2350 O   0  0  0  0  0  0  0  0  0  0  0  0
  190.6670  176.4610  141.0920 O   0  0  0  0  0  1  0  0  0  0  0  0
  187.4390  178.1310  139.3280 C   0  0  0  0  0  0  0  0  0  0  0  0
  189.5980  176.3920  141.9920 C   0  0  1  0  0  3  0  0  0  0  0  0
  186.1530  178.2530  139.6410 C   0  0  1  0  0  3  0  0  0  0  0  0
  184.3640  178.3470  141.3920 C   0  0  0  0  0  0  0  0  0  0  0  0
  190.0040  176.9390  143.3600 C   0  0  2  0  0  3  0  0  0  0  0  0
  188.3550  177.1280  141.4560 C   0  0  2  0  0  3  0  0  0  0  0  0
  186.1200  177.6070  147.3780 C   0  0  0  0  0  2  0  0  0  0  0  0
  185.3330  178.1340  138.4890 N   0  0  0  0  0  0  0  0  0  0  0  0
  187.5530  177.8890  137.8650 C   0  0  0  0  0  3  0  0  0  0  0  0
  188.4230  177.5180  146.7900 O   0  0  0  0  0  0  0  0  0  0  0  0
  185.4570  179.1160  143.2730 C   0  0  2  0  0  3  0  0  0  0  0  0
  184.9310  178.4270  146.9680 C   0  0  0  0  0  3  0  0  0  0  0  0
  186.9650  178.0480  144.9710 C   0  0  0  0  0  0  0  0  0  0  0  0
  186.4870  178.7830  142.1750 C   0  0  2  0  0  3  0  0  0  0  0  0
  183.2850  177.9790  140.5380 N   0  0  0  0  0  1  0  0  0  0  0  0
  185.6260  178.4480  141.0080 C   0  0  0  0  0  0  0  0  0  0  0  0
  186.1090  177.9310  137.4750 C   0  0  0  0  0  3  0  0  0  0  0  0
  189.0560  179.4770  140.7090 C   0  0  0  0  0  1  0  0  0  0  0  0
  184.7630  178.8550  145.7160 C   0  0  0  0  0  3  0  0  0  0  0  0
  185.7660  178.5990  144.6600 C   0  0  0  0  0  0  0  0  0  0  0  0
  188.6070  178.0890  140.2750 C   0  0  2  0  0  3  0  0  0  0  0  0
  191.1810  176.1420  143.9090 C   0  0  0  0  0  2  0  0  0  0  0  0
  192.0550  175.7220  146.0920 O   0  0  0  0  0  1  0  0  0  0  0  0
  191.6800  176.7380  145.2130 C   0  0  0  0  0  2  0  0  0  0  0  0
  1  5  1  1  0  0  0
  1 19  1  0  0  0  0
  2 16  2  0  0  0  0
  2 13  1  0  0  0  0
  3 17  1  0  0  0  0
  4  1  1  0  0  0  0
  6  8  1  0  0  0  0
  7  9  1  0  0  0  0
  7 27  1  0  0  0  0
  8 11  1  0  0  0  0
  9 22  1  0  0  0  0
 10  3  1  0  0  0  0
 11 28  1  0  0  0  0
 11  5  1  0  0  0  0
 12  8  1  0  0  0  0
 12  4  1  0  0  0  0
 14  9  1  0  0  0  0
 15  7  2  0  0  0  0
 17 26  1  0  0  0  0
 18 13  1  0  0  0  0
 19  2  1  0  0  0  0
 20  4  1  0  0  0  0
 20 17  1  0  0  0  0
 21 10  1  0  0  0  0
 22 10  2  0  0  0  0
 22 20  1  0  0  0  0
 23 15  1  0  0  0  0
 23 14  2  0  0  0  0
 25 18  2  0  0  0  0
 26 19  2  0  0  0  0
 26 25  1  0  0  0  0
 27 24  1  0  0  0  0
 27 12  1  0  0  0  0
 28 30  1  0  0  0  0
 30 29  1  0  0  0  0
M  END
>  <MODEL>
7

>  <REMARK>
 VINA RESULT:      -7.5      2.853      5.834
  Name = 
  2 active torsions:
  status: ('A' for Active; 'I' for Inactive)
    1  A    between atoms: C_11  and  C_28
    2  A    between atoms: C_28  and  C_30
                            x       y       z     vdW  Elec       q    Type
                         _______ _______ _______ _____ _____    ______ ____

>  <TORSDO>
F 2

$$$$
=
 OpenBabel11122410323D

 30 35  0  0  1  0  0  0  0  0999 V2000
  188.1760  178.1480  141.0400 C   0  0  2  0  0  3  0  0  0  0  0  0
  187.3320  178.1180  143.5170 C   0  0  0  0  0  0  0  0  0  0  0  0
  184.3000  178.1670  139.7510 N   0  0  0  0  0  2  0  0  0  0  0  0
  187.6050  177.6200  139.7170 C   0  0  2  0  0  3  0  0  0  0  0  0
  189.1980  177.2950  141.4970 O   0  0  0  0  0  0  0  0  0  0  0  0
  191.1070  176.9150  138.4470 O   0  0  0  0  0  1  0  0  0  0  0  0
  187.7250  177.8660  136.4520 C   0  0  0  0  0  0  0  0  0  0  0  0
  190.0290  176.7630  139.3250 C   0  0  1  0  0  3  0  0  0  0  0  0
  186.4250  177.8090  136.7230 C   0  0  1  0  0  3  0  0  0  0  0  0
  184.5780  177.7820  138.4160 C   0  0  0  0  0  0  0  0  0  0  0  0
  190.2920  177.4980  140.6400 C   0  0  2  0  0  3  0  0  0  0  0  0
  188.7070  177.2340  138.6900 C   0  0  2  0  0  3  0  0  0  0  0  0
  186.2020  177.9170  144.4830 C   0  0  0  0  0  2  0  0  0  0  0  0
  185.6780  177.4490  135.5710 N   0  0  0  0  0  0  0  0  0  0  0  0
  187.9300  177.5050  135.0240 C   0  0  0  0  0  3  0  0  0  0  0  0
  188.5110  178.1430  143.9580 O   0  0  0  0  0  0  0  0  0  0  0  0
  185.4650  178.8960  140.2330 C   0  0  2  0  0  3  0  0  0  0  0  0
  184.9150  178.4910  143.9660 C   0  0  0  0  0  3  0  0  0  0  0  0
  187.0570  178.2540  142.0630 C   0  0  0  0  0  0  0  0  0  0  0  0
  186.5750  178.6280  139.1970 C   0  0  2  0  0  3  0  0  0  0  0  0
  183.6040  177.1650  137.5800 N   0  0  0  0  0  1  0  0  0  0  0  0
  185.8220  178.0470  138.0520 C   0  0  0  0  0  0  0  0  0  0  0  0
  186.5140  177.2760  134.6000 C   0  0  0  0  0  3  0  0  0  0  0  0
  189.0550  179.5820  137.7240 C   0  0  0  0  0  1  0  0  0  0  0  0
  184.7290  178.7630  142.6740 C   0  0  0  0  0  3  0  0  0  0  0  0
  185.7990  178.5720  141.6710 C   0  0  0  0  0  0  0  0  0  0  0  0
  188.8480  178.1040  137.4240 C   0  0  2  0  0  3  0  0  0  0  0  0
  191.5580  176.9570  141.2920 C   0  0  0  0  0  2  0  0  0  0  0  0
  191.6800  176.3520  143.5990 O   0  0  0  0  0  1  0  0  0  0  0  0
  191.6790  177.4390  142.7260 C   0  0  0  0  0  2  0  0  0  0  0  0
  1  5  1  1  0  0  0
  1 19  1  0  0  0  0
  2 16  2  0  0  0  0
  2 13  1  0  0  0  0
  3 17  1  0  0  0  0
  4  1  1  0  0  0  0
  6  8  1  0  0  0  0
  7  9  1  0  0  0  0
  7 27  1  0  0  0  0
  8 11  1  0  0  0  0
  9 22  1  0  0  0  0
 10  3  1  0  0  0  0
 11 28  1  0  0  0  0
 11  5  1  0  0  0  0
 12  8  1  0  0  0  0
 12  4  1  0  0  0  0
 14  9  1  0  0  0  0
 15  7  2  0  0  0  0
 17 26  1  0  0  0  0
 18 13  1  0  0  0  0
 19  2  1  0  0  0  0
 20  4  1  0  0  0  0
 20 17  1  0  0  0  0
 21 10  1  0  0  0  0
 22 10  2  0  0  0  0
 22 20  1  0  0  0  0
 23 15  1  0  0  0  0
 23 14  2  0  0  0  0
 25 18  2  0  0  0  0
 26 19  2  0  0  0  0
 26 25  1  0  0  0  0
 27 24  1  0  0  0  0
 27 12  1  0  0  0  0
 28 30  1  0  0  0  0
 30 29  1  0  0  0  0
M  END
>  <MODEL>
8

>  <REMARK>
 VINA RESULT:      -7.4      3.629      6.880
  Name = 
  2 active torsions:
  status: ('A' for Active; 'I' for Inactive)
    1  A    between atoms: C_11  and  C_28
    2  A    between atoms: C_28  and  C_30
                            x       y       z     vdW  Elec       q    Type
                         _______ _______ _______ _____ _____    ______ ____

>  <TORSDO>
F 2

$$$$
=
 OpenBabel11122410323D

 30 35  0  0  1  0  0  0  0  0999 V2000
  188.3210  177.8350  144.7840 C   0  0  2  0  0  3  0  0  0  0  0  0
  188.8840  177.3840  147.2990 C   0  0  0  0  0  0  0  0  0  0  0  0
  184.4940  178.7930  145.8420 N   0  0  0  0  0  2  0  0  0  0  0  0
  187.0400  177.7240  143.9460 C   0  0  2  0  0  3  0  0  0  0  0  0
  189.1660  176.7420  144.5150 O   0  0  0  0  0  0  0  0  0  0  0  0
  189.0760  176.7540  140.8990 O   0  0  0  0  0  1  0  0  0  0  0  0
  185.5400  178.6830  141.1960 C   0  0  0  0  0  0  0  0  0  0  0  0
  188.6010  176.5870  142.2030 C   0  0  1  0  0  3  0  0  0  0  0  0
  184.5970  178.7830  142.1280 C   0  0  1  0  0  3  0  0  0  0  0  0
  183.9410  178.6810  144.5430 C   0  0  0  0  0  0  0  0  0  0  0  0
  189.6790  176.9490  143.2240 C   0  0  2  0  0  3  0  0  0  0  0  0
  187.3180  177.4040  142.4500 C   0  0  2  0  0  3  0  0  0  0  0  0
  188.3970  177.1600  148.7000 C   0  0  0  0  0  2  0  0  0  0  0  0
  183.3040  178.8250  141.5450 N   0  0  0  0  0  0  0  0  0  0  0  0
  184.8850  178.6280  139.8610 C   0  0  0  0  0  3  0  0  0  0  0  0
  190.0800  177.1110  147.0210 O   0  0  0  0  0  0  0  0  0  0  0  0
  185.8850  179.1890  145.6770 C   0  0  2  0  0  3  0  0  0  0  0  0
  187.2310  178.0430  149.0360 C   0  0  0  0  0  3  0  0  0  0  0  0
  187.9530  177.8910  146.2570 C   0  0  0  0  0  0  0  0  0  0  0  0
  186.1970  178.9820  144.1820 C   0  0  2  0  0  3  0  0  0  0  0  0
  182.5540  178.4420  144.3220 N   0  0  0  0  0  1  0  0  0  0  0  0
  184.8430  178.8110  143.5850 C   0  0  0  0  0  0  0  0  0  0  0  0
  183.4480  178.7410  140.2630 C   0  0  0  0  0  3  0  0  0  0  0  0
  187.7290  179.8180  141.6950 C   0  0  0  0  0  1  0  0  0  0  0  0
  186.4910  178.6290  148.0940 C   0  0  0  0  0  3  0  0  0  0  0  0
  186.8070  178.4950  146.6550 C   0  0  0  0  0  0  0  0  0  0  0  0
  187.0170  178.5030  141.4100 C   0  0  2  0  0  3  0  0  0  0  0  0
  190.9070  176.0710  143.0160 C   0  0  0  0  0  2  0  0  0  0  0  0
  192.2930  174.6500  144.3430 O   0  0  0  0  0  1  0  0  0  0  0  0
  191.6800  175.9010  144.3110 C   0  0  0  0  0  2  0  0  0  0  0  0
  1  5  1  1  0  0  0
  1 19  1  0  0  0  0
  2 13  1  0  0  0  0
  4 20  1  0  0  0  0
  4  1  1  0  0  0  0
  6  8  1  0  0  0  0
  7 27  1  0  0  0  0
  7  9  1  0  0  0  0
  8 12  1  0  0  0  0
  8 11  1  0  0  0  0
  9 22  1  0  0  0  0
 10  3  1  0  0  0  0
 11  5  1  0  0  0  0
 12  4  1  0  0  0  0
 13 18  1  0  0  0  0
 14  9  1  0  0  0  0
 15 23  1  0  0  0  0
 15  7  2  0  0  0  0
 16  2  2  0  0  0  0
 17  3  1  0  0  0  0
 17 26  1  0  0  0  0
 19 26  2  0  0  0  0
 19  2  1  0  0  0  0
 20 17  1  0  0  0  0
 21 10  1  0  0  0  0
 22 20  1  0  0  0  0
 22 10  2  0  0  0  0
 23 14  2  0  0  0  0
 25 18  2  0  0  0  0
 26 25  1  0  0  0  0
 27 24  1  0  0  0  0
 27 12  1  0  0  0  0
 28 11  1  0  0  0  0
 28 30  1  0  0  0  0
 30 29  1  0  0  0  0
M  END
>  <MODEL>
9

>  <REMARK>
 VINA RESULT:      -7.3      2.432      5.791
  Name = 
  2 active torsions:
  status: ('A' for Active; 'I' for Inactive)
    1  A    between atoms: C_11  and  C_28
    2  A    between atoms: C_28  and  C_30
                            x       y       z     vdW  Elec       q    Type
                         _______ _______ _______ _____ _____    ______ ____

>  <TORSDO>
F 2

$$$$
