=
 OpenBabel11122410523D

 32 37  0  0  1  0  0  0  0  0999 V2000
  182.9240  177.3330  139.0460 C   0  0  0  0  0  2  0  0  0  0  0  0
  185.5740  177.9740  142.6120 C   0  0  2  0  0  3  0  0  0  0  0  0
  189.5840  177.7280  139.7300 C   0  0  0  0  0  3  0  0  0  0  0  0
  190.2390  176.9910  140.7160 C   0  0  0  0  0  3  0  0  0  0  0  0
  186.0560  178.1160  145.1440 C   0  0  0  0  0  0  0  0  0  0  0  0
  187.1500  178.2310  146.1390 C   0  0  1  0  0  3  0  0  0  0  0  0
  183.5340  179.0860  141.6020 C   0  0  1  0  0  3  0  0  0  0  0  0
  185.5470  178.5830  140.2890 O   0  0  0  0  0  0  0  0  0  0  0  0
  188.7440  177.0750  147.2580 C   0  0  2  0  0  3  0  0  0  0  0  0
  183.8050  179.7480  139.0940 C   0  0  0  0  0  2  0  0  0  0  0  0
  188.3150  178.2520  139.9810 C   0  0  0  0  0  3  0  0  0  0  0  0
  186.3300  178.6510  141.4570 C   0  0  2  0  0  3  0  0  0  0  0  0
  187.6830  178.0410  141.2160 C   0  0  0  0  0  0  0  0  0  0  0  0
  187.7290  177.0710  143.5740 C   0  0  1  0  0  3  0  0  0  0  0  0
  187.8100  177.6430  148.2020 N   0  0  0  0  0  2  0  0  0  0  0  0
  183.1710  177.0600  140.5340 C   0  0  0  0  0  2  0  0  0  0  0  0
  184.4920  179.5040  140.4450 C   0  0  1  0  0  3  0  0  0  0  0  0
  186.8680  178.2670  147.5920 C   0  0  0  0  0  2  0  0  0  0  0  0
  182.5890  178.0600  141.3330 O   0  0  0  0  0  0  0  0  0  0  0  0
  182.6370  178.8130  138.7580 C   0  0  1  0  0  3  0  0  0  0  0  0
  189.6330  176.7950  141.9580 C   0  0  0  0  0  3  0  0  0  0  0  0
  188.3680  177.3400  142.2340 C   0  0  0  0  0  0  0  0  0  0  0  0
  188.7400  177.2530  144.7370 C   0  0  0  0  0  2  0  0  0  0  0  0
  184.3170  178.8110  142.8870 C   0  0  0  0  0  2  0  0  0  0  0  0
  184.8490  178.2530  145.4810 O   0  0  0  0  0  0  0  0  0  0  0  0
  190.0150  177.9250  147.2220 C   0  0  0  0  0  1  0  0  0  0  0  0
  186.4610  177.8250  143.7800 N   0  0  0  0  0  0  0  0  0  0  0  0
  188.0100  177.0810  145.9870 N   0  0  2  0  0  0  0  0  0  0  0  0
  182.2440  179.0050  137.3020 C   0  0  0  0  0  2  0  0  0  0  0  0
  181.0790  179.9330  137.1740 C   0  0  0  0  0  0  0  0  0  0  0  0
  180.8060  180.6040  135.8730 C   0  0  0  0  0  1  0  0  0  0  0  0
  180.3630  180.1590  138.1360 O   0  0  0  0  0  0  0  0  0  0  0  0
  1 16  1  0  0  0  0
  2 24  1  1  0  0  0
  2 27  1  0  0  0  0
  3 11  2  0  0  0  0
  3  4  1  0  0  0  0
  4 21  2  0  0  0  0
  5 25  2  0  0  0  0
  5  6  1  0  0  0  0
  6 18  1  1  0  0  0
  7 24  1  1  0  0  0
  8 17  1  0  0  0  0
  9 26  1  6  0  0  0
  9 15  1  0  0  0  0
 11 13  1  0  0  0  0
 12  8  1  6  0  0  0
 12  2  1  0  0  0  0
 13 12  1  0  0  0  0
 13 22  2  0  0  0  0
 14 27  1  0  0  0  0
 14 23  1  1  0  0  0
 16 19  1  0  0  0  0
 17 10  1  6  0  0  0
 17  7  1  0  0  0  0
 18 15  1  0  0  0  0
 19  7  1  0  0  0  0
 20 29  1  6  0  0  0
 20  1  1  0  0  0  0
 20 10  1  0  0  0  0
 21 22  1  0  0  0  0
 22 14  1  0  0  0  0
 27  5  1  0  0  0  0
 28 23  1  6  0  0  0
 28  6  1  0  0  0  0
 28  9  1  0  0  0  0
 30 29  1  0  0  0  0
 30 32  2  0  0  0  0
 31 30  1  0  0  0  0
M  END
>  <MODEL>
1

>  <REMARK>
 VINA RESULT:      -8.6      0.000      0.000
  Name = 
  2 active torsions:
  status: ('A' for Active; 'I' for Inactive)
    1  A    between atoms: C_20  and  C_29
    2  A    between atoms: C_29  and  C_30
                            x       y       z     vdW  Elec       q    Type
                         _______ _______ _______ _____ _____    ______ ____

>  <TORSDO>
F 2

$$$$
=
 OpenBabel11122410523D

 32 37  0  0  1  0  0  0  0  0999 V2000
  188.5340  176.0570  136.9120 C   0  0  0  0  0  2  0  0  0  0  0  0
  187.2160  177.7590  140.8500 C   0  0  2  0  0  3  0  0  0  0  0  0
  191.7530  177.1000  142.7020 C   0  0  0  0  0  3  0  0  0  0  0  0
  191.1930  176.6810  143.9090 C   0  0  0  0  0  3  0  0  0  0  0  0
  185.4490  178.5620  142.5510 C   0  0  0  0  0  0  0  0  0  0  0  0
  185.2680  179.0020  143.9570 C   0  0  1  0  0  3  0  0  0  0  0  0
  187.0880  178.4310  138.4120 C   0  0  1  0  0  3  0  0  0  0  0  0
  189.1930  177.7670  139.4870 O   0  0  0  0  0  0  0  0  0  0  0  0
  185.0520  178.2810  146.0930 C   0  0  2  0  0  3  0  0  0  0  0  0
  189.3900  178.4660  137.1860 C   0  0  0  0  0  2  0  0  0  0  0  0
  190.9300  177.5750  141.6800 C   0  0  0  0  0  3  0  0  0  0  0  0
  188.6900  178.1810  140.7340 C   0  0  2  0  0  3  0  0  0  0  0  0
  189.5380  177.6310  141.8490 C   0  0  0  0  0  0  0  0  0  0  0  0
  187.4830  177.2850  143.3180 C   0  0  1  0  0  3  0  0  0  0  0  0
  183.8580  178.9960  145.7030 N   0  0  0  0  0  2  0  0  0  0  0  0
  187.4160  176.1810  137.9520 C   0  0  0  0  0  2  0  0  0  0  0  0
  188.6330  178.6170  138.5120 C   0  0  1  0  0  3  0  0  0  0  0  0
  183.9340  179.3770  144.4800 C   0  0  0  0  0  2  0  0  0  0  0  0
  186.6090  177.3040  137.6920 O   0  0  0  0  0  0  0  0  0  0  0  0
  188.8560  177.3930  136.2290 C   0  0  1  0  0  3  0  0  0  0  0  0
  189.8120  176.7570  144.0990 C   0  0  0  0  0  3  0  0  0  0  0  0
  188.9740  177.2580  143.0890 C   0  0  0  0  0  0  0  0  0  0  0  0
  187.1300  177.8250  144.7290 C   0  0  0  0  0  2  0  0  0  0  0  0
  186.4320  178.5440  139.7890 C   0  0  0  0  0  2  0  0  0  0  0  0
  184.5260  178.6890  141.7030 O   0  0  0  0  0  0  0  0  0  0  0  0
  185.9320  179.1870  146.9570 C   0  0  0  0  0  1  0  0  0  0  0  0
  186.7360  177.9710  142.2280 N   0  0  0  0  0  0  0  0  0  0  0  0
  185.6780  177.9170  144.8170 N   0  0  2  0  0  0  0  0  0  0  0  0
  189.8540  177.1870  135.1000 C   0  0  0  0  0  2  0  0  0  0  0  0
  190.6740  175.9570  135.3210 C   0  0  0  0  0  0  0  0  0  0  0  0
  191.8570  176.0070  136.2250 C   0  0  0  0  0  1  0  0  0  0  0  0
  190.3900  174.9160  134.7500 O   0  0  0  0  0  0  0  0  0  0  0  0
  1 16  1  0  0  0  0
  2 24  1  6  0  0  0
  2 27  1  0  0  0  0
  3  4  1  0  0  0  0
  4 21  2  0  0  0  0
  5  6  1  0  0  0  0
  6 18  1  6  0  0  0
  6 28  1  0  0  0  0
  7 17  1  0  0  0  0
  7 24  1  1  0  0  0
  9 26  1  1  0  0  0
 11 13  1  0  0  0  0
 11  3  2  0  0  0  0
 12  8  1  6  0  0  0
 12  2  1  0  0  0  0
 12 13  1  0  0  0  0
 13 22  2  0  0  0  0
 14 23  1  1  0  0  0
 15  9  1  0  0  0  0
 17 10  1  6  0  0  0
 17  8  1  0  0  0  0
 18 15  1  0  0  0  0
 19 16  1  0  0  0  0
 19  7  1  0  0  0  0
 20 29  1  6  0  0  0
 20  1  1  0  0  0  0
 20 10  1  0  0  0  0
 22 14  1  0  0  0  0
 22 21  1  0  0  0  0
 25  5  2  0  0  0  0
 27  5  1  0  0  0  0
 27 14  1  0  0  0  0
 28 23  1  1  0  0  0
 28  9  1  0  0  0  0
 29 30  1  0  0  0  0
 30 31  1  0  0  0  0
 32 30  2  0  0  0  0
M  END
>  <MODEL>
2

>  <REMARK>
 VINA RESULT:      -8.1      3.013      5.273
  Name = 
  2 active torsions:
  status: ('A' for Active; 'I' for Inactive)
    1  A    between atoms: C_20  and  C_29
    2  A    between atoms: C_29  and  C_30
                            x       y       z     vdW  Elec       q    Type
                         _______ _______ _______ _____ _____    ______ ____

>  <TORSDO>
F 2

$$$$
=
 OpenBabel11122410523D

 32 37  0  0  1  0  0  0  0  0999 V2000
  189.7850  176.0850  144.8660 C   0  0  0  0  0  2  0  0  0  0  0  0
  189.0930  177.3690  140.6210 C   0  0  2  0  0  3  0  0  0  0  0  0
  184.7570  179.3780  141.8910 C   0  0  0  0  0  3  0  0  0  0  0  0
  184.1950  178.8930  140.7100 C   0  0  0  0  0  3  0  0  0  0  0  0
  189.5960  177.3670  138.0890 C   0  0  0  0  0  0  0  0  0  0  0  0
  189.0820  177.8310  136.7770 C   0  0  1  0  0  3  0  0  0  0  0  0
  190.9560  177.5540  142.3260 C   0  0  1  0  0  3  0  0  0  0  0  0
  188.6440  178.2100  142.8250 O   0  0  0  0  0  0  0  0  0  0  0  0
  187.5980  177.3880  135.1250 C   0  0  2  0  0  3  0  0  0  0  0  0
  190.2280  178.6030  144.6010 C   0  0  0  0  0  2  0  0  0  0  0  0
  186.1250  179.2250  142.1230 C   0  0  0  0  0  3  0  0  0  0  0  0
  188.4190  178.4670  141.4590 C   0  0  2  0  0  3  0  0  0  0  0  0
  186.9450  178.5810  141.1840 C   0  0  0  0  0  0  0  0  0  0  0  0
  187.2180  177.4260  138.9270 C   0  0  1  0  0  3  0  0  0  0  0  0
  188.9400  177.3320  134.5940 N   0  0  0  0  0  2  0  0  0  0  0  0
  189.9410  175.7530  143.3780 C   0  0  0  0  0  2  0  0  0  0  0  0
  189.9940  178.5170  143.0870 C   0  0  1  0  0  3  0  0  0  0  0  0
  189.8060  177.5340  135.5190 C   0  0  0  0  0  2  0  0  0  0  0  0
  191.1530  176.2580  142.8730 O   0  0  0  0  0  0  0  0  0  0  0  0
  190.6280  177.2940  145.2920 C   0  0  1  0  0  3  0  0  0  0  0  0
  185.0030  178.2740  139.7560 C   0  0  0  0  0  3  0  0  0  0  0  0
  186.3850  178.1380  139.9650 C   0  0  0  0  0  0  0  0  0  0  0  0
  186.8600  177.8880  137.4900 C   0  0  0  0  0  2  0  0  0  0  0  0
  190.6070  177.4940  140.8380 C   0  0  0  0  0  2  0  0  0  0  0  0
  190.7560  176.8900  138.2050 O   0  0  0  0  0  0  0  0  0  0  0  0
  186.9510  178.7210  134.7420 C   0  0  0  0  0  1  0  0  0  0  0  0
  188.6800  177.4830  139.2100 N   0  0  0  0  0  0  0  0  0  0  0  0
  187.7840  177.2330  136.5730 N   0  0  2  0  0  0  0  0  0  0  0  0
  190.5640  177.4830  146.7990 C   0  0  0  0  0  2  0  0  0  0  0  0
  191.6750  176.7520  147.4830 C   0  0  0  0  0  0  0  0  0  0  0  0
  192.1230  175.4310  146.9640 C   0  0  0  0  0  1  0  0  0  0  0  0
  192.2020  177.2250  148.4770 O   0  0  0  0  0  0  0  0  0  0  0  0
  1 20  1  0  0  0  0
  2 24  1  6  0  0  0
  2 12  1  0  0  0  0
  3 11  1  0  0  0  0
  4  3  2  0  0  0  0
  5 25  2  0  0  0  0
  5 27  1  0  0  0  0
  6 18  1  6  0  0  0
  6  5  1  0  0  0  0
  7 24  1  6  0  0  0
  7 19  1  0  0  0  0
  7 17  1  0  0  0  0
  8 17  1  0  0  0  0
  9 26  1  1  0  0  0
  9 28  1  0  0  0  0
 10 20  1  0  0  0  0
 12 13  1  1  0  0  0
 12  8  1  0  0  0  0
 13 11  2  0  0  0  0
 14 23  1  6  0  0  0
 14 27  1  0  0  0  0
 14 22  1  0  0  0  0
 15  9  1  0  0  0  0
 15 18  1  0  0  0  0
 16  1  1  0  0  0  0
 17 10  1  1  0  0  0
 19 16  1  0  0  0  0
 20 29  1  1  0  0  0
 21 22  2  0  0  0  0
 21  4  1  0  0  0  0
 22 13  1  0  0  0  0
 27  2  1  0  0  0  0
 28  6  1  0  0  0  0
 28 23  1  1  0  0  0
 29 30  1  0  0  0  0
 30 32  2  0  0  0  0
 31 30  1  0  0  0  0
M  END
>  <MODEL>
3

>  <REMARK>
 VINA RESULT:      -6.8      3.894      9.211
  Name = 
  2 active torsions:
  status: ('A' for Active; 'I' for Inactive)
    1  A    between atoms: C_20  and  C_29
    2  A    between atoms: C_29  and  C_30
                            x       y       z     vdW  Elec       q    Type
                         _______ _______ _______ _____ _____    ______ ____

>  <TORSDO>
F 2

$$$$
=
 OpenBabel11122410523D

 32 37  0  0  1  0  0  0  0  0999 V2000
  181.5900  180.8750  138.7210 C   0  0  0  0  0  2  0  0  0  0  0  0
  185.1730  178.8210  140.4780 C   0  0  2  0  0  3  0  0  0  0  0  0
  182.9790  178.6890  144.9070 C   0  0  0  0  0  3  0  0  0  0  0  0
  184.1950  179.0020  145.5120 C   0  0  0  0  0  3  0  0  0  0  0  0
  187.6220  178.0080  140.4480 C   0  0  0  0  0  0  0  0  0  0  0  0
  188.6830  177.4060  141.2930 C   0  0  1  0  0  3  0  0  0  0  0  0
  183.6630  178.5050  138.4690 C   0  0  1  0  0  3  0  0  0  0  0  0
  182.7870  178.7670  140.7480 O   0  0  0  0  0  0  0  0  0  0  0  0
  190.2530  177.8510  142.8630 C   0  0  2  0  0  3  0  0  0  0  0  0
  181.1230  178.3680  139.0470 C   0  0  0  0  0  2  0  0  0  0  0  0
  182.9250  178.4560  143.5320 C   0  0  0  0  0  3  0  0  0  0  0  0
  183.9870  178.2490  141.2720 C   0  0  2  0  0  3  0  0  0  0  0  0
  184.0830  178.5400  142.7440 C   0  0  0  0  0  0  0  0  0  0  0  0
  186.5980  178.9230  142.5630 C   0  0  1  0  0  3  0  0  0  0  0  0
  190.8940  177.3400  141.6740 N   0  0  0  0  0  2  0  0  0  0  0  0
  183.1160  180.7420  138.7440 C   0  0  0  0  0  2  0  0  0  0  0  0
  182.5660  178.1280  139.5110 C   0  0  1  0  0  3  0  0  0  0  0  0
  190.0310  177.1220  140.7490 C   0  0  0  0  0  2  0  0  0  0  0  0
  183.5510  179.7680  137.8270 O   0  0  0  0  0  0  0  0  0  0  0  0
  180.8960  179.6150  138.1850 C   0  0  1  0  0  3  0  0  0  0  0  0
  185.3590  179.0640  144.7440 C   0  0  0  0  0  3  0  0  0  0  0  0
  185.3250  178.8050  143.3640 C   0  0  0  0  0  0  0  0  0  0  0  0
  187.7920  178.2420  143.2820 C   0  0  0  0  0  2  0  0  0  0  0  0
  185.0630  178.2850  139.0440 C   0  0  0  0  0  2  0  0  0  0  0  0
  187.7580  178.1060  139.1990 O   0  0  0  0  0  0  0  0  0  0  0  0
  190.1590  176.7400  143.9110 C   0  0  0  0  0  1  0  0  0  0  0  0
  186.4420  178.4820  141.1480 N   0  0  0  0  0  0  0  0  0  0  0  0
  188.9420  178.3090  142.3900 N   0  0  2  0  0  0  0  0  0  0  0  0
  179.4020  179.8540  138.0330 C   0  0  0  0  0  2  0  0  0  0  0  0
  179.0830  180.4500  136.6990 C   0  0  0  0  0  0  0  0  0  0  0  0
  178.9690  179.5700  135.5030 C   0  0  0  0  0  1  0  0  0  0  0  0
  178.9340  181.6550  136.5830 O   0  0  0  0  0  0  0  0  0  0  0  0
  1 16  1  0  0  0  0
  2 24  1  6  0  0  0
  2 27  1  0  0  0  0
  2 12  1  0  0  0  0
  3  4  1  0  0  0  0
  5 27  1  0  0  0  0
  5  6  1  0  0  0  0
  6 18  1  6  0  0  0
  6 28  1  0  0  0  0
  7 24  1  1  0  0  0
  7 17  1  0  0  0  0
  9 26  1  1  0  0  0
 11  3  2  0  0  0  0
 12  8  1  6  0  0  0
 12 13  1  0  0  0  0
 13 22  2  0  0  0  0
 13 11  1  0  0  0  0
 14 23  1  1  0  0  0
 14 22  1  0  0  0  0
 15  9  1  0  0  0  0
 17 10  1  6  0  0  0
 17  8  1  0  0  0  0
 18 15  1  0  0  0  0
 19  7  1  0  0  0  0
 19 16  1  0  0  0  0
 20 29  1  1  0  0  0
 20  1  1  0  0  0  0
 20 10  1  0  0  0  0
 21  4  2  0  0  0  0
 22 21  1  0  0  0  0
 25  5  2  0  0  0  0
 27 14  1  0  0  0  0
 28  9  1  0  0  0  0
 28 23  1  1  0  0  0
 30 29  1  0  0  0  0
 31 30  1  0  0  0  0
 32 30  2  0  0  0  0
M  END
>  <MODEL>
4

>  <REMARK>
 VINA RESULT:      -6.8      2.318      4.504
  Name = 
  2 active torsions:
  status: ('A' for Active; 'I' for Inactive)
    1  A    between atoms: C_20  and  C_29
    2  A    between atoms: C_29  and  C_30
                            x       y       z     vdW  Elec       q    Type
                         _______ _______ _______ _____ _____    ______ ____

>  <TORSDO>
F 2

$$$$
=
 OpenBabel11122410523D

 32 37  0  0  1  0  0  0  0  0999 V2000
  187.3830  176.3690  143.5920 C   0  0  0  0  0  2  0  0  0  0  0  0
  190.1690  176.7460  140.0920 C   0  0  2  0  0  3  0  0  0  0  0  0
  186.3230  176.8150  136.9850 C   0  0  0  0  0  3  0  0  0  0  0  0
  187.0330  176.0070  136.0980 C   0  0  0  0  0  3  0  0  0  0  0  0
  192.4870  176.6780  138.9590 C   0  0  0  0  0  0  0  0  0  0  0  0
  193.1650  176.7260  137.6410 C   0  0  1  0  0  3  0  0  0  0  0  0
  189.8320  177.9060  142.3180 C   0  0  1  0  0  3  0  0  0  0  0  0
  187.9970  177.5520  140.7260 O   0  0  0  0  0  0  0  0  0  0  0  0
  193.7200  175.5050  135.8160 C   0  0  2  0  0  3  0  0  0  0  0  0
  187.4080  178.7850  142.7140 C   0  0  0  0  0  2  0  0  0  0  0  0
  186.9440  177.2950  138.1390 C   0  0  0  0  0  3  0  0  0  0  0  0
  188.9190  177.5320  139.6630 C   0  0  2  0  0  3  0  0  0  0  0  0
  188.2780  176.9670  138.4250 C   0  0  0  0  0  0  0  0  0  0  0  0
  190.4470  175.7990  137.7660 C   0  0  1  0  0  3  0  0  0  0  0  0
  194.9220  175.9740  136.4650 N   0  0  0  0  0  2  0  0  0  0  0  0
  188.7240  175.9730  142.9640 C   0  0  0  0  0  2  0  0  0  0  0  0
  188.5040  178.4380  141.6980 C   0  0  1  0  0  3  0  0  0  0  0  0
  194.6390  176.6320  137.5300 C   0  0  0  0  0  2  0  0  0  0  0  0
  189.7320  176.8910  143.3080 O   0  0  0  0  0  0  0  0  0  0  0  0
  187.3110  177.8630  143.9350 C   0  0  1  0  0  3  0  0  0  0  0  0
  188.3690  175.6950  136.3570 C   0  0  0  0  0  3  0  0  0  0  0  0
  189.0140  176.1930  137.5010 C   0  0  0  0  0  0  0  0  0  0  0  0
  191.3140  175.8980  136.4830 C   0  0  0  0  0  2  0  0  0  0  0  0
  190.8370  177.5350  141.2260 C   0  0  0  0  0  2  0  0  0  0  0  0
  193.1400  176.7650  140.0330 O   0  0  0  0  0  0  0  0  0  0  0  0
  193.4250  176.3760  134.5940 C   0  0  0  0  0  1  0  0  0  0  0  0
  191.0440  176.5120  138.9290 N   0  0  0  0  0  0  0  0  0  0  0  0
  192.6920  175.6080  136.8590 N   0  0  2  0  0  0  0  0  0  0  0  0
  186.0320  178.1720  144.6970 C   0  0  0  0  0  2  0  0  0  0  0  0
  186.3230  178.5290  146.1190 C   0  0  0  0  0  0  0  0  0  0  0  0
  187.4470  177.8640  146.8350 C   0  0  0  0  0  1  0  0  0  0  0  0
  185.6320  179.3480  146.7030 O   0  0  0  0  0  0  0  0  0  0  0  0
  1 20  1  0  0  0  0
  2 24  1  1  0  0  0
  3 11  1  0  0  0  0
  4 21  1  0  0  0  0
  4  3  2  0  0  0  0
  5 25  2  0  0  0  0
  6 18  1  1  0  0  0
  6  5  1  0  0  0  0
  7 24  1  6  0  0  0
  7 19  1  0  0  0  0
  8 17  1  0  0  0  0
  9 26  1  6  0  0  0
  9 15  1  0  0  0  0
  9 28  1  0  0  0  0
 10 20  1  0  0  0  0
 11 13  2  0  0  0  0
 12 13  1  6  0  0  0
 12  2  1  0  0  0  0
 12  8  1  0  0  0  0
 14 23  1  6  0  0  0
 14 27  1  0  0  0  0
 15 18  1  0  0  0  0
 16 19  1  0  0  0  0
 16  1  1  0  0  0  0
 17  7  1  0  0  0  0
 17 10  1  1  0  0  0
 20 29  1  6  0  0  0
 21 22  2  0  0  0  0
 22 14  1  0  0  0  0
 22 13  1  0  0  0  0
 27  5  1  0  0  0  0
 27  2  1  0  0  0  0
 28 23  1  6  0  0  0
 28  6  1  0  0  0  0
 29 30  1  0  0  0  0
 30 32  2  0  0  0  0
 30 31  1  0  0  0  0
M  END
>  <MODEL>
5

>  <REMARK>
 VINA RESULT:      -6.8      4.378      8.288
  Name = 
  2 active torsions:
  status: ('A' for Active; 'I' for Inactive)
    1  A    between atoms: C_20  and  C_29
    2  A    between atoms: C_29  and  C_30
                            x       y       z     vdW  Elec       q    Type
                         _______ _______ _______ _____ _____    ______ ____

>  <TORSDO>
F 2

$$$$
=
 OpenBabel11122410523D

 32 37  0  0  1  0  0  0  0  0999 V2000
  190.7500  178.2200  144.4890 C   0  0  0  0  0  2  0  0  0  0  0  0
  187.0430  178.1570  141.9590 C   0  0  2  0  0  3  0  0  0  0  0  0
  189.7530  177.1860  137.9380 C   0  0  0  0  0  3  0  0  0  0  0  0
  188.9540  178.0570  137.1980 C   0  0  0  0  0  3  0  0  0  0  0  0
  184.5380  178.5870  141.5090 C   0  0  0  0  0  0  0  0  0  0  0  0
  183.5070  178.5870  140.4430 C   0  0  1  0  0  3  0  0  0  0  0  0
  187.8230  177.0910  144.1200 C   0  0  1  0  0  3  0  0  0  0  0  0
  189.1460  177.0010  142.0540 O   0  0  0  0  0  0  0  0  0  0  0  0
  182.6480  179.7770  138.7180 C   0  0  2  0  0  3  0  0  0  0  0  0
  190.0820  175.8020  143.9260 C   0  0  0  0  0  2  0  0  0  0  0  0
  189.4270  176.9010  139.2640 C   0  0  0  0  0  3  0  0  0  0  0  0
  187.9700  177.1280  141.2910 C   0  0  2  0  0  3  0  0  0  0  0  0
  188.3040  177.4880  139.8690 C   0  0  0  0  0  0  0  0  0  0  0  0
  186.2550  178.9970  139.7090 C   0  0  1  0  0  3  0  0  0  0  0  0
  181.6280  179.5800  139.7220 N   0  0  0  0  0  2  0  0  0  0  0  0
  189.3670  178.8200  144.2150 C   0  0  0  0  0  2  0  0  0  0  0  0
  188.8080  176.2850  143.2190 C   0  0  1  0  0  3  0  0  0  0  0  0
  182.0990  178.9460  140.7330 C   0  0  0  0  0  2  0  0  0  0  0  0
  188.3680  178.1270  144.9240 O   0  0  0  0  0  0  0  0  0  0  0  0
  190.6780  176.7620  144.9630 C   0  0  1  0  0  3  0  0  0  0  0  0
  187.8200  178.6280  137.7780 C   0  0  0  0  0  3  0  0  0  0  0  0
  187.4650  178.3280  139.1040 C   0  0  0  0  0  0  0  0  0  0  0  0
  185.0470  178.9840  138.7350 C   0  0  0  0  0  2  0  0  0  0  0  0
  186.6160  177.5760  143.3130 C   0  0  0  0  0  2  0  0  0  0  0  0
  184.2210  178.6880  142.7250 O   0  0  0  0  0  0  0  0  0  0  0  0
  182.4300  178.7940  137.5670 C   0  0  0  0  0  1  0  0  0  0  0  0
  185.9160  178.4790  141.0640 N   0  0  0  0  0  0  0  0  0  0  0  0
  183.9040  179.5480  139.4410 N   0  0  2  0  0  0  0  0  0  0  0  0
  192.0560  176.2660  145.3710 C   0  0  0  0  0  2  0  0  0  0  0  0
  192.1280  176.0250  146.8450 C   0  0  0  0  0  0  0  0  0  0  0  0
  191.2040  176.7490  147.7610 C   0  0  0  0  0  1  0  0  0  0  0  0
  192.9550  175.2530  147.3020 O   0  0  0  0  0  0  0  0  0  0  0  0
  1 20  1  0  0  0  0
  2 24  1  1  0  0  0
  3 11  1  0  0  0  0
  4 21  1  0  0  0  0
  4  3  2  0  0  0  0
  5 25  2  0  0  0  0
  6 18  1  1  0  0  0
  6  5  1  0  0  0  0
  7 24  1  6  0  0  0
  7 19  1  0  0  0  0
  8 17  1  0  0  0  0
  9 26  1  6  0  0  0
  9 28  1  0  0  0  0
  9 15  1  0  0  0  0
 10 20  1  0  0  0  0
 11 13  2  0  0  0  0
 12 13  1  6  0  0  0
 12  2  1  0  0  0  0
 12  8  1  0  0  0  0
 14 23  1  6  0  0  0
 14 27  1  0  0  0  0
 15 18  1  0  0  0  0
 16  1  1  0  0  0  0
 16 19  1  0  0  0  0
 17 10  1  1  0  0  0
 17  7  1  0  0  0  0
 20 29  1  6  0  0  0
 21 22  2  0  0  0  0
 22 14  1  0  0  0  0
 22 13  1  0  0  0  0
 27  5  1  0  0  0  0
 27  2  1  0  0  0  0
 28 23  1  6  0  0  0
 28  6  1  0  0  0  0
 29 30  1  0  0  0  0
 30 32  2  0  0  0  0
 30 31  1  0  0  0  0
M  END
>  <MODEL>
6

>  <REMARK>
 VINA RESULT:      -6.7      2.897      8.175
  Name = 
  2 active torsions:
  status: ('A' for Active; 'I' for Inactive)
    1  A    between atoms: C_20  and  C_29
    2  A    between atoms: C_29  and  C_30
                            x       y       z     vdW  Elec       q    Type
                         _______ _______ _______ _____ _____    ______ ____

>  <TORSDO>
F 2

$$$$
=
 OpenBabel11122410523D

 32 37  0  0  1  0  0  0  0  0999 V2000
  190.0500  175.9750  143.6670 C   0  0  0  0  0  2  0  0  0  0  0  0
  186.5330  178.0080  141.7580 C   0  0  2  0  0  3  0  0  0  0  0  0
  184.5970  178.9340  146.2130 C   0  0  0  0  0  3  0  0  0  0  0  0
  183.3300  178.6280  145.7190 C   0  0  0  0  0  3  0  0  0  0  0  0
  185.0240  178.6360  139.7610 C   0  0  0  0  0  0  0  0  0  0  0  0
  183.7360  179.2780  139.4020 C   0  0  1  0  0  3  0  0  0  0  0  0
  189.0560  178.1330  141.5860 C   0  0  1  0  0  3  0  0  0  0  0  0
  187.8750  178.2670  143.7330 O   0  0  0  0  0  0  0  0  0  0  0  0
  181.4980  178.9580  139.2710 C   0  0  2  0  0  3  0  0  0  0  0  0
  190.2700  178.5290  143.8610 C   0  0  0  0  0  2  0  0  0  0  0  0
  185.6910  178.9680  145.3480 C   0  0  0  0  0  3  0  0  0  0  0  0
  186.7350  178.7700  143.0790 C   0  0  2  0  0  3  0  0  0  0  0  0
  185.5350  178.6900  143.9820 C   0  0  0  0  0  0  0  0  0  0  0  0
  184.0200  178.1110  142.0130 C   0  0  1  0  0  3  0  0  0  0  0  0
  182.0210  179.2450  137.9550 N   0  0  0  0  0  2  0  0  0  0  0  0
  189.0540  176.0030  142.5040 C   0  0  0  0  0  2  0  0  0  0  0  0
  188.9990  178.7330  143.0230 C   0  0  1  0  0  3  0  0  0  0  0  0
  183.2960  179.3860  137.9920 C   0  0  0  0  0  2  0  0  0  0  0  0
  189.5330  176.8020  141.4490 O   0  0  0  0  0  0  0  0  0  0  0  0
  190.9890  177.1890  143.6690 C   0  0  1  0  0  3  0  0  0  0  0  0
  183.1550  178.3740  144.3580 C   0  0  0  0  0  3  0  0  0  0  0  0
  184.2430  178.4320  143.4710 C   0  0  0  0  0  0  0  0  0  0  0  0
  182.7470  178.8050  141.4630 C   0  0  0  0  0  2  0  0  0  0  0  0
  187.7280  178.3370  140.8540 C   0  0  0  0  0  2  0  0  0  0  0  0
  185.8780  178.3480  138.8800 O   0  0  0  0  0  0  0  0  0  0  0  0
  180.8370  180.2130  139.8430 C   0  0  0  0  0  1  0  0  0  0  0  0
  185.2250  178.3510  141.1710 N   0  0  0  0  0  0  0  0  0  0  0  0
  182.6760  178.5280  140.0340 N   0  0  2  0  0  0  0  0  0  0  0  0
  192.0550  177.0350  144.7420 C   0  0  0  0  0  2  0  0  0  0  0  0
  191.4470  176.6940  146.0640 C   0  0  0  0  0  0  0  0  0  0  0  0
  192.0550  175.6280  146.9070 C   0  0  0  0  0  1  0  0  0  0  0  0
  190.4430  177.2730  146.4480 O   0  0  0  0  0  0  0  0  0  0  0  0
  1 20  1  0  0  0  0
  2 24  1  6  0  0  0
  2 12  1  0  0  0  0
  4  3  1  0  0  0  0
  5 27  1  0  0  0  0
  6 18  1  6  0  0  0
  6  5  1  0  0  0  0
  6 28  1  0  0  0  0
  7 24  1  1  0  0  0
  7 17  1  0  0  0  0
  9 26  1  1  0  0  0
  9 28  1  0  0  0  0
 11  3  2  0  0  0  0
 12  8  1  1  0  0  0
 12 13  1  0  0  0  0
 13 11  1  0  0  0  0
 14 23  1  6  0  0  0
 14 22  1  0  0  0  0
 15 18  1  0  0  0  0
 15  9  1  0  0  0  0
 16  1  1  0  0  0  0
 17  8  1  0  0  0  0
 17 10  1  1  0  0  0
 19  7  1  0  0  0  0
 19 16  1  0  0  0  0
 20 10  1  0  0  0  0
 20 29  1  1  0  0  0
 21  4  2  0  0  0  0
 22 13  2  0  0  0  0
 22 21  1  0  0  0  0
 25  5  2  0  0  0  0
 27  2  1  0  0  0  0
 27 14  1  0  0  0  0
 28 23  1  1  0  0  0
 29 30  1  0  0  0  0
 30 32  2  0  0  0  0
 30 31  1  0  0  0  0
M  END
>  <MODEL>
7

>  <REMARK>
 VINA RESULT:      -6.7      2.755      8.432
  Name = 
  2 active torsions:
  status: ('A' for Active; 'I' for Inactive)
    1  A    between atoms: C_20  and  C_29
    2  A    between atoms: C_29  and  C_30
                            x       y       z     vdW  Elec       q    Type
                         _______ _______ _______ _____ _____    ______ ____

>  <TORSDO>
F 2

$$$$
=
 OpenBabel11122410523D

 32 37  0  0  1  0  0  0  0  0999 V2000
  191.7380  174.9850  137.9470 C   0  0  0  0  0  2  0  0  0  0  0  0
  188.8620  177.2360  140.5560 C   0  0  2  0  0  3  0  0  0  0  0  0
  191.8240  176.5790  144.4600 C   0  0  0  0  0  3  0  0  0  0  0  0
  190.7070  176.3460  145.2610 C   0  0  0  0  0  3  0  0  0  0  0  0
  186.5890  178.3380  141.0840 C   0  0  0  0  0  0  0  0  0  0  0  0
  185.7960  178.9600  142.1720 C   0  0  1  0  0  3  0  0  0  0  0  0
  190.0100  177.6010  138.3280 C   0  0  1  0  0  3  0  0  0  0  0  0
  191.2400  176.9690  140.3560 O   0  0  0  0  0  0  0  0  0  0  0  0
  184.4920  178.5270  143.9720 C   0  0  2  0  0  3  0  0  0  0  0  0
  192.6060  177.3600  138.4060 C   0  0  0  0  0  2  0  0  0  0  0  0
  191.6590  176.9640  143.1290 C   0  0  0  0  0  3  0  0  0  0  0  0
  190.2420  177.5620  141.1510 C   0  0  2  0  0  3  0  0  0  0  0  0
  190.3760  177.1140  142.5800 C   0  0  0  0  0  0  0  0  0  0  0  0
  187.8420  177.0630  142.8620 C   0  0  1  0  0  3  0  0  0  0  0  0
  183.7230  179.2490  142.9840 N   0  0  0  0  0  2  0  0  0  0  0  0
  190.2760  175.2970  138.2820 C   0  0  0  0  0  2  0  0  0  0  0  0
  191.3200  177.7170  139.1640 C   0  0  1  0  0  3  0  0  0  0  0  0
  184.4250  179.4680  141.9320 C   0  0  0  0  0  2  0  0  0  0  0  0
  189.8230  176.4190  137.5620 O   0  0  0  0  0  0  0  0  0  0  0  0
  192.4930  176.2050  137.4040 C   0  0  1  0  0  3  0  0  0  0  0  0
  189.4250  176.5170  144.7350 C   0  0  0  0  0  3  0  0  0  0  0  0
  189.2440  176.9300  143.4050 C   0  0  0  0  0  0  0  0  0  0  0  0
  186.9080  177.7950  143.8610 C   0  0  0  0  0  2  0  0  0  0  0  0
  188.7830  177.9200  139.1850 C   0  0  0  0  0  2  0  0  0  0  0  0
  186.2150  178.4050  139.8820 O   0  0  0  0  0  0  0  0  0  0  0  0
  184.9320  179.4870  145.0790 C   0  0  0  0  0  1  0  0  0  0  0  0
  187.7980  177.6450  141.4910 N   0  0  0  0  0  0  0  0  0  0  0  0
  185.6160  177.9720  143.2100 N   0  0  2  0  0  0  0  0  0  0  0  0
  193.8850  175.8070  136.9400 C   0  0  0  0  0  2  0  0  0  0  0  0
  194.1170  176.2090  135.5190 C   0  0  0  0  0  0  0  0  0  0  0  0
  195.3470  176.9670  135.1550 C   0  0  0  0  0  1  0  0  0  0  0  0
  193.2940  175.9370  134.6590 O   0  0  0  0  0  0  0  0  0  0  0  0
  1 16  1  0  0  0  0
  2 24  1  6  0  0  0
  2 12  1  0  0  0  0
  2 27  1  0  0  0  0
  3  4  1  0  0  0  0
  5 27  1  0  0  0  0
  5  6  1  0  0  0  0
  6 18  1  6  0  0  0
  6 28  1  0  0  0  0
  7 17  1  0  0  0  0
  7 24  1  1  0  0  0
  9 26  1  1  0  0  0
 11  3  2  0  0  0  0
 12  8  1  6  0  0  0
 12 13  1  0  0  0  0
 13 11  1  0  0  0  0
 13 22  2  0  0  0  0
 14 22  1  0  0  0  0
 14 23  1  1  0  0  0
 15  9  1  0  0  0  0
 17 10  1  6  0  0  0
 17  8  1  0  0  0  0
 18 15  1  0  0  0  0
 19 16  1  0  0  0  0
 19  7  1  0  0  0  0
 20 29  1  1  0  0  0
 20  1  1  0  0  0  0
 20 10  1  0  0  0  0
 21  4  2  0  0  0  0
 22 21  1  0  0  0  0
 25  5  2  0  0  0  0
 27 14  1  0  0  0  0
 28 23  1  1  0  0  0
 28  9  1  0  0  0  0
 30 29  1  0  0  0  0
 31 30  1  0  0  0  0
 32 30  2  0  0  0  0
M  END
>  <MODEL>
8

>  <REMARK>
 VINA RESULT:      -6.6      3.529      7.292
  Name = 
  2 active torsions:
  status: ('A' for Active; 'I' for Inactive)
    1  A    between atoms: C_20  and  C_29
    2  A    between atoms: C_29  and  C_30
                            x       y       z     vdW  Elec       q    Type
                         _______ _______ _______ _____ _____    ______ ____

>  <TORSDO>
F 2

$$$$
=
 OpenBabel11122410523D

 32 37  0  0  1  0  0  0  0  0999 V2000
  188.4240  175.4690  137.2960 C   0  0  0  0  0  2  0  0  0  0  0  0
  184.7260  177.7730  138.3750 C   0  0  2  0  0  3  0  0  0  0  0  0
  186.5450  178.6610  142.8870 C   0  0  0  0  0  3  0  0  0  0  0  0
  185.2800  178.4480  143.4320 C   0  0  0  0  0  3  0  0  0  0  0  0
  182.2960  178.5590  138.0040 C   0  0  0  0  0  0  0  0  0  0  0  0
  181.1740  179.2890  138.6440 C   0  0  1  0  0  3  0  0  0  0  0  0
  186.4010  177.7530  136.4760 C   0  0  1  0  0  3  0  0  0  0  0  0
  187.0810  177.8830  138.8310 O   0  0  0  0  0  0  0  0  0  0  0  0
  179.4750  179.1080  140.1300 C   0  0  2  0  0  3  0  0  0  0  0  0
  188.8850  177.9970  137.2330 C   0  0  0  0  0  2  0  0  0  0  0  0
  186.7160  178.6590  141.5020 C   0  0  0  0  0  3  0  0  0  0  0  0
  185.8470  178.4760  139.1580 C   0  0  2  0  0  3  0  0  0  0  0  0
  185.6260  178.4380  140.6460 C   0  0  0  0  0  0  0  0  0  0  0  0
  183.1310  178.0180  140.3210 C   0  0  1  0  0  3  0  0  0  0  0  0
  178.9400  179.4080  138.8210 N   0  0  0  0  0  2  0  0  0  0  0  0
  186.9020  175.5960  137.1680 C   0  0  0  0  0  2  0  0  0  0  0  0
  187.4110  178.3060  137.5280 C   0  0  1  0  0  3  0  0  0  0  0  0
  179.8790  179.4720  137.9490 C   0  0  0  0  0  2  0  0  0  0  0  0
  186.5540  176.4010  136.0680 O   0  0  0  0  0  0  0  0  0  0  0  0
  189.1710  176.6230  136.6150 C   0  0  1  0  0  3  0  0  0  0  0  0
  184.1830  178.2520  142.5910 C   0  0  0  0  0  3  0  0  0  0  0  0
  184.3350  178.2750  141.1950 C   0  0  0  0  0  0  0  0  0  0  0  0
  181.8890  178.8060  140.8130 C   0  0  0  0  0  2  0  0  0  0  0  0
  184.9600  178.0610  136.8860 C   0  0  0  0  0  2  0  0  0  0  0  0
  182.2630  178.2510  136.7830 O   0  0  0  0  0  0  0  0  0  0  0  0
  179.4920  180.3810  140.9790 C   0  0  0  0  0  1  0  0  0  0  0  0
  183.4090  178.2150  138.8710 N   0  0  0  0  0  0  0  0  0  0  0  0
  180.8160  178.5830  139.8510 N   0  0  2  0  0  0  0  0  0  0  0  0
  190.6700  176.3690  136.6310 C   0  0  0  0  0  2  0  0  0  0  0  0
  191.0970  175.7310  137.9140 C   0  0  0  0  0  0  0  0  0  0  0  0
  191.3140  176.5720  139.1240 C   0  0  0  0  0  1  0  0  0  0  0  0
  191.2870  174.5270  137.9690 O   0  0  0  0  0  0  0  0  0  0  0  0
  2 24  1  6  0  0  0
  2 27  1  0  0  0  0
  2 12  1  0  0  0  0
  3  4  1  0  0  0  0
  5  6  1  0  0  0  0
  5 27  1  0  0  0  0
  6 18  1  6  0  0  0
  6 28  1  0  0  0  0
  7 24  1  1  0  0  0
  7 17  1  0  0  0  0
  9 26  1  1  0  0  0
 11  3  2  0  0  0  0
 12  8  1  1  0  0  0
 12 13  1  0  0  0  0
 13 22  2  0  0  0  0
 13 11  1  0  0  0  0
 14 23  1  1  0  0  0
 14 22  1  0  0  0  0
 15  9  1  0  0  0  0
 16  1  1  0  0  0  0
 17 10  1  6  0  0  0
 17  8  1  0  0  0  0
 18 15  1  0  0  0  0
 19  7  1  0  0  0  0
 19 16  1  0  0  0  0
 20 29  1  1  0  0  0
 20 10  1  0  0  0  0
 20  1  1  0  0  0  0
 21  4  2  0  0  0  0
 22 21  1  0  0  0  0
 25  5  2  0  0  0  0
 27 14  1  0  0  0  0
 28  9  1  0  0  0  0
 28 23  1  1  0  0  0
 29 30  1  0  0  0  0
 30 32  2  0  0  0  0
 30 31  1  0  0  0  0
M  END
>  <MODEL>
9

>  <REMARK>
 VINA RESULT:      -6.1      3.786      7.883
  Name = 
  2 active torsions:
  status: ('A' for Active; 'I' for Inactive)
    1  A    between atoms: C_20  and  C_29
    2  A    between atoms: C_29  and  C_30
                            x       y       z     vdW  Elec       q    Type
                         _______ _______ _______ _____ _____    ______ ____

>  <TORSDO>
F 2

$$$$
