=
 OpenBabel11122410443D

 32 38  0  0  1  0  0  0  0  0999 V2000
  185.2590  178.5810  137.5870 C   0  0  1  0  0  3  0  0  0  0  0  0
  187.9610  178.0520  142.1150 C   0  0  0  0  0  0  0  0  0  0  0  0
  184.4210  178.5590  145.4200 C   0  0  0  0  0  3  0  0  0  0  0  0
  185.3570  178.3270  146.4250 C   0  0  0  0  0  3  0  0  0  0  0  0
  190.1650  177.2640  142.8930 C   0  0  1  0  0  3  0  0  0  0  0  0
  191.0220  176.9480  144.0420 C   0  0  2  0  0  3  0  0  0  0  0  0
  187.2560  177.8740  139.7090 C   0  0  1  0  0  3  0  0  0  0  0  0
  185.6570  178.6030  141.3960 N   0  0  0  0  0  2  0  0  0  0  0  0
  191.4580  176.5960  146.2240 C   0  0  0  0  0  0  0  0  0  0  0  0
  184.8630  178.5940  139.0650 C   0  0  2  0  0  3  0  0  0  0  0  0
  184.8370  178.5530  144.0900 C   0  0  0  0  0  3  0  0  0  0  0  0
  186.6110  178.3360  142.4390 C   0  0  0  0  0  0  0  0  0  0  0  0
  186.1810  178.3130  143.7680 C   0  0  0  0  0  0  0  0  0  0  0  0
  188.4550  177.8400  144.5180 C   0  0  0  0  0  0  0  0  0  0  0  0
  192.0350  175.6440  145.5690 N   0  0  0  0  0  0  0  0  0  0  0  0
  186.7760  178.7500  137.3340 C   0  0  0  0  0  2  0  0  0  0  0  0
  186.0650  178.7800  140.0100 C   0  0  2  0  0  3  0  0  0  0  0  0
  191.7240  175.8340  144.1930 C   0  0  0  0  0  2  0  0  0  0  0  0
  187.7290  177.9720  138.2570 C   0  0  0  0  0  2  0  0  0  0  0  0
  184.8810  177.2820  138.2840 C   0  0  1  0  0  3  0  0  0  0  0  0
  186.6570  178.0970  146.1030 N   0  0  0  0  0  0  0  0  0  0  0  0
  187.0980  178.0780  144.8100 C   0  0  0  0  0  0  0  0  0  0  0  0
  189.3130  177.6990  145.5540 C   0  0  0  0  0  2  0  0  0  0  0  0
  188.3810  178.2210  140.6720 C   0  0  0  0  0  2  0  0  0  0  0  0
  190.8030  176.8020  141.3100 Cl  0  0  0  0  0  0  0  0  0  0  0  0
  191.5910  176.7380  147.6340 N   0  0  0  0  0  1  0  0  0  0  0  0
  188.8980  177.7350  143.1470 C   0  0  0  0  0  0  0  0  0  0  0  0
  190.7900  177.5950  145.3460 C   0  0  2  0  0  3  0  0  0  0  0  0
  183.4620  176.9060  137.9080 C   0  0  0  0  0  2  0  0  0  0  0  0
  183.1070  175.5980  138.5200 C   0  0  0  0  0  0  0  0  0  0  0  0
  183.6020  174.4190  137.9760 O   0  0  0  0  0  0  0  0  0  0  0  0
  182.3320  175.5550  139.5100 O   0  0  0  0  0  1  0  0  0  0  0  0
  1 16  1  1  0  0  0
  1 20  1  0  0  0  0
  1 10  1  0  0  0  0
  2 12  2  0  0  0  0
  2 27  1  0  0  0  0
  3  4  1  0  0  0  0
  5 25  1  1  0  0  0
  5 27  1  0  0  0  0
  5  6  1  0  0  0  0
  6 18  1  1  0  0  0
  6 28  1  0  0  0  0
  7 19  1  6  0  0  0
  7 17  1  0  0  0  0
  7 24  1  0  0  0  0
  8 12  1  0  0  0  0
  9 26  1  0  0  0  0
 10 17  1  0  0  0  0
 11  3  2  0  0  0  0
 12 13  1  0  0  0  0
 13 11  1  0  0  0  0
 13 22  2  0  0  0  0
 14 22  1  0  0  0  0
 14 23  1  0  0  0  0
 15  9  2  0  0  0  0
 16 19  1  0  0  0  0
 17  8  1  0  0  0  0
 18 15  1  0  0  0  0
 20 10  1  0  0  0  0
 21  4  2  0  0  0  0
 22 21  1  0  0  0  0
 24  2  1  0  0  0  0
 27 14  2  0  0  0  0
 28 23  1  0  0  0  0
 28  9  1  0  0  0  0
 29 20  1  0  0  0  0
 29 30  1  0  0  0  0
 30 32  1  0  0  0  0
 31 30  2  0  0  0  0
M  END
>  <MODEL>
1

>  <REMARK>
 VINA RESULT:      -9.9      0.000      0.000
  Name = 
  2 active torsions:
  status: ('A' for Active; 'I' for Inactive)
    1  A    between atoms: C_20  and  C_29
    2  A    between atoms: C_29  and  C_30
                            x       y       z     vdW  Elec       q    Type
                         _______ _______ _______ _____ _____    ______ ____

>  <TORSDO>
F 2

$$$$
=
 OpenBabel11122410443D

 32 38  0  0  1  0  0  0  0  0999 V2000
  183.8410  178.9520  138.7480 C   0  0  1  0  0  3  0  0  0  0  0  0
  187.4170  178.1460  142.5740 C   0  0  0  0  0  0  0  0  0  0  0  0
  184.6600  178.5170  146.5700 C   0  0  0  0  0  3  0  0  0  0  0  0
  185.7800  178.2190  147.3440 C   0  0  0  0  0  3  0  0  0  0  0  0
  189.7160  177.2910  142.8310 C   0  0  1  0  0  3  0  0  0  0  0  0
  190.7870  176.9020  143.7570 C   0  0  2  0  0  3  0  0  0  0  0  0
  186.2200  178.1070  140.3640 C   0  0  1  0  0  3  0  0  0  0  0  0
  185.0270  178.7630  142.3840 N   0  0  0  0  0  2  0  0  0  0  0  0
  191.6610  176.4270  145.7780 C   0  0  0  0  0  0  0  0  0  0  0  0
  183.7630  178.8900  140.2750 C   0  0  2  0  0  3  0  0  0  0  0  0
  184.7880  178.5780  145.1850 C   0  0  0  0  0  3  0  0  0  0  0  0
  186.1720  178.4290  143.1890 C   0  0  0  0  0  0  0  0  0  0  0  0
  186.0280  178.3400  144.5760 C   0  0  0  0  0  0  0  0  0  0  0  0
  188.3970  177.7980  144.8060 C   0  0  0  0  0  0  0  0  0  0  0  0
  192.0660  175.5060  144.9690 N   0  0  0  0  0  0  0  0  0  0  0  0
  185.2740  179.1160  138.1910 C   0  0  0  0  0  2  0  0  0  0  0  0
  185.1400  179.0110  140.9540 C   0  0  2  0  0  3  0  0  0  0  0  0
  191.4790  175.7730  143.7010 C   0  0  0  0  0  2  0  0  0  0  0  0
  186.3810  178.2780  138.8520 C   0  0  0  0  0  2  0  0  0  0  0  0
  183.5870  177.6220  139.4420 C   0  0  1  0  0  3  0  0  0  0  0  0
  186.9780  177.9920  146.7450 N   0  0  0  0  0  0  0  0  0  0  0  0
  187.1370  178.0370  145.3880 C   0  0  0  0  0  0  0  0  0  0  0  0
  189.4500  177.5920  145.6300 C   0  0  0  0  0  2  0  0  0  0  0  0
  187.5300  178.3880  141.0850 C   0  0  0  0  0  2  0  0  0  0  0  0
  189.9980  176.9070  141.1280 Cl  0  0  0  0  0  0  0  0  0  0  0  0
  192.0900  176.4920  147.1340 N   0  0  0  0  0  1  0  0  0  0  0  0
  188.5420  177.7630  143.3700 C   0  0  0  0  0  0  0  0  0  0  0  0
  190.8480  177.4810  145.1120 C   0  0  2  0  0  3  0  0  0  0  0  0
  182.1120  177.2850  139.3550 C   0  0  0  0  0  2  0  0  0  0  0  0
  181.9390  175.8200  139.1660 C   0  0  0  0  0  0  0  0  0  0  0  0
  180.8170  175.1810  139.6770 O   0  0  0  0  0  1  0  0  0  0  0  0
  182.8260  175.1520  138.5720 O   0  0  0  0  0  0  0  0  0  0  0  0
  1 16  1  1  0  0  0
  1 20  1  0  0  0  0
  1 10  1  0  0  0  0
  2 12  2  0  0  0  0
  2 27  1  0  0  0  0
  3  4  1  0  0  0  0
  5 25  1  1  0  0  0
  5 27  1  0  0  0  0
  5  6  1  0  0  0  0
  6 18  1  1  0  0  0
  6 28  1  0  0  0  0
  7 19  1  6  0  0  0
  7 17  1  0  0  0  0
  7 24  1  0  0  0  0
  8 12  1  0  0  0  0
  9 26  1  0  0  0  0
 10 17  1  0  0  0  0
 11  3  2  0  0  0  0
 12 13  1  0  0  0  0
 13 11  1  0  0  0  0
 13 22  2  0  0  0  0
 14 22  1  0  0  0  0
 14 23  1  0  0  0  0
 15  9  2  0  0  0  0
 16 19  1  0  0  0  0
 17  8  1  0  0  0  0
 18 15  1  0  0  0  0
 20 10  1  0  0  0  0
 21  4  2  0  0  0  0
 22 21  1  0  0  0  0
 24  2  1  0  0  0  0
 27 14  2  0  0  0  0
 28 23  1  0  0  0  0
 28  9  1  0  0  0  0
 29 20  1  0  0  0  0
 30 29  1  0  0  0  0
 30 31  1  0  0  0  0
 32 30  2  0  0  0  0
M  END
>  <MODEL>
2

>  <REMARK>
 VINA RESULT:      -9.9      0.977      1.228
  Name = 
  2 active torsions:
  status: ('A' for Active; 'I' for Inactive)
    1  A    between atoms: C_20  and  C_29
    2  A    between atoms: C_29  and  C_30
                            x       y       z     vdW  Elec       q    Type
                         _______ _______ _______ _____ _____    ______ ____

>  <TORSDO>
F 2

$$$$
=
 OpenBabel11122410443D

 32 38  0  0  1  0  0  0  0  0999 V2000
  188.3030  177.6430  136.9670 C   0  0  1  0  0  3  0  0  0  0  0  0
  188.0560  177.9680  142.2500 C   0  0  0  0  0  0  0  0  0  0  0  0
  183.3000  178.7340  142.9530 C   0  0  0  0  0  3  0  0  0  0  0  0
  183.5220  178.7150  144.3280 C   0  0  0  0  0  3  0  0  0  0  0  0
  189.4480  177.4470  144.2190 C   0  0  1  0  0  3  0  0  0  0  0  0
  189.5230  177.3610  145.6830 C   0  0  2  0  0  3  0  0  0  0  0  0
  188.7840  177.3890  139.9150 C   0  0  1  0  0  3  0  0  0  0  0  0
  186.5440  178.2570  140.3120 N   0  0  0  0  0  2  0  0  0  0  0  0
  188.6780  177.3660  147.7720 C   0  0  0  0  0  0  0  0  0  0  0  0
  187.1600  177.8500  137.9630 C   0  0  2  0  0  3  0  0  0  0  0  0
  184.3770  178.5580  142.0880 C   0  0  0  0  0  3  0  0  0  0  0  0
  186.7590  178.2110  141.7340 C   0  0  0  0  0  0  0  0  0  0  0  0
  185.6690  178.3580  142.5950 C   0  0  0  0  0  0  0  0  0  0  0  0
  187.1430  178.1480  144.5300 C   0  0  0  0  0  0  0  0  0  0  0  0
  189.4930  176.3660  147.6990 N   0  0  0  0  0  0  0  0  0  0  0  0
  189.7130  177.8690  137.5600 C   0  0  0  0  0  2  0  0  0  0  0  0
  187.6500  178.2520  139.3670 C   0  0  2  0  0  3  0  0  0  0  0  0
  189.9940  176.3290  146.3680 C   0  0  0  0  0  2  0  0  0  0  0  0
  189.9790  177.3000  138.9640 C   0  0  0  0  0  2  0  0  0  0  0  0
  187.5670  176.4410  137.5400 C   0  0  1  0  0  3  0  0  0  0  0  0
  184.7780  178.5240  144.8100 N   0  0  0  0  0  0  0  0  0  0  0  0
  185.8560  178.3400  143.9900 C   0  0  0  0  0  0  0  0  0  0  0  0
  187.2860  178.2190  145.8730 C   0  0  0  0  0  2  0  0  0  0  0  0
  189.2050  177.9470  141.2660 C   0  0  0  0  0  2  0  0  0  0  0  0
  190.8370  176.7960  143.3400 Cl  0  0  0  0  0  0  0  0  0  0  0  0
  188.0190  177.7260  148.9810 N   0  0  0  0  0  1  0  0  0  0  0  0
  188.2630  177.8690  143.6610 C   0  0  0  0  0  0  0  0  0  0  0  0
  188.6310  178.1790  146.5260 C   0  0  2  0  0  3  0  0  0  0  0  0
  186.5770  175.9240  136.5160 C   0  0  0  0  0  2  0  0  0  0  0  0
  185.9470  174.6710  137.0100 C   0  0  0  0  0  0  0  0  0  0  0  0
  184.5680  174.6010  137.1660 O   0  0  0  0  0  0  0  0  0  0  0  0
  186.6640  173.6840  137.3200 O   0  0  0  0  0  1  0  0  0  0  0  0
  1 20  1  0  0  0  0
  1 16  1  1  0  0  0
  1 10  1  0  0  0  0
  2 27  1  0  0  0  0
  3  4  1  0  0  0  0
  4 21  2  0  0  0  0
  5 25  1  6  0  0  0
  5  6  1  0  0  0  0
  6 18  1  6  0  0  0
  6 28  1  0  0  0  0
  7 19  1  6  0  0  0
  7 24  1  0  0  0  0
  8 12  1  0  0  0  0
  9 26  1  0  0  0  0
 10 17  1  0  0  0  0
 11 13  1  0  0  0  0
 11  3  2  0  0  0  0
 12  2  2  0  0  0  0
 12 13  1  0  0  0  0
 13 22  2  0  0  0  0
 14 23  1  0  0  0  0
 15  9  2  0  0  0  0
 16 19  1  0  0  0  0
 17  7  1  0  0  0  0
 17  8  1  0  0  0  0
 18 15  1  0  0  0  0
 20 10  1  0  0  0  0
 22 14  1  0  0  0  0
 22 21  1  0  0  0  0
 23 28  1  0  0  0  0
 24  2  1  0  0  0  0
 27  5  1  0  0  0  0
 27 14  2  0  0  0  0
 28  9  1  0  0  0  0
 29 30  1  0  0  0  0
 29 20  1  0  0  0  0
 30 31  2  0  0  0  0
 30 32  1  0  0  0  0
M  END
>  <MODEL>
3

>  <REMARK>
 VINA RESULT:      -9.7      1.886      2.519
  Name = 
  2 active torsions:
  status: ('A' for Active; 'I' for Inactive)
    1  A    between atoms: C_20  and  C_29
    2  A    between atoms: C_29  and  C_30
                            x       y       z     vdW  Elec       q    Type
                         _______ _______ _______ _____ _____    ______ ____

>  <TORSDO>
F 2

$$$$
=
 OpenBabel11122410443D

 32 38  0  0  1  0  0  0  0  0999 V2000
  180.3060  179.9410  138.2360 C   0  0  1  0  0  3  0  0  0  0  0  0
  184.1520  178.5590  141.6090 C   0  0  0  0  0  0  0  0  0  0  0  0
  188.0290  178.4520  138.6650 C   0  0  0  0  0  3  0  0  0  0  0  0
  188.8280  178.1460  139.7650 C   0  0  0  0  0  3  0  0  0  0  0  0
  184.5420  178.4200  144.0410 C   0  0  1  0  0  3  0  0  0  0  0  0
  185.5100  178.1830  145.1190 C   0  0  2  0  0  3  0  0  0  0  0  0
  182.0210  179.4870  140.6530 C   0  0  1  0  0  3  0  0  0  0  0  0
  183.8790  178.9350  139.1770 N   0  0  0  0  0  2  0  0  0  0  0  0
  187.5710  177.8780  145.9780 C   0  0  0  0  0  0  0  0  0  0  0  0
  181.8130  179.7190  138.0910 C   0  0  2  0  0  3  0  0  0  0  0  0
  186.6600  178.6270  138.8490 C   0  0  0  0  0  3  0  0  0  0  0  0
  184.7160  178.6460  140.3110 C   0  0  0  0  0  0  0  0  0  0  0  0
  186.0930  178.5010  140.1250 C   0  0  0  0  0  0  0  0  0  0  0  0
  186.3900  178.0570  142.5060 C   0  0  0  0  0  0  0  0  0  0  0  0
  186.9660  178.7230  146.7450 N   0  0  0  0  0  0  0  0  0  0  0  0
  179.7010  179.3670  139.5390 C   0  0  0  0  0  2  0  0  0  0  0  0
  182.4270  178.9560  139.2800 C   0  0  2  0  0  3  0  0  0  0  0  0
  185.6800  178.9560  146.1810 C   0  0  0  0  0  2  0  0  0  0  0  0
  180.5050  179.5770  140.8340 C   0  0  0  0  0  2  0  0  0  0  0  0
  181.2680  181.1000  138.4490 C   0  0  1  0  0  3  0  0  0  0  0  0
  188.2690  178.0230  140.9970 N   0  0  0  0  0  0  0  0  0  0  0  0
  186.9310  178.1950  141.2130 C   0  0  0  0  0  0  0  0  0  0  0  0
  187.2200  177.6830  143.5070 C   0  0  0  0  0  2  0  0  0  0  0  0
  182.6440  178.5970  141.7170 C   0  0  0  0  0  2  0  0  0  0  0  0
  182.9530  179.0040  144.5510 Cl  0  0  0  0  0  0  0  0  0  0  0  0
  188.8750  177.3860  146.2660 N   0  0  0  0  0  1  0  0  0  0  0  0
  184.9900  178.3240  142.7430 C   0  0  0  0  0  0  0  0  0  0  0  0
  186.7120  177.3640  144.8760 C   0  0  2  0  0  3  0  0  0  0  0  0
  181.2800  181.9750  137.2130 C   0  0  0  0  0  2  0  0  0  0  0  0
  181.1260  183.4020  137.6030 C   0  0  0  0  0  0  0  0  0  0  0  0
  182.2270  184.2480  137.5940 O   0  0  0  0  0  0  0  0  0  0  0  0
  180.0040  183.8360  137.9740 O   0  0  0  0  0  1  0  0  0  0  0  0
  1 20  1  0  0  0  0
  1 16  1  1  0  0  0
  2 24  1  0  0  0  0
  2 27  1  0  0  0  0
  3 11  2  0  0  0  0
  3  4  1  0  0  0  0
  4 21  2  0  0  0  0
  5 25  1  1  0  0  0
  5  6  1  0  0  0  0
  6 18  1  6  0  0  0
  7 19  1  6  0  0  0
  7 24  1  0  0  0  0
  8 17  1  0  0  0  0
  8 12  1  0  0  0  0
  9 26  1  0  0  0  0
  9 15  2  0  0  0  0
 10  1  1  0  0  0  0
 10 20  1  0  0  0  0
 10 17  1  0  0  0  0
 11 13  1  0  0  0  0
 12  2  2  0  0  0  0
 13 12  1  0  0  0  0
 13 22  2  0  0  0  0
 14 27  2  0  0  0  0
 14 23  1  0  0  0  0
 16 19  1  0  0  0  0
 17  7  1  0  0  0  0
 18 15  1  0  0  0  0
 21 22  1  0  0  0  0
 22 14  1  0  0  0  0
 23 28  1  0  0  0  0
 27  5  1  0  0  0  0
 28  6  1  0  0  0  0
 28  9  1  0  0  0  0
 29 30  1  0  0  0  0
 29 20  1  0  0  0  0
 30 32  1  0  0  0  0
 31 30  2  0  0  0  0
M  END
>  <MODEL>
4

>  <REMARK>
 VINA RESULT:      -9.1      3.813      5.790
  Name = 
  2 active torsions:
  status: ('A' for Active; 'I' for Inactive)
    1  A    between atoms: C_20  and  C_29
    2  A    between atoms: C_29  and  C_30
                            x       y       z     vdW  Elec       q    Type
                         _______ _______ _______ _____ _____    ______ ____

>  <TORSDO>
F 2

$$$$
=
 OpenBabel11122410443D

 32 38  0  0  1  0  0  0  0  0999 V2000
  189.3850  177.7080  148.0600 C   0  0  1  0  0  3  0  0  0  0  0  0
  186.7800  178.3610  143.4920 C   0  0  0  0  0  0  0  0  0  0  0  0
  190.3000  177.5030  140.2390 C   0  0  0  0  0  3  0  0  0  0  0  0
  189.3680  177.6740  139.2180 C   0  0  0  0  0  3  0  0  0  0  0  0
  184.4590  178.5120  142.6710 C   0  0  1  0  0  3  0  0  0  0  0  0
  183.5690  178.5770  141.5050 C   0  0  2  0  0  3  0  0  0  0  0  0
  187.3130  177.8780  145.9000 C   0  0  1  0  0  3  0  0  0  0  0  0
  189.1020  177.9530  144.2490 N   0  0  0  0  0  2  0  0  0  0  0  0
  183.0730  178.4640  139.3110 C   0  0  0  0  0  0  0  0  0  0  0  0
  189.7840  177.5920  146.5870 C   0  0  2  0  0  3  0  0  0  0  0  0
  189.8890  177.6360  141.5630 C   0  0  0  0  0  3  0  0  0  0  0  0
  188.1400  178.1000  143.1890 C   0  0  0  0  0  0  0  0  0  0  0  0
  188.5530  177.9350  141.8650 C   0  0  0  0  0  0  0  0  0  0  0  0
  186.2900  178.4020  141.0790 C   0  0  0  0  0  0  0  0  0  0  0  0
  182.1570  177.8020  139.9370 N   0  0  0  0  0  0  0  0  0  0  0  0
  188.0510  178.4530  148.3010 C   0  0  0  0  0  2  0  0  0  0  0  0
  188.7690  178.2510  145.6340 C   0  0  2  0  0  3  0  0  0  0  0  0
  182.4910  177.8300  141.3200 C   0  0  0  0  0  2  0  0  0  0  0  0
  186.8880  178.1260  147.3490 C   0  0  0  0  0  2  0  0  0  0  0  0
  189.2390  176.3780  147.3360 C   0  0  1  0  0  3  0  0  0  0  0  0
  188.0750  177.9650  139.5200 N   0  0  0  0  0  0  0  0  0  0  0  0
  187.6380  178.0960  140.8080 C   0  0  0  0  0  0  0  0  0  0  0  0
  185.4650  178.6280  140.0300 C   0  0  0  0  0  2  0  0  0  0  0  0
  186.4320  178.6550  144.9340 C   0  0  0  0  0  2  0  0  0  0  0  0
  183.6600  178.3080  144.2350 Cl  0  0  0  0  0  0  0  0  0  0  0  0
  183.0340  178.6730  137.9030 N   0  0  0  0  0  1  0  0  0  0  0  0
  185.8140  178.4550  142.4420 C   0  0  0  0  0  0  0  0  0  0  0  0
  184.0610  179.1060  140.2200 C   0  0  2  0  0  3  0  0  0  0  0  0
  190.3910  175.4700  147.7180 C   0  0  0  0  0  2  0  0  0  0  0  0
  191.6750  176.0670  147.2640 C   0  0  0  0  0  0  0  0  0  0  0  0
  192.0560  175.9690  145.9320 O   0  0  0  0  0  0  0  0  0  0  0  0
  192.4350  176.6320  148.0930 O   0  0  0  0  0  1  0  0  0  0  0  0
  1 16  1  6  0  0  0
  2 24  1  0  0  0  0
  3 11  2  0  0  0  0
  4 21  2  0  0  0  0
  4  3  1  0  0  0  0
  5 25  1  6  0  0  0
  6 18  1  6  0  0  0
  6  5  1  0  0  0  0
  7 24  1  6  0  0  0
  7 19  1  0  0  0  0
  8 17  1  0  0  0  0
  9 15  2  0  0  0  0
  9 28  1  0  0  0  0
 10 20  1  0  0  0  0
 10  1  1  0  0  0  0
 11 13  1  0  0  0  0
 12  2  1  0  0  0  0
 12  8  1  0  0  0  0
 13 12  2  0  0  0  0
 14 27  1  0  0  0  0
 15 18  1  0  0  0  0
 17  7  1  0  0  0  0
 17 10  1  0  0  0  0
 19 16  1  0  0  0  0
 20 29  1  0  0  0  0
 20  1  1  0  0  0  0
 21 22  1  0  0  0  0
 22 14  2  0  0  0  0
 22 13  1  0  0  0  0
 23 28  1  0  0  0  0
 23 14  1  0  0  0  0
 26  9  1  0  0  0  0
 27  5  1  0  0  0  0
 27  2  2  0  0  0  0
 28  6  1  0  0  0  0
 30 29  1  0  0  0  0
 30 32  1  0  0  0  0
 31 30  2  0  0  0  0
M  END
>  <MODEL>
5

>  <REMARK>
 VINA RESULT:      -9.0      3.965      8.516
  Name = 
  2 active torsions:
  status: ('A' for Active; 'I' for Inactive)
    1  A    between atoms: C_20  and  C_29
    2  A    between atoms: C_29  and  C_30
                            x       y       z     vdW  Elec       q    Type
                         _______ _______ _______ _____ _____    ______ ____

>  <TORSDO>
F 2

$$$$
=
 OpenBabel11122410443D

 32 38  0  0  1  0  0  0  0  0999 V2000
  180.1580  179.0140  139.3990 C   0  0  1  0  0  3  0  0  0  0  0  0
  185.3790  178.4790  140.1310 C   0  0  0  0  0  0  0  0  0  0  0  0
  185.6560  178.2430  144.9870 C   0  0  0  0  0  3  0  0  0  0  0  0
  187.0330  178.0560  144.8770 C   0  0  0  0  0  3  0  0  0  0  0  0
  187.4000  177.9290  138.8290 C   0  0  1  0  0  3  0  0  0  0  0  0
  188.8390  177.6370  138.8570 C   0  0  2  0  0  3  0  0  0  0  0  0
  183.0800  178.4070  139.1170 C   0  0  1  0  0  3  0  0  0  0  0  0
  183.3440  178.7780  141.5090 N   0  0  0  0  0  2  0  0  0  0  0  0
  190.8050  177.1690  139.8530 C   0  0  0  0  0  0  0  0  0  0  0  0
  181.0430  178.8540  140.6370 C   0  0  2  0  0  3  0  0  0  0  0  0
  184.8980  178.4010  143.8290 C   0  0  0  0  0  3  0  0  0  0  0  0
  184.7620  178.5560  141.4050 C   0  0  0  0  0  0  0  0  0  0  0  0
  185.5110  178.3680  142.5690 C   0  0  0  0  0  0  0  0  0  0  0  0
  187.5490  178.1400  141.2440 C   0  0  0  0  0  0  0  0  0  0  0  0
  190.6880  176.3580  138.8540 N   0  0  0  0  0  0  0  0  0  0  0  0
  180.9260  179.4020  138.1140 C   0  0  0  0  0  2  0  0  0  0  0  0
  182.5330  179.1200  140.3510 C   0  0  2  0  0  3  0  0  0  0  0  0
  189.4270  176.6170  138.2490 C   0  0  0  0  0  2  0  0  0  0  0  0
  182.2620  178.6840  137.8550 C   0  0  0  0  0  2  0  0  0  0  0  0
  180.4820  177.6240  139.9270 C   0  0  1  0  0  3  0  0  0  0  0  0
  187.6190  178.0280  143.6510 N   0  0  0  0  0  0  0  0  0  0  0  0
  186.9030  178.1720  142.4960 C   0  0  0  0  0  0  0  0  0  0  0  0
  188.8970  178.0300  141.2270 C   0  0  0  0  0  2  0  0  0  0  0  0
  184.5320  178.8200  138.9250 C   0  0  0  0  0  2  0  0  0  0  0  0
  186.5980  177.6860  137.2720 Cl  0  0  0  0  0  0  0  0  0  0  0  0
  191.9720  177.2120  140.6660 N   0  0  0  0  0  1  0  0  0  0  0  0
  186.7780  178.2070  140.0250 C   0  0  0  0  0  0  0  0  0  0  0  0
  189.6810  178.1390  139.9580 C   0  0  2  0  0  3  0  0  0  0  0  0
  179.2960  177.0960  140.7080 C   0  0  0  0  0  2  0  0  0  0  0  0
  179.2180  175.6170  140.5710 C   0  0  0  0  0  0  0  0  0  0  0  0
  178.9580  174.8280  141.6840 O   0  0  0  0  0  1  0  0  0  0  0  0
  179.4210  175.0770  139.4520 O   0  0  0  0  0  0  0  0  0  0  0  0
  1 16  1  6  0  0  0
  1 20  1  0  0  0  0
  1 10  1  0  0  0  0
  2 12  1  0  0  0  0
  4  3  1  0  0  0  0
  5 25  1  1  0  0  0
  5  6  1  0  0  0  0
  5 27  1  0  0  0  0
  6 18  1  1  0  0  0
  6 28  1  0  0  0  0
  7 19  1  6  0  0  0
  7 17  1  0  0  0  0
  9 28  1  0  0  0  0
  9 26  1  0  0  0  0
 11  3  2  0  0  0  0
 12  8  1  0  0  0  0
 12 13  2  0  0  0  0
 13 11  1  0  0  0  0
 14 22  2  0  0  0  0
 15  9  2  0  0  0  0
 17 10  1  0  0  0  0
 17  8  1  0  0  0  0
 18 15  1  0  0  0  0
 19 16  1  0  0  0  0
 20 10  1  0  0  0  0
 20 29  1  0  0  0  0
 21  4  2  0  0  0  0
 22 13  1  0  0  0  0
 22 21  1  0  0  0  0
 23 14  1  0  0  0  0
 24  7  1  0  0  0  0
 24  2  1  0  0  0  0
 27  2  2  0  0  0  0
 27 14  1  0  0  0  0
 28 23  1  0  0  0  0
 30 29  1  0  0  0  0
 30 31  1  0  0  0  0
 32 30  2  0  0  0  0
M  END
>  <MODEL>
6

>  <REMARK>
 VINA RESULT:      -8.1      2.949      4.543
  Name = 
  2 active torsions:
  status: ('A' for Active; 'I' for Inactive)
    1  A    between atoms: C_20  and  C_29
    2  A    between atoms: C_29  and  C_30
                            x       y       z     vdW  Elec       q    Type
                         _______ _______ _______ _____ _____    ______ ____

>  <TORSDO>
F 2

$$$$
=
 OpenBabel11122410443D

 32 38  0  0  1  0  0  0  0  0999 V2000
  191.0800  177.4700  144.6680 C   0  0  1  0  0  3  0  0  0  0  0  0
  186.9770  178.4420  141.4580 C   0  0  0  0  0  0  0  0  0  0  0  0
  189.0870  178.1640  137.0780 C   0  0  0  0  0  3  0  0  0  0  0  0
  187.8430  178.3840  136.4900 C   0  0  0  0  0  3  0  0  0  0  0  0
  184.5140  178.5330  141.5510 C   0  0  1  0  0  3  0  0  0  0  0  0
  183.2590  178.6670  140.8000 C   0  0  2  0  0  3  0  0  0  0  0  0
  188.3600  177.7390  143.4350 C   0  0  1  0  0  3  0  0  0  0  0  0
  189.4230  178.1050  141.2740 N   0  0  0  0  0  2  0  0  0  0  0  0
  182.0010  178.7580  138.9340 C   0  0  0  0  0  0  0  0  0  0  0  0
  190.9170  177.5380  143.1470 C   0  0  2  0  0  3  0  0  0  0  0  0
  189.1840  178.1280  138.4670 C   0  0  0  0  0  3  0  0  0  0  0  0
  188.1380  178.3030  140.6570 C   0  0  0  0  0  0  0  0  0  0  0  0
  188.0440  178.3070  139.2630 C   0  0  0  0  0  0  0  0  0  0  0  0
  185.6410  178.7120  139.4070 C   0  0  0  0  0  0  0  0  0  0  0  0
  181.3890  177.9760  139.7610 N   0  0  0  0  0  0  0  0  0  0  0  0
  189.9100  178.0980  145.4610 C   0  0  0  0  0  2  0  0  0  0  0  0
  189.6120  178.2300  142.7120 C   0  0  2  0  0  3  0  0  0  0  0  0
  182.2030  177.8760  140.9240 C   0  0  0  0  0  2  0  0  0  0  0  0
  188.4870  177.8030  144.9580 C   0  0  0  0  0  2  0  0  0  0  0  0
  190.7070  176.2190  143.8870 C   0  0  1  0  0  3  0  0  0  0  0  0
  186.7440  178.5590  137.2690 N   0  0  0  0  0  0  0  0  0  0  0  0
  186.8030  178.5230  138.6340 C   0  0  0  0  0  0  0  0  0  0  0  0
  184.4870  178.9950  138.7610 C   0  0  0  0  0  2  0  0  0  0  0  0
  187.1720  178.5570  142.9530 C   0  0  0  0  0  2  0  0  0  0  0  0
  184.3440  178.1120  143.2600 Cl  0  0  0  0  0  0  0  0  0  0  0  0
  181.4470  179.1140  137.6720 N   0  0  0  0  0  1  0  0  0  0  0  0
  185.6940  178.5870  140.8450 C   0  0  0  0  0  0  0  0  0  0  0  0
  183.2380  179.3600  139.4990 C   0  0  2  0  0  3  0  0  0  0  0  0
  191.9370  175.3510  143.7140 C   0  0  0  0  0  2  0  0  0  0  0  0
  192.1970  174.5890  144.9650 C   0  0  0  0  0  0  0  0  0  0  0  0
  192.2330  175.2490  146.1860 O   0  0  0  0  0  1  0  0  0  0  0  0
  192.4170  173.3510  144.9140 O   0  0  0  0  0  0  0  0  0  0  0  0
  1 16  1  1  0  0  0
  2 24  1  0  0  0  0
  3 11  1  0  0  0  0
  4  3  2  0  0  0  0
  4 21  1  0  0  0  0
  5 25  1  6  0  0  0
  6 18  1  6  0  0  0
  6  5  1  0  0  0  0
  7 24  1  6  0  0  0
  7 19  1  0  0  0  0
  8 17  1  0  0  0  0
  9 28  1  0  0  0  0
  9 15  2  0  0  0  0
 10 20  1  0  0  0  0
 10  1  1  0  0  0  0
 11 13  2  0  0  0  0
 12  8  1  0  0  0  0
 12  2  2  0  0  0  0
 13 12  1  0  0  0  0
 14 27  2  0  0  0  0
 15 18  1  0  0  0  0
 17 10  1  0  0  0  0
 17  7  1  0  0  0  0
 19 16  1  0  0  0  0
 20  1  1  0  0  0  0
 21 22  2  0  0  0  0
 22 13  1  0  0  0  0
 22 14  1  0  0  0  0
 23 14  1  0  0  0  0
 23 28  1  0  0  0  0
 26  9  1  0  0  0  0
 27  2  1  0  0  0  0
 27  5  1  0  0  0  0
 28  6  1  0  0  0  0
 29 20  1  0  0  0  0
 29 30  1  0  0  0  0
 30 31  1  0  0  0  0
 32 30  2  0  0  0  0
M  END
>  <MODEL>
7

>  <REMARK>
 VINA RESULT:      -8.1      3.980      8.434
  Name = 
  2 active torsions:
  status: ('A' for Active; 'I' for Inactive)
    1  A    between atoms: C_20  and  C_29
    2  A    between atoms: C_29  and  C_30
                            x       y       z     vdW  Elec       q    Type
                         _______ _______ _______ _____ _____    ______ ____

>  <TORSDO>
F 2

$$$$
=
 OpenBabel11122410443D

 32 38  0  0  1  0  0  0  0  0999 V2000
  191.1730  176.4680  136.7270 C   0  0  1  0  0  3  0  0  0  0  0  0
  188.0880  177.8510  140.8070 C   0  0  0  0  0  0  0  0  0  0  0  0
  183.9020  178.8900  138.5470 C   0  0  0  0  0  3  0  0  0  0  0  0
  183.3190  179.1400  139.7870 C   0  0  0  0  0  3  0  0  0  0  0  0
  188.0650  177.6930  143.2680 C   0  0  1  0  0  3  0  0  0  0  0  0
  187.3030  177.8990  144.5060 C   0  0  2  0  0  3  0  0  0  0  0  0
  189.8990  176.7950  139.4210 C   0  0  1  0  0  3  0  0  0  0  0  0
  187.9610  177.7940  138.3350 N   0  0  0  0  0  2  0  0  0  0  0  0
  185.4520  178.3490  145.7100 C   0  0  0  0  0  0  0  0  0  0  0  0
  189.7120  176.9060  136.8490 C   0  0  2  0  0  3  0  0  0  0  0  0
  185.2410  178.5110  138.4890 C   0  0  0  0  0  3  0  0  0  0  0  0
  187.3430  178.0260  139.6140 C   0  0  0  0  0  0  0  0  0  0  0  0
  185.9920  178.3770  139.6650 C   0  0  0  0  0  0  0  0  0  0  0  0
  186.0990  178.5130  142.1000 C   0  0  0  0  0  0  0  0  0  0  0  0
  186.0220  177.3300  146.2640 N   0  0  0  0  0  0  0  0  0  0  0  0
  192.0330  176.7650  137.9780 C   0  0  0  0  0  2  0  0  0  0  0  0
  189.3920  177.5650  138.2040 C   0  0  2  0  0  3  0  0  0  0  0  0
  187.1660  177.0110  145.4800 C   0  0  0  0  0  2  0  0  0  0  0  0
  191.3940  176.4800  139.3480 C   0  0  0  0  0  2  0  0  0  0  0  0
  190.0840  175.4280  136.9470 C   0  0  1  0  0  3  0  0  0  0  0  0
  184.0560  179.0100  140.9220 N   0  0  0  0  0  0  0  0  0  0  0  0
  185.3700  178.6330  140.9020 C   0  0  0  0  0  0  0  0  0  0  0  0
  185.4820  178.8460  143.2570 C   0  0  0  0  0  2  0  0  0  0  0  0
  189.5730  177.5980  140.6700 C   0  0  0  0  0  2  0  0  0  0  0  0
  189.6010  176.8360  143.4470 Cl  0  0  0  0  0  0  0  0  0  0  0  0
  184.2910  178.9630  146.2580 N   0  0  0  0  0  1  0  0  0  0  0  0
  187.4610  178.0310  142.0790 C   0  0  0  0  0  0  0  0  0  0  0  0
  186.2180  178.8970  144.5580 C   0  0  2  0  0  3  0  0  0  0  0  0
  189.7680  174.7480  135.6310 C   0  0  0  0  0  2  0  0  0  0  0  0
  188.5660  173.8850  135.7840 C   0  0  0  0  0  0  0  0  0  0  0  0
  187.6190  173.8260  134.7700 O   0  0  0  0  0  0  0  0  0  0  0  0
  188.3890  173.2340  136.8470 O   0  0  0  0  0  1  0  0  0  0  0  0
  1 10  1  0  0  0  0
  1 20  1  0  0  0  0
  1 16  1  1  0  0  0
  2 27  1  0  0  0  0
  3  4  1  0  0  0  0
  4 21  2  0  0  0  0
  5 25  1  6  0  0  0
  5  6  1  0  0  0  0
  6 28  1  0  0  0  0
  6 18  1  6  0  0  0
  7 19  1  6  0  0  0
  7 24  1  0  0  0  0
  8 12  1  0  0  0  0
  9 26  1  0  0  0  0
  9 15  2  0  0  0  0
 10 20  1  0  0  0  0
 10 17  1  0  0  0  0
 11  3  2  0  0  0  0
 11 13  1  0  0  0  0
 12 13  1  0  0  0  0
 12  2  2  0  0  0  0
 13 22  2  0  0  0  0
 14 23  1  0  0  0  0
 16 19  1  0  0  0  0
 17  8  1  0  0  0  0
 17  7  1  0  0  0  0
 18 15  1  0  0  0  0
 22 21  1  0  0  0  0
 22 14  1  0  0  0  0
 23 28  1  0  0  0  0
 24  2  1  0  0  0  0
 27 14  2  0  0  0  0
 27  5  1  0  0  0  0
 28  9  1  0  0  0  0
 29 30  1  0  0  0  0
 29 20  1  0  0  0  0
 30 32  1  0  0  0  0
 31 30  2  0  0  0  0
M  END
>  <MODEL>
8

>  <REMARK>
 VINA RESULT:      -8.0      2.839      5.050
  Name = 
  2 active torsions:
  status: ('A' for Active; 'I' for Inactive)
    1  A    between atoms: C_20  and  C_29
    2  A    between atoms: C_29  and  C_30
                            x       y       z     vdW  Elec       q    Type
                         _______ _______ _______ _____ _____    ______ ____

>  <TORSDO>
F 2

$$$$
=
 OpenBabel11122410443D

 32 38  0  0  1  0  0  0  0  0999 V2000
  191.2960  177.7480  145.3110 C   0  0  1  0  0  3  0  0  0  0  0  0
  189.1260  177.8610  140.4780 C   0  0  0  0  0  0  0  0  0  0  0  0
  192.7230  176.0260  137.7580 C   0  0  0  0  0  3  0  0  0  0  0  0
  191.8950  176.1170  136.6410 C   0  0  0  0  0  3  0  0  0  0  0  0
  186.9080  178.1310  139.4330 C   0  0  1  0  0  3  0  0  0  0  0  0
  186.1180  178.0870  138.1960 C   0  0  2  0  0  3  0  0  0  0  0  0
  189.4200  177.7640  142.9720 C   0  0  1  0  0  3  0  0  0  0  0  0
  191.3150  177.3310  141.5040 N   0  0  0  0  0  2  0  0  0  0  0  0
  185.7670  177.6370  136.0170 C   0  0  0  0  0  0  0  0  0  0  0  0
  191.7790  177.3210  143.9220 C   0  0  2  0  0  3  0  0  0  0  0  0
  192.2410  176.4440  138.9960 C   0  0  0  0  0  3  0  0  0  0  0  0
  190.4580  177.3950  140.3500 C   0  0  0  0  0  0  0  0  0  0  0  0
  190.9380  176.9450  139.1180 C   0  0  0  0  0  0  0  0  0  0  0  0
  188.8160  177.5230  138.0590 C   0  0  0  0  0  0  0  0  0  0  0  0
  184.7310  177.2100  136.6600 N   0  0  0  0  0  0  0  0  0  0  0  0
  190.0570  178.6740  145.2970 C   0  0  0  0  0  2  0  0  0  0  0  0
  190.9280  177.9110  142.7820 C   0  0  2  0  0  3  0  0  0  0  0  0
  184.9670  177.4490  138.0420 C   0  0  0  0  0  2  0  0  0  0  0  0
  188.9310  178.3180  144.3110 C   0  0  0  0  0  2  0  0  0  0  0  0
  191.0280  176.3350  144.8140 C   0  0  1  0  0  3  0  0  0  0  0  0
  190.6340  176.6070  136.7680 N   0  0  0  0  0  0  0  0  0  0  0  0
  190.1280  177.0180  137.9690 C   0  0  0  0  0  0  0  0  0  0  0  0
  188.1030  177.6490  136.9150 C   0  0  0  0  0  2  0  0  0  0  0  0
  188.7190  178.4500  141.8100 C   0  0  0  0  0  2  0  0  0  0  0  0
  185.9810  178.3070  140.9290 Cl  0  0  0  0  0  0  0  0  0  0  0  0
  185.8540  177.5910  134.5970 N   0  0  0  0  0  1  0  0  0  0  0  0
  188.2570  177.8760  139.3430 C   0  0  0  0  0  0  0  0  0  0  0  0
  186.7640  178.3130  136.8900 C   0  0  2  0  0  3  0  0  0  0  0  0
  192.0220  175.3840  145.4500 C   0  0  0  0  0  2  0  0  0  0  0  0
  192.0540  175.5960  146.9210 C   0  0  0  0  0  0  0  0  0  0  0  0
  190.8720  175.8140  147.6180 O   0  0  0  0  0  1  0  0  0  0  0  0
  193.1540  175.6100  147.5320 O   0  0  0  0  0  0  0  0  0  0  0  0
  1 16  1  6  0  0  0
  2 24  1  0  0  0  0
  3 11  2  0  0  0  0
  4 21  2  0  0  0  0
  4  3  1  0  0  0  0
  5 25  1  1  0  0  0
  6 18  1  6  0  0  0
  6  5  1  0  0  0  0
  7 24  1  6  0  0  0
  7 19  1  0  0  0  0
  8 17  1  0  0  0  0
  9 15  2  0  0  0  0
  9 28  1  0  0  0  0
 10 20  1  0  0  0  0
 10  1  1  0  0  0  0
 11 13  1  0  0  0  0
 12  2  1  0  0  0  0
 12  8  1  0  0  0  0
 13 12  2  0  0  0  0
 14 27  1  0  0  0  0
 15 18  1  0  0  0  0
 17  7  1  0  0  0  0
 17 10  1  0  0  0  0
 19 16  1  0  0  0  0
 20  1  1  0  0  0  0
 20 29  1  0  0  0  0
 21 22  1  0  0  0  0
 22 14  2  0  0  0  0
 22 13  1  0  0  0  0
 23 14  1  0  0  0  0
 26  9  1  0  0  0  0
 27  5  1  0  0  0  0
 27  2  2  0  0  0  0
 28 23  1  0  0  0  0
 28  6  1  0  0  0  0
 29 30  1  0  0  0  0
 30 32  2  0  0  0  0
 30 31  1  0  0  0  0
M  END
>  <MODEL>
9

>  <REMARK>
 VINA RESULT:      -7.8      4.346      8.920
  Name = 
  2 active torsions:
  status: ('A' for Active; 'I' for Inactive)
    1  A    between atoms: C_20  and  C_29
    2  A    between atoms: C_29  and  C_30
                            x       y       z     vdW  Elec       q    Type
                         _______ _______ _______ _____ _____    ______ ____

>  <TORSDO>
F 2

$$$$
