=
 OpenBabel11122411463D

 37 44  0  0  1  0  0  0  0  0999 V2000
  185.8960  179.0430  146.0690 C   0  0  1  0  0  0  0  0  0  0  0  0
  186.8840  177.4580  142.8100 C   0  0  1  0  0  3  0  0  0  0  0  0
  189.7730  175.8370  142.6720 O   0  0  0  0  0  0  0  0  0  0  0  0
  184.8320  178.0150  144.3120 C   0  0  2  0  0  3  0  0  0  0  0  0
  188.3060  177.5940  143.3540 C   0  0  2  0  0  3  0  0  0  0  0  0
  186.0700  177.1450  144.0700 C   0  0  2  0  0  3  0  0  0  0  0  0
  189.4150  177.1640  142.3920 C   0  0  2  0  0  3  0  0  0  0  0  0
  184.0960  178.2160  142.9980 C   0  0  0  0  0  2  0  0  0  0  0  0
  187.0670  177.2170  145.2260 C   0  0  2  0  0  3  0  0  0  0  0  0
  185.2300  178.2010  146.9550 F   0  0  0  0  0  0  0  0  0  0  0  0
  187.0540  178.7930  140.6660 C   0  0  0  0  0  2  0  0  0  0  0  0
  184.9510  178.9370  141.9490 C   0  0  0  0  0  2  0  0  0  0  0  0
  187.1710  178.5390  145.7360 O   0  0  0  0  0  0  0  0  0  0  0  0
  191.4560  177.0090  143.9220 O   0  0  0  0  0  0  0  0  0  0  0  0
  190.9460  175.7690  143.4750 C   0  0  1  0  0  3  0  0  0  0  0  0
  186.4710  178.7500  142.0790 C   0  0  1  0  0  3  0  0  0  0  0  0
  188.3340  176.8220  144.5990 N   0  0  2  0  0  0  0  0  0  0  0  0
  185.1470  179.2610  144.8930 O   0  0  0  0  0  0  0  0  0  0  0  0
  189.1020  177.3680  140.9040 C   0  0  1  0  0  3  0  0  0  0  0  0
  186.0870  180.3770  146.7590 C   0  0  0  0  0  1  0  0  0  0  0  0
  190.7640  176.2540  144.8930 C   0  0  2  0  0  3  0  0  0  0  0  0
  189.5620  177.1110  145.3700 C   0  0  2  0  0  3  0  0  0  0  0  0
  188.5780  178.7770  140.6320 C   0  0  0  0  0  2  0  0  0  0  0  0
  190.1090  176.2800  138.7900 C   0  0  0  0  0  2  0  0  0  0  0  0
  190.3020  177.0830  140.0520 C   0  0  0  0  0  0  0  0  0  0  0  0
  191.5300  177.4590  140.4400 C   0  0  0  0  0  3  0  0  0  0  0  0
  193.8550  177.3810  139.9950 O   0  0  0  0  0  0  0  0  0  0  0  0
  192.4620  176.6990  138.2520 N   0  0  0  0  0  2  0  0  0  0  0  0
  192.6850  177.1890  139.5750 C   0  0  0  0  0  0  0  0  0  0  0  0
  191.1070  176.6960  137.7070 C   0  0  0  0  0  2  0  0  0  0  0  0
  189.3800  176.8340  146.8700 C   0  0  1  0  0  3  0  0  0  0  0  0
  190.6650  177.0720  147.6040 N   0  0  0  0  0  0  0  0  0  0  0  0
  189.5020  178.0000  147.6000 C   0  0  2  0  0  3  0  0  0  0  0  0
  188.7600  177.8750  148.9140 C   0  0  0  0  0  2  0  0  0  0  0  0
  187.4460  177.5240  148.6700 F   0  0  0  0  0  0  0  0  0  0  0  0
  192.4770  175.5260  147.6800 C   0  0  0  0  0  2  0  0  0  0  0  0
  191.9790  176.7050  148.0140 C   0  0  0  0  0  3  0  0  0  0  0  0
  1 20  1  1  0  0  0
  1 10  1  0  0  0  0
  2  5  1  0  0  0  0
  2  6  1  0  0  0  0
  3 15  1  0  0  0  0
  4 18  1  0  0  0  0
  5 17  1  0  0  0  0
  6  4  1  0  0  0  0
  6  9  1  0  0  0  0
  7  3  1  0  0  0  0
  7  5  1  0  0  0  0
  8  4  1  0  0  0  0
  9 13  1  0  0  0  0
 11 16  1  0  0  0  0
 12 16  1  0  0  0  0
 12  8  1  0  0  0  0
 13  1  1  0  0  0  0
 14 21  1  0  0  0  0
 15 14  1  0  0  0  0
 15 21  1  0  0  0  0
 16  2  1  0  0  0  0
 17  9  1  0  0  0  0
 17 22  1  0  0  0  0
 18  1  1  0  0  0  0
 19  7  1  0  0  0  0
 21 22  1  0  0  0  0
 22 31  1  0  0  0  0
 23 11  1  0  0  0  0
 23 19  1  0  0  0  0
 24 25  1  0  0  0  0
 25 26  2  0  0  0  0
 25 19  1  0  0  0  0
 28 29  1  0  0  0  0
 29 27  2  0  0  0  0
 29 26  1  0  0  0  0
 30 28  1  0  0  0  0
 30 24  1  0  0  0  0
 31 33  1  0  0  0  0
 31 32  1  0  0  0  0
 32 37  1  0  0  0  0
 33 32  1  0  0  0  0
 33 34  1  0  0  0  0
 35 34  1  0  0  0  0
 36 37  2  0  0  0  0
M  END
>  <MODEL>
1

>  <REMARK>
 VINA RESULT:      -9.3      0.000      0.000
  Name = 
  4 active torsions:
  status: ('A' for Active; 'I' for Inactive)
    1  A    between atoms: C_1  and  C_27
    2  A    between atoms: N_4  and  C_37
    3  A    between atoms: C_8  and  C_12
    4  A    between atoms: C_23  and  C_30
                            x       y       z     vdW  Elec       q    Type
                         _______ _______ _______ _____ _____    ______ ____

>  <TORSDO>
F 4

$$$$
=
 OpenBabel11122411463D

 37 44  0  0  1  0  0  0  0  0999 V2000
  190.0750  176.5640  137.6840 C   0  0  1  0  0  0  0  0  0  0  0  0
  186.7750  178.2980  137.2170 C   0  0  1  0  0  3  0  0  0  0  0  0
  185.2790  179.5580  139.8940 O   0  0  0  0  0  0  0  0  0  0  0  0
  189.0760  177.8660  136.0770 C   0  0  2  0  0  3  0  0  0  0  0  0
  186.5570  177.9410  138.6870 C   0  0  2  0  0  3  0  0  0  0  0  0
  188.2780  178.5950  137.1630 C   0  0  2  0  0  3  0  0  0  0  0  0
  185.1850  178.3140  139.2510 C   0  0  2  0  0  3  0  0  0  0  0  0
  188.2820  177.8740  134.7820 C   0  0  0  0  0  2  0  0  0  0  0  0
  188.8010  178.3000  138.5680 C   0  0  2  0  0  3  0  0  0  0  0  0
  191.1880  177.4000  137.6590 F   0  0  0  0  0  0  0  0  0  0  0  0
  184.7970  177.1470  136.1370 C   0  0  0  0  0  2  0  0  0  0  0  0
  186.9370  177.1490  134.9100 C   0  0  0  0  0  2  0  0  0  0  0  0
  189.1730  176.9350  138.7030 O   0  0  0  0  0  0  0  0  0  0  0  0
  185.5320  178.0820  141.7720 O   0  0  0  0  0  0  0  0  0  0  0  0
  185.4110  179.4090  141.3030 C   0  0  1  0  0  3  0  0  0  0  0  0
  186.3150  177.1360  136.3160 C   0  0  1  0  0  3  0  0  0  0  0  0
  187.6450  178.5900  139.4230 N   0  0  2  0  0  0  0  0  0  0  0  0
  189.4090  176.5450  136.4400 O   0  0  0  0  0  0  0  0  0  0  0  0
  184.0330  178.2820  138.2370 C   0  0  1  0  0  3  0  0  0  0  0  0
  190.5620  175.1620  137.9780 C   0  0  0  0  0  1  0  0  0  0  0  0
  186.7290  178.8270  141.7510 C   0  0  2  0  0  3  0  0  0  0  0  0
  187.7150  178.0860  140.8110 C   0  0  2  0  0  3  0  0  0  0  0  0
  184.0260  176.9780  137.4420 C   0  0  0  0  0  2  0  0  0  0  0  0
  182.3380  177.5850  140.0570 C   0  0  0  0  0  2  0  0  0  0  0  0
  182.7110  178.4930  138.9100 C   0  0  0  0  0  0  0  0  0  0  0  0
  181.8430  179.4090  138.4560 C   0  0  0  0  0  3  0  0  0  0  0  0
  179.6730  180.3410  138.6410 O   0  0  0  0  0  0  0  0  0  0  0  0
  180.3430  178.9650  140.4020 N   0  0  0  0  0  2  0  0  0  0  0  0
  180.5640  179.6120  139.1480 C   0  0  0  0  0  0  0  0  0  0  0  0
  181.4610  178.3120  141.0780 C   0  0  0  0  0  2  0  0  0  0  0  0
  189.1200  178.2490  141.4130 C   0  0  1  0  0  3  0  0  0  0  0  0
  189.1420  177.7510  142.8260 N   0  0  0  0  0  0  0  0  0  0  0  0
  189.6930  177.0170  141.6550 C   0  0  2  0  0  3  0  0  0  0  0  0
  191.2030  177.1340  141.6590 C   0  0  0  0  0  2  0  0  0  0  0  0
  191.6160  177.8140  140.5290 F   0  0  0  0  0  0  0  0  0  0  0  0
  187.9020  177.1620  144.7750 C   0  0  0  0  0  2  0  0  0  0  0  0
  188.8710  177.8720  144.2190 C   0  0  0  0  0  3  0  0  0  0  0  0
  1 20  1  1  0  0  0
  1 13  1  0  0  0  0
  2  5  1  0  0  0  0
  3 15  1  0  0  0  0
  4 18  1  0  0  0  0
  4  6  1  0  0  0  0
  5  7  1  0  0  0  0
  5 17  1  0  0  0  0
  6  2  1  0  0  0  0
  6  9  1  0  0  0  0
  7  3  1  0  0  0  0
  8 12  1  0  0  0  0
  8  4  1  0  0  0  0
  9 13  1  0  0  0  0
  9 17  1  0  0  0  0
 10  1  1  0  0  0  0
 11 16  1  0  0  0  0
 11 23  1  0  0  0  0
 12 16  1  0  0  0  0
 15 21  1  0  0  0  0
 15 14  1  0  0  0  0
 16  2  1  0  0  0  0
 17 22  1  0  0  0  0
 18  1  1  0  0  0  0
 19 25  1  0  0  0  0
 19  7  1  0  0  0  0
 21 14  1  0  0  0  0
 22 31  1  0  0  0  0
 22 21  1  0  0  0  0
 23 19  1  0  0  0  0
 24 30  1  0  0  0  0
 25 24  1  0  0  0  0
 26 25  2  0  0  0  0
 26 29  1  0  0  0  0
 27 29  2  0  0  0  0
 28 30  1  0  0  0  0
 29 28  1  0  0  0  0
 31 33  1  0  0  0  0
 31 32  1  0  0  0  0
 32 37  1  0  0  0  0
 33 34  1  0  0  0  0
 33 32  1  0  0  0  0
 35 34  1  0  0  0  0
 37 36  2  0  0  0  0
M  END
>  <MODEL>
2

>  <REMARK>
 VINA RESULT:      -8.7      4.520      8.072
  Name = 
  4 active torsions:
  status: ('A' for Active; 'I' for Inactive)
    1  A    between atoms: C_1  and  C_27
    2  A    between atoms: N_4  and  C_37
    3  A    between atoms: C_8  and  C_12
    4  A    between atoms: C_23  and  C_30
                            x       y       z     vdW  Elec       q    Type
                         _______ _______ _______ _____ _____    ______ ____

>  <TORSDO>
F 4

$$$$
=
 OpenBabel11122411463D

 37 44  0  0  1  0  0  0  0  0999 V2000
  189.9790  176.5320  137.6560 C   0  0  1  0  0  0  0  0  0  0  0  0
  186.6830  178.2560  137.1340 C   0  0  1  0  0  3  0  0  0  0  0  0
  185.1370  179.5090  139.7850 O   0  0  0  0  0  0  0  0  0  0  0  0
  189.0040  177.8330  136.0330 C   0  0  2  0  0  3  0  0  0  0  0  0
  186.4400  177.8970  138.5990 C   0  0  2  0  0  3  0  0  0  0  0  0
  188.1850  178.5580  137.1060 C   0  0  2  0  0  3  0  0  0  0  0  0
  185.0580  178.2660  139.1390 C   0  0  2  0  0  3  0  0  0  0  0  0
  188.2330  177.8390  134.7240 C   0  0  0  0  0  2  0  0  0  0  0  0
  188.6850  178.2630  138.5190 C   0  0  2  0  0  3  0  0  0  0  0  0
  191.0900  177.3710  137.6510 F   0  0  0  0  0  0  0  0  0  0  0  0
  184.7270  177.1010  136.0190 C   0  0  0  0  0  2  0  0  0  0  0  0
  186.8880  177.1110  134.8290 C   0  0  0  0  0  2  0  0  0  0  0  0
  189.0580  176.8990  138.6600 O   0  0  0  0  0  0  0  0  0  0  0  0
  185.3610  178.0320  141.6660 O   0  0  0  0  0  0  0  0  0  0  0  0
  185.2450  179.3600  141.1960 C   0  0  1  0  0  3  0  0  0  0  0  0
  186.2420  177.0940  136.2240 C   0  0  1  0  0  3  0  0  0  0  0  0
  187.5130  178.5490  139.3540 N   0  0  2  0  0  0  0  0  0  0  0  0
  189.3340  176.5120  136.4000 O   0  0  0  0  0  0  0  0  0  0  0  0
  183.9240  178.2320  138.1060 C   0  0  1  0  0  3  0  0  0  0  0  0
  190.4640  175.1300  137.9570 C   0  0  0  0  0  1  0  0  0  0  0  0
  186.5560  178.7810  141.6670 C   0  0  2  0  0  3  0  0  0  0  0  0
  187.5610  178.0440  140.7430 C   0  0  2  0  0  3  0  0  0  0  0  0
  183.9340  176.9290  137.3090 C   0  0  0  0  0  2  0  0  0  0  0  0
  181.9820  179.8180  138.7230 C   0  0  0  0  0  2  0  0  0  0  0  0
  182.5890  178.4380  138.7560 C   0  0  0  0  0  0  0  0  0  0  0  0
  181.9840  177.4420  139.4220 C   0  0  0  0  0  3  0  0  0  0  0  0
  180.1630  176.8000  140.7950 O   0  0  0  0  0  0  0  0  0  0  0  0
  179.9630  178.8730  139.7420 N   0  0  0  0  0  2  0  0  0  0  0  0
  180.6650  177.6630  140.0280 C   0  0  0  0  0  0  0  0  0  0  0  0
  180.4530  179.7530  138.6840 C   0  0  0  0  0  2  0  0  0  0  0  0
  188.9540  178.2110  141.3700 C   0  0  1  0  0  3  0  0  0  0  0  0
  188.9480  177.7280  142.7880 N   0  0  0  0  0  0  0  0  0  0  0  0
  189.5200  176.9790  141.6370 C   0  0  2  0  0  3  0  0  0  0  0  0
  191.0290  177.0930  141.6680 C   0  0  0  0  0  2  0  0  0  0  0  0
  191.4630  177.7860  140.5540 F   0  0  0  0  0  0  0  0  0  0  0  0
  187.6960  177.1370  144.7280 C   0  0  0  0  0  2  0  0  0  0  0  0
  188.6520  177.8660  144.1750 C   0  0  0  0  0  3  0  0  0  0  0  0
  1 20  1  1  0  0  0
  1 13  1  0  0  0  0
  2  5  1  0  0  0  0
  3 15  1  0  0  0  0
  4 18  1  0  0  0  0
  4  6  1  0  0  0  0
  5  7  1  0  0  0  0
  5 17  1  0  0  0  0
  6  2  1  0  0  0  0
  6  9  1  0  0  0  0
  7  3  1  0  0  0  0
  8 12  1  0  0  0  0
  8  4  1  0  0  0  0
  9 13  1  0  0  0  0
  9 17  1  0  0  0  0
 10  1  1  0  0  0  0
 11 16  1  0  0  0  0
 11 23  1  0  0  0  0
 12 16  1  0  0  0  0
 14 21  1  0  0  0  0
 15 14  1  0  0  0  0
 15 21  1  0  0  0  0
 16  2  1  0  0  0  0
 17 22  1  0  0  0  0
 18  1  1  0  0  0  0
 19 25  1  0  0  0  0
 19  7  1  0  0  0  0
 22 31  1  0  0  0  0
 22 21  1  0  0  0  0
 23 19  1  0  0  0  0
 24 25  1  0  0  0  0
 25 26  2  0  0  0  0
 26 29  1  0  0  0  0
 28 29  1  0  0  0  0
 29 27  2  0  0  0  0
 30 24  1  0  0  0  0
 30 28  1  0  0  0  0
 31 33  1  0  0  0  0
 31 32  1  0  0  0  0
 32 37  1  0  0  0  0
 33 34  1  0  0  0  0
 33 32  1  0  0  0  0
 35 34  1  0  0  0  0
 37 36  2  0  0  0  0
M  END
>  <MODEL>
3

>  <REMARK>
 VINA RESULT:      -8.5      4.575      8.112
  Name = 
  4 active torsions:
  status: ('A' for Active; 'I' for Inactive)
    1  A    between atoms: C_1  and  C_27
    2  A    between atoms: N_4  and  C_37
    3  A    between atoms: C_8  and  C_12
    4  A    between atoms: C_23  and  C_30
                            x       y       z     vdW  Elec       q    Type
                         _______ _______ _______ _____ _____    ______ ____

>  <TORSDO>
F 4

$$$$
=
 OpenBabel11122411463D

 37 44  0  0  1  0  0  0  0  0999 V2000
  190.1350  178.4810  143.5680 C   0  0  1  0  0  0  0  0  0  0  0  0
  186.5580  177.4910  144.1450 C   0  0  1  0  0  3  0  0  0  0  0  0
  184.4880  177.5350  141.5560 O   0  0  0  0  0  0  0  0  0  0  0  0
  189.0000  176.9950  144.9020 C   0  0  2  0  0  3  0  0  0  0  0  0
  186.2870  178.3410  142.9050 C   0  0  2  0  0  3  0  0  0  0  0  0
  187.9170  176.8570  143.8260 C   0  0  2  0  0  3  0  0  0  0  0  0
  184.8110  178.4920  142.5290 C   0  0  2  0  0  3  0  0  0  0  0  0
  188.3820  176.7530  146.2690 C   0  0  0  0  0  2  0  0  0  0  0  0
  188.3440  177.4610  142.4890 C   0  0  2  0  0  3  0  0  0  0  0  0
  190.9710  177.4510  143.1450 F   0  0  0  0  0  0  0  0  0  0  0  0
  185.1050  178.6520  145.8600 C   0  0  0  0  0  2  0  0  0  0  0  0
  187.2840  177.7670  146.6070 C   0  0  0  0  0  2  0  0  0  0  0  0
  189.0590  178.6740  142.6760 O   0  0  0  0  0  0  0  0  0  0  0  0
  184.9290  179.4380  140.1580 O   0  0  0  0  0  0  0  0  0  0  0  0
  184.4990  178.0950  140.2480 C   0  0  1  0  0  3  0  0  0  0  0  0
  186.5380  178.3730  145.4070 C   0  0  1  0  0  3  0  0  0  0  0  0
  187.0650  177.7330  141.8230 N   0  0  2  0  0  0  0  0  0  0  0  0
  189.6420  178.2510  144.8700 O   0  0  0  0  0  0  0  0  0  0  0  0
  183.8320  178.4580  143.7100 C   0  0  1  0  0  3  0  0  0  0  0  0
  190.9540  179.7540  143.5950 C   0  0  0  0  0  1  0  0  0  0  0  0
  185.8690  178.4730  139.7400 C   0  0  2  0  0  3  0  0  0  0  0  0
  187.1190  178.6270  140.6470 C   0  0  2  0  0  3  0  0  0  0  0  0
  184.2720  179.4020  144.8270 C   0  0  0  0  0  2  0  0  0  0  0  0
  182.2500  179.5080  141.9590 C   0  0  0  0  0  2  0  0  0  0  0  0
  182.4370  178.7830  143.2690 C   0  0  0  0  0  0  0  0  0  0  0  0
  181.3830  178.5110  144.0540 C   0  0  0  0  0  3  0  0  0  0  0  0
  179.0460  178.7270  144.3730 O   0  0  0  0  0  0  0  0  0  0  0  0
  179.8320  179.2250  142.2330 N   0  0  0  0  0  2  0  0  0  0  0  0
  180.0250  178.8170  143.5880 C   0  0  0  0  0  0  0  0  0  0  0  0
  180.9360  179.1090  141.2850 C   0  0  0  0  0  2  0  0  0  0  0  0
  188.3480  178.3500  139.7670 C   0  0  1  0  0  3  0  0  0  0  0  0
  188.0350  177.2950  138.7500 N   0  0  0  0  0  0  0  0  0  0  0  0
  188.1180  178.7530  138.4660 C   0  0  2  0  0  3  0  0  0  0  0  0
  189.4300  179.0510  137.7720 C   0  0  0  0  0  2  0  0  0  0  0  0
  189.3960  178.5480  136.4850 F   0  0  0  0  0  0  0  0  0  0  0  0
  187.1940  175.6790  137.2130 C   0  0  0  0  0  2  0  0  0  0  0  0
  187.8300  175.9450  138.3430 C   0  0  0  0  0  3  0  0  0  0  0  0
  1 20  1  1  0  0  0
  1 18  1  0  0  0  0
  2 16  1  0  0  0  0
  3  7  1  0  0  0  0
  4  8  1  0  0  0  0
  5  2  1  0  0  0  0
  6  2  1  0  0  0  0
  6  4  1  0  0  0  0
  7  5  1  0  0  0  0
  7 19  1  0  0  0  0
  8 12  1  0  0  0  0
  9 13  1  0  0  0  0
  9  6  1  0  0  0  0
 10  1  1  0  0  0  0
 13  1  1  0  0  0  0
 14 15  1  0  0  0  0
 15  3  1  0  0  0  0
 16 11  1  0  0  0  0
 16 12  1  0  0  0  0
 17  9  1  0  0  0  0
 17  5  1  0  0  0  0
 18  4  1  0  0  0  0
 19 23  1  0  0  0  0
 21 14  1  0  0  0  0
 21 15  1  0  0  0  0
 21 22  1  0  0  0  0
 22 17  1  0  0  0  0
 23 11  1  0  0  0  0
 24 25  1  0  0  0  0
 25 19  1  0  0  0  0
 25 26  2  0  0  0  0
 28 29  1  0  0  0  0
 29 26  1  0  0  0  0
 29 27  2  0  0  0  0
 30 24  1  0  0  0  0
 30 28  1  0  0  0  0
 31 22  1  0  0  0  0
 32 31  1  0  0  0  0
 33 32  1  0  0  0  0
 33 31  1  0  0  0  0
 34 33  1  0  0  0  0
 35 34  1  0  0  0  0
 36 37  2  0  0  0  0
 37 32  1  0  0  0  0
M  END
>  <MODEL>
4

>  <REMARK>
 VINA RESULT:      -8.4      3.626      8.014
  Name = 
  4 active torsions:
  status: ('A' for Active; 'I' for Inactive)
    1  A    between atoms: C_1  and  C_27
    2  A    between atoms: N_4  and  C_37
    3  A    between atoms: C_8  and  C_12
    4  A    between atoms: C_23  and  C_30
                            x       y       z     vdW  Elec       q    Type
                         _______ _______ _______ _____ _____    ______ ____

>  <TORSDO>
F 4

$$$$
=
 OpenBabel11122411463D

 37 44  0  0  1  0  0  0  0  0999 V2000
  183.6010  178.2120  140.6350 C   0  0  1  0  0  0  0  0  0  0  0  0
  186.0940  178.7980  143.3820 C   0  0  1  0  0  3  0  0  0  0  0  0
  189.3170  178.5360  142.6510 O   0  0  0  0  0  0  0  0  0  0  0  0
  183.7690  179.5570  142.4890 C   0  0  2  0  0  3  0  0  0  0  0  0
  187.0110  177.9280  142.5230 C   0  0  2  0  0  3  0  0  0  0  0  0
  185.2940  179.5790  142.3340 C   0  0  2  0  0  3  0  0  0  0  0  0
  188.3760  177.6160  143.1380 C   0  0  2  0  0  3  0  0  0  0  0  0
  183.4120  179.7240  143.9560 C   0  0  0  0  0  2  0  0  0  0  0  0
  185.7510  179.0320  140.9830 C   0  0  2  0  0  3  0  0  0  0  0  0
  183.3050  179.3300  139.8590 F   0  0  0  0  0  0  0  0  0  0  0  0
  186.0480  177.4750  145.5390 C   0  0  0  0  0  2  0  0  0  0  0  0
  183.9660  178.5930  144.8300 C   0  0  0  0  0  2  0  0  0  0  0  0
  184.9780  177.9050  140.5950 O   0  0  0  0  0  0  0  0  0  0  0  0
  189.6920  176.6990  141.1480 O   0  0  0  0  0  0  0  0  0  0  0  0
  190.0810  177.9870  141.5830 C   0  0  1  0  0  3  0  0  0  0  0  0
  185.2450  177.9130  144.3140 C   0  0  1  0  0  3  0  0  0  0  0  0
  187.1360  178.6230  141.2400 N   0  0  2  0  0  0  0  0  0  0  0  0
  183.1870  178.3800  141.9730 O   0  0  0  0  0  0  0  0  0  0  0  0
  188.3980  177.5360  144.6700 C   0  0  1  0  0  3  0  0  0  0  0  0
  182.8440  177.0370  140.0530 C   0  0  0  0  0  1  0  0  0  0  0  0
  189.3060  177.7640  140.3070 C   0  0  2  0  0  3  0  0  0  0  0  0
  187.7570  177.7460  140.2250 C   0  0  2  0  0  3  0  0  0  0  0  0
  187.2780  176.6420  145.1980 C   0  0  0  0  0  2  0  0  0  0  0  0
  190.3170  177.7320  146.3870 C   0  0  0  0  0  2  0  0  0  0  0  0
  189.7290  177.0610  145.1710 C   0  0  0  0  0  0  0  0  0  0  0  0
  190.4180  176.1180  144.5110 C   0  0  0  0  0  3  0  0  0  0  0  0
  192.4430  174.8990  144.3480 O   0  0  0  0  0  0  0  0  0  0  0  0
  192.1190  176.0720  146.3380 N   0  0  0  0  0  2  0  0  0  0  0  0
  191.7070  175.6530  145.0370 C   0  0  0  0  0  0  0  0  0  0  0  0
  191.1640  176.7560  147.2060 C   0  0  0  0  0  2  0  0  0  0  0  0
  187.3790  178.1610  138.7940 C   0  0  1  0  0  3  0  0  0  0  0  0
  188.3570  177.5940  137.8110 N   0  0  0  0  0  0  0  0  0  0  0  0
  186.9890  177.0620  138.0540 C   0  0  2  0  0  3  0  0  0  0  0  0
  186.0790  177.4890  136.9220 C   0  0  0  0  0  2  0  0  0  0  0  0
  184.9370  178.0680  137.4420 F   0  0  0  0  0  0  0  0  0  0  0  0
  190.2870  176.4400  137.0220 C   0  0  0  0  0  2  0  0  0  0  0  0
  189.6120  177.5720  137.1370 C   0  0  0  0  0  3  0  0  0  0  0  0
  1 20  1  6  0  0  0
  1 18  1  0  0  0  0
  2 16  1  0  0  0  0
  3  7  1  0  0  0  0
  4  8  1  0  0  0  0
  5  7  1  0  0  0  0
  5  2  1  0  0  0  0
  6  4  1  0  0  0  0
  6  2  1  0  0  0  0
  7 19  1  0  0  0  0
  8 12  1  0  0  0  0
  9 17  1  0  0  0  0
  9  6  1  0  0  0  0
 10  1  1  0  0  0  0
 13  1  1  0  0  0  0
 13  9  1  0  0  0  0
 14 15  1  0  0  0  0
 15  3  1  0  0  0  0
 16 12  1  0  0  0  0
 16 11  1  0  0  0  0
 17  5  1  0  0  0  0
 18  4  1  0  0  0  0
 19 25  1  0  0  0  0
 19 23  1  0  0  0  0
 21 14  1  0  0  0  0
 21 15  1  0  0  0  0
 22 21  1  0  0  0  0
 22 17  1  0  0  0  0
 23 11  1  0  0  0  0
 24 30  1  0  0  0  0
 25 24  1  0  0  0  0
 26 29  1  0  0  0  0
 26 25  2  0  0  0  0
 27 29  2  0  0  0  0
 28 30  1  0  0  0  0
 29 28  1  0  0  0  0
 31 22  1  0  0  0  0
 32 33  1  0  0  0  0
 32 31  1  0  0  0  0
 33 31  1  0  0  0  0
 34 35  1  0  0  0  0
 34 33  1  0  0  0  0
 36 37  2  0  0  0  0
 37 32  1  0  0  0  0
M  END
>  <MODEL>
5

>  <REMARK>
 VINA RESULT:      -8.2      2.905      6.488
  Name = 
  4 active torsions:
  status: ('A' for Active; 'I' for Inactive)
    1  A    between atoms: C_1  and  C_27
    2  A    between atoms: N_4  and  C_37
    3  A    between atoms: C_8  and  C_12
    4  A    between atoms: C_23  and  C_30
                            x       y       z     vdW  Elec       q    Type
                         _______ _______ _______ _____ _____    ______ ____

>  <TORSDO>
F 4

$$$$
=
 OpenBabel11122411463D

 37 44  0  0  1  0  0  0  0  0999 V2000
  190.0050  178.1760  143.9970 C   0  0  1  0  0  0  0  0  0  0  0  0
  186.3020  177.6060  144.2640 C   0  0  1  0  0  3  0  0  0  0  0  0
  184.5300  177.5030  141.4630 O   0  0  0  0  0  0  0  0  0  0  0  0
  188.5840  176.9900  145.3560 C   0  0  2  0  0  3  0  0  0  0  0  0
  186.2540  178.3080  142.9080 C   0  0  2  0  0  3  0  0  0  0  0  0
  187.6110  176.8130  144.1850 C   0  0  2  0  0  3  0  0  0  0  0  0
  184.8510  178.5450  142.3460 C   0  0  2  0  0  3  0  0  0  0  0  0
  187.8040  176.9860  146.6600 C   0  0  0  0  0  2  0  0  0  0  0  0
  188.2370  177.1950  142.8450 C   0  0  2  0  0  3  0  0  0  0  0  0
  190.7660  177.0270  143.8010 F   0  0  0  0  0  0  0  0  0  0  0  0
  184.8090  179.1120  145.6460 C   0  0  0  0  0  2  0  0  0  0  0  0
  186.7910  178.1330  146.7440 C   0  0  0  0  0  2  0  0  0  0  0  0
  189.0550  178.3500  142.9680 O   0  0  0  0  0  0  0  0  0  0  0  0
  185.3160  179.1580  139.9100 O   0  0  0  0  0  0  0  0  0  0  0  0
  184.7390  177.8830  140.1080 C   0  0  1  0  0  3  0  0  0  0  0  0
  186.2440  178.6440  145.4000 C   0  0  1  0  0  3  0  0  0  0  0  0
  187.0720  177.4950  142.0050 N   0  0  2  0  0  0  0  0  0  0  0  0
  189.3560  178.1650  145.2500 O   0  0  0  0  0  0  0  0  0  0  0  0
  183.7550  178.7570  143.3990 C   0  0  1  0  0  3  0  0  0  0  0  0
  190.9480  179.3600  143.9660 C   0  0  0  0  0  1  0  0  0  0  0  0
  186.1870  178.0630  139.7230 C   0  0  2  0  0  3  0  0  0  0  0  0
  187.3440  178.2180  140.7450 C   0  0  2  0  0  3  0  0  0  0  0  0
  184.1740  179.7950  144.4400 C   0  0  0  0  0  2  0  0  0  0  0  0
  182.4300  179.3760  141.2710 C   0  0  0  0  0  2  0  0  0  0  0  0
  182.4560  179.1500  142.7620 C   0  0  0  0  0  0  0  0  0  0  0  0
  181.3630  179.3750  143.5060 C   0  0  0  0  0  3  0  0  0  0  0  0
  179.1120  180.1120  143.5400 O   0  0  0  0  0  0  0  0  0  0  0  0
  180.0010  179.6560  141.4320 N   0  0  0  0  0  2  0  0  0  0  0  0
  180.0970  179.7340  142.8540 C   0  0  0  0  0  0  0  0  0  0  0  0
  181.0690  179.0060  140.6760 C   0  0  0  0  0  2  0  0  0  0  0  0
  188.6220  177.7160  140.0550 C   0  0  1  0  0  3  0  0  0  0  0  0
  189.0000  178.6290  138.9280 N   0  0  0  0  0  0  0  0  0  0  0  0
  189.6650  178.5980  140.2590 C   0  0  2  0  0  3  0  0  0  0  0  0
  190.9910  177.8770  140.1360 C   0  0  0  0  0  2  0  0  0  0  0  0
  190.9660  176.7310  140.9080 F   0  0  0  0  0  0  0  0  0  0  0  0
  188.9970  178.3320  136.5640 C   0  0  0  0  0  2  0  0  0  0  0  0
  188.8600  179.1370  137.6050 C   0  0  0  0  0  3  0  0  0  0  0  0
  1 20  1  6  0  0  0
  1 18  1  0  0  0  0
  2 16  1  0  0  0  0
  3  7  1  0  0  0  0
  4  8  1  0  0  0  0
  5  2  1  0  0  0  0
  6  2  1  0  0  0  0
  6  4  1  0  0  0  0
  7  5  1  0  0  0  0
  7 19  1  0  0  0  0
  8 12  1  0  0  0  0
  9 13  1  0  0  0  0
  9  6  1  0  0  0  0
 10  1  1  0  0  0  0
 13  1  1  0  0  0  0
 14 15  1  0  0  0  0
 15  3  1  0  0  0  0
 16 11  1  0  0  0  0
 16 12  1  0  0  0  0
 17  9  1  0  0  0  0
 17  5  1  0  0  0  0
 18  4  1  0  0  0  0
 19 23  1  0  0  0  0
 21 14  1  0  0  0  0
 21 15  1  0  0  0  0
 21 22  1  0  0  0  0
 22 17  1  0  0  0  0
 23 11  1  0  0  0  0
 24 25  1  0  0  0  0
 25 19  1  0  0  0  0
 25 26  2  0  0  0  0
 28 29  1  0  0  0  0
 29 26  1  0  0  0  0
 29 27  2  0  0  0  0
 30 24  1  0  0  0  0
 30 28  1  0  0  0  0
 31 33  1  0  0  0  0
 31 22  1  0  0  0  0
 32 31  1  0  0  0  0
 32 33  1  0  0  0  0
 34 33  1  0  0  0  0
 34 35  1  0  0  0  0
 36 37  2  0  0  0  0
 37 32  1  0  0  0  0
M  END
>  <MODEL>
6

>  <REMARK>
 VINA RESULT:      -7.9      3.365      7.631
  Name = 
  4 active torsions:
  status: ('A' for Active; 'I' for Inactive)
    1  A    between atoms: C_1  and  C_27
    2  A    between atoms: N_4  and  C_37
    3  A    between atoms: C_8  and  C_12
    4  A    between atoms: C_23  and  C_30
                            x       y       z     vdW  Elec       q    Type
                         _______ _______ _______ _____ _____    ______ ____

>  <TORSDO>
F 4

$$$$
=
 OpenBabel11122411463D

 37 44  0  0  1  0  0  0  0  0999 V2000
  182.5840  177.5320  139.2360 C   0  0  1  0  0  0  0  0  0  0  0  0
  185.3110  178.8800  141.4380 C   0  0  1  0  0  3  0  0  0  0  0  0
  188.3740  179.0850  140.1860 O   0  0  0  0  0  0  0  0  0  0  0  0
  182.7750  179.1090  140.8940 C   0  0  2  0  0  3  0  0  0  0  0  0
  186.2340  178.0790  140.5200 C   0  0  2  0  0  3  0  0  0  0  0  0
  184.2260  179.3740  140.4750 C   0  0  2  0  0  3  0  0  0  0  0  0
  187.7120  178.0870  140.9150 C   0  0  2  0  0  3  0  0  0  0  0  0
  182.6220  179.3960  142.3780 C   0  0  0  0  0  2  0  0  0  0  0  0
  184.5650  178.7470  139.1240 C   0  0  2  0  0  3  0  0  0  0  0  0
  181.9650  178.4750  138.4200 F   0  0  0  0  0  0  0  0  0  0  0  0
  185.8500  177.8520  143.6870 C   0  0  0  0  0  2  0  0  0  0  0  0
  183.5090  178.4970  143.2470 C   0  0  0  0  0  2  0  0  0  0  0  0
  183.9710  177.4640  138.9870 O   0  0  0  0  0  0  0  0  0  0  0  0
  188.8570  177.1660  138.8250 O   0  0  0  0  0  0  0  0  0  0  0  0
  189.0550  178.5450  139.0590 C   0  0  1  0  0  3  0  0  0  0  0  0
  184.8000  177.9880  142.5850 C   0  0  1  0  0  3  0  0  0  0  0  0
  186.0260  178.6170  139.1740 N   0  0  2  0  0  0  0  0  0  0  0  0
  182.3560  177.7950  140.6030 O   0  0  0  0  0  0  0  0  0  0  0  0
  187.9830  178.2060  142.4210 C   0  0  1  0  0  3  0  0  0  0  0  0
  181.9830  176.1810  138.9100 C   0  0  0  0  0  1  0  0  0  0  0  0
  188.1510  178.0340  137.9650 C   0  0  2  0  0  3  0  0  0  0  0  0
  186.6390  177.7390  138.1550 C   0  0  2  0  0  3  0  0  0  0  0  0
  187.1490  177.2060  143.2190 C   0  0  0  0  0  2  0  0  0  0  0  0
  190.1530  176.8310  142.1580 C   0  0  0  0  0  2  0  0  0  0  0  0
  189.4410  178.0330  142.7260 C   0  0  0  0  0  0  0  0  0  0  0  0
  190.0790  178.8790  143.5490 C   0  0  0  0  0  3  0  0  0  0  0  0
  192.0850  179.3770  144.7060 O   0  0  0  0  0  0  0  0  0  0  0  0
  192.2460  177.7480  143.0440 N   0  0  0  0  0  2  0  0  0  0  0  0
  191.5120  178.7020  143.8120 C   0  0  0  0  0  0  0  0  0  0  0  0
  191.6240  177.1420  141.8700 C   0  0  0  0  0  2  0  0  0  0  0  0
  185.9740  177.8990  136.7800 C   0  0  1  0  0  3  0  0  0  0  0  0
  186.7090  177.0970  135.7490 N   0  0  0  0  0  0  0  0  0  0  0  0
  185.4130  176.7060  136.3670 C   0  0  2  0  0  3  0  0  0  0  0  0
  184.2920  176.9670  135.3840 C   0  0  0  0  0  2  0  0  0  0  0  0
  183.3990  177.8680  135.9300 F   0  0  0  0  0  0  0  0  0  0  0  0
  188.5610  175.8040  134.9890 C   0  0  0  0  0  2  0  0  0  0  0  0
  187.7910  176.8720  134.8510 C   0  0  0  0  0  3  0  0  0  0  0  0
  1 20  1  6  0  0  0
  1 18  1  0  0  0  0
  2 16  1  0  0  0  0
  3  7  1  0  0  0  0
  4  8  1  0  0  0  0
  5  7  1  0  0  0  0
  5  2  1  0  0  0  0
  6  4  1  0  0  0  0
  6  2  1  0  0  0  0
  7 19  1  0  0  0  0
  8 12  1  0  0  0  0
  9 17  1  0  0  0  0
  9  6  1  0  0  0  0
 10  1  1  0  0  0  0
 13  9  1  0  0  0  0
 13  1  1  0  0  0  0
 14 15  1  0  0  0  0
 15  3  1  0  0  0  0
 16 12  1  0  0  0  0
 16 11  1  0  0  0  0
 17  5  1  0  0  0  0
 18  4  1  0  0  0  0
 19 25  1  0  0  0  0
 19 23  1  0  0  0  0
 21 22  1  0  0  0  0
 21 14  1  0  0  0  0
 21 15  1  0  0  0  0
 22 17  1  0  0  0  0
 23 11  1  0  0  0  0
 24 25  1  0  0  0  0
 25 26  2  0  0  0  0
 26 29  1  0  0  0  0
 28 29  1  0  0  0  0
 29 27  2  0  0  0  0
 30 24  1  0  0  0  0
 30 28  1  0  0  0  0
 31 22  1  0  0  0  0
 32 33  1  0  0  0  0
 32 31  1  0  0  0  0
 33 31  1  0  0  0  0
 34 35  1  0  0  0  0
 34 33  1  0  0  0  0
 37 36  2  0  0  0  0
 37 32  1  0  0  0  0
M  END
>  <MODEL>
7

>  <REMARK>
 VINA RESULT:      -7.6      4.133      7.359
  Name = 
  4 active torsions:
  status: ('A' for Active; 'I' for Inactive)
    1  A    between atoms: C_1  and  C_27
    2  A    between atoms: N_4  and  C_37
    3  A    between atoms: C_8  and  C_12
    4  A    between atoms: C_23  and  C_30
                            x       y       z     vdW  Elec       q    Type
                         _______ _______ _______ _____ _____    ______ ____

>  <TORSDO>
F 4

$$$$
=
 OpenBabel11122411463D

 37 44  0  0  1  0  0  0  0  0999 V2000
  185.9770  177.2730  137.8530 C   0  0  1  0  0  0  0  0  0  0  0  0
  186.6620  178.6300  141.2880 C   0  0  1  0  0  3  0  0  0  0  0  0
  189.7780  178.5290  142.4150 O   0  0  0  0  0  0  0  0  0  0  0  0
  185.1790  178.9730  139.1750 C   0  0  2  0  0  3  0  0  0  0  0  0
  187.8700  177.6940  141.2460 C   0  0  2  0  0  3  0  0  0  0  0  0
  186.5560  179.1060  139.8350 C   0  0  2  0  0  3  0  0  0  0  0  0
  188.6970  177.6420  142.5310 C   0  0  2  0  0  3  0  0  0  0  0  0
  184.1060  179.3970  140.1640 C   0  0  0  0  0  2  0  0  0  0  0  0
  187.6410  178.3440  139.0770 C   0  0  2  0  0  3  0  0  0  0  0  0
  186.1640  178.1800  136.8130 F   0  0  0  0  0  0  0  0  0  0  0  0
  185.4500  177.7690  143.3360 C   0  0  0  0  0  2  0  0  0  0  0  0
  184.0860  178.5210  141.4230 C   0  0  0  0  0  2  0  0  0  0  0  0
  187.1590  177.0950  138.6030 O   0  0  0  0  0  0  0  0  0  0  0  0
  190.8390  176.4710  141.7740 O   0  0  0  0  0  0  0  0  0  0  0  0
  190.9750  177.8500  142.0510 C   0  0  1  0  0  3  0  0  0  0  0  0
  185.4260  177.8750  141.8110 C   0  0  1  0  0  3  0  0  0  0  0  0
  188.6720  178.1260  140.0990 N   0  0  2  0  0  0  0  0  0  0  0  0
  184.9240  177.6680  138.7060 O   0  0  0  0  0  0  0  0  0  0  0  0
  187.9060  177.8740  143.8260 C   0  0  1  0  0  3  0  0  0  0  0  0
  185.6090  175.9400  137.2370 C   0  0  0  0  0  1  0  0  0  0  0  0
  190.9830  177.3050  140.6450 C   0  0  2  0  0  3  0  0  0  0  0  0
  189.7100  177.1250  139.7760 C   0  0  2  0  0  3  0  0  0  0  0  0
  186.6520  177.0020  143.8770 C   0  0  0  0  0  2  0  0  0  0  0  0
  188.1970  177.9930  146.3890 C   0  0  0  0  0  2  0  0  0  0  0  0
  188.7590  177.6350  145.0350 C   0  0  0  0  0  0  0  0  0  0  0  0
  190.0190  177.1910  144.9140 C   0  0  0  0  0  3  0  0  0  0  0  0
  192.0540  176.6900  146.0190 O   0  0  0  0  0  0  0  0  0  0  0  0
  190.1960  176.9960  147.3970 N   0  0  0  0  0  2  0  0  0  0  0  0
  190.8240  176.9420  146.1160 C   0  0  0  0  0  0  0  0  0  0  0  0
  188.7390  177.0650  147.4780 C   0  0  0  0  0  2  0  0  0  0  0  0
  190.1540  177.2070  138.3070 C   0  0  1  0  0  3  0  0  0  0  0  0
  191.2240  176.1960  138.0280 N   0  0  0  0  0  0  0  0  0  0  0  0
  189.7990  176.0600  137.6250 C   0  0  2  0  0  3  0  0  0  0  0  0
  189.6700  176.3500  136.1450 C   0  0  0  0  0  2  0  0  0  0  0  0
  188.9440  177.5120  135.9630 F   0  0  0  0  0  0  0  0  0  0  0  0
  192.8700  174.5270  137.5950 C   0  0  0  0  0  2  0  0  0  0  0  0
  192.5660  175.7200  138.0810 C   0  0  0  0  0  3  0  0  0  0  0  0
  1 20  1  6  0  0  0
  1 13  1  0  0  0  0
  1 18  1  0  0  0  0
  2 16  1  0  0  0  0
  3  7  1  0  0  0  0
  4  6  1  0  0  0  0
  4  8  1  0  0  0  0
  5  2  1  0  0  0  0
  5  7  1  0  0  0  0
  6  2  1  0  0  0  0
  7 19  1  0  0  0  0
  8 12  1  0  0  0  0
  9  6  1  0  0  0  0
  9 17  1  0  0  0  0
 10  1  1  0  0  0  0
 11 23  1  0  0  0  0
 12 16  1  0  0  0  0
 13  9  1  0  0  0  0
 14 15  1  0  0  0  0
 15  3  1  0  0  0  0
 16 11  1  0  0  0  0
 17  5  1  0  0  0  0
 18  4  1  0  0  0  0
 19 23  1  0  0  0  0
 19 25  1  0  0  0  0
 21 14  1  0  0  0  0
 21 15  1  0  0  0  0
 22 17  1  0  0  0  0
 22 21  1  0  0  0  0
 24 30  1  0  0  0  0
 25 24  1  0  0  0  0
 26 25  2  0  0  0  0
 26 29  1  0  0  0  0
 27 29  2  0  0  0  0
 28 30  1  0  0  0  0
 29 28  1  0  0  0  0
 31 22  1  0  0  0  0
 32 37  1  0  0  0  0
 32 31  1  0  0  0  0
 33 32  1  0  0  0  0
 33 31  1  0  0  0  0
 34 33  1  0  0  0  0
 35 34  1  0  0  0  0
 36 37  2  0  0  0  0
M  END
>  <MODEL>
8

>  <REMARK>
 VINA RESULT:      -7.5      3.392      7.000
  Name = 
  4 active torsions:
  status: ('A' for Active; 'I' for Inactive)
    1  A    between atoms: C_1  and  C_27
    2  A    between atoms: N_4  and  C_37
    3  A    between atoms: C_8  and  C_12
    4  A    between atoms: C_23  and  C_30
                            x       y       z     vdW  Elec       q    Type
                         _______ _______ _______ _____ _____    ______ ____

>  <TORSDO>
F 4

$$$$
=
 OpenBabel11122411463D

 37 44  0  0  1  0  0  0  0  0999 V2000
  188.7850  178.8340  137.7730 C   0  0  1  0  0  0  0  0  0  0  0  0
  189.0270  177.0990  141.0960 C   0  0  1  0  0  3  0  0  0  0  0  0
  186.3860  177.1820  143.0980 O   0  0  0  0  0  0  0  0  0  0  0  0
  189.8070  176.9580  138.6160 C   0  0  2  0  0  3  0  0  0  0  0  0
  187.9290  178.0780  141.5110 C   0  0  2  0  0  3  0  0  0  0  0  0
  188.6740  176.7980  139.6350 C   0  0  2  0  0  3  0  0  0  0  0  0
  187.5150  178.0060  142.9820 C   0  0  2  0  0  3  0  0  0  0  0  0
  191.0870  176.3770  139.1940 C   0  0  0  0  0  2  0  0  0  0  0  0
  187.4740  177.6870  139.3160 C   0  0  2  0  0  3  0  0  0  0  0  0
  188.2410  178.0670  136.7470 F   0  0  0  0  0  0  0  0  0  0  0  0
  190.8380  177.6600  142.7730 C   0  0  0  0  0  2  0  0  0  0  0  0
  191.5330  177.0920  140.4740 C   0  0  0  0  0  2  0  0  0  0  0  0
  187.8870  178.9650  138.8530 O   0  0  0  0  0  0  0  0  0  0  0  0
  185.3360  179.3410  143.0170 O   0  0  0  0  0  0  0  0  0  0  0  0
  185.1870  177.9440  143.1770 C   0  0  1  0  0  3  0  0  0  0  0  0
  190.4130  177.7380  141.3060 C   0  0  1  0  0  3  0  0  0  0  0  0
  186.8010  177.8190  140.6130 N   0  0  2  0  0  0  0  0  0  0  0  0
  190.0090  178.3000  138.2310 O   0  0  0  0  0  0  0  0  0  0  0  0
  188.6280  177.5900  143.9530 C   0  0  1  0  0  3  0  0  0  0  0  0
  189.0550  180.2170  137.2190 C   0  0  0  0  0  1  0  0  0  0  0  0
  184.8110  178.6560  141.9000 C   0  0  2  0  0  3  0  0  0  0  0  0
  185.7880  178.8910  140.7180 C   0  0  2  0  0  3  0  0  0  0  0  0
  189.9020  178.4000  143.7210 C   0  0  0  0  0  2  0  0  0  0  0  0
  189.0580  177.1280  146.4560 C   0  0  0  0  0  2  0  0  0  0  0  0
  188.1800  177.7130  145.3780 C   0  0  0  0  0  0  0  0  0  0  0  0
  186.9930  178.2560  145.6840 C   0  0  0  0  0  3  0  0  0  0  0  0
  185.4170  178.7350  147.3870 O   0  0  0  0  0  0  0  0  0  0  0  0
  187.5430  178.1080  148.1150 N   0  0  0  0  0  2  0  0  0  0  0  0
  186.5890  178.3870  147.0900 C   0  0  0  0  0  0  0  0  0  0  0  0
  188.9480  177.9270  147.7570 C   0  0  0  0  0  2  0  0  0  0  0  0
  184.9340  179.0040  139.4460 C   0  0  1  0  0  3  0  0  0  0  0  0
  183.8810  177.9380  139.4280 N   0  0  0  0  0  0  0  0  0  0  0  0
  183.6390  179.3690  139.7580 C   0  0  2  0  0  3  0  0  0  0  0  0
  182.9870  180.0500  138.5730 C   0  0  0  0  0  2  0  0  0  0  0  0
  183.0840  181.4210  138.7190 F   0  0  0  0  0  0  0  0  0  0  0  0
  182.2340  176.2300  139.6600 C   0  0  0  0  0  2  0  0  0  0  0  0
  183.4310  176.6000  139.2340 C   0  0  0  0  0  3  0  0  0  0  0  0
  1 20  1  6  0  0  0
  1 18  1  0  0  0  0
  1 13  1  0  0  0  0
  2 16  1  0  0  0  0
  2  5  1  0  0  0  0
  3 15  1  0  0  0  0
  4  8  1  0  0  0  0
  4  6  1  0  0  0  0
  5  7  1  0  0  0  0
  6  2  1  0  0  0  0
  7  3  1  0  0  0  0
  7 19  1  0  0  0  0
  8 12  1  0  0  0  0
  9  6  1  0  0  0  0
  9 17  1  0  0  0  0
 10  1  1  0  0  0  0
 11 23  1  0  0  0  0
 12 16  1  0  0  0  0
 13  9  1  0  0  0  0
 14 15  1  0  0  0  0
 16 11  1  0  0  0  0
 17 22  1  0  0  0  0
 17  5  1  0  0  0  0
 18  4  1  0  0  0  0
 19 25  1  0  0  0  0
 21 14  1  0  0  0  0
 21 15  1  0  0  0  0
 22 21  1  0  0  0  0
 23 19  1  0  0  0  0
 24 30  1  0  0  0  0
 25 26  2  0  0  0  0
 25 24  1  0  0  0  0
 26 29  1  0  0  0  0
 29 27  2  0  0  0  0
 29 28  1  0  0  0  0
 30 28  1  0  0  0  0
 31 33  1  0  0  0  0
 31 22  1  0  0  0  0
 32 31  1  0  0  0  0
 32 33  1  0  0  0  0
 34 35  1  0  0  0  0
 34 33  1  0  0  0  0
 37 32  1  0  0  0  0
 37 36  2  0  0  0  0
M  END
>  <MODEL>
9

>  <REMARK>
 VINA RESULT:      -7.3      3.491      8.064
  Name = 
  4 active torsions:
  status: ('A' for Active; 'I' for Inactive)
    1  A    between atoms: C_1  and  C_27
    2  A    between atoms: N_4  and  C_37
    3  A    between atoms: C_8  and  C_12
    4  A    between atoms: C_23  and  C_30
                            x       y       z     vdW  Elec       q    Type
                         _______ _______ _______ _____ _____    ______ ____

>  <TORSDO>
F 4

$$$$
