=
 OpenBabel11122410573D

 31 35  0  0  1  0  0  0  0  0999 V2000
  188.8090  177.8340  140.9740 C   0  0  0  0  0  0  0  0  0  0  0  0
  185.4190  178.0930  142.7570 C   0  0  2  0  0  3  0  0  0  0  0  0
  185.8260  178.2310  144.2210 C   0  0  0  0  0  0  0  0  0  0  0  0
  187.2610  177.5540  146.0710 C   0  0  0  0  0  0  0  0  0  0  0  0
  186.5130  178.2190  141.7010 C   0  0  0  0  0  0  0  0  0  0  0  0
  188.4810  178.2460  139.6840 C   0  0  0  0  0  3  0  0  0  0  0  0
  186.9390  177.5310  144.7130 C   0  0  0  0  0  3  0  0  0  0  0  0
  183.7190  178.6620  140.9870 C   0  0  2  0  0  3  0  0  0  0  0  0
  190.1070  177.4430  141.2700 O   0  0  0  0  0  1  0  0  0  0  0  0
  183.7360  179.6080  144.7190 C   0  0  0  0  0  2  0  0  0  0  0  0
  188.3540  176.8890  146.5190 F   0  0  0  0  0  0  0  0  0  0  0  0
  184.7970  179.0660  139.9860 C   0  0  0  0  0  2  0  0  0  0  0  0
  184.2370  179.0010  142.3860 C   0  0  1  0  0  3  0  0  0  0  0  0
  187.8300  177.8110  141.9690 C   0  0  0  0  0  3  0  0  0  0  0  0
  186.4540  178.2540  146.9680 C   0  0  0  0  0  3  0  0  0  0  0  0
  186.1820  178.6000  140.3710 C   0  0  0  0  0  0  0  0  0  0  0  0
  187.1720  178.6280  139.3840 C   0  0  0  0  0  3  0  0  0  0  0  0
  183.1550  179.0030  143.4510 C   0  0  0  0  0  2  0  0  0  0  0  0
  184.9810  178.8910  145.1510 C   0  0  0  0  0  0  0  0  0  0  0  0
  185.3160  178.9160  146.5080 C   0  0  0  0  0  3  0  0  0  0  0  0
  183.4310  177.2360  140.8370 N   0  0  0  0  0  2  0  0  0  0  0  0
  183.4660  176.1880  138.7590 O   0  0  0  0  0  1  0  0  0  0  0  0
  182.7150  177.0240  139.5870 C   0  0  1  0  0  3  0  0  0  0  0  0
  179.4510  177.9690  137.9640 C   0  0  1  0  0  3  0  0  0  0  0  0
  180.7510  175.4410  138.3980 S   0  0  0  0  0  0  0  0  0  0  0  0
  180.5000  177.9040  141.5420 O   0  0  0  0  0  1  0  0  0  0  0  0
  178.9570  179.1270  137.1260 C   0  0  0  0  0  1  0  0  0  0  0  0
  180.7770  177.1120  137.0640 S   0  0  0  0  0  0  0  0  0  0  0  0
  180.2350  177.3790  140.2780 C   0  0  2  0  0  3  0  0  0  0  0  0
  181.3360  176.3960  139.8430 C   0  0  2  0  0  3  0  0  0  0  0  0
  179.9940  178.5070  139.2790 C   0  0  0  0  0  2  0  0  0  0  0  0
  1  9  1  0  0  0  0
  1 14  1  0  0  0  0
  2  5  1  6  0  0  0
  2  3  1  0  0  0  0
  3  7  2  0  0  0  0
  3 19  1  0  0  0  0
  4 11  1  0  0  0  0
  4 15  2  0  0  0  0
  5 14  2  0  0  0  0
  6  1  2  0  0  0  0
  7  4  1  0  0  0  0
  8 21  1  1  0  0  0
  8 13  1  0  0  0  0
 10 19  1  0  0  0  0
 12 16  1  0  0  0  0
 12  8  1  0  0  0  0
 13  2  1  0  0  0  0
 13 18  1  1  0  0  0
 16  5  1  0  0  0  0
 17  6  1  0  0  0  0
 17 16  2  0  0  0  0
 18 10  1  0  0  0  0
 19 20  2  0  0  0  0
 20 15  1  0  0  0  0
 23 22  1  6  0  0  0
 23 21  1  0  0  0  0
 24 27  1  6  0  0  0
 24 31  1  0  0  0  0
 25 30  1  0  0  0  0
 28 24  1  0  0  0  0
 28 25  1  0  0  0  0
 29 26  1  1  0  0  0
 30 23  1  6  0  0  0
 30 29  1  0  0  0  0
 31 29  1  0  0  0  0
M  END
>  <MODEL>
1

>  <REMARK>
 VINA RESULT:      -8.7      0.000      0.000
  Name = 
  3 active torsions:
  status: ('A' for Active; 'I' for Inactive)
    1  A    between atoms: C_5  and  N_16
    2  A    between atoms: C_5  and  C_30
    3  A    between atoms: C_10  and  N_16
                            x       y       z     vdW  Elec       q    Type
                         _______ _______ _______ _____ _____    ______ ____

>  <TORSDO>
F 3

$$$$
=
 OpenBabel11122410573D

 31 35  0  0  1  0  0  0  0  0999 V2000
  188.9210  177.8170  141.0070 C   0  0  0  0  0  0  0  0  0  0  0  0
  185.5080  178.0850  142.7430 C   0  0  2  0  0  3  0  0  0  0  0  0
  185.8950  178.2120  144.2140 C   0  0  0  0  0  0  0  0  0  0  0  0
  187.3000  177.5170  146.0800 C   0  0  0  0  0  0  0  0  0  0  0  0
  186.6180  178.2100  141.7030 C   0  0  0  0  0  0  0  0  0  0  0  0
  188.6140  178.2370  139.7140 C   0  0  0  0  0  3  0  0  0  0  0  0
  186.9970  177.5030  144.7170 C   0  0  0  0  0  3  0  0  0  0  0  0
  183.8360  178.6720  140.9530 C   0  0  2  0  0  3  0  0  0  0  0  0
  190.2130  177.4160  141.3190 O   0  0  0  0  0  1  0  0  0  0  0  0
  183.8060  179.5980  144.6900 C   0  0  0  0  0  2  0  0  0  0  0  0
  188.3830  176.8440  146.5390 F   0  0  0  0  0  0  0  0  0  0  0  0
  184.9310  179.0760  139.9690 C   0  0  0  0  0  2  0  0  0  0  0  0
  184.3360  179.0000  142.3610 C   0  0  1  0  0  3  0  0  0  0  0  0
  187.9280  177.7930  141.9880 C   0  0  0  0  0  3  0  0  0  0  0  0
  186.4840  178.2160  146.9690 C   0  0  0  0  0  3  0  0  0  0  0  0
  186.3070  178.6000  140.3710 C   0  0  0  0  0  0  0  0  0  0  0  0
  187.3110  178.6280  139.3990 C   0  0  0  0  0  3  0  0  0  0  0  0
  183.2390  179.0030  143.4110 C   0  0  0  0  0  2  0  0  0  0  0  0
  185.0410  178.8710  145.1360 C   0  0  0  0  0  0  0  0  0  0  0  0
  185.3570  178.8880  146.4970 C   0  0  0  0  0  3  0  0  0  0  0  0
  183.5420  177.2490  140.7910 N   0  0  0  0  0  2  0  0  0  0  0  0
  181.3260  177.9520  140.9020 O   0  0  0  0  0  1  0  0  0  0  0  0
  182.2050  177.0990  140.2340 C   0  0  1  0  0  3  0  0  0  0  0  0
  180.6900  175.0310  137.4750 C   0  0  1  0  0  3  0  0  0  0  0  0
  180.5170  177.8250  138.1360 S   0  0  0  0  0  0  0  0  0  0  0  0
  184.1800  176.2180  138.0370 O   0  0  0  0  0  1  0  0  0  0  0  0
  180.1610  173.6190  137.3500 C   0  0  0  0  0  1  0  0  0  0  0  0
  179.6800  175.9350  138.6870 S   0  0  0  0  0  0  0  0  0  0  0  0
  182.8080  176.3380  137.8230 C   0  0  2  0  0  3  0  0  0  0  0  0
  182.1980  177.4200  138.7310 C   0  0  2  0  0  3  0  0  0  0  0  0
  182.1320  174.9770  137.9550 C   0  0  0  0  0  2  0  0  0  0  0  0
  1  9  1  0  0  0  0
  1 14  1  0  0  0  0
  2  5  1  6  0  0  0
  2  3  1  0  0  0  0
  3  7  2  0  0  0  0
  3 19  1  0  0  0  0
  4 11  1  0  0  0  0
  4 15  2  0  0  0  0
  5 14  2  0  0  0  0
  6  1  2  0  0  0  0
  7  4  1  0  0  0  0
  8 21  1  1  0  0  0
  8 13  1  0  0  0  0
 10 19  1  0  0  0  0
 12 16  1  0  0  0  0
 12  8  1  0  0  0  0
 13  2  1  0  0  0  0
 13 18  1  1  0  0  0
 16  5  1  0  0  0  0
 17  6  1  0  0  0  0
 17 16  2  0  0  0  0
 18 10  1  0  0  0  0
 19 20  2  0  0  0  0
 20 15  1  0  0  0  0
 23 21  1  0  0  0  0
 23 22  1  1  0  0  0
 24 27  1  1  0  0  0
 24 31  1  0  0  0  0
 24 28  1  0  0  0  0
 25 28  1  0  0  0  0
 25 30  1  0  0  0  0
 29 31  1  0  0  0  0
 29 26  1  1  0  0  0
 29 30  1  0  0  0  0
 30 23  1  1  0  0  0
M  END
>  <MODEL>
2

>  <REMARK>
 VINA RESULT:      -8.7      1.169      2.053
  Name = 
  3 active torsions:
  status: ('A' for Active; 'I' for Inactive)
    1  A    between atoms: C_5  and  N_16
    2  A    between atoms: C_5  and  C_30
    3  A    between atoms: C_10  and  N_16
                            x       y       z     vdW  Elec       q    Type
                         _______ _______ _______ _____ _____    ______ ____

>  <TORSDO>
F 3

$$$$
=
 OpenBabel11122410573D

 31 35  0  0  1  0  0  0  0  0999 V2000
  191.2450  176.9150  143.4270 C   0  0  0  0  0  0  0  0  0  0  0  0
  187.8870  177.5360  141.6720 C   0  0  2  0  0  3  0  0  0  0  0  0
  186.9660  177.8840  142.8380 C   0  0  0  0  0  0  0  0  0  0  0  0
  186.2140  177.4560  145.1170 C   0  0  0  0  0  0  0  0  0  0  0  0
  189.3870  177.4690  141.9490 C   0  0  0  0  0  0  0  0  0  0  0  0
  192.1500  177.1350  142.3900 C   0  0  0  0  0  3  0  0  0  0  0  0
  187.1160  177.2360  144.0740 C   0  0  0  0  0  3  0  0  0  0  0  0
  188.4050  177.8760  139.2310 C   0  0  2  0  0  3  0  0  0  0  0  0
  191.7030  176.5370  144.6810 O   0  0  0  0  0  1  0  0  0  0  0  0
  185.5490  179.3780  141.3300 C   0  0  0  0  0  2  0  0  0  0  0  0
  186.3940  176.8370  146.3090 F   0  0  0  0  0  0  0  0  0  0  0  0
  189.8910  178.0930  139.5070 C   0  0  0  0  0  2  0  0  0  0  0  0
  187.6280  178.4090  140.4360 C   0  0  1  0  0  3  0  0  0  0  0  0
  189.8760  177.0710  143.2030 C   0  0  0  0  0  3  0  0  0  0  0  0
  185.1250  178.3070  144.9290 C   0  0  0  0  0  3  0  0  0  0  0  0
  190.3170  177.6530  140.8880 C   0  0  0  0  0  0  0  0  0  0  0  0
  191.6860  177.5030  141.1260 C   0  0  0  0  0  3  0  0  0  0  0  0
  186.1470  178.6030  140.1670 C   0  0  0  0  0  2  0  0  0  0  0  0
  185.8210  178.7000  142.6410 C   0  0  0  0  0  0  0  0  0  0  0  0
  184.9290  178.9230  143.6940 C   0  0  0  0  0  3  0  0  0  0  0  0
  188.1590  176.4520  139.0040 N   0  0  0  0  0  2  0  0  0  0  0  0
  187.0860  177.3000  137.1190 O   0  0  0  0  0  1  0  0  0  0  0  0
  187.8610  176.2400  137.5940 C   0  0  1  0  0  3  0  0  0  0  0  0
  188.9140  173.3810  135.3810 C   0  0  1  0  0  3  0  0  0  0  0  0
  188.8180  176.2260  134.9740 S   0  0  0  0  0  0  0  0  0  0  0  0
  190.5550  174.9420  138.3430 O   0  0  0  0  0  1  0  0  0  0  0  0
  188.4600  171.9530  135.1720 C   0  0  0  0  0  1  0  0  0  0  0  0
  187.5520  174.5030  134.9460 S   0  0  0  0  0  0  0  0  0  0  0  0
  190.0180  174.8930  137.0580 C   0  0  2  0  0  3  0  0  0  0  0  0
  189.1540  176.1320  136.7690 C   0  0  2  0  0  3  0  0  0  0  0  0
  189.2830  173.5730  136.8430 C   0  0  0  0  0  2  0  0  0  0  0  0
  1  9  1  0  0  0  0
  2  5  1  1  0  0  0
  2  3  1  0  0  0  0
  3  7  1  0  0  0  0
  4 11  1  0  0  0  0
  5 14  2  0  0  0  0
  6  1  2  0  0  0  0
  7  4  2  0  0  0  0
  8 21  1  1  0  0  0
  8 12  1  0  0  0  0
  8 13  1  0  0  0  0
 10 19  1  0  0  0  0
 12 16  1  0  0  0  0
 13 18  1  6  0  0  0
 13  2  1  0  0  0  0
 14  1  1  0  0  0  0
 15  4  1  0  0  0  0
 16 17  2  0  0  0  0
 16  5  1  0  0  0  0
 17  6  1  0  0  0  0
 18 10  1  0  0  0  0
 19  3  2  0  0  0  0
 19 20  1  0  0  0  0
 20 15  2  0  0  0  0
 23 22  1  6  0  0  0
 23 21  1  0  0  0  0
 24 27  1  1  0  0  0
 24 31  1  0  0  0  0
 25 30  1  0  0  0  0
 28 25  1  0  0  0  0
 28 24  1  0  0  0  0
 29 26  1  1  0  0  0
 30 29  1  0  0  0  0
 30 23  1  1  0  0  0
 31 29  1  0  0  0  0
M  END
>  <MODEL>
3

>  <REMARK>
 VINA RESULT:      -7.9      3.999      6.067
  Name = 
  3 active torsions:
  status: ('A' for Active; 'I' for Inactive)
    1  A    between atoms: C_5  and  N_16
    2  A    between atoms: C_5  and  C_30
    3  A    between atoms: C_10  and  N_16
                            x       y       z     vdW  Elec       q    Type
                         _______ _______ _______ _____ _____    ______ ____

>  <TORSDO>
F 3

$$$$
=
 OpenBabel11122410573D

 31 35  0  0  1  0  0  0  0  0999 V2000
  186.7520  176.0600  136.7930 C   0  0  0  0  0  0  0  0  0  0  0  0
  190.3230  175.7060  138.1550 C   0  0  2  0  0  3  0  0  0  0  0  0
  191.0080  174.8750  137.0730 C   0  0  0  0  0  0  0  0  0  0  0  0
  190.9380  173.0170  135.4970 C   0  0  0  0  0  0  0  0  0  0  0  0
  188.9400  176.2730  137.8460 C   0  0  0  0  0  0  0  0  0  0  0  0
  186.3110  177.2060  137.4510 C   0  0  0  0  0  3  0  0  0  0  0  0
  190.3000  173.8620  136.4080 C   0  0  0  0  0  3  0  0  0  0  0  0
  190.5920  177.4700  139.9340 C   0  0  2  0  0  3  0  0  0  0  0  0
  185.8980  175.3790  135.9360 O   0  0  0  0  0  1  0  0  0  0  0  0
  193.2530  175.9740  137.5880 C   0  0  0  0  0  2  0  0  0  0  0  0
  190.2280  172.0620  134.8490 F   0  0  0  0  0  0  0  0  0  0  0  0
  189.3510  178.2250  139.4660 C   0  0  0  0  0  2  0  0  0  0  0  0
  191.2280  176.8190  138.7030 C   0  0  1  0  0  3  0  0  0  0  0  0
  188.0510  175.5930  136.9990 C   0  0  0  0  0  3  0  0  0  0  0  0
  192.3050  173.1520  135.2600 C   0  0  0  0  0  3  0  0  0  0  0  0
  188.4670  177.4190  138.5430 C   0  0  0  0  0  0  0  0  0  0  0  0
  187.1670  177.8830  138.3220 C   0  0  0  0  0  3  0  0  0  0  0  0
  192.6510  176.3460  138.9330 C   0  0  0  0  0  2  0  0  0  0  0  0
  192.4100  174.9640  136.8670 C   0  0  0  0  0  0  0  0  0  0  0  0
  193.0380  174.1200  135.9460 C   0  0  0  0  0  3  0  0  0  0  0  0
  190.2050  176.4810  140.9400 N   0  0  0  0  0  2  0  0  0  0  0  0
  192.1030  177.1500  142.1120 O   0  0  0  0  0  1  0  0  0  0  0  0
  190.7370  176.8870  142.2340 C   0  0  1  0  0  3  0  0  0  0  0  0
  189.5740  177.5300  145.7570 C   0  0  1  0  0  3  0  0  0  0  0  0
  191.0770  179.1100  143.8820 S   0  0  0  0  0  0  0  0  0  0  0  0
  187.7140  177.4160  142.5270 O   0  0  0  0  0  1  0  0  0  0  0  0
  189.3910  176.6930  147.0040 C   0  0  0  0  0  1  0  0  0  0  0  0
  191.3320  177.5240  145.2940 S   0  0  0  0  0  0  0  0  0  0  0  0
  188.6600  177.8770  143.4420 C   0  0  2  0  0  3  0  0  0  0  0  0
  190.0130  178.1370  142.7580 C   0  0  2  0  0  3  0  0  0  0  0  0
  188.7500  176.9260  144.6310 C   0  0  0  0  0  2  0  0  0  0  0  0
  1 14  2  0  0  0  0
  1  6  1  0  0  0  0
  2  3  1  6  0  0  0
  2 13  1  0  0  0  0
  4  7  1  0  0  0  0
  5  2  1  0  0  0  0
  5 16  2  0  0  0  0
  6 17  2  0  0  0  0
  7  3  2  0  0  0  0
  8 21  1  1  0  0  0
  9  1  1  0  0  0  0
 10 18  1  0  0  0  0
 11  4  1  0  0  0  0
 12  8  1  0  0  0  0
 13 18  1  1  0  0  0
 13  8  1  0  0  0  0
 14  5  1  0  0  0  0
 15  4  2  0  0  0  0
 15 20  1  0  0  0  0
 16 12  1  0  0  0  0
 17 16  1  0  0  0  0
 19  3  1  0  0  0  0
 19 10  1  0  0  0  0
 20 19  2  0  0  0  0
 21 23  1  0  0  0  0
 23 22  1  6  0  0  0
 24 27  1  1  0  0  0
 25 28  1  0  0  0  0
 28 24  1  0  0  0  0
 29 26  1  6  0  0  0
 29 31  1  0  0  0  0
 30 23  1  1  0  0  0
 30 29  1  0  0  0  0
 30 25  1  0  0  0  0
 31 24  1  0  0  0  0
M  END
>  <MODEL>
4

>  <REMARK>
 VINA RESULT:      -7.8      5.799      9.631
  Name = 
  3 active torsions:
  status: ('A' for Active; 'I' for Inactive)
    1  A    between atoms: C_5  and  N_16
    2  A    between atoms: C_5  and  C_30
    3  A    between atoms: C_10  and  N_16
                            x       y       z     vdW  Elec       q    Type
                         _______ _______ _______ _____ _____    ______ ____

>  <TORSDO>
F 3

$$$$
=
 OpenBabel11122410573D

 31 35  0  0  1  0  0  0  0  0999 V2000
  186.4830  178.4820  146.5230 C   0  0  0  0  0  0  0  0  0  0  0  0
  189.6440  177.1320  144.8140 C   0  0  2  0  0  3  0  0  0  0  0  0
  190.5530  176.8220  145.9990 C   0  0  0  0  0  0  0  0  0  0  0  0
  191.4500  177.4550  148.1760 C   0  0  0  0  0  0  0  0  0  0  0  0
  188.1820  177.4570  145.1060 C   0  0  0  0  0  0  0  0  0  0  0  0
  185.5150  178.2530  145.5470 C   0  0  0  0  0  3  0  0  0  0  0  0
  190.5470  177.6540  147.1300 C   0  0  0  0  0  3  0  0  0  0  0  0
  188.9850  176.5280  142.4580 C   0  0  2  0  0  3  0  0  0  0  0  0
  186.1350  179.0980  147.7170 O   0  0  0  0  0  1  0  0  0  0  0  0
  191.6800  174.9370  144.6990 C   0  0  0  0  0  2  0  0  0  0  0  0
  191.4090  178.2560  149.2670 F   0  0  0  0  0  0  0  0  0  0  0  0
  187.4960  176.5730  142.7930 C   0  0  0  0  0  2  0  0  0  0  0  0
  189.7260  176.0630  143.7140 C   0  0  1  0  0  3  0  0  0  0  0  0
  187.8060  178.0970  146.2980 C   0  0  0  0  0  3  0  0  0  0  0  0
  192.3980  176.4350  148.0940 C   0  0  0  0  0  3  0  0  0  0  0  0
  187.1930  177.2630  144.1020 C   0  0  0  0  0  0  0  0  0  0  0  0
  185.8700  177.6450  144.3420 C   0  0  0  0  0  3  0  0  0  0  0  0
  191.1520  175.6180  143.4470 C   0  0  0  0  0  2  0  0  0  0  0  0
  191.5610  175.8270  145.9020 C   0  0  0  0  0  0  0  0  0  0  0  0
  192.4550  175.6280  146.9580 C   0  0  0  0  0  3  0  0  0  0  0  0
  189.4210  177.8530  142.0210 N   0  0  0  0  0  2  0  0  0  0  0  0
  187.8920  179.2330  140.9350 O   0  0  0  0  0  1  0  0  0  0  0  0
  188.7790  178.1710  140.7520 C   0  0  1  0  0  3  0  0  0  0  0  0
  189.7220  176.1770  137.7000 C   0  0  1  0  0  3  0  0  0  0  0  0
  189.0360  178.9430  138.0850 S   0  0  0  0  0  0  0  0  0  0  0  0
  191.7580  177.3960  140.5780 O   0  0  0  0  0  1  0  0  0  0  0  0
  189.4850  174.7620  137.2190 C   0  0  0  0  0  1  0  0  0  0  0  0
  188.1210  177.0230  137.8580 S   0  0  0  0  0  0  0  0  0  0  0  0
  190.9320  177.5030  139.4590 C   0  0  2  0  0  3  0  0  0  0  0  0
  189.8220  178.5430  139.6870 C   0  0  2  0  0  3  0  0  0  0  0  0
  190.4070  176.1280  139.0570 C   0  0  0  0  0  2  0  0  0  0  0  0
  1  9  1  0  0  0  0
  2  5  1  1  0  0  0
  2  3  1  0  0  0  0
  3  7  1  0  0  0  0
  4 11  1  0  0  0  0
  5 14  2  0  0  0  0
  6  1  2  0  0  0  0
  7  4  2  0  0  0  0
  8 21  1  1  0  0  0
  8 12  1  0  0  0  0
  8 13  1  0  0  0  0
 10 19  1  0  0  0  0
 12 16  1  0  0  0  0
 13 18  1  6  0  0  0
 13  2  1  0  0  0  0
 14  1  1  0  0  0  0
 15  4  1  0  0  0  0
 16 17  2  0  0  0  0
 16  5  1  0  0  0  0
 17  6  1  0  0  0  0
 18 10  1  0  0  0  0
 19  3  2  0  0  0  0
 19 20  1  0  0  0  0
 20 15  2  0  0  0  0
 23 22  1  1  0  0  0
 23 21  1  0  0  0  0
 24 27  1  1  0  0  0
 24 28  1  0  0  0  0
 24 31  1  0  0  0  0
 25 30  1  0  0  0  0
 28 25  1  0  0  0  0
 29 30  1  0  0  0  0
 29 26  1  1  0  0  0
 30 23  1  1  0  0  0
 31 29  1  0  0  0  0
M  END
>  <MODEL>
5

>  <REMARK>
 VINA RESULT:      -7.6      4.805      7.314
  Name = 
  3 active torsions:
  status: ('A' for Active; 'I' for Inactive)
    1  A    between atoms: C_5  and  N_16
    2  A    between atoms: C_5  and  C_30
    3  A    between atoms: C_10  and  N_16
                            x       y       z     vdW  Elec       q    Type
                         _______ _______ _______ _____ _____    ______ ____

>  <TORSDO>
F 3

$$$$
=
 OpenBabel11122410573D

 31 35  0  0  1  0  0  0  0  0999 V2000
  182.7850  178.2770  140.4040 C   0  0  0  0  0  0  0  0  0  0  0  0
  186.5710  177.8660  139.9290 C   0  0  2  0  0  3  0  0  0  0  0  0
  186.7190  177.9090  138.4100 C   0  0  0  0  0  0  0  0  0  0  0  0
  185.9120  177.2570  136.2050 C   0  0  0  0  0  0  0  0  0  0  0  0
  185.2200  178.2530  140.5220 C   0  0  0  0  0  0  0  0  0  0  0  0
  182.7150  178.7680  141.7070 C   0  0  0  0  0  3  0  0  0  0  0  0
  185.7410  177.3280  137.5890 C   0  0  0  0  0  3  0  0  0  0  0  0
  187.6340  178.3640  142.1580 C   0  0  2  0  0  3  0  0  0  0  0  0
  181.6200  178.0470  139.6860 O   0  0  0  0  0  1  0  0  0  0  0  0
  189.0550  178.9150  138.6230 C   0  0  0  0  0  2  0  0  0  0  0  0
  184.9420  176.7130  135.4300 F   0  0  0  0  0  0  0  0  0  0  0  0
  186.3630  179.0190  142.6920 C   0  0  0  0  0  2  0  0  0  0  0  0
  187.6910  178.6280  140.6520 C   0  0  1  0  0  3  0  0  0  0  0  0
  184.0260  178.0120  139.8230 C   0  0  0  0  0  3  0  0  0  0  0  0
  187.0830  177.7390  135.6210 C   0  0  0  0  0  3  0  0  0  0  0  0
  185.1360  178.7180  141.8630 C   0  0  0  0  0  0  0  0  0  0  0  0
  183.8880  178.9880  142.4330 C   0  0  0  0  0  3  0  0  0  0  0  0
  189.0550  178.3660  140.0400 C   0  0  0  0  0  2  0  0  0  0  0  0
  187.9310  178.3420  137.8110 C   0  0  0  0  0  0  0  0  0  0  0  0
  188.0900  178.2760  136.4230 C   0  0  0  0  0  3  0  0  0  0  0  0
  187.6060  176.9340  142.4650 N   0  0  0  0  0  2  0  0  0  0  0  0
  189.7240  175.9670  142.4860 O   0  0  0  0  0  1  0  0  0  0  0  0
  188.7660  176.6010  143.2800 C   0  0  1  0  0  3  0  0  0  0  0  0
  191.2180  176.7530  146.1340 C   0  0  1  0  0  3  0  0  0  0  0  0
  191.1560  178.0120  143.5500 S   0  0  0  0  0  0  0  0  0  0  0  0
  187.8070  178.2050  145.7310 O   0  0  0  0  0  1  0  0  0  0  0  0
  191.7330  175.7770  147.1690 C   0  0  0  0  0  1  0  0  0  0  0  0
  191.6800  176.1590  144.4800 S   0  0  0  0  0  0  0  0  0  0  0  0
  189.1540  178.0030  145.4330 C   0  0  2  0  0  3  0  0  0  0  0  0
  189.3710  177.8620  143.9170 C   0  0  2  0  0  3  0  0  0  0  0  0
  189.7030  176.8320  146.2410 C   0  0  0  0  0  2  0  0  0  0  0  0
  1  6  1  0  0  0  0
  2  3  1  6  0  0  0
  2  5  1  0  0  0  0
  2 13  1  0  0  0  0
  4  7  1  0  0  0  0
  5 16  2  0  0  0  0
  6 17  2  0  0  0  0
  7  3  2  0  0  0  0
  8 21  1  6  0  0  0
  8 12  1  0  0  0  0
  9  1  1  0  0  0  0
 10 18  1  0  0  0  0
 11  4  1  0  0  0  0
 13 18  1  6  0  0  0
 13  8  1  0  0  0  0
 14  1  2  0  0  0  0
 14  5  1  0  0  0  0
 15  4  2  0  0  0  0
 15 20  1  0  0  0  0
 16 17  1  0  0  0  0
 16 12  1  0  0  0  0
 19  3  1  0  0  0  0
 19 10  1  0  0  0  0
 20 19  2  0  0  0  0
 21 23  1  0  0  0  0
 23 22  1  6  0  0  0
 24 31  1  0  0  0  0
 24 27  1  1  0  0  0
 25 30  1  0  0  0  0
 25 28  1  0  0  0  0
 28 24  1  0  0  0  0
 29 26  1  6  0  0  0
 29 31  1  0  0  0  0
 30 23  1  1  0  0  0
 30 29  1  0  0  0  0
M  END
>  <MODEL>
6

>  <REMARK>
 VINA RESULT:      -7.0      4.447      8.632
  Name = 
  3 active torsions:
  status: ('A' for Active; 'I' for Inactive)
    1  A    between atoms: C_5  and  N_16
    2  A    between atoms: C_5  and  C_30
    3  A    between atoms: C_10  and  N_16
                            x       y       z     vdW  Elec       q    Type
                         _______ _______ _______ _____ _____    ______ ____

>  <TORSDO>
F 3

$$$$
=
 OpenBabel11122410573D

 31 35  0  0  1  0  0  0  0  0999 V2000
  190.4510  177.1480  145.7710 C   0  0  0  0  0  0  0  0  0  0  0  0
  187.9050  177.7570  142.9630 C   0  0  2  0  0  3  0  0  0  0  0  0
  186.6470  178.1400  143.7370 C   0  0  0  0  0  0  0  0  0  0  0  0
  185.1550  177.7730  145.6290 C   0  0  0  0  0  0  0  0  0  0  0  0
  189.2190  177.6830  143.7370 C   0  0  0  0  0  0  0  0  0  0  0  0
  191.6590  177.3340  145.1020 C   0  0  0  0  0  3  0  0  0  0  0  0
  186.3550  177.5200  144.9620 C   0  0  0  0  0  3  0  0  0  0  0  0
  189.2310  178.0340  140.8390 C   0  0  2  0  0  3  0  0  0  0  0  0
  190.4470  176.7960  147.1140 O   0  0  0  0  0  1  0  0  0  0  0  0
  185.8550  179.6100  141.8070 C   0  0  0  0  0  2  0  0  0  0  0  0
  184.9070  177.1810  146.8220 F   0  0  0  0  0  0  0  0  0  0  0  0
  190.5360  178.2450  141.6030 C   0  0  0  0  0  2  0  0  0  0  0  0
  188.0980  178.6020  141.6960 C   0  0  1  0  0  3  0  0  0  0  0  0
  189.2440  177.3100  145.0900 C   0  0  0  0  0  3  0  0  0  0  0  0
  184.2100  178.6280  145.0640 C   0  0  0  0  0  3  0  0  0  0  0  0
  190.4580  177.8330  143.0540 C   0  0  0  0  0  0  0  0  0  0  0  0
  191.6620  177.6770  143.7490 C   0  0  0  0  0  3  0  0  0  0  0  0
  186.8020  178.8030  140.9330 C   0  0  0  0  0  2  0  0  0  0  0  0
  185.6520  178.9620  143.1450 C   0  0  0  0  0  0  0  0  0  0  0  0
  184.4570  179.2170  143.8250 C   0  0  0  0  0  3  0  0  0  0  0  0
  189.0550  176.6080  140.5700 N   0  0  0  0  0  2  0  0  0  0  0  0
  187.7290  176.5850  138.6560 O   0  0  0  0  0  1  0  0  0  0  0  0
  189.0290  176.3960  139.1290 C   0  0  1  0  0  3  0  0  0  0  0  0
  190.5590  175.9680  135.7150 C   0  0  1  0  0  3  0  0  0  0  0  0
  189.1900  178.1600  136.9750 S   0  0  0  0  0  0  0  0  0  0  0  0
  192.1110  176.4100  139.0780 O   0  0  0  0  0  1  0  0  0  0  0  0
  190.7030  174.8280  134.7310 C   0  0  0  0  0  1  0  0  0  0  0  0
  188.7930  176.3220  135.9560 S   0  0  0  0  0  0  0  0  0  0  0  0
  191.3290  176.7530  137.9750 C   0  0  2  0  0  3  0  0  0  0  0  0
  189.9860  177.3620  138.4140 C   0  0  2  0  0  3  0  0  0  0  0  0
  191.1810  175.5560  137.0400 C   0  0  0  0  0  2  0  0  0  0  0  0
  1  9  1  0  0  0  0
  2  5  1  1  0  0  0
  2  3  1  0  0  0  0
  3  7  1  0  0  0  0
  4 11  1  0  0  0  0
  5 14  1  0  0  0  0
  6  1  1  0  0  0  0
  7  4  2  0  0  0  0
  8 21  1  1  0  0  0
  8 12  1  0  0  0  0
  8 13  1  0  0  0  0
 10 19  1  0  0  0  0
 12 16  1  0  0  0  0
 13 18  1  6  0  0  0
 13  2  1  0  0  0  0
 14  1  2  0  0  0  0
 15  4  1  0  0  0  0
 16  5  2  0  0  0  0
 16 17  1  0  0  0  0
 17  6  2  0  0  0  0
 18 10  1  0  0  0  0
 19  3  2  0  0  0  0
 19 20  1  0  0  0  0
 20 15  2  0  0  0  0
 23 22  1  6  0  0  0
 23 21  1  0  0  0  0
 24 27  1  6  0  0  0
 24 28  1  0  0  0  0
 24 31  1  0  0  0  0
 25 30  1  0  0  0  0
 28 25  1  0  0  0  0
 29 30  1  0  0  0  0
 29 26  1  1  0  0  0
 30 23  1  6  0  0  0
 31 29  1  0  0  0  0
M  END
>  <MODEL>
7

>  <REMARK>
 VINA RESULT:      -6.9      4.268      6.655
  Name = 
  3 active torsions:
  status: ('A' for Active; 'I' for Inactive)
    1  A    between atoms: C_5  and  N_16
    2  A    between atoms: C_5  and  C_30
    3  A    between atoms: C_10  and  N_16
                            x       y       z     vdW  Elec       q    Type
                         _______ _______ _______ _____ _____    ______ ____

>  <TORSDO>
F 3

$$$$
=
 OpenBabel11122410573D

 31 35  0  0  1  0  0  0  0  0999 V2000
  191.3330  177.1110  143.0230 C   0  0  0  0  0  0  0  0  0  0  0  0
  188.0630  177.4750  141.0450 C   0  0  2  0  0  3  0  0  0  0  0  0
  187.0660  177.8800  142.1280 C   0  0  0  0  0  0  0  0  0  0  0  0
  186.2000  177.6040  144.3890 C   0  0  0  0  0  0  0  0  0  0  0  0
  189.5460  177.4830  141.4070 C   0  0  0  0  0  0  0  0  0  0  0  0
  192.2880  177.2810  142.0230 C   0  0  0  0  0  3  0  0  0  0  0  0
  187.1660  177.3350  143.4180 C   0  0  0  0  0  3  0  0  0  0  0  0
  188.7080  177.6420  138.6160 C   0  0  2  0  0  3  0  0  0  0  0  0
  191.7310  176.8480  144.3270 O   0  0  0  0  0  1  0  0  0  0  0  0
  185.6920  179.2010  140.4310 C   0  0  0  0  0  2  0  0  0  0  0  0
  186.3300  177.0860  145.6350 F   0  0  0  0  0  0  0  0  0  0  0  0
  190.1680  177.9330  138.9550 C   0  0  0  0  0  2  0  0  0  0  0  0
  187.8480  178.2400  139.7310 C   0  0  1  0  0  3  0  0  0  0  0  0
  189.9750  177.2000  142.7140 C   0  0  0  0  0  3  0  0  0  0  0  0
  185.0970  178.3980  144.0760 C   0  0  0  0  0  3  0  0  0  0  0  0
  190.5290  177.6160  140.3870 C   0  0  0  0  0  0  0  0  0  0  0  0
  191.8860  177.5340  140.7100 C   0  0  0  0  0  3  0  0  0  0  0  0
  186.3790  178.3600  139.3670 C   0  0  0  0  0  2  0  0  0  0  0  0
  185.9110  178.6370  141.8050 C   0  0  0  0  0  0  0  0  0  0  0  0
  184.9530  178.9090  142.7860 C   0  0  0  0  0  3  0  0  0  0  0  0
  188.5200  176.1980  138.4900 N   0  0  0  0  0  2  0  0  0  0  0  0
  190.4290  174.8810  138.2830 O   0  0  0  0  0  1  0  0  0  0  0  0
  189.5190  175.6660  137.5720 C   0  0  1  0  0  3  0  0  0  0  0  0
  187.2090  176.8850  134.8600 C   0  0  1  0  0  3  0  0  0  0  0  0
  189.5480  175.2130  134.8210 S   0  0  0  0  0  0  0  0  0  0  0  0
  186.7420  174.3270  137.5330 O   0  0  0  0  0  1  0  0  0  0  0  0
  186.4300  178.1550  134.5950 C   0  0  0  0  0  1  0  0  0  0  0  0
  188.9850  177.2750  134.8800 S   0  0  0  0  0  0  0  0  0  0  0  0
  187.3240  174.9080  136.4070 C   0  0  2  0  0  3  0  0  0  0  0  0
  188.8590  174.8250  136.4690 C   0  0  2  0  0  3  0  0  0  0  0  0
  186.7960  176.3260  136.2120 C   0  0  0  0  0  2  0  0  0  0  0  0
  1  9  1  0  0  0  0
  2  5  1  1  0  0  0
  2  3  1  0  0  0  0
  3  7  1  0  0  0  0
  4 11  1  0  0  0  0
  5 14  2  0  0  0  0
  6  1  2  0  0  0  0
  7  4  2  0  0  0  0
  8 21  1  1  0  0  0
  8 12  1  0  0  0  0
  8 13  1  0  0  0  0
 10 19  1  0  0  0  0
 12 16  1  0  0  0  0
 13 18  1  6  0  0  0
 13  2  1  0  0  0  0
 14  1  1  0  0  0  0
 15  4  1  0  0  0  0
 16 17  2  0  0  0  0
 16  5  1  0  0  0  0
 17  6  1  0  0  0  0
 18 10  1  0  0  0  0
 19  3  2  0  0  0  0
 19 20  1  0  0  0  0
 20 15  2  0  0  0  0
 23 22  1  1  0  0  0
 23 21  1  0  0  0  0
 24 27  1  1  0  0  0
 24 28  1  0  0  0  0
 24 31  1  0  0  0  0
 25 28  1  0  0  0  0
 25 30  1  0  0  0  0
 29 30  1  0  0  0  0
 29 26  1  1  0  0  0
 30 23  1  1  0  0  0
 31 29  1  0  0  0  0
M  END
>  <MODEL>
8

>  <REMARK>
 VINA RESULT:      -6.6      4.160      5.688
  Name = 
  3 active torsions:
  status: ('A' for Active; 'I' for Inactive)
    1  A    between atoms: C_5  and  N_16
    2  A    between atoms: C_5  and  C_30
    3  A    between atoms: C_10  and  N_16
                            x       y       z     vdW  Elec       q    Type
                         _______ _______ _______ _____ _____    ______ ____

>  <TORSDO>
F 3

$$$$
=
 OpenBabel11122410573D

 31 35  0  0  1  0  0  0  0  0999 V2000
  181.6660  178.6320  143.1380 C   0  0  0  0  0  0  0  0  0  0  0  0
  185.0350  177.9260  141.4400 C   0  0  2  0  0  3  0  0  0  0  0  0
  184.6550  177.8720  139.9630 C   0  0  0  0  0  0  0  0  0  0  0  0
  183.1100  177.1530  138.2200 C   0  0  0  0  0  0  0  0  0  0  0  0
  183.9890  178.4430  142.4240 C   0  0  0  0  0  0  0  0  0  0  0  0
  182.0710  179.2010  144.3440 C   0  0  0  0  0  3  0  0  0  0  0  0
  183.4280  177.3150  139.5700 C   0  0  0  0  0  3  0  0  0  0  0  0
  186.8210  178.4750  143.1300 C   0  0  2  0  0  3  0  0  0  0  0  0
  180.3160  178.4440  142.8780 O   0  0  0  0  0  1  0  0  0  0  0  0
  186.9660  178.7200  139.2910 C   0  0  0  0  0  2  0  0  0  0  0  0
  181.9090  176.6350  137.8660 F   0  0  0  0  0  0  0  0  0  0  0  0
  185.8430  179.2490  144.0110 C   0  0  0  0  0  2  0  0  0  0  0  0
  186.3700  178.6480  141.6780 C   0  0  1  0  0  3  0  0  0  0  0  0
  182.6180  178.2470  142.1930 C   0  0  0  0  0  3  0  0  0  0  0  0
  184.0310  177.5160  137.2380 C   0  0  0  0  0  3  0  0  0  0  0  0
  184.3930  178.9880  143.6740 C   0  0  0  0  0  0  0  0  0  0  0  0
  183.4300  179.3780  144.6100 C   0  0  0  0  0  3  0  0  0  0  0  0
  187.4270  178.2550  140.6630 C   0  0  0  0  0  2  0  0  0  0  0  0
  185.6060  178.1830  138.9560 C   0  0  0  0  0  0  0  0  0  0  0  0
  185.2750  178.0260  137.6060 C   0  0  0  0  0  3  0  0  0  0  0  0
  186.8330  177.0720  143.5390 N   0  0  0  0  0  2  0  0  0  0  0  0
  188.9240  176.2270  142.9600 O   0  0  0  0  0  1  0  0  0  0  0  0
  188.1650  176.7280  144.0190 C   0  0  1  0  0  3  0  0  0  0  0  0
  191.2520  176.7510  146.1750 C   0  0  1  0  0  3  0  0  0  0  0  0
  190.4910  178.2560  143.8450 S   0  0  0  0  0  0  0  0  0  0  0  0
  187.7990  178.0140  146.7970 O   0  0  0  0  0  1  0  0  0  0  0  0
  192.0490  175.7120  146.9320 C   0  0  0  0  0  1  0  0  0  0  0  0
  191.3020  176.3570  144.4010 S   0  0  0  0  0  0  0  0  0  0  0  0
  189.0330  177.9300  146.1530 C   0  0  2  0  0  3  0  0  0  0  0  0
  188.8640  177.9550  144.6240 C   0  0  2  0  0  3  0  0  0  0  0  0
  189.8130  176.7210  146.6620 C   0  0  0  0  0  2  0  0  0  0  0  0
  1  6  1  0  0  0  0
  2  3  1  6  0  0  0
  2 13  1  0  0  0  0
  2  5  1  0  0  0  0
  4  7  2  0  0  0  0
  5 16  2  0  0  0  0
  6 17  2  0  0  0  0
  7  3  1  0  0  0  0
  8 21  1  1  0  0  0
  8 12  1  0  0  0  0
  9  1  1  0  0  0  0
 10 18  1  0  0  0  0
 11  4  1  0  0  0  0
 13 18  1  6  0  0  0
 13  8  1  0  0  0  0
 14  5  1  0  0  0  0
 14  1  2  0  0  0  0
 15 20  2  0  0  0  0
 15  4  1  0  0  0  0
 16 12  1  0  0  0  0
 16 17  1  0  0  0  0
 19 10  1  0  0  0  0
 19  3  2  0  0  0  0
 20 19  1  0  0  0  0
 21 23  1  0  0  0  0
 23 22  1  6  0  0  0
 24 31  1  0  0  0  0
 24 27  1  1  0  0  0
 25 28  1  0  0  0  0
 25 30  1  0  0  0  0
 28 24  1  0  0  0  0
 29 31  1  0  0  0  0
 29 26  1  1  0  0  0
 30 23  1  6  0  0  0
 30 29  1  0  0  0  0
M  END
>  <MODEL>
9

>  <REMARK>
 VINA RESULT:      -6.6      4.244      8.463
  Name = 
  3 active torsions:
  status: ('A' for Active; 'I' for Inactive)
    1  A    between atoms: C_5  and  N_16
    2  A    between atoms: C_5  and  C_30
    3  A    between atoms: C_10  and  N_16
                            x       y       z     vdW  Elec       q    Type
                         _______ _______ _______ _____ _____    ______ ____

>  <TORSDO>
F 3

$$$$
