=
 OpenBabel11122410273D

 30 34  0  0  1  0  0  0  0  0999 V2000
  187.8890  177.7850  144.5300 C   0  0  2  0  0  3  0  0  0  0  0  0
  186.2270  177.9780  146.3250 C   0  0  0  0  0  0  0  0  0  0  0  0
  185.0200  178.8700  141.6480 N   0  0  0  0  0  0  0  0  0  0  0  0
  188.2040  177.6880  143.0560 C   0  0  2  0  0  3  0  0  0  0  0  0
  188.9530  177.2220  145.4160 C   0  0  0  0  0  2  0  0  0  0  0  0
  191.7050  178.9870  143.5050 C   0  0  0  0  0  2  0  0  0  0  0  0
  189.2370  177.1650  140.3200 C   0  0  0  0  0  0  0  0  0  0  0  0
  190.6230  178.2410  143.7370 C   0  0  0  0  0  0  0  0  0  0  0  0
  187.9100  177.6330  140.1840 O   0  0  0  0  0  0  0  0  0  0  0  0
  185.9020  178.9400  140.5240 C   0  0  0  0  0  0  0  0  0  0  0  0
  190.3160  177.8740  145.1780 C   0  0  2  0  0  3  0  0  0  0  0  0
  189.5910  178.1480  142.6300 C   0  0  1  0  0  3  0  0  0  0  0  0
  184.8980  178.1830  146.7030 C   0  0  0  0  0  3  0  0  0  0  0  0
  187.1430  177.7060  147.3350 O   0  0  0  0  0  1  0  0  0  0  0  0
  185.9110  178.5580  142.7110 C   0  0  0  0  0  0  0  0  0  0  0  0
  183.9210  178.4780  145.7560 C   0  0  0  0  0  3  0  0  0  0  0  0
  186.6080  178.0510  144.9550 C   0  0  0  0  0  0  0  0  0  0  0  0
  187.2480  178.4510  142.2940 N   0  0  0  0  0  0  0  0  0  0  0  0
  185.4940  179.1770  139.3570 O   0  0  0  0  0  0  0  0  0  0  0  0
  187.3460  178.7420  140.8800 C   0  0  1  0  0  3  0  0  0  0  0  0
  191.3180  176.8320  141.4000 O   0  0  0  0  0  1  0  0  0  0  0  0
  184.2660  178.5890  144.4130 C   0  0  0  0  0  3  0  0  0  0  0  0
  185.5890  178.3960  144.0010 C   0  0  0  0  0  0  0  0  0  0  0  0
  190.0330  177.3740  141.4040 C   0  0  0  0  0  0  0  0  0  0  0  0
  189.7530  176.3240  139.2000 C   0  0  0  0  0  2  0  0  0  0  0  0
  191.4730  176.5130  137.8330 C   0  0  0  0  0  1  0  0  0  0  0  0
  190.2870  177.1450  138.2060 O   0  0  0  0  0  0  0  0  0  0  0  0
  191.4320  177.0420  145.8210 C   0  0  0  0  0  2  0  0  0  0  0  0
  192.2280  175.7570  147.8150 C   0  0  0  0  0  1  0  0  0  0  0  0
  191.1280  176.6410  147.2620 C   0  0  0  0  0  2  0  0  0  0  0  0
  1 17  1  0  0  0  0
  1  5  1  1  0  0  0
  2 13  1  0  0  0  0
  2 14  1  0  0  0  0
  3 15  2  0  0  0  0
  4 18  1  6  0  0  0
  4  1  1  0  0  0  0
  6  8  2  0  0  0  0
  7 24  2  0  0  0  0
  8 11  1  0  0  0  0
  9  7  1  0  0  0  0
 10 20  1  0  0  0  0
 10  3  1  0  0  0  0
 11  5  1  0  0  0  0
 11 28  1  6  0  0  0
 12 24  1  6  0  0  0
 12  4  1  0  0  0  0
 12  8  1  0  0  0  0
 15 23  1  0  0  0  0
 16 13  2  0  0  0  0
 17  2  2  0  0  0  0
 18 15  1  0  0  0  0
 19 10  2  0  0  0  0
 20  9  1  6  0  0  0
 20 18  1  0  0  0  0
 21 24  1  0  0  0  0
 22 16  1  0  0  0  0
 23 22  2  0  0  0  0
 23 17  1  0  0  0  0
 25  7  1  0  0  0  0
 26 27  1  0  0  0  0
 27 25  1  0  0  0  0
 28 30  1  0  0  0  0
 30 29  1  0  0  0  0
M  END
>  <MODEL>
1

>  <REMARK>
 VINA RESULT:     -10.4      0.000      0.000
  Name = 
  4 active torsions:
  status: ('A' for Active; 'I' for Inactive)
    1  A    between atoms: C_7  and  C_15
    2  A    between atoms: C_11  and  C_28
    3  A    between atoms: C_15  and  O_23
    4  A    between atoms: C_28  and  C_30
                            x       y       z     vdW  Elec       q    Type
                         _______ _______ _______ _____ _____    ______ ____

>  <TORSDO>
F 4

$$$$
=
 OpenBabel11122410273D

 30 34  0  0  1  0  0  0  0  0999 V2000
  186.3590  178.3730  144.6570 C   0  0  2  0  0  3  0  0  0  0  0  0
  186.5060  178.3290  147.1060 C   0  0  0  0  0  0  0  0  0  0  0  0
  190.0760  176.4290  144.3190 N   0  0  0  0  0  0  0  0  0  0  0  0
  187.0300  178.2250  143.3120 C   0  0  2  0  0  3  0  0  0  0  0  0
  185.1240  179.2150  144.6300 C   0  0  0  0  0  2  0  0  0  0  0  0
  183.7980  177.4580  141.5480 C   0  0  0  0  0  2  0  0  0  0  0  0
  188.0050  178.3370  140.5080 C   0  0  0  0  0  0  0  0  0  0  0  0
  184.6450  178.1010  142.3540 C   0  0  0  0  0  0  0  0  0  0  0  0
  189.0070  177.6990  141.2730 O   0  0  0  0  0  0  0  0  0  0  0  0
  190.0650  176.2520  142.8990 C   0  0  0  0  0  0  0  0  0  0  0  0
  184.0850  178.6960  143.6340 C   0  0  2  0  0  3  0  0  0  0  0  0
  186.1270  177.8590  142.1430 C   0  0  1  0  0  3  0  0  0  0  0  0
  187.2540  178.0430  148.2510 C   0  0  0  0  0  3  0  0  0  0  0  0
  185.2490  178.8940  147.2890 O   0  0  0  0  0  1  0  0  0  0  0  0
  188.8140  177.0400  144.5550 C   0  0  0  0  0  0  0  0  0  0  0  0
  188.5140  177.4610  148.1560 C   0  0  0  0  0  3  0  0  0  0  0  0
  187.0280  178.0430  145.8120 C   0  0  0  0  0  0  0  0  0  0  0  0
  188.0640  177.2240  143.3820 N   0  0  0  0  0  0  0  0  0  0  0  0
  191.0350  175.7510  142.2720 O   0  0  0  0  0  0  0  0  0  0  0  0
  188.7840  176.6830  142.2490 C   0  0  1  0  0  3  0  0  0  0  0  0
  185.8240  179.1130  140.0060 O   0  0  0  0  0  1  0  0  0  0  0  0
  189.0390  177.1380  146.9100 C   0  0  0  0  0  3  0  0  0  0  0  0
  188.3140  177.4040  145.7430 C   0  0  0  0  0  0  0  0  0  0  0  0
  186.6930  178.4340  140.8590 C   0  0  0  0  0  0  0  0  0  0  0  0
  188.4650  179.0060  139.2540 C   0  0  0  0  0  2  0  0  0  0  0  0
  189.0060  178.7920  137.1270 C   0  0  0  0  0  1  0  0  0  0  0  0
  188.5670  178.0630  138.2320 O   0  0  0  0  0  0  0  0  0  0  0  0
  183.0150  179.7610  143.3670 C   0  0  0  0  0  2  0  0  0  0  0  0
  180.7580  179.3560  142.3630 C   0  0  0  0  0  1  0  0  0  0  0  0
  181.5950  179.2640  143.6240 C   0  0  0  0  0  2  0  0  0  0  0  0
  1  5  1  1  0  0  0
  1 17  1  0  0  0  0
  2 14  1  0  0  0  0
  2 13  1  0  0  0  0
  3 15  2  0  0  0  0
  4 18  1  1  0  0  0
  4  1  1  0  0  0  0
  6  8  2  0  0  0  0
  7 24  2  0  0  0  0
  7  9  1  0  0  0  0
  8 11  1  0  0  0  0
 10  3  1  0  0  0  0
 11 28  1  6  0  0  0
 11  5  1  0  0  0  0
 12 24  1  6  0  0  0
 12  8  1  0  0  0  0
 12  4  1  0  0  0  0
 15 23  1  0  0  0  0
 16 13  2  0  0  0  0
 17  2  2  0  0  0  0
 18 15  1  0  0  0  0
 19 10  2  0  0  0  0
 20  9  1  6  0  0  0
 20 10  1  0  0  0  0
 20 18  1  0  0  0  0
 21 24  1  0  0  0  0
 22 16  1  0  0  0  0
 23 17  1  0  0  0  0
 23 22  2  0  0  0  0
 25  7  1  0  0  0  0
 26 27  1  0  0  0  0
 27 25  1  0  0  0  0
 28 30  1  0  0  0  0
 29 30  1  0  0  0  0
M  END
>  <MODEL>
2

>  <REMARK>
 VINA RESULT:      -8.7      1.996      5.366
  Name = 
  4 active torsions:
  status: ('A' for Active; 'I' for Inactive)
    1  A    between atoms: C_7  and  C_15
    2  A    between atoms: C_11  and  C_28
    3  A    between atoms: C_15  and  O_23
    4  A    between atoms: C_28  and  C_30
                            x       y       z     vdW  Elec       q    Type
                         _______ _______ _______ _____ _____    ______ ____

>  <TORSDO>
F 4

$$$$
=
 OpenBabel11122410273D

 30 34  0  0  1  0  0  0  0  0999 V2000
  188.1750  177.4210  142.9690 C   0  0  2  0  0  3  0  0  0  0  0  0
  189.3050  176.9150  145.0870 C   0  0  0  0  0  0  0  0  0  0  0  0
  184.8980  179.0830  145.0210 N   0  0  0  0  0  0  0  0  0  0  0  0
  186.9170  177.8050  142.2260 C   0  0  2  0  0  3  0  0  0  0  0  0
  189.1830  176.7080  142.1260 C   0  0  0  0  0  2  0  0  0  0  0  0
  188.8190  179.1990  139.2970 C   0  0  0  0  0  2  0  0  0  0  0  0
  184.6400  178.2300  140.3670 C   0  0  0  0  0  0  0  0  0  0  0  0
  188.4770  178.3280  140.2490 C   0  0  0  0  0  0  0  0  0  0  0  0
  184.2000  178.6020  141.6580 O   0  0  0  0  0  0  0  0  0  0  0  0
  184.1880  179.5670  143.8770 C   0  0  0  0  0  0  0  0  0  0  0  0
  189.5870  177.5150  140.8910 C   0  0  2  0  0  3  0  0  0  0  0  0
  187.1080  178.4890  140.8810 C   0  0  1  0  0  3  0  0  0  0  0  0
  189.2630  176.8820  146.4830 C   0  0  0  0  0  3  0  0  0  0  0  0
  190.4530  176.4280  144.4720 O   0  0  0  0  0  1  0  0  0  0  0  0
  186.0750  178.5400  144.4370 C   0  0  0  0  0  0  0  0  0  0  0  0
  188.1590  177.3660  147.1780 C   0  0  0  0  0  3  0  0  0  0  0  0
  188.2070  177.4350  144.3440 C   0  0  0  0  0  0  0  0  0  0  0  0
  186.1100  178.6790  143.0390 N   0  0  0  0  0  0  0  0  0  0  0  0
  183.0570  180.1130  143.9640 O   0  0  0  0  0  0  0  0  0  0  0  0
  184.9360  179.3940  142.5880 C   0  0  1  0  0  3  0  0  0  0  0  0
  186.2190  177.7630  138.6650 O   0  0  0  0  0  1  0  0  0  0  0  0
  187.0840  177.9100  146.4840 C   0  0  0  0  0  3  0  0  0  0  0  0
  187.0960  177.9660  145.0860 C   0  0  0  0  0  0  0  0  0  0  0  0
  185.9400  178.1660  139.9710 C   0  0  0  0  0  0  0  0  0  0  0  0
  183.5740  177.8170  139.4060 C   0  0  0  0  0  2  0  0  0  0  0  0
  182.9040  175.8270  138.7340 C   0  0  0  0  0  1  0  0  0  0  0  0
  182.9620  176.6490  139.8590 O   0  0  0  0  0  0  0  0  0  0  0  0
  190.3210  176.6250  139.8820 C   0  0  0  0  0  2  0  0  0  0  0  0
  192.2810  176.4800  138.3310 C   0  0  0  0  0  1  0  0  0  0  0  0
  191.7620  177.0630  139.6310 C   0  0  0  0  0  2  0  0  0  0  0  0
  1  5  1  1  0  0  0
  1 17  1  0  0  0  0
  2 13  1  0  0  0  0
  4  1  1  0  0  0  0
  4 18  1  1  0  0  0
  6  8  2  0  0  0  0
  7  9  1  0  0  0  0
  8 12  1  0  0  0  0
  8 11  1  0  0  0  0
 10 19  2  0  0  0  0
 10  3  1  0  0  0  0
 11 28  1  6  0  0  0
 11  5  1  0  0  0  0
 12 24  1  6  0  0  0
 12  4  1  0  0  0  0
 13 16  2  0  0  0  0
 14  2  1  0  0  0  0
 15  3  2  0  0  0  0
 15 23  1  0  0  0  0
 17 23  1  0  0  0  0
 17  2  2  0  0  0  0
 18 15  1  0  0  0  0
 20  9  1  6  0  0  0
 20 18  1  0  0  0  0
 20 10  1  0  0  0  0
 21 24  1  0  0  0  0
 22 16  1  0  0  0  0
 23 22  2  0  0  0  0
 24  7  2  0  0  0  0
 25 27  1  0  0  0  0
 25  7  1  0  0  0  0
 26 27  1  0  0  0  0
 29 30  1  0  0  0  0
 30 28  1  0  0  0  0
M  END
>  <MODEL>
3

>  <REMARK>
 VINA RESULT:      -7.4      2.116      4.833
  Name = 
  4 active torsions:
  status: ('A' for Active; 'I' for Inactive)
    1  A    between atoms: C_7  and  C_15
    2  A    between atoms: C_11  and  C_28
    3  A    between atoms: C_15  and  O_23
    4  A    between atoms: C_28  and  C_30
                            x       y       z     vdW  Elec       q    Type
                         _______ _______ _______ _____ _____    ______ ____

>  <TORSDO>
F 4

$$$$
=
 OpenBabel11122410273D

 30 34  0  0  1  0  0  0  0  0999 V2000
  187.4190  178.1050  141.8980 C   0  0  2  0  0  3  0  0  0  0  0  0
  185.9520  178.5970  139.9920 C   0  0  0  0  0  0  0  0  0  0  0  0
  184.2080  178.5420  144.5840 N   0  0  0  0  0  0  0  0  0  0  0  0
  187.6590  178.1150  143.3890 C   0  0  2  0  0  3  0  0  0  0  0  0
  188.6710  178.0950  141.0810 C   0  0  0  0  0  2  0  0  0  0  0  0
  190.2240  175.3710  143.2050 C   0  0  0  0  0  2  0  0  0  0  0  0
  188.6580  178.2400  146.1830 C   0  0  0  0  0  0  0  0  0  0  0  0
  189.6070  176.5110  142.8870 C   0  0  0  0  0  0  0  0  0  0  0  0
  187.2580  178.4200  146.2320 O   0  0  0  0  0  0  0  0  0  0  0  0
  184.9000  178.1340  145.7680 C   0  0  0  0  0  0  0  0  0  0  0  0
  189.5800  176.9140  141.4230 C   0  0  2  0  0  3  0  0  0  0  0  0
  188.6650  177.1030  143.9170 C   0  0  1  0  0  3  0  0  0  0  0  0
  184.6960  178.9910  139.5240 C   0  0  0  0  0  3  0  0  0  0  0  0
  186.9490  178.3880  139.0460 O   0  0  0  0  0  1  0  0  0  0  0  0
  185.2040  178.3760  143.5820 C   0  0  0  0  0  0  0  0  0  0  0  0
  183.6390  179.2050  140.4040 C   0  0  0  0  0  3  0  0  0  0  0  0
  186.1810  178.4210  141.3870 C   0  0  0  0  0  0  0  0  0  0  0  0
  186.4210  177.8940  144.0910 N   0  0  0  0  0  0  0  0  0  0  0  0
  184.3630  178.1550  146.9060 O   0  0  0  0  0  0  0  0  0  0  0  0
  186.2970  177.6510  145.5120 C   0  0  1  0  0  3  0  0  0  0  0  0
  190.7260  177.5610  145.2480 O   0  0  0  0  0  1  0  0  0  0  0  0
  183.8200  179.0100  141.7690 C   0  0  0  0  0  3  0  0  0  0  0  0
  185.0630  178.6090  142.2700 C   0  0  0  0  0  0  0  0  0  0  0  0
  189.3370  177.6510  145.1610 C   0  0  0  0  0  0  0  0  0  0  0  0
  189.4320  178.8100  147.3260 C   0  0  0  0  0  2  0  0  0  0  0  0
  188.2010  177.9000  148.9130 C   0  0  0  0  0  1  0  0  0  0  0  0
  189.4840  177.8810  148.3650 O   0  0  0  0  0  0  0  0  0  0  0  0
  190.9850  177.1310  140.8490 C   0  0  0  0  0  2  0  0  0  0  0  0
  190.6710  175.9930  138.6420 C   0  0  0  0  0  1  0  0  0  0  0  0
  190.9950  177.3030  139.3330 C   0  0  0  0  0  2  0  0  0  0  0  0
  1  5  1  6  0  0  0
  1  4  1  0  0  0  0
  2 17  1  0  0  0  0
  3 10  1  0  0  0  0
  4 12  1  0  0  0  0
  4 18  1  1  0  0  0
  5 11  1  0  0  0  0
  7  9  1  0  0  0  0
  7 25  1  0  0  0  0
  8  6  2  0  0  0  0
 10 19  2  0  0  0  0
 11 28  1  1  0  0  0
 11  8  1  0  0  0  0
 12  8  1  6  0  0  0
 12 24  1  0  0  0  0
 13  2  2  0  0  0  0
 13 16  1  0  0  0  0
 14  2  1  0  0  0  0
 15 18  1  0  0  0  0
 15  3  2  0  0  0  0
 16 22  2  0  0  0  0
 17  1  1  0  0  0  0
 17 23  2  0  0  0  0
 18 20  1  0  0  0  0
 20 10  1  1  0  0  0
 20  9  1  0  0  0  0
 22 23  1  0  0  0  0
 23 15  1  0  0  0  0
 24 21  1  0  0  0  0
 24  7  2  0  0  0  0
 25 27  1  0  0  0  0
 27 26  1  0  0  0  0
 29 30  1  0  0  0  0
 30 28  1  0  0  0  0
M  END
>  <MODEL>
4

>  <REMARK>
 VINA RESULT:      -7.4      1.938      5.773
  Name = 
  4 active torsions:
  status: ('A' for Active; 'I' for Inactive)
    1  A    between atoms: C_7  and  C_15
    2  A    between atoms: C_11  and  C_28
    3  A    between atoms: C_15  and  O_23
    4  A    between atoms: C_28  and  C_30
                            x       y       z     vdW  Elec       q    Type
                         _______ _______ _______ _____ _____    ______ ____

>  <TORSDO>
F 4

$$$$
