=
 OpenBabel11122411503D

 28 32  0  0  1  0  0  0  0  0999 V2000
  189.5620  177.4960  137.2240 C   0  0  0  0  0  0  0  0  0  0  0  0
  193.8120  176.4190  138.7340 O   0  0  0  0  0  0  0  0  0  0  0  0
  189.6290  171.7780  135.0450 O   0  0  0  0  0  0  0  0  0  0  0  0
  190.2960  177.4760  139.9330 C   0  0  0  0  0  3  0  0  0  0  0  0
  191.5260  173.1480  134.5940 C   0  0  1  0  0  3  0  0  0  0  0  0
  189.0550  177.5280  135.8100 C   0  0  0  0  0  2  0  0  0  0  0  0
  193.5510  174.0840  138.0000 O   0  0  0  0  0  0  0  0  0  0  0  0
  193.8090  175.4950  137.5490 S   0  0  0  0  0  0  0  0  0  0  0  0
  195.3550  175.4040  135.3560 C   0  0  0  0  0  0  0  0  0  0  0  0
  192.6080  176.0150  136.3960 N   0  0  1  0  0  0  0  0  0  0  0  0
  187.0460  175.1780  137.2080 N   0  0  0  0  0  2  0  0  0  0  0  0
  190.5270  175.1540  135.5700 C   0  0  1  0  0  3  0  0  0  0  0  0
  194.1760  174.7740  134.6920 C   0  0  0  0  0  2  0  0  0  0  0  0
  195.3350  175.5940  136.7630 N   0  0  0  0  0  2  0  0  0  0  0  0
  187.5700  175.4880  136.0800 C   0  0  0  0  0  0  0  0  0  0  0  0
  190.5510  176.5740  137.6820 C   0  0  0  0  0  0  0  0  0  0  0  0
  190.1680  172.8710  135.1300 C   0  0  0  0  0  0  0  0  0  0  0  0
  196.5000  175.4950  134.6990 C   0  0  0  0  0  2  0  0  0  0  0  0
  188.2040  174.4190  135.2390 C   0  0  0  0  0  2  0  0  0  0  0  0
  190.8860  176.5780  139.0420 C   0  0  0  0  0  3  0  0  0  0  0  0
  188.9810  178.3940  138.1290 C   0  0  0  0  0  3  0  0  0  0  0  0
  189.3480  178.3880  139.4740 C   0  0  0  0  0  3  0  0  0  0  0  0
  187.6450  176.9360  135.6790 C   0  0  0  0  0  2  0  0  0  0  0  0
  191.5760  174.6910  134.5950 C   0  0  1  0  0  3  0  0  0  0  0  0
  189.5510  174.0260  135.8320 C   0  0  2  0  0  3  0  0  0  0  0  0
  192.8300  175.4460  135.0430 C   0  0  1  0  0  3  0  0  0  0  0  0
  192.5370  172.4770  135.5140 C   0  0  0  0  0  1  0  0  0  0  0  0
  191.2800  175.5580  136.8170 C   0  0  2  0  0  3  0  0  0  0  0  0
  1 16  2  0  0  0  0
  1 21  1  0  0  0  0
  3 17  2  0  0  0  0
  5 24  1  0  0  0  0
  5 17  1  0  0  0  0
  5 27  1  1  0  0  0
  6  1  1  0  0  0  0
  8  7  2  0  0  0  0
  8  2  2  0  0  0  0
  9 14  1  0  0  0  0
 10 28  1  0  0  0  0
 10  8  1  1  0  0  0
 12 25  1  0  0  0  0
 12 28  1  0  0  0  0
 13 26  1  0  0  0  0
 13  9  1  0  0  0  0
 14  8  1  0  0  0  0
 15 11  2  0  0  0  0
 16 20  1  0  0  0  0
 17 25  1  0  0  0  0
 18  9  2  0  0  0  0
 19 25  1  0  0  0  0
 19 15  1  0  0  0  0
 20  4  2  0  0  0  0
 21 22  2  0  0  0  0
 22  4  1  0  0  0  0
 23  6  1  0  0  0  0
 23 15  1  0  0  0  0
 24 26  1  0  0  0  0
 24 12  1  0  0  0  0
 26 10  1  0  0  0  0
 28 16  1  0  0  0  0
M  END
>  <MODEL>
1

>  <REMARK>
 VINA RESULT:      -6.3      0.000      0.000
  Name = 
  0 active torsions:
  status: ('A' for Active; 'I' for Inactive)
                            x       y       z     vdW  Elec       q    Type
                         _______ _______ _______ _____ _____    ______ ____

>  <TORSDO>
F 0

$$$$
=
 OpenBabel11122411503D

 28 32  0  0  1  0  0  0  0  0999 V2000
  184.4610  175.2790  137.2140 C   0  0  0  0  0  0  0  0  0  0  0  0
  186.3860  178.6860  139.7000 O   0  0  0  0  0  0  0  0  0  0  0  0
  179.6490  179.0560  137.0310 O   0  0  0  0  0  0  0  0  0  0  0  0
  186.7720  176.6660  136.4310 C   0  0  0  0  0  3  0  0  0  0  0  0
  180.6610  178.6680  139.1530 C   0  0  1  0  0  3  0  0  0  0  0  0
  183.2270  174.4800  137.5240 C   0  0  0  0  0  2  0  0  0  0  0  0
  184.4490  180.1540  139.3090 O   0  0  0  0  0  0  0  0  0  0  0  0
  184.9620  178.9730  140.0850 S   0  0  0  0  0  0  0  0  0  0  0  0
  183.7140  178.9290  142.4620 C   0  0  0  0  0  0  0  0  0  0  0  0
  183.9770  177.5610  139.8040 N   0  0  1  0  0  0  0  0  0  0  0  0
  182.3680  175.9600  134.5940 N   0  0  0  0  0  2  0  0  0  0  0  0
  182.2010  176.9710  138.3030 C   0  0  1  0  0  3  0  0  0  0  0  0
  182.4780  178.6330  141.6770 C   0  0  0  0  0  2  0  0  0  0  0  0
  184.8970  179.3030  141.7720 N   0  0  0  0  0  2  0  0  0  0  0  0
  181.8370  175.5260  135.6770 C   0  0  0  0  0  0  0  0  0  0  0  0
  184.6210  176.6490  137.5790 C   0  0  0  0  0  0  0  0  0  0  0  0
  180.4890  178.4640  137.6910 C   0  0  0  0  0  0  0  0  0  0  0  0
  183.6230  179.1370  143.7650 C   0  0  0  0  0  2  0  0  0  0  0  0
  180.8000  176.3550  136.3780 C   0  0  0  0  0  2  0  0  0  0  0  0
  185.7780  177.3190  137.1620 C   0  0  0  0  0  3  0  0  0  0  0  0
  185.4680  174.6360  136.4830 C   0  0  0  0  0  3  0  0  0  0  0  0
  186.6190  175.3220  136.0980 C   0  0  0  0  0  3  0  0  0  0  0  0
  182.3490  174.2500  136.2860 C   0  0  0  0  0  2  0  0  0  0  0  0
  181.5300  177.4570  139.5580 C   0  0  1  0  0  3  0  0  0  0  0  0
  181.4700  177.5200  137.0960 C   0  0  2  0  0  3  0  0  0  0  0  0
  182.6900  177.6040  140.5440 C   0  0  1  0  0  3  0  0  0  0  0  0
  181.3230  180.0240  139.3600 C   0  0  0  0  0  1  0  0  0  0  0  0
  183.6260  177.4710  138.3830 C   0  0  2  0  0  3  0  0  0  0  0  0
  1  6  1  0  0  0  0
  1 16  1  0  0  0  0
  2  8  2  0  0  0  0
  3 17  2  0  0  0  0
  4 20  1  0  0  0  0
  5 27  1  6  0  0  0
  5 24  1  0  0  0  0
  7  8  2  0  0  0  0
  8 14  1  0  0  0  0
  9 18  2  0  0  0  0
 10  8  1  6  0  0  0
 10 26  1  0  0  0  0
 11 15  2  0  0  0  0
 12 28  1  0  0  0  0
 12 24  1  0  0  0  0
 13  9  1  0  0  0  0
 14  9  1  0  0  0  0
 15 23  1  0  0  0  0
 15 19  1  0  0  0  0
 16 28  1  0  0  0  0
 17  5  1  0  0  0  0
 19 25  1  0  0  0  0
 20 16  2  0  0  0  0
 21  1  2  0  0  0  0
 22  4  2  0  0  0  0
 22 21  1  0  0  0  0
 23  6  1  0  0  0  0
 24 26  1  0  0  0  0
 25 17  1  0  0  0  0
 25 12  1  0  0  0  0
 26 13  1  0  0  0  0
 28 10  1  0  0  0  0
M  END
>  <MODEL>
2

>  <REMARK>
 VINA RESULT:      -6.3      6.561      9.836
  Name = 
  0 active torsions:
  status: ('A' for Active; 'I' for Inactive)
                            x       y       z     vdW  Elec       q    Type
                         _______ _______ _______ _____ _____    ______ ____

>  <TORSDO>
F 0

$$$$
=
 OpenBabel11122411503D

 28 32  0  0  1  0  0  0  0  0999 V2000
  187.1720  177.4690  136.4710 C   0  0  0  0  0  0  0  0  0  0  0  0
  182.8710  175.7800  136.8560 O   0  0  0  0  0  0  0  0  0  0  0  0
  186.6600  178.2850  142.5140 O   0  0  0  0  0  0  0  0  0  0  0  0
  186.4680  174.8310  135.8180 C   0  0  0  0  0  3  0  0  0  0  0  0
  184.8650  179.0500  141.1470 C   0  0  1  0  0  3  0  0  0  0  0  0
  187.6650  178.8490  136.8000 C   0  0  0  0  0  2  0  0  0  0  0  0
  182.9510  175.9600  139.3100 O   0  0  0  0  0  0  0  0  0  0  0  0
  182.7930  176.7220  138.0240 S   0  0  0  0  0  0  0  0  0  0  0  0
  181.2210  178.8470  138.4980 C   0  0  0  0  0  0  0  0  0  0  0  0
  184.0170  177.9560  137.8710 N   0  0  1  0  0  0  0  0  0  0  0  0
  189.5100  176.9390  138.9120 N   0  0  0  0  0  2  0  0  0  0  0  0
  186.0190  178.5510  139.0510 C   0  0  1  0  0  3  0  0  0  0  0  0
  182.3430  179.3420  139.3490 C   0  0  0  0  0  2  0  0  0  0  0  0
  181.2700  177.5200  137.9940 N   0  0  0  0  0  2  0  0  0  0  0  0
  188.9980  178.1110  138.8290 C   0  0  0  0  0  0  0  0  0  0  0  0
  186.1230  176.8180  137.1880 C   0  0  0  0  0  0  0  0  0  0  0  0
  186.2040  178.4550  141.3940 C   0  0  0  0  0  0  0  0  0  0  0  0
  180.0790  179.5140  138.4740 C   0  0  0  0  0  2  0  0  0  0  0  0
  188.2780  178.6910  140.0120 C   0  0  0  0  0  2  0  0  0  0  0  0
  185.8030  175.4970  136.8490 C   0  0  0  0  0  3  0  0  0  0  0  0
  187.8270  176.7890  135.4360 C   0  0  0  0  0  3  0  0  0  0  0  0
  187.4760  175.4800  135.1080 C   0  0  0  0  0  3  0  0  0  0  0  0
  189.0260  178.8330  137.5100 C   0  0  0  0  0  2  0  0  0  0  0  0
  184.9290  179.4000  139.6440 C   0  0  1  0  0  3  0  0  0  0  0  0
  186.9120  178.0320  140.1580 C   0  0  2  0  0  3  0  0  0  0  0  0
  183.7390  179.1460  138.7160 C   0  0  1  0  0  3  0  0  0  0  0  0
  183.8160  178.0070  141.5130 C   0  0  0  0  0  1  0  0  0  0  0  0
  185.3120  177.4330  138.3180 C   0  0  2  0  0  3  0  0  0  0  0  0
  1  6  1  0  0  0  0
  1 16  1  0  0  0  0
  2  8  2  0  0  0  0
  4 20  1  0  0  0  0
  5 17  1  0  0  0  0
  5 27  1  6  0  0  0
  6 23  1  0  0  0  0
  8  7  2  0  0  0  0
  9 13  1  0  0  0  0
 10  8  1  1  0  0  0
 10 28  1  0  0  0  0
 10 26  1  0  0  0  0
 12 24  1  0  0  0  0
 12 25  1  0  0  0  0
 14  8  1  0  0  0  0
 14  9  1  0  0  0  0
 15 11  2  0  0  0  0
 15 19  1  0  0  0  0
 16 28  1  0  0  0  0
 17  3  2  0  0  0  0
 18  9  2  0  0  0  0
 19 25  1  0  0  0  0
 20 16  2  0  0  0  0
 21  1  2  0  0  0  0
 22 21  1  0  0  0  0
 22  4  2  0  0  0  0
 23 15  1  0  0  0  0
 24  5  1  0  0  0  0
 25 17  1  0  0  0  0
 26 13  1  0  0  0  0
 26 24  1  0  0  0  0
 28 12  1  0  0  0  0
M  END
>  <MODEL>
3

>  <REMARK>
 VINA RESULT:      -5.7      5.207      9.180
  Name = 
  0 active torsions:
  status: ('A' for Active; 'I' for Inactive)
                            x       y       z     vdW  Elec       q    Type
                         _______ _______ _______ _____ _____    ______ ____

>  <TORSDO>
F 0

$$$$
=
 OpenBabel11122411503D

 28 32  0  0  1  0  0  0  0  0999 V2000
  181.9680  177.9950  140.3470 C   0  0  0  0  0  0  0  0  0  0  0  0
  178.9310  175.8310  137.5920 O   0  0  0  0  0  0  0  0  0  0  0  0
  185.6810  177.4890  135.5080 O   0  0  0  0  0  0  0  0  0  0  0  0
  179.5240  179.1130  139.5400 C   0  0  0  0  0  3  0  0  0  0  0  0
  184.5030  175.5350  136.1980 C   0  0  1  0  0  3  0  0  0  0  0  0
  183.3030  177.5040  140.8310 C   0  0  0  0  0  2  0  0  0  0  0  0
  180.4830  175.9420  135.6850 O   0  0  0  0  0  0  0  0  0  0  0  0
  180.1710  175.2440  136.9790 S   0  0  0  0  0  0  0  0  0  0  0  0
  181.0390  172.7090  136.7940 C   0  0  0  0  0  0  0  0  0  0  0  0
  181.5020  175.3710  138.0990 N   0  0  1  0  0  0  0  0  0  0  0  0
  184.1810  180.2830  139.0930 N   0  0  0  0  0  2  0  0  0  0  0  0
  183.5640  176.5940  138.1910 C   0  0  1  0  0  3  0  0  0  0  0  0
  182.4080  173.3030  136.7550 C   0  0  0  0  0  2  0  0  0  0  0  0
  179.9110  173.5670  136.6970 N   0  0  0  0  0  2  0  0  0  0  0  0
  184.6430  179.1330  139.4200 C   0  0  0  0  0  0  0  0  0  0  0  0
  181.4260  177.6630  139.0690 C   0  0  0  0  0  0  0  0  0  0  0  0
  184.9260  176.9560  136.3080 C   0  0  0  0  0  0  0  0  0  0  0  0
  180.8890  171.4080  136.6110 C   0  0  0  0  0  2  0  0  0  0  0  0
  185.3330  178.2910  138.3860 C   0  0  0  0  0  2  0  0  0  0  0  0
  180.2110  178.2470  138.6880 C   0  0  0  0  0  3  0  0  0  0  0  0
  181.2650  178.8620  141.1920 C   0  0  0  0  0  3  0  0  0  0  0  0
  180.0480  179.4150  140.7950 C   0  0  0  0  0  3  0  0  0  0  0  0
  184.3780  178.6000  140.8010 C   0  0  0  0  0  2  0  0  0  0  0  0
  183.9090  175.2560  137.5960 C   0  0  1  0  0  3  0  0  0  0  0  0
  184.3020  177.6840  137.4420 C   0  0  2  0  0  3  0  0  0  0  0  0
  182.6190  174.4510  137.7680 C   0  0  1  0  0  3  0  0  0  0  0  0
  183.5050  175.4330  135.0520 C   0  0  0  0  0  1  0  0  0  0  0  0
  182.0630  176.7250  138.0550 C   0  0  2  0  0  3  0  0  0  0  0  0
  1  6  1  0  0  0  0
  1 21  1  0  0  0  0
  3 17  2  0  0  0  0
  4 22  1  0  0  0  0
  5 27  1  6  0  0  0
  5 17  1  0  0  0  0
  5 24  1  0  0  0  0
  7  8  2  0  0  0  0
  8  2  2  0  0  0  0
 10  8  1  6  0  0  0
 11 15  2  0  0  0  0
 13  9  1  0  0  0  0
 13 26  1  0  0  0  0
 14  9  1  0  0  0  0
 14  8  1  0  0  0  0
 15 23  1  0  0  0  0
 16  1  2  0  0  0  0
 17 25  1  0  0  0  0
 18  9  2  0  0  0  0
 19 15  1  0  0  0  0
 20 16  1  0  0  0  0
 20  4  2  0  0  0  0
 22 21  2  0  0  0  0
 23  6  1  0  0  0  0
 24 26  1  0  0  0  0
 24 12  1  0  0  0  0
 25 12  1  0  0  0  0
 25 19  1  0  0  0  0
 26 10  1  0  0  0  0
 28 10  1  0  0  0  0
 28 12  1  0  0  0  0
 28 16  1  0  0  0  0
M  END
>  <MODEL>
4

>  <REMARK>
 VINA RESULT:      -5.6      7.573     10.252
  Name = 
  0 active torsions:
  status: ('A' for Active; 'I' for Inactive)
                            x       y       z     vdW  Elec       q    Type
                         _______ _______ _______ _____ _____    ______ ____

>  <TORSDO>
F 0

$$$$
=
 OpenBabel11122411503D

 28 32  0  0  1  0  0  0  0  0999 V2000
  187.7770  177.1580  142.7020 C   0  0  0  0  0  0  0  0  0  0  0  0
  186.2570  178.4510  138.5170 O   0  0  0  0  0  0  0  0  0  0  0  0
  193.2990  178.0490  140.2180 O   0  0  0  0  0  0  0  0  0  0  0  0
  186.1730  179.4170  142.2560 C   0  0  0  0  0  3  0  0  0  0  0  0
  191.7320  176.7530  138.9760 C   0  0  1  0  0  3  0  0  0  0  0  0
  188.6450  175.9840  143.0570 C   0  0  0  0  0  2  0  0  0  0  0  0
  188.5430  178.9860  137.7800 O   0  0  0  0  0  0  0  0  0  0  0  0
  187.5660  177.8780  138.0560 S   0  0  0  0  0  0  0  0  0  0  0  0
  188.1370  175.8310  136.4140 C   0  0  0  0  0  0  0  0  0  0  0  0
  188.1870  176.7790  139.2610 N   0  0  1  0  0  0  0  0  0  0  0  0
  190.5510  178.5900  144.1010 N   0  0  0  0  0  2  0  0  0  0  0  0
  190.0600  176.7460  140.7600 C   0  0  1  0  0  3  0  0  0  0  0  0
  189.4060  175.7120  137.1920 C   0  0  0  0  0  2  0  0  0  0  0  0
  187.2990  176.9570  136.6280 N   0  0  0  0  0  2  0  0  0  0  0  0
  190.6690  177.3980  143.6450 C   0  0  0  0  0  0  0  0  0  0  0  0
  187.8950  177.8780  141.4750 C   0  0  0  0  0  0  0  0  0  0  0  0
  192.1980  177.5230  140.1590 C   0  0  0  0  0  0  0  0  0  0  0  0
  187.9560  175.0750  135.3440 C   0  0  0  0  0  2  0  0  0  0  0  0
  191.6800  177.1110  142.5730 C   0  0  0  0  0  2  0  0  0  0  0  0
  187.0910  179.0100  141.2870 C   0  0  0  0  0  3  0  0  0  0  0  0
  186.8480  177.5760  143.6630 C   0  0  0  0  0  3  0  0  0  0  0  0
  186.0470  178.6960  143.4410 C   0  0  0  0  0  3  0  0  0  0  0  0
  189.7080  176.3370  144.1070 C   0  0  0  0  0  2  0  0  0  0  0  0
  190.5060  175.9970  139.5340 C   0  0  1  0  0  3  0  0  0  0  0  0
  191.1820  177.6450  141.2360 C   0  0  2  0  0  3  0  0  0  0  0  0
  189.2180  175.8580  138.7190 C   0  0  1  0  0  3  0  0  0  0  0  0
  191.4160  177.7480  137.8670 C   0  0  0  0  0  1  0  0  0  0  0  0
  188.8400  177.5330  140.3350 C   0  0  2  0  0  3  0  0  0  0  0  0
  1  6  1  0  0  0  0
  1 21  1  0  0  0  0
  4 22  1  0  0  0  0
  5 27  1  6  0  0  0
  5 24  1  0  0  0  0
  5 17  1  0  0  0  0
  6 23  1  0  0  0  0
  7  8  2  0  0  0  0
  8  2  2  0  0  0  0
  9 14  1  0  0  0  0
  9 13  1  0  0  0  0
 10  8  1  6  0  0  0
 10 28  1  0  0  0  0
 12 25  1  0  0  0  0
 13 26  1  0  0  0  0
 14  8  1  0  0  0  0
 15 11  2  0  0  0  0
 15 23  1  0  0  0  0
 16  1  2  0  0  0  0
 17  3  2  0  0  0  0
 17 25  1  0  0  0  0
 18  9  2  0  0  0  0
 19 15  1  0  0  0  0
 20 16  1  0  0  0  0
 20  4  2  0  0  0  0
 22 21  2  0  0  0  0
 24 12  1  0  0  0  0
 25 19  1  0  0  0  0
 26 10  1  0  0  0  0
 26 24  1  0  0  0  0
 28 12  1  0  0  0  0
 28 16  1  0  0  0  0
M  END
>  <MODEL>
5

>  <REMARK>
 VINA RESULT:      -5.3      3.910      6.739
  Name = 
  0 active torsions:
  status: ('A' for Active; 'I' for Inactive)
                            x       y       z     vdW  Elec       q    Type
                         _______ _______ _______ _____ _____    ______ ____

>  <TORSDO>
F 0

$$$$
=
 OpenBabel11122411503D

 28 32  0  0  1  0  0  0  0  0999 V2000
  188.7070  174.5530  135.6390 C   0  0  0  0  0  0  0  0  0  0  0  0
  184.2990  173.1840  136.0850 O   0  0  0  0  0  0  0  0  0  0  0  0
  187.1600  178.6280  139.9350 O   0  0  0  0  0  0  0  0  0  0  0  0
  187.9490  171.9820  136.4700 C   0  0  0  0  0  3  0  0  0  0  0  0
  185.7030  178.3980  138.0640 C   0  0  1  0  0  3  0  0  0  0  0  0
  189.2280  175.8980  135.2180 C   0  0  0  0  0  2  0  0  0  0  0  0
  183.9430  174.7270  137.9680 O   0  0  0  0  0  0  0  0  0  0  0  0
  184.0760  174.6180  136.4750 S   0  0  0  0  0  0  0  0  0  0  0  0
  182.5980  176.5610  135.3580 C   0  0  0  0  0  0  0  0  0  0  0  0
  185.3920  175.6020  135.8890 N   0  0  1  0  0  0  0  0  0  0  0  0
  190.5170  175.6100  138.3430 N   0  0  0  0  0  2  0  0  0  0  0  0
  187.1820  176.8530  136.8810 C   0  0  1  0  0  3  0  0  0  0  0  0
  183.5790  177.5030  135.9750 C   0  0  0  0  0  2  0  0  0  0  0  0
  182.6440  175.1860  135.7110 N   0  0  0  0  0  2  0  0  0  0  0  0
  190.1130  176.5030  137.5180 C   0  0  0  0  0  0  0  0  0  0  0  0
  187.5010  174.3770  136.3830 C   0  0  0  0  0  0  0  0  0  0  0  0
  186.9290  178.1110  138.8530 C   0  0  0  0  0  0  0  0  0  0  0  0
  181.5300  177.0440  134.7450 C   0  0  0  0  0  2  0  0  0  0  0  0
  189.2320  177.6170  138.0040 C   0  0  0  0  0  2  0  0  0  0  0  0
  187.1560  173.0830  136.7960 C   0  0  0  0  0  3  0  0  0  0  0  0
  189.4900  173.4380  135.3160 C   0  0  0  0  0  3  0  0  0  0  0  0
  189.1130  172.1590  135.7240 C   0  0  0  0  0  3  0  0  0  0  0  0
  190.4320  176.3500  136.0560 C   0  0  0  0  0  2  0  0  0  0  0  0
  186.0640  177.8380  136.6710 C   0  0  1  0  0  3  0  0  0  0  0  0
  187.8190  177.0950  138.2330 C   0  0  2  0  0  3  0  0  0  0  0  0
  185.0490  177.0470  135.8430 C   0  0  1  0  0  3  0  0  0  0  0  0
  184.5340  177.7000  138.7470 C   0  0  0  0  0  1  0  0  0  0  0  0
  186.5430  175.4850  136.7890 C   0  0  2  0  0  3  0  0  0  0  0  0
  1 16  1  0  0  0  0
  2  8  2  0  0  0  0
  4 20  1  0  0  0  0
  5 27  1  1  0  0  0
  5 17  1  0  0  0  0
  6  1  1  0  0  0  0
  6 23  1  0  0  0  0
  8  7  2  0  0  0  0
  9 14  1  0  0  0  0
  9 13  1  0  0  0  0
 10  8  1  1  0  0  0
 10 28  1  0  0  0  0
 12 25  1  0  0  0  0
 14  8  1  0  0  0  0
 15 19  1  0  0  0  0
 15 11  2  0  0  0  0
 16 28  1  0  0  0  0
 16 20  2  0  0  0  0
 17  3  2  0  0  0  0
 18  9  2  0  0  0  0
 19 25  1  0  0  0  0
 21  1  2  0  0  0  0
 21 22  1  0  0  0  0
 22  4  2  0  0  0  0
 23 15  1  0  0  0  0
 24 12  1  0  0  0  0
 24  5  1  0  0  0  0
 25 17  1  0  0  0  0
 26 10  1  0  0  0  0
 26 13  1  0  0  0  0
 26 24  1  0  0  0  0
 28 12  1  0  0  0  0
M  END
>  <MODEL>
6

>  <REMARK>
 VINA RESULT:      -5.3      3.866      7.880
  Name = 
  0 active torsions:
  status: ('A' for Active; 'I' for Inactive)
                            x       y       z     vdW  Elec       q    Type
                         _______ _______ _______ _____ _____    ______ ____

>  <TORSDO>
F 0

$$$$
=
 OpenBabel11122411503D

 28 32  0  0  1  0  0  0  0  0999 V2000
  185.4820  174.2280  137.2760 C   0  0  0  0  0  0  0  0  0  0  0  0
  184.8670  178.6980  138.3440 O   0  0  0  0  0  0  0  0  0  0  0  0
  179.5650  174.4860  135.7390 O   0  0  0  0  0  0  0  0  0  0  0  0
  186.8650  176.3320  136.0360 C   0  0  0  0  0  3  0  0  0  0  0  0
  180.1900  175.3870  137.8540 C   0  0  1  0  0  3  0  0  0  0  0  0
  184.7950  173.0270  137.8600 C   0  0  0  0  0  2  0  0  0  0  0  0
  182.5750  178.6630  137.4480 O   0  0  0  0  0  0  0  0  0  0  0  0
  183.4520  178.2620  138.6000 S   0  0  0  0  0  0  0  0  0  0  0  0
  181.9600  178.2740  140.8320 C   0  0  0  0  0  0  0  0  0  0  0  0
  183.4030  176.5370  138.8560 N   0  0  1  0  0  0  0  0  0  0  0  0
  183.9000  172.8120  134.5940 N   0  0  0  0  0  2  0  0  0  0  0  0
  182.5130  174.6460  137.6780 C   0  0  1  0  0  3  0  0  0  0  0  0
  181.2310  177.1280  140.2130 C   0  0  0  0  0  2  0  0  0  0  0  0
  182.8970  179.0010  140.0500 N   0  0  0  0  0  2  0  0  0  0  0  0
  183.4630  172.5150  135.7610 C   0  0  0  0  0  0  0  0  0  0  0  0
  184.8460  175.4960  137.1160 C   0  0  0  0  0  0  0  0  0  0  0  0
  180.4390  174.6860  136.5680 C   0  0  0  0  0  0  0  0  0  0  0  0
  181.5200  178.7870  141.9700 C   0  0  0  0  0  2  0  0  0  0  0  0
  182.0340  172.8100  136.1140 C   0  0  0  0  0  2  0  0  0  0  0  0
  185.5560  176.5230  136.4810 C   0  0  0  0  0  3  0  0  0  0  0  0
  186.7980  174.0530  136.8290 C   0  0  0  0  0  3  0  0  0  0  0  0
  187.4880  175.0990  136.2170 C   0  0  0  0  0  3  0  0  0  0  0  0
  184.4220  171.9880  136.7930 C   0  0  0  0  0  2  0  0  0  0  0  0
  181.4540  175.0430  138.6710 C   0  0  1  0  0  3  0  0  0  0  0  0
  181.8590  174.3050  136.3560 C   0  0  2  0  0  3  0  0  0  0  0  0
  182.1570  176.0950  139.5330 C   0  0  1  0  0  3  0  0  0  0  0  0
  180.0130  176.8700  137.5510 C   0  0  0  0  0  1  0  0  0  0  0  0
  183.4350  175.8400  137.5670 C   0  0  2  0  0  3  0  0  0  0  0  0
  1  6  1  0  0  0  0
  2  8  2  0  0  0  0
  3 17  2  0  0  0  0
  4 22  2  0  0  0  0
  4 20  1  0  0  0  0
  5 27  1  6  0  0  0
  5 24  1  0  0  0  0
  7  8  2  0  0  0  0
  8 14  1  0  0  0  0
  9 18  2  0  0  0  0
 10  8  1  6  0  0  0
 10 26  1  0  0  0  0
 11 15  2  0  0  0  0
 12 24  1  0  0  0  0
 13  9  1  0  0  0  0
 14  9  1  0  0  0  0
 15 19  1  0  0  0  0
 15 23  1  0  0  0  0
 16  1  1  0  0  0  0
 16 28  1  0  0  0  0
 17  5  1  0  0  0  0
 19 25  1  0  0  0  0
 20 16  2  0  0  0  0
 21  1  2  0  0  0  0
 22 21  1  0  0  0  0
 23  6  1  0  0  0  0
 24 26  1  0  0  0  0
 25 17  1  0  0  0  0
 25 12  1  0  0  0  0
 26 13  1  0  0  0  0
 28 12  1  0  0  0  0
 28 10  1  0  0  0  0
M  END
>  <MODEL>
7

>  <REMARK>
 VINA RESULT:      -5.2      6.384      9.713
  Name = 
  0 active torsions:
  status: ('A' for Active; 'I' for Inactive)
                            x       y       z     vdW  Elec       q    Type
                         _______ _______ _______ _____ _____    ______ ____

>  <TORSDO>
F 0

$$$$
=
 OpenBabel11122411503D

 28 32  0  0  1  0  0  0  0  0999 V2000
  182.9980  178.1280  137.4890 C   0  0  0  0  0  0  0  0  0  0  0  0
  187.4690  178.8860  138.4520 O   0  0  0  0  0  0  0  0  0  0  0  0
  184.6850  172.2460  137.5570 O   0  0  0  0  0  0  0  0  0  0  0  0
  183.8960  179.3880  139.8300 C   0  0  0  0  0  3  0  0  0  0  0  0
  186.0220  173.7580  136.2890 C   0  0  1  0  0  3  0  0  0  0  0  0
  182.4040  177.4570  136.2830 C   0  0  0  0  0  2  0  0  0  0  0  0
  187.8970  176.4730  138.6760 O   0  0  0  0  0  0  0  0  0  0  0  0
  187.6680  177.5980  137.7060 S   0  0  0  0  0  0  0  0  0  0  0  0
  189.0010  177.0350  135.4440 C   0  0  0  0  0  0  0  0  0  0  0  0
  186.2840  177.2810  136.6920 N   0  0  1  0  0  0  0  0  0  0  0  0
  181.3360  175.4360  138.7900 N   0  0  0  0  0  2  0  0  0  0  0  0
  184.5210  175.6550  136.6440 C   0  0  1  0  0  3  0  0  0  0  0  0
  188.0320  175.9100  135.2890 C   0  0  0  0  0  2  0  0  0  0  0  0
  189.0260  177.7630  136.6630 N   0  0  0  0  0  2  0  0  0  0  0  0
  181.6530  175.3910  137.5490 C   0  0  0  0  0  0  0  0  0  0  0  0
  184.2550  177.7580  138.0540 C   0  0  0  0  0  0  0  0  0  0  0  0
  184.8610  173.3800  137.1370 C   0  0  0  0  0  0  0  0  0  0  0  0
  190.0100  177.1470  134.5950 C   0  0  0  0  0  2  0  0  0  0  0  0
  182.5250  174.2760  137.0470 C   0  0  0  0  0  2  0  0  0  0  0  0
  184.6710  178.3940  139.2300 C   0  0  0  0  0  3  0  0  0  0  0  0
  182.2340  179.1300  138.1000 C   0  0  0  0  0  3  0  0  0  0  0  0
  182.6800  179.7610  139.2610 C   0  0  0  0  0  3  0  0  0  0  0  0
  181.2430  176.5200  136.6440 C   0  0  0  0  0  2  0  0  0  0  0  0
  185.5880  175.1280  135.7230 C   0  0  1  0  0  3  0  0  0  0  0  0
  183.9680  174.5170  137.4760 C   0  0  2  0  0  3  0  0  0  0  0  0
  186.5730  176.2950  135.6210 C   0  0  1  0  0  3  0  0  0  0  0  0
  187.2560  173.8000  137.1810 C   0  0  0  0  0  1  0  0  0  0  0  0
  185.2000  176.7060  137.4940 C   0  0  2  0  0  3  0  0  0  0  0  0
  1 16  2  0  0  0  0
  1 21  1  0  0  0  0
  5 17  1  0  0  0  0
  5 27  1  1  0  0  0
  6 23  1  0  0  0  0
  6  1  1  0  0  0  0
  8  2  2  0  0  0  0
  8  7  2  0  0  0  0
  9 14  1  0  0  0  0
 10 28  1  0  0  0  0
 10  8  1  1  0  0  0
 12 25  1  0  0  0  0
 12 28  1  0  0  0  0
 13  9  1  0  0  0  0
 13 26  1  0  0  0  0
 14  8  1  0  0  0  0
 15 11  2  0  0  0  0
 16 20  1  0  0  0  0
 17 25  1  0  0  0  0
 17  3  2  0  0  0  0
 18  9  2  0  0  0  0
 19 25  1  0  0  0  0
 19 15  1  0  0  0  0
 20  4  2  0  0  0  0
 21 22  2  0  0  0  0
 22  4  1  0  0  0  0
 23 15  1  0  0  0  0
 24  5  1  0  0  0  0
 24 12  1  0  0  0  0
 26 24  1  0  0  0  0
 26 10  1  0  0  0  0
 28 16  1  0  0  0  0
M  END
>  <MODEL>
8

>  <REMARK>
 VINA RESULT:      -5.2      4.566      6.312
  Name = 
  0 active torsions:
  status: ('A' for Active; 'I' for Inactive)
                            x       y       z     vdW  Elec       q    Type
                         _______ _______ _______ _____ _____    ______ ____

>  <TORSDO>
F 0

$$$$
=
 OpenBabel11122411503D

 28 32  0  0  1  0  0  0  0  0999 V2000
  187.6180  172.5590  136.6020 C   0  0  0  0  0  0  0  0  0  0  0  0
  192.0080  174.0230  136.3220 O   0  0  0  0  0  0  0  0  0  0  0  0
  186.3060  178.4350  135.5040 O   0  0  0  0  0  0  0  0  0  0  0  0
  189.4510  171.6340  134.6890 C   0  0  0  0  0  3  0  0  0  0  0  0
  187.9150  177.9670  137.1980 C   0  0  1  0  0  3  0  0  0  0  0  0
  186.5510  172.9890  137.5690 C   0  0  0  0  0  2  0  0  0  0  0  0
  191.2820  176.2770  135.6510 O   0  0  0  0  0  0  0  0  0  0  0  0
  191.4230  175.3210  136.8020 S   0  0  0  0  0  0  0  0  0  0  0  0
  191.8520  176.7530  139.0320 C   0  0  0  0  0  0  0  0  0  0  0  0
  189.8820  175.0280  137.5670 N   0  0  1  0  0  0  0  0  0  0  0  0
  185.1790  173.8720  134.5940 N   0  0  0  0  0  2  0  0  0  0  0  0
  187.5910  175.5470  137.0800 C   0  0  1  0  0  3  0  0  0  0  0  0
  190.4580  177.2530  138.8410 C   0  0  0  0  0  2  0  0  0  0  0  0
  192.4590  175.9890  138.0010 N   0  0  0  0  0  2  0  0  0  0  0  0
  185.1830  174.2260  135.8260 C   0  0  0  0  0  0  0  0  0  0  0  0
  188.6360  173.4340  136.1170 C   0  0  0  0  0  0  0  0  0  0  0  0
  186.9080  177.6040  136.1660 C   0  0  0  0  0  0  0  0  0  0  0  0
  192.6020  177.2680  139.9930 C   0  0  0  0  0  2  0  0  0  0  0  0
  185.3070  175.6800  136.1790 C   0  0  0  0  0  2  0  0  0  0  0  0
  189.5270  172.9490  135.1520 C   0  0  0  0  0  3  0  0  0  0  0  0
  187.5560  171.2420  136.1310 C   0  0  0  0  0  3  0  0  0  0  0  0
  188.4690  170.7790  135.1840 C   0  0  0  0  0  3  0  0  0  0  0  0
  185.1840  173.1670  136.8940 C   0  0  0  0  0  2  0  0  0  0  0  0
  188.0760  176.6470  137.9840 C   0  0  1  0  0  3  0  0  0  0  0  0
  186.7450  176.1400  135.9740 C   0  0  2  0  0  3  0  0  0  0  0  0
  189.4520  176.1520  138.4360 C   0  0  1  0  0  3  0  0  0  0  0  0
  189.1730  178.4360  136.4780 C   0  0  0  0  0  1  0  0  0  0  0  0
  188.8390  174.8780  136.5480 C   0  0  2  0  0  3  0  0  0  0  0  0
  1  6  1  0  0  0  0
  2  8  2  0  0  0  0
  3 17  2  0  0  0  0
  4 20  2  0  0  0  0
  4 22  1  0  0  0  0
  5 27  1  6  0  0  0
  5 24  1  0  0  0  0
  7  8  2  0  0  0  0
  8 14  1  0  0  0  0
  9 18  2  0  0  0  0
 10  8  1  6  0  0  0
 10 26  1  0  0  0  0
 11 15  2  0  0  0  0
 12 24  1  0  0  0  0
 13  9  1  0  0  0  0
 14  9  1  0  0  0  0
 15 19  1  0  0  0  0
 15 23  1  0  0  0  0
 16 28  1  0  0  0  0
 16  1  2  0  0  0  0
 17  5  1  0  0  0  0
 20 16  1  0  0  0  0
 21  1  1  0  0  0  0
 22 21  2  0  0  0  0
 23  6  1  0  0  0  0
 24 26  1  0  0  0  0
 25 17  1  0  0  0  0
 25 19  1  0  0  0  0
 25 12  1  0  0  0  0
 26 13  1  0  0  0  0
 28 12  1  0  0  0  0
 28 10  1  0  0  0  0
M  END
>  <MODEL>
9

>  <REMARK>
 VINA RESULT:      -5.2      2.805      5.285
  Name = 
  0 active torsions:
  status: ('A' for Active; 'I' for Inactive)
                            x       y       z     vdW  Elec       q    Type
                         _______ _______ _______ _____ _____    ______ ____

>  <TORSDO>
F 0

$$$$
