=
 OpenBabel11122411533D

 28 31  0  0  1  0  0  0  0  0999 V2000
  183.2960  176.0120  138.2090 C   0  0  0  0  0  0  0  0  0  0  0  0
  184.5050  177.3950  141.7260 O   0  0  0  0  0  0  0  0  0  0  0  0
  185.6690  176.6530  136.8680 C   0  0  0  0  0  3  0  0  0  0  0  0
  182.1110  175.7030  138.8750 O   0  0  0  0  0  0  0  0  0  0  0  0
  184.6920  179.7050  140.8990 O   0  0  0  0  0  0  0  0  0  0  0  0
  183.7450  178.6430  141.3840 S   0  0  0  0  0  0  0  0  0  0  0  0
  181.3460  178.9560  142.7090 C   0  0  0  0  0  0  0  0  0  0  0  0
  182.5140  178.2890  140.1580 C   0  0  1  0  0  3  0  0  0  0  0  0
  181.0000  175.1270  136.0020 C   0  0  0  0  0  1  0  0  0  0  0  0
  181.5830  178.8160  137.9990 C   0  0  2  0  0  3  0  0  0  0  0  0
  180.7140  178.9950  141.5770 N   0  0  0  0  0  0  0  0  0  0  0  0
  182.8370  179.2360  142.8170 C   0  0  0  0  0  2  0  0  0  0  0  0
  180.3530  175.3620  137.2870 N   0  0  0  0  0  0  0  0  0  0  0  0
  183.7280  177.3500  138.1470 C   0  0  0  0  0  0  0  0  0  0  0  0
  180.5920  178.6250  143.9490 C   0  0  0  0  0  1  0  0  0  0  0  0
  180.0370  176.7840  137.5280 C   0  0  0  0  0  2  0  0  0  0  0  0
  184.9120  177.6620  137.4710 C   0  0  0  0  0  3  0  0  0  0  0  0
  184.0530  175.0050  137.5920 C   0  0  0  0  0  3  0  0  0  0  0  0
  185.2380  175.3260  136.9270 C   0  0  0  0  0  3  0  0  0  0  0  0
  181.1600  174.7770  138.3630 C   0  0  0  0  0  2  0  0  0  0  0  0
  180.5640  179.1580  139.0970 C   0  0  1  0  0  3  0  0  0  0  0  0
  181.0750  177.7810  136.9700 C   0  0  1  0  0  3  0  0  0  0  0  0
  181.4120  179.2850  140.3480 C   0  0  2  0  0  3  0  0  0  0  0  0
  182.9130  178.4840  138.7150 C   0  0  2  0  0  3  0  0  0  0  0  0
  181.6110  178.6450  135.0030 C   0  0  0  0  0  1  0  0  0  0  0  0
  180.5340  178.4450  135.8670 O   0  0  0  0  0  0  0  0  0  0  0  0
  179.8800  180.4740  138.7710 C   0  0  0  0  0  2  0  0  0  0  0  0
  180.8970  181.5980  138.7110 C   0  0  0  0  0  1  0  0  0  0  0  0
  1  4  1  0  0  0  0
  3 19  2  0  0  0  0
  3 17  1  0  0  0  0
  5  6  2  0  0  0  0
  6  2  2  0  0  0  0
  6 12  1  0  0  0  0
  7 12  1  0  0  0  0
  7 15  1  0  0  0  0
  8 23  1  0  0  0  0
  8  6  1  1  0  0  0
  9 13  1  0  0  0  0
 10 24  1  0  0  0  0
 10 21  1  0  0  0  0
 11  7  2  0  0  0  0
 13 16  1  0  0  0  0
 13 20  1  0  0  0  0
 14  1  1  0  0  0  0
 14 24  1  0  0  0  0
 17 14  2  0  0  0  0
 18  1  2  0  0  0  0
 19 18  1  0  0  0  0
 20  4  1  0  0  0  0
 21 23  1  0  0  0  0
 22 16  1  0  0  0  0
 22 10  1  0  0  0  0
 23 11  1  0  0  0  0
 24  8  1  0  0  0  0
 25 26  1  0  0  0  0
 26 22  1  0  0  0  0
 27 21  1  0  0  0  0
 28 27  1  0  0  0  0
M  END
>  <MODEL>
1

>  <REMARK>
 VINA RESULT:      -4.5      0.000      0.000
  Name = 
  2 active torsions:
  status: ('A' for Active; 'I' for Inactive)
    1  A    between atoms: C_5  and  C_24
    2  A    between atoms: O_17  and  C_25
                            x       y       z     vdW  Elec       q    Type
                         _______ _______ _______ _____ _____    ______ ____

>  <TORSDO>
F 2

$$$$
=
 OpenBabel11122411533D

 28 31  0  0  1  0  0  0  0  0999 V2000
  187.0530  175.5750  136.7070 C   0  0  0  0  0  0  0  0  0  0  0  0
  189.3990  177.0300  139.5570 O   0  0  0  0  0  0  0  0  0  0  0  0
  188.6520  176.4790  134.5940 C   0  0  0  0  0  3  0  0  0  0  0  0
  186.2520  175.1360  137.7610 O   0  0  0  0  0  0  0  0  0  0  0  0
  189.0400  179.3580  138.8450 O   0  0  0  0  0  0  0  0  0  0  0  0
  188.4550  178.1970  139.6000 S   0  0  0  0  0  0  0  0  0  0  0  0
  186.7390  178.2400  141.7590 C   0  0  0  0  0  0  0  0  0  0  0  0
  186.8830  177.7320  138.9240 C   0  0  1  0  0  3  0  0  0  0  0  0
  184.1720  174.4860  135.5080 C   0  0  0  0  0  1  0  0  0  0  0  0
  185.1440  178.1880  137.3200 C   0  0  2  0  0  3  0  0  0  0  0  0
  185.7170  178.2280  140.9610 N   0  0  0  0  0  0  0  0  0  0  0  0
  188.1230  178.6730  141.3010 C   0  0  0  0  0  2  0  0  0  0  0  0
  184.0550  174.6340  136.9540 N   0  0  0  0  0  0  0  0  0  0  0  0
  187.3020  176.9520  136.5540 C   0  0  0  0  0  0  0  0  0  0  0  0
  186.5580  177.8160  143.1740 C   0  0  0  0  0  1  0  0  0  0  0  0
  183.7280  176.0120  137.3720 C   0  0  0  0  0  2  0  0  0  0  0  0
  188.0990  177.3950  135.4930 C   0  0  0  0  0  3  0  0  0  0  0  0
  187.6000  174.6620  135.7950 C   0  0  0  0  0  3  0  0  0  0  0  0
  188.3990  175.1140  134.7430 C   0  0  0  0  0  3  0  0  0  0  0  0
  185.2660  174.1220  137.6050 C   0  0  0  0  0  2  0  0  0  0  0  0
  184.6040  178.4070  138.7410 C   0  0  1  0  0  3  0  0  0  0  0  0
  184.3740  177.1190  136.5120 C   0  0  1  0  0  3  0  0  0  0  0  0
  185.8550  178.6050  139.5750 C   0  0  2  0  0  3  0  0  0  0  0  0
  186.6720  177.9870  137.4510 C   0  0  2  0  0  3  0  0  0  0  0  0
  182.1800  177.3510  136.3160 C   0  0  0  0  0  1  0  0  0  0  0  0
  183.3900  177.7380  135.7380 O   0  0  0  0  0  0  0  0  0  0  0  0
  183.7300  179.6490  138.7730 C   0  0  0  0  0  2  0  0  0  0  0  0
  182.3820  179.3320  139.3910 C   0  0  0  0  0  1  0  0  0  0  0  0
  1  4  1  0  0  0  0
  2  6  2  0  0  0  0
  3 19  2  0  0  0  0
  3 17  1  0  0  0  0
  5  6  2  0  0  0  0
  6 12  1  0  0  0  0
  7 15  1  0  0  0  0
  8 23  1  0  0  0  0
  8  6  1  1  0  0  0
  9 13  1  0  0  0  0
 10 24  1  0  0  0  0
 10 21  1  0  0  0  0
 11  7  2  0  0  0  0
 12  7  1  0  0  0  0
 13 16  1  0  0  0  0
 13 20  1  0  0  0  0
 14  1  1  0  0  0  0
 14 24  1  0  0  0  0
 17 14  2  0  0  0  0
 18  1  2  0  0  0  0
 19 18  1  0  0  0  0
 20  4  1  0  0  0  0
 21 27  1  0  0  0  0
 21 23  1  0  0  0  0
 22 10  1  0  0  0  0
 22 16  1  0  0  0  0
 23 11  1  0  0  0  0
 24  8  1  0  0  0  0
 26 25  1  0  0  0  0
 26 22  1  0  0  0  0
 27 28  1  0  0  0  0
M  END
>  <MODEL>
2

>  <REMARK>
 VINA RESULT:      -4.4      3.196      4.242
  Name = 
  2 active torsions:
  status: ('A' for Active; 'I' for Inactive)
    1  A    between atoms: C_5  and  C_24
    2  A    between atoms: O_17  and  C_25
                            x       y       z     vdW  Elec       q    Type
                         _______ _______ _______ _____ _____    ______ ____

>  <TORSDO>
F 2

$$$$
=
 OpenBabel11122411533D

 28 31  0  0  1  0  0  0  0  0999 V2000
  180.9730  178.4230  138.2460 C   0  0  0  0  0  0  0  0  0  0  0  0
  184.4950  180.0360  139.1060 O   0  0  0  0  0  0  0  0  0  0  0  0
  179.9560  178.6660  140.8440 C   0  0  0  0  0  3  0  0  0  0  0  0
  181.4850  178.2920  136.9560 O   0  0  0  0  0  0  0  0  0  0  0  0
  185.0840  178.2330  140.6730 O   0  0  0  0  0  0  0  0  0  0  0  0
  184.9990  178.6260  139.2250 S   0  0  0  0  0  0  0  0  0  0  0  0
  186.5390  177.7490  137.1120 C   0  0  0  0  0  0  0  0  0  0  0  0
  183.9360  177.5230  138.3320 C   0  0  1  0  0  3  0  0  0  0  0  0
  178.9320  176.5490  136.4450 C   0  0  0  0  0  1  0  0  0  0  0  0
  182.5640  175.5430  138.3740 C   0  0  2  0  0  3  0  0  0  0  0  0
  185.7040  176.7810  136.8920 N   0  0  0  0  0  0  0  0  0  0  0  0
  186.6120  178.4700  138.4490 C   0  0  0  0  0  2  0  0  0  0  0  0
  180.1930  176.6940  135.7290 N   0  0  0  0  0  0  0  0  0  0  0  0
  181.6190  177.7760  139.3170 C   0  0  0  0  0  0  0  0  0  0  0  0
  187.4600  178.1730  136.0230 C   0  0  0  0  0  1  0  0  0  0  0  0
  181.2210  175.7260  136.1600 C   0  0  0  0  0  2  0  0  0  0  0  0
  181.1010  177.9000  140.6100 C   0  0  0  0  0  3  0  0  0  0  0  0
  179.8170  179.1800  138.4840 C   0  0  0  0  0  3  0  0  0  0  0  0
  179.3120  179.3020  139.7800 C   0  0  0  0  0  3  0  0  0  0  0  0
  180.6570  178.0830  135.8180 C   0  0  0  0  0  2  0  0  0  0  0  0
  183.7750  175.3120  137.4570 C   0  0  1  0  0  3  0  0  0  0  0  0
  181.2000  175.3880  137.6660 C   0  0  1  0  0  3  0  0  0  0  0  0
  184.7750  176.3570  137.9110 C   0  0  2  0  0  3  0  0  0  0  0  0
  182.8140  176.8800  139.1110 C   0  0  2  0  0  3  0  0  0  0  0  0
  180.0150  174.1190  139.0420 C   0  0  0  0  0  1  0  0  0  0  0  0
  180.7270  174.0850  137.8420 O   0  0  0  0  0  0  0  0  0  0  0  0
  184.3210  173.9110  137.6710 C   0  0  0  0  0  2  0  0  0  0  0  0
  183.8870  172.9950  136.5420 C   0  0  0  0  0  1  0  0  0  0  0  0
  1 18  2  0  0  0  0
  1 14  1  0  0  0  0
  2  6  2  0  0  0  0
  4  1  1  0  0  0  0
  6  5  2  0  0  0  0
  7 12  1  0  0  0  0
  8 24  1  0  0  0  0
  8  6  1  1  0  0  0
 10 24  1  0  0  0  0
 11  7  2  0  0  0  0
 11 23  1  0  0  0  0
 12  6  1  0  0  0  0
 13 20  1  0  0  0  0
 13 16  1  0  0  0  0
 13  9  1  0  0  0  0
 14 17  2  0  0  0  0
 15  7  1  0  0  0  0
 16 22  1  0  0  0  0
 17  3  1  0  0  0  0
 18 19  1  0  0  0  0
 19  3  2  0  0  0  0
 20  4  1  0  0  0  0
 21 27  1  0  0  0  0
 21 23  1  0  0  0  0
 21 10  1  0  0  0  0
 22 26  1  0  0  0  0
 22 10  1  0  0  0  0
 23  8  1  0  0  0  0
 24 14  1  0  0  0  0
 26 25  1  0  0  0  0
 28 27  1  0  0  0  0
M  END
>  <MODEL>
3

>  <REMARK>
 VINA RESULT:      -4.4      2.055      5.363
  Name = 
  2 active torsions:
  status: ('A' for Active; 'I' for Inactive)
    1  A    between atoms: C_5  and  C_24
    2  A    between atoms: O_17  and  C_25
                            x       y       z     vdW  Elec       q    Type
                         _______ _______ _______ _____ _____    ______ ____

>  <TORSDO>
F 2

$$$$
=
 OpenBabel11122411533D

 28 31  0  0  1  0  0  0  0  0999 V2000
  182.5020  178.3600  136.8450 C   0  0  0  0  0  0  0  0  0  0  0  0
  186.3430  179.3520  136.9220 O   0  0  0  0  0  0  0  0  0  0  0  0
  181.8610  179.6950  139.2210 C   0  0  0  0  0  3  0  0  0  0  0  0
  182.8260  177.6870  135.6680 O   0  0  0  0  0  0  0  0  0  0  0  0
  186.7560  178.1120  139.0070 O   0  0  0  0  0  0  0  0  0  0  0  0
  186.5790  177.9940  137.5190 S   0  0  0  0  0  0  0  0  0  0  0  0
  187.6650  176.1300  135.8010 C   0  0  0  0  0  0  0  0  0  0  0  0
  185.2270  176.9150  137.1260 C   0  0  1  0  0  3  0  0  0  0  0  0
  179.9440  176.4820  135.9230 C   0  0  0  0  0  1  0  0  0  0  0  0
  183.5170  175.4230  137.9330 C   0  0  2  0  0  3  0  0  0  0  0  0
  186.6410  175.3550  135.9770 N   0  0  0  0  0  0  0  0  0  0  0  0
  188.0300  177.2310  136.7850 C   0  0  0  0  0  2  0  0  0  0  0  0
  181.1170  176.0920  135.1510 N   0  0  0  0  0  0  0  0  0  0  0  0
  183.1330  177.9940  138.0490 C   0  0  0  0  0  0  0  0  0  0  0  0
  188.5170  175.9420  134.5940 C   0  0  0  0  0  1  0  0  0  0  0  0
  181.9840  175.1290  135.8580 C   0  0  0  0  0  2  0  0  0  0  0  0
  182.8030  178.6640  139.2320 C   0  0  0  0  0  3  0  0  0  0  0  0
  181.5480  179.3880  136.8420 C   0  0  0  0  0  3  0  0  0  0  0  0
  181.2310  180.0550  138.0270 C   0  0  0  0  0  3  0  0  0  0  0  0
  181.8460  177.2890  134.7160 C   0  0  0  0  0  2  0  0  0  0  0  0
  184.5450  174.6310  137.1110 C   0  0  1  0  0  3  0  0  0  0  0  0
  182.0740  175.3400  137.3850 C   0  0  1  0  0  3  0  0  0  0  0  0
  185.7730  175.5210  137.1180 C   0  0  2  0  0  3  0  0  0  0  0  0
  184.1020  176.8410  138.1290 C   0  0  2  0  0  3  0  0  0  0  0  0
  180.7850  174.9270  139.1370 C   0  0  0  0  0  1  0  0  0  0  0  0
  181.3860  174.3150  138.0360 O   0  0  0  0  0  0  0  0  0  0  0  0
  184.8350  173.3040  137.7910 C   0  0  0  0  0  2  0  0  0  0  0  0
  184.1060  172.1770  137.0840 C   0  0  0  0  0  1  0  0  0  0  0  0
  1 14  1  0  0  0  0
  2  6  2  0  0  0  0
  3 17  1  0  0  0  0
  4  1  1  0  0  0  0
  6  5  2  0  0  0  0
  7 11  2  0  0  0  0
  7 12  1  0  0  0  0
  8  6  1  1  0  0  0
  8 24  1  0  0  0  0
 10 24  1  0  0  0  0
 11 23  1  0  0  0  0
 12  6  1  0  0  0  0
 13 16  1  0  0  0  0
 13  9  1  0  0  0  0
 14 24  1  0  0  0  0
 14 17  2  0  0  0  0
 15  7  1  0  0  0  0
 16 22  1  0  0  0  0
 18  1  2  0  0  0  0
 18 19  1  0  0  0  0
 19  3  2  0  0  0  0
 20 13  1  0  0  0  0
 20  4  1  0  0  0  0
 21 23  1  0  0  0  0
 21 27  1  0  0  0  0
 21 10  1  0  0  0  0
 22 10  1  0  0  0  0
 22 26  1  0  0  0  0
 23  8  1  0  0  0  0
 26 25  1  0  0  0  0
 28 27  1  0  0  0  0
M  END
>  <MODEL>
4

>  <REMARK>
 VINA RESULT:      -4.2      2.581      5.950
  Name = 
  2 active torsions:
  status: ('A' for Active; 'I' for Inactive)
    1  A    between atoms: C_5  and  C_24
    2  A    between atoms: O_17  and  C_25
                            x       y       z     vdW  Elec       q    Type
                         _______ _______ _______ _____ _____    ______ ____

>  <TORSDO>
F 2

$$$$
=
 OpenBabel11122411533D

 28 31  0  0  1  0  0  0  0  0999 V2000
  182.0340  178.8070  138.6480 C   0  0  0  0  0  0  0  0  0  0  0  0
  182.9990  175.7660  136.2880 O   0  0  0  0  0  0  0  0  0  0  0  0
  184.5720  179.0230  139.8120 C   0  0  0  0  0  3  0  0  0  0  0  0
  180.7680  178.6900  138.0750 O   0  0  0  0  0  0  0  0  0  0  0  0
  183.4520  174.2670  138.1860 O   0  0  0  0  0  0  0  0  0  0  0  0
  182.3790  174.8870  137.3350 S   0  0  0  0  0  0  0  0  0  0  0  0
  179.8940  173.8740  136.6950 C   0  0  0  0  0  0  0  0  0  0  0  0
  181.2500  175.8270  138.3280 C   0  0  1  0  0  3  0  0  0  0  0  0
  179.9030  180.7050  140.3140 C   0  0  0  0  0  1  0  0  0  0  0  0
  180.5810  176.5310  140.5330 C   0  0  2  0  0  3  0  0  0  0  0  0
  179.3820  174.4410  137.7430 N   0  0  0  0  0  0  0  0  0  0  0  0
  181.3850  173.6020  136.5660 C   0  0  0  0  0  2  0  0  0  0  0  0
  179.1540  179.8060  139.4450 N   0  0  0  0  0  0  0  0  0  0  0  0
  182.5760  177.7190  139.3580 C   0  0  0  0  0  0  0  0  0  0  0  0
  178.9980  173.4740  135.5760 C   0  0  0  0  0  1  0  0  0  0  0  0
  178.9310  178.4740  140.0410 C   0  0  0  0  0  2  0  0  0  0  0  0
  183.8430  177.8380  139.9400 C   0  0  0  0  0  3  0  0  0  0  0  0
  182.7650  179.9980  138.5330 C   0  0  0  0  0  3  0  0  0  0  0  0
  184.0310  180.1040  139.1110 C   0  0  0  0  0  3  0  0  0  0  0  0
  179.8010  179.7320  138.1310 C   0  0  0  0  0  2  0  0  0  0  0  0
  179.4900  175.6370  139.9240 C   0  0  1  0  0  3  0  0  0  0  0  0
  180.0950  177.9500  140.9070 C   0  0  1  0  0  3  0  0  0  0  0  0
  180.2180  174.8690  138.8380 C   0  0  2  0  0  3  0  0  0  0  0  0
  181.8030  176.4450  139.5890 C   0  0  2  0  0  3  0  0  0  0  0  0
  180.7800  178.6030  142.9100 C   0  0  0  0  0  1  0  0  0  0  0  0
  179.7210  177.9750  142.2520 O   0  0  0  0  0  0  0  0  0  0  0  0
  178.9500  174.6920  140.9840 C   0  0  0  0  0  2  0  0  0  0  0  0
  179.9380  173.5730  141.2500 C   0  0  0  0  0  1  0  0  0  0  0  0
  1 14  1  0  0  0  0
  2  6  2  0  0  0  0
  3 17  1  0  0  0  0
  4 20  1  0  0  0  0
  4  1  1  0  0  0  0
  6  5  2  0  0  0  0
  7 11  2  0  0  0  0
  8  6  1  1  0  0  0
  8 23  1  0  0  0  0
  8 24  1  0  0  0  0
 10 22  1  0  0  0  0
 11 23  1  0  0  0  0
 12  7  1  0  0  0  0
 12  6  1  0  0  0  0
 13 16  1  0  0  0  0
 13  9  1  0  0  0  0
 14 24  1  0  0  0  0
 14 17  2  0  0  0  0
 15  7  1  0  0  0  0
 16 22  1  0  0  0  0
 18  1  2  0  0  0  0
 18 19  1  0  0  0  0
 19  3  2  0  0  0  0
 20 13  1  0  0  0  0
 21 10  1  0  0  0  0
 21 27  1  0  0  0  0
 22 26  1  0  0  0  0
 23 21  1  0  0  0  0
 24 10  1  0  0  0  0
 26 25  1  0  0  0  0
 27 28  1  0  0  0  0
M  END
>  <MODEL>
5

>  <REMARK>
 VINA RESULT:      -4.1      2.664      5.654
  Name = 
  2 active torsions:
  status: ('A' for Active; 'I' for Inactive)
    1  A    between atoms: C_5  and  C_24
    2  A    between atoms: O_17  and  C_25
                            x       y       z     vdW  Elec       q    Type
                         _______ _______ _______ _____ _____    ______ ____

>  <TORSDO>
F 2

$$$$
=
 OpenBabel11122411533D

 28 31  0  0  1  0  0  0  0  0999 V2000
  180.4240  175.6920  137.4820 C   0  0  0  0  0  0  0  0  0  0  0  0
  178.9320  178.8100  139.4310 O   0  0  0  0  0  0  0  0  0  0  0  0
  179.6570  173.8130  139.4110 C   0  0  0  0  0  3  0  0  0  0  0  0
  180.8150  176.6310  136.5280 O   0  0  0  0  0  0  0  0  0  0  0  0
  180.4670  178.5210  141.3320 O   0  0  0  0  0  0  0  0  0  0  0  0
  180.3300  179.0410  139.9290 S   0  0  0  0  0  0  0  0  0  0  0  0
  181.6710  181.1330  138.7320 C   0  0  0  0  0  0  0  0  0  0  0  0
  181.4970  178.2570  138.8480 C   0  0  1  0  0  3  0  0  0  0  0  0
  182.4400  174.2520  135.2950 C   0  0  0  0  0  1  0  0  0  0  0  0
  183.3390  176.7220  138.6140 C   0  0  2  0  0  3  0  0  0  0  0  0
  182.6020  180.3230  138.3350 N   0  0  0  0  0  0  0  0  0  0  0  0
  180.7320  180.7920  139.8790 C   0  0  0  0  0  2  0  0  0  0  0  0
  182.5110  175.6980  135.1200 N   0  0  0  0  0  0  0  0  0  0  0  0
  180.9150  175.7960  138.7970 C   0  0  0  0  0  0  0  0  0  0  0  0
  181.5100  182.4440  138.0460 C   0  0  0  0  0  1  0  0  0  0  0  0
  183.4560  176.3490  136.0480 C   0  0  0  0  0  2  0  0  0  0  0  0
  180.5300  174.8490  139.7530 C   0  0  0  0  0  3  0  0  0  0  0  0
  179.5580  174.6430  137.1410 C   0  0  0  0  0  3  0  0  0  0  0  0
  179.1750  173.7080  138.1040 C   0  0  0  0  0  3  0  0  0  0  0  0
  181.1630  176.2730  135.1960 C   0  0  0  0  0  2  0  0  0  0  0  0
  183.8120  178.1470  138.2880 C   0  0  1  0  0  3  0  0  0  0  0  0
  183.5220  175.7170  137.4540 C   0  0  1  0  0  3  0  0  0  0  0  0
  182.7750  179.0310  138.9540 C   0  0  2  0  0  3  0  0  0  0  0  0
  181.9140  176.8500  139.2010 C   0  0  2  0  0  3  0  0  0  0  0  0
  185.5600  175.5590  136.6010 C   0  0  0  0  0  1  0  0  0  0  0  0
  184.7370  175.0460  137.6050 O   0  0  0  0  0  0  0  0  0  0  0  0
  185.1880  178.3820  138.8870 C   0  0  0  0  0  2  0  0  0  0  0  0
  185.0670  178.8260  140.3330 C   0  0  0  0  0  1  0  0  0  0  0  0
  1 14  1  0  0  0  0
  2  6  2  0  0  0  0
  3 17  1  0  0  0  0
  4  1  1  0  0  0  0
  6  5  2  0  0  0  0
  7 12  1  0  0  0  0
  8 23  1  0  0  0  0
  8 24  1  0  0  0  0
  8  6  1  1  0  0  0
 10 24  1  0  0  0  0
 11  7  2  0  0  0  0
 11 23  1  0  0  0  0
 12  6  1  0  0  0  0
 13 20  1  0  0  0  0
 13  9  1  0  0  0  0
 13 16  1  0  0  0  0
 14 24  1  0  0  0  0
 14 17  2  0  0  0  0
 15  7  1  0  0  0  0
 16 22  1  0  0  0  0
 18  1  2  0  0  0  0
 18 19  1  0  0  0  0
 19  3  2  0  0  0  0
 20  4  1  0  0  0  0
 21 10  1  0  0  0  0
 21 27  1  0  0  0  0
 21 23  1  0  0  0  0
 22 26  1  0  0  0  0
 22 10  1  0  0  0  0
 25 26  1  0  0  0  0
 27 28  1  0  0  0  0
M  END
>  <MODEL>
6

>  <REMARK>
 VINA RESULT:      -4.0      2.419      4.417
  Name = 
  2 active torsions:
  status: ('A' for Active; 'I' for Inactive)
    1  A    between atoms: C_5  and  C_24
    2  A    between atoms: O_17  and  C_25
                            x       y       z     vdW  Elec       q    Type
                         _______ _______ _______ _____ _____    ______ ____

>  <TORSDO>
F 2

$$$$
=
 OpenBabel11122411533D

 28 31  0  0  1  0  0  0  0  0999 V2000
  180.6800  179.3960  139.3890 C   0  0  0  0  0  0  0  0  0  0  0  0
  179.6290  177.8170  135.9030 O   0  0  0  0  0  0  0  0  0  0  0  0
  180.2150  182.0440  138.6050 C   0  0  0  0  0  3  0  0  0  0  0  0
  180.9210  178.0780  139.7740 O   0  0  0  0  0  0  0  0  0  0  0  0
  181.4640  178.9290  134.6990 O   0  0  0  0  0  0  0  0  0  0  0  0
  181.0970  177.7770  135.5930 S   0  0  0  0  0  0  0  0  0  0  0  0
  182.2600  175.2810  135.7440 C   0  0  0  0  0  0  0  0  0  0  0  0
  182.0380  177.8190  137.0950 C   0  0  1  0  0  3  0  0  0  0  0  0
  182.2470  179.3780  142.2990 C   0  0  0  0  0  1  0  0  0  0  0  0
  183.7730  178.8890  138.3790 C   0  0  2  0  0  3  0  0  0  0  0  0
  183.0870  175.7090  136.6460 N   0  0  0  0  0  0  0  0  0  0  0  0
  181.5270  176.2230  134.8000 C   0  0  0  0  0  2  0  0  0  0  0  0
  182.3220  178.0440  141.7150 N   0  0  0  0  0  0  0  0  0  0  0  0
  181.3950  179.9440  138.3070 C   0  0  0  0  0  0  0  0  0  0  0  0
  182.0140  173.8180  135.6220 C   0  0  0  0  0  1  0  0  0  0  0  0
  183.4300  177.8930  140.7520 C   0  0  0  0  0  2  0  0  0  0  0  0
  181.1590  181.2690  137.9250 C   0  0  0  0  0  3  0  0  0  0  0  0
  179.7420  180.1820  140.0750 C   0  0  0  0  0  3  0  0  0  0  0  0
  179.5100  181.5010  139.6810 C   0  0  0  0  0  3  0  0  0  0  0  0
  181.0230  177.6820  141.1370 C   0  0  0  0  0  2  0  0  0  0  0  0
  184.2160  177.4680  137.9990 C   0  0  1  0  0  3  0  0  0  0  0  0
  183.7250  179.1470  139.9020 C   0  0  1  0  0  3  0  0  0  0  0  0
  183.3330  177.1210  136.8160 C   0  0  2  0  0  3  0  0  0  0  0  0
  182.4750  179.1770  137.5880 C   0  0  2  0  0  3  0  0  0  0  0  0
  185.5520  178.7280  141.0820 C   0  0  0  0  0  1  0  0  0  0  0  0
  184.9300  179.7160  140.3170 O   0  0  0  0  0  0  0  0  0  0  0  0
  185.6800  177.4770  137.5970 C   0  0  0  0  0  2  0  0  0  0  0  0
  185.8150  177.5030  136.0860 C   0  0  0  0  0  1  0  0  0  0  0  0
  1  4  1  0  0  0  0
  1 18  1  0  0  0  0
  3 19  1  0  0  0  0
  4 20  1  0  0  0  0
  5  6  2  0  0  0  0
  6  2  2  0  0  0  0
  7 11  2  0  0  0  0
  8  6  1  6  0  0  0
  8 24  1  0  0  0  0
 10 22  1  0  0  0  0
 11 23  1  0  0  0  0
 12  6  1  0  0  0  0
 12  7  1  0  0  0  0
 13  9  1  0  0  0  0
 14  1  2  0  0  0  0
 15  7  1  0  0  0  0
 16 13  1  0  0  0  0
 17 14  1  0  0  0  0
 17  3  2  0  0  0  0
 19 18  2  0  0  0  0
 20 13  1  0  0  0  0
 21 10  1  0  0  0  0
 22 26  1  0  0  0  0
 22 16  1  0  0  0  0
 23  8  1  0  0  0  0
 23 21  1  0  0  0  0
 24 14  1  0  0  0  0
 24 10  1  0  0  0  0
 26 25  1  0  0  0  0
 27 21  1  0  0  0  0
 28 27  1  0  0  0  0
M  END
>  <MODEL>
7

>  <REMARK>
 VINA RESULT:      -3.9      2.093      6.175
  Name = 
  2 active torsions:
  status: ('A' for Active; 'I' for Inactive)
    1  A    between atoms: C_5  and  C_24
    2  A    between atoms: O_17  and  C_25
                            x       y       z     vdW  Elec       q    Type
                         _______ _______ _______ _____ _____    ______ ____

>  <TORSDO>
F 2

$$$$
=
 OpenBabel11122411533D

 28 31  0  0  1  0  0  0  0  0999 V2000
  180.4920  178.1180  140.7380 C   0  0  0  0  0  0  0  0  0  0  0  0
  180.1510  181.7830  139.2570 O   0  0  0  0  0  0  0  0  0  0  0  0
  182.1880  178.8630  142.8380 C   0  0  0  0  0  3  0  0  0  0  0  0
  179.6560  177.7470  139.6850 O   0  0  0  0  0  0  0  0  0  0  0  0
  182.5470  181.9270  138.7150 O   0  0  0  0  0  0  0  0  0  0  0  0
  181.2170  181.3790  138.2800 S   0  0  0  0  0  0  0  0  0  0  0  0
  180.3270  180.8610  135.7210 C   0  0  0  0  0  0  0  0  0  0  0  0
  181.2770  179.6120  138.1410 C   0  0  1  0  0  3  0  0  0  0  0  0
  180.3760  174.8210  140.5450 C   0  0  0  0  0  1  0  0  0  0  0  0
  182.6060  177.6070  138.2660 C   0  0  2  0  0  3  0  0  0  0  0  0
  180.7950  179.6540  135.7910 N   0  0  0  0  0  0  0  0  0  0  0  0
  180.8160  181.9760  136.6330 C   0  0  0  0  0  2  0  0  0  0  0  0
  179.8000  175.3840  139.3300 N   0  0  0  0  0  0  0  0  0  0  0  0
  181.7390  178.7080  140.4580 C   0  0  0  0  0  0  0  0  0  0  0  0
  179.2760  181.1730  134.7150 C   0  0  0  0  0  1  0  0  0  0  0  0
  180.8120  175.7300  138.3130 C   0  0  0  0  0  2  0  0  0  0  0  0
  182.5810  179.0730  141.5140 C   0  0  0  0  0  3  0  0  0  0  0  0
  180.1070  177.8980  142.0680 C   0  0  0  0  0  3  0  0  0  0  0  0
  180.9530  178.2720  143.1150 C   0  0  0  0  0  3  0  0  0  0  0  0
  178.9360  176.5200  139.6720 C   0  0  0  0  0  2  0  0  0  0  0  0
  182.1370  177.8250  136.8190 C   0  0  1  0  0  3  0  0  0  0  0  0
  182.1430  176.2670  138.8810 C   0  0  1  0  0  3  0  0  0  0  0  0
  181.7950  179.3020  136.7710 C   0  0  2  0  0  3  0  0  0  0  0  0
  182.2430  178.8900  139.0490 C   0  0  2  0  0  3  0  0  0  0  0  0
  182.6850  174.4910  137.6740 C   0  0  0  0  0  1  0  0  0  0  0  0
  183.1410  175.3060  138.7120 O   0  0  0  0  0  0  0  0  0  0  0  0
  183.2680  177.5010  135.8580 C   0  0  0  0  0  2  0  0  0  0  0  0
  184.6000  177.5110  136.5840 C   0  0  0  0  0  1  0  0  0  0  0  0
  1 18  1  0  0  0  0
  3 19  1  0  0  0  0
  4  1  1  0  0  0  0
  6  5  2  0  0  0  0
  6  2  2  0  0  0  0
  7 11  2  0  0  0  0
  7 12  1  0  0  0  0
  8  6  1  1  0  0  0
  8 24  1  0  0  0  0
 10 22  1  0  0  0  0
 10 24  1  0  0  0  0
 11 23  1  0  0  0  0
 12  6  1  0  0  0  0
 13 20  1  0  0  0  0
 13  9  1  0  0  0  0
 14  1  2  0  0  0  0
 14 17  1  0  0  0  0
 15  7  1  0  0  0  0
 16 22  1  0  0  0  0
 16 13  1  0  0  0  0
 17  3  2  0  0  0  0
 18 19  2  0  0  0  0
 20  4  1  0  0  0  0
 21 10  1  0  0  0  0
 23 21  1  0  0  0  0
 23  8  1  0  0  0  0
 24 14  1  0  0  0  0
 25 26  1  0  0  0  0
 26 22  1  0  0  0  0
 27 28  1  0  0  0  0
 27 21  1  0  0  0  0
M  END
>  <MODEL>
8

>  <REMARK>
 VINA RESULT:      -3.9      2.375      5.110
  Name = 
  2 active torsions:
  status: ('A' for Active; 'I' for Inactive)
    1  A    between atoms: C_5  and  C_24
    2  A    between atoms: O_17  and  C_25
                            x       y       z     vdW  Elec       q    Type
                         _______ _______ _______ _____ _____    ______ ____

>  <TORSDO>
F 2

$$$$
=
 OpenBabel11122411533D

 28 31  0  0  1  0  0  0  0  0999 V2000
  184.9070  176.4270  137.2340 C   0  0  0  0  0  0  0  0  0  0  0  0
  181.9690  176.8010  134.5940 O   0  0  0  0  0  0  0  0  0  0  0  0
  184.5580  173.6730  137.5960 C   0  0  0  0  0  3  0  0  0  0  0  0
  185.0720  177.8010  137.0620 O   0  0  0  0  0  0  0  0  0  0  0  0
  180.2470  176.1300  136.2190 O   0  0  0  0  0  0  0  0  0  0  0  0
  181.1240  177.2570  135.7480 S   0  0  0  0  0  0  0  0  0  0  0  0
  180.6360  179.9700  135.8440 C   0  0  0  0  0  0  0  0  0  0  0  0
  182.1580  177.8450  137.0630 C   0  0  1  0  0  3  0  0  0  0  0  0
  186.9980  177.5730  139.5230 C   0  0  0  0  0  1  0  0  0  0  0  0
  182.7680  177.7020  139.3890 C   0  0  2  0  0  3  0  0  0  0  0  0
  181.1880  180.0390  137.0150 N   0  0  0  0  0  0  0  0  0  0  0  0
  180.1140  178.6630  135.2670 C   0  0  0  0  0  2  0  0  0  0  0  0
  186.3310  178.7020  138.8870 N   0  0  0  0  0  0  0  0  0  0  0  0
  183.6800  175.9320  137.7140 C   0  0  0  0  0  0  0  0  0  0  0  0
  180.5060  181.2100  135.0310 C   0  0  0  0  0  1  0  0  0  0  0  0
  185.0120  179.0050  139.4770 C   0  0  0  0  0  2  0  0  0  0  0  0
  183.5160  174.5540  137.8960 C   0  0  0  0  0  3  0  0  0  0  0  0
  185.9530  175.5390  136.9470 C   0  0  0  0  0  3  0  0  0  0  0  0
  185.7770  174.1660  137.1250 C   0  0  0  0  0  3  0  0  0  0  0  0
  186.2610  178.4850  137.4380 C   0  0  0  0  0  2  0  0  0  0  0  0
  182.1430  179.0760  139.1040 C   0  0  1  0  0  3  0  0  0  0  0  0
  184.2110  177.7690  139.9390 C   0  0  1  0  0  3  0  0  0  0  0  0
  181.3580  178.8560  137.8250 C   0  0  2  0  0  3  0  0  0  0  0  0
  182.5500  176.8430  138.1220 C   0  0  2  0  0  3  0  0  0  0  0  0
  184.6000  178.9990  141.7390 C   0  0  0  0  0  1  0  0  0  0  0  0
  184.1810  177.7310  141.3340 O   0  0  0  0  0  0  0  0  0  0  0  0
  181.2190  179.4670  140.2450 C   0  0  0  0  0  2  0  0  0  0  0  0
  180.7060  178.2300  140.9580 C   0  0  0  0  0  1  0  0  0  0  0  0
  1 14  1  0  0  0  0
  2  6  2  0  0  0  0
  3 17  1  0  0  0  0
  4  1  1  0  0  0  0
  4 20  1  0  0  0  0
  6  5  2  0  0  0  0
  7 11  2  0  0  0  0
  8  6  1  6  0  0  0
  8 23  1  0  0  0  0
  8 24  1  0  0  0  0
 10 22  1  0  0  0  0
 11 23  1  0  0  0  0
 12  6  1  0  0  0  0
 12  7  1  0  0  0  0
 13 16  1  0  0  0  0
 13  9  1  0  0  0  0
 14 17  2  0  0  0  0
 14 24  1  0  0  0  0
 15  7  1  0  0  0  0
 16 22  1  0  0  0  0
 18 19  1  0  0  0  0
 18  1  2  0  0  0  0
 19  3  2  0  0  0  0
 20 13  1  0  0  0  0
 21 10  1  0  0  0  0
 21 27  1  0  0  0  0
 22 26  1  0  0  0  0
 23 21  1  0  0  0  0
 24 10  1  0  0  0  0
 26 25  1  0  0  0  0
 27 28  1  0  0  0  0
M  END
>  <MODEL>
9

>  <REMARK>
 VINA RESULT:      -3.8      2.538      5.237
  Name = 
  2 active torsions:
  status: ('A' for Active; 'I' for Inactive)
    1  A    between atoms: C_5  and  C_24
    2  A    between atoms: O_17  and  C_25
                            x       y       z     vdW  Elec       q    Type
                         _______ _______ _______ _____ _____    ______ ____

>  <TORSDO>
F 2

$$$$
