=
 OpenBabel11122410323D

 30 35  0  0  1  0  0  0  0  0999 V2000
  189.4500  177.3960  143.3600 C   0  0  2  0  0  3  0  0  0  0  0  0
  191.3480  176.9120  144.9880 C   0  0  2  0  0  3  0  0  0  0  0  0
  186.7550  178.1090  146.5440 O   0  0  0  0  0  0  0  0  0  0  0  0
  187.9300  177.5980  143.1370 C   0  0  2  0  0  3  0  0  0  0  0  0
  189.9940  176.5080  142.2410 C   0  0  0  0  0  2  0  0  0  0  0  0
  187.8540  177.6230  139.6170 O   0  0  0  0  0  0  0  0  0  0  0  0
  185.2610  177.9430  142.0130 C   0  0  1  0  0  3  0  0  0  0  0  0
  188.4190  177.7090  140.6990 C   0  0  0  0  0  0  0  0  0  0  0  0
  184.9080  177.9860  143.5050 C   0  0  2  0  0  3  0  0  0  0  0  0
  185.7000  178.6210  145.8070 C   0  0  0  0  0  0  0  0  0  0  0  0
  189.8260  177.1880  140.8780 C   0  0  2  0  0  3  0  0  0  0  0  0
  187.7740  178.4350  141.8560 C   0  0  1  0  0  3  0  0  0  0  0  0
  191.7220  176.5040  146.3910 C   0  0  0  0  0  3  0  0  0  0  0  0
  183.6110  178.7470  143.5520 C   0  0  0  0  0  2  0  0  0  0  0  0
  184.0390  178.1950  141.2530 N   0  0  0  0  0  2  0  0  0  0  0  0
  191.8070  178.1980  144.7600 F   0  0  0  0  0  0  0  0  0  0  0  0
  187.6290  177.5240  145.6020 C   0  0  1  0  0  3  0  0  0  0  0  0
  190.8440  176.5050  147.4060 C   0  0  0  0  0  3  0  0  0  0  0  0
  189.8310  176.8410  144.7570 C   0  0  1  0  0  3  0  0  0  0  0  0
  187.3570  178.3200  144.3470 C   0  0  2  0  0  3  0  0  0  0  0  0
  184.6440  179.0550  146.3370 O   0  0  0  0  0  0  0  0  0  0  0  0
  185.9170  178.5870  144.3940 N   0  0  0  0  0  0  0  0  0  0  0  0
  182.9740  178.4460  142.2180 C   0  0  0  0  0  2  0  0  0  0  0  0
  186.1420  180.2050  142.0450 O   0  0  0  0  0  1  0  0  0  0  0  0
  189.3790  176.8100  147.2160 C   0  0  0  0  0  2  0  0  0  0  0  0
  189.1080  177.5640  145.9150 C   0  0  2  0  0  3  0  0  0  0  0  0
  186.3500  178.9150  141.5500 C   0  0  2  0  0  3  0  0  0  0  0  0
  190.1730  176.2490  139.8210 N   0  0  0  0  0  2  0  0  0  0  0  0
  190.9710  176.8060  137.6020 C   0  0  0  0  0  1  0  0  0  0  0  0
  191.2840  176.8260  139.0840 C   0  0  0  0  0  2  0  0  0  0  0  0
  1  5  1  6  0  0  0
  1 19  1  0  0  0  0
  2 16  1  1  0  0  0
  2 13  1  0  0  0  0
  4  1  1  0  0  0  0
  4 20  1  0  0  0  0
  6  8  2  0  0  0  0
  7  9  1  0  0  0  0
  8 11  1  0  0  0  0
  8 12  1  0  0  0  0
  9 14  1  0  0  0  0
  9 22  1  0  0  0  0
 10 21  2  0  0  0  0
 10  3  1  0  0  0  0
 11  5  1  0  0  0  0
 12  4  1  0  0  0  0
 13 18  2  0  0  0  0
 15  7  1  0  0  0  0
 15 23  1  0  0  0  0
 17 26  1  0  0  0  0
 17  3  1  0  0  0  0
 19  2  1  0  0  0  0
 19 26  1  0  0  0  0
 20 22  1  0  0  0  0
 20 17  1  0  0  0  0
 22 10  1  0  0  0  0
 23 14  1  0  0  0  0
 25 18  1  0  0  0  0
 26 25  1  0  0  0  0
 27 12  1  0  0  0  0
 27  7  1  0  0  0  0
 27 24  1  0  0  0  0
 28 11  1  0  0  0  0
 29 30  1  0  0  0  0
 30 28  1  0  0  0  0
M  END
>  <MODEL>
1

>  <REMARK>
 VINA RESULT:     -10.4      0.000      0.000
  Name = 
  2 active torsions:
  status: ('A' for Active; 'I' for Inactive)
    1  A    between atoms: C_11  and  N_28
    2  A    between atoms: N_28  and  C_30
                            x       y       z     vdW  Elec       q    Type
                         _______ _______ _______ _____ _____    ______ ____

>  <TORSDO>
F 2

$$$$
=
 OpenBabel11122410323D

 30 35  0  0  1  0  0  0  0  0999 V2000
  186.1550  178.0760  141.6020 C   0  0  2  0  0  3  0  0  0  0  0  0
  183.6440  178.4770  141.4540 C   0  0  2  0  0  3  0  0  0  0  0  0
  185.9890  177.9140  145.8280 O   0  0  0  0  0  0  0  0  0  0  0  0
  187.4270  178.0230  142.4860 C   0  0  2  0  0  3  0  0  0  0  0  0
  186.4910  178.8080  140.3040 C   0  0  0  0  0  2  0  0  0  0  0  0
  189.8730  177.7280  139.9700 O   0  0  0  0  0  0  0  0  0  0  0  0
  190.1580  177.8830  143.5010 C   0  0  1  0  0  3  0  0  0  0  0  0
  188.7260  177.6680  140.3930 C   0  0  0  0  0  0  0  0  0  0  0  0
  189.4050  177.9970  144.8320 C   0  0  2  0  0  3  0  0  0  0  0  0
  187.2770  177.4640  146.0650 C   0  0  0  0  0  0  0  0  0  0  0  0
  187.5580  178.0450  139.5110 C   0  0  2  0  0  3  0  0  0  0  0  0
  188.4330  177.1100  141.7660 C   0  0  1  0  0  3  0  0  0  0  0  0
  182.4060  178.9520  142.1740 C   0  0  0  0  0  3  0  0  0  0  0  0
  190.3450  177.3890  145.8370 C   0  0  0  0  0  2  0  0  0  0  0  0
  191.5770  177.7070  143.7990 N   0  0  0  0  0  2  0  0  0  0  0  0
  183.4960  177.1350  141.1490 F   0  0  0  0  0  0  0  0  0  0  0  0
  185.9720  178.3240  144.4770 C   0  0  1  0  0  3  0  0  0  0  0  0
  182.3610  179.1260  143.5040 C   0  0  0  0  0  3  0  0  0  0  0  0
  184.9120  178.6940  142.2930 C   0  0  1  0  0  3  0  0  0  0  0  0
  187.0450  177.4660  143.8480 C   0  0  2  0  0  3  0  0  0  0  0  0
  187.7040  177.1900  147.2180 O   0  0  0  0  0  0  0  0  0  0  0  0
  188.0770  177.3620  144.8840 N   0  0  0  0  0  0  0  0  0  0  0  0
  191.7100  177.6510  145.2510 C   0  0  0  0  0  2  0  0  0  0  0  0
  189.5490  175.5490  143.2320 O   0  0  0  0  0  1  0  0  0  0  0  0
  183.5730  178.9690  144.3870 C   0  0  0  0  0  2  0  0  0  0  0  0
  184.6760  178.1480  143.7190 C   0  0  2  0  0  3  0  0  0  0  0  0
  189.6980  176.7660  142.5610 C   0  0  2  0  0  3  0  0  0  0  0  0
  187.9970  178.8540  138.3830 N   0  0  0  0  0  2  0  0  0  0  0  0
  189.1130  177.9140  136.4480 C   0  0  0  0  0  1  0  0  0  0  0  0
  187.7970  178.0590  137.1830 C   0  0  0  0  0  2  0  0  0  0  0  0
  1  5  1  6  0  0  0
  1 19  1  0  0  0  0
  1  4  1  0  0  0  0
  2 16  1  1  0  0  0
  2 13  1  0  0  0  0
  2 19  1  0  0  0  0
  3 10  1  0  0  0  0
  4 20  1  0  0  0  0
  6  8  2  0  0  0  0
  7 15  1  0  0  0  0
  7  9  1  0  0  0  0
  8 12  1  0  0  0  0
  9 22  1  0  0  0  0
  9 14  1  0  0  0  0
 10 21  2  0  0  0  0
 11  5  1  0  0  0  0
 11  8  1  0  0  0  0
 12  4  1  0  0  0  0
 12 27  1  0  0  0  0
 13 18  2  0  0  0  0
 15 23  1  0  0  0  0
 17  3  1  0  0  0  0
 18 25  1  0  0  0  0
 19 26  1  0  0  0  0
 20 17  1  0  0  0  0
 20 22  1  0  0  0  0
 22 10  1  0  0  0  0
 23 14  1  0  0  0  0
 26 25  1  0  0  0  0
 26 17  1  0  0  0  0
 27 24  1  0  0  0  0
 27  7  1  0  0  0  0
 28 11  1  0  0  0  0
 29 30  1  0  0  0  0
 30 28  1  0  0  0  0
M  END
>  <MODEL>
2

>  <REMARK>
 VINA RESULT:      -9.8      2.547      5.439
  Name = 
  2 active torsions:
  status: ('A' for Active; 'I' for Inactive)
    1  A    between atoms: C_11  and  N_28
    2  A    between atoms: N_28  and  C_30
                            x       y       z     vdW  Elec       q    Type
                         _______ _______ _______ _____ _____    ______ ____

>  <TORSDO>
F 2

$$$$
=
 OpenBabel11122410323D

 30 35  0  0  1  0  0  0  0  0999 V2000
  187.6560  177.6000  143.1380 C   0  0  2  0  0  3  0  0  0  0  0  0
  186.5790  177.9620  145.4180 C   0  0  2  0  0  3  0  0  0  0  0  0
  184.3330  179.3330  141.1730 O   0  0  0  0  0  0  0  0  0  0  0  0
  187.4930  177.5780  141.5970 C   0  0  2  0  0  3  0  0  0  0  0  0
  188.4730  176.3800  143.5610 C   0  0  0  0  0  2  0  0  0  0  0  0
  190.5940  176.1710  140.7030 O   0  0  0  0  0  0  0  0  0  0  0  0
  187.8520  177.2350  138.7230 C   0  0  1  0  0  3  0  0  0  0  0  0
  189.8300  176.7300  141.4780 C   0  0  0  0  0  0  0  0  0  0  0  0
  186.4470  177.8510  138.7250 C   0  0  2  0  0  3  0  0  0  0  0  0
  184.8710  179.4210  139.9000 C   0  0  0  0  0  0  0  0  0  0  0  0
  189.8820  176.4340  142.9590 C   0  0  2  0  0  3  0  0  0  0  0  0
  188.8900  177.8110  140.9980 C   0  0  1  0  0  3  0  0  0  0  0  0
  185.2950  178.1870  146.1760 C   0  0  0  0  0  3  0  0  0  0  0  0
  186.3150  178.4640  137.3580 C   0  0  0  0  0  2  0  0  0  0  0  0
  188.2670  177.0630  137.3340 N   0  0  0  0  0  2  0  0  0  0  0  0
  187.3870  179.0770  145.5690 F   0  0  0  0  0  0  0  0  0  0  0  0
  185.2000  178.4860  141.8960 C   0  0  1  0  0  3  0  0  0  0  0  0
  184.1470  178.5330  145.5730 C   0  0  0  0  0  3  0  0  0  0  0  0
  186.3240  177.6890  143.9290 C   0  0  1  0  0  3  0  0  0  0  0  0
  186.5260  178.6820  141.1990 C   0  0  2  0  0  3  0  0  0  0  0  0
  184.2610  179.9510  138.9350 O   0  0  0  0  0  0  0  0  0  0  0  0
  186.1710  178.8350  139.7850 N   0  0  0  0  0  0  0  0  0  0  0  0
  187.2020  177.6010  136.4940 C   0  0  0  0  0  2  0  0  0  0  0  0
  188.9090  179.3760  139.1590 O   0  0  0  0  0  1  0  0  0  0  0  0
  184.0090  178.6210  144.0740 C   0  0  0  0  0  2  0  0  0  0  0  0
  185.3600  178.7620  143.3740 C   0  0  2  0  0  3  0  0  0  0  0  0
  188.9300  178.0160  139.4790 C   0  0  2  0  0  3  0  0  0  0  0  0
  190.5700  175.1780  143.2170 N   0  0  0  0  0  2  0  0  0  0  0  0
  191.5200  176.5180  144.9970 C   0  0  0  0  0  1  0  0  0  0  0  0
  191.8030  175.5000  143.9120 C   0  0  0  0  0  2  0  0  0  0  0  0
  1  5  1  1  0  0  0
  1 19  1  0  0  0  0
  2 16  1  6  0  0  0
  2 13  1  0  0  0  0
  3 17  1  0  0  0  0
  4  1  1  0  0  0  0
  6  8  2  0  0  0  0
  7  9  1  0  0  0  0
  7 27  1  0  0  0  0
  8 11  1  0  0  0  0
  9 22  1  0  0  0  0
 10  3  1  0  0  0  0
 11 28  1  0  0  0  0
 11  5  1  0  0  0  0
 12  8  1  0  0  0  0
 12  4  1  0  0  0  0
 14  9  1  0  0  0  0
 15  7  1  0  0  0  0
 17 26  1  0  0  0  0
 18 13  2  0  0  0  0
 19  2  1  0  0  0  0
 20  4  1  0  0  0  0
 20 17  1  0  0  0  0
 21 10  2  0  0  0  0
 22 10  1  0  0  0  0
 22 20  1  0  0  0  0
 23 15  1  0  0  0  0
 23 14  1  0  0  0  0
 24 27  1  0  0  0  0
 25 18  1  0  0  0  0
 26 19  1  0  0  0  0
 26 25  1  0  0  0  0
 27 12  1  0  0  0  0
 28 30  1  0  0  0  0
 30 29  1  0  0  0  0
M  END
>  <MODEL>
3

>  <REMARK>
 VINA RESULT:      -9.2      2.515      4.927
  Name = 
  2 active torsions:
  status: ('A' for Active; 'I' for Inactive)
    1  A    between atoms: C_11  and  N_28
    2  A    between atoms: N_28  and  C_30
                            x       y       z     vdW  Elec       q    Type
                         _______ _______ _______ _____ _____    ______ ____

>  <TORSDO>
F 2

$$$$
=
 OpenBabel11122410323D

 30 35  0  0  1  0  0  0  0  0999 V2000
  186.8180  178.1740  144.4310 C   0  0  2  0  0  3  0  0  0  0  0  0
  184.3300  178.7090  144.5470 C   0  0  2  0  0  3  0  0  0  0  0  0
  186.8290  178.6270  140.2230 O   0  0  0  0  0  0  0  0  0  0  0  0
  188.0440  177.8100  143.5560 C   0  0  2  0  0  3  0  0  0  0  0  0
  186.8320  177.2970  145.6820 C   0  0  0  0  0  2  0  0  0  0  0  0
  190.3650  177.0480  146.0910 O   0  0  0  0  0  0  0  0  0  0  0  0
  190.6620  177.0030  142.5580 C   0  0  1  0  0  3  0  0  0  0  0  0
  189.3300  177.5470  145.6700 C   0  0  0  0  0  0  0  0  0  0  0  0
  189.9540  177.2480  141.2200 C   0  0  2  0  0  3  0  0  0  0  0  0
  188.1980  178.5900  140.0170 C   0  0  0  0  0  0  0  0  0  0  0  0
  188.0830  177.5710  146.5240 C   0  0  2  0  0  3  0  0  0  0  0  0
  189.2940  178.2510  144.3340 C   0  0  1  0  0  3  0  0  0  0  0  0
  183.0220  178.7600  143.7960 C   0  0  0  0  0  3  0  0  0  0  0  0
  191.0750  177.5280  140.2580 C   0  0  0  0  0  2  0  0  0  0  0  0
  192.0550  176.6660  142.2750 N   0  0  0  0  0  2  0  0  0  0  0  0
  184.6730  179.9930  144.9350 F   0  0  0  0  0  0  0  0  0  0  0  0
  186.6300  178.1750  141.5460 C   0  0  1  0  0  3  0  0  0  0  0  0
  182.9510  178.6910  142.4580 C   0  0  0  0  0  3  0  0  0  0  0  0
  185.4520  178.0930  143.6990 C   0  0  1  0  0  3  0  0  0  0  0  0
  187.9250  178.5450  142.2300 C   0  0  2  0  0  3  0  0  0  0  0  0
  188.7230  178.7550  138.8860 O   0  0  0  0  0  0  0  0  0  0  0  0
  188.9500  178.3250  141.2050 N   0  0  0  0  0  0  0  0  0  0  0  0
  192.2370  176.7530  140.8300 C   0  0  0  0  0  2  0  0  0  0  0  0
  190.9380  179.3790  142.9710 O   0  0  0  0  0  1  0  0  0  0  0  0
  184.1590  178.4460  141.5890 C   0  0  0  0  0  2  0  0  0  0  0  0
  185.4670  178.7680  142.3100 C   0  0  2  0  0  3  0  0  0  0  0  0
  190.6180  178.1550  143.5650 C   0  0  2  0  0  3  0  0  0  0  0  0
  188.1690  176.5950  147.6000 N   0  0  0  0  0  2  0  0  0  0  0  0
  188.7470  178.5840  148.8580 C   0  0  0  0  0  1  0  0  0  0  0  0
  187.9300  177.3080  148.8430 C   0  0  0  0  0  2  0  0  0  0  0  0
  1  5  1  1  0  0  0
  2 16  1  6  0  0  0
  3 17  1  0  0  0  0
  4 12  1  0  0  0  0
  4  1  1  0  0  0  0
  5 11  1  0  0  0  0
  7 27  1  0  0  0  0
  8  6  2  0  0  0  0
  8 11  1  0  0  0  0
  9  7  1  0  0  0  0
 10  3  1  0  0  0  0
 10 22  1  0  0  0  0
 11 28  1  0  0  0  0
 12  8  1  0  0  0  0
 13  2  1  0  0  0  0
 14 23  1  0  0  0  0
 14  9  1  0  0  0  0
 15  7  1  0  0  0  0
 17 20  1  0  0  0  0
 17 26  1  0  0  0  0
 18 13  2  0  0  0  0
 19  1  1  0  0  0  0
 19  2  1  0  0  0  0
 20  4  1  0  0  0  0
 21 10  2  0  0  0  0
 22  9  1  0  0  0  0
 22 20  1  0  0  0  0
 23 15  1  0  0  0  0
 24 27  1  0  0  0  0
 25 26  1  0  0  0  0
 25 18  1  0  0  0  0
 26 19  1  0  0  0  0
 27 12  1  0  0  0  0
 28 30  1  0  0  0  0
 30 29  1  0  0  0  0
M  END
>  <MODEL>
4

>  <REMARK>
 VINA RESULT:      -8.9      2.631      6.787
  Name = 
  2 active torsions:
  status: ('A' for Active; 'I' for Inactive)
    1  A    between atoms: C_11  and  N_28
    2  A    between atoms: N_28  and  C_30
                            x       y       z     vdW  Elec       q    Type
                         _______ _______ _______ _____ _____    ______ ____

>  <TORSDO>
F 2

$$$$
=
 OpenBabel11122410323D

 30 35  0  0  1  0  0  0  0  0999 V2000
  187.6830  177.9520  144.9290 C   0  0  2  0  0  3  0  0  0  0  0  0
  185.5790  178.6290  146.1950 C   0  0  2  0  0  3  0  0  0  0  0  0
  185.7770  178.5860  141.2040 O   0  0  0  0  0  0  0  0  0  0  0  0
  188.3340  177.5530  143.5800 C   0  0  2  0  0  3  0  0  0  0  0  0
  188.2110  177.0220  146.0200 C   0  0  0  0  0  2  0  0  0  0  0  0
  191.5030  176.5440  144.7370 O   0  0  0  0  0  0  0  0  0  0  0  0
  190.1260  176.6340  141.4710 C   0  0  1  0  0  3  0  0  0  0  0  0
  190.4310  177.1220  144.8500 C   0  0  0  0  0  0  0  0  0  0  0  0
  188.8980  176.9790  140.6190 C   0  0  2  0  0  3  0  0  0  0  0  0
  186.8890  178.4750  140.3850 C   0  0  0  0  0  0  0  0  0  0  0  0
  189.7260  177.1840  146.1870 C   0  0  2  0  0  3  0  0  0  0  0  0
  189.8310  177.8840  143.6920 C   0  0  1  0  0  3  0  0  0  0  0  0
  184.0800  178.7910  146.1390 C   0  0  0  0  0  3  0  0  0  0  0  0
  189.4640  177.2330  139.2480 C   0  0  0  0  0  2  0  0  0  0  0  0
  191.2000  176.2270  140.5690 N   0  0  0  0  0  2  0  0  0  0  0  0
  186.1560  179.8720  146.3920 F   0  0  0  0  0  0  0  0  0  0  0  0
  186.1810  178.0890  142.4630 C   0  0  1  0  0  3  0  0  0  0  0  0
  183.3920  178.7850  144.9860 C   0  0  0  0  0  3  0  0  0  0  0  0
  186.1330  177.9840  144.9160 C   0  0  1  0  0  3  0  0  0  0  0  0
  187.6690  178.3510  142.4700 C   0  0  2  0  0  3  0  0  0  0  0  0
  186.8410  178.6570  139.1400 O   0  0  0  0  0  0  0  0  0  0  0  0
  188.0840  178.1150  141.0840 N   0  0  0  0  0  0  0  0  0  0  0  0
  190.6980  176.3660  139.2060 C   0  0  0  0  0  2  0  0  0  0  0  0
  190.7350  178.9700  141.7330 O   0  0  0  0  0  1  0  0  0  0  0  0
  184.0390  178.5050  143.6530 C   0  0  0  0  0  2  0  0  0  0  0  0
  185.5520  178.7170  143.6860 C   0  0  2  0  0  3  0  0  0  0  0  0
  190.6370  177.7420  142.3950 C   0  0  2  0  0  3  0  0  0  0  0  0
  190.2290  176.1580  147.0900 N   0  0  0  0  0  2  0  0  0  0  0  0
  192.4730  175.7170  147.8900 C   0  0  0  0  0  1  0  0  0  0  0  0
  191.3540  176.7340  147.8060 C   0  0  0  0  0  2  0  0  0  0  0  0
  1  5  1  1  0  0  0
  2 16  1  6  0  0  0
  3 17  1  0  0  0  0
  4 12  1  0  0  0  0
  4  1  1  0  0  0  0
  5 11  1  0  0  0  0
  6  8  2  0  0  0  0
  7 27  1  0  0  0  0
  8 11  1  0  0  0  0
  9 22  1  0  0  0  0
  9  7  1  0  0  0  0
 10 22  1  0  0  0  0
 10  3  1  0  0  0  0
 11 28  1  0  0  0  0
 12  8  1  0  0  0  0
 13  2  1  0  0  0  0
 14  9  1  0  0  0  0
 15  7  1  0  0  0  0
 17 20  1  0  0  0  0
 17 26  1  0  0  0  0
 18 13  2  0  0  0  0
 19  1  1  0  0  0  0
 19  2  1  0  0  0  0
 20  4  1  0  0  0  0
 21 10  2  0  0  0  0
 22 20  1  0  0  0  0
 23 14  1  0  0  0  0
 23 15  1  0  0  0  0
 24 27  1  0  0  0  0
 25 26  1  0  0  0  0
 25 18  1  0  0  0  0
 26 19  1  0  0  0  0
 27 12  1  0  0  0  0
 28 30  1  0  0  0  0
 30 29  1  0  0  0  0
M  END
>  <MODEL>
5

>  <REMARK>
 VINA RESULT:      -8.8      2.268      5.975
  Name = 
  2 active torsions:
  status: ('A' for Active; 'I' for Inactive)
    1  A    between atoms: C_11  and  N_28
    2  A    between atoms: N_28  and  C_30
                            x       y       z     vdW  Elec       q    Type
                         _______ _______ _______ _____ _____    ______ ____

>  <TORSDO>
F 2

$$$$
=
 OpenBabel11122410323D

 30 35  0  0  1  0  0  0  0  0999 V2000
  188.0130  177.8730  142.9080 C   0  0  2  0  0  3  0  0  0  0  0  0
  189.3970  177.7570  145.0430 C   0  0  2  0  0  3  0  0  0  0  0  0
  184.4520  178.4540  145.1190 O   0  0  0  0  0  0  0  0  0  0  0  0
  186.6110  177.8600  142.2490 C   0  0  2  0  0  3  0  0  0  0  0  0
  188.9480  176.9870  142.0850 C   0  0  0  0  0  2  0  0  0  0  0  0
  187.5570  177.6250  138.8660 O   0  0  0  0  0  0  0  0  0  0  0  0
  184.3620  177.7740  140.3940 C   0  0  1  0  0  3  0  0  0  0  0  0
  187.7710  177.8600  140.0470 C   0  0  0  0  0  0  0  0  0  0  0  0
  183.5890  177.8770  141.7150 C   0  0  2  0  0  3  0  0  0  0  0  0
  183.6090  178.7710  144.0670 C   0  0  0  0  0  0  0  0  0  0  0  0
  189.1130  177.5400  140.6660 C   0  0  2  0  0  3  0  0  0  0  0  0
  186.7470  178.5760  140.8950 C   0  0  1  0  0  3  0  0  0  0  0  0
  189.3890  177.5010  146.5300 C   0  0  0  0  0  3  0  0  0  0  0  0
  182.2620  178.4630  141.3180 C   0  0  0  0  0  2  0  0  0  0  0  0
  183.3930  177.8100  139.3010 N   0  0  0  0  0  2  0  0  0  0  0  0
  189.7670  179.0720  144.8180 F   0  0  0  0  0  0  0  0  0  0  0  0
  185.6180  177.9220  144.5250 C   0  0  1  0  0  3  0  0  0  0  0  0
  188.2590  177.4610  147.2530 C   0  0  0  0  0  3  0  0  0  0  0  0
  188.0290  177.4730  144.4060 C   0  0  1  0  0  3  0  0  0  0  0  0
  185.6400  178.5850  143.1670 C   0  0  2  0  0  3  0  0  0  0  0  0
  182.4050  179.1000  144.2320 O   0  0  0  0  0  0  0  0  0  0  0  0
  184.2280  178.6650  142.7820 N   0  0  0  0  0  0  0  0  0  0  0  0
  182.0740  177.9880  139.8980 C   0  0  0  0  0  2  0  0  0  0  0  0
  184.9550  180.1280  140.4340 O   0  0  0  0  0  1  0  0  0  0  0  0
  186.8890  177.5580  146.6300 C   0  0  0  0  0  2  0  0  0  0  0  0
  186.9290  178.1760  145.2330 C   0  0  2  0  0  3  0  0  0  0  0  0
  185.4310  178.8440  140.1550 C   0  0  2  0  0  3  0  0  0  0  0  0
  189.8470  176.5820  139.8520 N   0  0  0  0  0  2  0  0  0  0  0  0
  192.0980  177.3850  140.2560 C   0  0  0  0  0  1  0  0  0  0  0  0
  190.9640  177.2950  139.2560 C   0  0  0  0  0  2  0  0  0  0  0  0
  1  5  1  6  0  0  0
  1 19  1  0  0  0  0
  2 16  1  1  0  0  0
  2 13  1  0  0  0  0
  4  1  1  0  0  0  0
  4 20  1  0  0  0  0
  6  8  2  0  0  0  0
  7  9  1  0  0  0  0
  8 11  1  0  0  0  0
  8 12  1  0  0  0  0
  9 22  1  0  0  0  0
 10 21  2  0  0  0  0
 10  3  1  0  0  0  0
 11  5  1  0  0  0  0
 12  4  1  0  0  0  0
 13 18  2  0  0  0  0
 14  9  1  0  0  0  0
 15 23  1  0  0  0  0
 15  7  1  0  0  0  0
 17  3  1  0  0  0  0
 17 26  1  0  0  0  0
 19  2  1  0  0  0  0
 19 26  1  0  0  0  0
 20 17  1  0  0  0  0
 22 20  1  0  0  0  0
 22 10  1  0  0  0  0
 23 14  1  0  0  0  0
 25 18  1  0  0  0  0
 26 25  1  0  0  0  0
 27  7  1  0  0  0  0
 27 24  1  0  0  0  0
 27 12  1  0  0  0  0
 28 11  1  0  0  0  0
 30 28  1  0  0  0  0
 30 29  1  0  0  0  0
M  END
>  <MODEL>
6

>  <REMARK>
 VINA RESULT:      -8.7      1.449      2.100
  Name = 
  2 active torsions:
  status: ('A' for Active; 'I' for Inactive)
    1  A    between atoms: C_11  and  N_28
    2  A    between atoms: N_28  and  C_30
                            x       y       z     vdW  Elec       q    Type
                         _______ _______ _______ _____ _____    ______ ____

>  <TORSDO>
F 2

$$$$
=
 OpenBabel11122410323D

 30 35  0  0  1  0  0  0  0  0999 V2000
  187.1670  178.1730  143.3340 C   0  0  2  0  0  3  0  0  0  0  0  0
  185.6230  178.6680  145.2980 C   0  0  2  0  0  3  0  0  0  0  0  0
  184.0650  178.9440  140.5610 O   0  0  0  0  0  0  0  0  0  0  0  0
  187.3150  177.8910  141.8170 C   0  0  2  0  0  3  0  0  0  0  0  0
  188.0650  177.2040  144.1010 C   0  0  0  0  0  2  0  0  0  0  0  0
  190.7110  176.9660  141.7240 O   0  0  0  0  0  0  0  0  0  0  0  0
  188.2780  177.1920  139.1550 C   0  0  1  0  0  3  0  0  0  0  0  0
  189.7330  177.4830  142.2450 C   0  0  0  0  0  0  0  0  0  0  0  0
  186.8220  177.5300  138.8100 C   0  0  2  0  0  3  0  0  0  0  0  0
  184.8220  178.9380  139.4010 C   0  0  0  0  0  0  0  0  0  0  0  0
  189.5390  177.4280  143.7430 C   0  0  2  0  0  3  0  0  0  0  0  0
  188.7480  178.2860  141.4270 C   0  0  1  0  0  3  0  0  0  0  0  0
  184.1960  178.7610  145.7780 C   0  0  0  0  0  3  0  0  0  0  0  0
  186.8660  177.8950  137.3510 C   0  0  0  0  0  2  0  0  0  0  0  0
  188.9780  176.8940  137.9080 N   0  0  0  0  0  2  0  0  0  0  0  0
  186.2030  179.9220  145.3760 F   0  0  0  0  0  0  0  0  0  0  0  0
  184.8950  178.3900  141.5600 C   0  0  1  0  0  3  0  0  0  0  0  0
  183.1480  178.7920  144.9390 C   0  0  0  0  0  3  0  0  0  0  0  0
  185.7100  178.1310  143.8620 C   0  0  1  0  0  3  0  0  0  0  0  0
  186.2850  178.7230  141.0700 C   0  0  2  0  0  3  0  0  0  0  0  0
  184.3380  179.1940  138.2680 O   0  0  0  0  0  0  0  0  0  0  0  0
  186.1940  178.5930  139.6130 N   0  0  0  0  0  0  0  0  0  0  0  0
  188.0280  177.0930  136.8190 C   0  0  0  0  0  2  0  0  0  0  0  0
  188.8840  179.5340  139.3640 O   0  0  0  0  0  1  0  0  0  0  0  0
  183.2940  178.6280  143.4470 C   0  0  0  0  0  2  0  0  0  0  0  0
  184.7180  178.9100  142.9690 C   0  0  2  0  0  3  0  0  0  0  0  0
  189.0530  178.2640  139.9250 C   0  0  2  0  0  3  0  0  0  0  0  0
  190.3490  176.3750  144.3360 N   0  0  0  0  0  2  0  0  0  0  0  0
  191.5100  176.5250  146.4570 C   0  0  0  0  0  1  0  0  0  0  0  0
  191.4510  177.0210  145.0270 C   0  0  0  0  0  2  0  0  0  0  0  0
  1 19  1  0  0  0  0
  1  5  1  1  0  0  0
  2 16  1  6  0  0  0
  2 13  1  0  0  0  0
  3 17  1  0  0  0  0
  4  1  1  0  0  0  0
  6  8  2  0  0  0  0
  7 27  1  0  0  0  0
  8 11  1  0  0  0  0
  9  7  1  0  0  0  0
  9 22  1  0  0  0  0
 10 22  1  0  0  0  0
 10  3  1  0  0  0  0
 11  5  1  0  0  0  0
 11 28  1  0  0  0  0
 12  4  1  0  0  0  0
 12  8  1  0  0  0  0
 14  9  1  0  0  0  0
 15  7  1  0  0  0  0
 17 26  1  0  0  0  0
 18 13  2  0  0  0  0
 19  2  1  0  0  0  0
 20 17  1  0  0  0  0
 20  4  1  0  0  0  0
 21 10  2  0  0  0  0
 22 20  1  0  0  0  0
 23 14  1  0  0  0  0
 23 15  1  0  0  0  0
 24 27  1  0  0  0  0
 25 18  1  0  0  0  0
 26 25  1  0  0  0  0
 26 19  1  0  0  0  0
 27 12  1  0  0  0  0
 28 30  1  0  0  0  0
 30 29  1  0  0  0  0
M  END
>  <MODEL>
7

>  <REMARK>
 VINA RESULT:      -8.5      2.582      5.500
  Name = 
  2 active torsions:
  status: ('A' for Active; 'I' for Inactive)
    1  A    between atoms: C_11  and  N_28
    2  A    between atoms: N_28  and  C_30
                            x       y       z     vdW  Elec       q    Type
                         _______ _______ _______ _____ _____    ______ ____

>  <TORSDO>
F 2

$$$$
=
 OpenBabel11122410323D

 30 35  0  0  1  0  0  0  0  0999 V2000
  190.3580  177.2880  140.3700 C   0  0  2  0  0  3  0  0  0  0  0  0
  191.4930  177.3820  142.6480 C   0  0  2  0  0  3  0  0  0  0  0  0
  186.7030  178.6470  142.0140 O   0  0  0  0  0  0  0  0  0  0  0  0
  189.0390  177.3230  139.5570 C   0  0  2  0  0  3  0  0  0  0  0  0
  191.2430  176.1710  139.8180 C   0  0  0  0  0  2  0  0  0  0  0  0
  190.2800  176.4010  136.3930 O   0  0  0  0  0  0  0  0  0  0  0  0
  186.9960  177.1780  137.4810 C   0  0  1  0  0  3  0  0  0  0  0  0
  190.4040  176.8100  137.5390 C   0  0  0  0  0  0  0  0  0  0  0  0
  186.1150  177.5950  138.6650 C   0  0  2  0  0  3  0  0  0  0  0  0
  186.0190  178.8730  140.8310 C   0  0  0  0  0  0  0  0  0  0  0  0
  191.6220  176.4490  138.3590 C   0  0  2  0  0  3  0  0  0  0  0  0
  189.4050  177.7750  138.1330 C   0  0  1  0  0  3  0  0  0  0  0  0
  191.3020  177.3900  144.1450 C   0  0  0  0  0  3  0  0  0  0  0  0
  184.9250  178.2530  138.0230 C   0  0  0  0  0  2  0  0  0  0  0  0
  186.1550  177.1360  136.2870 N   0  0  0  0  0  2  0  0  0  0  0  0
  192.0560  178.5880  142.2640 F   0  0  0  0  0  0  0  0  0  0  0  0
  187.8410  177.8900  141.6570 C   0  0  1  0  0  3  0  0  0  0  0  0
  190.1100  177.6050  144.7230 C   0  0  0  0  0  3  0  0  0  0  0  0
  190.1700  177.1530  141.9040 C   0  0  1  0  0  3  0  0  0  0  0  0
  188.0870  178.3020  140.2250 C   0  0  2  0  0  3  0  0  0  0  0  0
  184.8600  179.3620  140.7950 O   0  0  0  0  0  0  0  0  0  0  0  0
  186.7440  178.4770  139.6630 N   0  0  0  0  0  0  0  0  0  0  0  0
  184.8190  177.5660  136.6840 C   0  0  0  0  0  2  0  0  0  0  0  0
  187.8920  179.4190  137.2180 O   0  0  0  0  0  1  0  0  0  0  0  0
  188.8350  177.7500  143.9320 C   0  0  0  0  0  2  0  0  0  0  0  0
  189.0970  178.1100  142.4690 C   0  0  2  0  0  3  0  0  0  0  0  0
  188.2170  178.0600  137.2060 C   0  0  2  0  0  3  0  0  0  0  0  0
  192.2990  175.2870  137.8020 N   0  0  0  0  0  2  0  0  0  0  0  0
  193.9310  176.3780  136.3810 C   0  0  0  0  0  1  0  0  0  0  0  0
  193.7050  175.6300  137.6790 C   0  0  0  0  0  2  0  0  0  0  0  0
  1  5  1  6  0  0  0
  1 19  1  0  0  0  0
  2 16  1  6  0  0  0
  2 13  1  0  0  0  0
  4 20  1  0  0  0  0
  4  1  1  0  0  0  0
  6  8  2  0  0  0  0
  7  9  1  0  0  0  0
  8 12  1  0  0  0  0
  8 11  1  0  0  0  0
  9 22  1  0  0  0  0
 10  3  1  0  0  0  0
 11  5  1  0  0  0  0
 12  4  1  0  0  0  0
 13 18  2  0  0  0  0
 14  9  1  0  0  0  0
 15 23  1  0  0  0  0
 15  7  1  0  0  0  0
 17  3  1  0  0  0  0
 17 26  1  0  0  0  0
 19 26  1  0  0  0  0
 19  2  1  0  0  0  0
 20 17  1  0  0  0  0
 21 10  2  0  0  0  0
 22 20  1  0  0  0  0
 22 10  1  0  0  0  0
 23 14  1  0  0  0  0
 25 18  1  0  0  0  0
 26 25  1  0  0  0  0
 27 24  1  0  0  0  0
 27  7  1  0  0  0  0
 27 12  1  0  0  0  0
 28 11  1  0  0  0  0
 29 30  1  0  0  0  0
 30 28  1  0  0  0  0
M  END
>  <MODEL>
8

>  <REMARK>
 VINA RESULT:      -7.8      2.579      4.122
  Name = 
  2 active torsions:
  status: ('A' for Active; 'I' for Inactive)
    1  A    between atoms: C_11  and  N_28
    2  A    between atoms: N_28  and  C_30
                            x       y       z     vdW  Elec       q    Type
                         _______ _______ _______ _____ _____    ______ ____

>  <TORSDO>
F 2

$$$$
=
 OpenBabel11122410323D

 30 35  0  0  1  0  0  0  0  0999 V2000
  186.2770  178.5590  141.6590 C   0  0  2  0  0  3  0  0  0  0  0  0
  184.8510  179.2570  143.6510 C   0  0  2  0  0  3  0  0  0  0  0  0
  182.8660  178.3060  139.1670 O   0  0  0  0  0  0  0  0  0  0  0  0
  186.3340  177.9790  140.2230 C   0  0  2  0  0  3  0  0  0  0  0  0
  187.3740  177.9010  142.4950 C   0  0  0  0  0  2  0  0  0  0  0  0
  189.8100  177.5070  139.9220 O   0  0  0  0  0  0  0  0  0  0  0  0
  187.1580  176.8580  137.6600 C   0  0  1  0  0  3  0  0  0  0  0  0
  188.8130  177.9920  140.4390 C   0  0  0  0  0  0  0  0  0  0  0  0
  185.6430  176.9210  137.4260 C   0  0  2  0  0  3  0  0  0  0  0  0
  183.5120  178.1510  137.9520 C   0  0  0  0  0  0  0  0  0  0  0  0
  188.7600  178.2340  141.9310 C   0  0  2  0  0  3  0  0  0  0  0  0
  187.6520  178.4650  139.5980 C   0  0  1  0  0  3  0  0  0  0  0  0
  183.4730  179.2640  144.2650 C   0  0  0  0  0  3  0  0  0  0  0  0
  185.5060  176.9680  135.9290 C   0  0  0  0  0  2  0  0  0  0  0  0
  187.7850  176.3940  136.4250 N   0  0  0  0  0  2  0  0  0  0  0  0
  185.2380  180.5640  143.4090 F   0  0  0  0  0  0  0  0  0  0  0  0
  183.8530  178.0920  140.1530 C   0  0  1  0  0  3  0  0  0  0  0  0
  182.3640  178.9780  143.5640 C   0  0  0  0  0  3  0  0  0  0  0  0
  184.8930  178.4410  142.3500 C   0  0  1  0  0  3  0  0  0  0  0  0
  185.1290  178.4900  139.4490 C   0  0  2  0  0  3  0  0  0  0  0  0
  182.8980  178.0930  136.8540 O   0  0  0  0  0  0  0  0  0  0  0  0
  184.9330  178.0410  138.0670 N   0  0  0  0  0  0  0  0  0  0  0  0
  186.7250  176.2290  135.4360 C   0  0  0  0  0  2  0  0  0  0  0  0
  187.4180  179.2490  137.3250 O   0  0  0  0  0  1  0  0  0  0  0  0
  182.4040  178.5180  142.1280 C   0  0  0  0  0  2  0  0  0  0  0  0
  183.7220  178.8740  141.4410 C   0  0  2  0  0  3  0  0  0  0  0  0
  187.8250  178.1620  138.1040 C   0  0  2  0  0  3  0  0  0  0  0  0
  189.7690  177.4460  142.6240 N   0  0  0  0  0  2  0  0  0  0  0  0
  191.2180  178.9620  143.8380 C   0  0  0  0  0  1  0  0  0  0  0  0
  189.9920  178.0760  143.9130 C   0  0  0  0  0  2  0  0  0  0  0  0
  1 19  1  0  0  0  0
  1  5  1  1  0  0  0
  2 16  1  6  0  0  0
  2 13  1  0  0  0  0
  3 17  1  0  0  0  0
  4  1  1  0  0  0  0
  6  8  2  0  0  0  0
  7 27  1  0  0  0  0
  8 11  1  0  0  0  0
  9  7  1  0  0  0  0
  9 22  1  0  0  0  0
 10 22  1  0  0  0  0
 10  3  1  0  0  0  0
 11  5  1  0  0  0  0
 11 28  1  0  0  0  0
 12  4  1  0  0  0  0
 12  8  1  0  0  0  0
 14  9  1  0  0  0  0
 15  7  1  0  0  0  0
 17 26  1  0  0  0  0
 18 13  2  0  0  0  0
 19  2  1  0  0  0  0
 20 17  1  0  0  0  0
 20  4  1  0  0  0  0
 21 10  2  0  0  0  0
 22 20  1  0  0  0  0
 23 14  1  0  0  0  0
 23 15  1  0  0  0  0
 24 27  1  0  0  0  0
 25 18  1  0  0  0  0
 26 25  1  0  0  0  0
 26 19  1  0  0  0  0
 27 12  1  0  0  0  0
 28 30  1  0  0  0  0
 29 30  1  0  0  0  0
M  END
>  <MODEL>
9

>  <REMARK>
 VINA RESULT:      -7.8      3.313      6.265
  Name = 
  2 active torsions:
  status: ('A' for Active; 'I' for Inactive)
    1  A    between atoms: C_11  and  N_28
    2  A    between atoms: N_28  and  C_30
                            x       y       z     vdW  Elec       q    Type
                         _______ _______ _______ _____ _____    ______ ____

>  <TORSDO>
F 2

$$$$
