=
 OpenBabel11122411163D

 31 35  0  0  1  0  0  0  0  0999 V2000
  190.2330  176.1630  142.8230 C   0  0  0  0  0  0  0  0  0  0  0  0
  186.6120  177.1420  143.4730 C   0  0  2  0  0  3  0  0  0  0  0  0
  186.5540  177.8220  144.8240 C   0  0  0  0  0  0  0  0  0  0  0  0
  187.4150  178.1370  147.0760 C   0  0  0  0  0  0  0  0  0  0  0  0
  187.9960  177.1060  142.8670 C   0  0  0  0  0  0  0  0  0  0  0  0
  190.5650  176.9890  141.7480 C   0  0  0  0  0  3  0  0  0  0  0  0
  187.5240  177.5650  145.8050 C   0  0  0  0  0  3  0  0  0  0  0  0
  186.0490  179.0080  141.8010 C   0  0  2  0  0  3  0  0  0  0  0  0
  191.1520  175.3050  143.3270 F   0  0  0  0  0  0  0  0  0  0  0  0
  184.4020  178.9180  144.1170 C   0  0  0  0  0  2  0  0  0  0  0  0
  188.3900  177.8890  148.0330 O   0  0  0  0  0  1  0  0  0  0  0  0
  187.3560  178.7930  141.1900 N   0  0  0  0  0  2  0  0  0  0  0  0
  185.5620  177.7250  142.5010 C   0  0  2  0  0  3  0  0  0  0  0  0
  188.9510  176.2160  143.3770 C   0  0  0  0  0  3  0  0  0  0  0  0
  186.3270  178.9570  147.3830 C   0  0  0  0  0  3  0  0  0  0  0  0
  188.3350  177.9350  141.7790 C   0  0  0  0  0  0  0  0  0  0  0  0
  189.6160  177.8700  141.2230 C   0  0  0  0  0  3  0  0  0  0  0  0
  184.3100  177.8920  143.1460 O   0  0  0  0  0  0  0  0  0  0  0  0
  185.4410  178.6150  145.1560 C   0  0  0  0  0  0  0  0  0  0  0  0
  185.3420  179.1980  146.4220 C   0  0  0  0  0  3  0  0  0  0  0  0
  185.8020  177.8420  139.2120 O   0  0  0  0  0  0  0  0  0  0  0  0
  185.0150  178.7830  139.5070 C   0  0  0  0  0  0  0  0  0  0  0  0
  185.0930  179.4170  140.7840 N   0  0  0  0  0  2  0  0  0  0  0  0
  181.1780  178.5100  138.8550 N   0  0  0  0  0  0  0  0  0  0  0  0
  182.9530  180.1650  139.1850 C   0  0  0  0  0  2  0  0  0  0  0  0
  183.8340  177.6280  136.8090 O   0  0  0  0  0  0  0  0  0  0  0  0
  180.0900  177.8330  139.5350 C   0  0  0  0  0  1  0  0  0  0  0  0
  181.8400  179.3510  139.8520 C   0  0  0  0  0  2  0  0  0  0  0  0
  183.3370  178.0980  137.8190 C   0  0  0  0  0  0  0  0  0  0  0  0
  183.9930  179.2550  138.5210 C   0  0  2  0  0  3  0  0  0  0  0  0
  182.1120  177.4720  138.4190 C   0  0  0  0  0  2  0  0  0  0  0  0
  1  9  1  0  0  0  0
  1 14  1  0  0  0  0
  2  5  1  6  0  0  0
  2  3  1  0  0  0  0
  3 19  2  0  0  0  0
  3  7  1  0  0  0  0
  4 15  1  0  0  0  0
  4 11  1  0  0  0  0
  5 14  2  0  0  0  0
  6  1  2  0  0  0  0
  7  4  2  0  0  0  0
  8 23  1  6  0  0  0
  8 13  1  0  0  0  0
 10 19  1  0  0  0  0
 12 16  1  0  0  0  0
 12  8  1  0  0  0  0
 13 18  1  1  0  0  0
 13  2  1  0  0  0  0
 16  5  1  0  0  0  0
 17  6  1  0  0  0  0
 17 16  2  0  0  0  0
 18 10  1  0  0  0  0
 19 20  1  0  0  0  0
 20 15  2  0  0  0  0
 21 22  2  0  0  0  0
 22 23  1  0  0  0  0
 24 27  1  0  0  0  0
 24 28  1  0  0  0  0
 25 28  1  0  0  0  0
 26 29  2  0  0  0  0
 29 31  1  0  0  0  0
 29 30  1  0  0  0  0
 30 25  1  0  0  0  0
 30 22  1  1  0  0  0
 31 24  1  0  0  0  0
M  END
>  <MODEL>
1

>  <REMARK>
 VINA RESULT:      -9.7      0.000      0.000
  Name = 
  2 active torsions:
  status: ('A' for Active; 'I' for Inactive)
    1  A    between atoms: C_5  and  C_30
    2  A    between atoms: C_10  and  N_16
                            x       y       z     vdW  Elec       q    Type
                         _______ _______ _______ _____ _____    ______ ____

>  <TORSDO>
F 2

$$$$
=
 OpenBabel11122411163D

 31 35  0  0  1  0  0  0  0  0999 V2000
  191.2430  176.4060  144.2190 C   0  0  0  0  0  0  0  0  0  0  0  0
  187.5060  176.9850  143.7760 C   0  0  2  0  0  3  0  0  0  0  0  0
  187.0080  177.7330  144.9940 C   0  0  0  0  0  0  0  0  0  0  0  0
  187.1740  178.2810  147.3570 C   0  0  0  0  0  0  0  0  0  0  0  0
  189.0010  177.0790  143.5720 C   0  0  0  0  0  0  0  0  0  0  0  0
  191.7790  177.2000  143.2040 C   0  0  0  0  0  3  0  0  0  0  0  0
  187.6870  177.6520  146.2200 C   0  0  0  0  0  3  0  0  0  0  0  0
  187.2520  178.6690  141.8540 C   0  0  2  0  0  3  0  0  0  0  0  0
  192.0640  175.6940  145.0270 F   0  0  0  0  0  0  0  0  0  0  0  0
  185.0430  178.5230  143.6360 C   0  0  0  0  0  2  0  0  0  0  0  0
  187.8620  178.2070  148.5610 O   0  0  0  0  0  1  0  0  0  0  0  0
  188.6920  178.5750  141.6400 N   0  0  0  0  0  2  0  0  0  0  0  0
  186.7170  177.3810  142.5070 C   0  0  2  0  0  3  0  0  0  0  0  0
  189.8590  176.3390  144.3990 C   0  0  0  0  0  3  0  0  0  0  0  0
  185.9680  178.9830  147.2840 C   0  0  0  0  0  3  0  0  0  0  0  0
  189.5470  177.8750  142.5470 C   0  0  0  0  0  0  0  0  0  0  0  0
  190.9320  177.9290  142.3650 C   0  0  0  0  0  3  0  0  0  0  0  0
  185.3240  177.4370  142.7730 O   0  0  0  0  0  0  0  0  0  0  0  0
  185.7750  178.4070  144.9400 C   0  0  0  0  0  0  0  0  0  0  0  0
  185.2710  179.0480  146.0750 C   0  0  0  0  0  3  0  0  0  0  0  0
  187.9370  177.4270  139.3810 O   0  0  0  0  0  0  0  0  0  0  0  0
  186.9700  178.2370  139.3800 C   0  0  0  0  0  0  0  0  0  0  0  0
  186.5820  178.9010  140.5840 N   0  0  0  0  0  2  0  0  0  0  0  0
  186.2700  176.5890  135.9140 N   0  0  0  0  0  0  0  0  0  0  0  0
  185.1140  177.4850  137.8780 C   0  0  0  0  0  2  0  0  0  0  0  0
  187.6790  179.6700  136.6510 O   0  0  0  0  0  0  0  0  0  0  0  0
  186.6920  175.3500  135.2880 C   0  0  0  0  0  1  0  0  0  0  0  0
  185.6620  176.2290  137.1940 C   0  0  0  0  0  2  0  0  0  0  0  0
  187.1490  178.6100  136.9390 C   0  0  0  0  0  0  0  0  0  0  0  0
  186.2190  178.5210  138.1170 C   0  0  2  0  0  3  0  0  0  0  0  0
  187.4840  177.3660  136.1700 C   0  0  0  0  0  2  0  0  0  0  0  0
  1 14  1  0  0  0  0
  1  9  1  0  0  0  0
  2  5  1  6  0  0  0
  2  3  1  0  0  0  0
  3  7  1  0  0  0  0
  4 11  1  0  0  0  0
  5 14  2  0  0  0  0
  6  1  2  0  0  0  0
  7  4  2  0  0  0  0
  8 23  1  6  0  0  0
  8 13  1  0  0  0  0
 10 19  1  0  0  0  0
 12  8  1  0  0  0  0
 12 16  1  0  0  0  0
 13 18  1  1  0  0  0
 13  2  1  0  0  0  0
 15  4  1  0  0  0  0
 16  5  1  0  0  0  0
 17 16  2  0  0  0  0
 17  6  1  0  0  0  0
 18 10  1  0  0  0  0
 19  3  2  0  0  0  0
 19 20  1  0  0  0  0
 20 15  2  0  0  0  0
 22 21  2  0  0  0  0
 22 23  1  0  0  0  0
 24 31  1  0  0  0  0
 24 28  1  0  0  0  0
 25 30  1  0  0  0  0
 26 29  2  0  0  0  0
 27 24  1  0  0  0  0
 28 25  1  0  0  0  0
 29 30  1  0  0  0  0
 30 22  1  1  0  0  0
 31 29  1  0  0  0  0
M  END
>  <MODEL>
2

>  <REMARK>
 VINA RESULT:      -9.6      2.283      2.927
  Name = 
  2 active torsions:
  status: ('A' for Active; 'I' for Inactive)
    1  A    between atoms: C_5  and  C_30
    2  A    between atoms: C_10  and  N_16
                            x       y       z     vdW  Elec       q    Type
                         _______ _______ _______ _____ _____    ______ ____

>  <TORSDO>
F 2

$$$$
=
 OpenBabel11122411163D

 31 35  0  0  1  0  0  0  0  0999 V2000
  189.8720  176.1070  142.5710 C   0  0  0  0  0  0  0  0  0  0  0  0
  186.5530  177.1600  144.1110 C   0  0  2  0  0  3  0  0  0  0  0  0
  186.8490  177.8010  145.4500 C   0  0  0  0  0  0  0  0  0  0  0  0
  188.2450  178.0280  147.4280 C   0  0  0  0  0  0  0  0  0  0  0  0
  187.7450  177.1060  143.1840 C   0  0  0  0  0  0  0  0  0  0  0  0
  189.9580  176.9560  141.4660 C   0  0  0  0  0  3  0  0  0  0  0  0
  188.0210  177.4910  146.1570 C   0  0  0  0  0  3  0  0  0  0  0  0
  185.6600  179.0880  142.6700 C   0  0  2  0  0  3  0  0  0  0  0  0
  190.8580  175.2110  142.8160 F   0  0  0  0  0  0  0  0  0  0  0  0
  184.6270  178.9730  145.3160 C   0  0  0  0  0  2  0  0  0  0  0  0
  189.4150  177.7270  148.1110 O   0  0  0  0  0  1  0  0  0  0  0  0
  186.7700  178.8570  141.7520 N   0  0  0  0  0  2  0  0  0  0  0  0
  185.3170  177.7980  143.4390 C   0  0  2  0  0  3  0  0  0  0  0  0
  188.7670  176.1770  143.4230 C   0  0  0  0  0  3  0  0  0  0  0  0
  187.2920  178.8660  148.0110 C   0  0  0  0  0  3  0  0  0  0  0  0
  187.8340  177.9570  142.0640 C   0  0  0  0  0  0  0  0  0  0  0  0
  188.9380  177.8750  141.2090 C   0  0  0  0  0  3  0  0  0  0  0  0
  184.2670  177.9780  144.3750 O   0  0  0  0  0  0  0  0  0  0  0  0
  185.8770  178.6130  146.0620 C   0  0  0  0  0  0  0  0  0  0  0  0
  186.1100  179.1610  147.3270 C   0  0  0  0  0  3  0  0  0  0  0  0
  183.9990  177.4550  141.0270 O   0  0  0  0  0  0  0  0  0  0  0  0
  183.7010  178.6770  141.1280 C   0  0  0  0  0  0  0  0  0  0  0  0
  184.4980  179.5510  141.9280 N   0  0  0  0  0  2  0  0  0  0  0  0
  181.4860  177.8790  138.0170 N   0  0  0  0  0  0  0  0  0  0  0  0
  181.3340  178.2480  140.4330 C   0  0  0  0  0  2  0  0  0  0  0  0
  183.3020  180.7360  138.7610 O   0  0  0  0  0  0  0  0  0  0  0  0
  181.5110  176.8360  137.0080 C   0  0  0  0  0  1  0  0  0  0  0  0
  181.4470  177.2070  139.3150 C   0  0  0  0  0  2  0  0  0  0  0  0
  182.8640  179.6230  138.9980 C   0  0  0  0  0  0  0  0  0  0  0  0
  182.5120  179.2300  140.4060 C   0  0  2  0  0  3  0  0  0  0  0  0
  182.7490  178.6070  137.9000 C   0  0  0  0  0  2  0  0  0  0  0  0
  1  9  1  0  0  0  0
  1 14  1  0  0  0  0
  2  5  1  6  0  0  0
  2  3  1  0  0  0  0
  3 19  2  0  0  0  0
  3  7  1  0  0  0  0
  4 15  1  0  0  0  0
  4 11  1  0  0  0  0
  5 14  2  0  0  0  0
  6  1  2  0  0  0  0
  7  4  2  0  0  0  0
  8 23  1  6  0  0  0
  8 13  1  0  0  0  0
 10 19  1  0  0  0  0
 12 16  1  0  0  0  0
 12  8  1  0  0  0  0
 13  2  1  0  0  0  0
 13 18  1  1  0  0  0
 16  5  1  0  0  0  0
 17  6  1  0  0  0  0
 17 16  2  0  0  0  0
 18 10  1  0  0  0  0
 19 20  1  0  0  0  0
 20 15  2  0  0  0  0
 21 22  2  0  0  0  0
 22 23  1  0  0  0  0
 24 28  1  0  0  0  0
 26 29  2  0  0  0  0
 27 24  1  0  0  0  0
 28 25  1  0  0  0  0
 29 30  1  0  0  0  0
 30 25  1  0  0  0  0
 30 22  1  6  0  0  0
 31 24  1  0  0  0  0
 31 29  1  0  0  0  0
M  END
>  <MODEL>
3

>  <REMARK>
 VINA RESULT:      -9.4      1.232      1.567
  Name = 
  2 active torsions:
  status: ('A' for Active; 'I' for Inactive)
    1  A    between atoms: C_5  and  C_30
    2  A    between atoms: C_10  and  N_16
                            x       y       z     vdW  Elec       q    Type
                         _______ _______ _______ _____ _____    ______ ____

>  <TORSDO>
F 2

$$$$
=
 OpenBabel11122411163D

 31 35  0  0  1  0  0  0  0  0999 V2000
  190.2840  176.8960  146.0200 C   0  0  0  0  0  0  0  0  0  0  0  0
  187.5470  177.2280  143.3940 C   0  0  2  0  0  3  0  0  0  0  0  0
  186.4010  177.9950  144.0180 C   0  0  0  0  0  0  0  0  0  0  0  0
  185.1030  178.6520  145.9660 C   0  0  0  0  0  0  0  0  0  0  0  0
  188.8630  177.4030  144.1170 C   0  0  0  0  0  0  0  0  0  0  0  0
  191.3030  177.6770  145.4730 C   0  0  0  0  0  3  0  0  0  0  0  0
  186.2110  178.0080  145.4080 C   0  0  0  0  0  3  0  0  0  0  0  0
  188.4580  178.8100  141.5880 C   0  0  2  0  0  3  0  0  0  0  0  0
  190.4720  176.2710  147.2070 F   0  0  0  0  0  0  0  0  0  0  0  0
  185.6250  178.6050  141.7030 C   0  0  0  0  0  2  0  0  0  0  0  0
  184.9340  178.6720  147.3440 O   0  0  0  0  0  1  0  0  0  0  0  0
  189.7400  178.7940  142.2830 N   0  0  0  0  0  2  0  0  0  0  0  0
  187.6670  177.5210  141.8810 C   0  0  2  0  0  3  0  0  0  0  0  0
  189.0700  176.7530  145.3420 C   0  0  0  0  0  3  0  0  0  0  0  0
  184.1670  179.2760  145.1380 C   0  0  0  0  0  3  0  0  0  0  0  0
  189.8960  178.1870  143.5670 C   0  0  0  0  0  0  0  0  0  0  0  0
  191.1120  178.3170  144.2460 C   0  0  0  0  0  3  0  0  0  0  0  0
  186.3930  177.5030  141.2580 O   0  0  0  0  0  0  0  0  0  0  0  0
  185.4310  178.5900  143.1900 C   0  0  0  0  0  0  0  0  0  0  0  0
  184.3330  179.2470  143.7510 C   0  0  0  0  0  3  0  0  0  0  0  0
  189.8400  176.9310  139.9500 O   0  0  0  0  0  0  0  0  0  0  0  0
  189.3730  177.9610  139.3910 C   0  0  0  0  0  0  0  0  0  0  0  0
  188.6780  178.9460  140.1570 N   0  0  0  0  0  2  0  0  0  0  0  0
  188.0370  176.5290  136.0170 N   0  0  0  0  0  0  0  0  0  0  0  0
  188.2370  178.6270  137.2620 C   0  0  0  0  0  2  0  0  0  0  0  0
  191.2930  176.7520  137.1870 O   0  0  0  0  0  0  0  0  0  0  0  0
  187.1010  175.4740  135.6740 C   0  0  0  0  0  1  0  0  0  0  0  0
  187.3350  177.4380  136.9220 C   0  0  0  0  0  2  0  0  0  0  0  0
  190.0890  176.9370  137.2530 C   0  0  0  0  0  0  0  0  0  0  0  0
  189.5450  178.1700  137.9190 C   0  0  2  0  0  3  0  0  0  0  0  0
  189.1370  175.8950  136.7440 C   0  0  0  0  0  2  0  0  0  0  0  0
  1  9  1  0  0  0  0
  2  3  1  1  0  0  0
  2  5  1  0  0  0  0
  3  7  1  0  0  0  0
  4 11  1  0  0  0  0
  5 14  1  0  0  0  0
  6  1  1  0  0  0  0
  7  4  2  0  0  0  0
  8 23  1  6  0  0  0
  8 13  1  0  0  0  0
  8 12  1  0  0  0  0
 10 19  1  0  0  0  0
 12 16  1  0  0  0  0
 13 18  1  1  0  0  0
 13  2  1  0  0  0  0
 14  1  2  0  0  0  0
 15  4  1  0  0  0  0
 16  5  2  0  0  0  0
 16 17  1  0  0  0  0
 17  6  2  0  0  0  0
 18 10  1  0  0  0  0
 19 20  1  0  0  0  0
 19  3  2  0  0  0  0
 20 15  2  0  0  0  0
 22 21  2  0  0  0  0
 22 23  1  0  0  0  0
 24 31  1  0  0  0  0
 24 28  1  0  0  0  0
 25 30  1  0  0  0  0
 26 29  2  0  0  0  0
 27 24  1  0  0  0  0
 28 25  1  0  0  0  0
 29 30  1  0  0  0  0
 30 22  1  1  0  0  0
 31 29  1  0  0  0  0
M  END
>  <MODEL>
4

>  <REMARK>
 VINA RESULT:      -9.4      3.127      4.367
  Name = 
  2 active torsions:
  status: ('A' for Active; 'I' for Inactive)
    1  A    between atoms: C_5  and  C_30
    2  A    between atoms: C_10  and  N_16
                            x       y       z     vdW  Elec       q    Type
                         _______ _______ _______ _____ _____    ______ ____

>  <TORSDO>
F 2

$$$$
=
 OpenBabel11122411163D

 31 35  0  0  1  0  0  0  0  0999 V2000
  189.0550  177.8820  143.9270 C   0  0  0  0  0  0  0  0  0  0  0  0
  186.8370  178.9740  141.0320 C   0  0  2  0  0  3  0  0  0  0  0  0
  187.2690  178.2020  139.8040 C   0  0  0  0  0  0  0  0  0  0  0  0
  188.9810  177.0480  138.5210 C   0  0  0  0  0  0  0  0  0  0  0  0
  187.2830  178.3490  142.3340 C   0  0  0  0  0  0  0  0  0  0  0  0
  188.1430  177.2290  144.7570 C   0  0  0  0  0  3  0  0  0  0  0  0
  188.5700  177.6890  139.6930 C   0  0  0  0  0  3  0  0  0  0  0  0
  184.4830  178.0850  141.5430 C   0  0  2  0  0  3  0  0  0  0  0  0
  190.3570  177.9730  144.2900 F   0  0  0  0  0  0  0  0  0  0  0  0
  185.0020  178.6380  138.8030 C   0  0  0  0  0  2  0  0  0  0  0  0
  190.2660  176.5290  138.4280 O   0  0  0  0  0  1  0  0  0  0  0  0
  184.9770  177.6490  142.8440 N   0  0  0  0  0  2  0  0  0  0  0  0
  185.3190  179.2650  141.0130 C   0  0  2  0  0  3  0  0  0  0  0  0
  188.6270  178.4460  142.7230 C   0  0  0  0  0  3  0  0  0  0  0  0
  188.1010  176.9290  137.4430 C   0  0  0  0  0  3  0  0  0  0  0  0
  186.3660  177.6930  143.1780 C   0  0  0  0  0  0  0  0  0  0  0  0
  186.7990  177.1390  144.3860 C   0  0  0  0  0  3  0  0  0  0  0  0
  184.9030  179.7030  139.7300 O   0  0  0  0  0  0  0  0  0  0  0  0
  186.4030  178.1140  138.6990 C   0  0  0  0  0  0  0  0  0  0  0  0
  186.8110  177.4590  137.5330 C   0  0  0  0  0  3  0  0  0  0  0  0
  182.3150  176.8490  140.1640 O   0  0  0  0  0  0  0  0  0  0  0  0
  182.0440  177.8050  140.9410 C   0  0  0  0  0  0  0  0  0  0  0  0
  183.0850  178.4740  141.6540 N   0  0  0  0  0  2  0  0  0  0  0  0
  179.4360  180.1390  139.2180 N   0  0  0  0  0  0  0  0  0  0  0  0
  179.7470  177.8220  139.9460 C   0  0  0  0  0  2  0  0  0  0  0  0
  180.6610  180.2100  142.4600 O   0  0  0  0  0  0  0  0  0  0  0  0
  179.4740  180.9960  138.0480 C   0  0  0  0  0  1  0  0  0  0  0  0
  179.8450  178.8060  138.7770 C   0  0  0  0  0  2  0  0  0  0  0  0
  180.5560  179.7440  141.3380 C   0  0  0  0  0  0  0  0  0  0  0  0
  180.6300  178.2580  141.1220 C   0  0  2  0  0  3  0  0  0  0  0  0
  180.4370  180.6550  140.1510 C   0  0  0  0  0  2  0  0  0  0  0  0
  1  9  1  0  0  0  0
  1  6  1  0  0  0  0
  2  3  1  6  0  0  0
  2  5  1  0  0  0  0
  4  7  2  0  0  0  0
  5 14  1  0  0  0  0
  5 16  2  0  0  0  0
  7  3  1  0  0  0  0
  8 23  1  1  0  0  0
  8 12  1  0  0  0  0
 10 18  1  0  0  0  0
 11  4  1  0  0  0  0
 12 16  1  0  0  0  0
 13 18  1  6  0  0  0
 13  2  1  0  0  0  0
 13  8  1  0  0  0  0
 14  1  2  0  0  0  0
 15 20  2  0  0  0  0
 15  4  1  0  0  0  0
 16 17  1  0  0  0  0
 17  6  2  0  0  0  0
 19 10  1  0  0  0  0
 19  3  2  0  0  0  0
 20 19  1  0  0  0  0
 21 22  2  0  0  0  0
 22 23  1  0  0  0  0
 24 31  1  0  0  0  0
 25 30  1  0  0  0  0
 27 24  1  0  0  0  0
 28 24  1  0  0  0  0
 28 25  1  0  0  0  0
 29 26  2  0  0  0  0
 30 22  1  6  0  0  0
 30 29  1  0  0  0  0
 31 29  1  0  0  0  0
M  END
>  <MODEL>
5

>  <REMARK>
 VINA RESULT:      -8.3      2.770      5.025
  Name = 
  2 active torsions:
  status: ('A' for Active; 'I' for Inactive)
    1  A    between atoms: C_5  and  C_30
    2  A    between atoms: C_10  and  N_16
                            x       y       z     vdW  Elec       q    Type
                         _______ _______ _______ _____ _____    ______ ____

>  <TORSDO>
F 2

$$$$
=
 OpenBabel11122411163D

 31 35  0  0  1  0  0  0  0  0999 V2000
  186.7660  178.2530  146.9930 C   0  0  0  0  0  0  0  0  0  0  0  0
  189.8000  178.1330  144.6960 C   0  0  2  0  0  3  0  0  0  0  0  0
  190.6440  176.9460  145.1090 C   0  0  0  0  0  0  0  0  0  0  0  0
  191.4230  175.3890  146.8050 C   0  0  0  0  0  0  0  0  0  0  0  0
  188.3700  178.0620  145.1790 C   0  0  0  0  0  0  0  0  0  0  0  0
  185.7240  177.9700  146.1070 C   0  0  0  0  0  3  0  0  0  0  0  0
  190.5810  176.4330  146.4130 C   0  0  0  0  0  3  0  0  0  0  0  0
  188.9250  177.5060  142.3650 C   0  0  2  0  0  3  0  0  0  0  0  0
  186.5000  178.4810  148.3010 F   0  0  0  0  0  0  0  0  0  0  0  0
  191.6770  176.9550  142.8140 C   0  0  0  0  0  2  0  0  0  0  0  0
  191.3410  174.8780  148.0930 O   0  0  0  0  0  1  0  0  0  0  0  0
  187.5690  177.6090  142.8940 N   0  0  0  0  0  2  0  0  0  0  0  0
  189.8910  178.3900  143.1740 C   0  0  2  0  0  3  0  0  0  0  0  0
  188.0830  178.3050  146.5300 C   0  0  0  0  0  3  0  0  0  0  0  0
  192.3480  174.8590  145.9020 C   0  0  0  0  0  3  0  0  0  0  0  0
  187.3140  177.7820  144.2890 C   0  0  0  0  0  0  0  0  0  0  0  0
  185.9970  177.7410  144.7570 C   0  0  0  0  0  3  0  0  0  0  0  0
  191.2330  178.2960  142.7240 O   0  0  0  0  0  0  0  0  0  0  0  0
  191.6060  176.4350  144.2190 C   0  0  0  0  0  0  0  0  0  0  0  0
  192.4370  175.3800  144.6090 C   0  0  0  0  0  3  0  0  0  0  0  0
  190.1800  176.0610  140.2530 O   0  0  0  0  0  0  0  0  0  0  0  0
  189.5780  177.1280  139.9530 C   0  0  0  0  0  0  0  0  0  0  0  0
  188.9360  177.9040  140.9660 N   0  0  0  0  0  2  0  0  0  0  0  0
  188.1970  175.9800  136.4890 N   0  0  0  0  0  0  0  0  0  0  0  0
  188.0910  177.8450  138.0720 C   0  0  0  0  0  2  0  0  0  0  0  0
  191.4440  176.7530  137.4270 O   0  0  0  0  0  0  0  0  0  0  0  0
  187.4730  174.8070  136.0360 C   0  0  0  0  0  1  0  0  0  0  0  0
  187.4280  176.5500  137.5940 C   0  0  0  0  0  2  0  0  0  0  0  0
  190.2450  176.6450  137.6170 C   0  0  0  0  0  0  0  0  0  0  0  0
  189.5320  177.6010  138.5340 C   0  0  2  0  0  3  0  0  0  0  0  0
  189.4820  175.5070  137.0040 C   0  0  0  0  0  2  0  0  0  0  0  0
  1  9  1  0  0  0  0
  2  3  1  6  0  0  0
  2  5  1  0  0  0  0
  3  7  1  0  0  0  0
  4 11  1  0  0  0  0
  5 14  2  0  0  0  0
  6  1  2  0  0  0  0
  7  4  2  0  0  0  0
  8 23  1  6  0  0  0
  8 12  1  0  0  0  0
  8 13  1  0  0  0  0
 10 19  1  0  0  0  0
 12 16  1  0  0  0  0
 13 18  1  6  0  0  0
 13  2  1  0  0  0  0
 14  1  1  0  0  0  0
 15  4  1  0  0  0  0
 16 17  2  0  0  0  0
 16  5  1  0  0  0  0
 17  6  1  0  0  0  0
 18 10  1  0  0  0  0
 19 20  1  0  0  0  0
 19  3  2  0  0  0  0
 20 15  2  0  0  0  0
 22 21  2  0  0  0  0
 22 23  1  0  0  0  0
 24 31  1  0  0  0  0
 24 28  1  0  0  0  0
 25 30  1  0  0  0  0
 26 29  2  0  0  0  0
 27 24  1  0  0  0  0
 28 25  1  0  0  0  0
 29 30  1  0  0  0  0
 30 22  1  1  0  0  0
 31 29  1  0  0  0  0
M  END
>  <MODEL>
6

>  <REMARK>
 VINA RESULT:      -8.2      4.129      5.849
  Name = 
  2 active torsions:
  status: ('A' for Active; 'I' for Inactive)
    1  A    between atoms: C_5  and  C_30
    2  A    between atoms: C_10  and  N_16
                            x       y       z     vdW  Elec       q    Type
                         _______ _______ _______ _____ _____    ______ ____

>  <TORSDO>
F 2

$$$$
=
 OpenBabel11122411163D

 31 35  0  0  1  0  0  0  0  0999 V2000
  184.6800  179.0020  144.5660 C   0  0  0  0  0  0  0  0  0  0  0  0
  188.4490  178.6280  144.1780 C   0  0  2  0  0  3  0  0  0  0  0  0
  188.9560  177.8250  145.3560 C   0  0  0  0  0  0  0  0  0  0  0  0
  188.7670  177.1140  147.6740 C   0  0  0  0  0  0  0  0  0  0  0  0
  186.9650  178.4790  143.9320 C   0  0  0  0  0  0  0  0  0  0  0  0
  184.2050  178.2530  143.4880 C   0  0  0  0  0  3  0  0  0  0  0  0
  188.2480  177.7930  146.5680 C   0  0  0  0  0  3  0  0  0  0  0  0
  188.8240  177.0890  142.1570 C   0  0  2  0  0  3  0  0  0  0  0  0
  183.8090  179.6190  145.3990 F   0  0  0  0  0  0  0  0  0  0  0  0
  190.9860  177.2200  143.9980 C   0  0  0  0  0  2  0  0  0  0  0  0
  188.0500  177.0760  148.8620 O   0  0  0  0  0  1  0  0  0  0  0  0
  187.3870  177.1300  141.9140 N   0  0  0  0  0  2  0  0  0  0  0  0
  189.2830  178.3540  142.9060 C   0  0  2  0  0  3  0  0  0  0  0  0
  186.0550  179.1210  144.7830 C   0  0  0  0  0  3  0  0  0  0  0  0
  190.0060  176.4760  147.5840 C   0  0  0  0  0  3  0  0  0  0  0  0
  186.4800  177.7280  142.8430 C   0  0  0  0  0  0  0  0  0  0  0  0
  185.1030  177.6210  142.6250 C   0  0  0  0  0  3  0  0  0  0  0  0
  190.6710  178.3460  143.2010 O   0  0  0  0  0  0  0  0  0  0  0  0
  190.2210  177.2140  145.2880 C   0  0  0  0  0  0  0  0  0  0  0  0
  190.7310  176.5230  146.3910 C   0  0  0  0  0  3  0  0  0  0  0  0
  188.2780  178.6280  139.8200 O   0  0  0  0  0  0  0  0  0  0  0  0
  189.2130  177.7830  139.7580 C   0  0  0  0  0  0  0  0  0  0  0  0
  189.5320  176.9740  140.8910 N   0  0  0  0  0  2  0  0  0  0  0  0
  188.7180  176.4930  136.1100 N   0  0  0  0  0  0  0  0  0  0  0  0
  189.4300  178.4730  137.3610 C   0  0  0  0  0  2  0  0  0  0  0  0
  190.9670  175.4530  138.5350 O   0  0  0  0  0  0  0  0  0  0  0  0
  187.5930  175.9250  135.3900 C   0  0  0  0  0  1  0  0  0  0  0  0
  188.2660  177.7720  136.6550 C   0  0  0  0  0  2  0  0  0  0  0  0
  190.0790  176.1650  138.0960 C   0  0  0  0  0  0  0  0  0  0  0  0
  189.9990  177.6120  138.4960 C   0  0  2  0  0  3  0  0  0  0  0  0
  189.0100  175.5840  137.2190 C   0  0  0  0  0  2  0  0  0  0  0  0
  1 14  1  0  0  0  0
  1  9  1  0  0  0  0
  2  5  1  6  0  0  0
  2  3  1  0  0  0  0
  3  7  1  0  0  0  0
  4 11  1  0  0  0  0
  5 14  2  0  0  0  0
  6  1  2  0  0  0  0
  7  4  2  0  0  0  0
  8 23  1  6  0  0  0
  8 13  1  0  0  0  0
 10 19  1  0  0  0  0
 12  8  1  0  0  0  0
 12 16  1  0  0  0  0
 13 18  1  1  0  0  0
 13  2  1  0  0  0  0
 15  4  1  0  0  0  0
 16  5  1  0  0  0  0
 17 16  2  0  0  0  0
 17  6  1  0  0  0  0
 18 10  1  0  0  0  0
 19  3  2  0  0  0  0
 19 20  1  0  0  0  0
 20 15  2  0  0  0  0
 22 21  2  0  0  0  0
 22 23  1  0  0  0  0
 24 28  1  0  0  0  0
 24 31  1  0  0  0  0
 25 30  1  0  0  0  0
 27 24  1  0  0  0  0
 28 25  1  0  0  0  0
 29 30  1  0  0  0  0
 29 26  2  0  0  0  0
 30 22  1  1  0  0  0
 31 29  1  0  0  0  0
M  END
>  <MODEL>
7

>  <REMARK>
 VINA RESULT:      -8.0      3.582      5.468
  Name = 
  2 active torsions:
  status: ('A' for Active; 'I' for Inactive)
    1  A    between atoms: C_5  and  C_30
    2  A    between atoms: C_10  and  N_16
                            x       y       z     vdW  Elec       q    Type
                         _______ _______ _______ _____ _____    ______ ____

>  <TORSDO>
F 2

$$$$
=
 OpenBabel11122411163D

 31 35  0  0  1  0  0  0  0  0999 V2000
  188.9680  178.0040  143.9050 C   0  0  0  0  0  0  0  0  0  0  0  0
  187.0740  178.8000  140.6990 C   0  0  2  0  0  3  0  0  0  0  0  0
  187.5640  177.8500  139.6270 C   0  0  0  0  0  0  0  0  0  0  0  0
  189.3090  176.4540  138.6700 C   0  0  0  0  0  0  0  0  0  0  0  0
  187.3700  178.3350  142.1070 C   0  0  0  0  0  0  0  0  0  0  0  0
  187.9510  177.5120  144.7250 C   0  0  0  0  0  3  0  0  0  0  0  0
  188.8370  177.2660  139.7050 C   0  0  0  0  0  3  0  0  0  0  0  0
  184.6370  178.1000  141.1000 C   0  0  2  0  0  3  0  0  0  0  0  0
  190.2370  178.0820  144.3730 F   0  0  0  0  0  0  0  0  0  0  0  0
  185.4210  178.2540  138.3720 C   0  0  0  0  0  2  0  0  0  0  0  0
  190.5640  175.8690  138.7650 O   0  0  0  0  0  1  0  0  0  0  0  0
  184.9910  177.8200  142.4870 N   0  0  0  0  0  2  0  0  0  0  0  0
  185.5840  179.1570  140.5020 C   0  0  2  0  0  3  0  0  0  0  0  0
  188.6780  178.4200  142.6030 C   0  0  0  0  0  3  0  0  0  0  0  0
  188.5190  176.2330  137.5390 C   0  0  0  0  0  3  0  0  0  0  0  0
  186.3460  177.8420  142.9400 C   0  0  0  0  0  0  0  0  0  0  0  0
  186.6410  177.4360  144.2450 C   0  0  0  0  0  3  0  0  0  0  0  0
  185.3060  179.4370  139.1400 O   0  0  0  0  0  0  0  0  0  0  0  0
  186.7930  177.6550  138.4670 C   0  0  0  0  0  0  0  0  0  0  0  0
  187.2600  176.8310  137.4400 C   0  0  0  0  0  3  0  0  0  0  0  0
  182.4910  176.7070  139.8430 O   0  0  0  0  0  0  0  0  0  0  0  0
  182.2280  177.8120  140.3910 C   0  0  0  0  0  0  0  0  0  0  0  0
  183.2600  178.5650  141.0300 N   0  0  0  0  0  2  0  0  0  0  0  0
  179.4530  178.9280  142.8950 N   0  0  0  0  0  0  0  0  0  0  0  0
  180.7700  179.7530  141.0040 C   0  0  0  0  0  2  0  0  0  0  0  0
  179.3420  176.5190  140.4050 O   0  0  0  0  0  0  0  0  0  0  0  0
  179.3630  178.9650  144.3430 C   0  0  0  0  0  1  0  0  0  0  0  0
  180.6540  179.6770  142.5290 C   0  0  0  0  0  2  0  0  0  0  0  0
  179.8730  177.4120  141.0430 C   0  0  0  0  0  0  0  0  0  0  0  0
  180.8340  178.3560  140.3750 C   0  0  2  0  0  3  0  0  0  0  0  0
  179.6380  177.5260  142.5210 C   0  0  0  0  0  2  0  0  0  0  0  0
  1  9  1  0  0  0  0
  1  6  1  0  0  0  0
  2  3  1  6  0  0  0
  2  5  1  0  0  0  0
  3  7  1  0  0  0  0
  4 11  1  0  0  0  0
  4  7  2  0  0  0  0
  5 14  1  0  0  0  0
  5 16  2  0  0  0  0
  8 23  1  1  0  0  0
  8 12  1  0  0  0  0
 10 19  1  0  0  0  0
 10 18  1  0  0  0  0
 12 16  1  0  0  0  0
 13 18  1  6  0  0  0
 13  2  1  0  0  0  0
 13  8  1  0  0  0  0
 14  1  2  0  0  0  0
 15  4  1  0  0  0  0
 16 17  1  0  0  0  0
 17  6  2  0  0  0  0
 19  3  2  0  0  0  0
 20 15  2  0  0  0  0
 20 19  1  0  0  0  0
 21 22  2  0  0  0  0
 22 23  1  0  0  0  0
 24 27  1  0  0  0  0
 25 28  1  0  0  0  0
 26 29  2  0  0  0  0
 28 24  1  0  0  0  0
 29 31  1  0  0  0  0
 30 22  1  1  0  0  0
 30 25  1  0  0  0  0
 30 29  1  0  0  0  0
 31 24  1  0  0  0  0
M  END
>  <MODEL>
8

>  <REMARK>
 VINA RESULT:      -7.8      2.788      5.121
  Name = 
  2 active torsions:
  status: ('A' for Active; 'I' for Inactive)
    1  A    between atoms: C_5  and  C_30
    2  A    between atoms: C_10  and  N_16
                            x       y       z     vdW  Elec       q    Type
                         _______ _______ _______ _____ _____    ______ ____

>  <TORSDO>
F 2

$$$$
=
 OpenBabel11122411163D

 31 35  0  0  1  0  0  0  0  0999 V2000
  179.8470  179.1480  143.3470 C   0  0  0  0  0  0  0  0  0  0  0  0
  183.3880  179.3630  141.9640 C   0  0  2  0  0  3  0  0  0  0  0  0
  184.3280  178.8130  143.0150 C   0  0  0  0  0  0  0  0  0  0  0  0
  184.8830  178.3800  145.3420 C   0  0  0  0  0  0  0  0  0  0  0  0
  181.9490  178.9380  142.1490 C   0  0  0  0  0  0  0  0  0  0  0  0
  179.2670  178.1980  142.5040 C   0  0  0  0  0  3  0  0  0  0  0  0
  183.9750  178.8160  144.3740 C   0  0  0  0  0  3  0  0  0  0  0  0
  183.5240  177.6650  140.0430 C   0  0  2  0  0  3  0  0  0  0  0  0
  179.1160  179.7110  144.3380 F   0  0  0  0  0  0  0  0  0  0  0  0
  186.0180  178.3880  141.2000 C   0  0  0  0  0  2  0  0  0  0  0  0
  184.5170  178.3730  146.6820 O   0  0  0  0  0  1  0  0  0  0  0  0
  182.0930  177.4330  140.2040 N   0  0  0  0  0  2  0  0  0  0  0  0
  183.9040  179.0730  140.5360 C   0  0  2  0  0  3  0  0  0  0  0  0
  181.1820  179.5220  143.1670 C   0  0  0  0  0  3  0  0  0  0  0  0
  186.1570  177.9520  144.9640 C   0  0  0  0  0  3  0  0  0  0  0  0
  181.3580  177.9840  141.2980 C   0  0  0  0  0  0  0  0  0  0  0  0
  180.0190  177.6220  141.4770 C   0  0  0  0  0  3  0  0  0  0  0  0
  185.2950  179.3350  140.4370 O   0  0  0  0  0  0  0  0  0  0  0  0
  185.6270  178.4190  142.6480 C   0  0  0  0  0  0  0  0  0  0  0  0
  186.5280  177.9680  143.6170 C   0  0  0  0  0  3  0  0  0  0  0  0
  183.3020  175.2520  138.5410 O   0  0  0  0  0  0  0  0  0  0  0  0
  183.7460  176.2720  137.9460 C   0  0  0  0  0  0  0  0  0  0  0  0
  183.8920  177.5100  138.6440 N   0  0  0  0  0  2  0  0  0  0  0  0
  186.1290  174.2430  135.6160 N   0  0  0  0  0  0  0  0  0  0  0  0
  183.7700  174.8400  135.8920 C   0  0  0  0  0  2  0  0  0  0  0  0
  185.9650  177.6620  136.1720 O   0  0  0  0  0  0  0  0  0  0  0  0
  187.0830  173.1740  135.8420 C   0  0  0  0  0  1  0  0  0  0  0  0
  184.8530  173.7930  136.1700 C   0  0  0  0  0  2  0  0  0  0  0  0
  185.5940  176.5090  136.3140 C   0  0  0  0  0  0  0  0  0  0  0  0
  184.1340  176.1990  136.5030 C   0  0  2  0  0  3  0  0  0  0  0  0
  186.5970  175.3950  136.3860 C   0  0  0  0  0  2  0  0  0  0  0  0
  1  9  1  0  0  0  0
  2  5  1  6  0  0  0
  2  3  1  0  0  0  0
  3  7  1  0  0  0  0
  4 11  1  0  0  0  0
  5 14  2  0  0  0  0
  6  1  2  0  0  0  0
  7  4  2  0  0  0  0
  8 23  1  6  0  0  0
  8 12  1  0  0  0  0
  8 13  1  0  0  0  0
 10 19  1  0  0  0  0
 12 16  1  0  0  0  0
 13 18  1  1  0  0  0
 13  2  1  0  0  0  0
 14  1  1  0  0  0  0
 15  4  1  0  0  0  0
 16 17  2  0  0  0  0
 16  5  1  0  0  0  0
 17  6  1  0  0  0  0
 18 10  1  0  0  0  0
 19  3  2  0  0  0  0
 19 20  1  0  0  0  0
 20 15  2  0  0  0  0
 22 21  2  0  0  0  0
 22 23  1  0  0  0  0
 24 27  1  0  0  0  0
 24 28  1  0  0  0  0
 24 31  1  0  0  0  0
 25 28  1  0  0  0  0
 25 30  1  0  0  0  0
 26 29  2  0  0  0  0
 29 31  1  0  0  0  0
 29 30  1  0  0  0  0
 30 22  1  1  0  0  0
M  END
>  <MODEL>
9

>  <REMARK>
 VINA RESULT:      -7.7      3.801      6.095
  Name = 
  2 active torsions:
  status: ('A' for Active; 'I' for Inactive)
    1  A    between atoms: C_5  and  C_30
    2  A    between atoms: C_10  and  N_16
                            x       y       z     vdW  Elec       q    Type
                         _______ _______ _______ _____ _____    ______ ____

>  <TORSDO>
F 2

$$$$
