=
 OpenBabel11122412153D

 34 41  0  0  1  0  0  0  0  0999 V2000
  185.5360  178.3180  145.1370 C   0  0  0  0  0  0  0  0  0  0  0  0
  183.0300  178.9530  145.0670 C   0  0  0  0  0  2  0  0  0  0  0  0
  191.2090  177.4980  142.0880 C   0  0  2  0  0  3  0  0  0  0  0  0
  187.8800  177.7010  144.9460 C   0  0  0  0  0  0  0  0  0  0  0  0
  188.8370  177.3270  142.6660 C   0  0  0  0  0  0  0  0  0  0  0  0
  189.9450  177.1580  140.0160 S   0  0  0  0  0  0  0  0  0  0  0  0
  191.6070  177.6050  140.6360 C   0  0  0  0  0  2  0  0  0  0  0  0
  191.2650  176.2370  144.2490 C   0  0  0  0  0  2  0  0  0  0  0  0
  184.1870  178.5900  143.0590 C   0  0  0  0  0  0  0  0  0  0  0  0
  182.8930  178.8830  140.1940 C   0  0  0  0  0  2  0  0  0  0  0  0
  187.6420  177.5780  142.1180 C   0  0  0  0  0  3  0  0  0  0  0  0
  190.3500  177.3660  144.7550 C   0  0  0  0  0  2  0  0  0  0  0  0
  185.2430  178.2760  142.2730 C   0  0  0  0  0  0  0  0  0  0  0  0
  182.1200  179.0830  143.8780 C   0  0  0  0  0  3  0  0  0  0  0  0
  189.0170  177.3860  144.1140 N   0  0  0  0  0  0  0  0  0  0  0  0
  192.0700  176.6420  142.9990 C   0  0  0  0  0  2  0  0  0  0  0  0
  182.1490  178.8630  141.4430 N   0  0  0  0  0  0  0  0  0  0  0  0
  186.6440  177.9960  144.3460 C   0  0  0  0  0  0  0  0  0  0  0  0
  189.9290  176.7770  141.7980 C   0  0  1  0  0  3  0  0  0  0  0  0
  186.5110  177.9690  142.9110 N   0  0  0  0  0  0  0  0  0  0  0  0
  186.8700  178.0470  147.1350 C   0  0  0  0  0  3  0  0  0  0  0  0
  183.9310  177.7870  140.1710 C   0  0  0  0  0  2  0  0  0  0  0  0
  187.9810  177.7290  146.3470 C   0  0  0  0  0  3  0  0  0  0  0  0
  185.1970  178.3520  140.7720 C   0  0  0  0  0  2  0  0  0  0  0  0
  182.7880  178.8980  142.7360 C   0  0  0  0  0  0  0  0  0  0  0  0
  185.6440  178.3430  146.5320 C   0  0  0  0  0  3  0  0  0  0  0  0
  184.3100  178.6130  144.4700 N   0  0  0  0  0  0  0  0  0  0  0  0
  180.6970  178.7910  141.3310 C   0  0  0  0  0  2  0  0  0  0  0  0
  180.2800  178.8120  139.8680 C   0  0  0  0  0  2  0  0  0  0  0  0
  180.5960  175.5770  139.4560 N   0  0  0  0  0  2  0  0  0  0  0  0
  179.2500  176.9440  140.8270 C   0  0  0  0  0  2  0  0  0  0  0  0
  179.4400  177.6620  139.5790 N   0  0  0  0  0  0  0  0  0  0  0  0
  179.6900  175.5270  140.5830 C   0  0  0  0  0  2  0  0  0  0  0  0
  180.2180  176.7750  138.7180 C   0  0  0  0  0  2  0  0  0  0  0  0
  1 26  1  0  0  0  0
  3  7  1  6  0  0  0
  3 16  1  0  0  0  0
  4 23  2  0  0  0  0
  5 15  1  0  0  0  0
  6  7  1  0  0  0  0
  8 12  1  0  0  0  0
  9 27  1  0  0  0  0
 10 17  1  0  0  0  0
 11  5  2  0  0  0  0
 11 20  1  0  0  0  0
 13 20  1  0  0  0  0
 13  9  2  0  0  0  0
 14  2  1  0  0  0  0
 15 12  1  0  0  0  0
 15  4  1  0  0  0  0
 16  8  1  0  0  0  0
 17 25  1  0  0  0  0
 18  4  1  0  0  0  0
 18  1  2  0  0  0  0
 19  6  1  6  0  0  0
 19  3  1  0  0  0  0
 19  5  1  0  0  0  0
 20 18  1  0  0  0  0
 22 10  1  0  0  0  0
 22 24  1  0  0  0  0
 23 21  1  0  0  0  0
 24 13  1  0  0  0  0
 25  9  1  0  0  0  0
 25 14  2  0  0  0  0
 26 21  2  0  0  0  0
 27  2  1  0  0  0  0
 27  1  1  0  0  0  0
 28 17  1  0  0  0  0
 29 28  1  0  0  0  0
 30 33  1  0  0  0  0
 32 29  1  0  0  0  0
 32 31  1  0  0  0  0
 33 31  1  0  0  0  0
 34 30  1  0  0  0  0
 34 32  1  0  0  0  0
M  END
>  <MODEL>
1

>  <REMARK>
 VINA RESULT:      -9.4      0.000      0.000
  Name = 
  3 active torsions:
  status: ('A' for Active; 'I' for Inactive)
    1  A    between atoms: N_17  and  C_28
    2  A    between atoms: C_28  and  C_29
    3  A    between atoms: C_29  and  N_32
                            x       y       z     vdW  Elec       q    Type
                         _______ _______ _______ _____ _____    ______ ____

>  <TORSDO>
F 3

$$$$
=
 OpenBabel11122412153D

 34 41  0  0  1  0  0  0  0  0999 V2000
  185.5180  178.3270  145.1100 C   0  0  0  0  0  0  0  0  0  0  0  0
  183.0140  178.9670  145.0160 C   0  0  0  0  0  2  0  0  0  0  0  0
  191.2200  177.5010  142.1160 C   0  0  2  0  0  3  0  0  0  0  0  0
  187.8620  177.7050  144.9400 C   0  0  0  0  0  0  0  0  0  0  0  0
  188.8420  177.3330  142.6700 C   0  0  0  0  0  0  0  0  0  0  0  0
  189.9750  177.1680  140.0310 S   0  0  0  0  0  0  0  0  0  0  0  0
  191.6320  177.6100  140.6680 C   0  0  0  0  0  2  0  0  0  0  0  0
  191.2510  176.2350  144.2750 C   0  0  0  0  0  2  0  0  0  0  0  0
  184.1900  178.6060  143.0190 C   0  0  0  0  0  0  0  0  0  0  0  0
  182.9250  178.9080  140.1420 C   0  0  0  0  0  2  0  0  0  0  0  0
  187.6520  177.5890  142.1100 C   0  0  0  0  0  3  0  0  0  0  0  0
  190.3340  177.3650  144.7740 C   0  0  0  0  0  2  0  0  0  0  0  0
  185.2540  178.2920  142.2430 C   0  0  0  0  0  0  0  0  0  0  0  0
  182.1170  179.1020  143.8180 C   0  0  0  0  0  3  0  0  0  0  0  0
  189.0070  177.3900  144.1190 N   0  0  0  0  0  0  0  0  0  0  0  0
  192.0690  176.6410  143.0330 C   0  0  0  0  0  2  0  0  0  0  0  0
  182.1690  178.8870  141.3840 N   0  0  0  0  0  0  0  0  0  0  0  0
  186.6330  178.0040  144.3290 C   0  0  0  0  0  0  0  0  0  0  0  0
  189.9410  176.7830  141.8110 C   0  0  1  0  0  3  0  0  0  0  0  0
  186.5140  177.9810  142.8930 N   0  0  0  0  0  0  0  0  0  0  0  0
  186.8310  178.0480  147.1210 C   0  0  0  0  0  3  0  0  0  0  0  0
  183.9610  177.8100  140.1270 C   0  0  0  0  0  2  0  0  0  0  0  0
  187.9490  177.7300  146.3430 C   0  0  0  0  0  3  0  0  0  0  0  0
  185.2230  178.3710  140.7410 C   0  0  0  0  0  2  0  0  0  0  0  0
  182.7960  178.9180  142.6830 C   0  0  0  0  0  0  0  0  0  0  0  0
  185.6120  178.3480  146.5060 C   0  0  0  0  0  3  0  0  0  0  0  0
  184.2990  178.6250  144.4310 N   0  0  0  0  0  0  0  0  0  0  0  0
  180.7180  178.8180  141.2570 C   0  0  0  0  0  2  0  0  0  0  0  0
  180.3240  178.6400  139.7990 C   0  0  0  0  0  2  0  0  0  0  0  0
  180.1230  181.8380  139.1190 N   0  0  0  0  0  2  0  0  0  0  0  0
  179.4460  179.8700  138.0140 C   0  0  0  0  0  2  0  0  0  0  0  0
  179.3110  179.6170  139.4380 N   0  0  0  0  0  0  0  0  0  0  0  0
  179.6210  181.3540  137.8530 C   0  0  0  0  0  2  0  0  0  0  0  0
  179.6700  180.8650  140.1040 C   0  0  0  0  0  2  0  0  0  0  0  0
  1 26  1  0  0  0  0
  3  7  1  6  0  0  0
  3 16  1  0  0  0  0
  4 23  2  0  0  0  0
  5 15  1  0  0  0  0
  6  7  1  0  0  0  0
  8 12  1  0  0  0  0
  9 27  1  0  0  0  0
 10 17  1  0  0  0  0
 11  5  2  0  0  0  0
 11 20  1  0  0  0  0
 13 20  1  0  0  0  0
 13  9  2  0  0  0  0
 14  2  1  0  0  0  0
 15 12  1  0  0  0  0
 15  4  1  0  0  0  0
 16  8  1  0  0  0  0
 17 25  1  0  0  0  0
 18  4  1  0  0  0  0
 18  1  2  0  0  0  0
 19  6  1  6  0  0  0
 19  3  1  0  0  0  0
 19  5  1  0  0  0  0
 20 18  1  0  0  0  0
 22 10  1  0  0  0  0
 22 24  1  0  0  0  0
 23 21  1  0  0  0  0
 24 13  1  0  0  0  0
 25  9  1  0  0  0  0
 25 14  2  0  0  0  0
 26 21  2  0  0  0  0
 27  2  1  0  0  0  0
 27  1  1  0  0  0  0
 28 17  1  0  0  0  0
 29 28  1  0  0  0  0
 30 34  1  0  0  0  0
 31 32  1  0  0  0  0
 32 29  1  0  0  0  0
 32 34  1  0  0  0  0
 33 31  1  0  0  0  0
 33 30  1  0  0  0  0
M  END
>  <MODEL>
2

>  <REMARK>
 VINA RESULT:      -9.2      1.124      1.881
  Name = 
  3 active torsions:
  status: ('A' for Active; 'I' for Inactive)
    1  A    between atoms: N_17  and  C_28
    2  A    between atoms: C_28  and  C_29
    3  A    between atoms: C_29  and  N_32
                            x       y       z     vdW  Elec       q    Type
                         _______ _______ _______ _____ _____    ______ ____

>  <TORSDO>
F 3

$$$$
=
 OpenBabel11122412153D

 34 41  0  0  1  0  0  0  0  0999 V2000
  184.9890  178.6690  142.3990 C   0  0  0  0  0  0  0  0  0  0  0  0
  183.9990  179.1080  140.0510 C   0  0  0  0  0  2  0  0  0  0  0  0
  190.1340  177.6150  146.2170 C   0  0  2  0  0  3  0  0  0  0  0  0
  186.1370  178.1820  144.4870 C   0  0  0  0  0  0  0  0  0  0  0  0
  188.5130  177.4090  144.3950 C   0  0  0  0  0  0  0  0  0  0  0  0
  191.3140  176.7710  144.2420 S   0  0  0  0  0  0  0  0  0  0  0  0
  191.6030  177.4450  145.9180 C   0  0  0  0  0  2  0  0  0  0  0  0
  188.0740  176.8330  147.4050 C   0  0  0  0  0  2  0  0  0  0  0  0
  186.2310  178.4150  140.2530 C   0  0  0  0  0  0  0  0  0  0  0  0
  188.1890  178.0240  137.8080 C   0  0  0  0  0  2  0  0  0  0  0  0
  188.4840  177.4620  143.0570 C   0  0  0  0  0  3  0  0  0  0  0  0
  187.3860  177.9790  146.6440 C   0  0  0  0  0  2  0  0  0  0  0  0
  187.3550  178.0170  140.8930 C   0  0  0  0  0  0  0  0  0  0  0  0
  184.6420  178.9290  138.7050 C   0  0  0  0  0  3  0  0  0  0  0  0
  187.3380  177.7780  145.1780 N   0  0  0  0  0  0  0  0  0  0  0  0
  189.6000  177.0230  147.5090 C   0  0  0  0  0  2  0  0  0  0  0  0
  186.7520  178.2130  137.6980 N   0  0  0  0  0  0  0  0  0  0  0  0
  186.1400  178.2640  143.0840 C   0  0  0  0  0  0  0  0  0  0  0  0
  189.6890  176.7650  145.0660 C   0  0  1  0  0  3  0  0  0  0  0  0
  187.3310  177.9330  142.3420 N   0  0  0  0  0  0  0  0  0  0  0  0
  183.8110  178.9050  144.4970 C   0  0  0  0  0  3  0  0  0  0  0  0
  188.5170  177.0180  138.8850 C   0  0  0  0  0  2  0  0  0  0  0  0
  184.9610  178.5050  145.1850 C   0  0  0  0  0  3  0  0  0  0  0  0
  188.6590  177.7780  140.1840 C   0  0  0  0  0  2  0  0  0  0  0  0
  185.9190  178.5570  138.8250 C   0  0  0  0  0  0  0  0  0  0  0  0
  183.8220  178.9880  143.1020 C   0  0  0  0  0  3  0  0  0  0  0  0
  185.0560  178.7370  140.9760 N   0  0  0  0  0  0  0  0  0  0  0  0
  186.1730  178.0240  136.3740 C   0  0  0  0  0  2  0  0  0  0  0  0
  187.0860  177.1590  135.5180 C   0  0  0  0  0  2  0  0  0  0  0  0
  186.5300  174.3990  137.1950 N   0  0  0  0  0  2  0  0  0  0  0  0
  185.1770  175.8810  135.9570 C   0  0  0  0  0  2  0  0  0  0  0  0
  186.4750  175.8570  135.3060 N   0  0  0  0  0  0  0  0  0  0  0  0
  185.1480  174.7170  136.9070 C   0  0  0  0  0  2  0  0  0  0  0  0
  187.2780  174.8870  136.0440 C   0  0  0  0  0  2  0  0  0  0  0  0
  1 18  2  0  0  0  0
  1 26  1  0  0  0  0
  2 27  1  0  0  0  0
  3  7  1  1  0  0  0
  3 16  1  0  0  0  0
  4 15  1  0  0  0  0
  4 23  2  0  0  0  0
  5 19  1  0  0  0  0
  5 15  1  0  0  0  0
  6  7  1  0  0  0  0
  8 16  1  0  0  0  0
  9 13  2  0  0  0  0
  9 27  1  0  0  0  0
 10 22  1  0  0  0  0
 11  5  2  0  0  0  0
 12  8  1  0  0  0  0
 13 20  1  0  0  0  0
 14 25  2  0  0  0  0
 14  2  1  0  0  0  0
 15 12  1  0  0  0  0
 17 10  1  0  0  0  0
 17 25  1  0  0  0  0
 18  4  1  0  0  0  0
 19  6  1  6  0  0  0
 19  3  1  0  0  0  0
 20 11  1  0  0  0  0
 20 18  1  0  0  0  0
 21 23  1  0  0  0  0
 22 24  1  0  0  0  0
 24 13  1  0  0  0  0
 25  9  1  0  0  0  0
 26 21  2  0  0  0  0
 27  1  1  0  0  0  0
 28 17  1  0  0  0  0
 29 28  1  0  0  0  0
 31 33  1  0  0  0  0
 32 29  1  0  0  0  0
 32 31  1  0  0  0  0
 32 34  1  0  0  0  0
 33 30  1  0  0  0  0
 34 30  1  0  0  0  0
M  END
>  <MODEL>
3

>  <REMARK>
 VINA RESULT:      -9.1      3.202      4.928
  Name = 
  3 active torsions:
  status: ('A' for Active; 'I' for Inactive)
    1  A    between atoms: N_17  and  C_28
    2  A    between atoms: C_28  and  C_29
    3  A    between atoms: C_29  and  N_32
                            x       y       z     vdW  Elec       q    Type
                         _______ _______ _______ _____ _____    ______ ____

>  <TORSDO>
F 3

$$$$
=
 OpenBabel11122412153D

 34 41  0  0  1  0  0  0  0  0999 V2000
  188.9730  177.3820  144.1580 C   0  0  0  0  0  0  0  0  0  0  0  0
  191.4140  176.8060  143.5270 C   0  0  0  0  0  2  0  0  0  0  0  0
  182.7810  178.2650  142.4150 C   0  0  2  0  0  3  0  0  0  0  0  0
  186.6360  177.9590  144.4980 C   0  0  0  0  0  0  0  0  0  0  0  0
  185.2200  178.4520  142.4970 C   0  0  0  0  0  0  0  0  0  0  0  0
  183.5820  178.7580  140.1520 S   0  0  0  0  0  0  0  0  0  0  0  0
  182.0900  178.2390  141.0740 C   0  0  0  0  0  2  0  0  0  0  0  0
  183.1690  179.3910  144.6170 C   0  0  0  0  0  2  0  0  0  0  0  0
  189.8600  177.2660  141.8310 C   0  0  0  0  0  0  0  0  0  0  0  0
  190.5290  177.1750  138.7470 C   0  0  0  0  0  2  0  0  0  0  0  0
  186.2770  178.2600  141.6970 C   0  0  0  0  0  3  0  0  0  0  0  0
  184.1780  178.2530  144.8480 C   0  0  0  0  0  2  0  0  0  0  0  0
  188.6600  177.6040  141.3050 C   0  0  0  0  0  0  0  0  0  0  0  0
  192.0560  176.7680  142.1690 C   0  0  0  0  0  3  0  0  0  0  0  0
  185.3480  178.3000  143.9430 N   0  0  0  0  0  0  0  0  0  0  0  0
  182.1230  179.0460  143.5380 C   0  0  0  0  0  2  0  0  0  0  0  0
  191.5180  177.1350  139.8130 N   0  0  0  0  0  0  0  0  0  0  0  0
  187.7210  177.7280  143.6370 C   0  0  0  0  0  0  0  0  0  0  0  0
  183.9670  179.0300  141.9120 C   0  0  1  0  0  3  0  0  0  0  0  0
  187.5510  177.8450  142.2100 N   0  0  0  0  0  0  0  0  0  0  0  0
  188.0840  177.5030  146.4030 C   0  0  0  0  0  3  0  0  0  0  0  0
  189.5010  178.2490  139.0110 C   0  0  0  0  0  2  0  0  0  0  0  0
  186.8300  177.8440  145.8860 C   0  0  0  0  0  3  0  0  0  0  0  0
  188.3920  177.6210  139.8250 C   0  0  0  0  0  2  0  0  0  0  0  0
  191.1630  177.0080  141.2060 C   0  0  0  0  0  0  0  0  0  0  0  0
  189.1590  177.2700  145.5400 C   0  0  0  0  0  3  0  0  0  0  0  0
  190.0350  177.1550  143.2320 N   0  0  0  0  0  0  0  0  0  0  0  0
  192.9130  177.2450  139.4060 C   0  0  0  0  0  2  0  0  0  0  0  0
  193.0870  176.7460  137.9800 C   0  0  0  0  0  2  0  0  0  0  0  0
  192.9050  173.9620  136.2620 N   0  0  0  0  0  2  0  0  0  0  0  0
  194.6670  175.3770  136.9310 C   0  0  0  0  0  2  0  0  0  0  0  0
  193.6740  175.4170  137.9900 N   0  0  0  0  0  0  0  0  0  0  0  0
  194.3130  174.2130  136.0490 C   0  0  0  0  0  2  0  0  0  0  0  0
  192.6230  174.4860  137.5920 C   0  0  0  0  0  2  0  0  0  0  0  0
  1 26  1  0  0  0  0
  3  7  1  6  0  0  0
  3 16  1  0  0  0  0
  4 23  2  0  0  0  0
  5 15  1  0  0  0  0
  6  7  1  0  0  0  0
  8 12  1  0  0  0  0
  9 27  1  0  0  0  0
 10 22  1  0  0  0  0
 10 17  1  0  0  0  0
 11 20  1  0  0  0  0
 11  5  2  0  0  0  0
 13  9  2  0  0  0  0
 13 20  1  0  0  0  0
 14  2  1  0  0  0  0
 15  4  1  0  0  0  0
 15 12  1  0  0  0  0
 16  8  1  0  0  0  0
 17 25  1  0  0  0  0
 18  1  2  0  0  0  0
 18  4  1  0  0  0  0
 19  6  1  6  0  0  0
 19  3  1  0  0  0  0
 19  5  1  0  0  0  0
 20 18  1  0  0  0  0
 22 24  1  0  0  0  0
 23 21  1  0  0  0  0
 24 13  1  0  0  0  0
 25  9  1  0  0  0  0
 25 14  2  0  0  0  0
 26 21  2  0  0  0  0
 27  2  1  0  0  0  0
 27  1  1  0  0  0  0
 28 17  1  0  0  0  0
 29 32  1  0  0  0  0
 29 28  1  0  0  0  0
 30 34  1  0  0  0  0
 31 32  1  0  0  0  0
 33 30  1  0  0  0  0
 33 31  1  0  0  0  0
 34 32  1  0  0  0  0
M  END
>  <MODEL>
4

>  <REMARK>
 VINA RESULT:      -9.0      3.268      8.461
  Name = 
  3 active torsions:
  status: ('A' for Active; 'I' for Inactive)
    1  A    between atoms: N_17  and  C_28
    2  A    between atoms: C_28  and  C_29
    3  A    between atoms: C_29  and  N_32
                            x       y       z     vdW  Elec       q    Type
                         _______ _______ _______ _____ _____    ______ ____

>  <TORSDO>
F 3

$$$$
=
 OpenBabel11122412153D

 34 41  0  0  1  0  0  0  0  0999 V2000
  185.0420  178.4700  144.3650 C   0  0  0  0  0  0  0  0  0  0  0  0
  186.7920  178.0940  146.2310 C   0  0  0  0  0  2  0  0  0  0  0  0
  183.2870  177.9890  138.1320 C   0  0  2  0  0  3  0  0  0  0  0  0
  183.5890  178.7850  142.4410 C   0  0  0  0  0  0  0  0  0  0  0  0
  184.5600  178.5290  140.1510 C   0  0  0  0  0  0  0  0  0  0  0  0
  185.6690  177.9730  137.5550 S   0  0  0  0  0  0  0  0  0  0  0  0
  184.0230  177.5130  136.9040 C   0  0  0  0  0  2  0  0  0  0  0  0
  181.8400  179.7000  139.2490 C   0  0  0  0  0  2  0  0  0  0  0  0
  187.4310  177.8690  143.9850 C   0  0  0  0  0  0  0  0  0  0  0  0
  190.3350  177.0600  143.0450 C   0  0  0  0  0  2  0  0  0  0  0  0
  185.7640  178.2810  140.6840 C   0  0  0  0  0  3  0  0  0  0  0  0
  182.0200  178.8150  140.4950 C   0  0  0  0  0  2  0  0  0  0  0  0
  187.2730  177.8850  142.6410 C   0  0  0  0  0  0  0  0  0  0  0  0
  188.2580  177.7880  146.1050 C   0  0  0  0  0  3  0  0  0  0  0  0
  183.4070  178.7840  141.0090 N   0  0  0  0  0  0  0  0  0  0  0  0
  182.1200  178.9390  137.9370 C   0  0  0  0  0  2  0  0  0  0  0  0
  189.9770  177.4410  144.4020 N   0  0  0  0  0  0  0  0  0  0  0  0
  184.8520  178.4880  142.9780 C   0  0  0  0  0  0  0  0  0  0  0  0
  184.4580  178.7520  138.6720 C   0  0  1  0  0  3  0  0  0  0  0  0
  185.9610  178.1990  142.1040 N   0  0  0  0  0  0  0  0  0  0  0  0
  182.7200  179.0550  144.7010 C   0  0  0  0  0  3  0  0  0  0  0  0
  189.7240  178.0110  142.0430 C   0  0  0  0  0  2  0  0  0  0  0  0
  182.5260  179.0690  143.3160 C   0  0  0  0  0  3  0  0  0  0  0  0
  188.3580  177.4720  141.6850 C   0  0  0  0  0  2  0  0  0  0  0  0
  188.6120  177.6380  144.8260 C   0  0  0  0  0  0  0  0  0  0  0  0
  183.9790  178.7540  145.2290 C   0  0  0  0  0  3  0  0  0  0  0  0
  186.3470  178.1570  144.8500 N   0  0  0  0  0  0  0  0  0  0  0  0
  191.0830  177.6330  145.3330 C   0  0  0  0  0  2  0  0  0  0  0  0
  191.7060  176.2930  145.6940 C   0  0  0  0  0  2  0  0  0  0  0  0
  193.2320  176.2380  148.5930 N   0  0  0  0  0  2  0  0  0  0  0  0
  191.2470  177.2240  147.7900 C   0  0  0  0  0  2  0  0  0  0  0  0
  191.4070  175.9680  147.0790 N   0  0  0  0  0  0  0  0  0  0  0  0
  192.2030  177.1900  148.9490 C   0  0  0  0  0  2  0  0  0  0  0  0
  192.6020  175.3400  147.6340 C   0  0  0  0  0  2  0  0  0  0  0  0
  1 27  1  0  0  0  0
  1 26  1  0  0  0  0
  3  7  1  6  0  0  0
  3 19  1  0  0  0  0
  4 18  1  0  0  0  0
  4 23  2  0  0  0  0
  5 11  2  0  0  0  0
  5 15  1  0  0  0  0
  7  6  1  0  0  0  0
  8 12  1  0  0  0  0
  9 25  1  0  0  0  0
  9 27  1  0  0  0  0
 10 17  1  0  0  0  0
 11 20  1  0  0  0  0
 12 15  1  0  0  0  0
 13  9  2  0  0  0  0
 14  2  1  0  0  0  0
 15  4  1  0  0  0  0
 16  3  1  0  0  0  0
 16  8  1  0  0  0  0
 17 25  1  0  0  0  0
 17 28  1  0  0  0  0
 18  1  2  0  0  0  0
 19  6  1  6  0  0  0
 19  5  1  0  0  0  0
 20 13  1  0  0  0  0
 20 18  1  0  0  0  0
 21 26  2  0  0  0  0
 22 10  1  0  0  0  0
 23 21  1  0  0  0  0
 24 22  1  0  0  0  0
 24 13  1  0  0  0  0
 25 14  2  0  0  0  0
 27  2  1  0  0  0  0
 28 29  1  0  0  0  0
 29 32  1  0  0  0  0
 30 33  1  0  0  0  0
 31 33  1  0  0  0  0
 32 34  1  0  0  0  0
 32 31  1  0  0  0  0
 34 30  1  0  0  0  0
M  END
>  <MODEL>
5

>  <REMARK>
 VINA RESULT:      -8.8      2.278      8.488
  Name = 
  3 active torsions:
  status: ('A' for Active; 'I' for Inactive)
    1  A    between atoms: N_17  and  C_28
    2  A    between atoms: C_28  and  C_29
    3  A    between atoms: C_29  and  N_32
                            x       y       z     vdW  Elec       q    Type
                         _______ _______ _______ _____ _____    ______ ____

>  <TORSDO>
F 3

$$$$
=
 OpenBabel11122412153D

 34 41  0  0  1  0  0  0  0  0999 V2000
  184.2300  178.6040  144.2470 C   0  0  0  0  0  0  0  0  0  0  0  0
  181.8990  179.1280  143.2580 C   0  0  0  0  0  2  0  0  0  0  0  0
  190.6430  177.9530  143.4710 C   0  0  2  0  0  3  0  0  0  0  0  0
  186.5030  178.0840  144.9340 C   0  0  0  0  0  0  0  0  0  0  0  0
  188.2280  177.6930  143.1660 C   0  0  0  0  0  0  0  0  0  0  0  0
  190.2200  177.5050  141.0990 S   0  0  0  0  0  0  0  0  0  0  0  0
  191.5330  178.0390  142.2550 C   0  0  0  0  0  2  0  0  0  0  0  0
  189.9560  176.7500  145.5570 C   0  0  0  0  0  2  0  0  0  0  0  0
  183.7110  178.7640  141.8140 C   0  0  0  0  0  0  0  0  0  0  0  0
  183.5270  178.9280  138.6670 C   0  0  0  0  0  2  0  0  0  0  0  0
  187.3040  177.8790  142.2160 C   0  0  0  0  0  3  0  0  0  0  0  0
  188.8860  177.8520  145.6550 C   0  0  0  0  0  2  0  0  0  0  0  0
  184.9890  178.4760  141.4730 C   0  0  0  0  0  0  0  0  0  0  0  0
  181.4740  179.1880  141.8170 C   0  0  0  0  0  3  0  0  0  0  0  0
  187.8730  177.7980  144.5780 N   0  0  0  0  0  0  0  0  0  0  0  0
  191.1440  177.1580  144.6630 C   0  0  0  0  0  2  0  0  0  0  0  0
  182.3840  178.9070  139.5660 N   0  0  0  0  0  0  0  0  0  0  0  0
  185.5580  178.3100  143.9200 C   0  0  0  0  0  0  0  0  0  0  0  0
  189.5760  177.1690  142.7690 C   0  0  1  0  0  3  0  0  0  0  0  0
  185.9510  178.2410  142.5340 N   0  0  0  0  0  0  0  0  0  0  0  0
  184.7630  178.4420  146.6000 C   0  0  0  0  0  3  0  0  0  0  0  0
  184.5370  177.8770  139.0610 C   0  0  0  0  0  2  0  0  0  0  0  0
  186.0930  178.1520  146.2760 C   0  0  0  0  0  3  0  0  0  0  0  0
  185.4850  178.5110  140.0530 C   0  0  0  0  0  2  0  0  0  0  0  0
  182.5140  179.0030  140.9990 C   0  0  0  0  0  0  0  0  0  0  0  0
  183.8280  178.6690  145.5850 C   0  0  0  0  0  3  0  0  0  0  0  0
  183.3180  178.8280  143.1730 N   0  0  0  0  0  0  0  0  0  0  0  0
  181.0740  178.7700  138.9430 C   0  0  0  0  0  2  0  0  0  0  0  0
  180.4230  180.1340  138.7760 C   0  0  0  0  0  2  0  0  0  0  0  0
  179.7320  182.5910  136.7220 N   0  0  0  0  0  2  0  0  0  0  0  0
  181.5040  182.1280  138.2060 C   0  0  0  0  0  2  0  0  0  0  0  0
  181.0540  180.8510  137.6810 N   0  0  0  0  0  0  0  0  0  0  0  0
  180.8950  183.1920  137.3370 C   0  0  0  0  0  2  0  0  0  0  0  0
  180.0040  181.1600  136.7150 C   0  0  0  0  0  2  0  0  0  0  0  0
  1 26  1  0  0  0  0
  3  7  1  6  0  0  0
  3 16  1  0  0  0  0
  4 23  2  0  0  0  0
  5 15  1  0  0  0  0
  6  7  1  0  0  0  0
  8 12  1  0  0  0  0
  9 27  1  0  0  0  0
 10 22  1  0  0  0  0
 10 17  1  0  0  0  0
 11 20  1  0  0  0  0
 11  5  2  0  0  0  0
 13  9  2  0  0  0  0
 13 20  1  0  0  0  0
 14  2  1  0  0  0  0
 15  4  1  0  0  0  0
 15 12  1  0  0  0  0
 16  8  1  0  0  0  0
 17 25  1  0  0  0  0
 18  1  2  0  0  0  0
 18  4  1  0  0  0  0
 19  6  1  6  0  0  0
 19  5  1  0  0  0  0
 19  3  1  0  0  0  0
 20 18  1  0  0  0  0
 22 24  1  0  0  0  0
 23 21  1  0  0  0  0
 24 13  1  0  0  0  0
 25  9  1  0  0  0  0
 25 14  2  0  0  0  0
 26 21  2  0  0  0  0
 27  2  1  0  0  0  0
 27  1  1  0  0  0  0
 28 17  1  0  0  0  0
 29 28  1  0  0  0  0
 30 33  1  0  0  0  0
 32 31  1  0  0  0  0
 32 29  1  0  0  0  0
 33 31  1  0  0  0  0
 34 30  1  0  0  0  0
 34 32  1  0  0  0  0
M  END
>  <MODEL>
6

>  <REMARK>
 VINA RESULT:      -8.8      2.044      2.882
  Name = 
  3 active torsions:
  status: ('A' for Active; 'I' for Inactive)
    1  A    between atoms: N_17  and  C_28
    2  A    between atoms: C_28  and  C_29
    3  A    between atoms: C_29  and  N_32
                            x       y       z     vdW  Elec       q    Type
                         _______ _______ _______ _____ _____    ______ ____

>  <TORSDO>
F 3

$$$$
=
 OpenBabel11122412153D

 34 41  0  0  1  0  0  0  0  0999 V2000
  186.6340  178.2780  140.7310 C   0  0  0  0  0  0  0  0  0  0  0  0
  184.3130  178.6600  139.6570 C   0  0  0  0  0  2  0  0  0  0  0  0
  190.2450  176.7520  145.9070 C   0  0  2  0  0  3  0  0  0  0  0  0
  188.6980  177.9350  141.9700 C   0  0  0  0  0  0  0  0  0  0  0  0
  188.5950  177.8440  144.4660 C   0  0  0  0  0  0  0  0  0  0  0  0
  188.3820  177.4960  147.3140 S   0  0  0  0  0  0  0  0  0  0  0  0
  189.8880  176.4590  147.3430 C   0  0  0  0  0  2  0  0  0  0  0  0
  191.6820  177.9550  144.2470 C   0  0  0  0  0  2  0  0  0  0  0  0
  184.4930  178.4900  141.9900 C   0  0  0  0  0  0  0  0  0  0  0  0
  182.0380  178.6380  143.9690 C   0  0  0  0  0  2  0  0  0  0  0  0
  187.2740  178.0590  144.4250 C   0  0  0  0  0  3  0  0  0  0  0  0
  190.7730  177.2830  143.2030 C   0  0  0  0  0  2  0  0  0  0  0  0
  185.1220  178.3480  143.1800 C   0  0  0  0  0  0  0  0  0  0  0  0
  182.9820  178.8580  140.3270 C   0  0  0  0  0  3  0  0  0  0  0  0
  189.3730  177.7610  143.2340 N   0  0  0  0  0  0  0  0  0  0  0  0
  191.6530  177.2350  145.6090 C   0  0  0  0  0  2  0  0  0  0  0  0
  181.9880  178.9800  142.5560 N   0  0  0  0  0  0  0  0  0  0  0  0
  187.3060  178.1240  141.9490 C   0  0  0  0  0  0  0  0  0  0  0  0
  189.2950  177.9040  145.7920 C   0  0  1  0  0  3  0  0  0  0  0  0
  186.5610  178.1590  143.1820 N   0  0  0  0  0  0  0  0  0  0  0  0
  188.7270  178.0690  139.5380 C   0  0  0  0  0  3  0  0  0  0  0  0
  183.2550  179.2460  144.6240 C   0  0  0  0  0  2  0  0  0  0  0  0
  189.4010  177.9100  140.7530 C   0  0  0  0  0  3  0  0  0  0  0  0
  184.3850  178.2530  144.4880 C   0  0  0  0  0  2  0  0  0  0  0  0
  183.0860  178.7370  141.6530 C   0  0  0  0  0  0  0  0  0  0  0  0
  187.3410  178.2530  139.5240 C   0  0  0  0  0  3  0  0  0  0  0  0
  185.2200  178.4620  140.7740 N   0  0  0  0  0  0  0  0  0  0  0  0
  180.7580  179.6040  142.0850 C   0  0  0  0  0  2  0  0  0  0  0  0
  179.7910  178.5470  141.5770 C   0  0  0  0  0  2  0  0  0  0  0  0
  180.0840  180.3960  138.8880 N   0  0  0  0  0  2  0  0  0  0  0  0
  179.1120  178.2990  139.3530 C   0  0  0  0  0  2  0  0  0  0  0  0
  178.9400  179.1130  140.5430 N   0  0  0  0  0  0  0  0  0  0  0  0
  179.5140  179.2330  138.2450 C   0  0  0  0  0  2  0  0  0  0  0  0
  179.4870  180.4260  140.2170 C   0  0  0  0  0  2  0  0  0  0  0  0
  1 27  1  0  0  0  0
  1 18  1  0  0  0  0
  2 14  1  0  0  0  0
  2 27  1  0  0  0  0
  3 16  1  1  0  0  0
  3  7  1  0  0  0  0
  4 15  1  0  0  0  0
  6  7  1  0  0  0  0
  8 16  1  0  0  0  0
  9 13  2  0  0  0  0
 10 22  1  0  0  0  0
 11  5  2  0  0  0  0
 12 15  1  0  0  0  0
 12  8  1  0  0  0  0
 13 20  1  0  0  0  0
 13 24  1  0  0  0  0
 14 25  2  0  0  0  0
 15  5  1  0  0  0  0
 17 10  1  0  0  0  0
 18  4  2  0  0  0  0
 18 20  1  0  0  0  0
 19  5  1  6  0  0  0
 19  3  1  0  0  0  0
 19  6  1  0  0  0  0
 20 11  1  0  0  0  0
 21 23  2  0  0  0  0
 23  4  1  0  0  0  0
 24 22  1  0  0  0  0
 25  9  1  0  0  0  0
 25 17  1  0  0  0  0
 26 21  1  0  0  0  0
 26  1  2  0  0  0  0
 27  9  1  0  0  0  0
 28 17  1  0  0  0  0
 29 28  1  0  0  0  0
 30 34  1  0  0  0  0
 31 32  1  0  0  0  0
 32 29  1  0  0  0  0
 33 30  1  0  0  0  0
 33 31  1  0  0  0  0
 34 32  1  0  0  0  0
M  END
>  <MODEL>
7

>  <REMARK>
 VINA RESULT:      -8.6      2.074      3.954
  Name = 
  3 active torsions:
  status: ('A' for Active; 'I' for Inactive)
    1  A    between atoms: N_17  and  C_28
    2  A    between atoms: C_28  and  C_29
    3  A    between atoms: C_29  and  N_32
                            x       y       z     vdW  Elec       q    Type
                         _______ _______ _______ _____ _____    ______ ____

>  <TORSDO>
F 3

$$$$
=
 OpenBabel11122412153D

 34 41  0  0  1  0  0  0  0  0999 V2000
  185.9460  178.4570  141.6730 C   0  0  0  0  0  0  0  0  0  0  0  0
  185.9390  178.6110  139.0920 C   0  0  0  0  0  2  0  0  0  0  0  0
  189.2130  177.9330  147.2600 C   0  0  2  0  0  3  0  0  0  0  0  0
  186.1970  178.2310  144.0810 C   0  0  0  0  0  0  0  0  0  0  0  0
  188.4060  177.4940  144.9910 C   0  0  0  0  0  0  0  0  0  0  0  0
  191.0350  176.8920  145.9930 S   0  0  0  0  0  0  0  0  0  0  0  0
  190.6800  177.7560  147.5660 C   0  0  0  0  0  2  0  0  0  0  0  0
  186.8350  177.2550  147.6490 C   0  0  0  0  0  2  0  0  0  0  0  0
  187.9060  177.9840  140.2070 C   0  0  0  0  0  0  0  0  0  0  0  0
  190.6380  177.3540  138.7570 C   0  0  0  0  0  2  0  0  0  0  0  0
  188.8910  177.3950  143.7470 C   0  0  0  0  0  3  0  0  0  0  0  0
  186.5210  178.2950  146.5600 C   0  0  0  0  0  2  0  0  0  0  0  0
  188.6890  177.6810  141.2690 C   0  0  0  0  0  0  0  0  0  0  0  0
  187.0430  178.2920  138.1230 C   0  0  0  0  0  3  0  0  0  0  0  0
  187.0310  177.9290  145.2200 N   0  0  0  0  0  0  0  0  0  0  0  0
  188.2100  177.4830  148.3060 C   0  0  0  0  0  2  0  0  0  0  0  0
  189.3570  177.5040  138.0850 N   0  0  0  0  0  0  0  0  0  0  0  0
  186.7370  178.1530  142.7870 C   0  0  0  0  0  0  0  0  0  0  0  0
  189.2190  176.9510  146.1280 C   0  0  1  0  0  3  0  0  0  0  0  0
  188.1120  177.7610  142.5980 N   0  0  0  0  0  0  0  0  0  0  0  0
  184.0630  178.9090  143.1210 C   0  0  0  0  0  3  0  0  0  0  0  0
  190.5020  176.4820  139.9820 C   0  0  0  0  0  2  0  0  0  0  0  0
  184.8520  178.6100  144.2370 C   0  0  0  0  0  3  0  0  0  0  0  0
  190.1590  177.3860  141.1430 C   0  0  0  0  0  2  0  0  0  0  0  0
  188.1670  177.9580  138.7630 C   0  0  0  0  0  0  0  0  0  0  0  0
  184.6090  178.8340  141.8360 C   0  0  0  0  0  3  0  0  0  0  0  0
  186.5530  178.3650  140.3850 N   0  0  0  0  0  0  0  0  0  0  0  0
  189.3230  177.1550  136.6710 C   0  0  0  0  0  2  0  0  0  0  0  0
  189.0070  175.6780  136.4980 C   0  0  0  0  0  2  0  0  0  0  0  0
  192.2290  175.7420  135.9070 N   0  0  0  0  0  2  0  0  0  0  0  0
  190.6590  174.0320  136.3170 C   0  0  0  0  0  2  0  0  0  0  0  0
  189.9610  175.0730  135.5840 N   0  0  0  0  0  0  0  0  0  0  0  0
  192.1270  174.3280  136.1980 C   0  0  0  0  0  2  0  0  0  0  0  0
  190.9610  176.0920  135.2800 C   0  0  0  0  0  2  0  0  0  0  0  0
  1 26  2  0  0  0  0
  1 18  1  0  0  0  0
  2 27  1  0  0  0  0
  3  7  1  1  0  0  0
  3 16  1  0  0  0  0
  4 23  1  0  0  0  0
  4 15  1  0  0  0  0
  5 15  1  0  0  0  0
  6 19  1  0  0  0  0
  6  7  1  0  0  0  0
  8 16  1  0  0  0  0
  9 27  1  0  0  0  0
  9 13  2  0  0  0  0
 10 22  1  0  0  0  0
 11  5  2  0  0  0  0
 12  8  1  0  0  0  0
 13 20  1  0  0  0  0
 14 25  2  0  0  0  0
 14  2  1  0  0  0  0
 15 12  1  0  0  0  0
 17 10  1  0  0  0  0
 17 25  1  0  0  0  0
 18  4  2  0  0  0  0
 19  5  1  6  0  0  0
 19  3  1  0  0  0  0
 20 18  1  0  0  0  0
 20 11  1  0  0  0  0
 21 23  2  0  0  0  0
 22 24  1  0  0  0  0
 24 13  1  0  0  0  0
 25  9  1  0  0  0  0
 26 21  1  0  0  0  0
 27  1  1  0  0  0  0
 28 17  1  0  0  0  0
 29 28  1  0  0  0  0
 30 33  1  0  0  0  0
 32 31  1  0  0  0  0
 32 29  1  0  0  0  0
 33 31  1  0  0  0  0
 34 32  1  0  0  0  0
 34 30  1  0  0  0  0
M  END
>  <MODEL>
8

>  <REMARK>
 VINA RESULT:      -8.5      3.616      7.019
  Name = 
  3 active torsions:
  status: ('A' for Active; 'I' for Inactive)
    1  A    between atoms: N_17  and  C_28
    2  A    between atoms: C_28  and  C_29
    3  A    between atoms: C_29  and  N_32
                            x       y       z     vdW  Elec       q    Type
                         _______ _______ _______ _____ _____    ______ ____

>  <TORSDO>
F 3

$$$$
=
 OpenBabel11122412153D

 34 41  0  0  1  0  0  0  0  0999 V2000
  186.0710  178.4750  140.3240 C   0  0  0  0  0  0  0  0  0  0  0  0
  187.0630  178.3490  137.9400 C   0  0  0  0  0  2  0  0  0  0  0  0
  186.9190  178.6020  146.7610 C   0  0  2  0  0  3  0  0  0  0  0  0
  185.3690  178.5140  142.6520 C   0  0  0  0  0  0  0  0  0  0  0  0
  187.0350  177.9100  144.4160 C   0  0  0  0  0  0  0  0  0  0  0  0
  189.0560  177.4540  146.4120 S   0  0  0  0  0  0  0  0  0  0  0  0
  188.1500  178.4790  147.6260 C   0  0  0  0  0  2  0  0  0  0  0  0
  184.5550  177.9380  146.2710 C   0  0  0  0  0  2  0  0  0  0  0  0
  188.4300  177.8730  139.7860 C   0  0  0  0  0  0  0  0  0  0  0  0
  191.4900  177.1260  139.5770 C   0  0  0  0  0  2  0  0  0  0  0  0
  187.9580  177.6830  143.4730 C   0  0  0  0  0  3  0  0  0  0  0  0
  184.7160  178.8500  145.0420 C   0  0  0  0  0  2  0  0  0  0  0  0
  188.7340  177.6970  141.0930 C   0  0  0  0  0  0  0  0  0  0  0  0
  188.4450  177.9420  137.5110 C   0  0  0  0  0  3  0  0  0  0  0  0
  185.6920  178.3480  144.0490 N   0  0  0  0  0  0  0  0  0  0  0  0
  185.5780  178.2540  147.3800 C   0  0  0  0  0  2  0  0  0  0  0  0
  190.5700  177.1850  138.4520 N   0  0  0  0  0  0  0  0  0  0  0  0
  186.3630  178.3040  141.6820 C   0  0  0  0  0  0  0  0  0  0  0  0
  187.3310  177.5040  145.8290 C   0  0  1  0  0  3  0  0  0  0  0  0
  187.6920  177.9130  142.0810 N   0  0  0  0  0  0  0  0  0  0  0  0
  183.7900  179.0550  140.8770 C   0  0  0  0  0  3  0  0  0  0  0  0
  190.8670  176.3900  140.7390 C   0  0  0  0  0  2  0  0  0  0  0  0
  184.0800  178.8900  142.2360 C   0  0  0  0  0  3  0  0  0  0  0  0
  190.1300  177.4100  141.5760 C   0  0  0  0  0  2  0  0  0  0  0  0
  189.2250  177.6940  138.5660 C   0  0  0  0  0  0  0  0  0  0  0  0
  184.7860  178.8490  139.9180 C   0  0  0  0  0  3  0  0  0  0  0  0
  187.1250  178.2530  139.3880 N   0  0  0  0  0  0  0  0  0  0  0  0
  191.0740  176.6850  137.1780 C   0  0  0  0  0  2  0  0  0  0  0  0
  191.1950  175.1700  137.2170 C   0  0  0  0  0  2  0  0  0  0  0  0
  194.3060  176.1730  136.9930 N   0  0  0  0  0  2  0  0  0  0  0  0
  193.2640  174.1460  137.5930 C   0  0  0  0  0  2  0  0  0  0  0  0
  192.4310  174.7580  136.5730 N   0  0  0  0  0  0  0  0  0  0  0  0
  194.5760  174.8780  137.5770 C   0  0  0  0  0  2  0  0  0  0  0  0
  193.1230  175.9760  136.1650 C   0  0  0  0  0  2  0  0  0  0  0  0
  1 18  1  0  0  0  0
  2 27  1  0  0  0  0
  3 16  1  1  0  0  0
  3  7  1  0  0  0  0
  4 15  1  0  0  0  0
  6  7  1  0  0  0  0
  8 16  1  0  0  0  0
  9 13  2  0  0  0  0
 10 22  1  0  0  0  0
 11  5  2  0  0  0  0
 12  8  1  0  0  0  0
 13 24  1  0  0  0  0
 13 20  1  0  0  0  0
 14  2  1  0  0  0  0
 14 25  2  0  0  0  0
 15  5  1  0  0  0  0
 15 12  1  0  0  0  0
 17 25  1  0  0  0  0
 17 10  1  0  0  0  0
 18 20  1  0  0  0  0
 18  4  2  0  0  0  0
 19  5  1  6  0  0  0
 19  6  1  0  0  0  0
 19  3  1  0  0  0  0
 20 11  1  0  0  0  0
 21 23  2  0  0  0  0
 22 24  1  0  0  0  0
 23  4  1  0  0  0  0
 25  9  1  0  0  0  0
 26  1  2  0  0  0  0
 26 21  1  0  0  0  0
 27  9  1  0  0  0  0
 27  1  1  0  0  0  0
 28 29  1  0  0  0  0
 28 17  1  0  0  0  0
 30 33  1  0  0  0  0
 32 29  1  0  0  0  0
 32 31  1  0  0  0  0
 33 31  1  0  0  0  0
 34 32  1  0  0  0  0
 34 30  1  0  0  0  0
M  END
>  <MODEL>
9

>  <REMARK>
 VINA RESULT:      -8.3      3.523      8.231
  Name = 
  3 active torsions:
  status: ('A' for Active; 'I' for Inactive)
    1  A    between atoms: N_17  and  C_28
    2  A    between atoms: C_28  and  C_29
    3  A    between atoms: C_29  and  N_32
                            x       y       z     vdW  Elec       q    Type
                         _______ _______ _______ _____ _____    ______ ____

>  <TORSDO>
F 3

$$$$
