=
 OpenBabel11122410433D

 32 37  0  0  1  0  0  0  0  0999 V2000
  181.3070  178.4240  138.6070 C   0  0  0  0  0  2  0  0  0  0  0  0
  185.0480  178.9230  142.0950 C   0  0  1  0  0  3  0  0  0  0  0  0
  189.0880  178.1080  139.1240 C   0  0  0  0  0  2  0  0  0  0  0  0
  189.4720  176.9770  140.0560 C   0  0  0  0  0  2  0  0  0  0  0  0
  185.4380  178.5710  144.6240 C   0  0  0  0  0  0  0  0  0  0  0  0
  186.1140  177.7530  145.6830 C   0  0  2  0  0  3  0  0  0  0  0  0
  182.9430  178.4870  140.9010 N   0  0  1  0  0  0  0  0  0  0  0  0
  184.9190  179.3880  139.6730 C   0  0  0  0  0  2  0  0  0  0  0  0
  188.3200  177.6490  146.5300 C   0  0  0  0  0  0  0  0  0  0  0  0
  182.7230  178.9960  138.4700 C   0  0  2  0  0  3  0  0  0  0  0  0
  187.5780  178.3000  139.1820 C   0  0  0  0  0  2  0  0  0  0  0  0
  185.7350  178.9710  140.8050 N   0  0  0  0  0  0  0  0  0  0  0  0
  187.0460  178.4110  140.5960 C   0  0  0  0  0  0  0  0  0  0  0  0
  187.1750  177.9840  143.0100 C   0  0  0  0  0  0  0  0  0  0  0  0
  187.5230  178.1220  147.5990 N   0  0  0  0  0  2  0  0  0  0  0  0
  181.2920  177.1860  139.4880 C   0  0  0  0  0  2  0  0  0  0  0  0
  183.6570  178.5180  139.6040 C   0  0  2  0  0  3  0  0  0  0  0  0
  186.1840  178.4080  147.0770 C   0  0  0  0  0  2  0  0  0  0  0  0
  181.8230  177.5300  140.8860 C   0  0  0  0  0  2  0  0  0  0  0  0
  189.1450  177.3860  141.4860 C   0  0  0  0  0  2  0  0  0  0  0  0
  187.7360  177.9100  141.6430 C   0  0  0  0  0  0  0  0  0  0  0  0
  188.0190  177.6460  144.1290 N   0  0  0  0  0  2  0  0  0  0  0  0
  183.8390  178.0040  141.9540 C   0  0  0  0  0  2  0  0  0  0  0  0
  184.4060  179.2410  144.8970 O   0  0  0  0  0  0  0  0  0  0  0  0
  189.5570  177.4310  146.6240 O   0  0  0  0  0  0  0  0  0  0  0  0
  185.9350  178.4760  143.2290 C   0  0  0  0  0  0  0  0  0  0  0  0
  187.5430  177.5310  145.3320 C   0  0  2  0  0  3  0  0  0  0  0  0
  182.6440  180.3950  138.4330 O   0  0  0  0  0  0  0  0  0  0  0  0
  181.3320  180.6840  138.6160 N   0  0  0  0  0  2  0  0  0  0  0  0
  180.8030  181.9780  138.3260 C   0  0  0  0  0  0  0  0  0  0  0  0
  181.5570  182.9010  137.9210 O   0  0  0  0  0  0  0  0  0  0  0  0
  179.3510  182.2390  138.5100 C   0  0  0  0  0  1  0  0  0  0  0  0
  1 16  1  0  0  0  0
  2 23  1  6  0  0  0
  2 26  1  0  0  0  0
  3 11  1  0  0  0  0
  3  4  1  0  0  0  0
  4 20  1  0  0  0  0
  5 24  2  0  0  0  0
  5  6  1  0  0  0  0
  6 18  1  1  0  0  0
  7 19  1  6  0  0  0
  7 23  1  0  0  0  0
  8 12  1  0  0  0  0
  9 25  2  0  0  0  0
  9 15  1  0  0  0  0
 10 28  1  1  0  0  0
 10  1  1  0  0  0  0
 10 17  1  0  0  0  0
 11 13  1  0  0  0  0
 12  2  1  0  0  0  0
 13 12  1  0  0  0  0
 13 21  2  0  0  0  0
 14 26  2  0  0  0  0
 14 22  1  0  0  0  0
 16 19  1  0  0  0  0
 17  8  1  1  0  0  0
 17  7  1  0  0  0  0
 18 15  1  0  0  0  0
 20 21  1  0  0  0  0
 21 14  1  0  0  0  0
 26  5  1  0  0  0  0
 27 22  1  6  0  0  0
 27  6  1  0  0  0  0
 27  9  1  0  0  0  0
 28 29  1  0  0  0  0
 30 32  1  0  0  0  0
 30 29  1  0  0  0  0
 31 30  2  0  0  0  0
M  END
>  <MODEL>
1

>  <REMARK>
 VINA RESULT:      -8.7      0.000      0.000
  Name = 
  2 active torsions:
  status: ('A' for Active; 'I' for Inactive)
    1  A    between atoms: C_10  and  O_20
    2  A    between atoms: O_20  and  N_29
                            x       y       z     vdW  Elec       q    Type
                         _______ _______ _______ _____ _____    ______ ____

>  <TORSDO>
F 2

$$$$
=
 OpenBabel11122410433D

 32 37  0  0  1  0  0  0  0  0999 V2000
  193.1300  174.4420  136.5160 C   0  0  0  0  0  2  0  0  0  0  0  0
  189.7600  177.5530  138.8360 C   0  0  1  0  0  3  0  0  0  0  0  0
  191.7100  177.5620  143.5270 C   0  0  0  0  0  2  0  0  0  0  0  0
  190.3680  177.0640  144.0230 C   0  0  0  0  0  2  0  0  0  0  0  0
  187.2760  178.2390  138.6620 C   0  0  0  0  0  0  0  0  0  0  0  0
  185.9130  178.1690  139.2830 C   0  0  2  0  0  3  0  0  0  0  0  0
  190.8950  175.9210  137.3860 N   0  0  1  0  0  0  0  0  0  0  0  0
  192.1650  177.1040  139.1800 C   0  0  0  0  0  2  0  0  0  0  0  0
  184.8680  179.2700  141.0960 C   0  0  0  0  0  0  0  0  0  0  0  0
  193.3340  175.4700  137.6350 C   0  0  2  0  0  3  0  0  0  0  0  0
  191.8940  177.1190  142.0810 C   0  0  0  0  0  2  0  0  0  0  0  0
  190.8810  177.4570  139.7710 N   0  0  0  0  0  0  0  0  0  0  0  0
  190.7080  177.4550  141.2010 C   0  0  0  0  0  0  0  0  0  0  0  0
  188.3260  177.9330  140.8460 C   0  0  0  0  0  0  0  0  0  0  0  0
  184.1690  179.6910  139.9400 N   0  0  0  0  0  2  0  0  0  0  0  0
  191.8340  173.6710  136.7000 C   0  0  0  0  0  2  0  0  0  0  0  0
  192.0120  175.8190  138.3530 C   0  0  2  0  0  3  0  0  0  0  0  0
  184.9000  179.2090  138.7650 C   0  0  0  0  0  2  0  0  0  0  0  0
  190.6440  174.6390  136.7050 C   0  0  0  0  0  2  0  0  0  0  0  0
  189.2650  177.7430  143.2220 C   0  0  0  0  0  2  0  0  0  0  0  0
  189.4810  177.6570  141.7280 C   0  0  0  0  0  0  0  0  0  0  0  0
  187.0830  178.3600  141.4390 N   0  0  0  0  0  2  0  0  0  0  0  0
  189.6480  176.2250  138.0930 C   0  0  0  0  0  2  0  0  0  0  0  0
  187.4060  178.4700  137.4300 O   0  0  0  0  0  0  0  0  0  0  0  0
  184.5640  179.6270  142.2650 O   0  0  0  0  0  0  0  0  0  0  0  0
  188.4550  177.9090  139.5000 C   0  0  0  0  0  0  0  0  0  0  0  0
  185.9920  178.4570  140.7400 C   0  0  2  0  0  3  0  0  0  0  0  0
  193.9370  176.6140  137.0950 O   0  0  0  0  0  0  0  0  0  0  0  0
  194.9170  176.1510  136.2800 N   0  0  0  0  0  2  0  0  0  0  0  0
  195.6770  177.0290  135.4490 C   0  0  0  0  0  0  0  0  0  0  0  0
  195.4300  178.2630  135.4290 O   0  0  0  0  0  0  0  0  0  0  0  0
  196.7640  176.4810  134.5970 C   0  0  0  0  0  1  0  0  0  0  0  0
  1 16  1  0  0  0  0
  1 10  1  0  0  0  0
  2 23  1  1  0  0  0
  2 26  1  0  0  0  0
  2 12  1  0  0  0  0
  3  4  1  0  0  0  0
  5  6  1  0  0  0  0
  5 26  1  0  0  0  0
  6 18  1  6  0  0  0
  6 27  1  0  0  0  0
  7 19  1  1  0  0  0
  7 23  1  0  0  0  0
  7 17  1  0  0  0  0
  8 12  1  0  0  0  0
  9 25  2  0  0  0  0
 10 28  1  6  0  0  0
 10 17  1  0  0  0  0
 11  3  1  0  0  0  0
 12 13  1  0  0  0  0
 13 21  2  0  0  0  0
 13 11  1  0  0  0  0
 14 22  1  0  0  0  0
 14 21  1  0  0  0  0
 15  9  1  0  0  0  0
 16 19  1  0  0  0  0
 17  8  1  6  0  0  0
 18 15  1  0  0  0  0
 20  4  1  0  0  0  0
 21 20  1  0  0  0  0
 24  5  2  0  0  0  0
 26 14  2  0  0  0  0
 27  9  1  6  0  0  0
 27 22  1  0  0  0  0
 29 28  1  0  0  0  0
 30 29  1  0  0  0  0
 31 30  2  0  0  0  0
 32 30  1  0  0  0  0
M  END
>  <MODEL>
2

>  <REMARK>
 VINA RESULT:      -8.1      5.013      8.962
  Name = 
  2 active torsions:
  status: ('A' for Active; 'I' for Inactive)
    1  A    between atoms: C_10  and  O_20
    2  A    between atoms: O_20  and  N_29
                            x       y       z     vdW  Elec       q    Type
                         _______ _______ _______ _____ _____    ______ ____

>  <TORSDO>
F 2

$$$$
=
 OpenBabel11122410433D

 32 37  0  0  1  0  0  0  0  0999 V2000
  179.4730  180.8790  138.9900 C   0  0  0  0  0  2  0  0  0  0  0  0
  183.8760  178.4940  140.1480 C   0  0  1  0  0  3  0  0  0  0  0  0
  183.6010  178.6280  145.2190 C   0  0  0  0  0  2  0  0  0  0  0  0
  184.9320  179.3530  145.2140 C   0  0  0  0  0  2  0  0  0  0  0  0
  186.2430  178.1520  139.1710 C   0  0  0  0  0  0  0  0  0  0  0  0
  187.7040  178.4690  139.2910 C   0  0  2  0  0  3  0  0  0  0  0  0
  182.0800  179.8140  139.1080 N   0  0  1  0  0  0  0  0  0  0  0  0
  181.6780  178.6280  141.2670 C   0  0  0  0  0  2  0  0  0  0  0  0
  189.4500  177.6930  140.6840 C   0  0  0  0  0  0  0  0  0  0  0  0
  179.8180  179.9370  140.1490 C   0  0  2  0  0  3  0  0  0  0  0  0
  182.8840  178.9100  143.9050 C   0  0  0  0  0  2  0  0  0  0  0  0
  183.1240  178.5140  141.4020 N   0  0  0  0  0  0  0  0  0  0  0  0
  183.7530  178.6680  142.6890 C   0  0  0  0  0  0  0  0  0  0  0  0
  185.9320  178.5010  141.5680 C   0  0  0  0  0  0  0  0  0  0  0  0
  189.7900  177.2740  139.3770 N   0  0  0  0  0  2  0  0  0  0  0  0
  180.6140  181.8390  138.6970 C   0  0  0  0  0  2  0  0  0  0  0  0
  181.3400  179.8420  140.3910 C   0  0  2  0  0  3  0  0  0  0  0  0
  188.6460  177.5410  138.5010 C   0  0  0  0  0  2  0  0  0  0  0  0
  181.8820  181.0530  138.3360 C   0  0  0  0  0  2  0  0  0  0  0  0
  185.8060  178.7670  144.1130 C   0  0  0  0  0  2  0  0  0  0  0  0
  185.1010  178.6890  142.7780 C   0  0  0  0  0  0  0  0  0  0  0  0
  187.3520  178.3080  141.7220 N   0  0  0  0  0  2  0  0  0  0  0  0
  183.5220  179.7530  139.3630 C   0  0  0  0  0  2  0  0  0  0  0  0
  185.7560  177.7970  138.0640 O   0  0  0  0  0  0  0  0  0  0  0  0
  190.1740  177.4880  141.6940 O   0  0  0  0  0  0  0  0  0  0  0  0
  185.3670  178.3860  140.3450 C   0  0  0  0  0  0  0  0  0  0  0  0
  188.1540  178.3040  140.6990 C   0  0  2  0  0  3  0  0  0  0  0  0
  179.2660  178.6750  139.8860 O   0  0  0  0  0  0  0  0  0  0  0  0
  179.0990  178.6320  138.5410 N   0  0  0  0  0  2  0  0  0  0  0  0
  179.6590  177.5830  137.7500 C   0  0  0  0  0  0  0  0  0  0  0  0
  180.3560  176.6820  138.2850 O   0  0  0  0  0  0  0  0  0  0  0  0
  179.4210  177.5590  136.2830 C   0  0  0  0  0  1  0  0  0  0  0  0
  1 10  1  0  0  0  0
  2 23  1  1  0  0  0
  2 26  1  0  0  0  0
  2 12  1  0  0  0  0
  4  3  1  0  0  0  0
  5  6  1  0  0  0  0
  5 26  1  0  0  0  0
  6 18  1  6  0  0  0
  6 27  1  0  0  0  0
  7 19  1  1  0  0  0
  7 23  1  0  0  0  0
  7 17  1  0  0  0  0
  8 12  1  0  0  0  0
  9 25  2  0  0  0  0
 10 28  1  6  0  0  0
 10 17  1  0  0  0  0
 11  3  1  0  0  0  0
 12 13  1  0  0  0  0
 13 21  2  0  0  0  0
 13 11  1  0  0  0  0
 14 22  1  0  0  0  0
 14 21  1  0  0  0  0
 15  9  1  0  0  0  0
 16  1  1  0  0  0  0
 17  8  1  6  0  0  0
 18 15  1  0  0  0  0
 19 16  1  0  0  0  0
 20  4  1  0  0  0  0
 21 20  1  0  0  0  0
 24  5  2  0  0  0  0
 26 14  2  0  0  0  0
 27  9  1  6  0  0  0
 27 22  1  0  0  0  0
 29 28  1  0  0  0  0
 30 31  2  0  0  0  0
 30 29  1  0  0  0  0
 32 30  1  0  0  0  0
M  END
>  <MODEL>
3

>  <REMARK>
 VINA RESULT:      -7.4      2.618      5.052
  Name = 
  2 active torsions:
  status: ('A' for Active; 'I' for Inactive)
    1  A    between atoms: C_10  and  O_20
    2  A    between atoms: O_20  and  N_29
                            x       y       z     vdW  Elec       q    Type
                         _______ _______ _______ _____ _____    ______ ____

>  <TORSDO>
F 2

$$$$
=
 OpenBabel11122410433D

 32 37  0  0  1  0  0  0  0  0999 V2000
  187.7840  178.6280  136.9070 C   0  0  0  0  0  2  0  0  0  0  0  0
  188.0730  177.2510  141.8500 C   0  0  1  0  0  3  0  0  0  0  0  0
  183.5910  179.0030  143.4790 C   0  0  0  0  0  2  0  0  0  0  0  0
  184.3490  179.8280  144.4980 C   0  0  0  0  0  2  0  0  0  0  0  0
  189.8510  176.8710  143.6850 C   0  0  0  0  0  0  0  0  0  0  0  0
  190.4550  177.3680  144.9640 C   0  0  2  0  0  3  0  0  0  0  0  0
  188.5340  177.9520  139.5380 N   0  0  1  0  0  0  0  0  0  0  0  0
  186.1910  177.5010  140.2700 C   0  0  0  0  0  2  0  0  0  0  0  0
  189.8020  177.2860  147.2360 C   0  0  0  0  0  0  0  0  0  0  0  0
  186.6900  178.1600  137.8740 C   0  0  2  0  0  3  0  0  0  0  0  0
  184.4930  178.7590  142.2750 C   0  0  0  0  0  2  0  0  0  0  0  0
  186.6670  177.5970  141.6430 N   0  0  0  0  0  0  0  0  0  0  0  0
  185.8600  178.2310  142.6550 C   0  0  0  0  0  0  0  0  0  0  0  0
  187.7260  177.9470  144.2250 C   0  0  0  0  0  0  0  0  0  0  0  0
  190.9770  176.5020  147.1480 N   0  0  0  0  0  2  0  0  0  0  0  0
  188.7700  179.5580  137.5940 C   0  0  0  0  0  2  0  0  0  0  0  0
  187.1110  178.3180  139.3510 C   0  0  2  0  0  3  0  0  0  0  0  0
  191.3120  176.3410  145.7310 C   0  0  0  0  0  2  0  0  0  0  0  0
  189.4310  178.8420  138.7790 C   0  0  0  0  0  2  0  0  0  0  0  0
  185.5330  179.0150  145.0060 C   0  0  0  0  0  2  0  0  0  0  0  0
  186.3680  178.4270  143.8910 C   0  0  0  0  0  0  0  0  0  0  0  0
  188.1560  177.9720  145.6010 N   0  0  0  0  0  2  0  0  0  0  0  0
  188.9180  178.1370  140.9410 C   0  0  0  0  0  2  0  0  0  0  0  0
  190.5130  176.1220  142.9160 O   0  0  0  0  0  0  0  0  0  0  0  0
  189.1860  177.5030  148.3130 O   0  0  0  0  0  0  0  0  0  0  0  0
  188.5150  177.3780  143.2860 C   0  0  0  0  0  0  0  0  0  0  0  0
  189.3860  177.7220  145.9360 C   0  0  2  0  0  3  0  0  0  0  0  0
  186.3640  176.8290  137.5780 O   0  0  0  0  0  0  0  0  0  0  0  0
  187.3570  176.3900  136.7650 N   0  0  0  0  0  2  0  0  0  0  0  0
  187.6200  174.9980  136.5900 C   0  0  0  0  0  0  0  0  0  0  0  0
  186.9510  174.1370  137.2190 O   0  0  0  0  0  0  0  0  0  0  0  0
  188.6980  174.5620  135.6640 C   0  0  0  0  0  1  0  0  0  0  0  0
  1 16  1  0  0  0  0
  1 10  1  0  0  0  0
  2 23  1  6  0  0  0
  2 26  1  0  0  0  0
  3  4  1  0  0  0  0
  4 20  1  0  0  0  0
  5  6  1  0  0  0  0
  6 18  1  1  0  0  0
  6 27  1  0  0  0  0
  7 19  1  6  0  0  0
  7 23  1  0  0  0  0
  8 12  1  0  0  0  0
  9 25  2  0  0  0  0
 10 28  1  6  0  0  0
 10 17  1  0  0  0  0
 11 13  1  0  0  0  0
 11  3  1  0  0  0  0
 12  2  1  0  0  0  0
 12 13  1  0  0  0  0
 13 21  2  0  0  0  0
 14 22  1  0  0  0  0
 15  9  1  0  0  0  0
 16 19  1  0  0  0  0
 17  7  1  0  0  0  0
 17  8  1  1  0  0  0
 18 15  1  0  0  0  0
 21 14  1  0  0  0  0
 21 20  1  0  0  0  0
 24  5  2  0  0  0  0
 26  5  1  0  0  0  0
 26 14  2  0  0  0  0
 27 22  1  6  0  0  0
 27  9  1  0  0  0  0
 29 28  1  0  0  0  0
 30 29  1  0  0  0  0
 30 31  2  0  0  0  0
 32 30  1  0  0  0  0
M  END
>  <MODEL>
4

>  <REMARK>
 VINA RESULT:      -6.9      3.529      5.743
  Name = 
  2 active torsions:
  status: ('A' for Active; 'I' for Inactive)
    1  A    between atoms: C_10  and  O_20
    2  A    between atoms: O_20  and  N_29
                            x       y       z     vdW  Elec       q    Type
                         _______ _______ _______ _____ _____    ______ ____

>  <TORSDO>
F 2

$$$$
=
 OpenBabel11122410433D

 32 37  0  0  1  0  0  0  0  0999 V2000
  187.8120  178.6270  136.9330 C   0  0  0  0  0  2  0  0  0  0  0  0
  188.0000  177.2850  141.8910 C   0  0  1  0  0  3  0  0  0  0  0  0
  183.4840  179.0440  143.4140 C   0  0  0  0  0  2  0  0  0  0  0  0
  184.2210  179.8770  144.4430 C   0  0  0  0  0  2  0  0  0  0  0  0
  189.7400  176.9190  143.7640 C   0  0  0  0  0  0  0  0  0  0  0  0
  190.3170  177.4250  145.0520 C   0  0  2  0  0  3  0  0  0  0  0  0
  188.5080  177.9700  139.5840 N   0  0  1  0  0  0  0  0  0  0  0  0
  186.1510  177.5220  140.2700 C   0  0  0  0  0  2  0  0  0  0  0  0
  189.6170  177.3590  147.3110 C   0  0  0  0  0  0  0  0  0  0  0  0
  186.6990  178.1650  137.8800 C   0  0  2  0  0  3  0  0  0  0  0  0
  184.4110  178.7930  142.2310 C   0  0  0  0  0  2  0  0  0  0  0  0
  186.5980  177.6280  141.6520 N   0  0  0  0  0  0  0  0  0  0  0  0
  185.7700  178.2680  142.6420 C   0  0  0  0  0  0  0  0  0  0  0  0
  187.6040  177.9970  144.2530 C   0  0  0  0  0  0  0  0  0  0  0  0
  190.7940  176.5760  147.2520 N   0  0  0  0  0  2  0  0  0  0  0  0
  188.7830  179.5630  137.6330 C   0  0  0  0  0  2  0  0  0  0  0  0
  187.0890  178.3330  139.3650 C   0  0  2  0  0  3  0  0  0  0  0  0
  191.1590  176.4050  145.8440 C   0  0  0  0  0  2  0  0  0  0  0  0
  189.4200  178.8550  138.8370 C   0  0  0  0  0  2  0  0  0  0  0  0
  185.3940  179.0690  144.9810 C   0  0  0  0  0  2  0  0  0  0  0  0
  186.2520  178.4740  143.8870 C   0  0  0  0  0  0  0  0  0  0  0  0
  188.0050  178.0320  145.6370 N   0  0  0  0  0  2  0  0  0  0  0  0
  188.8630  178.1650  140.9920 C   0  0  0  0  0  2  0  0  0  0  0  0
  190.4180  176.1650  143.0140 O   0  0  0  0  0  0  0  0  0  0  0  0
  188.9790  177.5830  148.3730 O   0  0  0  0  0  0  0  0  0  0  0  0
  188.4130  177.4220  143.3340 C   0  0  0  0  0  0  0  0  0  0  0  0
  189.2280  177.7860  145.9990 C   0  0  2  0  0  3  0  0  0  0  0  0
  186.3800  176.8320  137.5870 O   0  0  0  0  0  0  0  0  0  0  0  0
  185.4740  176.8950  136.5800 N   0  0  0  0  0  2  0  0  0  0  0  0
  184.0800  176.6910  136.8130 C   0  0  0  0  0  0  0  0  0  0  0  0
  183.6580  176.4140  137.9660 O   0  0  0  0  0  0  0  0  0  0  0  0
  183.1200  176.8030  135.6840 C   0  0  0  0  0  1  0  0  0  0  0  0
  1 16  1  0  0  0  0
  1 10  1  0  0  0  0
  2 23  1  6  0  0  0
  2 26  1  0  0  0  0
  3  4  1  0  0  0  0
  4 20  1  0  0  0  0
  5  6  1  0  0  0  0
  6 18  1  1  0  0  0
  6 27  1  0  0  0  0
  7 19  1  6  0  0  0
  7 23  1  0  0  0  0
  8 12  1  0  0  0  0
  9 25  2  0  0  0  0
 10 28  1  1  0  0  0
 10 17  1  0  0  0  0
 11 13  1  0  0  0  0
 11  3  1  0  0  0  0
 12  2  1  0  0  0  0
 12 13  1  0  0  0  0
 13 21  2  0  0  0  0
 14 22  1  0  0  0  0
 15  9  1  0  0  0  0
 16 19  1  0  0  0  0
 17  7  1  0  0  0  0
 17  8  1  1  0  0  0
 18 15  1  0  0  0  0
 21 14  1  0  0  0  0
 21 20  1  0  0  0  0
 24  5  2  0  0  0  0
 26  5  1  0  0  0  0
 26 14  2  0  0  0  0
 27 22  1  6  0  0  0
 27  9  1  0  0  0  0
 29 30  1  0  0  0  0
 29 28  1  0  0  0  0
 30 31  2  0  0  0  0
 32 30  1  0  0  0  0
M  END
>  <MODEL>
5

>  <REMARK>
 VINA RESULT:      -6.9      3.240      5.017
  Name = 
  2 active torsions:
  status: ('A' for Active; 'I' for Inactive)
    1  A    between atoms: C_10  and  O_20
    2  A    between atoms: O_20  and  N_29
                            x       y       z     vdW  Elec       q    Type
                         _______ _______ _______ _____ _____    ______ ____

>  <TORSDO>
F 2

$$$$
=
 OpenBabel11122410433D

 32 37  0  0  1  0  0  0  0  0999 V2000
  181.7650  179.7280  139.1800 C   0  0  0  0  0  2  0  0  0  0  0  0
  185.9030  177.8460  141.5770 C   0  0  1  0  0  3  0  0  0  0  0  0
  184.4010  178.3830  146.4010 C   0  0  0  0  0  2  0  0  0  0  0  0
  185.6440  179.2190  146.6340 C   0  0  0  0  0  2  0  0  0  0  0  0
  188.4520  177.6320  141.2240 C   0  0  0  0  0  0  0  0  0  0  0  0
  189.8170  178.0840  141.6500 C   0  0  2  0  0  3  0  0  0  0  0  0
  184.3290  178.9100  140.0150 N   0  0  1  0  0  0  0  0  0  0  0  0
  183.4950  177.8800  142.1300 C   0  0  0  0  0  2  0  0  0  0  0  0
  191.2210  177.5850  143.4860 C   0  0  0  0  0  0  0  0  0  0  0  0
  181.8790  178.9210  140.4780 C   0  0  2  0  0  3  0  0  0  0  0  0
  184.0060  178.4890  144.9340 C   0  0  0  0  0  2  0  0  0  0  0  0
  184.8700  177.9060  142.6120 N   0  0  0  0  0  0  0  0  0  0  0  0
  185.1580  178.2220  143.9870 C   0  0  0  0  0  0  0  0  0  0  0  0
  187.5490  178.1530  143.4320 C   0  0  0  0  0  0  0  0  0  0  0  0
  191.8940  177.0880  142.3450 N   0  0  0  0  0  2  0  0  0  0  0  0
  182.8780  180.7560  139.0660 C   0  0  0  0  0  2  0  0  0  0  0  0
  183.3010  178.9820  141.0790 C   0  0  2  0  0  3  0  0  0  0  0  0
  190.9810  177.1790  141.2020 C   0  0  0  0  0  2  0  0  0  0  0  0
  184.2430  180.0570  139.0940 C   0  0  0  0  0  2  0  0  0  0  0  0
  186.7940  178.6220  145.8350 C   0  0  0  0  0  2  0  0  0  0  0  0
  186.4400  178.3690  144.3870 C   0  0  0  0  0  0  0  0  0  0  0  0
  188.9000  178.0990  143.9330 N   0  0  0  0  0  2  0  0  0  0  0  0
  185.6670  178.9980  140.6060 C   0  0  0  0  0  2  0  0  0  0  0  0
  188.2710  177.1420  140.0760 O   0  0  0  0  0  0  0  0  0  0  0  0
  191.6910  177.5310  144.6530 O   0  0  0  0  0  0  0  0  0  0  0  0
  187.3050  177.8860  142.1290 C   0  0  0  0  0  0  0  0  0  0  0  0
  189.9230  178.0790  143.1340 C   0  0  2  0  0  3  0  0  0  0  0  0
  181.4910  177.5980  140.2250 O   0  0  0  0  0  0  0  0  0  0  0  0
  181.5700  177.4550  138.8790 N   0  0  0  0  0  2  0  0  0  0  0  0
  182.3620  176.4280  138.2810 C   0  0  0  0  0  0  0  0  0  0  0  0
  183.0390  175.6450  138.9970 O   0  0  0  0  0  0  0  0  0  0  0  0
  182.3930  176.2880  136.8020 C   0  0  0  0  0  1  0  0  0  0  0  0
  1 10  1  0  0  0  0
  2 23  1  6  0  0  0
  2 26  1  0  0  0  0
  2 12  1  0  0  0  0
  3  4  1  0  0  0  0
  5  6  1  0  0  0  0
  5 26  1  0  0  0  0
  6 18  1  6  0  0  0
  6 27  1  0  0  0  0
  7 19  1  6  0  0  0
  7 23  1  0  0  0  0
  7 17  1  0  0  0  0
  8 12  1  0  0  0  0
  9 25  2  0  0  0  0
 10 28  1  6  0  0  0
 10 17  1  0  0  0  0
 11  3  1  0  0  0  0
 12 13  1  0  0  0  0
 13 21  2  0  0  0  0
 13 11  1  0  0  0  0
 14 22  1  0  0  0  0
 14 21  1  0  0  0  0
 15  9  1  0  0  0  0
 16 19  1  0  0  0  0
 16  1  1  0  0  0  0
 17  8  1  1  0  0  0
 18 15  1  0  0  0  0
 20  4  1  0  0  0  0
 21 20  1  0  0  0  0
 24  5  2  0  0  0  0
 26 14  2  0  0  0  0
 27  9  1  6  0  0  0
 27 22  1  0  0  0  0
 29 28  1  0  0  0  0
 30 29  1  0  0  0  0
 30 31  2  0  0  0  0
 32 30  1  0  0  0  0
M  END
>  <MODEL>
6

>  <REMARK>
 VINA RESULT:      -6.9      2.378      4.690
  Name = 
  2 active torsions:
  status: ('A' for Active; 'I' for Inactive)
    1  A    between atoms: C_10  and  O_20
    2  A    between atoms: O_20  and  N_29
                            x       y       z     vdW  Elec       q    Type
                         _______ _______ _______ _____ _____    ______ ____

>  <TORSDO>
F 2

$$$$
=
 OpenBabel11122410433D

 32 37  0  0  1  0  0  0  0  0999 V2000
  187.9550  178.2730  141.4290 C   0  0  0  0  0  2  0  0  0  0  0  0
  190.9320  176.2830  137.7430 C   0  0  1  0  0  3  0  0  0  0  0  0
  187.6670  172.9520  135.7280 C   0  0  0  0  0  2  0  0  0  0  0  0
  188.6850  171.8680  136.0160 C   0  0  0  0  0  2  0  0  0  0  0  0
  193.4280  175.8200  137.2680 C   0  0  0  0  0  0  0  0  0  0  0  0
  194.5010  174.7840  137.1160 C   0  0  2  0  0  3  0  0  0  0  0  0
  190.0340  177.3040  139.7930 N   0  0  1  0  0  0  0  0  0  0  0  0
  188.4980  176.6620  137.9340 C   0  0  0  0  0  2  0  0  0  0  0  0
  195.1120  173.2810  135.3950 C   0  0  0  0  0  0  0  0  0  0  0  0
  187.5970  177.7750  140.0250 C   0  0  2  0  0  3  0  0  0  0  0  0
  187.8630  174.0880  136.7250 C   0  0  0  0  0  2  0  0  0  0  0  0
  189.5790  175.8390  137.4080 N   0  0  0  0  0  0  0  0  0  0  0  0
  189.3010  174.5520  136.8210 C   0  0  0  0  0  0  0  0  0  0  0  0
  191.7220  174.2020  136.6070 C   0  0  0  0  0  0  0  0  0  0  0  0
  196.1940  174.1860  135.5140 N   0  0  0  0  0  2  0  0  0  0  0  0
  188.9780  177.3680  142.0950 C   0  0  0  0  0  2  0  0  0  0  0  0
  188.6740  176.8290  139.4500 C   0  0  2  0  0  3  0  0  0  0  0  0
  195.7880  175.2660  136.4170 C   0  0  0  0  0  2  0  0  0  0  0  0
  190.2580  177.3130  141.2490 C   0  0  0  0  0  2  0  0  0  0  0  0
  190.0800  172.4250  135.7660 C   0  0  0  0  0  2  0  0  0  0  0  0
  190.3220  173.7470  136.4570 C   0  0  0  0  0  0  0  0  0  0  0  0
  192.7760  173.4200  136.0120 N   0  0  0  0  0  2  0  0  0  0  0  0
  191.0370  176.3760  139.2620 C   0  0  0  0  0  2  0  0  0  0  0  0
  193.7250  177.0090  137.5650 O   0  0  0  0  0  0  0  0  0  0  0  0
  195.0990  172.3090  134.5950 O   0  0  0  0  0  0  0  0  0  0  0  0
  192.0100  175.3910  137.1840 C   0  0  0  0  0  0  0  0  0  0  0  0
  194.0290  173.6730  136.2480 C   0  0  2  0  0  3  0  0  0  0  0  0
  187.3960  178.8830  139.1890 O   0  0  0  0  0  0  0  0  0  0  0  0
  186.2220  178.6430  138.5540 N   0  0  0  0  0  2  0  0  0  0  0  0
  184.9750  179.0780  139.0960 C   0  0  0  0  0  0  0  0  0  0  0  0
  184.9330  179.6740  140.2050 O   0  0  0  0  0  0  0  0  0  0  0  0
  183.7160  178.8220  138.3490 C   0  0  0  0  0  1  0  0  0  0  0  0
  1 16  1  0  0  0  0
  2 23  1  1  0  0  0
  3  4  1  0  0  0  0
  3 11  1  0  0  0  0
  5 24  2  0  0  0  0
  6 18  1  6  0  0  0
  6  5  1  0  0  0  0
  7 23  1  6  0  0  0
  7 19  1  0  0  0  0
  9 15  1  0  0  0  0
 10 28  1  6  0  0  0
 10  1  1  0  0  0  0
 11 13  1  0  0  0  0
 12  2  1  0  0  0  0
 12  8  1  0  0  0  0
 13 12  1  0  0  0  0
 14 26  2  0  0  0  0
 15 18  1  0  0  0  0
 17  8  1  6  0  0  0
 17  7  1  0  0  0  0
 17 10  1  0  0  0  0
 19 16  1  0  0  0  0
 20  4  1  0  0  0  0
 20 21  1  0  0  0  0
 21 14  1  0  0  0  0
 21 13  2  0  0  0  0
 22 27  1  0  0  0  0
 22 14  1  0  0  0  0
 25  9  2  0  0  0  0
 26  5  1  0  0  0  0
 26  2  1  0  0  0  0
 27  9  1  6  0  0  0
 27  6  1  0  0  0  0
 29 30  1  0  0  0  0
 29 28  1  0  0  0  0
 30 31  2  0  0  0  0
 32 30  1  0  0  0  0
M  END
>  <MODEL>
7

>  <REMARK>
 VINA RESULT:      -5.9      5.954      8.908
  Name = 
  2 active torsions:
  status: ('A' for Active; 'I' for Inactive)
    1  A    between atoms: C_10  and  O_20
    2  A    between atoms: O_20  and  N_29
                            x       y       z     vdW  Elec       q    Type
                         _______ _______ _______ _____ _____    ______ ____

>  <TORSDO>
F 2

$$$$
=
 OpenBabel11122410433D

 32 37  0  0  1  0  0  0  0  0999 V2000
  180.7410  179.6740  138.8880 C   0  0  0  0  0  2  0  0  0  0  0  0
  185.0650  177.5010  137.1570 C   0  0  1  0  0  3  0  0  0  0  0  0
  183.2610  172.9250  135.8880 C   0  0  0  0  0  2  0  0  0  0  0  0
  184.2880  172.3240  136.8260 C   0  0  0  0  0  2  0  0  0  0  0  0
  187.6160  177.6240  137.5380 C   0  0  0  0  0  0  0  0  0  0  0  0
  188.8350  176.9390  138.0810 C   0  0  2  0  0  3  0  0  0  0  0  0
  183.3780  178.8430  138.3410 N   0  0  1  0  0  0  0  0  0  0  0  0
  182.6800  177.2270  136.5720 C   0  0  0  0  0  2  0  0  0  0  0  0
  190.2250  175.1890  137.3070 C   0  0  0  0  0  0  0  0  0  0  0  0
  180.9610  178.6650  137.7560 C   0  0  2  0  0  3  0  0  0  0  0  0
  182.9210  174.3300  136.3680 C   0  0  0  0  0  2  0  0  0  0  0  0
  183.9950  176.6140  136.7010 N   0  0  0  0  0  0  0  0  0  0  0  0
  184.1460  175.1830  136.6250 C   0  0  0  0  0  0  0  0  0  0  0  0
  186.5220  175.4720  137.1740 C   0  0  0  0  0  0  0  0  0  0  0  0
  191.0390  176.3470  137.3210 N   0  0  0  0  0  2  0  0  0  0  0  0
  181.6190  179.3600  140.0890 C   0  0  0  0  0  2  0  0  0  0  0  0
  182.3090  177.9230  137.8890 C   0  0  2  0  0  3  0  0  0  0  0  0
  190.1820  177.5040  137.5900 C   0  0  0  0  0  2  0  0  0  0  0  0
  183.0970  179.3910  139.6800 C   0  0  0  0  0  2  0  0  0  0  0  0
  185.5740  173.1340  136.7290 C   0  0  0  0  0  2  0  0  0  0  0  0
  185.3490  174.6210  136.8750 C   0  0  0  0  0  0  0  0  0  0  0  0
  187.8290  174.8650  137.2180 N   0  0  0  0  0  2  0  0  0  0  0  0
  184.6390  178.1120  138.4880 C   0  0  0  0  0  2  0  0  0  0  0  0
  187.5960  178.8780  137.4030 O   0  0  0  0  0  0  0  0  0  0  0  0
  190.6410  174.0460  136.9820 O   0  0  0  0  0  0  0  0  0  0  0  0
  186.4000  176.8140  137.2830 C   0  0  0  0  0  0  0  0  0  0  0  0
  188.8700  175.5200  137.6370 C   0  0  2  0  0  3  0  0  0  0  0  0
  180.8700  179.3360  136.5280 O   0  0  0  0  0  0  0  0  0  0  0  0
  180.7470  180.6480  136.8470 N   0  0  0  0  0  2  0  0  0  0  0  0
  180.6990  181.6620  135.8420 C   0  0  0  0  0  0  0  0  0  0  0  0
  180.8040  181.3600  134.6240 O   0  0  0  0  0  0  0  0  0  0  0  0
  180.5290  183.0840  136.2360 C   0  0  0  0  0  1  0  0  0  0  0  0
  1 16  1  0  0  0  0
  2 26  1  0  0  0  0
  2 23  1  1  0  0  0
  3 11  1  0  0  0  0
  3  4  1  0  0  0  0
  5  6  1  0  0  0  0
  6 18  1  6  0  0  0
  7 23  1  1  0  0  0
  7 19  1  0  0  0  0
  8 12  1  0  0  0  0
  9 15  1  0  0  0  0
  9 27  1  0  0  0  0
 10 28  1  6  0  0  0
 10 17  1  0  0  0  0
 10  1  1  0  0  0  0
 11 13  1  0  0  0  0
 12  2  1  0  0  0  0
 13 12  1  0  0  0  0
 13 21  2  0  0  0  0
 14 22  1  0  0  0  0
 14 26  2  0  0  0  0
 15 18  1  0  0  0  0
 17  8  1  6  0  0  0
 17  7  1  0  0  0  0
 19 16  1  0  0  0  0
 20  4  1  0  0  0  0
 20 21  1  0  0  0  0
 21 14  1  0  0  0  0
 24  5  2  0  0  0  0
 25  9  2  0  0  0  0
 26  5  1  0  0  0  0
 27 22  1  6  0  0  0
 27  6  1  0  0  0  0
 28 29  1  0  0  0  0
 30 32  1  0  0  0  0
 30 29  1  0  0  0  0
 31 30  2  0  0  0  0
M  END
>  <MODEL>
8

>  <REMARK>
 VINA RESULT:      -5.8      4.909      6.302
  Name = 
  2 active torsions:
  status: ('A' for Active; 'I' for Inactive)
    1  A    between atoms: C_10  and  O_20
    2  A    between atoms: O_20  and  N_29
                            x       y       z     vdW  Elec       q    Type
                         _______ _______ _______ _____ _____    ______ ____

>  <TORSDO>
F 2

$$$$
=
 OpenBabel11122410433D

 32 37  0  0  1  0  0  0  0  0999 V2000
  190.5790  173.7830  136.5750 C   0  0  0  0  0  2  0  0  0  0  0  0
  186.7430  177.1680  137.0600 C   0  0  1  0  0  3  0  0  0  0  0  0
  187.8420  179.0380  141.6540 C   0  0  0  0  0  2  0  0  0  0  0  0
  186.4530  178.6190  142.0920 C   0  0  0  0  0  2  0  0  0  0  0  0
  184.3040  177.5010  136.2780 C   0  0  0  0  0  0  0  0  0  0  0  0
  182.8570  177.5230  136.6690 C   0  0  2  0  0  3  0  0  0  0  0  0
  188.1730  175.2480  136.4980 N   0  0  1  0  0  0  0  0  0  0  0  0
  189.0650  177.1100  137.8990 C   0  0  0  0  0  2  0  0  0  0  0  0
  181.4710  179.0890  137.7740 C   0  0  0  0  0  0  0  0  0  0  0  0
  190.5460  175.1560  137.2550 C   0  0  2  0  0  3  0  0  0  0  0  0
  188.2920  178.1300  140.5160 C   0  0  0  0  0  2  0  0  0  0  0  0
  187.6860  177.5220  138.1200 N   0  0  0  0  0  0  0  0  0  0  0  0
  187.2660  178.0120  139.4090 C   0  0  0  0  0  0  0  0  0  0  0  0
  184.9670  178.0970  138.5520 C   0  0  0  0  0  0  0  0  0  0  0  0
  180.9690  179.0000  136.4540 N   0  0  0  0  0  2  0  0  0  0  0  0
  189.3000  173.0050  136.8340 C   0  0  0  0  0  2  0  0  0  0  0  0
  189.1070  175.6070  137.5890 C   0  0  2  0  0  3  0  0  0  0  0  0
  181.9120  178.2060  135.6620 C   0  0  0  0  0  2  0  0  0  0  0  0
  188.0920  173.7890  136.3060 C   0  0  0  0  0  2  0  0  0  0  0  0
  185.4830  178.8570  140.9430 C   0  0  0  0  0  2  0  0  0  0  0  0
  185.9590  178.2670  139.6360 C   0  0  0  0  0  0  0  0  0  0  0  0
  183.6240  178.5820  138.7540 N   0  0  0  0  0  2  0  0  0  0  0  0
  186.8110  175.6590  136.8490 C   0  0  0  0  0  2  0  0  0  0  0  0
  184.6380  177.2900  135.0810 O   0  0  0  0  0  0  0  0  0  0  0  0
  180.9540  179.8070  138.6710 O   0  0  0  0  0  0  0  0  0  0  0  0
  185.3290  177.6080  137.3440 C   0  0  0  0  0  0  0  0  0  0  0  0
  182.6700  178.3160  137.9140 C   0  0  2  0  0  3  0  0  0  0  0  0
  191.1910  176.0870  136.4290 O   0  0  0  0  0  0  0  0  0  0  0  0
  192.3860  175.5240  136.1220 N   0  0  0  0  0  2  0  0  0  0  0  0
  193.5820  175.8800  136.8170 C   0  0  0  0  0  0  0  0  0  0  0  0
  193.5590  176.7580  137.7190 O   0  0  0  0  0  0  0  0  0  0  0  0
  194.8630  175.2130  136.4690 C   0  0  0  0  0  1  0  0  0  0  0  0
  1 16  1  0  0  0  0
  1 10  1  0  0  0  0
  2 23  1  1  0  0  0
  2 26  1  0  0  0  0
  2 12  1  0  0  0  0
  3  4  1  0  0  0  0
  5  6  1  0  0  0  0
  5 26  1  0  0  0  0
  6 18  1  6  0  0  0
  6 27  1  0  0  0  0
  7 19  1  1  0  0  0
  7 23  1  0  0  0  0
  7 17  1  0  0  0  0
  8 12  1  0  0  0  0
  9 25  2  0  0  0  0
 10 28  1  6  0  0  0
 10 17  1  0  0  0  0
 11  3  1  0  0  0  0
 12 13  1  0  0  0  0
 13 21  2  0  0  0  0
 13 11  1  0  0  0  0
 14 22  1  0  0  0  0
 14 21  1  0  0  0  0
 15  9  1  0  0  0  0
 17  8  1  6  0  0  0
 18 15  1  0  0  0  0
 19 16  1  0  0  0  0
 20  4  1  0  0  0  0
 21 20  1  0  0  0  0
 24  5  2  0  0  0  0
 26 14  2  0  0  0  0
 27  9  1  6  0  0  0
 27 22  1  0  0  0  0
 29 28  1  0  0  0  0
 29 30  1  0  0  0  0
 30 31  2  0  0  0  0
 32 30  1  0  0  0  0
M  END
>  <MODEL>
9

>  <REMARK>
 VINA RESULT:      -5.8      4.329      8.982
  Name = 
  2 active torsions:
  status: ('A' for Active; 'I' for Inactive)
    1  A    between atoms: C_10  and  O_20
    2  A    between atoms: O_20  and  N_29
                            x       y       z     vdW  Elec       q    Type
                         _______ _______ _______ _____ _____    ______ ____

>  <TORSDO>
F 2

$$$$
