=
 OpenBabel11122411443D

 37 45  0  0  1  0  0  0  0  0999 V2000
  183.8260  178.3160  139.7170 C   0  0  2  0  0  3  0  0  0  0  0  0
  185.3640  175.4220  136.3600 C   0  0  0  0  0  0  0  0  0  0  0  0
  188.3770  177.5200  138.2460 C   0  0  0  0  0  0  0  0  0  0  0  0
  182.8220  179.4380  140.0160 C   0  0  1  0  0  0  0  0  0  0  0  0
  187.6330  178.2260  142.0230 C   0  0  0  0  0  2  0  0  0  0  0  0
  187.6950  176.3930  136.2440 C   0  0  0  0  0  0  0  0  0  0  0  0
  187.7510  178.0810  139.4980 C   0  0  2  0  0  3  0  0  0  0  0  0
  184.0060  179.0770  142.1680 C   0  0  2  0  0  3  0  0  0  0  0  0
  187.4070  177.0750  137.4100 C   0  0  0  0  0  0  0  0  0  0  0  0
  188.3320  177.5390  140.8350 C   0  0  1  0  0  3  0  0  0  0  0  0
  188.9990  176.2520  135.8730 N   0  0  0  0  0  0  0  0  0  0  0  0
  183.2150  178.3750  141.0670 C   0  0  2  0  0  3  0  0  0  0  0  0
  186.1230  177.1780  137.9530 N   0  0  0  0  0  0  0  0  0  0  0  0
  185.7120  174.1840  137.1710 C   0  0  0  0  0  1  0  0  0  0  0  0
  190.8010  177.7540  138.8190 C   0  0  0  0  0  2  0  0  0  0  0  0
  190.0110  176.7280  136.6640 C   0  0  0  0  0  3  0  0  0  0  0  0
  184.9550  176.5660  137.3150 C   0  0  0  0  0  2  0  0  0  0  0  0
  185.4990  179.1830  141.8770 C   0  0  1  0  0  3  0  0  0  0  0  0
  186.2120  177.9190  142.0790 N   0  0  0  0  0  2  0  0  0  0  0  0
  189.7180  177.3750  137.8820 C   0  0  0  0  0  0  0  0  0  0  0  0
  186.2470  177.6730  139.3220 C   0  0  2  0  0  3  0  0  0  0  0  0
  186.5590  175.8100  135.4540 C   0  0  0  0  0  2  0  0  0  0  0  0
  189.8620  177.7940  140.9700 C   0  0  2  0  0  3  0  0  0  0  0  0
  184.1800  175.0900  135.4770 C   0  0  0  0  0  1  0  0  0  0  0  0
  185.7150  179.7240  140.5900 O   0  0  0  0  0  0  0  0  0  0  0  0
  183.7320  178.4380  143.5160 C   0  0  0  0  0  1  0  0  0  0  0  0
  185.2750  178.8350  139.5760 C   0  0  2  0  0  3  0  0  0  0  0  0
  190.6360  176.9840  140.0390 N   0  0  0  0  0  2  0  0  0  0  0  0
  182.1250  179.3000  138.7170 C   0  0  0  0  0  2  0  0  0  0  0  0
  181.3660  179.1430  139.9260 N   0  0  0  0  0  2  0  0  0  0  0  0
  190.2600  178.5190  143.3610 C   0  0  0  0  0  3  0  0  0  0  0  0
  190.3830  177.5460  142.3580 C   0  0  0  0  0  0  0  0  0  0  0  0
  190.9970  176.3240  142.6500 C   0  0  0  0  0  3  0  0  0  0  0  0
  192.0980  174.8600  144.2200 O   0  0  0  0  0  1  0  0  0  0  0  0
  191.3660  177.0460  144.9320 C   0  0  0  0  0  3  0  0  0  0  0  0
  191.4880  176.0730  143.9340 C   0  0  0  0  0  0  0  0  0  0  0  0
  190.7520  178.2680  144.6450 C   0  0  0  0  0  3  0  0  0  0  0  0
  1  4  1  0  0  0  0
  1 12  1  0  0  0  0
  2 14  1  0  0  0  0
  2 17  1  0  0  0  0
  3  7  1  0  0  0  0
  4 12  1  0  0  0  0
  5 19  1  0  0  0  0
  6  9  1  0  0  0  0
  7 10  1  0  0  0  0
  8 26  1  0  0  0  0
  9 13  1  0  0  0  0
  9  3  2  0  0  0  0
 10 23  1  0  0  0  0
 10  5  1  0  0  0  0
 11  6  2  0  0  0  0
 11 16  1  0  0  0  0
 12  8  1  0  0  0  0
 13 21  1  0  0  0  0
 15 28  1  0  0  0  0
 16 20  2  0  0  0  0
 17 13  1  0  0  0  0
 18 19  1  0  0  0  0
 18  8  1  0  0  0  0
 20  3  1  0  0  0  0
 20 15  1  0  0  0  0
 21  7  1  0  0  0  0
 21 27  1  0  0  0  0
 22  6  1  0  0  0  0
 22  2  1  0  0  0  0
 23 32  1  0  0  0  0
 24  2  1  0  0  0  0
 25 18  1  0  0  0  0
 27  1  1  0  0  0  0
 27 25  1  0  0  0  0
 28 23  1  0  0  0  0
 29 30  1  0  0  0  0
 29  4  1  0  0  0  0
 30  4  1  0  0  0  0
 31 37  1  0  0  0  0
 32 33  1  0  0  0  0
 32 31  2  0  0  0  0
 33 36  2  0  0  0  0
 36 34  1  0  0  0  0
 36 35  1  0  0  0  0
 37 35  2  0  0  0  0
M  END
>  <MODEL>
1

>  <REMARK>
 VINA RESULT:      -8.8      0.000      0.000
  Name = 
  1 active torsions:
  status: ('A' for Active; 'I' for Inactive)
    1  A    between atoms: C_23  and  C_30
                            x       y       z     vdW  Elec       q    Type
                         _______ _______ _______ _____ _____    ______ ____

>  <TORSDO>
F 1

$$$$
=
 OpenBabel11122411443D

 37 45  0  0  1  0  0  0  0  0999 V2000
  181.9930  178.2060  137.5740 C   0  0  2  0  0  3  0  0  0  0  0  0
  185.6400  175.6330  136.1290 C   0  0  0  0  0  0  0  0  0  0  0  0
  186.5550  178.2170  139.2150 C   0  0  0  0  0  0  0  0  0  0  0  0
  180.8700  179.1370  137.0930 C   0  0  1  0  0  0  0  0  0  0  0  0
  183.5790  178.7730  141.6940 C   0  0  0  0  0  2  0  0  0  0  0  0
  187.3970  176.9950  137.3330 C   0  0  0  0  0  0  0  0  0  0  0  0
  185.2260  178.6570  139.7760 C   0  0  2  0  0  3  0  0  0  0  0  0
  180.5370  178.9810  139.5480 C   0  0  2  0  0  3  0  0  0  0  0  0
  186.3680  177.6130  138.0160 C   0  0  0  0  0  0  0  0  0  0  0  0
  184.9430  178.2210  141.2420 C   0  0  1  0  0  3  0  0  0  0  0  0
  188.6610  177.0830  137.8350 N   0  0  0  0  0  0  0  0  0  0  0  0
  180.6860  178.1550  138.2730 C   0  0  2  0  0  3  0  0  0  0  0  0
  185.0190  177.4900  137.6670 N   0  0  0  0  0  0  0  0  0  0  0  0
  185.5920  174.4720  137.1100 C   0  0  0  0  0  1  0  0  0  0  0  0
  188.0690  178.8670  141.0980 C   0  0  0  0  0  2  0  0  0  0  0  0
  188.9050  177.7260  139.0200 C   0  0  0  0  0  3  0  0  0  0  0  0
  184.5800  176.6860  136.5240 C   0  0  0  0  0  2  0  0  0  0  0  0
  181.8660  179.3450  140.2010 C   0  0  1  0  0  3  0  0  0  0  0  0
  182.4770  178.2240  140.9200 N   0  0  0  0  0  2  0  0  0  0  0  0
  187.8450  178.3080  139.7450 C   0  0  0  0  0  0  0  0  0  0  0  0
  184.2150  177.9950  138.7770 C   0  0  2  0  0  3  0  0  0  0  0  0
  187.0710  176.2250  136.0860 C   0  0  0  0  0  2  0  0  0  0  0  0
  186.0210  178.7380  142.2390 C   0  0  2  0  0  3  0  0  0  0  0  0
  185.2980  175.1030  134.7530 C   0  0  0  0  0  1  0  0  0  0  0  0
  182.7420  179.9190  139.2530 O   0  0  0  0  0  0  0  0  0  0  0  0
  179.5920  178.3000  140.5210 C   0  0  0  0  0  1  0  0  0  0  0  0
  183.1390  178.9700  138.2760 C   0  0  2  0  0  3  0  0  0  0  0  0
  187.3050  178.0770  142.0480 N   0  0  0  0  0  2  0  0  0  0  0  0
  181.1340  178.8830  135.6580 C   0  0  0  0  0  2  0  0  0  0  0  0
  179.8280  178.5930  136.1800 N   0  0  0  0  0  2  0  0  0  0  0  0
  184.3580  179.0000  144.1270 C   0  0  0  0  0  3  0  0  0  0  0  0
  185.6190  178.5800  143.6780 C   0  0  0  0  0  0  0  0  0  0  0  0
  186.5190  178.0030  144.5800 C   0  0  0  0  0  3  0  0  0  0  0  0
  187.0590  177.2750  146.8160 O   0  0  0  0  0  1  0  0  0  0  0  0
  184.9070  178.2690  146.3690 C   0  0  0  0  0  3  0  0  0  0  0  0
  186.1640  177.8470  145.9240 C   0  0  0  0  0  0  0  0  0  0  0  0
  184.0050  178.8450  145.4710 C   0  0  0  0  0  3  0  0  0  0  0  0
  1 12  1  0  0  0  0
  1 27  1  0  0  0  0
  2 17  1  0  0  0  0
  2 14  1  0  0  0  0
  3 20  1  0  0  0  0
  3  7  1  0  0  0  0
  4  1  1  0  0  0  0
  4 12  1  0  0  0  0
  6 11  2  0  0  0  0
  6  9  1  0  0  0  0
  7 10  1  0  0  0  0
  8 18  1  0  0  0  0
  8 26  1  0  0  0  0
  9  3  2  0  0  0  0
 10  5  1  0  0  0  0
 10 23  1  0  0  0  0
 11 16  1  0  0  0  0
 12  8  1  0  0  0  0
 13  9  1  0  0  0  0
 13 21  1  0  0  0  0
 15 28  1  0  0  0  0
 16 20  2  0  0  0  0
 17 13  1  0  0  0  0
 18 19  1  0  0  0  0
 19  5  1  0  0  0  0
 20 15  1  0  0  0  0
 21  7  1  0  0  0  0
 22  2  1  0  0  0  0
 22  6  1  0  0  0  0
 23 32  1  0  0  0  0
 24  2  1  0  0  0  0
 25 18  1  0  0  0  0
 27 21  1  0  0  0  0
 27 25  1  0  0  0  0
 28 23  1  0  0  0  0
 29 30  1  0  0  0  0
 29  4  1  0  0  0  0
 30  4  1  0  0  0  0
 31 37  1  0  0  0  0
 32 31  2  0  0  0  0
 32 33  1  0  0  0  0
 33 36  2  0  0  0  0
 36 35  1  0  0  0  0
 36 34  1  0  0  0  0
 37 35  2  0  0  0  0
M  END
>  <MODEL>
2

>  <REMARK>
 VINA RESULT:      -8.7      2.364      3.783
  Name = 
  1 active torsions:
  status: ('A' for Active; 'I' for Inactive)
    1  A    between atoms: C_23  and  C_30
                            x       y       z     vdW  Elec       q    Type
                         _______ _______ _______ _____ _____    ______ ____

>  <TORSDO>
F 1

$$$$
=
 OpenBabel11122411443D

 37 45  0  0  1  0  0  0  0  0999 V2000
  182.5240  178.6720  142.4770 C   0  0  2  0  0  3  0  0  0  0  0  0
  182.4610  176.4590  138.3400 C   0  0  0  0  0  0  0  0  0  0  0  0
  186.0580  178.3010  139.1780 C   0  0  0  0  0  0  0  0  0  0  0  0
  181.7710  179.6900  143.3450 C   0  0  1  0  0  0  0  0  0  0  0  0
  186.9310  178.3150  142.9930 C   0  0  0  0  0  2  0  0  0  0  0  0
  184.5820  177.5160  137.4610 C   0  0  0  0  0  0  0  0  0  0  0  0
  186.0140  178.6140  140.6530 C   0  0  2  0  0  3  0  0  0  0  0  0
  183.7080  179.0020  144.7370 C   0  0  2  0  0  3  0  0  0  0  0  0
  184.8170  177.9750  138.7420 C   0  0  0  0  0  0  0  0  0  0  0  0
  187.0640  177.8690  141.5250 C   0  0  1  0  0  3  0  0  0  0  0  0
  185.6190  177.4870  136.5770 N   0  0  0  0  0  0  0  0  0  0  0  0
  182.5130  178.4740  143.9470 C   0  0  2  0  0  3  0  0  0  0  0  0
  183.8660  177.9380  139.7670 N   0  0  0  0  0  0  0  0  0  0  0  0
  183.0580  175.1120  138.7140 C   0  0  0  0  0  1  0  0  0  0  0  0
  188.5140  178.5170  138.7530 C   0  0  0  0  0  2  0  0  0  0  0  0
  186.8820  177.8530  136.9600 C   0  0  0  0  0  3  0  0  0  0  0  0
  182.5180  177.4050  139.5610 C   0  0  0  0  0  2  0  0  0  0  0  0
  184.9590  179.2080  143.8900 C   0  0  1  0  0  3  0  0  0  0  0  0
  185.6440  177.9540  143.5650 N   0  0  0  0  0  2  0  0  0  0  0  0
  187.1310  178.2680  138.2840 C   0  0  0  0  0  0  0  0  0  0  0  0
  184.5520  178.1910  141.0320 C   0  0  2  0  0  3  0  0  0  0  0  0
  183.2020  177.0390  137.1100 C   0  0  0  0  0  2  0  0  0  0  0  0
  188.5260  178.1500  141.0720 C   0  0  2  0  0  3  0  0  0  0  0  0
  181.0090  176.2440  137.9690 C   0  0  0  0  0  1  0  0  0  0  0  0
  184.6580  179.9720  142.7400 O   0  0  0  0  0  0  0  0  0  0  0  0
  183.9770  178.1300  145.9480 C   0  0  0  0  0  1  0  0  0  0  0  0
  183.8110  179.2580  141.8540 C   0  0  2  0  0  3  0  0  0  0  0  0
  188.8260  177.5410  139.7830 N   0  0  0  0  0  2  0  0  0  0  0  0
  180.6030  179.7550  142.4360 C   0  0  0  0  0  2  0  0  0  0  0  0
  180.3930  179.3640  143.8020 N   0  0  0  0  0  2  0  0  0  0  0  0
  189.7460  176.3160  142.3160 C   0  0  0  0  0  3  0  0  0  0  0  0
  189.5530  177.6830  142.0640 C   0  0  0  0  0  0  0  0  0  0  0  0
  190.3280  178.6290  142.7440 C   0  0  0  0  0  3  0  0  0  0  0  0
  192.0550  179.1560  144.3440 O   0  0  0  0  0  1  0  0  0  0  0  0
  191.4780  176.8520  143.9210 C   0  0  0  0  0  3  0  0  0  0  0  0
  191.2880  178.2150  143.6710 C   0  0  0  0  0  0  0  0  0  0  0  0
  190.7070  175.9030  143.2440 C   0  0  0  0  0  3  0  0  0  0  0  0
  1  4  1  0  0  0  0
  1 12  1  0  0  0  0
  2 14  1  0  0  0  0
  2 17  1  0  0  0  0
  3  7  1  0  0  0  0
  4 30  1  0  0  0  0
  4 12  1  0  0  0  0
  5 19  1  0  0  0  0
  6  9  2  0  0  0  0
  7 21  1  0  0  0  0
  7 10  1  0  0  0  0
  8 26  1  0  0  0  0
  9  3  1  0  0  0  0
  9 13  1  0  0  0  0
 10  5  1  0  0  0  0
 11 16  2  0  0  0  0
 11  6  1  0  0  0  0
 12  8  1  0  0  0  0
 13 21  1  0  0  0  0
 15 28  1  0  0  0  0
 16 20  1  0  0  0  0
 17 13  1  0  0  0  0
 18  8  1  0  0  0  0
 19 18  1  0  0  0  0
 20 15  1  0  0  0  0
 20  3  2  0  0  0  0
 21 27  1  0  0  0  0
 22  6  1  0  0  0  0
 22  2  1  0  0  0  0
 23 10  1  0  0  0  0
 23 32  1  0  0  0  0
 24  2  1  0  0  0  0
 25 18  1  0  0  0  0
 27  1  1  0  0  0  0
 27 25  1  0  0  0  0
 28 23  1  0  0  0  0
 29  4  1  0  0  0  0
 29 30  1  0  0  0  0
 31 37  1  0  0  0  0
 32 31  2  0  0  0  0
 32 33  1  0  0  0  0
 33 36  2  0  0  0  0
 36 35  1  0  0  0  0
 36 34  1  0  0  0  0
 37 35  2  0  0  0  0
M  END
>  <MODEL>
3

>  <REMARK>
 VINA RESULT:      -8.5      1.929      2.868
  Name = 
  1 active torsions:
  status: ('A' for Active; 'I' for Inactive)
    1  A    between atoms: C_23  and  C_30
                            x       y       z     vdW  Elec       q    Type
                         _______ _______ _______ _____ _____    ______ ____

>  <TORSDO>
F 1

$$$$
=
 OpenBabel11122411443D

 37 45  0  0  1  0  0  0  0  0999 V2000
  184.7530  178.3990  139.7150 C   0  0  2  0  0  3  0  0  0  0  0  0
  187.0710  175.6460  136.7050 C   0  0  0  0  0  0  0  0  0  0  0  0
  189.5150  177.5300  139.4460 C   0  0  0  0  0  0  0  0  0  0  0  0
  183.7260  179.5370  139.8090 C   0  0  1  0  0  0  0  0  0  0  0  0
  187.8110  178.0480  142.9310 C   0  0  0  0  0  2  0  0  0  0  0  0
  189.3670  176.5410  137.2670 C   0  0  0  0  0  0  0  0  0  0  0  0
  188.5910  178.0410  140.5220 C   0  0  2  0  0  3  0  0  0  0  0  0
  184.2920  179.0150  142.1700 C   0  0  2  0  0  3  0  0  0  0  0  0
  188.7930  177.1670  138.3580 C   0  0  0  0  0  0  0  0  0  0  0  0
  188.7870  177.4050  141.9280 C   0  0  1  0  0  3  0  0  0  0  0  0
  190.7200  176.3760  137.2450 N   0  0  0  0  0  0  0  0  0  0  0  0
  183.8070  178.4030  140.8580 C   0  0  2  0  0  3  0  0  0  0  0  0
  187.4130  177.2840  138.5490 N   0  0  0  0  0  0  0  0  0  0  0  0
  187.1690  174.3540  137.4990 C   0  0  0  0  0  1  0  0  0  0  0  0
  191.7050  177.6480  140.6500 C   0  0  0  0  0  2  0  0  0  0  0  0
  191.4950  176.7720  138.3030 C   0  0  0  0  0  3  0  0  0  0  0  0
  186.4450  176.7490  137.5890 C   0  0  0  0  0  2  0  0  0  0  0  0
  185.8100  179.0850  142.2890 C   0  0  1  0  0  3  0  0  0  0  0  0
  186.4210  177.7880  142.5920 N   0  0  0  0  0  2  0  0  0  0  0  0
  190.9020  177.3590  139.4390 C   0  0  0  0  0  0  0  0  0  0  0  0
  187.1800  177.6960  139.9310 C   0  0  2  0  0  3  0  0  0  0  0  0
  188.4700  176.0430  136.1710 C   0  0  0  0  0  2  0  0  0  0  0  0
  190.2310  177.5990  142.4760 C   0  0  2  0  0  3  0  0  0  0  0  0
  186.1560  175.4060  135.5220 C   0  0  0  0  0  1  0  0  0  0  0  0
  186.3690  179.6900  141.1410 O   0  0  0  0  0  0  0  0  0  0  0  0
  183.6590  178.3120  143.3560 C   0  0  0  0  0  1  0  0  0  0  0  0
  186.1970  178.8750  139.9930 C   0  0  2  0  0  3  0  0  0  0  0  0
  191.2090  176.8170  141.7330 N   0  0  0  0  0  2  0  0  0  0  0  0
  183.3950  179.4960  138.3670 C   0  0  0  0  0  2  0  0  0  0  0  0
  182.3410  179.2980  139.3220 N   0  0  0  0  0  2  0  0  0  0  0  0
  191.5400  176.6860  144.4390 C   0  0  0  0  0  3  0  0  0  0  0  0
  190.3610  177.2560  143.9330 C   0  0  0  0  0  0  0  0  0  0  0  0
  189.2910  177.5120  144.7960 C   0  0  0  0  0  3  0  0  0  0  0  0
  188.3270  177.4540  147.0070 O   0  0  0  0  0  1  0  0  0  0  0  0
  190.5670  176.6300  146.6550 C   0  0  0  0  0  3  0  0  0  0  0  0
  189.3920  177.1990  146.1540 C   0  0  0  0  0  0  0  0  0  0  0  0
  191.6400  176.3740  145.7980 C   0  0  0  0  0  3  0  0  0  0  0  0
  1  4  1  0  0  0  0
  1 27  1  0  0  0  0
  1 12  1  0  0  0  0
  2 14  1  0  0  0  0
  2 17  1  0  0  0  0
  3  7  1  0  0  0  0
  4 12  1  0  0  0  0
  6  9  1  0  0  0  0
  7 10  1  0  0  0  0
  8 18  1  0  0  0  0
  8 26  1  0  0  0  0
  9 13  1  0  0  0  0
  9  3  2  0  0  0  0
 10 23  1  0  0  0  0
 10  5  1  0  0  0  0
 11  6  2  0  0  0  0
 11 16  1  0  0  0  0
 12  8  1  0  0  0  0
 13 21  1  0  0  0  0
 15 28  1  0  0  0  0
 16 20  2  0  0  0  0
 17 13  1  0  0  0  0
 18 19  1  0  0  0  0
 19  5  1  0  0  0  0
 20  3  1  0  0  0  0
 20 15  1  0  0  0  0
 21 27  1  0  0  0  0
 21  7  1  0  0  0  0
 22  2  1  0  0  0  0
 22  6  1  0  0  0  0
 23 32  1  0  0  0  0
 24  2  1  0  0  0  0
 25 18  1  0  0  0  0
 27 25  1  0  0  0  0
 28 23  1  0  0  0  0
 29 30  1  0  0  0  0
 29  4  1  0  0  0  0
 30  4  1  0  0  0  0
 31 37  1  0  0  0  0
 32 31  2  0  0  0  0
 32 33  1  0  0  0  0
 33 36  2  0  0  0  0
 36 35  1  0  0  0  0
 36 34  1  0  0  0  0
 37 35  2  0  0  0  0
M  END
>  <MODEL>
4

>  <REMARK>
 VINA RESULT:      -8.4      1.464      1.876
  Name = 
  1 active torsions:
  status: ('A' for Active; 'I' for Inactive)
    1  A    between atoms: C_23  and  C_30
                            x       y       z     vdW  Elec       q    Type
                         _______ _______ _______ _____ _____    ______ ____

>  <TORSDO>
F 1

$$$$
=
 OpenBabel11122411443D

 37 45  0  0  1  0  0  0  0  0999 V2000
  191.3170  176.3500  138.7240 C   0  0  2  0  0  3  0  0  0  0  0  0
  189.5370  176.8210  143.0390 C   0  0  0  0  0  0  0  0  0  0  0  0
  187.0840  178.2970  140.0660 C   0  0  0  0  0  0  0  0  0  0  0  0
  192.5620  176.6170  137.8650 C   0  0  1  0  0  0  0  0  0  0  0  0
  187.3450  176.2920  136.7150 C   0  0  0  0  0  2  0  0  0  0  0  0
  187.7030  178.4300  142.3770 C   0  0  0  0  0  0  0  0  0  0  0  0
  187.6290  177.7300  138.7790 C   0  0  2  0  0  3  0  0  0  0  0  0
  190.9680  175.5070  136.3190 C   0  0  2  0  0  3  0  0  0  0  0  0
  187.9880  178.1240  141.0610 C   0  0  0  0  0  0  0  0  0  0  0  0
  186.6790  176.7570  138.0240 C   0  0  1  0  0  3  0  0  0  0  0  0
  186.5100  179.0200  142.6680 N   0  0  0  0  0  0  0  0  0  0  0  0
  191.6690  175.3700  137.6680 C   0  0  2  0  0  3  0  0  0  0  0  0
  189.1210  177.4110  140.6560 N   0  0  0  0  0  0  0  0  0  0  0  0
  188.6710  175.5750  143.1410 C   0  0  0  0  0  1  0  0  0  0  0  0
  184.8060  179.0020  139.3100 C   0  0  0  0  0  2  0  0  0  0  0  0
  185.5840  179.2580  141.6860 C   0  0  0  0  0  3  0  0  0  0  0  0
  190.1200  176.9280  141.6120 C   0  0  0  0  0  2  0  0  0  0  0  0
  189.6640  176.2950  136.3830 C   0  0  1  0  0  3  0  0  0  0  0  0
  188.5570  175.5250  136.9540 N   0  0  0  0  0  2  0  0  0  0  0  0
  185.8530  178.8940  140.3520 C   0  0  0  0  0  0  0  0  0  0  0  0
  188.9260  176.9980  139.2680 C   0  0  2  0  0  3  0  0  0  0  0  0
  188.7090  178.0690  143.4320 C   0  0  0  0  0  2  0  0  0  0  0  0
  185.3160  177.4130  137.6590 C   0  0  2  0  0  3  0  0  0  0  0  0
  190.6850  176.6780  144.0160 C   0  0  0  0  0  1  0  0  0  0  0  0
  189.8630  177.5270  137.0460 O   0  0  0  0  0  0  0  0  0  0  0  0
  190.7810  174.1480  135.6710 C   0  0  0  0  0  1  0  0  0  0  0  0
  190.1620  177.3320  138.4180 C   0  0  2  0  0  3  0  0  0  0  0  0
  184.4970  177.6640  138.8370 N   0  0  0  0  0  2  0  0  0  0  0  0
  193.3920  177.0370  139.0170 C   0  0  0  0  0  2  0  0  0  0  0  0
  193.8350  175.9310  138.2150 N   0  0  0  0  0  2  0  0  0  0  0  0
  184.0510  177.1550  135.4830 C   0  0  0  0  0  3  0  0  0  0  0  0
  184.5090  176.5990  136.6880 C   0  0  0  0  0  0  0  0  0  0  0  0
  184.2140  175.2660  136.9910 C   0  0  0  0  0  3  0  0  0  0  0  0
  183.1710  173.1700  136.4060 O   0  0  0  0  0  1  0  0  0  0  0  0
  183.0070  175.0500  134.9020 C   0  0  0  0  0  3  0  0  0  0  0  0
  183.4630  174.4920  136.1010 C   0  0  0  0  0  0  0  0  0  0  0  0
  183.3010  176.3810  134.5940 C   0  0  0  0  0  3  0  0  0  0  0  0
  2 14  1  0  0  0  0
  2 22  1  0  0  0  0
  2 24  1  0  0  0  0
  3 20  2  0  0  0  0
  3  9  1  0  0  0  0
  4 30  1  0  0  0  0
  4  1  1  0  0  0  0
  4 29  1  0  0  0  0
  5 19  1  0  0  0  0
  5 10  1  0  0  0  0
  6 11  1  0  0  0  0
  6 22  1  0  0  0  0
  7 21  1  0  0  0  0
  7  3  1  0  0  0  0
  8 18  1  0  0  0  0
  8 12  1  0  0  0  0
  9  6  2  0  0  0  0
 10  7  1  0  0  0  0
 12  4  1  0  0  0  0
 12  1  1  0  0  0  0
 13  9  1  0  0  0  0
 13 17  1  0  0  0  0
 15 20  1  0  0  0  0
 16 11  2  0  0  0  0
 17  2  1  0  0  0  0
 18 19  1  0  0  0  0
 18 25  1  0  0  0  0
 20 16  1  0  0  0  0
 21 13  1  0  0  0  0
 23 10  1  0  0  0  0
 23 28  1  0  0  0  0
 25 27  1  0  0  0  0
 26  8  1  0  0  0  0
 27  1  1  0  0  0  0
 27 21  1  0  0  0  0
 28 15  1  0  0  0  0
 30 29  1  0  0  0  0
 31 32  1  0  0  0  0
 32 33  2  0  0  0  0
 32 23  1  0  0  0  0
 35 36  2  0  0  0  0
 36 34  1  0  0  0  0
 36 33  1  0  0  0  0
 37 35  1  0  0  0  0
 37 31  2  0  0  0  0
M  END
>  <MODEL>
5

>  <REMARK>
 VINA RESULT:      -7.7      2.273      8.249
  Name = 
  1 active torsions:
  status: ('A' for Active; 'I' for Inactive)
    1  A    between atoms: C_23  and  C_30
                            x       y       z     vdW  Elec       q    Type
                         _______ _______ _______ _____ _____    ______ ____

>  <TORSDO>
F 1

$$$$
=
 OpenBabel11122411443D

 37 45  0  0  1  0  0  0  0  0999 V2000
  191.4530  175.9030  138.0510 C   0  0  2  0  0  3  0  0  0  0  0  0
  189.8640  177.2750  142.2470 C   0  0  0  0  0  0  0  0  0  0  0  0
  187.1550  177.8390  139.1840 C   0  0  0  0  0  0  0  0  0  0  0  0
  192.6280  176.0350  137.0710 C   0  0  1  0  0  0  0  0  0  0  0  0
  187.4000  175.1130  136.3870 C   0  0  0  0  0  2  0  0  0  0  0  0
  187.8790  178.5600  141.3520 C   0  0  0  0  0  0  0  0  0  0  0  0
  187.6760  177.0170  138.0320 C   0  0  2  0  0  3  0  0  0  0  0  0
  191.0490  174.4890  135.9400 C   0  0  2  0  0  3  0  0  0  0  0  0
  188.1190  177.9660  140.1280 C   0  0  0  0  0  0  0  0  0  0  0  0
  186.7680  175.8330  137.5930 C   0  0  1  0  0  3  0  0  0  0  0  0
  186.6590  179.1240  141.5770 N   0  0  0  0  0  0  0  0  0  0  0  0
  191.8260  174.7230  137.2330 C   0  0  2  0  0  3  0  0  0  0  0  0
  189.2820  177.2510  139.8260 N   0  0  0  0  0  0  0  0  0  0  0  0
  189.1040  176.0370  142.6960 C   0  0  0  0  0  1  0  0  0  0  0  0
  184.7920  178.1960  138.4420 C   0  0  0  0  0  2  0  0  0  0  0  0
  185.6690  179.0620  140.6330 C   0  0  0  0  0  3  0  0  0  0  0  0
  190.3630  177.0750  140.7980 C   0  0  0  0  0  2  0  0  0  0  0  0
  189.6930  175.1850  135.9060 C   0  0  1  0  0  3  0  0  0  0  0  0
  188.6790  174.5040  136.7160 N   0  0  0  0  0  2  0  0  0  0  0  0
  185.8970  178.4070  139.4050 C   0  0  0  0  0  0  0  0  0  0  0  0
  189.0500  176.5080  138.5900 C   0  0  2  0  0  3  0  0  0  0  0  0
  188.9620  178.5260  142.3920 C   0  0  0  0  0  2  0  0  0  0  0  0
  185.3410  176.2950  137.1780 C   0  0  2  0  0  3  0  0  0  0  0  0
  191.0680  177.4430  143.1490 C   0  0  0  0  0  1  0  0  0  0  0  0
  189.8280  176.5500  136.2470 O   0  0  0  0  0  0  0  0  0  0  0  0
  190.9360  173.0060  135.6430 C   0  0  0  0  0  1  0  0  0  0  0  0
  190.2110  176.7070  137.6030 C   0  0  2  0  0  3  0  0  0  0  0  0
  184.5650  176.7670  138.3170 N   0  0  0  0  0  2  0  0  0  0  0  0
  193.4800  176.7700  138.0330 C   0  0  0  0  0  2  0  0  0  0  0  0
  193.9670  175.5360  137.4840 N   0  0  0  0  0  2  0  0  0  0  0  0
  183.9730  175.4520  135.2240 C   0  0  0  0  0  3  0  0  0  0  0  0
  184.5510  175.2230  136.4810 C   0  0  0  0  0  0  0  0  0  0  0  0
  184.3950  173.9770  137.0990 C   0  0  0  0  0  3  0  0  0  0  0  0
  183.5100  171.7330  137.0840 O   0  0  0  0  0  1  0  0  0  0  0  0
  183.0870  173.1990  135.2150 C   0  0  0  0  0  3  0  0  0  0  0  0
  183.6640  172.9670  136.4680 C   0  0  0  0  0  0  0  0  0  0  0  0
  183.2420  174.4410  134.5940 C   0  0  0  0  0  3  0  0  0  0  0  0
  2 22  1  0  0  0  0
  2 14  1  0  0  0  0
  2 24  1  0  0  0  0
  3 20  2  0  0  0  0
  3  9  1  0  0  0  0
  4 12  1  0  0  0  0
  4 30  1  0  0  0  0
  4 29  1  0  0  0  0
  4  1  1  0  0  0  0
  5 19  1  0  0  0  0
  5 10  1  0  0  0  0
  6 11  1  0  0  0  0
  6 22  1  0  0  0  0
  7 21  1  0  0  0  0
  7  3  1  0  0  0  0
  8 12  1  0  0  0  0
  9  6  2  0  0  0  0
 10  7  1  0  0  0  0
 12  1  1  0  0  0  0
 13  9  1  0  0  0  0
 13 17  1  0  0  0  0
 15 20  1  0  0  0  0
 16 11  2  0  0  0  0
 17  2  1  0  0  0  0
 18  8  1  0  0  0  0
 18 25  1  0  0  0  0
 18 19  1  0  0  0  0
 20 16  1  0  0  0  0
 21 13  1  0  0  0  0
 23 10  1  0  0  0  0
 23 28  1  0  0  0  0
 25 27  1  0  0  0  0
 26  8  1  0  0  0  0
 27  1  1  0  0  0  0
 27 21  1  0  0  0  0
 28 15  1  0  0  0  0
 30 29  1  0  0  0  0
 31 32  1  0  0  0  0
 32 33  2  0  0  0  0
 32 23  1  0  0  0  0
 35 36  2  0  0  0  0
 36 34  1  0  0  0  0
 36 33  1  0  0  0  0
 37 35  1  0  0  0  0
 37 31  2  0  0  0  0
M  END
>  <MODEL>
6

>  <REMARK>
 VINA RESULT:      -7.7      2.581      8.364
  Name = 
  1 active torsions:
  status: ('A' for Active; 'I' for Inactive)
    1  A    between atoms: C_23  and  C_30
                            x       y       z     vdW  Elec       q    Type
                         _______ _______ _______ _____ _____    ______ ____

>  <TORSDO>
F 1

$$$$
=
 OpenBabel11122411443D

 37 45  0  0  1  0  0  0  0  0999 V2000
  182.8930  178.3040  139.7180 C   0  0  2  0  0  3  0  0  0  0  0  0
  183.6690  175.5650  135.9890 C   0  0  0  0  0  0  0  0  0  0  0  0
  186.9400  177.8300  137.0900 C   0  0  0  0  0  0  0  0  0  0  0  0
  181.9370  179.3540  140.3020 C   0  0  1  0  0  0  0  0  0  0  0  0
  187.1690  178.4320  140.9500 C   0  0  0  0  0  2  0  0  0  0  0  0
  185.8260  176.6890  135.3000 C   0  0  0  0  0  0  0  0  0  0  0  0
  186.6310  178.3310  138.4780 C   0  0  2  0  0  3  0  0  0  0  0  0
  183.6620  179.0410  142.0590 C   0  0  2  0  0  3  0  0  0  0  0  0
  185.8130  177.3340  136.5210 C   0  0  0  0  0  0  0  0  0  0  0  0
  187.5730  177.8090  139.6000 C   0  0  1  0  0  3  0  0  0  0  0  0
  186.9940  176.6390  134.5990 N   0  0  0  0  0  0  0  0  0  0  0  0
  182.6540  178.3040  141.1820 C   0  0  2  0  0  3  0  0  0  0  0  0
  184.7120  177.3450  137.3830 N   0  0  0  0  0  0  0  0  0  0  0  0
  184.2910  174.3420  136.6430 C   0  0  0  0  0  1  0  0  0  0  0  0
  189.4110  178.2150  137.0190 C   0  0  0  0  0  2  0  0  0  0  0  0
  188.1480  177.1690  135.1140 C   0  0  0  0  0  3  0  0  0  0  0  0
  183.4570  176.6660  137.0520 C   0  0  0  0  0  2  0  0  0  0  0  0
  185.0180  179.2490  141.3940 C   0  0  1  0  0  3  0  0  0  0  0  0
  185.8330  178.0320  141.3640 N   0  0  0  0  0  2  0  0  0  0  0  0
  188.1450  177.7780  136.3850 C   0  0  0  0  0  0  0  0  0  0  0  0
  185.1600  177.8270  138.6870 C   0  0  2  0  0  3  0  0  0  0  0  0
  184.5600  176.0430  134.8150 C   0  0  0  0  0  2  0  0  0  0  0  0
  189.0660  178.1630  139.3400 C   0  0  2  0  0  3  0  0  0  0  0  0
  182.3180  175.1680  135.4350 C   0  0  0  0  0  1  0  0  0  0  0  0
  184.8570  179.8220  140.1120 O   0  0  0  0  0  0  0  0  0  0  0  0
  183.7890  178.3670  143.4120 C   0  0  0  0  0  1  0  0  0  0  0  0
  184.2210  178.9200  139.2200 C   0  0  2  0  0  3  0  0  0  0  0  0
  189.6170  177.4190  138.2160 N   0  0  0  0  0  2  0  0  0  0  0  0
  180.9330  179.1880  139.2250 C   0  0  0  0  0  2  0  0  0  0  0  0
  180.5290  178.9640  140.5850 N   0  0  0  0  0  2  0  0  0  0  0  0
  191.2410  177.4100  140.3900 C   0  0  0  0  0  3  0  0  0  0  0  0
  189.9460  177.9300  140.5360 C   0  0  0  0  0  0  0  0  0  0  0  0
  189.4640  178.2410  141.8120 C   0  0  0  0  0  3  0  0  0  0  0  0
  189.7840  178.3390  144.2010 O   0  0  0  0  0  1  0  0  0  0  0  0
  191.5570  177.5110  142.7890 C   0  0  0  0  0  3  0  0  0  0  0  0
  190.2670  178.0310  142.9370 C   0  0  0  0  0  0  0  0  0  0  0  0
  192.0430  177.2010  141.5160 C   0  0  0  0  0  3  0  0  0  0  0  0
  1  4  1  0  0  0  0
  1 12  1  0  0  0  0
  2 14  1  0  0  0  0
  2 17  1  0  0  0  0
  3  7  1  0  0  0  0
  4 30  1  0  0  0  0
  4 12  1  0  0  0  0
  5 19  1  0  0  0  0
  6  9  2  0  0  0  0
  7 21  1  0  0  0  0
  7 10  1  0  0  0  0
  8 26  1  0  0  0  0
  9  3  1  0  0  0  0
  9 13  1  0  0  0  0
 10  5  1  0  0  0  0
 11 16  2  0  0  0  0
 11  6  1  0  0  0  0
 12  8  1  0  0  0  0
 13 21  1  0  0  0  0
 15 28  1  0  0  0  0
 16 20  1  0  0  0  0
 17 13  1  0  0  0  0
 18  8  1  0  0  0  0
 19 18  1  0  0  0  0
 20 15  1  0  0  0  0
 20  3  2  0  0  0  0
 21 27  1  0  0  0  0
 22  6  1  0  0  0  0
 22  2  1  0  0  0  0
 23 10  1  0  0  0  0
 23 32  1  0  0  0  0
 24  2  1  0  0  0  0
 25 18  1  0  0  0  0
 27  1  1  0  0  0  0
 27 25  1  0  0  0  0
 28 23  1  0  0  0  0
 29  4  1  0  0  0  0
 29 30  1  0  0  0  0
 31 32  2  0  0  0  0
 31 37  1  0  0  0  0
 32 33  1  0  0  0  0
 33 36  2  0  0  0  0
 35 36  1  0  0  0  0
 36 34  1  0  0  0  0
 37 35  2  0  0  0  0
M  END
>  <MODEL>
7

>  <REMARK>
 VINA RESULT:      -7.3      1.459      1.932
  Name = 
  1 active torsions:
  status: ('A' for Active; 'I' for Inactive)
    1  A    between atoms: C_23  and  C_30
                            x       y       z     vdW  Elec       q    Type
                         _______ _______ _______ _____ _____    ______ ____

>  <TORSDO>
F 1

$$$$
=
 OpenBabel11122411443D

 37 45  0  0  1  0  0  0  0  0999 V2000
  185.2830  178.2600  142.1180 C   0  0  2  0  0  3  0  0  0  0  0  0
  182.5060  176.5940  138.7220 C   0  0  0  0  0  0  0  0  0  0  0  0
  186.1800  177.8990  137.3670 C   0  0  0  0  0  0  0  0  0  0  0  0
  185.3400  179.2430  143.2960 C   0  0  1  0  0  0  0  0  0  0  0  0
  189.0640  177.3450  139.9530 C   0  0  0  0  0  2  0  0  0  0  0  0
  183.8830  177.5040  136.8070 C   0  0  0  0  0  0  0  0  0  0  0  0
  187.0370  178.0320  138.5990 C   0  0  2  0  0  3  0  0  0  0  0  0
  187.5800  178.1740  143.2720 C   0  0  2  0  0  3  0  0  0  0  0  0
  184.8790  177.7720  137.7260 C   0  0  0  0  0  0  0  0  0  0  0  0
  188.2580  177.0710  138.6690 C   0  0  1  0  0  3  0  0  0  0  0  0
  184.2070  177.4660  135.4840 N   0  0  0  0  0  0  0  0  0  0  0  0
  186.0810  177.8860  143.3100 C   0  0  2  0  0  3  0  0  0  0  0  0
  184.6940  177.7170  139.1110 N   0  0  0  0  0  0  0  0  0  0  0  0
  182.9800  175.1530  138.6320 C   0  0  0  0  0  1  0  0  0  0  0  0
  187.9470  177.8850  135.5960 C   0  0  0  0  0  2  0  0  0  0  0  0
  185.5010  177.6360  135.0700 C   0  0  0  0  0  3  0  0  0  0  0  0
  183.4040  177.3710  139.7120 C   0  0  0  0  0  2  0  0  0  0  0  0
  188.1360  178.3390  141.8620 C   0  0  1  0  0  3  0  0  0  0  0  0
  188.2960  177.0650  141.1560 N   0  0  0  0  0  2  0  0  0  0  0  0
  186.5260  177.8550  136.0130 C   0  0  0  0  0  0  0  0  0  0  0  0
  186.0100  177.7340  139.7460 C   0  0  2  0  0  3  0  0  0  0  0  0
  182.4940  177.2330  137.3120 C   0  0  0  0  0  2  0  0  0  0  0  0
  189.2210  177.2380  137.4580 C   0  0  2  0  0  3  0  0  0  0  0  0
  181.0910  176.5930  139.2610 C   0  0  0  0  0  1  0  0  0  0  0  0
  187.3620  179.2680  141.1300 O   0  0  0  0  0  0  0  0  0  0  0  0
  188.3460  177.1350  144.0680 C   0  0  0  0  0  1  0  0  0  0  0  0
  186.0580  178.7690  140.8800 C   0  0  2  0  0  3  0  0  0  0  0  0
  188.6270  176.7620  136.2160 N   0  0  0  0  0  2  0  0  0  0  0  0
  183.8920  179.5510  143.2420 C   0  0  0  0  0  2  0  0  0  0  0  0
  184.4390  179.0220  144.4600 N   0  0  0  0  0  2  0  0  0  0  0  0
  190.7710  175.2720  137.0920 C   0  0  0  0  0  3  0  0  0  0  0  0
  190.5380  176.5390  137.6480 C   0  0  0  0  0  0  0  0  0  0  0  0
  191.5450  177.1660  138.3900 C   0  0  0  0  0  3  0  0  0  0  0  0
  193.7720  177.1560  139.3170 O   0  0  0  0  0  1  0  0  0  0  0  0
  193.0060  175.2680  138.0240 C   0  0  0  0  0  3  0  0  0  0  0  0
  192.7760  176.5320  138.5790 C   0  0  0  0  0  0  0  0  0  0  0  0
  192.0030  174.6390  137.2810 C   0  0  0  0  0  3  0  0  0  0  0  0
  1  4  1  0  0  0  0
  1 12  1  0  0  0  0
  2 24  1  0  0  0  0
  2 17  1  0  0  0  0
  3  9  1  0  0  0  0
  3  7  1  0  0  0  0
  4 12  1  0  0  0  0
  4 30  1  0  0  0  0
  5 19  1  0  0  0  0
  6 22  1  0  0  0  0
  6  9  2  0  0  0  0
  7 10  1  0  0  0  0
  7 21  1  0  0  0  0
  8 12  1  0  0  0  0
  8 26  1  0  0  0  0
  9 13  1  0  0  0  0
 10  5  1  0  0  0  0
 11  6  1  0  0  0  0
 13 17  1  0  0  0  0
 13 21  1  0  0  0  0
 14  2  1  0  0  0  0
 15 20  1  0  0  0  0
 15 28  1  0  0  0  0
 16 11  2  0  0  0  0
 16 20  1  0  0  0  0
 18  8  1  0  0  0  0
 19 18  1  0  0  0  0
 20  3  2  0  0  0  0
 21 27  1  0  0  0  0
 22  2  1  0  0  0  0
 23 32  1  0  0  0  0
 23 10  1  0  0  0  0
 25 18  1  0  0  0  0
 27 25  1  0  0  0  0
 27  1  1  0  0  0  0
 28 23  1  0  0  0  0
 29  4  1  0  0  0  0
 29 30  1  0  0  0  0
 31 37  2  0  0  0  0
 31 32  1  0  0  0  0
 32 33  2  0  0  0  0
 33 36  1  0  0  0  0
 35 36  2  0  0  0  0
 36 34  1  0  0  0  0
 37 35  1  0  0  0  0
M  END
>  <MODEL>
8

>  <REMARK>
 VINA RESULT:      -7.1      2.209      4.250
  Name = 
  1 active torsions:
  status: ('A' for Active; 'I' for Inactive)
    1  A    between atoms: C_23  and  C_30
                            x       y       z     vdW  Elec       q    Type
                         _______ _______ _______ _____ _____    ______ ____

>  <TORSDO>
F 1

$$$$
=
 OpenBabel11122411443D

 37 45  0  0  1  0  0  0  0  0999 V2000
  191.1930  176.6020  139.0300 C   0  0  2  0  0  3  0  0  0  0  0  0
  189.1300  176.9030  143.2340 C   0  0  0  0  0  0  0  0  0  0  0  0
  186.8300  178.3960  140.1490 C   0  0  0  0  0  0  0  0  0  0  0  0
  192.4820  176.9260  138.2610 C   0  0  1  0  0  0  0  0  0  0  0  0
  187.3600  176.4940  136.7700 C   0  0  0  0  0  2  0  0  0  0  0  0
  187.2970  178.4810  142.4980 C   0  0  0  0  0  0  0  0  0  0  0  0
  187.4710  177.8810  138.8850 C   0  0  2  0  0  3  0  0  0  0  0  0
  191.0220  175.8180  136.5860 C   0  0  2  0  0  3  0  0  0  0  0  0
  187.6730  178.2190  141.1950 C   0  0  0  0  0  0  0  0  0  0  0  0
  186.6000  176.9030  138.0450 C   0  0  1  0  0  3  0  0  0  0  0  0
  186.0710  179.0300  142.7270 N   0  0  0  0  0  0  0  0  0  0  0  0
  191.6390  175.6620  137.9740 C   0  0  2  0  0  3  0  0  0  0  0  0
  188.8500  177.5490  140.8450 N   0  0  0  0  0  0  0  0  0  0  0  0
  188.2960  175.6330  143.2460 C   0  0  0  0  0  1  0  0  0  0  0  0
  184.5840  179.0600  139.2670 C   0  0  0  0  0  2  0  0  0  0  0  0
  185.2030  179.2710  141.6950 C   0  0  0  0  0  3  0  0  0  0  0  0
  189.8000  177.0660  141.8500 C   0  0  0  0  0  2  0  0  0  0  0  0
  189.6950  176.5690  136.5870 C   0  0  1  0  0  3  0  0  0  0  0  0
  188.5760  175.7530  137.0660 N   0  0  0  0  0  2  0  0  0  0  0  0
  185.5670  178.9520  140.3700 C   0  0  0  0  0  0  0  0  0  0  0  0
  188.7550  177.1700  139.4370 C   0  0  2  0  0  3  0  0  0  0  0  0
  188.2440  178.1180  143.6060 C   0  0  0  0  0  2  0  0  0  0  0  0
  185.2440  177.5330  137.6110 C   0  0  2  0  0  3  0  0  0  0  0  0
  190.2180  176.7650  144.2770 C   0  0  0  0  0  1  0  0  0  0  0  0
  189.8160  177.7870  137.2940 O   0  0  0  0  0  0  0  0  0  0  0  0
  190.9150  174.4730  135.8930 C   0  0  0  0  0  1  0  0  0  0  0  0
  190.0320  177.5600  138.6770 C   0  0  2  0  0  3  0  0  0  0  0  0
  184.3450  177.7280  138.7400 N   0  0  0  0  0  2  0  0  0  0  0  0
  193.2250  177.3360  139.4740 C   0  0  0  0  0  2  0  0  0  0  0  0
  193.7500  176.2660  138.6730 N   0  0  0  0  0  2  0  0  0  0  0  0
  185.0540  175.5140  136.0990 C   0  0  0  0  0  3  0  0  0  0  0  0
  184.5240  176.7250  136.5690 C   0  0  0  0  0  0  0  0  0  0  0  0
  183.3050  177.1900  136.0640 C   0  0  0  0  0  3  0  0  0  0  0  0
  181.4110  176.9180  134.5940 O   0  0  0  0  0  1  0  0  0  0  0  0
  183.1510  175.2470  134.6260 C   0  0  0  0  0  3  0  0  0  0  0  0
  182.6200  176.4530  135.0930 C   0  0  0  0  0  0  0  0  0  0  0  0
  184.3680  174.7780  135.1280 C   0  0  0  0  0  3  0  0  0  0  0  0
  2 14  1  0  0  0  0
  2 22  1  0  0  0  0
  2 24  1  0  0  0  0
  3 20  2  0  0  0  0
  3  9  1  0  0  0  0
  4 30  1  0  0  0  0
  4  1  1  0  0  0  0
  4 29  1  0  0  0  0
  5 19  1  0  0  0  0
  5 10  1  0  0  0  0
  6 11  1  0  0  0  0
  6 22  1  0  0  0  0
  7 21  1  0  0  0  0
  7  3  1  0  0  0  0
  8 18  1  0  0  0  0
  8 12  1  0  0  0  0
  9  6  2  0  0  0  0
 10  7  1  0  0  0  0
 12  4  1  0  0  0  0
 12  1  1  0  0  0  0
 13  9  1  0  0  0  0
 13 17  1  0  0  0  0
 15 20  1  0  0  0  0
 16 11  2  0  0  0  0
 17  2  1  0  0  0  0
 18 19  1  0  0  0  0
 18 25  1  0  0  0  0
 20 16  1  0  0  0  0
 21 13  1  0  0  0  0
 23 10  1  0  0  0  0
 23 28  1  0  0  0  0
 25 27  1  0  0  0  0
 26  8  1  0  0  0  0
 27  1  1  0  0  0  0
 27 21  1  0  0  0  0
 28 15  1  0  0  0  0
 30 29  1  0  0  0  0
 31 32  1  0  0  0  0
 32 23  1  0  0  0  0
 33 32  2  0  0  0  0
 34 36  1  0  0  0  0
 35 36  2  0  0  0  0
 35 37  1  0  0  0  0
 36 33  1  0  0  0  0
 37 31  2  0  0  0  0
M  END
>  <MODEL>
9

>  <REMARK>
 VINA RESULT:      -6.9      2.214      8.357
  Name = 
  1 active torsions:
  status: ('A' for Active; 'I' for Inactive)
    1  A    between atoms: C_23  and  C_30
                            x       y       z     vdW  Elec       q    Type
                         _______ _______ _______ _____ _____    ______ ____

>  <TORSDO>
F 1

$$$$
