=
 OpenBabel11122410523D

 32 37  0  0  1  0  0  0  0  0999 V2000
  190.9650  174.7840  137.8950 C   0  0  0  0  0  2  0  0  0  0  0  0
  188.7860  177.8100  140.3500 C   0  0  2  0  0  3  0  0  0  0  0  0
  191.0690  177.0050  144.7220 C   0  0  0  0  0  3  0  0  0  0  0  0
  189.8270  176.9220  145.3500 C   0  0  0  0  0  3  0  0  0  0  0  0
  186.3280  178.6120  140.4630 C   0  0  0  0  0  0  0  0  0  0  0  0
  185.2050  179.0410  141.3540 C   0  0  1  0  0  3  0  0  0  0  0  0
  190.0900  177.8110  138.1960 C   0  0  1  0  0  3  0  0  0  0  0  0
  191.1570  177.0260  140.4120 C   0  0  0  0  0  2  0  0  0  0  0  0
  183.7780  178.4420  143.0090 C   0  0  2  0  0  3  0  0  0  0  0  0
  192.5110  176.7920  138.2930 C   0  0  0  0  0  2  0  0  0  0  0  0
  191.1440  177.2900  143.3580 C   0  0  0  0  0  3  0  0  0  0  0  0
  190.1050  177.8640  141.1390 C   0  0  2  0  0  3  0  0  0  0  0  0
  189.9780  177.4840  142.6010 C   0  0  0  0  0  0  0  0  0  0  0  0
  187.4490  177.6150  142.4570 C   0  0  1  0  0  3  0  0  0  0  0  0
  182.9260  178.9300  141.9160 N   0  0  0  0  0  2  0  0  0  0  0  0
  189.6760  175.5330  138.2380 C   0  0  0  0  0  2  0  0  0  0  0  0
  191.4050  177.5840  139.0080 C   0  0  1  0  0  3  0  0  0  0  0  0
  183.8210  179.1460  140.7770 C   0  0  0  0  0  2  0  0  0  0  0  0
  189.5620  176.7080  137.4740 O   0  0  0  0  0  0  0  0  0  0  0  0
  192.0430  175.7080  137.3160 C   0  0  1  0  0  3  0  0  0  0  0  0
  188.6600  177.1400  144.6180 C   0  0  0  0  0  3  0  0  0  0  0  0
  188.7210  177.4570  143.2500 C   0  0  0  0  0  0  0  0  0  0  0  0
  186.2500  178.1410  143.2780 C   0  0  0  0  0  2  0  0  0  0  0  0
  189.0120  178.5240  139.0160 C   0  0  0  0  0  2  0  0  0  0  0  0
  186.1720  178.4190  139.2670 O   0  0  0  0  0  0  0  0  0  0  0  0
  183.8870  179.5260  144.0820 C   0  0  0  0  0  1  0  0  0  0  0  0
  187.6600  178.4460  141.1710 C   0  0  1  0  0  3  0  0  0  0  0  0
  185.0660  178.0800  142.4170 N   0  0  2  0  0  0  0  0  0  0  0  0
  193.2440  174.8990  136.8540 C   0  0  0  0  0  2  0  0  0  0  0  0
  194.1670  175.7320  136.0220 C   0  0  0  0  0  0  0  0  0  0  0  0
  193.7140  176.2420  134.6980 C   0  0  0  0  0  1  0  0  0  0  0  0
  195.2960  175.9770  136.4140 O   0  0  0  0  0  0  0  0  0  0  0  0
  1 16  1  0  0  0  0
  2 24  1  6  0  0  0
  2 12  1  0  0  0  0
  2 27  1  0  0  0  0
  3  4  1  0  0  0  0
  5  6  1  0  0  0  0
  6 18  1  6  0  0  0
  6 28  1  0  0  0  0
  7 17  1  0  0  0  0
  7 24  1  1  0  0  0
  9 26  1  1  0  0  0
 11  3  2  0  0  0  0
 12  8  1  6  0  0  0
 12 13  1  0  0  0  0
 13 22  2  0  0  0  0
 13 11  1  0  0  0  0
 14 22  1  0  0  0  0
 14 23  1  1  0  0  0
 15  9  1  0  0  0  0
 17 10  1  6  0  0  0
 17  8  1  0  0  0  0
 18 15  1  0  0  0  0
 19  7  1  0  0  0  0
 19 16  1  0  0  0  0
 20 29  1  1  0  0  0
 20  1  1  0  0  0  0
 20 10  1  0  0  0  0
 21  4  2  0  0  0  0
 22 21  1  0  0  0  0
 25  5  2  0  0  0  0
 27  5  1  6  0  0  0
 27 14  1  0  0  0  0
 28  9  1  0  0  0  0
 28 23  1  1  0  0  0
 30 32  2  0  0  0  0
 30 29  1  0  0  0  0
 31 30  1  0  0  0  0
M  END
>  <MODEL>
1

>  <REMARK>
 VINA RESULT:      -8.9      0.000      0.000
  Name = 
  2 active torsions:
  status: ('A' for Active; 'I' for Inactive)
    1  A    between atoms: C_20  and  C_29
    2  A    between atoms: C_29  and  C_30
                            x       y       z     vdW  Elec       q    Type
                         _______ _______ _______ _____ _____    ______ ____

>  <TORSDO>
F 2

$$$$
=
 OpenBabel11122410523D

 32 37  0  0  1  0  0  0  0  0999 V2000
  190.0590  174.8070  137.1850 C   0  0  0  0  0  2  0  0  0  0  0  0
  188.5680  177.7460  140.1970 C   0  0  2  0  0  3  0  0  0  0  0  0
  191.6230  176.5570  143.9710 C   0  0  0  0  0  3  0  0  0  0  0  0
  190.5260  176.4820  144.8290 C   0  0  0  0  0  3  0  0  0  0  0  0
  186.2270  178.6370  140.8460 C   0  0  0  0  0  0  0  0  0  0  0  0
  185.3260  179.0500  141.9670 C   0  0  1  0  0  3  0  0  0  0  0  0
  189.4220  177.8400  137.8300 C   0  0  1  0  0  3  0  0  0  0  0  0
  190.8610  176.8650  139.7380 C   0  0  0  0  0  2  0  0  0  0  0  0
  184.2230  178.3980  143.8360 C   0  0  2  0  0  3  0  0  0  0  0  0
  191.7560  176.7200  137.3820 C   0  0  0  0  0  2  0  0  0  0  0  0
  191.4420  176.9300  142.6380 C   0  0  0  0  0  3  0  0  0  0  0  0
  190.0190  177.6930  140.7080 C   0  0  2  0  0  3  0  0  0  0  0  0
  190.1620  177.2210  142.1410 C   0  0  0  0  0  0  0  0  0  0  0  0
  187.6650  177.4640  142.5150 C   0  0  1  0  0  3  0  0  0  0  0  0
  183.2000  178.9920  142.9660 N   0  0  0  0  0  2  0  0  0  0  0  0
  188.9040  175.5820  137.8220 C   0  0  0  0  0  2  0  0  0  0  0  0
  190.8570  177.5060  138.3480 C   0  0  1  0  0  3  0  0  0  0  0  0
  183.8630  179.2480  141.6850 C   0  0  0  0  0  2  0  0  0  0  0  0
  188.7040  176.8100  137.1660 O   0  0  0  0  0  0  0  0  0  0  0  0
  191.0490  175.7240  136.4570 C   0  0  1  0  0  3  0  0  0  0  0  0
  189.2510  176.7960  144.3580 C   0  0  0  0  0  3  0  0  0  0  0  0
  189.0580  177.2010  143.0270 C   0  0  0  0  0  0  0  0  0  0  0  0
  186.6800  177.9800  143.5870 C   0  0  0  0  0  2  0  0  0  0  0  0
  188.5650  178.5380  138.8890 C   0  0  0  0  0  2  0  0  0  0  0  0
  185.8290  178.5310  139.6960 O   0  0  0  0  0  0  0  0  0  0  0  0
  184.5980  179.4020  144.9270 C   0  0  0  0  0  1  0  0  0  0  0  0
  187.6620  178.3700  141.2620 C   0  0  1  0  0  3  0  0  0  0  0  0
  185.3480  178.0250  142.9790 N   0  0  2  0  0  0  0  0  0  0  0  0
  192.0910  174.9000  135.7180 C   0  0  0  0  0  2  0  0  0  0  0  0
  192.6350  173.8110  136.5870 C   0  0  0  0  0  0  0  0  0  0  0  0
  193.6580  174.1300  137.6210 C   0  0  0  0  0  1  0  0  0  0  0  0
  192.2590  172.6600  136.4380 O   0  0  0  0  0  0  0  0  0  0  0  0
  1 16  1  0  0  0  0
  2 24  1  6  0  0  0
  2 12  1  0  0  0  0
  2 27  1  0  0  0  0
  3  4  1  0  0  0  0
  5  6  1  0  0  0  0
  6 18  1  6  0  0  0
  6 28  1  0  0  0  0
  7 17  1  0  0  0  0
  7 24  1  1  0  0  0
  9 26  1  1  0  0  0
 11  3  2  0  0  0  0
 12  8  1  6  0  0  0
 12 13  1  0  0  0  0
 13 11  1  0  0  0  0
 13 22  2  0  0  0  0
 14 22  1  0  0  0  0
 14 23  1  1  0  0  0
 15  9  1  0  0  0  0
 17 10  1  6  0  0  0
 17  8  1  0  0  0  0
 18 15  1  0  0  0  0
 19 16  1  0  0  0  0
 19  7  1  0  0  0  0
 20 29  1  1  0  0  0
 20  1  1  0  0  0  0
 20 10  1  0  0  0  0
 21  4  2  0  0  0  0
 22 21  1  0  0  0  0
 25  5  2  0  0  0  0
 27  5  1  6  0  0  0
 27 14  1  0  0  0  0
 28 23  1  1  0  0  0
 28  9  1  0  0  0  0
 29 30  1  0  0  0  0
 30 31  1  0  0  0  0
 32 30  2  0  0  0  0
M  END
>  <MODEL>
2

>  <REMARK>
 VINA RESULT:      -8.3      1.239      1.373
  Name = 
  2 active torsions:
  status: ('A' for Active; 'I' for Inactive)
    1  A    between atoms: C_20  and  C_29
    2  A    between atoms: C_29  and  C_30
                            x       y       z     vdW  Elec       q    Type
                         _______ _______ _______ _____ _____    ______ ____

>  <TORSDO>
F 2

$$$$
=
 OpenBabel11122410523D

 32 37  0  0  1  0  0  0  0  0999 V2000
  182.7750  176.9320  139.5550 C   0  0  0  0  0  2  0  0  0  0  0  0
  185.9780  178.4050  142.2930 C   0  0  2  0  0  3  0  0  0  0  0  0
  189.9380  177.3990  139.4130 C   0  0  0  0  0  3  0  0  0  0  0  0
  190.5550  176.7670  140.4910 C   0  0  0  0  0  3  0  0  0  0  0  0
  186.3570  178.3000  144.8500 C   0  0  0  0  0  0  0  0  0  0  0  0
  187.3570  178.1140  145.9480 C   0  0  1  0  0  3  0  0  0  0  0  0
  183.8650  179.3410  141.2950 C   0  0  1  0  0  3  0  0  0  0  0  0
  185.7760  178.4570  139.8030 C   0  0  0  0  0  2  0  0  0  0  0  0
  188.8390  176.7070  146.9280 C   0  0  2  0  0  3  0  0  0  0  0  0
  183.6340  179.1850  138.6820 C   0  0  0  0  0  2  0  0  0  0  0  0
  188.6910  178.0040  139.5790 C   0  0  0  0  0  3  0  0  0  0  0  0
  186.7210  178.7050  140.9790 C   0  0  2  0  0  3  0  0  0  0  0  0
  188.0390  177.9740  140.8220 C   0  0  0  0  0  0  0  0  0  0  0  0
  187.9990  177.2920  143.2650 C   0  0  1  0  0  3  0  0  0  0  0  0
  187.9300  177.1280  148.0020 N   0  0  0  0  0  2  0  0  0  0  0  0
  183.3320  177.1110  140.9680 C   0  0  0  0  0  2  0  0  0  0  0  0
  184.5570  179.3780  139.8960 C   0  0  1  0  0  3  0  0  0  0  0  0
  186.8620  177.8870  147.3490 C   0  0  0  0  0  2  0  0  0  0  0  0
  182.8980  178.3270  141.5260 O   0  0  0  0  0  0  0  0  0  0  0  0
  182.4250  178.2680  138.8900 C   0  0  1  0  0  3  0  0  0  0  0  0
  189.9340  176.7530  141.7400 C   0  0  0  0  0  3  0  0  0  0  0  0
  188.6920  177.3820  141.9290 C   0  0  0  0  0  0  0  0  0  0  0  0
  188.9570  177.1850  144.4720 C   0  0  0  0  0  2  0  0  0  0  0  0
  184.8670  179.4450  142.4470 C   0  0  0  0  0  2  0  0  0  0  0  0
  185.1560  178.3530  145.0670 O   0  0  0  0  0  0  0  0  0  0  0  0
  190.1510  177.4830  147.0480 C   0  0  0  0  0  1  0  0  0  0  0  0
  186.9640  178.4230  143.4650 C   0  0  1  0  0  3  0  0  0  0  0  0
  188.1410  176.9390  145.6630 N   0  0  2  0  0  0  0  0  0  0  0  0
  181.7390  178.0340  137.5530 C   0  0  0  0  0  2  0  0  0  0  0  0
  181.0170  179.2600  137.0940 C   0  0  0  0  0  0  0  0  0  0  0  0
  180.0800  179.9570  138.0190 C   0  0  0  0  0  1  0  0  0  0  0  0
  181.1750  179.6800  135.9600 O   0  0  0  0  0  0  0  0  0  0  0  0
  1 16  1  0  0  0  0
  2 24  1  1  0  0  0
  2 27  1  0  0  0  0
  3 11  2  0  0  0  0
  3  4  1  0  0  0  0
  4 21  2  0  0  0  0
  5 25  2  0  0  0  0
  5  6  1  0  0  0  0
  6 18  1  1  0  0  0
  7 19  1  0  0  0  0
  7 24  1  1  0  0  0
  8 17  1  0  0  0  0
  9 26  1  6  0  0  0
  9 15  1  0  0  0  0
 10 20  1  0  0  0  0
 11 13  1  0  0  0  0
 12  8  1  6  0  0  0
 12  2  1  0  0  0  0
 13 12  1  0  0  0  0
 13 22  2  0  0  0  0
 14 27  1  0  0  0  0
 14 23  1  1  0  0  0
 16 19  1  0  0  0  0
 17 10  1  6  0  0  0
 17  7  1  0  0  0  0
 18 15  1  0  0  0  0
 20 29  1  6  0  0  0
 20  1  1  0  0  0  0
 21 22  1  0  0  0  0
 22 14  1  0  0  0  0
 27  5  1  1  0  0  0
 28 23  1  6  0  0  0
 28  6  1  0  0  0  0
 28  9  1  0  0  0  0
 30 29  1  0  0  0  0
 30 31  1  0  0  0  0
 32 30  2  0  0  0  0
M  END
>  <MODEL>
3

>  <REMARK>
 VINA RESULT:      -7.7      3.906      7.378
  Name = 
  2 active torsions:
  status: ('A' for Active; 'I' for Inactive)
    1  A    between atoms: C_20  and  C_29
    2  A    between atoms: C_29  and  C_30
                            x       y       z     vdW  Elec       q    Type
                         _______ _______ _______ _____ _____    ______ ____

>  <TORSDO>
F 2

$$$$
=
 OpenBabel11122410523D

 32 37  0  0  1  0  0  0  0  0999 V2000
  186.2350  177.0420  145.0550 C   0  0  0  0  0  2  0  0  0  0  0  0
  184.5870  178.4300  141.1450 C   0  0  2  0  0  3  0  0  0  0  0  0
  179.7210  177.9180  142.1650 C   0  0  0  0  0  3  0  0  0  0  0  0
  179.5480  177.2230  140.9680 C   0  0  0  0  0  3  0  0  0  0  0  0
  185.2870  178.1100  138.6740 C   0  0  0  0  0  0  0  0  0  0  0  0
  184.8150  177.8780  137.2740 C   0  0  1  0  0  3  0  0  0  0  0  0
  186.1770  179.3360  142.8740 C   0  0  1  0  0  3  0  0  0  0  0  0
  183.7510  178.7020  143.4830 C   0  0  0  0  0  2  0  0  0  0  0  0
  183.7490  176.4710  135.8530 C   0  0  2  0  0  3  0  0  0  0  0  0
  185.2960  179.4110  145.3490 C   0  0  0  0  0  2  0  0  0  0  0  0
  180.9740  178.4350  142.4970 C   0  0  0  0  0  3  0  0  0  0  0  0
  183.4000  178.8920  142.0070 C   0  0  2  0  0  3  0  0  0  0  0  0
  182.0750  178.2530  141.6440 C   0  0  0  0  0  0  0  0  0  0  0  0
  183.0550  177.3460  139.4880 C   0  0  1  0  0  3  0  0  0  0  0  0
  185.0530  176.7390  135.2320 N   0  0  0  0  0  2  0  0  0  0  0  0
  186.3270  177.1200  143.5300 C   0  0  0  0  0  2  0  0  0  0  0  0
  184.9770  179.5410  143.8520 C   0  0  1  0  0  3  0  0  0  0  0  0
  185.8210  177.4950  136.2240 C   0  0  0  0  0  2  0  0  0  0  0  0
  187.0590  178.2530  143.1300 O   0  0  0  0  0  0  0  0  0  0  0  0
  186.3980  178.4130  145.7220 C   0  0  1  0  0  3  0  0  0  0  0  0
  180.6250  177.0590  140.0970 C   0  0  0  0  0  3  0  0  0  0  0  0
  181.8850  177.5980  140.4040 C   0  0  0  0  0  0  0  0  0  0  0  0
  182.6740  177.1800  138.0000 C   0  0  0  0  0  2  0  0  0  0  0  0
  185.7510  179.3880  141.4050 C   0  0  0  0  0  2  0  0  0  0  0  0
  186.4700  178.0750  138.9770 O   0  0  0  0  0  0  0  0  0  0  0  0
  182.6770  177.3040  135.1480 C   0  0  0  0  0  1  0  0  0  0  0  0
  184.1780  178.3940  139.6700 C   0  0  1  0  0  3  0  0  0  0  0  0
  183.8830  176.7800  137.2760 N   0  0  2  0  0  0  0  0  0  0  0  0
  186.4480  178.2660  147.2340 C   0  0  0  0  0  2  0  0  0  0  0  0
  187.8140  177.8630  147.6920 C   0  0  0  0  0  0  0  0  0  0  0  0
  188.9510  177.8780  146.7310 C   0  0  0  0  0  1  0  0  0  0  0  0
  187.9960  177.5030  148.8430 O   0  0  0  0  0  0  0  0  0  0  0  0
  1 20  1  0  0  0  0
  2 24  1  6  0  0  0
  2 12  1  0  0  0  0
  3 11  1  0  0  0  0
  4  3  2  0  0  0  0
  5 25  2  0  0  0  0
  6 18  1  6  0  0  0
  6 28  1  0  0  0  0
  6  5  1  0  0  0  0
  7 24  1  6  0  0  0
  7 19  1  0  0  0  0
  7 17  1  0  0  0  0
  9 26  1  6  0  0  0
  9 28  1  0  0  0  0
 10 20  1  0  0  0  0
 12  8  1  1  0  0  0
 13 12  1  0  0  0  0
 13 11  2  0  0  0  0
 14 23  1  6  0  0  0
 14 27  1  0  0  0  0
 14 22  1  0  0  0  0
 15  9  1  0  0  0  0
 15 18  1  0  0  0  0
 16  1  1  0  0  0  0
 17  8  1  6  0  0  0
 17 10  1  0  0  0  0
 19 16  1  0  0  0  0
 20 29  1  1  0  0  0
 21 22  2  0  0  0  0
 21  4  1  0  0  0  0
 22 13  1  0  0  0  0
 27  5  1  6  0  0  0
 27  2  1  0  0  0  0
 28 23  1  6  0  0  0
 29 30  1  0  0  0  0
 30 32  2  0  0  0  0
 31 30  1  0  0  0  0
M  END
>  <MODEL>
4

>  <REMARK>
 VINA RESULT:      -7.5      4.747      8.467
  Name = 
  2 active torsions:
  status: ('A' for Active; 'I' for Inactive)
    1  A    between atoms: C_20  and  C_29
    2  A    between atoms: C_29  and  C_30
                            x       y       z     vdW  Elec       q    Type
                         _______ _______ _______ _____ _____    ______ ____

>  <TORSDO>
F 2

$$$$
=
 OpenBabel11122410523D

 32 37  0  0  1  0  0  0  0  0999 V2000
  190.1640  175.5240  144.1400 C   0  0  0  0  0  2  0  0  0  0  0  0
  187.3540  178.2010  141.9330 C   0  0  2  0  0  3  0  0  0  0  0  0
  184.0420  178.9840  145.5940 C   0  0  0  0  0  3  0  0  0  0  0  0
  183.0060  178.6660  144.7180 C   0  0  0  0  0  3  0  0  0  0  0  0
  186.4330  178.2530  139.5150 C   0  0  0  0  0  0  0  0  0  0  0  0
  185.2380  178.5010  138.6500 C   0  0  1  0  0  3  0  0  0  0  0  0
  189.8240  178.1590  142.4180 C   0  0  1  0  0  3  0  0  0  0  0  0
  188.0820  178.1760  144.3230 C   0  0  0  0  0  2  0  0  0  0  0  0
  183.1360  177.8490  138.1070 C   0  0  2  0  0  3  0  0  0  0  0  0
  190.5180  177.9340  144.9430 C   0  0  0  0  0  2  0  0  0  0  0  0
  185.3610  179.0020  145.1380 C   0  0  0  0  0  3  0  0  0  0  0  0
  187.0990  178.7950  143.3290 C   0  0  2  0  0  3  0  0  0  0  0  0
  185.6630  178.6910  143.8020 C   0  0  0  0  0  0  0  0  0  0  0  0
  184.8980  178.0440  141.4720 C   0  0  1  0  0  3  0  0  0  0  0  0
  183.8870  177.8400  136.8450 N   0  0  0  0  0  2  0  0  0  0  0  0
  189.4450  175.9150  142.8470 C   0  0  0  0  0  2  0  0  0  0  0  0
  189.5230  178.4930  143.9140 C   0  0  1  0  0  3  0  0  0  0  0  0
  185.2860  178.0780  137.2080 C   0  0  0  0  0  2  0  0  0  0  0  0
  190.2130  176.8290  142.1050 O   0  0  0  0  0  0  0  0  0  0  0  0
  191.1660  176.5900  144.5970 C   0  0  1  0  0  3  0  0  0  0  0  0
  183.2860  178.3830  143.3810 C   0  0  0  0  0  3  0  0  0  0  0  0
  184.6050  178.4260  142.9000 C   0  0  0  0  0  0  0  0  0  0  0  0
  183.7490  178.3460  140.4840 C   0  0  0  0  0  2  0  0  0  0  0  0
  188.7350  178.6710  141.4730 C   0  0  0  0  0  2  0  0  0  0  0  0
  187.4730  177.7900  139.0710 O   0  0  0  0  0  0  0  0  0  0  0  0
  182.2690  179.1070  138.1650 C   0  0  0  0  0  1  0  0  0  0  0  0
  186.2400  178.6280  140.9730 C   0  0  1  0  0  3  0  0  0  0  0  0
  184.1190  177.7710  139.1880 N   0  0  2  0  0  0  0  0  0  0  0  0
  191.9600  176.0950  145.7950 C   0  0  0  0  0  2  0  0  0  0  0  0
  191.3590  176.5750  147.0780 C   0  0  0  0  0  0  0  0  0  0  0  0
  189.9000  176.4000  147.3220 C   0  0  0  0  0  1  0  0  0  0  0  0
  192.0530  177.1280  147.9150 O   0  0  0  0  0  0  0  0  0  0  0  0
  1 20  1  0  0  0  0
  2 24  1  6  0  0  0
  2 12  1  0  0  0  0
  4  3  2  0  0  0  0
  6 18  1  6  0  0  0
  6 28  1  0  0  0  0
  6  5  1  0  0  0  0
  7 24  1  6  0  0  0
  7 17  1  0  0  0  0
  9 26  1  1  0  0  0
  9 28  1  0  0  0  0
 11  3  1  0  0  0  0
 12 13  1  0  0  0  0
 12  8  1  1  0  0  0
 13 11  2  0  0  0  0
 14 23  1  6  0  0  0
 14 22  1  0  0  0  0
 15 18  1  0  0  0  0
 15  9  1  0  0  0  0
 16  1  1  0  0  0  0
 17  8  1  1  0  0  0
 17 10  1  0  0  0  0
 19  7  1  0  0  0  0
 19 16  1  0  0  0  0
 20 10  1  0  0  0  0
 20 29  1  1  0  0  0
 21  4  1  0  0  0  0
 22 21  2  0  0  0  0
 22 13  1  0  0  0  0
 25  5  2  0  0  0  0
 27  5  1  6  0  0  0
 27 14  1  0  0  0  0
 27  2  1  0  0  0  0
 28 23  1  1  0  0  0
 29 30  1  0  0  0  0
 30 31  1  0  0  0  0
 30 32  2  0  0  0  0
M  END
>  <MODEL>
5

>  <REMARK>
 VINA RESULT:      -7.4      3.769      6.086
  Name = 
  2 active torsions:
  status: ('A' for Active; 'I' for Inactive)
    1  A    between atoms: C_20  and  C_29
    2  A    between atoms: C_29  and  C_30
                            x       y       z     vdW  Elec       q    Type
                         _______ _______ _______ _____ _____    ______ ____

>  <TORSDO>
F 2

$$$$
=
 OpenBabel11122410523D

 32 37  0  0  1  0  0  0  0  0999 V2000
  190.3560  175.7020  144.8110 C   0  0  0  0  0  2  0  0  0  0  0  0
  189.9290  177.5580  140.7730 C   0  0  2  0  0  3  0  0  0  0  0  0
  185.2980  179.3700  141.2730 C   0  0  0  0  0  3  0  0  0  0  0  0
  184.9450  178.7910  140.0550 C   0  0  0  0  0  3  0  0  0  0  0  0
  190.6460  176.8690  138.3840 C   0  0  0  0  0  0  0  0  0  0  0  0
  190.2620  176.8320  136.9380 C   0  0  1  0  0  3  0  0  0  0  0  0
  191.5770  177.6920  142.6730 C   0  0  1  0  0  3  0  0  0  0  0  0
  189.0830  178.2620  143.0160 C   0  0  0  0  0  2  0  0  0  0  0  0
  188.8160  176.0230  135.3920 C   0  0  2  0  0  3  0  0  0  0  0  0
  190.5880  178.2460  145.0440 C   0  0  0  0  0  2  0  0  0  0  0  0
  186.6080  179.2650  141.7420 C   0  0  0  0  0  3  0  0  0  0  0  0
  189.0080  178.5420  141.5150 C   0  0  2  0  0  3  0  0  0  0  0  0
  187.5810  178.5700  141.0060 C   0  0  0  0  0  0  0  0  0  0  0  0
  188.2440  177.2420  138.9490 C   0  0  1  0  0  3  0  0  0  0  0  0
  190.1520  175.6420  134.9150 N   0  0  0  0  0  2  0  0  0  0  0  0
  190.6250  175.6770  143.3050 C   0  0  0  0  0  2  0  0  0  0  0  0
  190.5140  178.4570  143.5230 C   0  0  1  0  0  3  0  0  0  0  0  0
  191.0780  175.9950  135.9930 C   0  0  0  0  0  2  0  0  0  0  0  0
  191.8320  176.3340  143.0020 O   0  0  0  0  0  0  0  0  0  0  0  0
  191.0630  176.8680  145.5130 C   0  0  1  0  0  3  0  0  0  0  0  0
  185.9070  178.1220  139.2970 C   0  0  0  0  0  3  0  0  0  0  0  0
  187.2360  178.0330  139.7430 C   0  0  0  0  0  0  0  0  0  0  0  0
  187.9790  177.2190  137.4270 C   0  0  0  0  0  2  0  0  0  0  0  0
  191.3710  177.8830  141.1680 C   0  0  0  0  0  2  0  0  0  0  0  0
  191.6440  176.3050  138.8070 O   0  0  0  0  0  0  0  0  0  0  0  0
  188.3230  177.2300  134.5940 C   0  0  0  0  0  1  0  0  0  0  0  0
  189.6980  177.6640  139.2630 C   0  0  1  0  0  3  0  0  0  0  0  0
  188.9350  176.2850  136.8270 N   0  0  2  0  0  0  0  0  0  0  0  0
  190.8900  176.7650  147.0200 C   0  0  0  0  0  2  0  0  0  0  0  0
  189.5210  177.2000  147.4370 C   0  0  0  0  0  0  0  0  0  0  0  0
  189.3640  178.2580  148.4730 C   0  0  0  0  0  1  0  0  0  0  0  0
  188.5330  176.6790  146.9460 O   0  0  0  0  0  0  0  0  0  0  0  0
  1 20  1  0  0  0  0
  2 24  1  6  0  0  0
  2 12  1  0  0  0  0
  3 11  1  0  0  0  0
  4  3  2  0  0  0  0
  5 25  2  0  0  0  0
  6 18  1  6  0  0  0
  6  5  1  0  0  0  0
  7 24  1  6  0  0  0
  7 19  1  0  0  0  0
  7 17  1  0  0  0  0
  9 26  1  6  0  0  0
  9 28  1  0  0  0  0
 10 20  1  0  0  0  0
 12  8  1  1  0  0  0
 13 12  1  0  0  0  0
 13 11  2  0  0  0  0
 14 23  1  6  0  0  0
 14 27  1  0  0  0  0
 14 22  1  0  0  0  0
 15  9  1  0  0  0  0
 15 18  1  0  0  0  0
 16  1  1  0  0  0  0
 17  8  1  6  0  0  0
 17 10  1  0  0  0  0
 19 16  1  0  0  0  0
 20 29  1  1  0  0  0
 21 22  2  0  0  0  0
 21  4  1  0  0  0  0
 22 13  1  0  0  0  0
 27  5  1  6  0  0  0
 27  2  1  0  0  0  0
 28  6  1  0  0  0  0
 28 23  1  6  0  0  0
 29 30  1  0  0  0  0
 30 31  1  0  0  0  0
 32 30  2  0  0  0  0
M  END
>  <MODEL>
6

>  <REMARK>
 VINA RESULT:      -7.3      3.212      7.406
  Name = 
  2 active torsions:
  status: ('A' for Active; 'I' for Inactive)
    1  A    between atoms: C_20  and  C_29
    2  A    between atoms: C_29  and  C_30
                            x       y       z     vdW  Elec       q    Type
                         _______ _______ _______ _____ _____    ______ ____

>  <TORSDO>
F 2

$$$$
=
 OpenBabel11122410523D

 32 37  0  0  1  0  0  0  0  0999 V2000
  182.6240  176.7420  139.2730 C   0  0  0  0  0  2  0  0  0  0  0  0
  186.1230  178.2860  141.5760 C   0  0  2  0  0  3  0  0  0  0  0  0
  189.6220  177.7760  138.0430 C   0  0  0  0  0  3  0  0  0  0  0  0
  190.4470  177.1270  138.9600 C   0  0  0  0  0  3  0  0  0  0  0  0
  186.9180  178.0500  144.0280 C   0  0  0  0  0  0  0  0  0  0  0  0
  188.0920  177.8730  144.9370 C   0  0  1  0  0  3  0  0  0  0  0  0
  183.8180  179.1150  140.9960 C   0  0  1  0  0  3  0  0  0  0  0  0
  185.5170  178.4790  139.1600 C   0  0  0  0  0  2  0  0  0  0  0  0
  189.8040  176.5270  145.5640 C   0  0  2  0  0  3  0  0  0  0  0  0
  183.1780  179.1070  138.4470 C   0  0  0  0  0  2  0  0  0  0  0  0
  188.3810  178.2700  138.4480 C   0  0  0  0  0  3  0  0  0  0  0  0
  186.6210  178.7260  140.1890 C   0  0  2  0  0  3  0  0  0  0  0  0
  187.9420  178.1110  139.7720 C   0  0  0  0  0  0  0  0  0  0  0  0
  188.3450  177.2750  142.1330 C   0  0  1  0  0  3  0  0  0  0  0  0
  189.0560  176.8070  146.7970 N   0  0  0  0  0  2  0  0  0  0  0  0
  183.3900  176.8750  140.5910 C   0  0  0  0  0  2  0  0  0  0  0  0
  184.2700  179.2940  139.5120 C   0  0  1  0  0  3  0  0  0  0  0  0
  187.8470  177.5200  146.3780 C   0  0  0  0  0  2  0  0  0  0  0  0
  182.9710  178.0160  141.3000 O   0  0  0  0  0  0  0  0  0  0  0  0
  182.0820  178.0870  138.7730 C   0  0  1  0  0  3  0  0  0  0  0  0
  190.0380  176.9860  140.2870 C   0  0  0  0  0  3  0  0  0  0  0  0
  188.8050  177.5030  140.7160 C   0  0  0  0  0  0  0  0  0  0  0  0
  189.4910  177.1670  143.1630 C   0  0  0  0  0  2  0  0  0  0  0  0
  184.9850  179.2240  141.9800 C   0  0  0  0  0  2  0  0  0  0  0  0
  185.7660  177.9940  144.4330 O   0  0  0  0  0  0  0  0  0  0  0  0
  191.0640  177.3940  145.5350 C   0  0  0  0  0  1  0  0  0  0  0  0
  187.2820  178.3070  142.5770 C   0  0  1  0  0  3  0  0  0  0  0  0
  188.8970  176.7840  144.4460 N   0  0  2  0  0  0  0  0  0  0  0  0
  181.2060  177.8840  137.5470 C   0  0  0  0  0  2  0  0  0  0  0  0
  181.8380  176.9290  136.5840 C   0  0  0  0  0  0  0  0  0  0  0  0
  183.0430  177.3430  135.8140 C   0  0  0  0  0  1  0  0  0  0  0  0
  181.3570  175.8210  136.4120 O   0  0  0  0  0  0  0  0  0  0  0  0
  1 16  1  0  0  0  0
  2 24  1  1  0  0  0
  2 27  1  0  0  0  0
  3 11  2  0  0  0  0
  3  4  1  0  0  0  0
  4 21  2  0  0  0  0
  5 25  2  0  0  0  0
  5  6  1  0  0  0  0
  6 18  1  1  0  0  0
  7 19  1  0  0  0  0
  7 24  1  1  0  0  0
  8 17  1  0  0  0  0
  9 26  1  6  0  0  0
  9 15  1  0  0  0  0
 10 20  1  0  0  0  0
 11 13  1  0  0  0  0
 12  8  1  6  0  0  0
 12  2  1  0  0  0  0
 13 12  1  0  0  0  0
 13 22  2  0  0  0  0
 14 27  1  0  0  0  0
 14 23  1  1  0  0  0
 16 19  1  0  0  0  0
 17 10  1  6  0  0  0
 17  7  1  0  0  0  0
 18 15  1  0  0  0  0
 20 29  1  6  0  0  0
 20  1  1  0  0  0  0
 21 22  1  0  0  0  0
 22 14  1  0  0  0  0
 27  5  1  1  0  0  0
 28 23  1  6  0  0  0
 28  6  1  0  0  0  0
 28  9  1  0  0  0  0
 30 29  1  0  0  0  0
 31 30  1  0  0  0  0
 32 30  2  0  0  0  0
M  END
>  <MODEL>
7

>  <REMARK>
 VINA RESULT:      -7.1      3.619      7.216
  Name = 
  2 active torsions:
  status: ('A' for Active; 'I' for Inactive)
    1  A    between atoms: C_20  and  C_29
    2  A    between atoms: C_29  and  C_30
                            x       y       z     vdW  Elec       q    Type
                         _______ _______ _______ _____ _____    ______ ____

>  <TORSDO>
F 2

$$$$
=
 OpenBabel11122410523D

 32 37  0  0  1  0  0  0  0  0999 V2000
  187.1530  176.3460  144.0000 C   0  0  0  0  0  2  0  0  0  0  0  0
  189.2400  177.5060  140.2280 C   0  0  2  0  0  3  0  0  0  0  0  0
  185.2400  177.9090  137.2580 C   0  0  0  0  0  3  0  0  0  0  0  0
  185.8750  177.1140  136.3040 C   0  0  0  0  0  3  0  0  0  0  0  0
  191.4510  176.7860  139.0930 C   0  0  0  0  0  0  0  0  0  0  0  0
  192.1330  176.4680  137.7990 C   0  0  1  0  0  3  0  0  0  0  0  0
  189.1720  178.3440  142.6020 C   0  0  1  0  0  3  0  0  0  0  0  0
  187.0290  178.1850  141.1720 C   0  0  0  0  0  2  0  0  0  0  0  0
  192.2150  175.0920  136.0010 C   0  0  2  0  0  3  0  0  0  0  0  0
  186.7920  178.8530  143.5950 C   0  0  0  0  0  2  0  0  0  0  0  0
  185.9070  178.2530  138.4350 C   0  0  0  0  0  3  0  0  0  0  0  0
  187.9270  178.2530  139.9360 C   0  0  2  0  0  3  0  0  0  0  0  0
  187.2120  177.7960  138.6800 C   0  0  0  0  0  0  0  0  0  0  0  0
  189.2590  176.4940  137.9390 C   0  0  1  0  0  3  0  0  0  0  0  0
  193.5690  175.0710  136.5710 N   0  0  0  0  0  2  0  0  0  0  0  0
  188.3520  176.2260  143.0570 C   0  0  0  0  0  2  0  0  0  0  0  0
  187.7150  178.8540  142.3660 C   0  0  1  0  0  3  0  0  0  0  0  0
  193.4830  175.8060  137.8350 C   0  0  0  0  0  2  0  0  0  0  0  0
  189.3410  177.1700  143.3840 O   0  0  0  0  0  0  0  0  0  0  0  0
  187.0350  177.7420  144.6220 C   0  0  1  0  0  3  0  0  0  0  0  0
  187.1810  176.6760  136.5200 C   0  0  0  0  0  3  0  0  0  0  0  0
  187.8750  177.0370  137.6860 C   0  0  0  0  0  0  0  0  0  0  0  0
  190.0760  176.2160  136.6570 C   0  0  0  0  0  2  0  0  0  0  0  0
  189.9890  178.2880  141.3090 C   0  0  0  0  0  2  0  0  0  0  0  0
  191.9870  176.5970  140.1740 O   0  0  0  0  0  0  0  0  0  0  0  0
  192.2040  175.9970  134.7680 C   0  0  0  0  0  1  0  0  0  0  0  0
  190.0560  177.3610  138.9400 C   0  0  1  0  0  3  0  0  0  0  0  0
  191.3130  175.5430  137.0600 N   0  0  2  0  0  0  0  0  0  0  0  0
  185.9240  177.7700  145.6600 C   0  0  0  0  0  2  0  0  0  0  0  0
  186.3270  178.5650  146.8610 C   0  0  0  0  0  0  0  0  0  0  0  0
  187.5070  178.1450  147.6650 C   0  0  0  0  0  1  0  0  0  0  0  0
  185.6810  179.5450  147.1950 O   0  0  0  0  0  0  0  0  0  0  0  0
  1 20  1  0  0  0  0
  2 24  1  1  0  0  0
  3 11  1  0  0  0  0
  4 21  1  0  0  0  0
  4  3  2  0  0  0  0
  5 25  2  0  0  0  0
  6 18  1  1  0  0  0
  6  5  1  0  0  0  0
  7 24  1  6  0  0  0
  7 19  1  0  0  0  0
  9 26  1  6  0  0  0
  9 15  1  0  0  0  0
  9 28  1  0  0  0  0
 10 20  1  0  0  0  0
 11 13  2  0  0  0  0
 12  2  1  0  0  0  0
 12  8  1  1  0  0  0
 13 12  1  0  0  0  0
 14 23  1  6  0  0  0
 14 27  1  0  0  0  0
 15 18  1  0  0  0  0
 16 19  1  0  0  0  0
 16  1  1  0  0  0  0
 17  8  1  6  0  0  0
 17  7  1  0  0  0  0
 17 10  1  0  0  0  0
 20 29  1  1  0  0  0
 21 22  2  0  0  0  0
 22 14  1  0  0  0  0
 22 13  1  0  0  0  0
 27  5  1  1  0  0  0
 27  2  1  0  0  0  0
 28 23  1  6  0  0  0
 28  6  1  0  0  0  0
 29 30  1  0  0  0  0
 30 32  2  0  0  0  0
 30 31  1  0  0  0  0
M  END
>  <MODEL>
8

>  <REMARK>
 VINA RESULT:      -7.0      3.566      8.556
  Name = 
  2 active torsions:
  status: ('A' for Active; 'I' for Inactive)
    1  A    between atoms: C_20  and  C_29
    2  A    between atoms: C_29  and  C_30
                            x       y       z     vdW  Elec       q    Type
                         _______ _______ _______ _____ _____    ______ ____

>  <TORSDO>
F 2

$$$$
=
 OpenBabel11122410523D

 32 37  0  0  1  0  0  0  0  0999 V2000
  189.0150  175.9380  143.3390 C   0  0  0  0  0  2  0  0  0  0  0  0
  191.2270  176.5420  139.5090 C   0  0  2  0  0  3  0  0  0  0  0  0
  187.4270  175.8400  136.3380 C   0  0  0  0  0  3  0  0  0  0  0  0
  188.2090  174.9490  135.6050 C   0  0  0  0  0  3  0  0  0  0  0  0
  193.5780  175.8760  138.6560 C   0  0  0  0  0  0  0  0  0  0  0  0
  194.3800  175.3830  137.4930 C   0  0  1  0  0  3  0  0  0  0  0  0
  190.9000  177.8340  141.6440 C   0  0  1  0  0  3  0  0  0  0  0  0
  188.8940  177.1280  140.1830 C   0  0  0  0  0  2  0  0  0  0  0  0
  194.7370  173.6870  136.0330 C   0  0  2  0  0  3  0  0  0  0  0  0
  188.4160  178.2460  142.3950 C   0  0  0  0  0  2  0  0  0  0  0  0
  187.9680  176.4960  137.4450 C   0  0  0  0  0  3  0  0  0  0  0  0
  189.8640  177.0480  139.0040 C   0  0  2  0  0  3  0  0  0  0  0  0
  189.2940  176.2610  137.8420 C   0  0  0  0  0  0  0  0  0  0  0  0
  191.5160  175.0900  137.4890 C   0  0  1  0  0  3  0  0  0  0  0  0
  196.0410  173.9470  136.6560 N   0  0  0  0  0  2  0  0  0  0  0  0
  190.2840  175.7720  142.5000 C   0  0  0  0  0  2  0  0  0  0  0  0
  189.4170  178.1050  141.2380 C   0  0  1  0  0  3  0  0  0  0  0  0
  195.7870  174.9100  137.7300 C   0  0  0  0  0  2  0  0  0  0  0  0
  191.1400  176.8760  142.6650 O   0  0  0  0  0  0  0  0  0  0  0  0
  188.7030  177.4070  143.6450 C   0  0  1  0  0  3  0  0  0  0  0  0
  189.5370  174.7250  135.9690 C   0  0  0  0  0  3  0  0  0  0  0  0
  190.1040  175.4000  137.0640 C   0  0  0  0  0  0  0  0  0  0  0  0
  192.4470  174.6560  136.3360 C   0  0  0  0  0  2  0  0  0  0  0  0
  191.8080  177.6130  140.4320 C   0  0  0  0  0  2  0  0  0  0  0  0
  194.0530  175.9790  139.7770 O   0  0  0  0  0  0  0  0  0  0  0  0
  194.7150  174.3120  134.6370 C   0  0  0  0  0  1  0  0  0  0  0  0
  192.1420  176.2340  138.3200 C   0  0  1  0  0  3  0  0  0  0  0  0
  193.7190  174.2340  136.9290 N   0  0  2  0  0  0  0  0  0  0  0  0
  187.5260  177.5130  144.6010 C   0  0  0  0  0  2  0  0  0  0  0  0
  187.9860  177.7950  145.9950 C   0  0  0  0  0  0  0  0  0  0  0  0
  189.4040  177.5390  146.3730 C   0  0  0  0  0  1  0  0  0  0  0  0
  187.2010  178.2130  146.8300 O   0  0  0  0  0  0  0  0  0  0  0  0
  1 20  1  0  0  0  0
  2 24  1  1  0  0  0
  3 11  1  0  0  0  0
  4 21  1  0  0  0  0
  4  3  2  0  0  0  0
  5 25  2  0  0  0  0
  6 18  1  1  0  0  0
  6  5  1  0  0  0  0
  7 24  1  6  0  0  0
  7 19  1  0  0  0  0
  9 26  1  6  0  0  0
  9 15  1  0  0  0  0
  9 28  1  0  0  0  0
 10 20  1  0  0  0  0
 11 13  2  0  0  0  0
 12  2  1  0  0  0  0
 12  8  1  1  0  0  0
 13 12  1  0  0  0  0
 14 23  1  6  0  0  0
 14 27  1  0  0  0  0
 15 18  1  0  0  0  0
 16 19  1  0  0  0  0
 16  1  1  0  0  0  0
 17  8  1  6  0  0  0
 17  7  1  0  0  0  0
 17 10  1  0  0  0  0
 20 29  1  1  0  0  0
 21 22  2  0  0  0  0
 22 14  1  0  0  0  0
 22 13  1  0  0  0  0
 27  5  1  1  0  0  0
 27  2  1  0  0  0  0
 28 23  1  6  0  0  0
 28  6  1  0  0  0  0
 29 30  1  0  0  0  0
 30 31  1  0  0  0  0
 30 32  2  0  0  0  0
M  END
>  <MODEL>
9

>  <REMARK>
 VINA RESULT:      -7.0      3.870      8.921
  Name = 
  2 active torsions:
  status: ('A' for Active; 'I' for Inactive)
    1  A    between atoms: C_20  and  C_29
    2  A    between atoms: C_29  and  C_30
                            x       y       z     vdW  Elec       q    Type
                         _______ _______ _______ _____ _____    ______ ____

>  <TORSDO>
F 2

$$$$
