=
 OpenBabel11122410213D

 30 35  0  0  1  0  0  0  0  0999 V2000
  185.7670  178.2130  142.4620 C   0  0  0  0  0  0  0  0  0  0  0  0
  186.6480  178.0410  144.8060 C   0  0  0  0  0  0  0  0  0  0  0  0
  181.9090  179.1240  143.8760 N   0  0  0  0  0  2  0  0  0  0  0  0
  184.6780  178.4960  141.6060 C   0  0  0  0  0  0  0  0  0  0  0  0
  187.0380  177.6930  141.8440 C   0  0  0  0  0  2  0  0  0  0  0  0
  186.4840  178.8220  138.4170 O   0  0  0  0  0  0  0  0  0  0  0  0
  182.8700  176.8090  140.0770 C   0  0  1  0  0  3  0  0  0  0  0  0
  186.2390  178.5490  139.6240 C   0  0  0  0  0  0  0  0  0  0  0  0
  181.7660  177.5740  140.8070 C   0  0  2  0  0  3  0  0  0  0  0  0
  181.2470  179.1900  142.6130 C   0  0  0  0  0  0  0  0  0  0  0  0
  187.3150  178.2970  140.5400 N   0  0  0  0  0  0  0  0  0  0  0  0
  184.8180  178.5610  140.1050 C   0  0  1  0  0  3  0  0  0  0  0  0
  186.4100  178.1200  146.1820 C   0  0  0  0  0  3  0  0  0  0  0  0
  180.6710  177.6880  139.9420 O   0  0  0  0  0  0  0  0  0  0  0  0
  182.0780  175.9230  139.1580 C   0  0  0  0  0  2  0  0  0  0  0  0
  187.9370  177.7280  144.3900 O   0  0  0  0  0  1  0  0  0  0  0  0
  183.2580  178.8540  143.5250 C   0  0  0  0  0  0  0  0  0  0  0  0
  185.1470  178.4430  146.6720 C   0  0  0  0  0  3  0  0  0  0  0  0
  185.5960  178.2860  143.8830 C   0  0  0  0  0  0  0  0  0  0  0  0
  183.4390  178.7870  142.1680 C   0  0  0  0  0  0  0  0  0  0  0  0
  180.0210  179.4520  142.5090 O   0  0  0  0  0  0  0  0  0  0  0  0
  182.1440  178.9220  141.4390 C   0  0  1  0  0  3  0  0  0  0  0  0
  180.6650  176.4830  139.2170 C   0  0  0  0  0  2  0  0  0  0  0  0
  183.2210  178.5030  138.1830 C   0  0  0  0  0  1  0  0  0  0  0  0
  184.1000  178.6930  145.7880 C   0  0  0  0  0  3  0  0  0  0  0  0
  184.3110  178.6230  144.4080 C   0  0  0  0  0  0  0  0  0  0  0  0
  183.8810  177.6650  139.2730 C   0  0  2  0  0  3  0  0  0  0  0  0
  188.6950  178.4880  140.0900 C   0  0  0  0  0  2  0  0  0  0  0  0
  190.3940  177.0800  140.0580 C   0  0  0  0  0  1  0  0  0  0  0  0
  189.5990  177.8270  140.9250 O   0  0  0  0  0  0  0  0  0  0  0  0
  1 19  1  0  0  0  0
  2 13  1  0  0  0  0
  4 20  1  0  0  0  0
  4  1  2  0  0  0  0
  5  1  1  0  0  0  0
  6  8  2  0  0  0  0
  7 15  1  6  0  0  0
  7  9  1  0  0  0  0
  8 11  1  0  0  0  0
  9 14  1  6  0  0  0
  9 22  1  0  0  0  0
 10  3  1  0  0  0  0
 11  5  1  0  0  0  0
 12  8  1  1  0  0  0
 12  4  1  0  0  0  0
 13 18  2  0  0  0  0
 15 23  1  0  0  0  0
 16  2  1  0  0  0  0
 17  3  1  0  0  0  0
 17 26  1  0  0  0  0
 19 26  1  0  0  0  0
 19  2  2  0  0  0  0
 20 17  2  0  0  0  0
 21 10  2  0  0  0  0
 22 20  1  1  0  0  0
 22 10  1  0  0  0  0
 23 14  1  0  0  0  0
 25 18  1  0  0  0  0
 26 25  2  0  0  0  0
 27 24  1  6  0  0  0
 27  7  1  0  0  0  0
 27 12  1  0  0  0  0
 28 11  1  0  0  0  0
 28 30  1  0  0  0  0
 29 30  1  0  0  0  0
M  END
>  <MODEL>
1

>  <REMARK>
 VINA RESULT:      -9.0      0.000      0.000
  Name = 
  2 active torsions:
  status: ('A' for Active; 'I' for Inactive)
    1  A    between atoms: N_11  and  C_28
    2  A    between atoms: C_28  and  O_30
                            x       y       z     vdW  Elec       q    Type
                         _______ _______ _______ _____ _____    ______ ____

>  <TORSDO>
F 2

$$$$
=
 OpenBabel11122410213D

 30 35  0  0  1  0  0  0  0  0999 V2000
  186.5520  178.2620  142.0040 C   0  0  0  0  0  0  0  0  0  0  0  0
  184.1890  179.0820  142.2190 C   0  0  0  0  0  0  0  0  0  0  0  0
  186.7210  177.3780  146.1160 N   0  0  0  0  0  2  0  0  0  0  0  0
  187.6830  177.6790  142.6230 C   0  0  0  0  0  0  0  0  0  0  0  0
  186.6850  178.7280  140.5790 C   0  0  0  0  0  2  0  0  0  0  0  0
  189.6000  176.7490  139.6240 O   0  0  0  0  0  0  0  0  0  0  0  0
  190.2130  178.7700  143.5500 C   0  0  1  0  0  3  0  0  0  0  0  0
  188.7280  177.2860  140.3600 C   0  0  0  0  0  0  0  0  0  0  0  0
  189.8480  178.1090  144.8800 C   0  0  2  0  0  3  0  0  0  0  0  0
  188.0800  176.9440  146.1680 C   0  0  0  0  0  0  0  0  0  0  0  0
  187.5430  177.8510  139.7800 N   0  0  0  0  0  0  0  0  0  0  0  0
  188.9090  177.2630  141.8490 C   0  0  1  0  0  3  0  0  0  0  0  0
  183.0760  179.3200  143.0300 C   0  0  0  0  0  3  0  0  0  0  0  0
  191.0330  177.6880  145.4950 O   0  0  0  0  0  0  0  0  0  0  0  0
  191.5770  179.3280  143.8450 C   0  0  0  0  0  2  0  0  0  0  0  0
  184.0870  179.3990  140.8700 O   0  0  0  0  0  1  0  0  0  0  0  0
  186.5250  177.6740  144.7420 C   0  0  0  0  0  0  0  0  0  0  0  0
  183.1010  179.0140  144.3890 C   0  0  0  0  0  3  0  0  0  0  0  0
  185.3720  178.5240  142.7750 C   0  0  0  0  0  0  0  0  0  0  0  0
  187.6440  177.4240  143.9900 C   0  0  0  0  0  0  0  0  0  0  0  0
  188.6220  176.5540  147.2340 O   0  0  0  0  0  0  0  0  0  0  0  0
  188.7890  176.9980  144.8450 C   0  0  1  0  0  3  0  0  0  0  0  0
  191.9780  178.6730  145.1580 C   0  0  0  0  0  2  0  0  0  0  0  0
  191.2680  176.7030  142.4560 C   0  0  0  0  0  1  0  0  0  0  0  0
  184.2460  178.4610  144.9570 C   0  0  0  0  0  3  0  0  0  0  0  0
  185.3730  178.2100  144.1680 C   0  0  0  0  0  0  0  0  0  0  0  0
  190.2600  177.8390  142.3120 C   0  0  2  0  0  3  0  0  0  0  0  0
  187.3000  177.6820  138.3470 C   0  0  0  0  0  2  0  0  0  0  0  0
  188.5670  178.7600  136.8980 C   0  0  0  0  0  1  0  0  0  0  0  0
  187.4120  178.8960  137.6640 O   0  0  0  0  0  0  0  0  0  0  0  0
  1  4  2  0  0  0  0
  1 19  1  0  0  0  0
  2 19  2  0  0  0  0
  2 13  1  0  0  0  0
  3 10  1  0  0  0  0
  4 20  1  0  0  0  0
  5  1  1  0  0  0  0
  6  8  2  0  0  0  0
  7 15  1  1  0  0  0
  7  9  1  0  0  0  0
  9 14  1  6  0  0  0
 10 21  2  0  0  0  0
 11  8  1  0  0  0  0
 11  5  1  0  0  0  0
 12  8  1  6  0  0  0
 12 27  1  0  0  0  0
 12  4  1  0  0  0  0
 13 18  2  0  0  0  0
 15 23  1  0  0  0  0
 16  2  1  0  0  0  0
 17  3  1  0  0  0  0
 18 25  1  0  0  0  0
 19 26  1  0  0  0  0
 20 17  2  0  0  0  0
 22 20  1  6  0  0  0
 22  9  1  0  0  0  0
 22 10  1  0  0  0  0
 23 14  1  0  0  0  0
 26 17  1  0  0  0  0
 26 25  2  0  0  0  0
 27 24  1  1  0  0  0
 27  7  1  0  0  0  0
 28 11  1  0  0  0  0
 29 30  1  0  0  0  0
 30 28  1  0  0  0  0
M  END
>  <MODEL>
2

>  <REMARK>
 VINA RESULT:      -9.0      2.640      6.305
  Name = 
  2 active torsions:
  status: ('A' for Active; 'I' for Inactive)
    1  A    between atoms: N_11  and  C_28
    2  A    between atoms: C_28  and  O_30
                            x       y       z     vdW  Elec       q    Type
                         _______ _______ _______ _____ _____    ______ ____

>  <TORSDO>
F 2

$$$$
=
 OpenBabel11122410213D

 30 35  0  0  1  0  0  0  0  0999 V2000
  187.2030  177.8270  142.9150 C   0  0  0  0  0  0  0  0  0  0  0  0
  188.2800  177.1880  145.0910 C   0  0  0  0  0  0  0  0  0  0  0  0
  183.7980  179.2810  144.9170 N   0  0  0  0  0  2  0  0  0  0  0  0
  186.1100  178.4240  142.2460 C   0  0  0  0  0  0  0  0  0  0  0  0
  188.2630  177.1540  142.0840 C   0  0  0  0  0  2  0  0  0  0  0  0
  187.5840  178.7980  138.8960 O   0  0  0  0  0  0  0  0  0  0  0  0
  183.8340  177.3290  140.8060 C   0  0  1  0  0  3  0  0  0  0  0  0
  187.4210  178.4260  140.0900 C   0  0  0  0  0  0  0  0  0  0  0  0
  183.0000  178.1940  141.7520 C   0  0  2  0  0  3  0  0  0  0  0  0
  183.0310  179.6350  143.7670 C   0  0  0  0  0  0  0  0  0  0  0  0
  188.5150  177.8540  140.8240 N   0  0  0  0  0  0  0  0  0  0  0  0
  186.0960  178.6510  140.7550 C   0  0  1  0  0  3  0  0  0  0  0  0
  188.2160  177.1360  146.4870 C   0  0  0  0  0  3  0  0  0  0  0  0
  181.8650  178.6290  141.0560 O   0  0  0  0  0  0  0  0  0  0  0  0
  182.7780  176.7390  139.9130 C   0  0  0  0  0  2  0  0  0  0  0  0
  189.4220  176.6870  144.4770 O   0  0  0  0  0  1  0  0  0  0  0  0
  185.0140  178.8020  144.3630 C   0  0  0  0  0  0  0  0  0  0  0  0
  187.1100  177.6320  147.1720 C   0  0  0  0  0  3  0  0  0  0  0  0
  187.2080  177.7490  144.3470 C   0  0  0  0  0  0  0  0  0  0  0  0
  185.0280  178.8750  142.9950 C   0  0  0  0  0  0  0  0  0  0  0  0
  181.8820  180.1420  143.8550 O   0  0  0  0  0  0  0  0  0  0  0  0
  183.7170  179.3510  142.4630 C   0  0  1  0  0  3  0  0  0  0  0  0
  181.5280  177.5510  140.2180 C   0  0  0  0  0  2  0  0  0  0  0  0
  184.3210  179.1510  139.0670 C   0  0  0  0  0  1  0  0  0  0  0  0
  186.0470  178.1920  146.4660 C   0  0  0  0  0  3  0  0  0  0  0  0
  186.0860  178.2590  145.0700 C   0  0  0  0  0  0  0  0  0  0  0  0
  184.9070  178.0680  139.9670 C   0  0  2  0  0  3  0  0  0  0  0  0
  189.8460  177.8300  140.2160 C   0  0  0  0  0  2  0  0  0  0  0  0
  190.2790  176.3180  138.6680 C   0  0  0  0  0  1  0  0  0  0  0  0
  190.3050  176.5210  140.0460 O   0  0  0  0  0  0  0  0  0  0  0  0
  1 19  1  0  0  0  0
  2 13  1  0  0  0  0
  4  1  2  0  0  0  0
  4 20  1  0  0  0  0
  5  1  1  0  0  0  0
  6  8  2  0  0  0  0
  7 15  1  6  0  0  0
  7  9  1  0  0  0  0
  8 11  1  0  0  0  0
  9 14  1  6  0  0  0
  9 22  1  0  0  0  0
 10 21  2  0  0  0  0
 10  3  1  0  0  0  0
 11  5  1  0  0  0  0
 12  8  1  6  0  0  0
 12  4  1  0  0  0  0
 13 18  2  0  0  0  0
 15 23  1  0  0  0  0
 16  2  1  0  0  0  0
 17  3  1  0  0  0  0
 17 26  1  0  0  0  0
 19 26  1  0  0  0  0
 19  2  2  0  0  0  0
 20 17  2  0  0  0  0
 22 20  1  1  0  0  0
 22 10  1  0  0  0  0
 23 14  1  0  0  0  0
 25 18  1  0  0  0  0
 26 25  2  0  0  0  0
 27 24  1  1  0  0  0
 27 12  1  0  0  0  0
 27  7  1  0  0  0  0
 28 11  1  0  0  0  0
 29 30  1  0  0  0  0
 30 28  1  0  0  0  0
M  END
>  <MODEL>
3

>  <REMARK>
 VINA RESULT:      -8.8      1.333      1.739
  Name = 
  2 active torsions:
  status: ('A' for Active; 'I' for Inactive)
    1  A    between atoms: N_11  and  C_28
    2  A    between atoms: C_28  and  O_30
                            x       y       z     vdW  Elec       q    Type
                         _______ _______ _______ _____ _____    ______ ____

>  <TORSDO>
F 2

$$$$
=
 OpenBabel11122410213D

 30 35  0  0  1  0  0  0  0  0999 V2000
  188.5730  177.6830  141.3650 C   0  0  0  0  0  0  0  0  0  0  0  0
  186.6070  178.1560  142.8520 C   0  0  0  0  0  0  0  0  0  0  0  0
  186.3630  178.7470  137.9440 N   0  0  0  0  0  2  0  0  0  0  0  0
  189.1220  177.6880  140.0610 C   0  0  0  0  0  0  0  0  0  0  0  0
  189.3900  177.0820  142.4770 C   0  0  0  0  0  2  0  0  0  0  0  0
  192.6790  177.2710  140.9030 O   0  0  0  0  0  0  0  0  0  0  0  0
  189.6320  175.5850  138.1200 C   0  0  1  0  0  3  0  0  0  0  0  0
  191.4240  177.3040  141.0220 C   0  0  0  0  0  0  0  0  0  0  0  0
  188.8150  176.4600  137.1690 C   0  0  2  0  0  3  0  0  0  0  0  0
  187.3630  178.4580  136.9670 C   0  0  0  0  0  0  0  0  0  0  0  0
  190.8220  177.3440  142.3250 N   0  0  0  0  0  0  0  0  0  0  0  0
  190.5720  177.3730  139.7890 C   0  0  1  0  0  3  0  0  0  0  0  0
  185.2780  178.5730  142.9810 C   0  0  0  0  0  3  0  0  0  0  0  0
  189.3310  176.2990  135.8780 O   0  0  0  0  0  0  0  0  0  0  0  0
  190.0540  174.4580  137.2200 C   0  0  0  0  0  2  0  0  0  0  0  0
  187.2900  177.8060  144.0100 O   0  0  0  0  0  1  0  0  0  0  0  0
  187.0140  178.4590  139.1720 C   0  0  0  0  0  0  0  0  0  0  0  0
  184.5350  178.9520  141.8660 C   0  0  0  0  0  3  0  0  0  0  0  0
  187.2190  178.1090  141.5710 C   0  0  0  0  0  0  0  0  0  0  0  0
  188.3110  178.0550  138.9920 C   0  0  0  0  0  0  0  0  0  0  0  0
  187.1690  178.6280  135.7350 O   0  0  0  0  0  0  0  0  0  0  0  0
  188.6490  177.9400  137.5430 C   0  0  1  0  0  3  0  0  0  0  0  0
  189.7240  174.9490  135.8190 C   0  0  0  0  0  2  0  0  0  0  0  0
  191.8870  176.7530  137.7560 C   0  0  0  0  0  1  0  0  0  0  0  0
  185.1150  178.9200  140.5990 C   0  0  0  0  0  3  0  0  0  0  0  0
  186.4410  178.5090  140.4420 C   0  0  0  0  0  0  0  0  0  0  0  0
  190.8680  176.2520  138.7740 C   0  0  2  0  0  3  0  0  0  0  0  0
  191.6810  177.4770  143.5020 C   0  0  0  0  0  2  0  0  0  0  0  0
  191.6310  176.7540  145.5870 C   0  0  0  0  0  1  0  0  0  0  0  0
  191.6800  176.3080  144.2680 O   0  0  0  0  0  0  0  0  0  0  0  0
  1 19  1  0  0  0  0
  1  5  1  0  0  0  0
  2 13  1  0  0  0  0
  2 16  1  0  0  0  0
  3 17  1  0  0  0  0
  4  1  2  0  0  0  0
  6  8  2  0  0  0  0
  7 15  1  6  0  0  0
  7 27  1  0  0  0  0
  8 11  1  0  0  0  0
  9 14  1  6  0  0  0
  9 22  1  0  0  0  0
  9  7  1  0  0  0  0
 10  3  1  0  0  0  0
 11  5  1  0  0  0  0
 11 28  1  0  0  0  0
 12  4  1  1  0  0  0
 12  8  1  0  0  0  0
 17 26  1  0  0  0  0
 18 13  2  0  0  0  0
 19  2  2  0  0  0  0
 20 17  2  0  0  0  0
 20  4  1  0  0  0  0
 21 10  2  0  0  0  0
 22 10  1  6  0  0  0
 22 20  1  0  0  0  0
 23 14  1  0  0  0  0
 23 15  1  0  0  0  0
 25 18  1  0  0  0  0
 26 25  2  0  0  0  0
 26 19  1  0  0  0  0
 27 24  1  6  0  0  0
 27 12  1  0  0  0  0
 28 30  1  0  0  0  0
 30 29  1  0  0  0  0
M  END
>  <MODEL>
4

>  <REMARK>
 VINA RESULT:      -8.5      3.418      6.290
  Name = 
  2 active torsions:
  status: ('A' for Active; 'I' for Inactive)
    1  A    between atoms: N_11  and  C_28
    2  A    between atoms: C_28  and  O_30
                            x       y       z     vdW  Elec       q    Type
                         _______ _______ _______ _____ _____    ______ ____

>  <TORSDO>
F 2

$$$$
=
 OpenBabel11122410213D

 30 35  0  0  1  0  0  0  0  0999 V2000
  187.1370  178.0170  141.0300 C   0  0  0  0  0  0  0  0  0  0  0  0
  184.8510  178.9210  140.5170 C   0  0  0  0  0  0  0  0  0  0  0  0
  186.1800  177.6470  145.1120 N   0  0  0  0  0  2  0  0  0  0  0  0
  188.0310  177.4860  141.9880 C   0  0  0  0  0  0  0  0  0  0  0  0
  187.6620  178.2980  139.6470 C   0  0  0  0  0  2  0  0  0  0  0  0
  190.6030  176.1380  139.7290 O   0  0  0  0  0  0  0  0  0  0  0  0
  190.2940  178.6140  143.4230 C   0  0  1  0  0  3  0  0  0  0  0  0
  189.6030  176.7850  140.1420 C   0  0  0  0  0  0  0  0  0  0  0  0
  189.5570  178.1340  144.6740 C   0  0  2  0  0  3  0  0  0  0  0  0
  187.4510  177.1860  145.5700 C   0  0  0  0  0  0  0  0  0  0  0  0
  188.6450  177.3060  139.2080 N   0  0  0  0  0  0  0  0  0  0  0  0
  189.3890  176.9430  141.6180 C   0  0  1  0  0  3  0  0  0  0  0  0
  183.5810  179.2880  140.9720 C   0  0  0  0  0  3  0  0  0  0  0  0
  190.5150  177.7600  145.6250 O   0  0  0  0  0  0  0  0  0  0  0  0
  191.5650  179.1670  144.0030 C   0  0  0  0  0  2  0  0  0  0  0  0
  185.1210  179.0710  139.1620 O   0  0  0  0  0  1  0  0  0  0  0  0
  186.3650  177.7750  143.7100 C   0  0  0  0  0  0  0  0  0  0  0  0
  183.2350  179.1530  142.3140 C   0  0  0  0  0  3  0  0  0  0  0  0
  185.8140  178.4040  141.4260 C   0  0  0  0  0  0  0  0  0  0  0  0
  187.6230  177.4030  143.3150 C   0  0  0  0  0  0  0  0  0  0  0  0
  187.6730  176.9180  146.7790 O   0  0  0  0  0  0  0  0  0  0  0  0
  188.4810  177.0560  144.4860 C   0  0  1  0  0  3  0  0  0  0  0  0
  191.5710  178.6700  145.4410 C   0  0  0  0  0  2  0  0  0  0  0  0
  191.4720  176.3990  142.8880 C   0  0  0  0  0  1  0  0  0  0  0  0
  184.1580  178.6440  143.2240 C   0  0  0  0  0  3  0  0  0  0  0  0
  185.4350  178.2670  142.7960 C   0  0  0  0  0  0  0  0  0  0  0  0
  190.6060  177.5350  142.3550 C   0  0  2  0  0  3  0  0  0  0  0  0
  188.7720  176.9670  137.7910 C   0  0  0  0  0  2  0  0  0  0  0  0
  189.0160  177.8850  135.7980 C   0  0  0  0  0  1  0  0  0  0  0  0
  189.5100  177.9320  137.1000 O   0  0  0  0  0  0  0  0  0  0  0  0
  1 19  2  0  0  0  0
  1  4  1  0  0  0  0
  2 13  2  0  0  0  0
  2 19  1  0  0  0  0
  3 10  1  0  0  0  0
  4 20  2  0  0  0  0
  5  1  1  0  0  0  0
  6  8  2  0  0  0  0
  7 15  1  1  0  0  0
  7  9  1  0  0  0  0
  9 14  1  1  0  0  0
 10 21  2  0  0  0  0
 11  5  1  0  0  0  0
 11  8  1  0  0  0  0
 12  8  1  6  0  0  0
 12  4  1  0  0  0  0
 12 27  1  0  0  0  0
 13 18  1  0  0  0  0
 15 23  1  0  0  0  0
 16  2  1  0  0  0  0
 17  3  1  0  0  0  0
 18 25  2  0  0  0  0
 19 26  1  0  0  0  0
 20 17  1  0  0  0  0
 22 20  1  6  0  0  0
 22  9  1  0  0  0  0
 22 10  1  0  0  0  0
 23 14  1  0  0  0  0
 26 25  1  0  0  0  0
 26 17  2  0  0  0  0
 27 24  1  1  0  0  0
 27  7  1  0  0  0  0
 28 11  1  0  0  0  0
 29 30  1  0  0  0  0
 30 28  1  0  0  0  0
M  END
>  <MODEL>
5

>  <REMARK>
 VINA RESULT:      -8.2      2.565      6.385
  Name = 
  2 active torsions:
  status: ('A' for Active; 'I' for Inactive)
    1  A    between atoms: N_11  and  C_28
    2  A    between atoms: C_28  and  O_30
                            x       y       z     vdW  Elec       q    Type
                         _______ _______ _______ _____ _____    ______ ____

>  <TORSDO>
F 2

$$$$
=
 OpenBabel11122410213D

 30 35  0  0  1  0  0  0  0  0999 V2000
  186.8950  177.9850  141.8540 C   0  0  0  0  0  0  0  0  0  0  0  0
  188.3180  177.5130  143.8680 C   0  0  0  0  0  0  0  0  0  0  0  0
  183.5500  178.7750  144.2840 N   0  0  0  0  0  2  0  0  0  0  0  0
  185.6430  178.3880  141.3360 C   0  0  0  0  0  0  0  0  0  0  0  0
  187.9500  177.5250  140.8840 C   0  0  0  0  0  2  0  0  0  0  0  0
  186.6210  179.0740  137.8570 O   0  0  0  0  0  0  0  0  0  0  0  0
  183.4390  176.9290  140.1250 C   0  0  1  0  0  3  0  0  0  0  0  0
  186.6690  178.6590  139.0470 C   0  0  0  0  0  0  0  0  0  0  0  0
  182.5850  177.6160  141.1910 C   0  0  2  0  0  3  0  0  0  0  0  0
  182.6010  179.0060  143.2420 C   0  0  0  0  0  0  0  0  0  0  0  0
  187.9240  178.2800  139.6300 N   0  0  0  0  0  0  0  0  0  0  0  0
  185.4120  178.6340  139.8660 C   0  0  1  0  0  3  0  0  0  0  0  0
  188.4300  177.4260  145.2590 C   0  0  0  0  0  3  0  0  0  0  0  0
  181.3170  177.8520  140.6460 O   0  0  0  0  0  0  0  0  0  0  0  0
  182.4050  176.1750  139.3370 C   0  0  0  0  0  2  0  0  0  0  0  0
  189.4480  177.2330  143.1100 O   0  0  0  0  0  1  0  0  0  0  0  0
  184.7570  178.5300  143.5780 C   0  0  0  0  0  0  0  0  0  0  0  0
  187.3420  177.7060  146.0840 C   0  0  0  0  0  3  0  0  0  0  0  0
  187.0830  177.8850  143.2730 C   0  0  0  0  0  0  0  0  0  0  0  0
  184.5950  178.6260  142.2200 C   0  0  0  0  0  0  0  0  0  0  0  0
  181.4000  179.2980  143.4790 O   0  0  0  0  0  0  0  0  0  0  0  0
  183.1680  178.8700  141.8590 C   0  0  1  0  0  3  0  0  0  0  0  0
  181.0770  176.7450  139.8120 C   0  0  0  0  0  2  0  0  0  0  0  0
  183.3900  178.8370  138.4110 C   0  0  0  0  0  1  0  0  0  0  0  0
  186.1220  178.0790  145.5250 C   0  0  0  0  0  3  0  0  0  0  0  0
  185.9830  178.1750  144.1370 C   0  0  0  0  0  0  0  0  0  0  0  0
  184.2590  177.8610  139.1980 C   0  0  2  0  0  3  0  0  0  0  0  0
  189.1580  178.5030  138.8740 C   0  0  0  0  0  2  0  0  0  0  0  0
  190.1090  177.0630  137.4990 C   0  0  0  0  0  1  0  0  0  0  0  0
  189.9560  177.3560  138.8520 O   0  0  0  0  0  0  0  0  0  0  0  0
  1 19  1  0  0  0  0
  2 13  1  0  0  0  0
  4  1  2  0  0  0  0
  4 20  1  0  0  0  0
  5  1  1  0  0  0  0
  6  8  2  0  0  0  0
  7 15  1  6  0  0  0
  7  9  1  0  0  0  0
  8 11  1  0  0  0  0
  9 14  1  6  0  0  0
  9 22  1  0  0  0  0
 10 21  2  0  0  0  0
 10  3  1  0  0  0  0
 11  5  1  0  0  0  0
 12  8  1  6  0  0  0
 12  4  1  0  0  0  0
 13 18  2  0  0  0  0
 15 23  1  0  0  0  0
 16  2  1  0  0  0  0
 17 26  1  0  0  0  0
 17  3  1  0  0  0  0
 19  2  2  0  0  0  0
 19 26  1  0  0  0  0
 20 17  2  0  0  0  0
 22 20  1  1  0  0  0
 22 10  1  0  0  0  0
 23 14  1  0  0  0  0
 25 18  1  0  0  0  0
 26 25  2  0  0  0  0
 27 24  1  1  0  0  0
 27 12  1  0  0  0  0
 27  7  1  0  0  0  0
 28 11  1  0  0  0  0
 29 30  1  0  0  0  0
 30 28  1  0  0  0  0
M  END
>  <MODEL>
6

>  <REMARK>
 VINA RESULT:      -8.2      1.228      1.482
  Name = 
  2 active torsions:
  status: ('A' for Active; 'I' for Inactive)
    1  A    between atoms: N_11  and  C_28
    2  A    between atoms: C_28  and  O_30
                            x       y       z     vdW  Elec       q    Type
                         _______ _______ _______ _____ _____    ______ ____

>  <TORSDO>
F 2

$$$$
=
 OpenBabel11122410213D

 30 35  0  0  1  0  0  0  0  0999 V2000
  187.9100  177.6550  142.0070 C   0  0  0  0  0  0  0  0  0  0  0  0
  187.0910  177.5380  144.3780 C   0  0  0  0  0  0  0  0  0  0  0  0
  184.2580  179.3090  140.7260 N   0  0  0  0  0  2  0  0  0  0  0  0
  187.6650  178.0420  140.6700 C   0  0  0  0  0  0  0  0  0  0  0  0
  189.1670  176.8820  142.3030 C   0  0  0  0  0  2  0  0  0  0  0  0
  191.0830  177.7930  139.3330 O   0  0  0  0  0  0  0  0  0  0  0  0
  186.9320  176.5550  138.2810 C   0  0  1  0  0  3  0  0  0  0  0  0
  190.0960  177.6670  140.1080 C   0  0  0  0  0  0  0  0  0  0  0  0
  185.7760  177.5510  138.1880 C   0  0  2  0  0  3  0  0  0  0  0  0
  184.5520  179.3780  139.3310 C   0  0  0  0  0  0  0  0  0  0  0  0
  190.3000  177.3180  141.4850 N   0  0  0  0  0  0  0  0  0  0  0  0
  188.7170  177.9550  139.5920 C   0  0  1  0  0  3  0  0  0  0  0  0
  186.0690  177.7720  145.3020 C   0  0  0  0  0  3  0  0  0  0  0  0
  185.5020  177.7720  136.8330 O   0  0  0  0  0  0  0  0  0  0  0  0
  186.7390  175.7380  137.0350 C   0  0  0  0  0  2  0  0  0  0  0  0
  188.2740  176.9810  144.8490 O   0  0  0  0  0  1  0  0  0  0  0  0
  185.4550  178.7920  141.2870 C   0  0  0  0  0  0  0  0  0  0  0  0
  184.8610  178.3400  144.9050 C   0  0  0  0  0  3  0  0  0  0  0  0
  186.9090  177.8750  143.0100 C   0  0  0  0  0  0  0  0  0  0  0  0
  186.4240  178.5800  140.3420 C   0  0  0  0  0  0  0  0  0  0  0  0
  183.7310  179.8300  138.4920 O   0  0  0  0  0  0  0  0  0  0  0  0
  185.9160  178.8660  138.9690 C   0  0  1  0  0  3  0  0  0  0  0  0
  185.7280  176.5280  136.2180 C   0  0  0  0  0  2  0  0  0  0  0  0
  188.6860  178.0010  137.0930 C   0  0  0  0  0  1  0  0  0  0  0  0
  184.6590  178.6850  143.5710 C   0  0  0  0  0  3  0  0  0  0  0  0
  185.6650  178.4640  142.6260 C   0  0  0  0  0  0  0  0  0  0  0  0
  188.3580  177.1600  138.3230 C   0  0  2  0  0  3  0  0  0  0  0  0
  191.6650  177.2400  142.0070 C   0  0  0  0  0  2  0  0  0  0  0  0
  191.7190  178.5250  143.8000 C   0  0  0  0  0  1  0  0  0  0  0  0
  191.6740  177.1900  143.4030 O   0  0  0  0  0  0  0  0  0  0  0  0
  1  5  1  0  0  0  0
  1 19  1  0  0  0  0
  2 16  1  0  0  0  0
  2 13  1  0  0  0  0
  3 17  1  0  0  0  0
  4  1  2  0  0  0  0
  6  8  2  0  0  0  0
  7 15  1  6  0  0  0
  7 27  1  0  0  0  0
  8 11  1  0  0  0  0
  9 14  1  6  0  0  0
  9  7  1  0  0  0  0
  9 22  1  0  0  0  0
 10  3  1  0  0  0  0
 11 28  1  0  0  0  0
 11  5  1  0  0  0  0
 12  8  1  1  0  0  0
 12  4  1  0  0  0  0
 17 26  1  0  0  0  0
 18 13  2  0  0  0  0
 19  2  2  0  0  0  0
 20  4  1  0  0  0  0
 20 17  2  0  0  0  0
 21 10  2  0  0  0  0
 22 10  1  1  0  0  0
 22 20  1  0  0  0  0
 23 14  1  0  0  0  0
 23 15  1  0  0  0  0
 25 18  1  0  0  0  0
 26 19  1  0  0  0  0
 26 25  2  0  0  0  0
 27 24  1  6  0  0  0
 27 12  1  0  0  0  0
 28 30  1  0  0  0  0
 30 29  1  0  0  0  0
M  END
>  <MODEL>
7

>  <REMARK>
 VINA RESULT:      -7.8      2.548      3.857
  Name = 
  2 active torsions:
  status: ('A' for Active; 'I' for Inactive)
    1  A    between atoms: N_11  and  C_28
    2  A    between atoms: C_28  and  O_30
                            x       y       z     vdW  Elec       q    Type
                         _______ _______ _______ _____ _____    ______ ____

>  <TORSDO>
F 2

$$$$
=
 OpenBabel11122410213D

 30 35  0  0  1  0  0  0  0  0999 V2000
  187.8790  177.7070  141.0640 C   0  0  0  0  0  0  0  0  0  0  0  0
  187.9240  177.4770  143.5640 C   0  0  0  0  0  0  0  0  0  0  0  0
  183.9530  179.2200  141.1780 N   0  0  0  0  0  2  0  0  0  0  0  0
  187.1780  178.1230  139.9090 C   0  0  0  0  0  0  0  0  0  0  0  0
  189.1880  176.9870  140.8800 C   0  0  0  0  0  2  0  0  0  0  0  0
  189.9410  178.0830  137.4800 O   0  0  0  0  0  0  0  0  0  0  0  0
  185.7270  176.6770  137.8470 C   0  0  1  0  0  3  0  0  0  0  0  0
  189.2830  177.8850  138.5370 C   0  0  0  0  0  0  0  0  0  0  0  0
  184.5740  177.6180  138.1970 C   0  0  2  0  0  3  0  0  0  0  0  0
  183.7510  179.3460  139.7710 C   0  0  0  0  0  0  0  0  0  0  0  0
  189.9570  177.5040  139.7460 N   0  0  0  0  0  0  0  0  0  0  0  0
  187.8020  178.1210  138.5350 C   0  0  1  0  0  3  0  0  0  0  0  0
  187.2710  177.6320  144.7910 C   0  0  0  0  0  3  0  0  0  0  0  0
  183.8460  177.8670  137.0280 O   0  0  0  0  0  0  0  0  0  0  0  0
  185.1490  175.8900  136.7040 C   0  0  0  0  0  2  0  0  0  0  0  0
  189.2160  176.9640  143.5790 O   0  0  0  0  0  1  0  0  0  0  0  0
  185.2870  178.7440  141.2740 C   0  0  0  0  0  0  0  0  0  0  0  0
  185.9810  178.1520  144.8540 C   0  0  0  0  0  3  0  0  0  0  0  0
  187.2730  177.8470  142.3560 C   0  0  0  0  0  0  0  0  0  0  0  0
  185.8820  178.6100  140.0480 C   0  0  0  0  0  0  0  0  0  0  0  0
  182.6770  179.7830  139.2820 O   0  0  0  0  0  0  0  0  0  0  0  0
  184.9260  178.9130  138.9430 C   0  0  1  0  0  3  0  0  0  0  0  0
  183.8920  176.6550  136.3160 C   0  0  0  0  0  2  0  0  0  0  0  0
  186.9170  178.2430  136.2010 C   0  0  0  0  0  1  0  0  0  0  0  0
  185.3230  178.5280  143.6850 C   0  0  0  0  0  3  0  0  0  0  0  0
  185.9530  178.3860  142.4450 C   0  0  0  0  0  0  0  0  0  0  0  0
  187.0590  177.3490  137.4280 C   0  0  2  0  0  3  0  0  0  0  0  0
  191.4200  177.4750  139.7690 C   0  0  0  0  0  2  0  0  0  0  0  0
  193.0720  176.7080  138.5220 C   0  0  0  0  0  1  0  0  0  0  0  0
  191.9160  176.3050  139.1870 O   0  0  0  0  0  0  0  0  0  0  0  0
  1 19  1  0  0  0  0
  2 16  1  0  0  0  0
  2 13  1  0  0  0  0
  3 17  1  0  0  0  0
  4 20  1  0  0  0  0
  4  1  2  0  0  0  0
  5  1  1  0  0  0  0
  6  8  2  0  0  0  0
  7 15  1  6  0  0  0
  7  9  1  0  0  0  0
  8 11  1  0  0  0  0
  9 14  1  6  0  0  0
  9 22  1  0  0  0  0
 10  3  1  0  0  0  0
 11 28  1  0  0  0  0
 11  5  1  0  0  0  0
 12  8  1  1  0  0  0
 12  4  1  0  0  0  0
 13 18  2  0  0  0  0
 17 26  1  0  0  0  0
 19 26  1  0  0  0  0
 19  2  2  0  0  0  0
 20 17  2  0  0  0  0
 21 10  2  0  0  0  0
 22 10  1  1  0  0  0
 22 20  1  0  0  0  0
 23 15  1  0  0  0  0
 23 14  1  0  0  0  0
 25 18  1  0  0  0  0
 26 25  2  0  0  0  0
 27 24  1  6  0  0  0
 27  7  1  0  0  0  0
 27 12  1  0  0  0  0
 29 30  1  0  0  0  0
 30 28  1  0  0  0  0
M  END
>  <MODEL>
8

>  <REMARK>
 VINA RESULT:      -7.3      2.318      3.242
  Name = 
  2 active torsions:
  status: ('A' for Active; 'I' for Inactive)
    1  A    between atoms: N_11  and  C_28
    2  A    between atoms: C_28  and  O_30
                            x       y       z     vdW  Elec       q    Type
                         _______ _______ _______ _____ _____    ______ ____

>  <TORSDO>
F 2

$$$$
=
 OpenBabel11122410213D

 30 35  0  0  1  0  0  0  0  0999 V2000
  186.3530  178.4840  144.8940 C   0  0  0  0  0  0  0  0  0  0  0  0
  186.7640  178.8490  147.3430 C   0  0  0  0  0  0  0  0  0  0  0  0
  189.8550  176.1740  144.5520 N   0  0  0  0  0  2  0  0  0  0  0  0
  186.7570  177.8680  143.6870 C   0  0  0  0  0  0  0  0  0  0  0  0
  185.2050  179.4570  144.8450 C   0  0  0  0  0  2  0  0  0  0  0  0
  183.7020  178.3720  141.7000 O   0  0  0  0  0  0  0  0  0  0  0  0
  188.1160  178.8610  141.3160 C   0  0  1  0  0  3  0  0  0  0  0  0
  184.5500  178.4800  142.6280 C   0  0  0  0  0  0  0  0  0  0  0  0
  189.0950  177.7140  141.5710 C   0  0  2  0  0  3  0  0  0  0  0  0
  189.7960  175.9350  143.1460 C   0  0  0  0  0  0  0  0  0  0  0  0
  184.1740  179.0590  143.8860 N   0  0  0  0  0  0  0  0  0  0  0  0
  185.9320  177.9320  142.4260 C   0  0  1  0  0  3  0  0  0  0  0  0
  187.5630  178.6220  148.4690 C   0  0  0  0  0  3  0  0  0  0  0  0
  189.5570  177.2550  140.3320 O   0  0  0  0  0  0  0  0  0  0  0  0
  188.6480  179.4450  140.0370 C   0  0  0  0  0  2  0  0  0  0  0  0
  185.6240  179.6260  147.5060 O   0  0  0  0  0  1  0  0  0  0  0  0
  188.6800  176.9290  144.8050 C   0  0  0  0  0  0  0  0  0  0  0  0
  188.7130  177.8410  148.3840 C   0  0  0  0  0  3  0  0  0  0  0  0
  187.1200  178.2850  146.0890 C   0  0  0  0  0  0  0  0  0  0  0  0
  187.9320  177.1230  143.6730 C   0  0  0  0  0  0  0  0  0  0  0  0
  190.6640  175.2530  142.5420 O   0  0  0  0  0  0  0  0  0  0  0  0
  188.6140  176.5650  142.4680 C   0  0  1  0  0  3  0  0  0  0  0  0
  189.6420  178.4100  139.5340 C   0  0  0  0  0  2  0  0  0  0  0  0
  186.3800  177.5030  140.0050 C   0  0  0  0  0  1  0  0  0  0  0  0
  189.0820  177.2730  147.1670 C   0  0  0  0  0  3  0  0  0  0  0  0
  188.3000  177.4820  146.0270 C   0  0  0  0  0  0  0  0  0  0  0  0
  186.6260  178.4680  141.1590 C   0  0  2  0  0  3  0  0  0  0  0  0
  182.7700  179.4000  144.1230 C   0  0  0  0  0  2  0  0  0  0  0  0
  180.7090  178.6280  143.9650 C   0  0  0  0  0  1  0  0  0  0  0  0
  181.9980  178.2570  144.3440 O   0  0  0  0  0  0  0  0  0  0  0  0
  1 19  1  0  0  0  0
  2 16  1  0  0  0  0
  2 13  1  0  0  0  0
  3 17  1  0  0  0  0
  4  1  2  0  0  0  0
  5  1  1  0  0  0  0
  6  8  2  0  0  0  0
  7 15  1  6  0  0  0
  7  9  1  0  0  0  0
  8 11  1  0  0  0  0
  9 14  1  6  0  0  0
  9 22  1  0  0  0  0
 10  3  1  0  0  0  0
 11 28  1  0  0  0  0
 11  5  1  0  0  0  0
 12  8  1  1  0  0  0
 12  4  1  0  0  0  0
 17 26  1  0  0  0  0
 18 13  2  0  0  0  0
 19  2  2  0  0  0  0
 20  4  1  0  0  0  0
 20 17  2  0  0  0  0
 21 10  2  0  0  0  0
 22 10  1  1  0  0  0
 22 20  1  0  0  0  0
 23 15  1  0  0  0  0
 23 14  1  0  0  0  0
 25 18  1  0  0  0  0
 26 19  1  0  0  0  0
 26 25  2  0  0  0  0
 27 24  1  6  0  0  0
 27  7  1  0  0  0  0
 27 12  1  0  0  0  0
 28 30  1  0  0  0  0
 29 30  1  0  0  0  0
M  END
>  <MODEL>
9

>  <REMARK>
 VINA RESULT:      -7.1      2.636      6.210
  Name = 
  2 active torsions:
  status: ('A' for Active; 'I' for Inactive)
    1  A    between atoms: N_11  and  C_28
    2  A    between atoms: C_28  and  O_30
                            x       y       z     vdW  Elec       q    Type
                         _______ _______ _______ _____ _____    ______ ____

>  <TORSDO>
F 2

$$$$
