=
 OpenBabel11122412153D

 34 41  0  0  1  0  0  0  0  0999 V2000
  189.3740  177.3270  143.3350 C   0  0  2  0  0  3  0  0  0  0  0  0
  191.6810  177.1340  142.6140 C   0  0  0  0  0  2  0  0  0  0  0  0
  182.8870  178.4210  142.3330 C   0  0  2  0  0  3  0  0  0  0  0  0
  186.9240  177.6030  143.9230 C   0  0  1  0  0  3  0  0  0  0  0  0
  185.3140  178.1910  142.0650 C   0  0  1  0  0  3  0  0  0  0  0  0
  183.5010  179.0030  140.0290 S   0  0  0  0  0  0  0  0  0  0  0  0
  182.0690  178.5540  141.0700 C   0  0  0  0  0  2  0  0  0  0  0  0
  183.6930  179.2900  144.8480 S   0  0  0  0  0  0  0  0  0  0  0  0
  190.0290  177.3610  141.0930 C   0  0  1  0  0  3  0  0  0  0  0  0
  190.4740  177.2050  137.8480 C   0  0  0  0  0  2  0  0  0  0  0  0
  186.5280  178.6280  141.2510 C   0  0  0  0  0  2  0  0  0  0  0  0
  184.5680  177.8780  144.3530 O   0  0  0  0  0  0  0  0  0  0  0  0
  188.7590  178.0820  140.6280 C   0  0  2  0  0  3  0  0  0  0  0  0
  192.3600  177.1050  141.2460 C   0  0  0  0  0  2  0  0  0  0  0  0
  185.6350  178.3450  143.5660 C   0  0  1  0  0  3  0  0  0  0  0  0
  182.4000  179.2080  143.5340 C   0  0  0  0  0  2  0  0  0  0  0  0
  191.1950  176.5670  139.0450 C   0  0  2  0  0  3  0  0  0  0  0  0
  188.0510  178.0330  142.9640 C   0  0  2  0  0  3  0  0  0  0  0  0
  184.1120  179.0640  141.7410 C   0  0  1  0  0  3  0  0  0  0  0  0
  187.6640  177.7580  141.5630 N   0  0  1  0  0  0  0  0  0  0  0  0
  188.6280  177.2190  145.7240 C   0  0  0  0  0  2  0  0  0  0  0  0
  189.3460  178.1810  138.1920 C   0  0  0  0  0  2  0  0  0  0  0  0
  187.3220  177.9180  145.3650 C   0  0  0  0  0  2  0  0  0  0  0  0
  188.3820  177.6100  139.2190 C   0  0  0  0  0  2  0  0  0  0  0  0
  191.2770  177.5070  140.2530 C   0  0  1  0  0  3  0  0  0  0  0  0
  189.7380  177.6730  144.7820 C   0  0  0  0  0  2  0  0  0  0  0  0
  190.4040  177.8050  142.4180 N   0  0  1  0  0  0  0  0  0  0  0  0
  192.4690  176.1610  138.6340 O   0  0  0  0  0  0  0  0  0  0  0  0
  192.4850  176.3770  137.2540 C   0  0  0  0  0  2  0  0  0  0  0  0
  195.6110  175.6280  136.7520 O   0  0  0  0  0  0  0  0  0  0  0  0
  193.8290  174.3310  137.5930 C   0  0  0  0  0  2  0  0  0  0  0  0
  193.2750  175.2760  136.5670 C   0  0  2  0  0  3  0  0  0  0  0  0
  195.3230  174.4200  137.4030 C   0  0  0  0  0  2  0  0  0  0  0  0
  194.5070  175.8690  135.9220 C   0  0  0  0  0  2  0  0  0  0  0  0
  1 26  1  1  0  0  0
  3  7  1  6  0  0  0
  3 16  1  0  0  0  0
  4 23  1  1  0  0  0
  5 11  1  6  0  0  0
  5 15  1  0  0  0  0
  6  7  1  0  0  0  0
  6 19  1  0  0  0  0
  9 27  1  0  0  0  0
 10 22  1  0  0  0  0
 10 17  1  0  0  0  0
 11 20  1  0  0  0  0
 12  8  1  0  0  0  0
 13  9  1  0  0  0  0
 13 20  1  0  0  0  0
 14  2  1  0  0  0  0
 15  4  1  0  0  0  0
 15 12  1  0  0  0  0
 16  8  1  0  0  0  0
 17 25  1  0  0  0  0
 18  1  1  0  0  0  0
 18  4  1  0  0  0  0
 19  5  1  0  0  0  0
 19  3  1  0  0  0  0
 20 18  1  0  0  0  0
 22 24  1  0  0  0  0
 23 21  1  0  0  0  0
 24 13  1  0  0  0  0
 25  9  1  0  0  0  0
 25 14  1  0  0  0  0
 26 21  1  0  0  0  0
 27  2  1  0  0  0  0
 27  1  1  0  0  0  0
 28 17  1  0  0  0  0
 29 28  1  0  0  0  0
 30 33  1  0  0  0  0
 32 29  1  0  0  0  0
 32 31  1  0  0  0  0
 33 31  1  0  0  0  0
 34 32  1  0  0  0  0
 34 30  1  0  0  0  0
M  END
>  <MODEL>
1

>  <REMARK>
 VINA RESULT:      -9.5      0.000      0.000
  Name = 
  3 active torsions:
  status: ('A' for Active; 'I' for Inactive)
    1  A    between atoms: C_17  and  O_28
    2  A    between atoms: O_28  and  C_29
    3  A    between atoms: C_29  and  C_32
                            x       y       z     vdW  Elec       q    Type
                         _______ _______ _______ _____ _____    ______ ____

>  <TORSDO>
F 3

$$$$
=
 OpenBabel11122412153D

 34 41  0  0  1  0  0  0  0  0999 V2000
  190.4590  177.1670  142.6220 C   0  0  2  0  0  3  0  0  0  0  0  0
  192.4480  177.0030  141.2450 C   0  0  0  0  0  2  0  0  0  0  0  0
  183.9820  178.3220  143.6240 C   0  0  2  0  0  3  0  0  0  0  0  0
  188.2950  177.4220  143.9160 C   0  0  1  0  0  3  0  0  0  0  0  0
  186.2190  178.0990  142.6420 C   0  0  1  0  0  3  0  0  0  0  0  0
  183.9010  179.0090  141.2690 S   0  0  0  0  0  0  0  0  0  0  0  0
  182.8310  178.5160  142.6650 C   0  0  0  0  0  2  0  0  0  0  0  0
  185.5060  179.0710  145.8250 S   0  0  0  0  0  0  0  0  0  0  0  0
  190.4260  177.3050  140.2890 C   0  0  1  0  0  3  0  0  0  0  0  0
  189.8940  177.2990  137.0540 C   0  0  0  0  0  2  0  0  0  0  0  0
  187.1470  178.5710  141.5270 C   0  0  0  0  0  2  0  0  0  0  0  0
  186.1740  177.6810  145.0330 O   0  0  0  0  0  0  0  0  0  0  0  0
  189.0870  178.0490  140.2510 C   0  0  2  0  0  3  0  0  0  0  0  0
  192.6940  177.0360  139.7380 C   0  0  0  0  0  2  0  0  0  0  0  0
  186.9690  178.1820  143.9880 C   0  0  1  0  0  3  0  0  0  0  0  0
  183.8830  179.0540  144.9480 C   0  0  0  0  0  2  0  0  0  0  0  0
  190.9250  176.6040  137.9560 C   0  0  2  0  0  3  0  0  0  0  0  0
  189.0970  177.8930  142.6880 C   0  0  2  0  0  3  0  0  0  0  0  0
  184.9890  178.9900  142.7260 C   0  0  1  0  0  3  0  0  0  0  0  0
  188.3100  177.6840  141.4520 N   0  0  1  0  0  0  0  0  0  0  0  0
  190.4470  176.9500  145.1170 C   0  0  0  0  0  2  0  0  0  0  0  0
  188.9330  178.2610  137.7580 C   0  0  0  0  0  2  0  0  0  0  0  0
  189.1040  177.6680  145.1900 C   0  0  0  0  0  2  0  0  0  0  0  0
  188.3050  177.6440  138.9970 C   0  0  0  0  0  2  0  0  0  0  0  0
  191.3740  177.4870  139.1260 C   0  0  1  0  0  3  0  0  0  0  0  0
  191.2370  177.4450  143.9110 C   0  0  0  0  0  2  0  0  0  0  0  0
  191.1810  177.6860  141.4640 N   0  0  1  0  0  0  0  0  0  0  0  0
  192.0150  176.2150  137.1710 O   0  0  0  0  0  0  0  0  0  0  0  0
  192.0260  174.8190  137.2420 C   0  0  0  0  0  2  0  0  0  0  0  0
  195.1800  175.6110  137.3470 O   0  0  0  0  0  0  0  0  0  0  0  0
  194.0880  173.5600  137.7590 C   0  0  0  0  0  2  0  0  0  0  0  0
  193.3320  174.2830  136.6830 C   0  0  2  0  0  3  0  0  0  0  0  0
  195.3820  174.3280  137.8760 C   0  0  0  0  0  2  0  0  0  0  0  0
  194.2370  175.4400  136.3230 C   0  0  0  0  0  2  0  0  0  0  0  0
  1 18  1  0  0  0  0
  1 26  1  1  0  0  0
  2 27  1  0  0  0  0
  3  7  1  6  0  0  0
  3 16  1  0  0  0  0
  4 15  1  0  0  0  0
  4 23  1  1  0  0  0
  5 11  1  6  0  0  0
  5 19  1  0  0  0  0
  5 15  1  0  0  0  0
  6  7  1  0  0  0  0
  6 19  1  0  0  0  0
  9 27  1  0  0  0  0
 10 22  1  0  0  0  0
 10 17  1  0  0  0  0
 12  8  1  0  0  0  0
 13  9  1  0  0  0  0
 13 20  1  0  0  0  0
 14  2  1  0  0  0  0
 15 12  1  0  0  0  0
 16  8  1  0  0  0  0
 17 25  1  0  0  0  0
 18  4  1  0  0  0  0
 19  3  1  0  0  0  0
 20 11  1  0  0  0  0
 20 18  1  0  0  0  0
 21 23  1  0  0  0  0
 22 24  1  0  0  0  0
 24 13  1  0  0  0  0
 25 14  1  0  0  0  0
 25  9  1  0  0  0  0
 26 21  1  0  0  0  0
 27  1  1  0  0  0  0
 28 29  1  0  0  0  0
 28 17  1  0  0  0  0
 30 33  1  0  0  0  0
 31 33  1  0  0  0  0
 32 29  1  0  0  0  0
 32 31  1  0  0  0  0
 34 32  1  0  0  0  0
 34 30  1  0  0  0  0
M  END
>  <MODEL>
2

>  <REMARK>
 VINA RESULT:      -9.2      1.116      1.320
  Name = 
  3 active torsions:
  status: ('A' for Active; 'I' for Inactive)
    1  A    between atoms: C_17  and  O_28
    2  A    between atoms: O_28  and  C_29
    3  A    between atoms: C_29  and  C_32
                            x       y       z     vdW  Elec       q    Type
                         _______ _______ _______ _____ _____    ______ ____

>  <TORSDO>
F 3

$$$$
=
 OpenBabel11122412153D

 34 41  0  0  1  0  0  0  0  0999 V2000
  187.0020  177.9560  140.4240 C   0  0  2  0  0  3  0  0  0  0  0  0
  185.2970  178.6830  138.8610 C   0  0  0  0  0  2  0  0  0  0  0  0
  189.3830  176.7750  146.5240 C   0  0  2  0  0  3  0  0  0  0  0  0
  188.6820  177.2720  142.1930 C   0  0  1  0  0  3  0  0  0  0  0  0
  187.9970  177.4580  144.6190 C   0  0  1  0  0  3  0  0  0  0  0  0
  187.3160  177.7990  147.3590 S   0  0  0  0  0  0  0  0  0  0  0  0
  188.7190  176.7530  147.8800 C   0  0  0  0  0  2  0  0  0  0  0  0
  191.3950  177.5780  144.7800 S   0  0  0  0  0  0  0  0  0  0  0  0
  184.8150  178.4810  141.0560 C   0  0  1  0  0  3  0  0  0  0  0  0
  181.8190  178.8680  142.3330 C   0  0  0  0  0  2  0  0  0  0  0  0
  186.8810  178.3890  144.1560 C   0  0  0  0  0  2  0  0  0  0  0  0
  190.1870  176.6370  143.9670 O   0  0  0  0  0  0  0  0  0  0  0  0
  185.1940  178.7500  142.5170 C   0  0  2  0  0  3  0  0  0  0  0  0
  183.8220  179.0550  139.0050 C   0  0  0  0  0  2  0  0  0  0  0  0
  189.1680  177.5410  143.6180 C   0  0  1  0  0  3  0  0  0  0  0  0
  190.8410  177.1930  146.4980 C   0  0  0  0  0  2  0  0  0  0  0  0
  182.3310  178.3950  140.9640 C   0  0  2  0  0  3  0  0  0  0  0  0
  187.4810  178.1820  141.8750 C   0  0  2  0  0  3  0  0  0  0  0  0
  188.5090  177.8770  145.9880 C   0  0  1  0  0  3  0  0  0  0  0  0
  186.3910  177.9510  142.8480 N   0  0  1  0  0  0  0  0  0  0  0  0
  189.3340  177.3150  139.7710 C   0  0  0  0  0  2  0  0  0  0  0  0
  182.8930  179.3320  143.3220 C   0  0  0  0  0  2  0  0  0  0  0  0
  189.8140  177.5390  141.2000 C   0  0  0  0  0  2  0  0  0  0  0  0
  184.0390  178.3400  143.4360 C   0  0  0  0  0  2  0  0  0  0  0  0
  183.5810  179.1570  140.5060 C   0  0  1  0  0  3  0  0  0  0  0  0
  188.1620  178.2400  139.4640 C   0  0  0  0  0  2  0  0  0  0  0  0
  185.8940  178.8730  140.1750 N   0  0  1  0  0  0  0  0  0  0  0  0
  181.2950  178.5200  140.0320 O   0  0  0  0  0  0  0  0  0  0  0  0
  180.5250  179.5900  140.4960 C   0  0  0  0  0  2  0  0  0  0  0  0
  181.4170  181.5040  138.0210 O   0  0  0  0  0  0  0  0  0  0  0  0
  180.1210  179.5330  138.0590 C   0  0  0  0  0  2  0  0  0  0  0  0
  179.8560  180.2910  139.3270 C   0  0  2  0  0  3  0  0  0  0  0  0
  180.8600  180.5210  137.1910 C   0  0  0  0  0  2  0  0  0  0  0  0
  180.5220  181.6280  139.0940 C   0  0  0  0  0  2  0  0  0  0  0  0
  1 26  1  6  0  0  0
  1 18  1  0  0  0  0
  2 14  1  0  0  0  0
  2 27  1  0  0  0  0
  3 16  1  1  0  0  0
  3  7  1  0  0  0  0
  4 23  1  6  0  0  0
  4 15  1  0  0  0  0
  5 11  1  6  0  0  0
  5 19  1  0  0  0  0
  6  7  1  0  0  0  0
  8 16  1  0  0  0  0
  9 13  1  0  0  0  0
 10 22  1  0  0  0  0
 12  8  1  0  0  0  0
 13 20  1  0  0  0  0
 13 24  1  0  0  0  0
 14 25  1  0  0  0  0
 15 12  1  0  0  0  0
 15  5  1  0  0  0  0
 17 10  1  0  0  0  0
 18  4  1  0  0  0  0
 18 20  1  0  0  0  0
 19  3  1  0  0  0  0
 19  6  1  0  0  0  0
 20 11  1  0  0  0  0
 21 23  1  0  0  0  0
 22 24  1  0  0  0  0
 25 17  1  0  0  0  0
 25  9  1  0  0  0  0
 26 21  1  0  0  0  0
 27  1  1  0  0  0  0
 27  9  1  0  0  0  0
 28 29  1  0  0  0  0
 28 17  1  0  0  0  0
 30 34  1  0  0  0  0
 31 32  1  0  0  0  0
 32 29  1  0  0  0  0
 33 30  1  0  0  0  0
 33 31  1  0  0  0  0
 34 32  1  0  0  0  0
M  END
>  <MODEL>
3

>  <REMARK>
 VINA RESULT:      -9.2      3.734      8.755
  Name = 
  3 active torsions:
  status: ('A' for Active; 'I' for Inactive)
    1  A    between atoms: C_17  and  O_28
    2  A    between atoms: O_28  and  C_29
    3  A    between atoms: C_29  and  C_32
                            x       y       z     vdW  Elec       q    Type
                         _______ _______ _______ _____ _____    ______ ____

>  <TORSDO>
F 3

$$$$
=
 OpenBabel11122412153D

 34 41  0  0  1  0  0  0  0  0999 V2000
  186.8750  177.9900  140.4380 C   0  0  2  0  0  3  0  0  0  0  0  0
  185.0560  178.7530  139.0290 C   0  0  0  0  0  2  0  0  0  0  0  0
  189.7520  176.7530  146.3100 C   0  0  2  0  0  3  0  0  0  0  0  0
  188.6880  177.2700  142.0560 C   0  0  1  0  0  3  0  0  0  0  0  0
  188.2200  177.4660  144.5320 C   0  0  1  0  0  3  0  0  0  0  0  0
  187.7850  177.8170  147.3210 S   0  0  0  0  0  0  0  0  0  0  0  0
  189.2070  176.7420  147.7190 C   0  0  0  0  0  2  0  0  0  0  0  0
  191.6200  177.5180  144.3980 S   0  0  0  0  0  0  0  0  0  0  0  0
  184.7620  178.5570  141.2580 C   0  0  1  0  0  3  0  0  0  0  0  0
  181.8970  179.0030  142.7890 C   0  0  0  0  0  2  0  0  0  0  0  0
  187.0870  178.4200  144.1670 C   0  0  0  0  0  2  0  0  0  0  0  0
  190.3280  176.6030  143.6930 O   0  0  0  0  0  0  0  0  0  0  0  0
  185.2720  178.8170  142.6800 C   0  0  2  0  0  3  0  0  0  0  0  0
  183.6070  179.1550  139.3000 C   0  0  0  0  0  2  0  0  0  0  0  0
  189.3010  177.5280  143.4340 C   0  0  1  0  0  3  0  0  0  0  0  0
  191.2090  177.1420  146.1570 C   0  0  0  0  0  2  0  0  0  0  0  0
  182.2780  178.5220  141.3810 C   0  0  2  0  0  3  0  0  0  0  0  0
  187.4820  178.2050  141.8420 C   0  0  2  0  0  3  0  0  0  0  0  0
  188.8560  177.8730  145.8520 C   0  0  1  0  0  3  0  0  0  0  0  0
  186.4760  177.9940  142.9060 N   0  0  1  0  0  0  0  0  0  0  0  0
  189.1290  177.3040  139.5860 C   0  0  0  0  0  2  0  0  0  0  0  0
  183.0610  179.4440  143.6810 C   0  0  0  0  0  2  0  0  0  0  0  0
  189.7350  177.5160  140.9680 C   0  0  0  0  0  2  0  0  0  0  0  0
  184.1920  178.4290  143.6960 C   0  0  0  0  0  2  0  0  0  0  0  0
  183.4990  179.2590  140.8160 C   0  0  1  0  0  3  0  0  0  0  0  0
  187.9530  178.2530  139.3810 C   0  0  0  0  0  2  0  0  0  0  0  0
  185.7680  178.9290  140.2860 N   0  0  1  0  0  0  0  0  0  0  0  0
  181.1690  178.6690  140.5420 O   0  0  0  0  0  0  0  0  0  0  0  0
  180.1160  178.0620  141.2330 C   0  0  0  0  0  2  0  0  0  0  0  0
  180.8850  175.6290  139.2160 O   0  0  0  0  0  0  0  0  0  0  0  0
  179.3050  175.7430  140.9640 C   0  0  0  0  0  2  0  0  0  0  0  0
  179.3860  177.0950  140.3180 C   0  0  2  0  0  3  0  0  0  0  0  0
  180.0420  174.8380  140.0080 C   0  0  0  0  0  2  0  0  0  0  0  0
  180.2160  176.8530  139.0780 C   0  0  0  0  0  2  0  0  0  0  0  0
  1 26  1  6  0  0  0
  1 18  1  0  0  0  0
  2 14  1  0  0  0  0
  2 27  1  0  0  0  0
  3 16  1  1  0  0  0
  3  7  1  0  0  0  0
  4 23  1  6  0  0  0
  4 15  1  0  0  0  0
  5 11  1  6  0  0  0
  5 19  1  0  0  0  0
  6  7  1  0  0  0  0
  8 16  1  0  0  0  0
  9 13  1  0  0  0  0
 10 22  1  0  0  0  0
 12  8  1  0  0  0  0
 13 20  1  0  0  0  0
 13 24  1  0  0  0  0
 14 25  1  0  0  0  0
 15 12  1  0  0  0  0
 15  5  1  0  0  0  0
 17 10  1  0  0  0  0
 18  4  1  0  0  0  0
 18 20  1  0  0  0  0
 19  3  1  0  0  0  0
 19  6  1  0  0  0  0
 20 11  1  0  0  0  0
 21 23  1  0  0  0  0
 22 24  1  0  0  0  0
 25  9  1  0  0  0  0
 25 17  1  0  0  0  0
 26 21  1  0  0  0  0
 27  1  1  0  0  0  0
 27  9  1  0  0  0  0
 28 29  1  0  0  0  0
 28 17  1  0  0  0  0
 30 33  1  0  0  0  0
 32 31  1  0  0  0  0
 32 29  1  0  0  0  0
 33 31  1  0  0  0  0
 34 30  1  0  0  0  0
 34 32  1  0  0  0  0
M  END
>  <MODEL>
4

>  <REMARK>
 VINA RESULT:      -8.9      3.732      8.798
  Name = 
  3 active torsions:
  status: ('A' for Active; 'I' for Inactive)
    1  A    between atoms: C_17  and  O_28
    2  A    between atoms: O_28  and  C_29
    3  A    between atoms: C_29  and  C_32
                            x       y       z     vdW  Elec       q    Type
                         _______ _______ _______ _____ _____    ______ ____

>  <TORSDO>
F 3

$$$$
=
 OpenBabel11122412153D

 34 41  0  0  1  0  0  0  0  0999 V2000
  184.6550  178.6860  144.5570 C   0  0  2  0  0  3  0  0  0  0  0  0
  182.3690  178.9170  143.7810 C   0  0  0  0  0  2  0  0  0  0  0  0
  191.1670  177.6300  143.6850 C   0  0  2  0  0  3  0  0  0  0  0  0
  187.0870  178.3770  145.1990 C   0  0  1  0  0  3  0  0  0  0  0  0
  188.7480  177.8770  143.3600 C   0  0  1  0  0  3  0  0  0  0  0  0
  190.6170  177.1600  141.3400 S   0  0  0  0  0  0  0  0  0  0  0  0
  192.0200  177.5560  142.4400 C   0  0  0  0  0  2  0  0  0  0  0  0
  190.2900  176.6430  146.1320 S   0  0  0  0  0  0  0  0  0  0  0  0
  184.0620  178.7600  142.2980 C   0  0  1  0  0  3  0  0  0  0  0  0
  183.7090  179.0730  139.0530 C   0  0  0  0  0  2  0  0  0  0  0  0
  187.5570  177.4810  142.4930 C   0  0  0  0  0  2  0  0  0  0  0  0
  189.4300  178.0790  145.6810 O   0  0  0  0  0  0  0  0  0  0  0  0
  185.3450  178.0610  141.8340 C   0  0  2  0  0  3  0  0  0  0  0  0
  181.7280  179.0130  142.3980 C   0  0  0  0  0  2  0  0  0  0  0  0
  188.3860  177.6520  144.8430 C   0  0  1  0  0  3  0  0  0  0  0  0
  191.6190  176.7850  144.8600 C   0  0  0  0  0  2  0  0  0  0  0  0
  182.9550  179.6540  140.2580 C   0  0  2  0  0  3  0  0  0  0  0  0
  185.9870  177.9970  144.1890 C   0  0  2  0  0  3  0  0  0  0  0  0
  189.9580  177.0170  143.0290 C   0  0  1  0  0  3  0  0  0  0  0  0
  186.4130  178.3370  142.8140 N   0  0  1  0  0  0  0  0  0  0  0  0
  185.3340  178.6780  146.9680 C   0  0  0  0  0  2  0  0  0  0  0  0
  184.8260  178.0780  139.3810 C   0  0  0  0  0  2  0  0  0  0  0  0
  186.6490  177.9950  146.6130 C   0  0  0  0  0  2  0  0  0  0  0  0
  185.7610  178.5980  140.4610 C   0  0  0  0  0  2  0  0  0  0  0  0
  182.8380  178.6570  141.4170 C   0  0  1  0  0  3  0  0  0  0  0  0
  184.2500  178.2720  145.9750 C   0  0  0  0  0  2  0  0  0  0  0  0
  183.6510  178.2540  143.5900 N   0  0  1  0  0  0  0  0  0  0  0  0
  181.6930  180.0810  139.8320 O   0  0  0  0  0  0  0  0  0  0  0  0
  181.7790  180.1140  138.4380 C   0  0  0  0  0  2  0  0  0  0  0  0
  180.5630  183.0950  137.9660 O   0  0  0  0  0  0  0  0  0  0  0  0
  180.8010  181.2730  136.4860 C   0  0  0  0  0  2  0  0  0  0  0  0
  180.5180  180.7280  137.8560 C   0  0  2  0  0  3  0  0  0  0  0  0
  180.4990  182.7460  136.6100 C   0  0  0  0  0  2  0  0  0  0  0  0
  180.1380  181.9520  138.6590 C   0  0  0  0  0  2  0  0  0  0  0  0
  1 26  1  1  0  0  0
  3  7  1  6  0  0  0
  3 16  1  0  0  0  0
  4 23  1  1  0  0  0
  5 11  1  6  0  0  0
  5 15  1  0  0  0  0
  6  7  1  0  0  0  0
  6 19  1  0  0  0  0
  9 27  1  0  0  0  0
 10 22  1  0  0  0  0
 10 17  1  0  0  0  0
 11 20  1  0  0  0  0
 12  8  1  0  0  0  0
 13  9  1  0  0  0  0
 13 20  1  0  0  0  0
 14  2  1  0  0  0  0
 15  4  1  0  0  0  0
 15 12  1  0  0  0  0
 16  8  1  0  0  0  0
 17 25  1  0  0  0  0
 18  1  1  0  0  0  0
 18  4  1  0  0  0  0
 19  5  1  0  0  0  0
 19  3  1  0  0  0  0
 20 18  1  0  0  0  0
 22 24  1  0  0  0  0
 23 21  1  0  0  0  0
 24 13  1  0  0  0  0
 25  9  1  0  0  0  0
 25 14  1  0  0  0  0
 26 21  1  0  0  0  0
 27  2  1  0  0  0  0
 27  1  1  0  0  0  0
 28 17  1  0  0  0  0
 29 28  1  0  0  0  0
 30 34  1  0  0  0  0
 31 33  1  0  0  0  0
 31 32  1  0  0  0  0
 32 29  1  0  0  0  0
 32 34  1  0  0  0  0
 33 30  1  0  0  0  0
M  END
>  <MODEL>
5

>  <REMARK>
 VINA RESULT:      -8.7      4.321      8.737
  Name = 
  3 active torsions:
  status: ('A' for Active; 'I' for Inactive)
    1  A    between atoms: C_17  and  O_28
    2  A    between atoms: O_28  and  C_29
    3  A    between atoms: C_29  and  C_32
                            x       y       z     vdW  Elec       q    Type
                         _______ _______ _______ _____ _____    ______ ____

>  <TORSDO>
F 3

$$$$
=
 OpenBabel11122412153D

 34 41  0  0  1  0  0  0  0  0999 V2000
  184.6920  178.7110  144.5660 C   0  0  2  0  0  3  0  0  0  0  0  0
  182.3940  178.9320  143.8250 C   0  0  0  0  0  2  0  0  0  0  0  0
  191.1880  177.6350  143.6040 C   0  0  2  0  0  3  0  0  0  0  0  0
  187.1340  178.4110  145.1730 C   0  0  1  0  0  3  0  0  0  0  0  0
  188.7640  177.8780  143.3150 C   0  0  1  0  0  3  0  0  0  0  0  0
  190.5990  177.1260  141.2770 S   0  0  0  0  0  0  0  0  0  0  0  0
  192.0200  177.5390  142.3470 C   0  0  0  0  0  2  0  0  0  0  0  0
  190.3510  176.6890  146.0820 S   0  0  0  0  0  0  0  0  0  0  0  0
  184.0620  178.7490  142.3160 C   0  0  1  0  0  3  0  0  0  0  0  0
  183.6550  179.0080  139.0730 C   0  0  0  0  0  2  0  0  0  0  0  0
  187.5590  177.4700  142.4750 C   0  0  0  0  0  2  0  0  0  0  0  0
  189.4850  178.1180  145.6210 O   0  0  0  0  0  0  0  0  0  0  0  0
  185.3360  178.0400  141.8430 C   0  0  2  0  0  3  0  0  0  0  0  0
  181.7300  179.0050  142.4510 C   0  0  0  0  0  2  0  0  0  0  0  0
  188.4260  177.6780  144.8070 C   0  0  1  0  0  3  0  0  0  0  0  0
  191.6590  176.8090  144.7850 C   0  0  0  0  0  2  0  0  0  0  0  0
  182.9210  179.6090  140.2810 C   0  0  2  0  0  3  0  0  0  0  0  0
  186.0170  178.0150  144.1880 C   0  0  2  0  0  3  0  0  0  0  0  0
  189.9680  177.0130  142.9790 C   0  0  1  0  0  3  0  0  0  0  0  0
  186.4210  178.3320  142.8010 N   0  0  1  0  0  0  0  0  0  0  0  0
  185.4100  178.7430  146.9650 C   0  0  0  0  0  2  0  0  0  0  0  0
  184.7770  178.0180  139.3990 C   0  0  0  0  0  2  0  0  0  0  0  0
  186.7190  178.0520  146.6000 C   0  0  0  0  0  2  0  0  0  0  0  0
  185.7300  178.5550  140.4550 C   0  0  0  0  0  2  0  0  0  0  0  0
  182.8230  178.6320  141.4580 C   0  0  1  0  0  3  0  0  0  0  0  0
  184.3110  178.3210  145.9970 C   0  0  0  0  0  2  0  0  0  0  0  0
  183.6710  178.2640  143.6230 N   0  0  1  0  0  0  0  0  0  0  0  0
  181.6530  180.0310  139.8690 O   0  0  0  0  0  0  0  0  0  0  0  0
  181.4780  179.4560  138.6070 C   0  0  0  0  0  2  0  0  0  0  0  0
  179.8940  177.0290  140.0850 O   0  0  0  0  0  0  0  0  0  0  0  0
  179.2530  179.2600  139.6640 C   0  0  0  0  0  2  0  0  0  0  0  0
  180.1120  178.7980  138.5230 C   0  0  2  0  0  3  0  0  0  0  0  0
  178.9310  177.9920  140.4150 C   0  0  0  0  0  2  0  0  0  0  0  0
  180.2550  177.3110  138.7590 C   0  0  0  0  0  2  0  0  0  0  0  0
  1 26  1  1  0  0  0
  3  7  1  6  0  0  0
  3 16  1  0  0  0  0
  4 23  1  1  0  0  0
  5 11  1  6  0  0  0
  5 15  1  0  0  0  0
  6  7  1  0  0  0  0
  6 19  1  0  0  0  0
  9 27  1  0  0  0  0
 10 22  1  0  0  0  0
 10 17  1  0  0  0  0
 11 20  1  0  0  0  0
 12  8  1  0  0  0  0
 13  9  1  0  0  0  0
 13 20  1  0  0  0  0
 14  2  1  0  0  0  0
 15  4  1  0  0  0  0
 15 12  1  0  0  0  0
 16  8  1  0  0  0  0
 17 25  1  0  0  0  0
 18  1  1  0  0  0  0
 18  4  1  0  0  0  0
 19  5  1  0  0  0  0
 19  3  1  0  0  0  0
 20 18  1  0  0  0  0
 22 24  1  0  0  0  0
 23 21  1  0  0  0  0
 24 13  1  0  0  0  0
 25  9  1  0  0  0  0
 25 14  1  0  0  0  0
 26 21  1  0  0  0  0
 27  2  1  0  0  0  0
 27  1  1  0  0  0  0
 28 17  1  0  0  0  0
 29 28  1  0  0  0  0
 30 33  1  0  0  0  0
 31 33  1  0  0  0  0
 32 29  1  0  0  0  0
 32 34  1  0  0  0  0
 32 31  1  0  0  0  0
 34 30  1  0  0  0  0
M  END
>  <MODEL>
6

>  <REMARK>
 VINA RESULT:      -8.6      4.287      8.671
  Name = 
  3 active torsions:
  status: ('A' for Active; 'I' for Inactive)
    1  A    between atoms: C_17  and  O_28
    2  A    between atoms: O_28  and  C_29
    3  A    between atoms: C_29  and  C_32
                            x       y       z     vdW  Elec       q    Type
                         _______ _______ _______ _____ _____    ______ ____

>  <TORSDO>
F 3

$$$$
=
 OpenBabel11122412153D

 34 41  0  0  1  0  0  0  0  0999 V2000
  188.5140  177.1450  138.6290 C   0  0  2  0  0  3  0  0  0  0  0  0
  187.1270  178.3470  140.2130 C   0  0  0  0  0  2  0  0  0  0  0  0
  194.1090  174.0850  136.7280 C   0  0  2  0  0  3  0  0  0  0  0  0
  190.1080  175.9190  137.0880 C   0  0  1  0  0  3  0  0  0  0  0  0
  192.4090  175.3470  137.9660 C   0  0  1  0  0  3  0  0  0  0  0  0
  195.0560  174.8270  138.8670 S   0  0  0  0  0  0  0  0  0  0  0  0
  195.3330  173.6500  137.4980 C   0  0  0  0  0  2  0  0  0  0  0  0
  192.8670  175.3630  134.5940 S   0  0  0  0  0  0  0  0  0  0  0  0
  189.1040  177.4770  140.8650 C   0  0  1  0  0  3  0  0  0  0  0  0
  190.1970  177.4900  143.9570 C   0  0  0  0  0  2  0  0  0  0  0  0
  192.1740  176.3930  139.0520 C   0  0  0  0  0  2  0  0  0  0  0  0
  191.7090  174.7400  135.7220 O   0  0  0  0  0  0  0  0  0  0  0  0
  190.6010  177.2710  140.6070 C   0  0  2  0  0  3  0  0  0  0  0  0
  187.2630  178.6770  141.6980 C   0  0  0  0  0  2  0  0  0  0  0  0
  191.5800  175.7230  136.7200 C   0  0  1  0  0  3  0  0  0  0  0  0
  194.3290  174.4690  135.2780 C   0  0  0  0  0  2  0  0  0  0  0  0
  188.7930  177.4610  143.3330 C   0  0  2  0  0  3  0  0  0  0  0  0
  189.9960  176.9000  138.2700 C   0  0  2  0  0  3  0  0  0  0  0  0
  193.8770  175.3110  137.5700 C   0  0  1  0  0  3  0  0  0  0  0  0
  190.7590  176.3930  139.4320 N   0  0  1  0  0  0  0  0  0  0  0  0
  187.8800  176.7060  136.2460 C   0  0  0  0  0  2  0  0  0  0  0  0
  191.3630  177.6070  142.9710 C   0  0  0  0  0  2  0  0  0  0  0  0
  189.3410  176.4660  135.8840 C   0  0  0  0  0  2  0  0  0  0  0  0
  191.2520  176.6130  141.8270 C   0  0  0  0  0  2  0  0  0  0  0  0
  188.6970  178.3090  142.0600 C   0  0  1  0  0  3  0  0  0  0  0  0
  187.7860  177.6980  137.4000 C   0  0  0  0  0  2  0  0  0  0  0  0
  188.4770  178.1090  139.7240 N   0  0  1  0  0  0  0  0  0  0  0  0
  187.8690  177.8850  144.2930 O   0  0  0  0  0  0  0  0  0  0  0  0
  188.4610  177.5770  145.5200 C   0  0  0  0  0  2  0  0  0  0  0  0
  186.5390  179.2210  147.5670 O   0  0  0  0  0  0  0  0  0  0  0  0
  186.0320  177.5550  145.9750 C   0  0  0  0  0  2  0  0  0  0  0  0
  187.3880  177.2580  146.5460 C   0  0  2  0  0  3  0  0  0  0  0  0
  185.4710  178.6090  146.8970 C   0  0  0  0  0  2  0  0  0  0  0  0
  187.5060  178.2150  147.7110 C   0  0  0  0  0  2  0  0  0  0  0  0
  1 26  1  6  0  0  0
  1 27  1  0  0  0  0
  2 14  1  0  0  0  0
  3 16  1  6  0  0  0
  3  7  1  0  0  0  0
  3 19  1  0  0  0  0
  4 23  1  6  0  0  0
  4 18  1  0  0  0  0
  5 11  1  1  0  0  0
  7  6  1  0  0  0  0
  8 16  1  0  0  0  0
  8 12  1  0  0  0  0
  9 25  1  0  0  0  0
 11 20  1  0  0  0  0
 12 15  1  0  0  0  0
 13  9  1  0  0  0  0
 13 24  1  0  0  0  0
 14 25  1  0  0  0  0
 15  4  1  0  0  0  0
 15  5  1  0  0  0  0
 17 10  1  0  0  0  0
 17 28  1  0  0  0  0
 18  1  1  0  0  0  0
 18 20  1  0  0  0  0
 19  5  1  0  0  0  0
 19  6  1  0  0  0  0
 20 13  1  0  0  0  0
 21 26  1  0  0  0  0
 22 10  1  0  0  0  0
 23 21  1  0  0  0  0
 24 22  1  0  0  0  0
 25 17  1  0  0  0  0
 27  2  1  0  0  0  0
 27  9  1  0  0  0  0
 28 29  1  0  0  0  0
 29 32  1  0  0  0  0
 30 34  1  0  0  0  0
 31 32  1  0  0  0  0
 31 33  1  0  0  0  0
 32 34  1  0  0  0  0
 33 30  1  0  0  0  0
M  END
>  <MODEL>
7

>  <REMARK>
 VINA RESULT:      -8.4      3.759      9.454
  Name = 
  3 active torsions:
  status: ('A' for Active; 'I' for Inactive)
    1  A    between atoms: C_17  and  O_28
    2  A    between atoms: O_28  and  C_29
    3  A    between atoms: C_29  and  C_32
                            x       y       z     vdW  Elec       q    Type
                         _______ _______ _______ _____ _____    ______ ____

>  <TORSDO>
F 3

$$$$
=
 OpenBabel11122412153D

 34 41  0  0  1  0  0  0  0  0999 V2000
  185.8150  178.7450  141.7960 C   0  0  2  0  0  3  0  0  0  0  0  0
  185.2620  178.7530  139.4350 C   0  0  0  0  0  2  0  0  0  0  0  0
  189.8050  177.5240  146.9790 C   0  0  2  0  0  3  0  0  0  0  0  0
  186.5380  178.6280  144.2210 C   0  0  1  0  0  3  0  0  0  0  0  0
  188.8180  177.6660  144.7380 C   0  0  1  0  0  3  0  0  0  0  0  0
  191.3100  176.4490  145.3660 S   0  0  0  0  0  0  0  0  0  0  0  0
  191.2600  177.1280  147.0610 C   0  0  0  0  0  2  0  0  0  0  0  0
  187.1260  177.2160  147.6570 S   0  0  0  0  0  0  0  0  0  0  0  0
  187.3460  178.2170  140.1120 C   0  0  1  0  0  3  0  0  0  0  0  0
  189.8610  177.6590  138.0830 C   0  0  0  0  0  2  0  0  0  0  0  0
  188.7930  177.0510  143.3420 C   0  0  0  0  0  2  0  0  0  0  0  0
  187.3450  178.4770  146.4890 O   0  0  0  0  0  0  0  0  0  0  0  0
  188.2610  177.4250  141.0530 C   0  0  2  0  0  3  0  0  0  0  0  0
  186.0610  178.4780  138.1630 C   0  0  0  0  0  2  0  0  0  0  0  0
  187.3680  177.8390  145.2360 C   0  0  1  0  0  3  0  0  0  0  0  0
  188.9090  177.0220  148.0940 C   0  0  0  0  0  2  0  0  0  0  0  0
  188.6020  178.5350  137.9890 C   0  0  2  0  0  3  0  0  0  0  0  0
  186.6800  177.9890  142.8270 C   0  0  2  0  0  3  0  0  0  0  0  0
  189.5510  176.7550  145.7100 C   0  0  1  0  0  3  0  0  0  0  0  0
  188.1030  177.9560  142.4210 N   0  0  1  0  0  0  0  0  0  0  0  0
  184.2200  179.3780  143.6210 C   0  0  0  0  0  2  0  0  0  0  0  0
  189.9780  176.7920  139.3400 C   0  0  0  0  0  2  0  0  0  0  0  0
  185.0680  178.6300  144.6440 C   0  0  0  0  0  2  0  0  0  0  0  0
  189.7200  177.5830  140.6120 C   0  0  0  0  0  2  0  0  0  0  0  0
  187.3780  177.8800  138.6390 C   0  0  1  0  0  3  0  0  0  0  0  0
  184.3530  178.7180  142.2530 C   0  0  0  0  0  2  0  0  0  0  0  0
  185.9630  178.0680  140.5110 N   0  0  1  0  0  0  0  0  0  0  0  0
  188.3610  178.8290  136.6430 O   0  0  0  0  0  0  0  0  0  0  0  0
  189.0980  177.8780  135.9330 C   0  0  0  0  0  2  0  0  0  0  0  0
  186.4420  176.0370  135.5570 O   0  0  0  0  0  0  0  0  0  0  0  0
  187.0070  178.1360  134.6410 C   0  0  0  0  0  2  0  0  0  0  0  0
  188.2680  177.3340  134.7830 C   0  0  2  0  0  3  0  0  0  0  0  0
  185.9070  177.1270  134.8580 C   0  0  0  0  0  2  0  0  0  0  0  0
  187.7750  175.9480  135.1310 C   0  0  0  0  0  2  0  0  0  0  0  0
  1 26  1  1  0  0  0
  1 18  1  0  0  0  0
  2 27  1  0  0  0  0
  3  7  1  1  0  0  0
  3 16  1  0  0  0  0
  4 23  1  1  0  0  0
  4 15  1  0  0  0  0
  5 11  1  6  0  0  0
  5 15  1  0  0  0  0
  5 19  1  0  0  0  0
  6 19  1  0  0  0  0
  6  7  1  0  0  0  0
  8 16  1  0  0  0  0
  9 27  1  0  0  0  0
  9 13  1  0  0  0  0
 10 22  1  0  0  0  0
 12  8  1  0  0  0  0
 13 20  1  0  0  0  0
 14 25  1  0  0  0  0
 14  2  1  0  0  0  0
 15 12  1  0  0  0  0
 17 10  1  0  0  0  0
 17 25  1  0  0  0  0
 18  4  1  0  0  0  0
 19  3  1  0  0  0  0
 20 18  1  0  0  0  0
 20 11  1  0  0  0  0
 21 23  1  0  0  0  0
 22 24  1  0  0  0  0
 24 13  1  0  0  0  0
 25  9  1  0  0  0  0
 26 21  1  0  0  0  0
 27  1  1  0  0  0  0
 28 17  1  0  0  0  0
 29 28  1  0  0  0  0
 31 32  1  0  0  0  0
 31 33  1  0  0  0  0
 32 34  1  0  0  0  0
 32 29  1  0  0  0  0
 33 30  1  0  0  0  0
 34 30  1  0  0  0  0
M  END
>  <MODEL>
8

>  <REMARK>
 VINA RESULT:      -8.3      3.311      5.764
  Name = 
  3 active torsions:
  status: ('A' for Active; 'I' for Inactive)
    1  A    between atoms: C_17  and  O_28
    2  A    between atoms: O_28  and  C_29
    3  A    between atoms: C_29  and  C_32
                            x       y       z     vdW  Elec       q    Type
                         _______ _______ _______ _____ _____    ______ ____

>  <TORSDO>
F 3

$$$$
=
 OpenBabel11122412153D

 34 41  0  0  1  0  0  0  0  0999 V2000
  190.2890  176.8570  141.7930 C   0  0  2  0  0  3  0  0  0  0  0  0
  191.6370  176.7500  139.7810 C   0  0  0  0  0  2  0  0  0  0  0  0
  184.7330  178.2540  145.1780 C   0  0  2  0  0  3  0  0  0  0  0  0
  188.7590  177.0740  143.8010 C   0  0  1  0  0  3  0  0  0  0  0  0
  186.4450  178.0250  143.4370 C   0  0  1  0  0  3  0  0  0  0  0  0
  183.8940  179.2340  143.0900 S   0  0  0  0  0  0  0  0  0  0  0  0
  183.3430  178.6330  144.7240 C   0  0  0  0  0  2  0  0  0  0  0  0
  187.0030  178.6320  146.7390 S   0  0  0  0  0  0  0  0  0  0  0  0
  189.4480  177.2860  139.6560 C   0  0  1  0  0  3  0  0  0  0  0  0
  187.8100  177.7140  136.8470 C   0  0  0  0  0  2  0  0  0  0  0  0
  186.9610  178.5770  142.1120 C   0  0  0  0  0  2  0  0  0  0  0  0
  187.2060  177.3160  145.6300 O   0  0  0  0  0  0  0  0  0  0  0  0
  188.2630  178.1060  140.1760 C   0  0  2  0  0  3  0  0  0  0  0  0
  191.3370  176.9560  138.2970 C   0  0  0  0  0  2  0  0  0  0  0  0
  187.6270  177.8960  144.4200 C   0  0  1  0  0  3  0  0  0  0  0  0
  185.1810  178.8200  146.5120 C   0  0  0  0  0  2  0  0  0  0  0  0
  189.0190  176.8530  137.2440 C   0  0  2  0  0  3  0  0  0  0  0  0
  189.1170  177.6470  142.4170 C   0  0  2  0  0  3  0  0  0  0  0  0
  185.4190  178.9690  144.0450 C   0  0  1  0  0  3  0  0  0  0  0  0
  187.9290  177.6410  141.5360 N   0  0  1  0  0  0  0  0  0  0  0  0
  191.1380  176.3310  144.0900 C   0  0  0  0  0  2  0  0  0  0  0  0
  187.2600  178.6360  137.9400 C   0  0  0  0  0  2  0  0  0  0  0  0
  189.9860  177.1120  144.7130 C   0  0  0  0  0  2  0  0  0  0  0  0
  187.0530  177.9070  139.2580 C   0  0  0  0  0  2  0  0  0  0  0  0
  189.9380  177.5550  138.2510 C   0  0  1  0  0  3  0  0  0  0  0  0
  191.4970  176.9260  142.7330 C   0  0  0  0  0  2  0  0  0  0  0  0
  190.6030  177.4730  140.5080 N   0  0  1  0  0  0  0  0  0  0  0  0
  189.7170  176.5020  136.0850 O   0  0  0  0  0  0  0  0  0  0  0  0
  188.9290  175.5210  135.4760 C   0  0  0  0  0  2  0  0  0  0  0  0
  187.5520  172.5750  135.3830 O   0  0  0  0  0  0  0  0  0  0  0  0
  189.7630  173.2310  135.8820 C   0  0  0  0  0  2  0  0  0  0  0  0
  188.8350  174.3020  136.3770 C   0  0  2  0  0  3  0  0  0  0  0  0
  188.8480  172.0730  135.5670 C   0  0  0  0  0  2  0  0  0  0  0  0
  187.4630  173.6810  136.2410 C   0  0  0  0  0  2  0  0  0  0  0  0
  1 18  1  0  0  0  0
  1 26  1  1  0  0  0
  2 27  1  0  0  0  0
  3  7  1  6  0  0  0
  3 16  1  0  0  0  0
  4 15  1  0  0  0  0
  4 23  1  1  0  0  0
  5 11  1  6  0  0  0
  5 19  1  0  0  0  0
  5 15  1  0  0  0  0
  6 19  1  0  0  0  0
  6  7  1  0  0  0  0
  9 13  1  0  0  0  0
  9 27  1  0  0  0  0
 10 17  1  0  0  0  0
 10 22  1  0  0  0  0
 12  8  1  0  0  0  0
 13 20  1  0  0  0  0
 14  2  1  0  0  0  0
 15 12  1  0  0  0  0
 16  8  1  0  0  0  0
 17 25  1  0  0  0  0
 18  4  1  0  0  0  0
 19  3  1  0  0  0  0
 20 11  1  0  0  0  0
 20 18  1  0  0  0  0
 21 23  1  0  0  0  0
 22 24  1  0  0  0  0
 24 13  1  0  0  0  0
 25 14  1  0  0  0  0
 25  9  1  0  0  0  0
 26 21  1  0  0  0  0
 27  1  1  0  0  0  0
 28 17  1  0  0  0  0
 29 28  1  0  0  0  0
 29 32  1  0  0  0  0
 30 33  1  0  0  0  0
 30 34  1  0  0  0  0
 31 32  1  0  0  0  0
 33 31  1  0  0  0  0
 34 32  1  0  0  0  0
M  END
>  <MODEL>
9

>  <REMARK>
 VINA RESULT:      -8.1      2.586      3.573
  Name = 
  3 active torsions:
  status: ('A' for Active; 'I' for Inactive)
    1  A    between atoms: C_17  and  O_28
    2  A    between atoms: O_28  and  C_29
    3  A    between atoms: C_29  and  C_32
                            x       y       z     vdW  Elec       q    Type
                         _______ _______ _______ _____ _____    ______ ____

>  <TORSDO>
F 3

$$$$
