=
 OpenBabel11122410353D

 30 35  0  0  1  0  0  0  0  0999 V2000
  185.5010  178.1710  139.7440 C   0  0  1  0  0  3  0  0  0  0  0  0
  186.4420  177.6160  137.4360 C   0  0  0  0  0  0  0  0  0  0  0  0
  189.4290  178.2590  141.3800 N   0  0  0  0  0  2  0  0  0  0  0  0
  185.7380  179.0590  140.9810 C   0  0  1  0  0  3  0  0  0  0  0  0
  184.2720  178.5420  139.1520 O   0  0  0  0  0  0  0  0  0  0  0  0
  182.2660  178.7710  142.0740 O   0  0  0  0  0  0  0  0  0  0  0  0
  185.4390  178.1070  144.1170 C   0  0  1  0  0  3  0  0  0  0  0  0
  183.3060  178.6510  141.3710 C   0  0  0  0  0  0  0  0  0  0  0  0
  186.9310  178.2070  143.9800 C   0  0  1  0  0  3  0  0  0  0  0  0
  188.8710  177.5300  142.5210 C   0  0  2  0  0  3  0  0  0  0  0  0
  183.2000  178.1110  139.9720 C   0  0  2  0  0  3  0  0  0  0  0  0
  184.6000  178.9590  141.9110 N   0  0  0  0  0  0  0  0  0  0  0  0
  187.5470  176.7870  136.8530 C   0  0  0  0  0  2  0  0  0  0  0  0
  187.4400  177.3380  145.1140 C   0  0  0  0  0  2  0  0  0  0  0  0
  185.1810  178.1420  145.6070 C   0  0  0  0  0  2  0  0  0  0  0  0
  185.4190  177.7730  136.7890 O   0  0  0  0  0  0  0  0  0  0  0  0
  188.3080  178.8440  140.6460 C   0  0  2  0  0  3  0  0  0  0  0  0
  188.2570  176.0240  137.9610 C   0  0  0  0  0  2  0  0  0  0  0  0
  186.6450  178.3590  138.7440 C   0  0  2  0  0  3  0  0  0  0  0  0
  187.1470  178.9170  141.6290 C   0  0  2  0  0  3  0  0  0  0  0  0
  189.1590  176.0480  142.3740 C   0  0  0  0  0  1  0  0  0  0  0  0
  187.3660  177.7630  142.5830 C   0  0  2  0  0  3  0  0  0  0  0  0
  186.4120  177.4960  146.2280 C   0  0  0  0  0  2  0  0  0  0  0  0
  184.3060  180.2130  143.8620 O   0  0  0  0  0  0  0  0  0  0  0  0
  188.6920  176.9550  139.0540 C   0  0  0  0  0  3  0  0  0  0  0  0
  187.9410  178.0060  139.4390 C   0  0  0  0  0  0  0  0  0  0  0  0
  184.7470  179.1630  143.3210 C   0  0  0  0  0  0  0  0  0  0  0  0
  183.0450  176.5900  139.9720 C   0  0  0  0  0  2  0  0  0  0  0  0
  183.6260  175.2270  138.1010 O   0  0  0  0  0  1  0  0  0  0  0  0
  182.6450  176.0850  138.5970 C   0  0  0  0  0  2  0  0  0  0  0  0
  1  5  1  6  0  0  0
  1  4  1  0  0  0  0
  3 10  1  0  0  0  0
  4 20  1  0  0  0  0
  4 12  1  1  0  0  0
  5 11  1  0  0  0  0
  7 15  1  1  0  0  0
  8 12  1  0  0  0  0
  8  6  2  0  0  0  0
  9  7  1  0  0  0  0
  9 14  1  1  0  0  0
 10 21  1  6  0  0  0
 10 22  1  0  0  0  0
 11 28  1  1  0  0  0
 11  8  1  0  0  0  0
 12 27  1  0  0  0  0
 13  2  1  0  0  0  0
 13 18  1  0  0  0  0
 14 23  1  0  0  0  0
 15 23  1  0  0  0  0
 16  2  2  0  0  0  0
 17 26  1  6  0  0  0
 17  3  1  0  0  0  0
 17 20  1  0  0  0  0
 18 25  1  0  0  0  0
 19  2  1  6  0  0  0
 19 26  1  0  0  0  0
 19  1  1  0  0  0  0
 20 22  1  0  0  0  0
 22  9  1  0  0  0  0
 25 26  2  0  0  0  0
 27 24  2  0  0  0  0
 27  7  1  0  0  0  0
 29 30  1  0  0  0  0
 30 28  1  0  0  0  0
M  END
>  <MODEL>
1

>  <REMARK>
 VINA RESULT:      -7.6      0.000      0.000
  Name = 
  2 active torsions:
  status: ('A' for Active; 'I' for Inactive)
    1  A    between atoms: C_11  and  C_28
    2  A    between atoms: C_28  and  C_30
                            x       y       z     vdW  Elec       q    Type
                         _______ _______ _______ _____ _____    ______ ____

>  <TORSDO>
F 2

$$$$
=
 OpenBabel11122410353D

 30 35  0  0  1  0  0  0  0  0999 V2000
  187.2670  178.1410  140.3380 C   0  0  1  0  0  3  0  0  0  0  0  0
  185.0530  179.1170  141.1540 C   0  0  0  0  0  0  0  0  0  0  0  0
  185.5630  177.3310  136.5230 N   0  0  0  0  0  2  0  0  0  0  0  0
  188.2180  178.1080  139.1250 C   0  0  1  0  0  3  0  0  0  0  0  0
  187.9360  178.7600  141.4190 O   0  0  0  0  0  0  0  0  0  0  0  0
  191.0790  177.1240  141.1690 O   0  0  0  0  0  0  0  0  0  0  0  0
  189.7790  175.4490  137.9770 C   0  0  1  0  0  3  0  0  0  0  0  0
  189.9130  177.4810  140.8480 C   0  0  0  0  0  0  0  0  0  0  0  0
  188.7290  175.6530  136.9230 C   0  0  1  0  0  3  0  0  0  0  0  0
  186.2630  176.0460  136.5850 C   0  0  2  0  0  3  0  0  0  0  0  0
  188.9400  177.8920  141.9170 C   0  0  2  0  0  3  0  0  0  0  0  0
  189.4800  177.4360  139.4790 N   0  0  0  0  0  0  0  0  0  0  0  0
  183.5880  178.8380  140.9990 C   0  0  0  0  0  2  0  0  0  0  0  0
  188.6340  174.2900  136.2640 C   0  0  0  0  0  2  0  0  0  0  0  0
  190.8230  174.5710  137.3230 C   0  0  0  0  0  2  0  0  0  0  0  0
  185.4530  179.6040  142.1990 O   0  0  0  0  0  0  0  0  0  0  0  0
  186.1750  178.2090  137.5190 C   0  0  2  0  0  3  0  0  0  0  0  0
  183.3900  177.5810  140.1660 C   0  0  0  0  0  2  0  0  0  0  0  0
  186.0010  178.9250  139.9840 C   0  0  2  0  0  3  0  0  0  0  0  0
  187.5620  177.6430  137.7920 C   0  0  2  0  0  3  0  0  0  0  0  0
  185.3070  174.9620  137.0430 C   0  0  0  0  0  1  0  0  0  0  0  0
  187.4310  176.1530  137.5590 C   0  0  2  0  0  3  0  0  0  0  0  0
  190.0440  173.7150  136.3340 C   0  0  0  0  0  2  0  0  0  0  0  0
  191.3680  177.2510  138.1130 O   0  0  0  0  0  0  0  0  0  0  0  0
  184.1420  177.6750  138.8710 C   0  0  0  0  0  3  0  0  0  0  0  0
  185.3530  178.2600  138.7900 C   0  0  0  0  0  0  0  0  0  0  0  0
  190.2790  176.7520  138.5070 C   0  0  0  0  0  0  0  0  0  0  0  0
  188.3520  176.6760  142.6320 C   0  0  0  0  0  2  0  0  0  0  0  0
  188.5720  177.9420  144.6440 O   0  0  0  0  0  1  0  0  0  0  0  0
  187.7240  177.0750  143.9560 C   0  0  0  0  0  2  0  0  0  0  0  0
  1  5  1  1  0  0  0
  2 16  2  0  0  0  0
  3 10  1  0  0  0  0
  4 12  1  1  0  0  0
  4  1  1  0  0  0  0
  5 11  1  0  0  0  0
  7 15  1  6  0  0  0
  7 27  1  0  0  0  0
  8  6  2  0  0  0  0
  8 11  1  0  0  0  0
  9 14  1  1  0  0  0
  9 22  1  0  0  0  0
  9  7  1  0  0  0  0
 10 21  1  1  0  0  0
 10 22  1  0  0  0  0
 11 28  1  6  0  0  0
 12  8  1  0  0  0  0
 13  2  1  0  0  0  0
 14 23  1  0  0  0  0
 17  3  1  6  0  0  0
 17 20  1  0  0  0  0
 17 26  1  0  0  0  0
 18 13  1  0  0  0  0
 19 26  1  6  0  0  0
 19  1  1  0  0  0  0
 19  2  1  0  0  0  0
 20  4  1  0  0  0  0
 22 20  1  0  0  0  0
 23 15  1  0  0  0  0
 24 27  2  0  0  0  0
 25 18  1  0  0  0  0
 26 25  2  0  0  0  0
 27 12  1  0  0  0  0
 28 30  1  0  0  0  0
 30 29  1  0  0  0  0
M  END
>  <MODEL>
2

>  <REMARK>
 VINA RESULT:      -7.2      2.788      6.663
  Name = 
  2 active torsions:
  status: ('A' for Active; 'I' for Inactive)
    1  A    between atoms: C_11  and  C_28
    2  A    between atoms: C_28  and  C_30
                            x       y       z     vdW  Elec       q    Type
                         _______ _______ _______ _____ _____    ______ ____

>  <TORSDO>
F 2

$$$$
=
 OpenBabel11122410353D

 30 35  0  0  1  0  0  0  0  0999 V2000
  188.6640  177.4690  138.4880 C   0  0  1  0  0  3  0  0  0  0  0  0
  186.2080  178.1560  138.3520 C   0  0  0  0  0  0  0  0  0  0  0  0
  188.4550  175.7630  134.5940 N   0  0  0  0  0  2  0  0  0  0  0  0
  189.9660  177.4090  137.6650 C   0  0  1  0  0  3  0  0  0  0  0  0
  188.8530  178.3630  139.5660 O   0  0  0  0  0  0  0  0  0  0  0  0
  192.0600  177.2910  140.6540 O   0  0  0  0  0  0  0  0  0  0  0  0
  192.1160  174.9190  137.6450 C   0  0  1  0  0  3  0  0  0  0  0  0
  191.0390  177.3800  139.9190 C   0  0  0  0  0  0  0  0  0  0  0  0
  191.4680  174.7590  136.3000 C   0  0  1  0  0  3  0  0  0  0  0  0
  189.2340  174.6500  135.1400 C   0  0  2  0  0  3  0  0  0  0  0  0
  189.7220  177.7790  140.5220 C   0  0  2  0  0  3  0  0  0  0  0  0
  191.1020  177.0370  138.5260 N   0  0  0  0  0  0  0  0  0  0  0  0
  184.9250  177.6000  137.8140 C   0  0  0  0  0  2  0  0  0  0  0  0
  191.7580  173.3130  135.9480 C   0  0  0  0  0  2  0  0  0  0  0  0
  193.4130  174.1450  137.5480 C   0  0  0  0  0  2  0  0  0  0  0  0
  186.1740  178.8690  139.3420 O   0  0  0  0  0  0  0  0  0  0  0  0
  188.5900  176.8850  135.5220 C   0  0  2  0  0  3  0  0  0  0  0  0
  185.1640  176.2100  137.2450 C   0  0  0  0  0  2  0  0  0  0  0  0
  187.5120  177.9480  137.6020 C   0  0  2  0  0  3  0  0  0  0  0  0
  189.8580  176.6260  136.3240 C   0  0  2  0  0  3  0  0  0  0  0  0
  188.3100  173.5020  135.4970 C   0  0  0  0  0  1  0  0  0  0  0  0
  189.9840  175.1180  136.3820 C   0  0  2  0  0  3  0  0  0  0  0  0
  193.1170  173.0160  136.5700 C   0  0  0  0  0  2  0  0  0  0  0  0
  193.3490  176.9710  137.8830 O   0  0  0  0  0  0  0  0  0  0  0  0
  186.2940  176.2250  136.2580 C   0  0  0  0  0  3  0  0  0  0  0  0
  187.3860  176.9950  136.4350 C   0  0  0  0  0  0  0  0  0  0  0  0
  192.2550  176.3580  138.0170 C   0  0  0  0  0  0  0  0  0  0  0  0
  189.0700  176.6100  141.2600 C   0  0  0  0  0  2  0  0  0  0  0  0
  190.3360  175.3480  142.8420 O   0  0  0  0  0  1  0  0  0  0  0  0
  189.5850  176.5120  142.6860 C   0  0  0  0  0  2  0  0  0  0  0  0
  1  5  1  1  0  0  0
  2 16  2  0  0  0  0
  3 10  1  0  0  0  0
  4  1  1  0  0  0  0
  4 12  1  1  0  0  0
  5 11  1  0  0  0  0
  7 15  1  6  0  0  0
  7 27  1  0  0  0  0
  8 11  1  0  0  0  0
  8  6  2  0  0  0  0
  9 14  1  1  0  0  0
  9 22  1  0  0  0  0
  9  7  1  0  0  0  0
 10 21  1  1  0  0  0
 10 22  1  0  0  0  0
 11 28  1  6  0  0  0
 12  8  1  0  0  0  0
 13  2  1  0  0  0  0
 14 23  1  0  0  0  0
 17  3  1  6  0  0  0
 17 20  1  0  0  0  0
 17 26  1  0  0  0  0
 18 13  1  0  0  0  0
 19 26  1  6  0  0  0
 19  2  1  0  0  0  0
 19  1  1  0  0  0  0
 20 22  1  0  0  0  0
 20  4  1  0  0  0  0
 23 15  1  0  0  0  0
 24 27  2  0  0  0  0
 25 26  2  0  0  0  0
 25 18  1  0  0  0  0
 27 12  1  0  0  0  0
 28 30  1  0  0  0  0
 30 29  1  0  0  0  0
M  END
>  <MODEL>
3

>  <REMARK>
 VINA RESULT:      -7.0      3.963      7.489
  Name = 
  2 active torsions:
  status: ('A' for Active; 'I' for Inactive)
    1  A    between atoms: C_11  and  C_28
    2  A    between atoms: C_28  and  C_30
                            x       y       z     vdW  Elec       q    Type
                         _______ _______ _______ _____ _____    ______ ____

>  <TORSDO>
F 2

$$$$
=
 OpenBabel11122410353D

 30 35  0  0  1  0  0  0  0  0999 V2000
  187.8020  177.9390  139.0250 C   0  0  1  0  0  3  0  0  0  0  0  0
  189.4890  177.2700  137.2280 C   0  0  0  0  0  0  0  0  0  0  0  0
  190.7990  177.6110  142.0310 N   0  0  0  0  0  2  0  0  0  0  0  0
  187.6410  178.8040  140.2910 C   0  0  1  0  0  3  0  0  0  0  0  0
  186.9360  178.4370  138.0250 O   0  0  0  0  0  0  0  0  0  0  0  0
  184.0040  178.9020  139.9750 O   0  0  0  0  0  0  0  0  0  0  0  0
  186.0750  177.9110  143.0430 C   0  0  1  0  0  3  0  0  0  0  0  0
  185.2150  178.6660  139.7150 C   0  0  0  0  0  0  0  0  0  0  0  0
  187.5080  177.8480  143.4860 C   0  0  1  0  0  3  0  0  0  0  0  0
  189.7760  176.9540  142.8480 C   0  0  2  0  0  3  0  0  0  0  0  0
  185.5940  178.1310  138.3620 C   0  0  2  0  0  3  0  0  0  0  0  0
  186.2310  178.8340  140.7160 N   0  0  0  0  0  0  0  0  0  0  0  0
  190.6400  176.3220  137.0790 C   0  0  0  0  0  2  0  0  0  0  0  0
  187.4540  176.9370  144.6970 C   0  0  0  0  0  2  0  0  0  0  0  0
  185.2740  177.9850  144.3250 C   0  0  0  0  0  2  0  0  0  0  0  0
  188.8100  177.5330  136.2480 O   0  0  0  0  0  0  0  0  0  0  0  0
  190.1070  178.3090  140.9470 C   0  0  2  0  0  3  0  0  0  0  0  0
  190.7920  175.4940  138.3460 C   0  0  0  0  0  2  0  0  0  0  0  0
  189.2530  177.9950  138.5410 C   0  0  2  0  0  3  0  0  0  0  0  0
  188.6740  178.5150  141.4180 C   0  0  2  0  0  3  0  0  0  0  0  0
  189.9440  175.4490  142.7690 C   0  0  0  0  0  1  0  0  0  0  0  0
  188.3930  177.3490  142.3430 C   0  0  2  0  0  3  0  0  0  0  0  0
  186.1020  177.2130  145.3430 C   0  0  0  0  0  2  0  0  0  0  0  0
  185.3470  180.1270  142.4520 O   0  0  0  0  0  0  0  0  0  0  0  0
  190.8720  176.3790  139.5550 C   0  0  0  0  0  3  0  0  0  0  0  0
  190.1440  177.5080  139.6620 C   0  0  0  0  0  0  0  0  0  0  0  0
  185.8500  179.0310  142.0820 C   0  0  0  0  0  0  0  0  0  0  0  0
  185.2950  176.6360  138.2500 C   0  0  0  0  0  2  0  0  0  0  0  0
  186.6440  175.1550  136.9520 O   0  0  0  0  0  1  0  0  0  0  0  0
  185.6370  176.1160  136.8650 C   0  0  0  0  0  2  0  0  0  0  0  0
  1  5  1  6  0  0  0
  1  4  1  0  0  0  0
  3 10  1  0  0  0  0
  4 12  1  1  0  0  0
  4 20  1  0  0  0  0
  5 11  1  0  0  0  0
  7  9  1  0  0  0  0
  7 15  1  1  0  0  0
  8  6  2  0  0  0  0
  8 12  1  0  0  0  0
  9 14  1  1  0  0  0
 10 21  1  6  0  0  0
 11 28  1  1  0  0  0
 11  8  1  0  0  0  0
 12 27  1  0  0  0  0
 13  2  1  0  0  0  0
 13 18  1  0  0  0  0
 14 23  1  0  0  0  0
 15 23  1  0  0  0  0
 16  2  2  0  0  0  0
 17 26  1  6  0  0  0
 17 20  1  0  0  0  0
 17  3  1  0  0  0  0
 18 25  1  0  0  0  0
 19  2  1  6  0  0  0
 19  1  1  0  0  0  0
 19 26  1  0  0  0  0
 20 22  1  0  0  0  0
 22 10  1  0  0  0  0
 22  9  1  0  0  0  0
 25 26  2  0  0  0  0
 27 24  2  0  0  0  0
 27  7  1  0  0  0  0
 30 29  1  0  0  0  0
 30 28  1  0  0  0  0
M  END
>  <MODEL>
4

>  <REMARK>
 VINA RESULT:      -6.8      1.680      2.267
  Name = 
  2 active torsions:
  status: ('A' for Active; 'I' for Inactive)
    1  A    between atoms: C_11  and  C_28
    2  A    between atoms: C_28  and  C_30
                            x       y       z     vdW  Elec       q    Type
                         _______ _______ _______ _____ _____    ______ ____

>  <TORSDO>
F 2

$$$$
=
 OpenBabel11122410353D

 30 35  0  0  1  0  0  0  0  0999 V2000
  187.0050  177.9560  139.1800 C   0  0  1  0  0  3  0  0  0  0  0  0
  184.8320  179.0020  140.0200 C   0  0  0  0  0  0  0  0  0  0  0  0
  184.9450  176.1870  135.9020 N   0  0  0  0  0  2  0  0  0  0  0  0
  187.8130  177.6750  137.8970 C   0  0  1  0  0  3  0  0  0  0  0  0
  187.7450  178.8430  139.9940 O   0  0  0  0  0  0  0  0  0  0  0  0
  190.9490  177.3320  139.7360 O   0  0  0  0  0  0  0  0  0  0  0  0
  189.4210  174.8890  137.2080 C   0  0  1  0  0  3  0  0  0  0  0  0
  189.7320  177.5510  139.4900 C   0  0  0  0  0  0  0  0  0  0  0  0
  188.2470  174.7900  136.2770 C   0  0  1  0  0  3  0  0  0  0  0  0
  185.7370  174.9850  136.1720 C   0  0  2  0  0  3  0  0  0  0  0  0
  188.8580  178.1630  140.5490 C   0  0  2  0  0  3  0  0  0  0  0  0
  189.1510  177.1620  138.2360 N   0  0  0  0  0  0  0  0  0  0  0  0
  183.3830  178.6310  140.1200 C   0  0  0  0  0  2  0  0  0  0  0  0
  188.1770  173.3060  135.9700 C   0  0  0  0  0  2  0  0  0  0  0  0
  190.4450  173.9260  136.6490 C   0  0  0  0  0  2  0  0  0  0  0  0
  185.3110  179.7410  140.8650 O   0  0  0  0  0  0  0  0  0  0  0  0
  185.6010  177.3020  136.5830 C   0  0  2  0  0  3  0  0  0  0  0  0
  183.1820  177.2040  139.6330 C   0  0  0  0  0  2  0  0  0  0  0  0
  185.6540  178.5780  138.8170 C   0  0  2  0  0  3  0  0  0  0  0  0
  187.0470  176.8780  136.8020 C   0  0  2  0  0  3  0  0  0  0  0  0
  184.9190  174.0010  136.9850 C   0  0  0  0  0  1  0  0  0  0  0  0
  186.9970  175.3710  136.9380 C   0  0  2  0  0  3  0  0  0  0  0  0
  189.6230  172.8260  135.9920 C   0  0  0  0  0  2  0  0  0  0  0  0
  190.8820  176.7380  136.7220 O   0  0  0  0  0  0  0  0  0  0  0  0
  183.7750  177.0190  138.2670 C   0  0  0  0  0  3  0  0  0  0  0  0
  184.9250  177.6200  137.9010 C   0  0  0  0  0  0  0  0  0  0  0  0
  189.8830  176.3020  137.3550 C   0  0  0  0  0  0  0  0  0  0  0  0
  188.4430  177.1280  141.5950 C   0  0  0  0  0  2  0  0  0  0  0  0
  190.0720  175.8230  142.7530 O   0  0  0  0  0  1  0  0  0  0  0  0
  189.4490  177.0710  142.7310 C   0  0  0  0  0  2  0  0  0  0  0  0
  1  5  1  1  0  0  0
  2 13  1  0  0  0  0
  2 16  2  0  0  0  0
  3 10  1  0  0  0  0
  4 12  1  1  0  0  0
  4  1  1  0  0  0  0
  5 11  1  0  0  0  0
  7 15  1  6  0  0  0
  7 27  1  0  0  0  0
  8  6  2  0  0  0  0
  8 11  1  0  0  0  0
  9 14  1  1  0  0  0
  9 22  1  0  0  0  0
  9  7  1  0  0  0  0
 10 22  1  0  0  0  0
 10 21  1  1  0  0  0
 11 28  1  1  0  0  0
 12  8  1  0  0  0  0
 14 23  1  0  0  0  0
 17  3  1  1  0  0  0
 17 20  1  0  0  0  0
 17 26  1  0  0  0  0
 18 13  1  0  0  0  0
 19 26  1  1  0  0  0
 19  1  1  0  0  0  0
 19  2  1  0  0  0  0
 20 22  1  0  0  0  0
 20  4  1  0  0  0  0
 23 15  1  0  0  0  0
 24 27  2  0  0  0  0
 25 18  1  0  0  0  0
 26 25  2  0  0  0  0
 27 12  1  0  0  0  0
 28 30  1  0  0  0  0
 30 29  1  0  0  0  0
M  END
>  <MODEL>
5

>  <REMARK>
 VINA RESULT:      -6.7      3.078      6.977
  Name = 
  2 active torsions:
  status: ('A' for Active; 'I' for Inactive)
    1  A    between atoms: C_11  and  C_28
    2  A    between atoms: C_28  and  C_30
                            x       y       z     vdW  Elec       q    Type
                         _______ _______ _______ _____ _____    ______ ____

>  <TORSDO>
F 2

$$$$
=
 OpenBabel11122410353D

 30 35  0  0  1  0  0  0  0  0999 V2000
  187.3340  176.9110  137.2270 C   0  0  1  0  0  3  0  0  0  0  0  0
  189.1450  175.7420  135.8570 C   0  0  0  0  0  0  0  0  0  0  0  0
  190.2260  178.1280  140.1030 N   0  0  0  0  0  2  0  0  0  0  0  0
  187.0440  178.1940  138.0310 C   0  0  1  0  0  3  0  0  0  0  0  0
  186.4670  176.8720  136.1120 O   0  0  0  0  0  0  0  0  0  0  0  0
  183.4300  177.7930  137.7060 O   0  0  0  0  0  0  0  0  0  0  0  0
  185.4580  178.3420  140.9100 C   0  0  1  0  0  3  0  0  0  0  0  0
  184.6660  177.5930  137.5630 C   0  0  0  0  0  0  0  0  0  0  0  0
  186.8730  178.6060  141.3390 C   0  0  1  0  0  3  0  0  0  0  0  0
  189.2360  177.7610  141.1180 C   0  0  2  0  0  3  0  0  0  0  0  0
  185.1460  176.5970  136.5450 C   0  0  2  0  0  3  0  0  0  0  0  0
  185.6210  178.2530  138.4080 N   0  0  0  0  0  0  0  0  0  0  0  0
  190.3820  174.9340  136.1060 C   0  0  0  0  0  2  0  0  0  0  0  0
  186.8540  178.2630  142.8160 C   0  0  0  0  0  2  0  0  0  0  0  0
  184.6030  178.8480  142.0510 C   0  0  0  0  0  2  0  0  0  0  0  0
  188.4840  175.5160  134.8550 O   0  0  0  0  0  0  0  0  0  0  0  0
  189.5180  178.2550  138.8300 C   0  0  2  0  0  3  0  0  0  0  0  0
  190.5590  174.7100  137.6000 C   0  0  0  0  0  2  0  0  0  0  0  0
  188.7920  176.9090  136.7610 C   0  0  2  0  0  3  0  0  0  0  0  0
  188.0540  178.4900  139.1780 C   0  0  2  0  0  3  0  0  0  0  0  0
  189.5440  176.3780  141.6590 C   0  0  0  0  0  1  0  0  0  0  0  0
  187.8440  177.7780  140.4970 C   0  0  2  0  0  3  0  0  0  0  0  0
  185.4570  178.6420  143.2950 C   0  0  0  0  0  2  0  0  0  0  0  0
  184.5550  180.0430  139.4690 O   0  0  0  0  0  0  0  0  0  0  0  0
  190.5100  176.0130  138.3430 C   0  0  0  0  0  3  0  0  0  0  0  0
  189.6780  177.0100  137.9820 C   0  0  0  0  0  0  0  0  0  0  0  0
  185.1700  178.9480  139.5760 C   0  0  0  0  0  0  0  0  0  0  0  0
  184.9890  175.1630  137.0520 C   0  0  0  0  0  2  0  0  0  0  0  0
  186.4160  173.3680  136.3870 O   0  0  0  0  0  1  0  0  0  0  0  0
  185.3480  174.1610  135.9680 C   0  0  0  0  0  2  0  0  0  0  0  0
  1  5  1  6  0  0  0
  1  4  1  0  0  0  0
  2 13  1  0  0  0  0
  3 10  1  0  0  0  0
  4 12  1  1  0  0  0
  4 20  1  0  0  0  0
  5 11  1  0  0  0  0
  7  9  1  0  0  0  0
  7 15  1  1  0  0  0
  8  6  2  0  0  0  0
  8 12  1  0  0  0  0
  9 14  1  1  0  0  0
 10 21  1  6  0  0  0
 11 28  1  1  0  0  0
 11  8  1  0  0  0  0
 12 27  1  0  0  0  0
 13 18  1  0  0  0  0
 14 23  1  0  0  0  0
 15 23  1  0  0  0  0
 16  2  2  0  0  0  0
 17 26  1  6  0  0  0
 17 20  1  0  0  0  0
 17  3  1  0  0  0  0
 18 25  1  0  0  0  0
 19  2  1  1  0  0  0
 19  1  1  0  0  0  0
 19 26  1  0  0  0  0
 20 22  1  0  0  0  0
 22 10  1  0  0  0  0
 22  9  1  0  0  0  0
 24 27  2  0  0  0  0
 26 25  2  0  0  0  0
 27  7  1  0  0  0  0
 30 29  1  0  0  0  0
 30 28  1  0  0  0  0
M  END
>  <MODEL>
6

>  <REMARK>
 VINA RESULT:      -6.6      2.048      3.328
  Name = 
  2 active torsions:
  status: ('A' for Active; 'I' for Inactive)
    1  A    between atoms: C_11  and  C_28
    2  A    between atoms: C_28  and  C_30
                            x       y       z     vdW  Elec       q    Type
                         _______ _______ _______ _____ _____    ______ ____

>  <TORSDO>
F 2

$$$$
=
 OpenBabel11122410353D

 30 35  0  0  1  0  0  0  0  0999 V2000
  186.4370  177.6620  138.1590 C   0  0  1  0  0  3  0  0  0  0  0  0
  184.4440  178.7440  139.3330 C   0  0  0  0  0  0  0  0  0  0  0  0
  183.8370  175.0090  136.0800 N   0  0  0  0  0  2  0  0  0  0  0  0
  186.9100  177.1240  136.7940 C   0  0  1  0  0  3  0  0  0  0  0  0
  187.2440  178.7680  138.5120 O   0  0  0  0  0  0  0  0  0  0  0  0
  190.4350  177.4450  137.6880 O   0  0  0  0  0  0  0  0  0  0  0  0
  188.6290  174.3610  136.3060 C   0  0  1  0  0  3  0  0  0  0  0  0
  189.1790  177.5200  137.7580 C   0  0  0  0  0  0  0  0  0  0  0  0
  187.2750  173.9600  135.7950 C   0  0  1  0  0  3  0  0  0  0  0  0
  184.8220  173.9650  136.3700 C   0  0  2  0  0  3  0  0  0  0  0  0
  188.5420  178.3180  138.8610 C   0  0  2  0  0  3  0  0  0  0  0  0
  188.3450  176.7960  136.8400 N   0  0  0  0  0  0  0  0  0  0  0  0
  183.1330  178.3190  139.9220 C   0  0  0  0  0  2  0  0  0  0  0  0
  187.3190  172.4460  135.8550 C   0  0  0  0  0  2  0  0  0  0  0  0
  189.5860  173.3560  135.7040 C   0  0  0  0  0  2  0  0  0  0  0  0
  185.0290  179.6990  139.8210 O   0  0  0  0  0  0  0  0  0  0  0  0
  184.4980  176.2980  136.2820 C   0  0  2  0  0  3  0  0  0  0  0  0
  182.9980  176.8070  139.8390 C   0  0  0  0  0  2  0  0  0  0  0  0
  184.9700  178.0880  138.0690 C   0  0  2  0  0  3  0  0  0  0  0  0
  185.9930  176.0330  136.1670 C   0  0  2  0  0  3  0  0  0  0  0  0
  184.3800  173.1630  137.5800 C   0  0  0  0  0  1  0  0  0  0  0  0
  186.1770  174.6080  136.6400 C   0  0  2  0  0  3  0  0  0  0  0  0
  188.7700  172.0780  135.5680 C   0  0  0  0  0  2  0  0  0  0  0  0
  189.6580  176.1200  135.0280 O   0  0  0  0  0  0  0  0  0  0  0  0
  183.2320  176.3270  138.4370 C   0  0  0  0  0  3  0  0  0  0  0  0
  184.1570  176.8890  137.6340 C   0  0  0  0  0  0  0  0  0  0  0  0
  188.9260  175.7920  136.0000 C   0  0  0  0  0  0  0  0  0  0  0  0
  188.5540  177.5510  140.1830 C   0  0  0  0  0  2  0  0  0  0  0  0
  187.1200  178.1720  141.9880 O   0  0  0  0  0  1  0  0  0  0  0  0
  188.3230  178.4870  141.3560 C   0  0  0  0  0  2  0  0  0  0  0  0
  1  5  1  6  0  0  0
  2 16  2  0  0  0  0
  2 13  1  0  0  0  0
  3 10  1  0  0  0  0
  4 12  1  1  0  0  0
  4  1  1  0  0  0  0
  5 11  1  0  0  0  0
  6  8  2  0  0  0  0
  7 15  1  6  0  0  0
  8 11  1  0  0  0  0
  9 14  1  1  0  0  0
  9  7  1  0  0  0  0
  9 22  1  0  0  0  0
 10 22  1  0  0  0  0
 10 21  1  1  0  0  0
 11 28  1  1  0  0  0
 12  8  1  0  0  0  0
 17  3  1  1  0  0  0
 17 26  1  0  0  0  0
 18 13  1  0  0  0  0
 19 26  1  1  0  0  0
 19  1  1  0  0  0  0
 19  2  1  0  0  0  0
 20 17  1  0  0  0  0
 20 22  1  0  0  0  0
 20  4  1  0  0  0  0
 23 15  1  0  0  0  0
 23 14  1  0  0  0  0
 24 27  2  0  0  0  0
 25 18  1  0  0  0  0
 26 25  2  0  0  0  0
 27  7  1  0  0  0  0
 27 12  1  0  0  0  0
 28 30  1  0  0  0  0
 30 29  1  0  0  0  0
M  END
>  <MODEL>
7

>  <REMARK>
 VINA RESULT:      -6.6      3.054      7.278
  Name = 
  2 active torsions:
  status: ('A' for Active; 'I' for Inactive)
    1  A    between atoms: C_11  and  C_28
    2  A    between atoms: C_28  and  C_30
                            x       y       z     vdW  Elec       q    Type
                         _______ _______ _______ _____ _____    ______ ____

>  <TORSDO>
F 2

$$$$
=
 OpenBabel11122410353D

 30 35  0  0  1  0  0  0  0  0999 V2000
  186.6020  178.2840  140.5100 C   0  0  1  0  0  3  0  0  0  0  0  0
  184.6230  179.0200  141.9480 C   0  0  0  0  0  0  0  0  0  0  0  0
  184.0230  177.6850  137.1780 N   0  0  0  0  0  2  0  0  0  0  0  0
  187.2120  178.4260  139.1020 C   0  0  1  0  0  3  0  0  0  0  0  0
  187.4930  178.8540  141.4470 O   0  0  0  0  0  0  0  0  0  0  0  0
  190.5450  177.4820  140.2560 O   0  0  0  0  0  0  0  0  0  0  0  0
  188.5570  175.9990  137.3340 C   0  0  1  0  0  3  0  0  0  0  0  0
  189.3190  177.7790  140.2740 C   0  0  0  0  0  0  0  0  0  0  0  0
  187.2640  176.2150  136.6020 C   0  0  1  0  0  3  0  0  0  0  0  0
  184.7780  176.4540  136.9320 C   0  0  2  0  0  3  0  0  0  0  0  0
  188.6320  178.0230  141.5880 C   0  0  2  0  0  3  0  0  0  0  0  0
  188.5540  177.8200  139.0590 N   0  0  0  0  0  0  0  0  0  0  0  0
  183.1840  178.6480  142.1350 C   0  0  0  0  0  2  0  0  0  0  0  0
  187.0720  174.9110  135.8520 C   0  0  0  0  0  2  0  0  0  0  0  0
  189.4420  175.2600  136.3540 C   0  0  0  0  0  2  0  0  0  0  0  0
  185.2530  179.4430  142.9040 O   0  0  0  0  0  0  0  0  0  0  0  0
  184.8250  178.5150  138.0750 C   0  0  2  0  0  3  0  0  0  0  0  0
  182.8410  177.4570  141.2530 C   0  0  0  0  0  2  0  0  0  0  0  0
  185.2500  179.0000  140.5650 C   0  0  2  0  0  3  0  0  0  0  0  0
  186.2620  178.0310  137.9340 C   0  0  2  0  0  3  0  0  0  0  0  0
  184.0250  175.2670  137.5000 C   0  0  0  0  0  1  0  0  0  0  0  0
  186.1490  176.5620  137.5890 C   0  0  2  0  0  3  0  0  0  0  0  0
  188.4790  174.4380  135.5080 C   0  0  0  0  0  2  0  0  0  0  0  0
  190.0370  177.8940  137.2540 O   0  0  0  0  0  0  0  0  0  0  0  0
  183.2320  177.7180  139.8290 C   0  0  0  0  0  3  0  0  0  0  0  0
  184.3530  178.3960  139.5090 C   0  0  0  0  0  0  0  0  0  0  0  0
  189.1110  177.2840  137.8540 C   0  0  0  0  0  0  0  0  0  0  0  0
  188.3070  176.7090  142.2990 C   0  0  0  0  0  2  0  0  0  0  0  0
  190.2150  175.4060  142.8980 O   0  0  0  0  0  1  0  0  0  0  0  0
  189.3470  176.3940  143.3600 C   0  0  0  0  0  2  0  0  0  0  0  0
  1 19  1  0  0  0  0
  1  5  1  1  0  0  0
  2 13  1  0  0  0  0
  2 16  2  0  0  0  0
  4 12  1  1  0  0  0
  4  1  1  0  0  0  0
  5 11  1  0  0  0  0
  6  8  2  0  0  0  0
  7 15  1  6  0  0  0
  7 27  1  0  0  0  0
  8 11  1  0  0  0  0
  9 14  1  1  0  0  0
  9  7  1  0  0  0  0
  9 22  1  0  0  0  0
 10  3  1  0  0  0  0
 10 21  1  1  0  0  0
 10 22  1  0  0  0  0
 11 28  1  6  0  0  0
 12  8  1  0  0  0  0
 17  3  1  6  0  0  0
 17 26  1  0  0  0  0
 18 13  1  0  0  0  0
 19 26  1  6  0  0  0
 19  2  1  0  0  0  0
 20 17  1  0  0  0  0
 20  4  1  0  0  0  0
 22 20  1  0  0  0  0
 23 14  1  0  0  0  0
 23 15  1  0  0  0  0
 24 27  2  0  0  0  0
 25 18  1  0  0  0  0
 26 25  2  0  0  0  0
 27 12  1  0  0  0  0
 28 30  1  0  0  0  0
 29 30  1  0  0  0  0
M  END
>  <MODEL>
8

>  <REMARK>
 VINA RESULT:      -6.4      2.677      6.739
  Name = 
  2 active torsions:
  status: ('A' for Active; 'I' for Inactive)
    1  A    between atoms: C_11  and  C_28
    2  A    between atoms: C_28  and  C_30
                            x       y       z     vdW  Elec       q    Type
                         _______ _______ _______ _____ _____    ______ ____

>  <TORSDO>
F 2

$$$$
=
 OpenBabel11122410353D

 30 35  0  0  1  0  0  0  0  0999 V2000
  181.7480  177.5110  139.1910 C   0  0  1  0  0  3  0  0  0  0  0  0
  182.3260  176.7590  136.8200 C   0  0  0  0  0  0  0  0  0  0  0  0
  185.4550  179.5790  139.4940 N   0  0  0  0  0  2  0  0  0  0  0  0
  181.8130  178.7230  140.1410 C   0  0  1  0  0  3  0  0  0  0  0  0
  180.3900  177.1910  138.9600 O   0  0  0  0  0  0  0  0  0  0  0  0
  179.1680  177.4070  142.2880 O   0  0  0  0  0  0  0  0  0  0  0  0
  182.6490  178.6310  143.3220 C   0  0  1  0  0  3  0  0  0  0  0  0
  179.9740  177.5170  141.3240 C   0  0  0  0  0  0  0  0  0  0  0  0
  183.8670  179.2670  142.7150 C   0  0  1  0  0  3  0  0  0  0  0  0
  185.5440  179.0320  140.8500 C   0  0  2  0  0  3  0  0  0  0  0  0
  179.8300  176.6180  140.1290 C   0  0  2  0  0  3  0  0  0  0  0  0
  181.0700  178.4440  141.3820 N   0  0  0  0  0  0  0  0  0  0  0  0
  183.5340  176.3050  136.0600 C   0  0  0  0  0  2  0  0  0  0  0  0
  184.9410  179.0150  143.7560 C   0  0  0  0  0  2  0  0  0  0  0  0
  182.7250  178.9700  144.7950 C   0  0  0  0  0  2  0  0  0  0  0  0
  181.2310  176.3180  136.5070 O   0  0  0  0  0  0  0  0  0  0  0  0
  184.0640  179.4500  139.0630 C   0  0  2  0  0  3  0  0  0  0  0  0
  184.7290  176.2180  136.9970 C   0  0  0  0  0  2  0  0  0  0  0  0
  182.4410  177.8500  137.8700 C   0  0  2  0  0  3  0  0  0  0  0  0
  183.2330  179.3290  140.3340 C   0  0  2  0  0  3  0  0  0  0  0  0
  186.4340  177.8050  140.8520 C   0  0  0  0  0  1  0  0  0  0  0  0
  184.1480  178.6630  141.3390 C   0  0  2  0  0  3  0  0  0  0  0  0
  184.2150  179.0560  145.0960 C   0  0  0  0  0  2  0  0  0  0  0  0
  180.6590  179.9650  143.1090 O   0  0  0  0  0  0  0  0  0  0  0  0
  184.9160  177.5060  137.7430 C   0  0  0  0  0  3  0  0  0  0  0  0
  183.8700  178.2400  138.1740 C   0  0  0  0  0  0  0  0  0  0  0  0
  181.4020  179.0680  142.6270 C   0  0  0  0  0  0  0  0  0  0  0  0
  180.3860  175.2220  140.4130 C   0  0  0  0  0  2  0  0  0  0  0  0
  178.9310  174.1210  141.9530 O   0  0  0  0  0  1  0  0  0  0  0  0
  179.2610  174.2180  140.6010 C   0  0  0  0  0  2  0  0  0  0  0  0
  1  5  1  6  0  0  0
  1  4  1  0  0  0  0
  3 10  1  0  0  0  0
  4 20  1  0  0  0  0
  4 12  1  1  0  0  0
  5 11  1  0  0  0  0
  7 15  1  1  0  0  0
  8 12  1  0  0  0  0
  8  6  2  0  0  0  0
  9  7  1  0  0  0  0
  9 14  1  1  0  0  0
 10 21  1  6  0  0  0
 10 22  1  0  0  0  0
 11 28  1  1  0  0  0
 11  8  1  0  0  0  0
 12 27  1  0  0  0  0
 13  2  1  0  0  0  0
 13 18  1  0  0  0  0
 14 23  1  0  0  0  0
 15 23  1  0  0  0  0
 16  2  2  0  0  0  0
 17 26  1  6  0  0  0
 17  3  1  0  0  0  0
 17 20  1  0  0  0  0
 18 25  1  0  0  0  0
 19  2  1  6  0  0  0
 19 26  1  0  0  0  0
 19  1  1  0  0  0  0
 20 22  1  0  0  0  0
 22  9  1  0  0  0  0
 25 26  2  0  0  0  0
 27 24  2  0  0  0  0
 27  7  1  0  0  0  0
 28 30  1  0  0  0  0
 30 29  1  0  0  0  0
M  END
>  <MODEL>
9

>  <REMARK>
 VINA RESULT:      -6.3      2.621      3.916
  Name = 
  2 active torsions:
  status: ('A' for Active; 'I' for Inactive)
    1  A    between atoms: C_11  and  C_28
    2  A    between atoms: C_28  and  C_30
                            x       y       z     vdW  Elec       q    Type
                         _______ _______ _______ _____ _____    ______ ____

>  <TORSDO>
F 2

$$$$
