=
 OpenBabel11122410273D

 30 35  0  0  1  0  0  0  0  0999 V2000
  185.8860  178.4510  142.0340 C   0  0  0  0  0  0  0  0  0  0  0  0
  183.4770  178.8670  142.3320 C   0  0  0  0  0  0  0  0  0  0  0  0
  186.3700  178.1130  146.6160 S   0  0  0  0  0  0  0  0  0  0  0  0
  187.2130  178.1110  142.6220 C   0  0  0  0  0  0  0  0  0  0  0  0
  185.8390  178.7930  140.5670 C   0  0  0  0  0  2  0  0  0  0  0  0
  189.2520  177.3870  139.4780 C   0  0  0  0  0  1  0  0  0  0  0  0
  190.0510  178.6280  143.4230 N   0  0  1  0  0  0  0  0  0  0  0  0
  188.1220  177.8680  140.3380 C   0  0  0  0  0  0  0  0  0  0  0  0
  189.6230  178.2330  144.7750 C   0  0  2  0  0  3  0  0  0  0  0  0
  187.8440  177.1970  146.1980 C   0  0  0  0  0  0  0  0  0  0  0  0
  186.9670  178.2210  139.7540 C   0  0  0  0  0  0  0  0  0  0  0  0
  188.2890  177.9100  141.8160 C   0  0  0  0  0  0  0  0  0  0  0  0
  182.3990  179.0470  143.1990 C   0  0  0  0  0  3  0  0  0  0  0  0
  190.8010  177.5730  145.4520 C   0  0  0  0  0  2  0  0  0  0  0  0
  191.5100  178.7150  143.4630 C   0  0  0  0  0  2  0  0  0  0  0  0
  183.1850  178.9050  140.9380 N   0  0  0  0  0  1  0  0  0  0  0  0
  186.1280  178.2750  144.8430 C   0  0  0  0  0  0  0  0  0  0  0  0
  182.5660  178.9750  144.5740 C   0  0  0  0  0  3  0  0  0  0  0  0
  184.7900  178.6050  142.8460 C   0  0  0  0  0  0  0  0  0  0  0  0
  187.2840  178.0110  144.0550 N   0  0  0  0  0  0  0  0  0  0  0  0
  188.3430  176.4010  146.9770 O   0  0  0  0  0  0  0  0  0  0  0  0
  188.3570  177.3690  144.8050 C   0  0  1  0  0  3  0  0  0  0  0  0
  191.9890  178.2510  144.8250 C   0  0  0  0  0  2  0  0  0  0  0  0
  189.9980  176.2110  142.6220 C   0  0  0  0  0  1  0  0  0  0  0  0
  183.8210  178.7110  145.1000 C   0  0  0  0  0  3  0  0  0  0  0  0
  184.9340  178.5180  144.2700 C   0  0  0  0  0  0  0  0  0  0  0  0
  189.6840  177.6840  142.3480 C   0  0  2  0  0  3  0  0  0  0  0  0
  186.8340  178.1070  138.3660 O   0  0  0  0  0  0  0  0  0  0  0  0
  185.7170  176.6140  136.8610 C   0  0  0  0  0  1  0  0  0  0  0  0
  185.5890  177.8430  137.7360 C   0  0  0  0  0  2  0  0  0  0  0  0
  1  4  1  0  0  0  0
  1 19  2  0  0  0  0
  2 19  1  0  0  0  0
  2 13  2  0  0  0  0
  4 20  1  0  0  0  0
  5  1  1  0  0  0  0
  6  8  1  0  0  0  0
  7 15  1  1  0  0  0
  7  9  1  0  0  0  0
  8 12  1  0  0  0  0
  9 22  1  0  0  0  0
  9 14  1  6  0  0  0
 10  3  1  0  0  0  0
 10 21  2  0  0  0  0
 11  8  2  0  0  0  0
 11  5  1  0  0  0  0
 12 27  1  0  0  0  0
 12  4  2  0  0  0  0
 13 18  1  0  0  0  0
 15 23  1  0  0  0  0
 16  2  1  0  0  0  0
 17  3  1  0  0  0  0
 18 25  2  0  0  0  0
 19 26  1  0  0  0  0
 20 22  1  0  0  0  0
 20 17  1  0  0  0  0
 22 10  1  1  0  0  0
 23 14  1  0  0  0  0
 26 17  2  0  0  0  0
 26 25  1  0  0  0  0
 27 24  1  1  0  0  0
 27  7  1  0  0  0  0
 28 11  1  0  0  0  0
 29 30  1  0  0  0  0
 30 28  1  0  0  0  0
M  END
>  <MODEL>
1

>  <REMARK>
 VINA RESULT:      -9.6      0.000      0.000
  Name = 
  2 active torsions:
  status: ('A' for Active; 'I' for Inactive)
    1  A    between atoms: C_11  and  O_28
    2  A    between atoms: O_28  and  C_30
                            x       y       z     vdW  Elec       q    Type
                         _______ _______ _______ _____ _____    ______ ____

>  <TORSDO>
F 2

$$$$
=
 OpenBabel11122410273D

 30 35  0  0  1  0  0  0  0  0999 V2000
  187.6110  177.7450  143.2080 C   0  0  0  0  0  0  0  0  0  0  0  0
  186.4550  178.0160  145.3660 C   0  0  0  0  0  0  0  0  0  0  0  0
  183.7250  178.9260  141.0060 S   0  0  0  0  0  0  0  0  0  0  0  0
  187.6000  177.8620  141.7220 C   0  0  0  0  0  0  0  0  0  0  0  0
  188.8220  177.1200  143.8520 C   0  0  0  0  0  2  0  0  0  0  0  0
  191.2970  177.3650  140.9160 C   0  0  0  0  0  1  0  0  0  0  0  0
  187.6310  176.8390  138.9100 N   0  0  1  0  0  0  0  0  0  0  0  0
  190.0220  177.3760  141.7050 C   0  0  0  0  0  0  0  0  0  0  0  0
  186.3880  177.6080  138.7350 C   0  0  2  0  0  3  0  0  0  0  0  0
  184.8360  179.3350  139.6700 C   0  0  0  0  0  0  0  0  0  0  0  0
  190.0790  177.2050  143.0330 C   0  0  0  0  0  0  0  0  0  0  0  0
  188.7280  177.6110  141.0080 C   0  0  0  0  0  0  0  0  0  0  0  0
  185.2760  178.3000  146.0580 C   0  0  0  0  0  3  0  0  0  0  0  0
  186.3430  178.0840  137.3020 C   0  0  0  0  0  2  0  0  0  0  0  0
  188.0350  176.4020  137.5730 C   0  0  0  0  0  2  0  0  0  0  0  0
  187.6090  177.7530  146.1590 N   0  0  0  0  0  1  0  0  0  0  0  0
  185.2020  178.4520  141.9140 C   0  0  0  0  0  0  0  0  0  0  0  0
  184.1090  178.6210  145.3820 C   0  0  0  0  0  3  0  0  0  0  0  0
  186.4840  178.0460  143.9330 C   0  0  0  0  0  0  0  0  0  0  0  0
  186.3570  178.2460  141.1080 N   0  0  0  0  0  0  0  0  0  0  0  0
  184.5210  180.1290  138.7990 O   0  0  0  0  0  0  0  0  0  0  0  0
  186.2080  178.7460  139.7470 C   0  0  1  0  0  3  0  0  0  0  0  0
  187.0910  177.0140  136.5550 C   0  0  0  0  0  2  0  0  0  0  0  0
  189.0360  178.9640  138.8780 C   0  0  0  0  0  1  0  0  0  0  0  0
  184.1090  178.6700  143.9960 C   0  0  0  0  0  3  0  0  0  0  0  0
  185.2690  178.3980  143.2570 C   0  0  0  0  0  0  0  0  0  0  0  0
  188.7570  177.5920  139.4970 C   0  0  2  0  0  3  0  0  0  0  0  0
  191.3240  177.0480  143.6550 O   0  0  0  0  0  0  0  0  0  0  0  0
  191.7430  176.3850  145.9180 C   0  0  0  0  0  1  0  0  0  0  0  0
  191.5970  177.5450  144.9570 C   0  0  0  0  0  2  0  0  0  0  0  0
  1  5  1  0  0  0  0
  1 19  2  0  0  0  0
  2 13  2  0  0  0  0
  2 16  1  0  0  0  0
  3 17  1  0  0  0  0
  4  1  1  0  0  0  0
  6  8  1  0  0  0  0
  7 15  1  6  0  0  0
  7 27  1  0  0  0  0
  8 11  2  0  0  0  0
  9 14  1  6  0  0  0
  9  7  1  0  0  0  0
  9 22  1  0  0  0  0
 10  3  1  0  0  0  0
 11 28  1  0  0  0  0
 11  5  1  0  0  0  0
 12  8  1  0  0  0  0
 12  4  2  0  0  0  0
 17 26  2  0  0  0  0
 18 13  1  0  0  0  0
 19  2  1  0  0  0  0
 20  4  1  0  0  0  0
 20 17  1  0  0  0  0
 21 10  2  0  0  0  0
 22 10  1  1  0  0  0
 22 20  1  0  0  0  0
 23 14  1  0  0  0  0
 23 15  1  0  0  0  0
 25 18  2  0  0  0  0
 26 19  1  0  0  0  0
 26 25  1  0  0  0  0
 27 24  1  6  0  0  0
 27 12  1  0  0  0  0
 28 30  1  0  0  0  0
 30 29  1  0  0  0  0
M  END
>  <MODEL>
2

>  <REMARK>
 VINA RESULT:      -9.2      2.206      5.760
  Name = 
  2 active torsions:
  status: ('A' for Active; 'I' for Inactive)
    1  A    between atoms: C_11  and  O_28
    2  A    between atoms: O_28  and  C_30
                            x       y       z     vdW  Elec       q    Type
                         _______ _______ _______ _____ _____    ______ ____

>  <TORSDO>
F 2

$$$$
=
 OpenBabel11122410273D

 30 35  0  0  1  0  0  0  0  0999 V2000
  189.2700  177.1030  143.7040 C   0  0  0  0  0  0  0  0  0  0  0  0
  191.2850  176.2780  144.8540 C   0  0  0  0  0  0  0  0  0  0  0  0
  187.3090  177.9480  147.8010 S   0  0  0  0  0  0  0  0  0  0  0  0
  187.9210  177.7360  143.7710 C   0  0  0  0  0  0  0  0  0  0  0  0
  189.7510  176.6250  142.3590 C   0  0  0  0  0  2  0  0  0  0  0  0
  187.2950  178.5310  140.0920 C   0  0  0  0  0  1  0  0  0  0  0  0
  184.9410  177.8290  143.5130 N   0  0  1  0  0  0  0  0  0  0  0  0
  187.9320  177.9300  141.3080 C   0  0  0  0  0  0  0  0  0  0  0  0
  184.9450  178.2620  144.9200 C   0  0  2  0  0  3  0  0  0  0  0  0
  186.2930  179.0780  146.8650 C   0  0  0  0  0  0  0  0  0  0  0  0
  189.1180  177.3170  141.1840 C   0  0  0  0  0  0  0  0  0  0  0  0
  187.2580  178.0570  142.6300 C   0  0  0  0  0  0  0  0  0  0  0  0
  191.9350  175.9830  146.0530 C   0  0  0  0  0  3  0  0  0  0  0  0
  183.7680  179.1890  145.1160 C   0  0  0  0  0  2  0  0  0  0  0  0
  183.5740  178.0180  143.0290 C   0  0  0  0  0  2  0  0  0  0  0  0
  192.0280  176.0580  143.6580 N   0  0  0  0  0  1  0  0  0  0  0  0
  188.1120  177.5800  146.2360 C   0  0  0  0  0  0  0  0  0  0  0  0
  191.3210  176.2110  147.2750 C   0  0  0  0  0  3  0  0  0  0  0  0
  189.9600  176.8250  144.8580 C   0  0  0  0  0  0  0  0  0  0  0  0
  187.3810  177.9800  145.0820 N   0  0  0  0  0  0  0  0  0  0  0  0
  185.7300  180.0210  147.3970 O   0  0  0  0  0  0  0  0  0  0  0  0
  186.2710  178.8750  145.3840 C   0  0  1  0  0  3  0  0  0  0  0  0
  182.7580  178.6870  144.1200 C   0  0  0  0  0  2  0  0  0  0  0  0
  185.7640  180.1100  142.7350 C   0  0  0  0  0  1  0  0  0  0  0  0
  190.0440  176.7500  147.3110 C   0  0  0  0  0  3  0  0  0  0  0  0
  189.3520  177.0690  146.1340 C   0  0  0  0  0  0  0  0  0  0  0  0
  185.8430  178.5860  142.6220 C   0  0  2  0  0  3  0  0  0  0  0  0
  189.7440  177.2750  139.9330 O   0  0  0  0  0  0  0  0  0  0  0  0
  191.4170  176.1530  138.6360 C   0  0  0  0  0  1  0  0  0  0  0  0
  191.1460  177.1010  139.7860 C   0  0  0  0  0  2  0  0  0  0  0  0
  1  4  1  0  0  0  0
  1 19  2  0  0  0  0
  2 19  1  0  0  0  0
  2 13  2  0  0  0  0
  4 20  1  0  0  0  0
  5  1  1  0  0  0  0
  6  8  1  0  0  0  0
  7 15  1  6  0  0  0
  7  9  1  0  0  0  0
  8 12  1  0  0  0  0
  9 14  1  6  0  0  0
  9 22  1  0  0  0  0
 10 21  2  0  0  0  0
 10  3  1  0  0  0  0
 11  8  2  0  0  0  0
 11  5  1  0  0  0  0
 12  4  2  0  0  0  0
 13 18  1  0  0  0  0
 15 23  1  0  0  0  0
 16  2  1  0  0  0  0
 17  3  1  0  0  0  0
 18 25  2  0  0  0  0
 19 26  1  0  0  0  0
 20 22  1  0  0  0  0
 20 17  1  0  0  0  0
 22 10  1  1  0  0  0
 23 14  1  0  0  0  0
 26 17  2  0  0  0  0
 26 25  1  0  0  0  0
 27 12  1  0  0  0  0
 27 24  1  1  0  0  0
 27  7  1  0  0  0  0
 28 11  1  0  0  0  0
 29 30  1  0  0  0  0
 30 28  1  0  0  0  0
M  END
>  <MODEL>
3

>  <REMARK>
 VINA RESULT:      -9.1      1.943      5.647
  Name = 
  2 active torsions:
  status: ('A' for Active; 'I' for Inactive)
    1  A    between atoms: C_11  and  O_28
    2  A    between atoms: O_28  and  C_30
                            x       y       z     vdW  Elec       q    Type
                         _______ _______ _______ _____ _____    ______ ____

>  <TORSDO>
F 2

$$$$
=
 OpenBabel11122410273D

 30 35  0  0  1  0  0  0  0  0999 V2000
  187.4770  178.2380  140.2330 C   0  0  0  0  0  0  0  0  0  0  0  0
  185.2980  178.8330  139.2540 C   0  0  0  0  0  0  0  0  0  0  0  0
  185.5640  178.2560  144.4380 S   0  0  0  0  0  0  0  0  0  0  0  0
  188.2900  177.8640  141.4260 C   0  0  0  0  0  0  0  0  0  0  0  0
  188.2050  178.4570  138.9320 C   0  0  0  0  0  2  0  0  0  0  0  0
  191.5460  176.7460  139.7790 C   0  0  0  0  0  1  0  0  0  0  0  0
  190.3790  178.2610  143.5320 N   0  0  1  0  0  0  0  0  0  0  0  0
  190.1920  177.3710  139.9280 C   0  0  0  0  0  0  0  0  0  0  0  0
  189.2950  178.0090  144.4960 C   0  0  2  0  0  3  0  0  0  0  0  0
  186.9500  177.2150  144.8620 C   0  0  0  0  0  0  0  0  0  0  0  0
  189.5260  177.7470  138.8270 C   0  0  0  0  0  0  0  0  0  0  0  0
  189.5980  177.5260  141.2840 C   0  0  0  0  0  0  0  0  0  0  0  0
  183.9540  179.1560  139.4470 C   0  0  0  0  0  3  0  0  0  0  0  0
  189.9040  177.3330  145.7010 C   0  0  0  0  0  2  0  0  0  0  0  0
  191.6230  178.2550  144.3020 C   0  0  0  0  0  2  0  0  0  0  0  0
  185.7490  178.7730  137.9030 N   0  0  0  0  0  1  0  0  0  0  0  0
  186.2600  178.2850  142.7820 C   0  0  0  0  0  0  0  0  0  0  0  0
  183.4010  179.1890  140.7190 C   0  0  0  0  0  3  0  0  0  0  0  0
  186.1430  178.5310  140.3720 C   0  0  0  0  0  0  0  0  0  0  0  0
  187.6230  177.8800  142.7000 N   0  0  0  0  0  0  0  0  0  0  0  0
  186.9110  176.4570  145.8170 O   0  0  0  0  0  0  0  0  0  0  0  0
  188.1070  177.2350  143.9140 C   0  0  1  0  0  3  0  0  0  0  0  0
  191.3060  177.8770  145.7370 C   0  0  0  0  0  2  0  0  0  0  0  0
  190.4970  175.7930  142.9120 C   0  0  0  0  0  1  0  0  0  0  0  0
  184.1910  178.8900  141.8180 C   0  0  0  0  0  3  0  0  0  0  0  0
  185.5450  178.5550  141.6750 C   0  0  0  0  0  0  0  0  0  0  0  0
  190.5090  177.2550  142.4580 C   0  0  2  0  0  3  0  0  0  0  0  0
  190.0960  177.5260  137.5670 O   0  0  0  0  0  0  0  0  0  0  0  0
  188.7080  176.0020  136.3460 C   0  0  0  0  0  1  0  0  0  0  0  0
  189.3160  177.3880  136.3880 C   0  0  0  0  0  2  0  0  0  0  0  0
  1 19  2  0  0  0  0
  1  4  1  0  0  0  0
  2 13  2  0  0  0  0
  2 19  1  0  0  0  0
  3 10  1  0  0  0  0
  4 20  1  0  0  0  0
  5  1  1  0  0  0  0
  6  8  1  0  0  0  0
  7 15  1  1  0  0  0
  7  9  1  0  0  0  0
  8 12  1  0  0  0  0
  9 14  1  1  0  0  0
 10 21  2  0  0  0  0
 11  5  1  0  0  0  0
 11  8  2  0  0  0  0
 12  4  2  0  0  0  0
 12 27  1  0  0  0  0
 13 18  1  0  0  0  0
 14 23  1  0  0  0  0
 15 23  1  0  0  0  0
 16  2  1  0  0  0  0
 17  3  1  0  0  0  0
 18 25  2  0  0  0  0
 19 26  1  0  0  0  0
 20 17  1  0  0  0  0
 20 22  1  0  0  0  0
 22  9  1  0  0  0  0
 22 10  1  1  0  0  0
 26 25  1  0  0  0  0
 26 17  2  0  0  0  0
 27 24  1  1  0  0  0
 27  7  1  0  0  0  0
 28 11  1  0  0  0  0
 29 30  1  0  0  0  0
 30 28  1  0  0  0  0
M  END
>  <MODEL>
4

>  <REMARK>
 VINA RESULT:      -8.3      1.788      2.481
  Name = 
  2 active torsions:
  status: ('A' for Active; 'I' for Inactive)
    1  A    between atoms: C_11  and  O_28
    2  A    between atoms: O_28  and  C_30
                            x       y       z     vdW  Elec       q    Type
                         _______ _______ _______ _____ _____    ______ ____

>  <TORSDO>
F 2

$$$$
=
 OpenBabel11122410273D

 30 35  0  0  1  0  0  0  0  0999 V2000
  186.6410  178.1620  142.7820 C   0  0  0  0  0  0  0  0  0  0  0  0
  186.2130  178.4260  140.3710 C   0  0  0  0  0  0  0  0  0  0  0  0
  191.1510  177.6840  141.9020 S   0  0  0  0  0  0  0  0  0  0  0  0
  187.6100  178.0140  143.9050 C   0  0  0  0  0  0  0  0  0  0  0  0
  185.1730  178.0640  143.1070 C   0  0  0  0  0  2  0  0  0  0  0  0
  185.3340  178.5590  146.9200 C   0  0  0  0  0  1  0  0  0  0  0  0
  188.9760  176.5860  146.1530 N   0  0  1  0  0  0  0  0  0  0  0  0
  185.7470  178.3080  145.5000 C   0  0  0  0  0  0  0  0  0  0  0  0
  190.2260  176.8900  145.4380 C   0  0  2  0  0  3  0  0  0  0  0  0
  191.3390  178.1820  143.6060 C   0  0  0  0  0  0  0  0  0  0  0  0
  184.8240  178.3930  144.5320 C   0  0  0  0  0  0  0  0  0  0  0  0
  187.1720  178.0080  145.1910 C   0  0  0  0  0  0  0  0  0  0  0  0
  186.7120  178.4440  139.0680 C   0  0  0  0  0  3  0  0  0  0  0  0
  191.3110  177.0750  146.4730 C   0  0  0  0  0  2  0  0  0  0  0  0
  189.3680  176.0740  147.4660 C   0  0  0  0  0  2  0  0  0  0  0  0
  184.8170  178.6750  140.5200 N   0  0  0  0  0  1  0  0  0  0  0  0
  189.3850  177.8550  142.1840 C   0  0  0  0  0  0  0  0  0  0  0  0
  188.0650  178.2670  138.8170 C   0  0  0  0  0  3  0  0  0  0  0  0
  187.0900  178.2190  141.4850 C   0  0  0  0  0  0  0  0  0  0  0  0
  188.9990  177.8830  143.5540 N   0  0  0  0  0  0  0  0  0  0  0  0
  192.3760  178.6780  144.0150 O   0  0  0  0  0  0  0  0  0  0  0  0
  190.1210  178.0700  144.4660 C   0  0  1  0  0  3  0  0  0  0  0  0
  190.8760  176.1790  147.6000 C   0  0  0  0  0  2  0  0  0  0  0  0
  188.7440  179.0030  146.9220 C   0  0  0  0  0  1  0  0  0  0  0  0
  188.9390  178.0760  139.8750 C   0  0  0  0  0  3  0  0  0  0  0  0
  188.4870  178.0550  141.2020 C   0  0  0  0  0  0  0  0  0  0  0  0
  188.0800  177.7400  146.3680 C   0  0  2  0  0  3  0  0  0  0  0  0
  183.5080  178.7390  144.8620 O   0  0  0  0  0  0  0  0  0  0  0  0
  181.2790  178.5650  144.0020 C   0  0  0  0  0  1  0  0  0  0  0  0
  182.6040  179.2930  143.9170 C   0  0  0  0  0  2  0  0  0  0  0  0
  1  5  1  0  0  0  0
  1  4  1  0  0  0  0
  2 16  1  0  0  0  0
  2 19  1  0  0  0  0
  3 17  1  0  0  0  0
  3 10  1  0  0  0  0
  4 12  2  0  0  0  0
  5 11  1  0  0  0  0
  7 27  1  0  0  0  0
  7 15  1  1  0  0  0
  8  6  1  0  0  0  0
  9  7  1  0  0  0  0
  9 14  1  1  0  0  0
 10 21  2  0  0  0  0
 11 28  1  0  0  0  0
 11  8  2  0  0  0  0
 12  8  1  0  0  0  0
 12 27  1  0  0  0  0
 13  2  2  0  0  0  0
 14 23  1  0  0  0  0
 15 23  1  0  0  0  0
 17 20  1  0  0  0  0
 18 13  1  0  0  0  0
 18 25  2  0  0  0  0
 19  1  2  0  0  0  0
 20  4  1  0  0  0  0
 20 22  1  0  0  0  0
 22 10  1  6  0  0  0
 22  9  1  0  0  0  0
 25 26  1  0  0  0  0
 26 19  1  0  0  0  0
 26 17  2  0  0  0  0
 27 24  1  6  0  0  0
 30 29  1  0  0  0  0
 30 28  1  0  0  0  0
M  END
>  <MODEL>
5

>  <REMARK>
 VINA RESULT:      -8.1      2.382      5.016
  Name = 
  2 active torsions:
  status: ('A' for Active; 'I' for Inactive)
    1  A    between atoms: C_11  and  O_28
    2  A    between atoms: O_28  and  C_30
                            x       y       z     vdW  Elec       q    Type
                         _______ _______ _______ _____ _____    ______ ____

>  <TORSDO>
F 2

$$$$
=
 OpenBabel11122410273D

 30 35  0  0  1  0  0  0  0  0999 V2000
  186.3430  178.1730  142.8740 C   0  0  0  0  0  0  0  0  0  0  0  0
  187.1220  178.1880  145.2100 C   0  0  0  0  0  0  0  0  0  0  0  0
  182.0020  178.7490  144.3430 S   0  0  0  0  0  0  0  0  0  0  0  0
  185.2350  178.3270  141.8880 C   0  0  0  0  0  0  0  0  0  0  0  0
  187.6890  177.7420  142.3500 C   0  0  0  0  0  2  0  0  0  0  0  0
  187.1780  178.4770  138.6080 C   0  0  0  0  0  1  0  0  0  0  0  0
  183.2880  177.4010  139.8120 N   0  0  1  0  0  0  0  0  0  0  0  0
  186.8980  178.2530  140.0630 C   0  0  0  0  0  0  0  0  0  0  0  0
  182.2520  177.9570  140.6970 C   0  0  2  0  0  3  0  0  0  0  0  0
  181.7310  179.3740  142.6940 C   0  0  0  0  0  0  0  0  0  0  0  0
  187.9270  178.0580  140.9000 C   0  0  0  0  0  0  0  0  0  0  0  0
  185.4930  178.2880  140.5550 C   0  0  0  0  0  0  0  0  0  0  0  0
  186.8100  178.2530  146.5680 C   0  0  0  0  0  3  0  0  0  0  0  0
  181.1250  178.4580  139.8230 C   0  0  0  0  0  2  0  0  0  0  0  0
  182.6210  177.0750  138.5520 C   0  0  0  0  0  2  0  0  0  0  0  0
  188.5050  178.1010  144.8790 N   0  0  0  0  0  1  0  0  0  0  0  0
  183.7060  178.5040  143.8290 C   0  0  0  0  0  0  0  0  0  0  0  0
  185.4980  178.3930  146.9950 C   0  0  0  0  0  3  0  0  0  0  0  0
  186.0880  178.2630  144.2200 C   0  0  0  0  0  0  0  0  0  0  0  0
  183.9120  178.5160  142.4210 N   0  0  0  0  0  0  0  0  0  0  0  0
  180.8050  180.1280  142.4400 O   0  0  0  0  0  0  0  0  0  0  0  0
  182.7660  179.0200  141.6740 C   0  0  1  0  0  3  0  0  0  0  0  0
  181.1810  177.5480  138.6260 C   0  0  0  0  0  2  0  0  0  0  0  0
  184.0110  179.7310  139.0770 C   0  0  0  0  0  1  0  0  0  0  0  0
  184.4770  178.4790  146.0610 C   0  0  0  0  0  3  0  0  0  0  0  0
  184.7410  178.4250  144.6850 C   0  0  0  0  0  0  0  0  0  0  0  0
  184.4070  178.3150  139.5060 C   0  0  2  0  0  3  0  0  0  0  0  0
  189.2350  178.0940  140.4030 O   0  0  0  0  0  0  0  0  0  0  0  0
  190.6250  176.5230  139.2440 C   0  0  0  0  0  1  0  0  0  0  0  0
  190.1540  177.0270  140.5920 C   0  0  0  0  0  2  0  0  0  0  0  0
  1 19  2  0  0  0  0
  2 13  2  0  0  0  0
  4 20  1  0  0  0  0
  4  1  1  0  0  0  0
  5  1  1  0  0  0  0
  6  8  1  0  0  0  0
  7 15  1  6  0  0  0
  7  9  1  0  0  0  0
  8 12  1  0  0  0  0
  8 11  2  0  0  0  0
  9 14  1  6  0  0  0
  9 22  1  0  0  0  0
 10  3  1  0  0  0  0
 11  5  1  0  0  0  0
 12  4  2  0  0  0  0
 13 18  1  0  0  0  0
 15 23  1  0  0  0  0
 16  2  1  0  0  0  0
 17  3  1  0  0  0  0
 17 26  2  0  0  0  0
 19 26  1  0  0  0  0
 19  2  1  0  0  0  0
 20 17  1  0  0  0  0
 21 10  2  0  0  0  0
 22 20  1  0  0  0  0
 22 10  1  1  0  0  0
 23 14  1  0  0  0  0
 25 18  2  0  0  0  0
 26 25  1  0  0  0  0
 27 24  1  1  0  0  0
 27  7  1  0  0  0  0
 27 12  1  0  0  0  0
 28 30  1  0  0  0  0
 28 11  1  0  0  0  0
 29 30  1  0  0  0  0
M  END
>  <MODEL>
6

>  <REMARK>
 VINA RESULT:      -8.1      2.479      5.977
  Name = 
  2 active torsions:
  status: ('A' for Active; 'I' for Inactive)
    1  A    between atoms: C_11  and  O_28
    2  A    between atoms: O_28  and  C_30
                            x       y       z     vdW  Elec       q    Type
                         _______ _______ _______ _____ _____    ______ ____

>  <TORSDO>
F 2

$$$$
=
 OpenBabel11122410273D

 30 35  0  0  1  0  0  0  0  0999 V2000
  186.5260  178.2520  142.4490 C   0  0  0  0  0  0  0  0  0  0  0  0
  186.8680  178.0760  144.8810 C   0  0  0  0  0  0  0  0  0  0  0  0
  190.9310  177.0400  141.7660 S   0  0  0  0  0  0  0  0  0  0  0  0
  187.0470  178.0800  141.0630 C   0  0  0  0  0  0  0  0  0  0  0  0
  185.1680  178.8840  142.6110 C   0  0  0  0  0  2  0  0  0  0  0  0
  183.8540  178.4980  139.0150 C   0  0  0  0  0  1  0  0  0  0  0  0
  187.9860  178.9970  138.3730 N   0  0  1  0  0  0  0  0  0  0  0  0
  184.7790  178.5340  140.1940 C   0  0  0  0  0  0  0  0  0  0  0  0
  189.2130  178.2380  138.6670 C   0  0  2  0  0  3  0  0  0  0  0  0
  190.3480  176.5680  140.1460 C   0  0  0  0  0  0  0  0  0  0  0  0
  184.2680  178.7530  141.4140 C   0  0  0  0  0  0  0  0  0  0  0  0
  186.2340  178.2890  139.9940 C   0  0  0  0  0  0  0  0  0  0  0  0
  187.7360  177.8330  145.9470 C   0  0  0  0  0  3  0  0  0  0  0  0
  189.7480  177.7100  137.3570 C   0  0  0  0  0  2  0  0  0  0  0  0
  188.0680  179.3790  136.9640 C   0  0  0  0  0  2  0  0  0  0  0  0
  185.5110  178.3530  145.2170 N   0  0  0  0  0  1  0  0  0  0  0  0
  189.2320  177.5280  142.0900 C   0  0  0  0  0  0  0  0  0  0  0  0
  189.0650  177.5020  145.7260 C   0  0  0  0  0  3  0  0  0  0  0  0
  187.3340  177.9920  143.5280 C   0  0  0  0  0  0  0  0  0  0  0  0
  188.4250  177.6890  140.9290 N   0  0  0  0  0  0  0  0  0  0  0  0
  190.9430  175.7460  139.4680 O   0  0  0  0  0  0  0  0  0  0  0  0
  189.0340  177.1420  139.7230 C   0  0  1  0  0  3  0  0  0  0  0  0
  189.3040  178.7420  136.3560 C   0  0  0  0  0  2  0  0  0  0  0  0
  186.6780  176.8550  137.9430 C   0  0  0  0  0  1  0  0  0  0  0  0
  189.5410  177.4020  144.4290 C   0  0  0  0  0  3  0  0  0  0  0  0
  188.7070  177.6310  143.3250 C   0  0  0  0  0  0  0  0  0  0  0  0
  186.7260  178.2520  138.5670 C   0  0  2  0  0  3  0  0  0  0  0  0
  182.8860  178.9170  141.5630 O   0  0  0  0  0  0  0  0  0  0  0  0
  180.8030  179.3780  142.6530 C   0  0  0  0  0  1  0  0  0  0  0  0
  182.2590  179.0030  142.8340 C   0  0  0  0  0  2  0  0  0  0  0  0
  1  5  1  0  0  0  0
  1 19  2  0  0  0  0
  2 16  1  0  0  0  0
  2 13  2  0  0  0  0
  3 17  1  0  0  0  0
  4  1  1  0  0  0  0
  6  8  1  0  0  0  0
  7 15  1  6  0  0  0
  7 27  1  0  0  0  0
  7  9  1  0  0  0  0
  8 11  2  0  0  0  0
  9 14  1  6  0  0  0
  9 22  1  0  0  0  0
 10  3  1  0  0  0  0
 11 28  1  0  0  0  0
 11  5  1  0  0  0  0
 12  8  1  0  0  0  0
 12  4  2  0  0  0  0
 17 26  2  0  0  0  0
 18 13  1  0  0  0  0
 19  2  1  0  0  0  0
 20  4  1  0  0  0  0
 20 17  1  0  0  0  0
 21 10  2  0  0  0  0
 22 10  1  1  0  0  0
 22 20  1  0  0  0  0
 23 15  1  0  0  0  0
 23 14  1  0  0  0  0
 25 18  2  0  0  0  0
 26 19  1  0  0  0  0
 26 25  1  0  0  0  0
 27 24  1  1  0  0  0
 27 12  1  0  0  0  0
 28 30  1  0  0  0  0
 29 30  1  0  0  0  0
M  END
>  <MODEL>
7

>  <REMARK>
 VINA RESULT:      -8.1      2.700      5.520
  Name = 
  2 active torsions:
  status: ('A' for Active; 'I' for Inactive)
    1  A    between atoms: C_11  and  O_28
    2  A    between atoms: O_28  and  C_30
                            x       y       z     vdW  Elec       q    Type
                         _______ _______ _______ _____ _____    ______ ____

>  <TORSDO>
F 2

$$$$
=
 OpenBabel11122410273D

 30 35  0  0  1  0  0  0  0  0999 V2000
  187.8210  177.8810  142.5540 C   0  0  0  0  0  0  0  0  0  0  0  0
  189.2720  177.6750  144.5320 C   0  0  0  0  0  0  0  0  0  0  0  0
  184.1800  178.5330  145.3220 S   0  0  0  0  0  0  0  0  0  0  0  0
  186.4780  178.1620  141.9690 C   0  0  0  0  0  0  0  0  0  0  0  0
  188.9110  177.4320  141.6150 C   0  0  0  0  0  2  0  0  0  0  0  0
  187.3380  178.4840  138.2650 C   0  0  0  0  0  1  0  0  0  0  0  0
  183.9350  177.4920  140.5400 N   0  0  1  0  0  0  0  0  0  0  0  0
  187.4990  178.1580  139.7190 C   0  0  0  0  0  0  0  0  0  0  0  0
  183.2560  178.0220  141.7340 C   0  0  2  0  0  3  0  0  0  0  0  0
  183.4630  179.2980  143.8770 C   0  0  0  0  0  0  0  0  0  0  0  0
  188.7180  177.8510  140.1850 C   0  0  0  0  0  0  0  0  0  0  0  0
  186.3160  178.2180  140.6210 C   0  0  0  0  0  0  0  0  0  0  0  0
  189.3920  177.6450  145.9220 C   0  0  0  0  0  3  0  0  0  0  0  0
  181.9540  178.6410  141.2820 C   0  0  0  0  0  2  0  0  0  0  0  0
  182.8960  177.2970  139.5290 C   0  0  0  0  0  2  0  0  0  0  0  0
  190.4800  177.5520  143.7870 N   0  0  0  0  0  1  0  0  0  0  0  0
  185.6270  178.2530  144.2940 C   0  0  0  0  0  0  0  0  0  0  0  0
  188.2850  177.8100  146.7410 C   0  0  0  0  0  3  0  0  0  0  0  0
  187.9930  177.8740  143.9160 C   0  0  0  0  0  0  0  0  0  0  0  0
  185.3960  178.3670  142.8940 N   0  0  0  0  0  0  0  0  0  0  0  0
  182.5580  180.1100  143.9680 O   0  0  0  0  0  0  0  0  0  0  0  0
  184.1130  178.9800  142.5690 C   0  0  1  0  0  3  0  0  0  0  0  0
  181.5820  177.8270  140.0730 C   0  0  0  0  0  2  0  0  0  0  0  0
  184.5550  179.8380  139.7640 C   0  0  0  0  0  1  0  0  0  0  0  0
  187.0370  178.0160  146.1730 C   0  0  0  0  0  3  0  0  0  0  0  0
  186.8650  178.0590  144.7830 C   0  0  0  0  0  0  0  0  0  0  0  0
  184.9670  178.3760  139.9610 C   0  0  2  0  0  3  0  0  0  0  0  0
  189.8130  177.8670  139.3130 O   0  0  0  0  0  0  0  0  0  0  0  0
  190.6860  175.9040  138.2530 C   0  0  0  0  0  1  0  0  0  0  0  0
  190.8560  176.9050  139.3760 C   0  0  0  0  0  2  0  0  0  0  0  0
  1 19  2  0  0  0  0
  2 13  2  0  0  0  0
  4  1  1  0  0  0  0
  4 20  1  0  0  0  0
  5  1  1  0  0  0  0
  6  8  1  0  0  0  0
  7 15  1  6  0  0  0
  7  9  1  0  0  0  0
  8 11  2  0  0  0  0
  8 12  1  0  0  0  0
  9 14  1  6  0  0  0
  9 22  1  0  0  0  0
 10 21  2  0  0  0  0
 10  3  1  0  0  0  0
 11  5  1  0  0  0  0
 12  4  2  0  0  0  0
 13 18  1  0  0  0  0
 15 23  1  0  0  0  0
 16  2  1  0  0  0  0
 17 26  2  0  0  0  0
 17  3  1  0  0  0  0
 19  2  1  0  0  0  0
 19 26  1  0  0  0  0
 20 17  1  0  0  0  0
 22 20  1  0  0  0  0
 22 10  1  1  0  0  0
 23 14  1  0  0  0  0
 25 18  2  0  0  0  0
 26 25  1  0  0  0  0
 27 24  1  1  0  0  0
 27  7  1  0  0  0  0
 27 12  1  0  0  0  0
 28 30  1  0  0  0  0
 28 11  1  0  0  0  0
 29 30  1  0  0  0  0
M  END
>  <MODEL>
8

>  <REMARK>
 VINA RESULT:      -7.8      2.093      5.624
  Name = 
  2 active torsions:
  status: ('A' for Active; 'I' for Inactive)
    1  A    between atoms: C_11  and  O_28
    2  A    between atoms: O_28  and  C_30
                            x       y       z     vdW  Elec       q    Type
                         _______ _______ _______ _____ _____    ______ ____

>  <TORSDO>
F 2

$$$$
=
 OpenBabel11122410273D

 30 35  0  0  1  0  0  0  0  0999 V2000
  187.5400  177.5920  142.6750 C   0  0  0  0  0  0  0  0  0  0  0  0
  185.3590  178.2860  143.5860 C   0  0  0  0  0  0  0  0  0  0  0  0
  186.0640  178.6280  138.4220 S   0  0  0  0  0  0  0  0  0  0  0  0
  188.4630  177.4620  141.5120 C   0  0  0  0  0  0  0  0  0  0  0  0
  187.9870  177.0090  143.9910 C   0  0  0  0  0  2  0  0  0  0  0  0
  191.7450  176.6130  143.2640 C   0  0  0  0  0  1  0  0  0  0  0  0
  190.0610  175.9880  139.4550 N   0  0  1  0  0  0  0  0  0  0  0  0
  190.2750  176.8320  143.0680 C   0  0  0  0  0  0  0  0  0  0  0  0
  189.3220  176.7920  138.4670 C   0  0  2  0  0  3  0  0  0  0  0  0
  187.8070  178.7410  138.0540 C   0  0  0  0  0  0  0  0  0  0  0  0
  189.4770  176.8800  144.1440 C   0  0  0  0  0  0  0  0  0  0  0  0
  189.7370  177.0280  141.6940 C   0  0  0  0  0  0  0  0  0  0  0  0
  184.0650  178.7520  143.3510 C   0  0  0  0  0  3  0  0  0  0  0  0
  190.2400  177.0260  137.2900 C   0  0  0  0  0  2  0  0  0  0  0  0
  191.1280  175.3120  138.7180 C   0  0  0  0  0  2  0  0  0  0  0  0
  185.7260  178.0890  144.9490 N   0  0  0  0  0  1  0  0  0  0  0  0
  186.5780  178.2220  140.0950 C   0  0  0  0  0  0  0  0  0  0  0  0
  183.6260  179.0280  142.0650 C   0  0  0  0  0  3  0  0  0  0  0  0
  186.2680  178.0780  142.4960 C   0  0  0  0  0  0  0  0  0  0  0  0
  187.9360  177.8140  140.2200 N   0  0  0  0  0  0  0  0  0  0  0  0
  188.2190  179.3980  137.1120 O   0  0  0  0  0  0  0  0  0  0  0  0
  188.7330  178.0900  139.0310 C   0  0  1  0  0  3  0  0  0  0  0  0
  191.1160  175.8030  137.2820 C   0  0  0  0  0  2  0  0  0  0  0  0
  191.4890  177.9880  140.1220 C   0  0  0  0  0  1  0  0  0  0  0  0
  184.4850  178.8470  140.9930 C   0  0  0  0  0  3  0  0  0  0  0  0
  185.7960  178.3860  141.1780 C   0  0  0  0  0  0  0  0  0  0  0  0
  190.6850  176.7570  140.5490 C   0  0  2  0  0  3  0  0  0  0  0  0
  190.0340  176.7530  145.4220 O   0  0  0  0  0  0  0  0  0  0  0  0
  188.9130  176.9980  147.5250 C   0  0  0  0  0  1  0  0  0  0  0  0
  189.7640  177.6730  146.4700 C   0  0  0  0  0  2  0  0  0  0  0  0
  1  5  1  0  0  0  0
  2 16  1  0  0  0  0
  3 17  1  0  0  0  0
  4 12  2  0  0  0  0
  4  1  1  0  0  0  0
  5 11  1  0  0  0  0
  7 15  1  6  0  0  0
  7 27  1  0  0  0  0
  8  6  1  0  0  0  0
  8 11  2  0  0  0  0
  9 14  1  6  0  0  0
  9 22  1  0  0  0  0
  9  7  1  0  0  0  0
 10  3  1  0  0  0  0
 11 28  1  0  0  0  0
 12  8  1  0  0  0  0
 13  2  2  0  0  0  0
 17 20  1  0  0  0  0
 17 26  2  0  0  0  0
 18 13  1  0  0  0  0
 19  1  2  0  0  0  0
 19  2  1  0  0  0  0
 20  4  1  0  0  0  0
 21 10  2  0  0  0  0
 22 10  1  6  0  0  0
 22 20  1  0  0  0  0
 23 14  1  0  0  0  0
 23 15  1  0  0  0  0
 25 26  1  0  0  0  0
 25 18  2  0  0  0  0
 26 19  1  0  0  0  0
 27 24  1  6  0  0  0
 27 12  1  0  0  0  0
 28 30  1  0  0  0  0
 30 29  1  0  0  0  0
M  END
>  <MODEL>
9

>  <REMARK>
 VINA RESULT:      -7.5      2.440      5.777
  Name = 
  2 active torsions:
  status: ('A' for Active; 'I' for Inactive)
    1  A    between atoms: C_11  and  O_28
    2  A    between atoms: O_28  and  C_30
                            x       y       z     vdW  Elec       q    Type
                         _______ _______ _______ _____ _____    ______ ____

>  <TORSDO>
F 2

$$$$
