=
 OpenBabel11122411153D

 31 35  0  0  1  0  0  0  0  0999 V2000
  181.0540  178.6120  143.3510 C   0  0  0  0  0  0  0  0  0  0  0  0
  181.5620  177.9420  139.6450 C   0  0  2  0  0  3  0  0  0  0  0  0
  181.2540  179.1300  138.7540 C   0  0  0  0  0  0  0  0  0  0  0  0
  180.2710  181.3090  138.3880 C   0  0  0  0  0  0  0  0  0  0  0  0
  181.8260  178.3160  141.0750 C   0  0  0  0  0  0  0  0  0  0  0  0
  182.3380  179.0100  143.7350 C   0  0  0  0  0  3  0  0  0  0  0  0
  180.5780  180.2540  139.2480 C   0  0  0  0  0  3  0  0  0  0  0  0
  184.1570  177.6820  139.3940 C   0  0  1  0  0  3  0  0  0  0  0  0
  180.0080  178.5620  144.3120 N   0  0  0  0  0  1  0  0  0  0  0  0
  182.2340  177.9310  136.8350 N   0  0  0  0  0  2  0  0  0  0  0  0
  179.5990  182.4590  138.8870 N   0  0  0  0  0  1  0  0  0  0  0  0
  184.1980  178.8140  140.4360 C   0  0  0  0  0  2  0  0  0  0  0  0
  182.7360  177.1060  139.0970 C   0  0  2  0  0  3  0  0  0  0  0  0
  180.7960  178.2670  142.0200 C   0  0  0  0  0  3  0  0  0  0  0  0
  180.6110  181.2390  137.0730 N   0  0  0  0  0  0  0  0  0  0  0  0
  183.1170  178.7030  141.4640 C   0  0  0  0  0  0  0  0  0  0  0  0
  183.3690  179.0610  142.7910 C   0  0  0  0  0  3  0  0  0  0  0  0
  182.4820  176.7310  137.6320 C   0  0  0  0  0  2  0  0  0  0  0  0
  181.5630  179.0710  137.3820 C   0  0  0  0  0  0  0  0  0  0  0  0
  181.2440  180.1520  136.5580 C   0  0  0  0  0  3  0  0  0  0  0  0
  186.9930  177.6330  138.9230 O   0  0  0  0  0  0  0  0  0  0  0  0
  186.2520  178.0980  138.0140 C   0  0  0  0  0  0  0  0  0  0  0  0
  184.8320  178.1240  138.1800 N   0  0  0  0  0  2  0  0  0  0  0  0
  188.8010  176.7600  135.6670 C   0  0  0  0  0  0  0  0  0  0  0  0
  186.5250  177.7780  135.5490 C   0  0  0  0  0  2  0  0  0  0  0  0
  188.8500  179.7320  137.5550 O   0  0  0  0  0  0  0  0  0  0  0  0
  189.7730  175.7910  135.0970 C   0  0  0  0  0  1  0  0  0  0  0  0
  187.3300  176.4790  135.5370 C   0  0  0  0  0  2  0  0  0  0  0  0
  188.3650  178.7670  136.9090 C   0  0  0  0  0  0  0  0  0  0  0  0
  186.8740  178.6400  136.7660 C   0  0  2  0  0  3  0  0  0  0  0  0
  189.2400  177.7910  136.3270 N   0  0  0  0  0  0  0  0  0  0  0  0
  1  6  1  0  0  0  0
  1  9  1  0  0  0  0
  2  3  1  6  0  0  0
  2  5  1  0  0  0  0
  3  7  1  0  0  0  0
  4 11  1  0  0  0  0
  4  7  2  0  0  0  0
  5 16  2  0  0  0  0
  5 14  1  0  0  0  0
  8 23  1  6  0  0  0
  8 12  1  0  0  0  0
 10 19  1  0  0  0  0
 10 18  1  0  0  0  0
 12 16  1  0  0  0  0
 13 18  1  6  0  0  0
 13  8  1  0  0  0  0
 13  2  1  0  0  0  0
 14  1  2  0  0  0  0
 15  4  1  0  0  0  0
 16 17  1  0  0  0  0
 17  6  2  0  0  0  0
 19  3  2  0  0  0  0
 20 15  2  0  0  0  0
 20 19  1  0  0  0  0
 22 23  1  0  0  0  0
 22 21  2  0  0  0  0
 24 31  2  0  0  0  0
 25 30  1  0  0  0  0
 27 24  1  0  0  0  0
 28 25  1  0  0  0  0
 28 24  1  0  0  0  0
 29 26  2  0  0  0  0
 30 29  1  0  0  0  0
 30 22  1  1  0  0  0
 31 29  1  0  0  0  0
M  END
>  <MODEL>
1

>  <REMARK>
 VINA RESULT:      -6.5      0.000      0.000
  Name = 
  2 active torsions:
  status: ('A' for Active; 'I' for Inactive)
    1  A    between atoms: C_5  and  C_30
    2  A    between atoms: C_10  and  N_16
                            x       y       z     vdW  Elec       q    Type
                         _______ _______ _______ _____ _____    ______ ____

>  <TORSDO>
F 2

$$$$
=
 OpenBabel11122411153D

 31 35  0  0  1  0  0  0  0  0999 V2000
  191.7560  176.7320  138.5700 C   0  0  0  0  0  0  0  0  0  0  0  0
  188.4440  177.1070  136.7460 C   0  0  2  0  0  3  0  0  0  0  0  0
  187.6440  175.8220  136.6450 C   0  0  0  0  0  0  0  0  0  0  0  0
  187.4690  173.4150  136.7980 C   0  0  0  0  0  0  0  0  0  0  0  0
  189.4760  177.0880  137.8360 C   0  0  0  0  0  0  0  0  0  0  0  0
  191.3870  177.0640  139.8780 C   0  0  0  0  0  3  0  0  0  0  0  0
  188.2210  174.5820  136.9470 C   0  0  0  0  0  3  0  0  0  0  0  0
  186.9890  178.5730  138.3590 C   0  0  1  0  0  3  0  0  0  0  0  0
  193.1020  176.3800  138.2790 N   0  0  0  0  0  1  0  0  0  0  0  0
  185.7110  177.1040  135.8070 N   0  0  0  0  0  2  0  0  0  0  0  0
  188.0450  172.1540  137.1180 N   0  0  0  0  0  1  0  0  0  0  0  0
  187.6800  177.7430  139.4570 C   0  0  0  0  0  2  0  0  0  0  0  0
  187.5290  178.3370  136.9140 C   0  0  2  0  0  3  0  0  0  0  0  0
  190.8000  176.7410  137.5490 C   0  0  0  0  0  3  0  0  0  0  0  0
  186.1880  173.4820  136.3460 N   0  0  0  0  0  0  0  0  0  0  0  0
  189.1100  177.4340  139.1450 C   0  0  0  0  0  0  0  0  0  0  0  0
  190.0630  177.4110  140.1670 C   0  0  0  0  0  3  0  0  0  0  0  0
  186.4620  178.3580  135.8130 C   0  0  0  0  0  2  0  0  0  0  0  0
  186.3280  175.8580  136.1460 C   0  0  0  0  0  0  0  0  0  0  0  0
  185.6090  174.6680  136.0200 C   0  0  0  0  0  3  0  0  0  0  0  0
  185.2620  179.5860  140.4220 O   0  0  0  0  0  0  0  0  0  0  0  0
  184.7440  178.8840  139.5120 C   0  0  0  0  0  0  0  0  0  0  0  0
  185.5480  178.3740  138.4440 N   0  0  0  0  0  2  0  0  0  0  0  0
  182.4970  176.8810  137.3360 C   0  0  0  0  0  0  0  0  0  0  0  0
  183.0380  177.0740  139.7650 C   0  0  0  0  0  2  0  0  0  0  0  0
  182.2940  180.2840  138.2190 O   0  0  0  0  0  0  0  0  0  0  0  0
  182.1010  176.0020  136.2050 C   0  0  0  0  0  1  0  0  0  0  0  0
  183.2850  176.2940  138.4740 C   0  0  0  0  0  2  0  0  0  0  0  0
  182.5710  179.0610  138.3370 C   0  0  0  0  0  0  0  0  0  0  0  0
  183.2820  178.5730  139.5670 C   0  0  2  0  0  3  0  0  0  0  0  0
  182.2190  178.1500  137.2860 N   0  0  0  0  0  0  0  0  0  0  0  0
  1  6  1  0  0  0  0
  2  3  1  1  0  0  0
  2 13  1  0  0  0  0
  2  5  1  0  0  0  0
  3  7  1  0  0  0  0
  4  7  2  0  0  0  0
  4 11  1  0  0  0  0
  5 16  2  0  0  0  0
  6 17  2  0  0  0  0
  8 23  1  6  0  0  0
  8 12  1  0  0  0  0
  9  1  1  0  0  0  0
 10 18  1  0  0  0  0
 10 19  1  0  0  0  0
 13 18  1  6  0  0  0
 13  8  1  0  0  0  0
 14  5  1  0  0  0  0
 14  1  2  0  0  0  0
 15  4  1  0  0  0  0
 16 12  1  0  0  0  0
 16 17  1  0  0  0  0
 19  3  2  0  0  0  0
 20 19  1  0  0  0  0
 20 15  2  0  0  0  0
 22 21  2  0  0  0  0
 23 22  1  0  0  0  0
 24 28  1  0  0  0  0
 26 29  2  0  0  0  0
 27 24  1  0  0  0  0
 28 25  1  0  0  0  0
 29 30  1  0  0  0  0
 30 22  1  6  0  0  0
 30 25  1  0  0  0  0
 31 24  2  0  0  0  0
 31 29  1  0  0  0  0
M  END
>  <MODEL>
2

>  <REMARK>
 VINA RESULT:      -6.3      2.850      7.701
  Name = 
  2 active torsions:
  status: ('A' for Active; 'I' for Inactive)
    1  A    between atoms: C_5  and  C_30
    2  A    between atoms: C_10  and  N_16
                            x       y       z     vdW  Elec       q    Type
                         _______ _______ _______ _____ _____    ______ ____

>  <TORSDO>
F 2

$$$$
=
 OpenBabel11122411153D

 31 35  0  0  1  0  0  0  0  0999 V2000
  183.0000  172.3510  135.9650 C   0  0  0  0  0  0  0  0  0  0  0  0
  184.5280  175.8300  136.0210 C   0  0  2  0  0  3  0  0  0  0  0  0
  184.1600  176.6470  137.2450 C   0  0  0  0  0  0  0  0  0  0  0  0
  182.7900  177.0440  139.1970 C   0  0  0  0  0  0  0  0  0  0  0  0
  184.3430  174.3520  136.2080 C   0  0  0  0  0  0  0  0  0  0  0  0
  184.0170  171.5960  136.5580 C   0  0  0  0  0  3  0  0  0  0  0  0
  183.1320  176.2430  138.1060 C   0  0  0  0  0  3  0  0  0  0  0  0
  187.0900  175.3960  136.3570 C   0  0  1  0  0  3  0  0  0  0  0  0
  181.8000  171.7170  135.5420 N   0  0  0  0  0  1  0  0  0  0  0  0
  185.8340  178.3400  136.6030 N   0  0  0  0  0  2  0  0  0  0  0  0
  181.7570  176.6320  140.0840 N   0  0  0  0  0  1  0  0  0  0  0  0
  186.6010  174.2730  137.2910 C   0  0  0  0  0  2  0  0  0  0  0  0
  185.9670  176.1210  135.5510 C   0  0  2  0  0  3  0  0  0  0  0  0
  183.1610  173.7290  135.7920 C   0  0  0  0  0  3  0  0  0  0  0  0
  183.4410  178.2180  139.4120 N   0  0  0  0  0  0  0  0  0  0  0  0
  185.3670  173.5920  136.7910 C   0  0  0  0  0  0  0  0  0  0  0  0
  185.2000  172.2170  136.9760 C   0  0  0  0  0  3  0  0  0  0  0  0
  186.1710  177.6300  135.3710 C   0  0  0  0  0  2  0  0  0  0  0  0
  184.7930  177.8840  137.4730 C   0  0  0  0  0  0  0  0  0  0  0  0
  184.4250  178.6500  138.5800 C   0  0  0  0  0  3  0  0  0  0  0  0
  189.8630  175.9940  135.8900 O   0  0  0  0  0  0  0  0  0  0  0  0
  189.2910  176.5690  136.8550 C   0  0  0  0  0  0  0  0  0  0  0  0
  187.9060  176.3310  137.1210 N   0  0  0  0  0  2  0  0  0  0  0  0
  188.8330  177.7470  140.3480 C   0  0  0  0  0  0  0  0  0  0  0  0
  190.6450  176.7500  138.9490 C   0  0  0  0  0  2  0  0  0  0  0  0
  189.0530  179.6190  137.3730 O   0  0  0  0  0  0  0  0  0  0  0  0
  188.2050  177.8640  141.6890 C   0  0  0  0  0  1  0  0  0  0  0  0
  189.5600  176.4800  139.9910 C   0  0  0  0  0  2  0  0  0  0  0  0
  189.2550  178.6660  138.1710 C   0  0  0  0  0  0  0  0  0  0  0  0
  190.0790  177.4890  137.7320 C   0  0  2  0  0  3  0  0  0  0  0  0
  188.6820  178.7080  139.4850 N   0  0  0  0  0  0  0  0  0  0  0  0
  1  6  1  0  0  0  0
  2  5  1  1  0  0  0
  2  3  1  0  0  0  0
  3 19  2  0  0  0  0
  3  7  1  0  0  0  0
  4 15  1  0  0  0  0
  4 11  1  0  0  0  0
  5 16  2  0  0  0  0
  6 17  2  0  0  0  0
  7  4  2  0  0  0  0
  8 23  1  1  0  0  0
  8 12  1  0  0  0  0
  9  1  1  0  0  0  0
 10 19  1  0  0  0  0
 13 18  1  1  0  0  0
 13  2  1  0  0  0  0
 13  8  1  0  0  0  0
 14  1  2  0  0  0  0
 14  5  1  0  0  0  0
 16 17  1  0  0  0  0
 16 12  1  0  0  0  0
 18 10  1  0  0  0  0
 19 20  1  0  0  0  0
 20 15  2  0  0  0  0
 21 22  2  0  0  0  0
 22 23  1  0  0  0  0
 24 27  1  0  0  0  0
 25 28  1  0  0  0  0
 26 29  2  0  0  0  0
 28 24  1  0  0  0  0
 29 31  1  0  0  0  0
 30 22  1  1  0  0  0
 30 29  1  0  0  0  0
 30 25  1  0  0  0  0
 31 24  2  0  0  0  0
M  END
>  <MODEL>
3

>  <REMARK>
 VINA RESULT:      -6.2      3.136      5.906
  Name = 
  2 active torsions:
  status: ('A' for Active; 'I' for Inactive)
    1  A    between atoms: C_5  and  C_30
    2  A    between atoms: C_10  and  N_16
                            x       y       z     vdW  Elec       q    Type
                         _______ _______ _______ _____ _____    ______ ____

>  <TORSDO>
F 2

$$$$
=
 OpenBabel11122411153D

 31 35  0  0  1  0  0  0  0  0999 V2000
  191.3490  176.7560  138.2570 C   0  0  0  0  0  0  0  0  0  0  0  0
  188.0270  176.7870  136.4120 C   0  0  2  0  0  3  0  0  0  0  0  0
  187.3080  175.4520  136.4100 C   0  0  0  0  0  0  0  0  0  0  0  0
  187.2800  173.0570  136.7480 C   0  0  0  0  0  0  0  0  0  0  0  0
  189.0540  176.9150  137.5000 C   0  0  0  0  0  0  0  0  0  0  0  0
  190.9560  177.1650  139.5350 C   0  0  0  0  0  3  0  0  0  0  0  0
  187.9590  174.2760  136.8060 C   0  0  0  0  0  3  0  0  0  0  0  0
  186.4800  178.2810  137.9090 C   0  0  1  0  0  3  0  0  0  0  0  0
  192.7160  176.4670  137.9930 N   0  0  0  0  0  1  0  0  0  0  0  0
  185.3040  176.5440  135.4780 N   0  0  0  0  0  2  0  0  0  0  0  0
  187.9310  171.8620  137.1630 N   0  0  0  0  0  1  0  0  0  0  0  0
  187.2160  177.5810  139.0670 C   0  0  0  0  0  2  0  0  0  0  0  0
  187.0380  177.9680  136.4860 C   0  0  2  0  0  3  0  0  0  0  0  0
  190.3990  176.6290  137.2390 C   0  0  0  0  0  3  0  0  0  0  0  0
  185.9990  173.0110  136.2930 N   0  0  0  0  0  0  0  0  0  0  0  0
  188.6630  177.3370  138.7780 C   0  0  0  0  0  0  0  0  0  0  0  0
  189.6120  177.4510  139.7980 C   0  0  0  0  0  3  0  0  0  0  0  0
  185.9760  177.8390  135.3870 C   0  0  0  0  0  2  0  0  0  0  0  0
  185.9940  175.3680  135.9120 C   0  0  0  0  0  0  0  0  0  0  0  0
  185.3500  174.1300  135.8780 C   0  0  0  0  0  3  0  0  0  0  0  0
  184.5550  179.8200  139.3900 O   0  0  0  0  0  0  0  0  0  0  0  0
  184.1480  178.7920  138.7850 C   0  0  0  0  0  0  0  0  0  0  0  0
  185.0530  178.0000  138.0110 N   0  0  0  0  0  2  0  0  0  0  0  0
  180.9830  180.7350  138.8660 C   0  0  0  0  0  0  0  0  0  0  0  0
  181.9250  178.7740  137.6400 C   0  0  0  0  0  2  0  0  0  0  0  0
  182.2870  178.4970  141.2510 O   0  0  0  0  0  0  0  0  0  0  0  0
  180.1000  181.9290  138.8310 C   0  0  0  0  0  1  0  0  0  0  0  0
  181.6380  180.2750  137.5930 C   0  0  0  0  0  2  0  0  0  0  0  0
  182.0710  179.0000  140.1180 C   0  0  0  0  0  0  0  0  0  0  0  0
  182.7100  178.3950  138.9000 C   0  0  2  0  0  3  0  0  0  0  0  0
  181.2280  180.1540  140.0040 N   0  0  0  0  0  0  0  0  0  0  0  0
  1  6  1  0  0  0  0
  2  3  1  1  0  0  0
  2 13  1  0  0  0  0
  2  5  1  0  0  0  0
  3  7  1  0  0  0  0
  4  7  2  0  0  0  0
  4 11  1  0  0  0  0
  5 16  2  0  0  0  0
  6 17  2  0  0  0  0
  8 23  1  6  0  0  0
  8 12  1  0  0  0  0
  9  1  1  0  0  0  0
 10 19  1  0  0  0  0
 13 18  1  6  0  0  0
 13  8  1  0  0  0  0
 14  5  1  0  0  0  0
 14  1  2  0  0  0  0
 15  4  1  0  0  0  0
 16 12  1  0  0  0  0
 16 17  1  0  0  0  0
 18 10  1  0  0  0  0
 19  3  2  0  0  0  0
 20 19  1  0  0  0  0
 20 15  2  0  0  0  0
 22 21  2  0  0  0  0
 23 22  1  0  0  0  0
 24 31  2  0  0  0  0
 25 30  1  0  0  0  0
 27 24  1  0  0  0  0
 28 25  1  0  0  0  0
 28 24  1  0  0  0  0
 29 26  2  0  0  0  0
 30 22  1  6  0  0  0
 30 29  1  0  0  0  0
 31 29  1  0  0  0  0
M  END
>  <MODEL>
4

>  <REMARK>
 VINA RESULT:      -6.1      2.813      8.085
  Name = 
  2 active torsions:
  status: ('A' for Active; 'I' for Inactive)
    1  A    between atoms: C_5  and  C_30
    2  A    between atoms: C_10  and  N_16
                            x       y       z     vdW  Elec       q    Type
                         _______ _______ _______ _____ _____    ______ ____

>  <TORSDO>
F 2

$$$$
=
 OpenBabel11122411153D

 31 35  0  0  1  0  0  0  0  0999 V2000
  180.5170  179.0470  143.0670 C   0  0  0  0  0  0  0  0  0  0  0  0
  180.6800  177.7820  139.4870 C   0  0  2  0  0  3  0  0  0  0  0  0
  180.7600  178.8820  138.4460 C   0  0  0  0  0  0  0  0  0  0  0  0
  180.5450  181.1980  137.7860 C   0  0  0  0  0  0  0  0  0  0  0  0
  181.0900  178.2250  140.8620 C   0  0  0  0  0  0  0  0  0  0  0  0
  181.8710  179.0420  143.4200 C   0  0  0  0  0  3  0  0  0  0  0  0
  180.5080  180.2190  138.7790 C   0  0  0  0  0  3  0  0  0  0  0  0
  183.0360  176.6460  139.3180 C   0  0  1  0  0  3  0  0  0  0  0  0
  179.5390  179.4690  144.0080 N   0  0  0  0  0  1  0  0  0  0  0  0
  181.2390  177.1920  136.7140 N   0  0  0  0  0  2  0  0  0  0  0  0
  180.3050  182.5600  138.1210 N   0  0  0  0  0  1  0  0  0  0  0  0
  183.4760  177.8240  140.2080 C   0  0  0  0  0  2  0  0  0  0  0  0
  181.4980  176.5420  139.0720 C   0  0  2  0  0  3  0  0  0  0  0  0
  180.1260  178.6410  141.7870 C   0  0  0  0  0  3  0  0  0  0  0  0
  180.8090  180.8530  136.4970 N   0  0  0  0  0  0  0  0  0  0  0  0
  182.4450  178.2090  141.2210 C   0  0  0  0  0  0  0  0  0  0  0  0
  182.8360  178.6280  142.4960 C   0  0  0  0  0  3  0  0  0  0  0  0
  181.0970  176.0890  137.6630 C   0  0  0  0  0  2  0  0  0  0  0  0
  180.9970  178.5500  137.0980 C   0  0  0  0  0  0  0  0  0  0  0  0
  181.0330  179.5610  136.1370 C   0  0  0  0  0  3  0  0  0  0  0  0
  184.1810  174.3810  137.9680 O   0  0  0  0  0  0  0  0  0  0  0  0
  184.3550  175.5210  137.4590 C   0  0  0  0  0  0  0  0  0  0  0  0
  183.7880  176.6820  138.0710 N   0  0  0  0  0  2  0  0  0  0  0  0
  187.3520  177.5430  136.6070 C   0  0  0  0  0  0  0  0  0  0  0  0
  186.6130  175.1640  136.4450 C   0  0  0  0  0  2  0  0  0  0  0  0
  184.1810  177.5000  135.0760 O   0  0  0  0  0  0  0  0  0  0  0  0
  188.4720  178.4980  136.8130 C   0  0  0  0  0  1  0  0  0  0  0  0
  187.4260  176.1830  137.2420 C   0  0  0  0  0  2  0  0  0  0  0  0
  185.1790  177.0640  135.7060 C   0  0  0  0  0  0  0  0  0  0  0  0
  185.1790  175.6510  136.2160 C   0  0  2  0  0  3  0  0  0  0  0  0
  186.3000  177.9260  135.9430 N   0  0  0  0  0  0  0  0  0  0  0  0
  1  6  1  0  0  0  0
  1  9  1  0  0  0  0
  2  3  1  6  0  0  0
  2  5  1  0  0  0  0
  3  7  1  0  0  0  0
  4 11  1  0  0  0  0
  4  7  2  0  0  0  0
  5 16  2  0  0  0  0
  5 14  1  0  0  0  0
  8 23  1  6  0  0  0
  8 12  1  0  0  0  0
 10 19  1  0  0  0  0
 10 18  1  0  0  0  0
 12 16  1  0  0  0  0
 13 18  1  6  0  0  0
 13  8  1  0  0  0  0
 13  2  1  0  0  0  0
 14  1  2  0  0  0  0
 15  4  1  0  0  0  0
 16 17  1  0  0  0  0
 17  6  2  0  0  0  0
 19  3  2  0  0  0  0
 20 15  2  0  0  0  0
 20 19  1  0  0  0  0
 22 21  2  0  0  0  0
 22 23  1  0  0  0  0
 24 27  1  0  0  0  0
 24 28  1  0  0  0  0
 25 28  1  0  0  0  0
 26 29  2  0  0  0  0
 29 31  1  0  0  0  0
 29 30  1  0  0  0  0
 30 25  1  0  0  0  0
 30 22  1  1  0  0  0
 31 24  2  0  0  0  0
M  END
>  <MODEL>
5

>  <REMARK>
 VINA RESULT:      -5.8      1.827      2.175
  Name = 
  2 active torsions:
  status: ('A' for Active; 'I' for Inactive)
    1  A    between atoms: C_5  and  C_30
    2  A    between atoms: C_10  and  N_16
                            x       y       z     vdW  Elec       q    Type
                         _______ _______ _______ _____ _____    ______ ____

>  <TORSDO>
F 2

$$$$
=
 OpenBabel11122411153D

 31 35  0  0  1  0  0  0  0  0999 V2000
  191.2630  176.0330  136.1370 C   0  0  0  0  0  0  0  0  0  0  0  0
  187.5980  176.3170  135.1750 C   0  0  2  0  0  3  0  0  0  0  0  0
  186.8260  175.0160  135.2900 C   0  0  0  0  0  0  0  0  0  0  0  0
  186.7450  172.6100  135.5140 C   0  0  0  0  0  0  0  0  0  0  0  0
  188.8650  176.3360  135.9790 C   0  0  0  0  0  0  0  0  0  0  0  0
  191.2180  176.3840  137.4910 C   0  0  0  0  0  3  0  0  0  0  0  0
  187.4850  173.7920  135.4580 C   0  0  0  0  0  3  0  0  0  0  0  0
  186.5510  177.7870  137.0750 C   0  0  1  0  0  3  0  0  0  0  0  0
  192.5040  175.7000  135.5300 N   0  0  0  0  0  1  0  0  0  0  0  0
  184.7190  176.2480  134.9330 N   0  0  0  0  0  2  0  0  0  0  0  0
  187.4080  171.3650  135.7000 N   0  0  0  0  0  1  0  0  0  0  0  0
  187.5070  176.9890  137.9810 C   0  0  0  0  0  2  0  0  0  0  0  0
  186.7250  177.5340  135.5440 C   0  0  2  0  0  3  0  0  0  0  0  0
  190.0860  176.0070  135.3810 C   0  0  0  0  0  3  0  0  0  0  0  0
  185.3920  172.6460  135.3880 N   0  0  0  0  0  0  0  0  0  0  0  0
  188.8230  176.7000  137.3330 C   0  0  0  0  0  0  0  0  0  0  0  0
  189.9970  176.7120  138.0910 C   0  0  0  0  0  3  0  0  0  0  0  0
  185.4210  177.5160  134.7380 C   0  0  0  0  0  2  0  0  0  0  0  0
  185.4270  175.0200  135.1280 C   0  0  0  0  0  0  0  0  0  0  0  0
  184.7250  173.8150  135.1980 C   0  0  0  0  0  3  0  0  0  0  0  0
  185.0880  179.4090  138.9440 O   0  0  0  0  0  0  0  0  0  0  0  0
  184.5110  178.3950  138.4670 C   0  0  0  0  0  0  0  0  0  0  0  0
  185.1790  177.5640  137.5130 N   0  0  0  0  0  2  0  0  0  0  0  0
  182.0220  175.8780  137.3440 C   0  0  0  0  0  0  0  0  0  0  0  0
  183.0590  176.6330  139.4860 C   0  0  0  0  0  2  0  0  0  0  0  0
  181.7320  179.3830  137.5050 O   0  0  0  0  0  0  0  0  0  0  0  0
  181.4640  174.7540  136.5490 C   0  0  0  0  0  1  0  0  0  0  0  0
  183.0830  175.5900  138.3690 C   0  0  0  0  0  2  0  0  0  0  0  0
  182.1290  178.2290  137.8130 C   0  0  0  0  0  0  0  0  0  0  0  0
  183.1270  178.0560  138.9220 C   0  0  2  0  0  3  0  0  0  0  0  0
  181.6350  177.0930  137.0910 N   0  0  0  0  0  0  0  0  0  0  0  0
  1  6  1  0  0  0  0
  2  3  1  1  0  0  0
  2 13  1  0  0  0  0
  2  5  1  0  0  0  0
  3  7  1  0  0  0  0
  4 11  1  0  0  0  0
  5 16  2  0  0  0  0
  6 17  2  0  0  0  0
  7  4  2  0  0  0  0
  8 23  1  1  0  0  0
  8 12  1  0  0  0  0
  9  1  1  0  0  0  0
 10 19  1  0  0  0  0
 13 18  1  1  0  0  0
 13  8  1  0  0  0  0
 14  5  1  0  0  0  0
 14  1  2  0  0  0  0
 15  4  1  0  0  0  0
 16 12  1  0  0  0  0
 16 17  1  0  0  0  0
 18 10  1  0  0  0  0
 19 20  1  0  0  0  0
 19  3  2  0  0  0  0
 20 15  2  0  0  0  0
 22 21  2  0  0  0  0
 23 22  1  0  0  0  0
 24 28  1  0  0  0  0
 26 29  2  0  0  0  0
 27 24  1  0  0  0  0
 28 25  1  0  0  0  0
 29 30  1  0  0  0  0
 30 22  1  6  0  0  0
 30 25  1  0  0  0  0
 31 24  2  0  0  0  0
 31 29  1  0  0  0  0
M  END
>  <MODEL>
6

>  <REMARK>
 VINA RESULT:      -5.2      3.065      8.132
  Name = 
  2 active torsions:
  status: ('A' for Active; 'I' for Inactive)
    1  A    between atoms: C_5  and  C_30
    2  A    between atoms: C_10  and  N_16
                            x       y       z     vdW  Elec       q    Type
                         _______ _______ _______ _____ _____    ______ ____

>  <TORSDO>
F 2

$$$$
=
 OpenBabel11122411153D

 31 35  0  0  1  0  0  0  0  0999 V2000
  187.3730  177.3400  136.5370 C   0  0  0  0  0  0  0  0  0  0  0  0
  183.6040  177.0660  136.1420 C   0  0  2  0  0  3  0  0  0  0  0  0
  183.0350  175.7210  136.5530 C   0  0  0  0  0  0  0  0  0  0  0  0
  183.3060  173.3840  137.1090 C   0  0  0  0  0  0  0  0  0  0  0  0
  184.9580  177.3490  136.7240 C   0  0  0  0  0  0  0  0  0  0  0  0
  187.4740  177.8870  137.8210 C   0  0  0  0  0  3  0  0  0  0  0  0
  183.8680  174.6180  136.7770 C   0  0  0  0  0  3  0  0  0  0  0  0
  182.6510  178.6850  137.9690 C   0  0  1  0  0  3  0  0  0  0  0  0
  188.5490  177.0570  135.7900 N   0  0  0  0  0  1  0  0  0  0  0  0
  180.7550  176.6440  136.3740 N   0  0  0  0  0  2  0  0  0  0  0  0
  184.1480  172.2630  137.3530 N   0  0  0  0  0  1  0  0  0  0  0  0
  183.8230  178.1460  138.8100 C   0  0  0  0  0  2  0  0  0  0  0  0
  182.6390  178.2210  136.4790 C   0  0  2  0  0  3  0  0  0  0  0  0
  186.1150  177.0690  135.9890 C   0  0  0  0  0  3  0  0  0  0  0  0
  181.9560  173.2510  137.1970 N   0  0  0  0  0  0  0  0  0  0  0  0
  185.0600  177.9080  138.0050 C   0  0  0  0  0  0  0  0  0  0  0  0
  186.3190  178.1660  138.5580 C   0  0  0  0  0  3  0  0  0  0  0  0
  181.2470  177.9360  135.9010 C   0  0  0  0  0  2  0  0  0  0  0  0
  181.6390  175.5450  136.6180 C   0  0  0  0  0  0  0  0  0  0  0  0
  181.1200  174.2960  136.9600 C   0  0  0  0  0  3  0  0  0  0  0  0
  180.7870  180.6070  139.0150 O   0  0  0  0  0  0  0  0  0  0  0  0
  180.5200  179.3850  139.1680 C   0  0  0  0  0  0  0  0  0  0  0  0
  181.3970  178.3820  138.6470 N   0  0  0  0  0  2  0  0  0  0  0  0
  179.8920  178.4910  142.7180 C   0  0  0  0  0  0  0  0  0  0  0  0
  178.9350  180.0220  140.9940 C   0  0  0  0  0  2  0  0  0  0  0  0
  179.3040  176.6020  139.8050 O   0  0  0  0  0  0  0  0  0  0  0  0
  180.1980  178.2530  144.1520 C   0  0  0  0  0  1  0  0  0  0  0  0
  179.8610  179.9030  142.2040 C   0  0  0  0  0  2  0  0  0  0  0  0
  179.4310  177.6250  140.5270 C   0  0  0  0  0  0  0  0  0  0  0  0
  179.2870  178.9900  139.9180 C   0  0  2  0  0  3  0  0  0  0  0  0
  179.7270  177.4750  141.9230 N   0  0  0  0  0  0  0  0  0  0  0  0
  1  6  1  0  0  0  0
  2 13  1  0  0  0  0
  2  3  1  1  0  0  0
  2  5  1  0  0  0  0
  3 19  2  0  0  0  0
  3  7  1  0  0  0  0
  4 15  1  0  0  0  0
  4 11  1  0  0  0  0
  5 16  2  0  0  0  0
  6 17  2  0  0  0  0
  7  4  2  0  0  0  0
  8 23  1  1  0  0  0
  8 12  1  0  0  0  0
  9  1  1  0  0  0  0
 10 19  1  0  0  0  0
 13 18  1  1  0  0  0
 13  8  1  0  0  0  0
 14  1  2  0  0  0  0
 14  5  1  0  0  0  0
 16 17  1  0  0  0  0
 16 12  1  0  0  0  0
 18 10  1  0  0  0  0
 19 20  1  0  0  0  0
 20 15  2  0  0  0  0
 21 22  2  0  0  0  0
 23 22  1  0  0  0  0
 24 27  1  0  0  0  0
 25 28  1  0  0  0  0
 26 29  2  0  0  0  0
 28 24  1  0  0  0  0
 29 31  1  0  0  0  0
 30 22  1  1  0  0  0
 30 29  1  0  0  0  0
 30 25  1  0  0  0  0
 31 24  2  0  0  0  0
M  END
>  <MODEL>
7

>  <REMARK>
 VINA RESULT:      -5.2      2.890      7.757
  Name = 
  2 active torsions:
  status: ('A' for Active; 'I' for Inactive)
    1  A    between atoms: C_5  and  C_30
    2  A    between atoms: C_10  and  N_16
                            x       y       z     vdW  Elec       q    Type
                         _______ _______ _______ _____ _____    ______ ____

>  <TORSDO>
F 2

$$$$
=
 OpenBabel11122411153D

 31 35  0  0  1  0  0  0  0  0999 V2000
  187.9400  177.6850  148.6380 C   0  0  0  0  0  0  0  0  0  0  0  0
  187.8930  176.7900  144.9450 C   0  0  2  0  0  3  0  0  0  0  0  0
  187.0110  177.6900  144.1010 C   0  0  0  0  0  0  0  0  0  0  0  0
  185.2670  179.3520  143.8840 C   0  0  0  0  0  0  0  0  0  0  0  0
  188.2910  177.3980  146.2580 C   0  0  0  0  0  0  0  0  0  0  0  0
  189.0490  178.5340  148.6990 C   0  0  0  0  0  3  0  0  0  0  0  0
  186.0950  178.5710  144.6920 C   0  0  0  0  0  3  0  0  0  0  0  0
  190.3040  177.3900  144.1120 C   0  0  1  0  0  3  0  0  0  0  0  0
  187.1970  177.3990  149.8160 N   0  0  0  0  0  1  0  0  0  0  0  0
  187.9430  176.6720  142.0580 N   0  0  0  0  0  2  0  0  0  0  0  0
  184.3460  180.2590  144.4790 N   0  0  0  0  0  1  0  0  0  0  0  0
  190.1500  178.5860  145.0710 C   0  0  0  0  0  2  0  0  0  0  0  0
  189.1510  176.3400  144.1750 C   0  0  2  0  0  3  0  0  0  0  0  0
  187.5580  177.1180  147.4170 C   0  0  0  0  0  3  0  0  0  0  0  0
  185.3370  179.2440  142.5310 N   0  0  0  0  0  0  0  0  0  0  0  0
  189.4100  178.2400  146.3230 C   0  0  0  0  0  0  0  0  0  0  0  0
  189.7820  178.8170  147.5410 C   0  0  0  0  0  3  0  0  0  0  0  0
  188.7570  175.7300  142.8250 C   0  0  0  0  0  2  0  0  0  0  0  0
  187.0370  177.5760  142.6990 C   0  0  0  0  0  0  0  0  0  0  0  0
  186.1960  178.3810  141.9280 C   0  0  0  0  0  3  0  0  0  0  0  0
  192.1150  176.2850  142.1720 O   0  0  0  0  0  0  0  0  0  0  0  0
  191.4540  177.3070  141.8460 C   0  0  0  0  0  0  0  0  0  0  0  0
  190.5190  177.8870  142.7590 N   0  0  0  0  0  2  0  0  0  0  0  0
  191.2800  175.9590  138.3890 C   0  0  0  0  0  0  0  0  0  0  0  0
  190.3850  177.9080  139.6670 C   0  0  0  0  0  2  0  0  0  0  0  0
  193.9800  177.4900  140.0520 O   0  0  0  0  0  0  0  0  0  0  0  0
  191.0630  174.9600  137.3110 C   0  0  0  0  0  1  0  0  0  0  0  0
  190.0890  176.5110  139.1220 C   0  0  0  0  0  2  0  0  0  0  0  0
  192.7830  177.2360  139.7570 C   0  0  0  0  0  0  0  0  0  0  0  0
  191.6710  177.9220  140.4990 C   0  0  2  0  0  3  0  0  0  0  0  0
  192.4940  176.2820  138.7260 N   0  0  0  0  0  0  0  0  0  0  0  0
  1  6  1  0  0  0  0
  1  9  1  0  0  0  0
  2  3  1  6  0  0  0
  2  5  1  0  0  0  0
  3  7  1  0  0  0  0
  4 11  1  0  0  0  0
  4  7  2  0  0  0  0
  5 16  2  0  0  0  0
  5 14  1  0  0  0  0
  8 23  1  6  0  0  0
  8 13  1  0  0  0  0
  8 12  1  0  0  0  0
 10 19  1  0  0  0  0
 10 18  1  0  0  0  0
 12 16  1  0  0  0  0
 13 18  1  6  0  0  0
 13  2  1  0  0  0  0
 14  1  2  0  0  0  0
 15  4  1  0  0  0  0
 16 17  1  0  0  0  0
 17  6  2  0  0  0  0
 19  3  2  0  0  0  0
 20 15  2  0  0  0  0
 20 19  1  0  0  0  0
 22 21  2  0  0  0  0
 22 23  1  0  0  0  0
 24 31  2  0  0  0  0
 24 28  1  0  0  0  0
 25 30  1  0  0  0  0
 27 24  1  0  0  0  0
 28 25  1  0  0  0  0
 29 26  2  0  0  0  0
 29 30  1  0  0  0  0
 30 22  1  1  0  0  0
 31 29  1  0  0  0  0
M  END
>  <MODEL>
8

>  <REMARK>
 VINA RESULT:      -5.1      5.714      7.261
  Name = 
  2 active torsions:
  status: ('A' for Active; 'I' for Inactive)
    1  A    between atoms: C_5  and  C_30
    2  A    between atoms: C_10  and  N_16
                            x       y       z     vdW  Elec       q    Type
                         _______ _______ _______ _____ _____    ______ ____

>  <TORSDO>
F 2

$$$$
=
 OpenBabel11122411153D

 31 35  0  0  1  0  0  0  0  0999 V2000
  183.8700  179.2190  143.2330 C   0  0  0  0  0  0  0  0  0  0  0  0
  181.6280  177.4790  140.7060 C   0  0  2  0  0  3  0  0  0  0  0  0
  180.7420  178.4210  139.9140 C   0  0  0  0  0  0  0  0  0  0  0  0
  179.7180  180.5850  139.5700 C   0  0  0  0  0  0  0  0  0  0  0  0
  182.8150  178.1540  141.3310 C   0  0  0  0  0  0  0  0  0  0  0  0
  185.0360  179.4040  142.4820 C   0  0  0  0  0  3  0  0  0  0  0  0
  180.5780  179.7590  140.2960 C   0  0  0  0  0  3  0  0  0  0  0  0
  183.2910  176.5780  138.8910 C   0  0  1  0  0  3  0  0  0  0  0  0
  183.8140  179.6680  144.5800 N   0  0  0  0  0  1  0  0  0  0  0  0
  180.1140  176.5600  138.4230 N   0  0  0  0  0  2  0  0  0  0  0  0
  179.5600  181.9490  139.9440 N   0  0  0  0  0  1  0  0  0  0  0  0
  184.0200  177.9100  139.1480 C   0  0  0  0  0  2  0  0  0  0  0  0
  182.0970  176.2830  139.8530 C   0  0  2  0  0  3  0  0  0  0  0  0
  182.7580  178.5960  142.6570 C   0  0  0  0  0  3  0  0  0  0  0  0
  179.0310  180.0880  138.5080 N   0  0  0  0  0  0  0  0  0  0  0  0
  183.9880  178.3280  140.5830 C   0  0  0  0  0  0  0  0  0  0  0  0
  185.0940  178.9630  141.1560 C   0  0  0  0  0  3  0  0  0  0  0  0
  180.8930  175.5950  139.1980 C   0  0  0  0  0  2  0  0  0  0  0  0
  179.9910  177.9260  138.8310 C   0  0  0  0  0  0  0  0  0  0  0  0
  179.1480  178.7880  138.1280 C   0  0  0  0  0  3  0  0  0  0  0  0
  184.9540  175.7440  136.7000 O   0  0  0  0  0  0  0  0  0  0  0  0
  183.7770  176.1110  136.4390 C   0  0  0  0  0  0  0  0  0  0  0  0
  182.8940  176.5130  137.4910 N   0  0  0  0  0  2  0  0  0  0  0  0
  180.5120  176.8930  134.8520 C   0  0  0  0  0  0  0  0  0  0  0  0
  182.9050  177.5560  134.5950 C   0  0  0  0  0  2  0  0  0  0  0  0
  182.4330  173.9480  134.6670 O   0  0  0  0  0  0  0  0  0  0  0  0
  179.0830  177.2940  134.7670 C   0  0  0  0  0  1  0  0  0  0  0  0
  181.5430  177.9370  135.1760 C   0  0  0  0  0  2  0  0  0  0  0  0
  182.1880  175.1770  134.7860 C   0  0  0  0  0  0  0  0  0  0  0  0
  183.3160  176.1420  135.0160 C   0  0  2  0  0  3  0  0  0  0  0  0
  180.8330  175.6400  134.7140 N   0  0  0  0  0  0  0  0  0  0  0  0
  1  9  1  0  0  0  0
  2  3  1  6  0  0  0
  2  5  1  0  0  0  0
  3  7  1  0  0  0  0
  4 11  1  0  0  0  0
  4  7  2  0  0  0  0
  5 14  2  0  0  0  0
  6  1  2  0  0  0  0
  8 23  1  6  0  0  0
  8 12  1  0  0  0  0
  8 13  1  0  0  0  0
 10 19  1  0  0  0  0
 10 18  1  0  0  0  0
 12 16  1  0  0  0  0
 13 18  1  6  0  0  0
 13  2  1  0  0  0  0
 14  1  1  0  0  0  0
 15  4  1  0  0  0  0
 16 17  2  0  0  0  0
 16  5  1  0  0  0  0
 17  6  1  0  0  0  0
 19  3  2  0  0  0  0
 20 15  2  0  0  0  0
 20 19  1  0  0  0  0
 22 21  2  0  0  0  0
 22 23  1  0  0  0  0
 24 28  1  0  0  0  0
 25 30  1  0  0  0  0
 25 28  1  0  0  0  0
 26 29  2  0  0  0  0
 27 24  1  0  0  0  0
 29 30  1  0  0  0  0
 30 22  1  1  0  0  0
 31 29  1  0  0  0  0
 31 24  2  0  0  0  0
M  END
>  <MODEL>
9

>  <REMARK>
 VINA RESULT:      -4.9      3.041      4.409
  Name = 
  2 active torsions:
  status: ('A' for Active; 'I' for Inactive)
    1  A    between atoms: C_5  and  C_30
    2  A    between atoms: C_10  and  N_16
                            x       y       z     vdW  Elec       q    Type
                         _______ _______ _______ _____ _____    ______ ____

>  <TORSDO>
F 2

$$$$
