=
 OpenBabel11122410523D

 32 37  0  0  1  0  0  0  0  0999 V2000
  188.7330  177.2460  148.1210 O   0  0  0  0  0  0  0  0  0  0  0  0
  185.7510  178.4040  144.1640 C   0  0  2  0  0  3  0  0  0  0  0  0
  187.8900  178.2390  139.7290 C   0  0  0  0  0  3  0  0  0  0  0  0
  186.6790  178.5620  139.1210 C   0  0  0  0  0  3  0  0  0  0  0  0
  183.2360  178.6950  144.1710 C   0  0  0  0  0  0  0  0  0  0  0  0
  181.9160  178.6430  143.4470 C   0  0  1  0  0  3  0  0  0  0  0  0
  187.0230  177.3710  146.0620 C   0  0  1  0  0  3  0  0  0  0  0  0
  188.1490  177.6930  143.8480 N   0  0  0  0  0  2  0  0  0  0  0  0
  180.8040  178.8380  141.4190 C   0  0  2  0  0  3  0  0  0  0  0  0
  189.6010  177.2870  145.7660 C   0  0  0  0  0  2  0  0  0  0  0  0
  187.9530  178.0780  141.1120 C   0  0  0  0  0  3  0  0  0  0  0  0
  186.9070  178.0870  143.2490 C   0  0  0  0  0  0  0  0  0  0  0  0
  186.8100  178.2450  141.9150 C   0  0  0  0  0  0  0  0  0  0  0  0
  184.4380  178.6570  142.0210 C   0  0  0  0  0  0  0  0  0  0  0  0
  180.1670  179.8230  142.3920 C   0  0  0  0  0  2  0  0  0  0  0  0
  188.3920  178.5850  147.8400 C   0  0  0  0  0  2  0  0  0  0  0  0
  188.2240  177.0260  145.1480 C   0  0  1  0  0  3  0  0  0  0  0  0
  181.1210  179.9200  143.5550 C   0  0  0  0  0  2  0  0  0  0  0  0
  187.1850  178.6510  146.8970 C   0  0  0  0  0  2  0  0  0  0  0  0
  189.7460  176.8060  147.2260 C   0  0  1  0  0  3  0  0  0  0  0  0
  185.5290  178.7150  139.8970 C   0  0  0  0  0  3  0  0  0  0  0  0
  185.5700  178.5530  141.2950 C   0  0  0  0  0  0  0  0  0  0  0  0
  183.1270  179.0160  141.3790 C   0  0  0  0  0  2  0  0  0  0  0  0
  185.7070  177.3690  145.2870 C   0  0  0  0  0  2  0  0  0  0  0  0
  183.2440  178.8990  145.4150 O   0  0  0  0  0  0  0  0  0  0  0  0
  179.8330  177.7110  141.1210 C   0  0  0  0  0  1  0  0  0  0  0  0
  184.4680  178.5020  143.4510 N   0  0  0  0  0  0  0  0  0  0  0  0
  182.0210  178.2990  142.0210 N   0  0  1  0  0  0  0  0  0  0  0  0
  191.1320  177.1530  147.7550 C   0  0  0  0  0  2  0  0  0  0  0  0
  192.0750  176.0070  147.5760 C   0  0  0  0  0  0  0  0  0  0  0  0
  192.1050  175.2680  146.2840 C   0  0  0  0  0  1  0  0  0  0  0  0
  192.8080  175.6640  148.4900 O   0  0  0  0  0  0  0  0  0  0  0  0
  2 24  1  1  0  0  0
  3 11  2  0  0  0  0
  4  3  1  0  0  0  0
  4 21  2  0  0  0  0
  5 25  2  0  0  0  0
  6 18  1  6  0  0  0
  6  5  1  0  0  0  0
  7 24  1  6  0  0  0
  7 19  1  0  0  0  0
  8 17  1  0  0  0  0
  9 26  1  1  0  0  0
  9 28  1  0  0  0  0
  9 15  1  0  0  0  0
 10 20  1  0  0  0  0
 11 13  1  0  0  0  0
 12  8  1  0  0  0  0
 12  2  1  0  0  0  0
 13 12  2  0  0  0  0
 14 27  1  0  0  0  0
 15 18  1  0  0  0  0
 16  1  1  0  0  0  0
 17 10  1  1  0  0  0
 17  7  1  0  0  0  0
 19 16  1  0  0  0  0
 20 29  1  1  0  0  0
 20  1  1  0  0  0  0
 21 22  1  0  0  0  0
 22 13  1  0  0  0  0
 22 14  2  0  0  0  0
 23 14  1  0  0  0  0
 27  2  1  0  0  0  0
 27  5  1  0  0  0  0
 28 23  1  6  0  0  0
 28  6  1  0  0  0  0
 30 29  1  0  0  0  0
 30 32  2  0  0  0  0
 31 30  1  0  0  0  0
M  END
>  <MODEL>
1

>  <REMARK>
 VINA RESULT:      -9.1      0.000      0.000
  Name = 
  2 active torsions:
  status: ('A' for Active; 'I' for Inactive)
    1  A    between atoms: C_20  and  C_29
    2  A    between atoms: C_29  and  C_30
                            x       y       z     vdW  Elec       q    Type
                         _______ _______ _______ _____ _____    ______ ____

>  <TORSDO>
F 2

$$$$
=
 OpenBabel11122410523D

 32 37  0  0  1  0  0  0  0  0999 V2000
  188.0090  177.8960  144.9830 O   0  0  0  0  0  0  0  0  0  0  0  0
  183.8760  178.3530  142.0500 C   0  0  2  0  0  3  0  0  0  0  0  0
  179.6030  178.9690  144.4230 C   0  0  0  0  0  3  0  0  0  0  0  0
  178.9310  179.0780  143.2080 C   0  0  0  0  0  3  0  0  0  0  0  0
  183.8030  178.6620  139.5380 C   0  0  0  0  0  0  0  0  0  0  0  0
  183.1030  179.1770  138.3080 C   0  0  1  0  0  3  0  0  0  0  0  0
  185.9650  178.6230  143.4110 C   0  0  1  0  0  3  0  0  0  0  0  0
  183.7410  178.5350  144.5610 N   0  0  0  0  0  2  0  0  0  0  0  0
  181.0760  179.6910  137.3000 C   0  0  2  0  0  3  0  0  0  0  0  0
  185.7100  178.1650  145.9540 C   0  0  0  0  0  2  0  0  0  0  0  0
  180.9880  178.8080  144.4410 C   0  0  0  0  0  3  0  0  0  0  0  0
  183.0620  178.5810  143.2980 C   0  0  0  0  0  0  0  0  0  0  0  0
  181.7260  178.7430  143.2460 C   0  0  0  0  0  0  0  0  0  0  0  0
  181.7230  178.8830  140.8400 C   0  0  0  0  0  0  0  0  0  0  0  0
  181.8000  178.6960  136.4020 C   0  0  0  0  0  2  0  0  0  0  0  0
  187.4330  176.7680  144.3650 C   0  0  0  0  0  2  0  0  0  0  0  0
  185.1580  178.8680  144.7100 C   0  0  1  0  0  3  0  0  0  0  0  0
  182.9170  178.1290  137.2400 C   0  0  0  0  0  2  0  0  0  0  0  0
  186.4930  177.1920  143.2310 C   0  0  0  0  0  2  0  0  0  0  0  0
  187.2410  178.2710  146.1190 C   0  0  1  0  0  3  0  0  0  0  0  0
  179.6470  179.0340  142.0110 C   0  0  0  0  0  3  0  0  0  0  0  0
  181.0460  178.8750  142.0060 C   0  0  0  0  0  0  0  0  0  0  0  0
  181.0100  178.9890  139.5210 C   0  0  0  0  0  2  0  0  0  0  0  0
  185.2020  179.1000  142.1760 C   0  0  0  0  0  2  0  0  0  0  0  0
  184.9700  178.1980  139.4280 O   0  0  0  0  0  0  0  0  0  0  0  0
  181.0320  181.0510  136.6280 C   0  0  0  0  0  1  0  0  0  0  0  0
  183.1520  178.7140  140.8220 N   0  0  0  0  0  0  0  0  0  0  0  0
  181.7900  179.7880  138.5710 N   0  0  1  0  0  0  0  0  0  0  0  0
  187.6860  177.5040  147.3580 C   0  0  0  0  0  2  0  0  0  0  0  0
  189.1170  177.7910  147.6800 C   0  0  0  0  0  0  0  0  0  0  0  0
  190.1940  176.9600  147.0720 C   0  0  0  0  0  1  0  0  0  0  0  0
  189.4060  178.6900  148.4520 O   0  0  0  0  0  0  0  0  0  0  0  0
  1 20  1  0  0  0  0
  2 24  1  1  0  0  0
  2 12  1  0  0  0  0
  3 11  2  0  0  0  0
  4  3  1  0  0  0  0
  5 27  1  0  0  0  0
  6 18  1  6  0  0  0
  6 28  1  0  0  0  0
  6  5  1  0  0  0  0
  7 24  1  6  0  0  0
  7 17  1  0  0  0  0
  8 17  1  0  0  0  0
  9 26  1  6  0  0  0
  9 28  1  0  0  0  0
 10 20  1  0  0  0  0
 12  8  1  0  0  0  0
 13 12  2  0  0  0  0
 13 11  1  0  0  0  0
 14 22  2  0  0  0  0
 15 18  1  0  0  0  0
 15  9  1  0  0  0  0
 16  1  1  0  0  0  0
 17 10  1  1  0  0  0
 19  7  1  0  0  0  0
 19 16  1  0  0  0  0
 20 29  1  1  0  0  0
 21  4  2  0  0  0  0
 22 21  1  0  0  0  0
 22 13  1  0  0  0  0
 23 14  1  0  0  0  0
 25  5  2  0  0  0  0
 27 14  1  0  0  0  0
 27  2  1  0  0  0  0
 28 23  1  1  0  0  0
 29 30  1  0  0  0  0
 30 32  2  0  0  0  0
 31 30  1  0  0  0  0
M  END
>  <MODEL>
2

>  <REMARK>
 VINA RESULT:      -8.8      2.470      4.943
  Name = 
  2 active torsions:
  status: ('A' for Active; 'I' for Inactive)
    1  A    between atoms: C_20  and  C_29
    2  A    between atoms: C_29  and  C_30
                            x       y       z     vdW  Elec       q    Type
                         _______ _______ _______ _____ _____    ______ ____

>  <TORSDO>
F 2

$$$$
=
 OpenBabel11122410523D

 32 37  0  0  1  0  0  0  0  0999 V2000
  188.5210  177.0920  147.4450 O   0  0  0  0  0  0  0  0  0  0  0  0
  186.6120  178.1040  142.8370 C   0  0  2  0  0  3  0  0  0  0  0  0
  189.8350  178.0670  139.1110 C   0  0  0  0  0  3  0  0  0  0  0  0
  188.8080  178.3280  138.2060 C   0  0  0  0  0  3  0  0  0  0  0  0
  184.1700  178.2640  142.1890 C   0  0  0  0  0  0  0  0  0  0  0  0
  183.0880  178.1440  141.1490 C   0  0  1  0  0  3  0  0  0  0  0  0
  187.4000  177.1340  145.0120 C   0  0  1  0  0  3  0  0  0  0  0  0
  189.0440  177.5210  143.1620 N   0  0  0  0  0  2  0  0  0  0  0  0
  182.5320  178.2870  138.9000 C   0  0  2  0  0  3  0  0  0  0  0  0
  189.9670  177.1860  145.3960 C   0  0  0  0  0  2  0  0  0  0  0  0
  189.5450  177.9040  140.4650 C   0  0  0  0  0  3  0  0  0  0  0  0
  187.9810  177.8520  142.2570 C   0  0  0  0  0  0  0  0  0  0  0  0
  188.2260  178.0080  140.9420 C   0  0  0  0  0  0  0  0  0  0  0  0
  185.8900  178.2950  140.4250 C   0  0  0  0  0  0  0  0  0  0  0  0
  181.6140  179.2340  139.6640 C   0  0  0  0  0  2  0  0  0  0  0  0
  188.1960  178.4120  147.0710 C   0  0  0  0  0  2  0  0  0  0  0  0
  188.8130  176.8550  144.4440 C   0  0  1  0  0  3  0  0  0  0  0  0
  182.2280  179.3780  141.0330 C   0  0  0  0  0  2  0  0  0  0  0  0
  187.2740  178.4180  145.8470 C   0  0  0  0  0  2  0  0  0  0  0  0
  189.7530  176.7090  146.8480 C   0  0  1  0  0  3  0  0  0  0  0  0
  187.4910  178.4170  138.6560 C   0  0  0  0  0  3  0  0  0  0  0  0
  187.1750  178.2530  140.0180 C   0  0  0  0  0  0  0  0  0  0  0  0
  184.7740  178.5870  139.4610 C   0  0  0  0  0  2  0  0  0  0  0  0
  186.3320  177.0650  143.9210 C   0  0  0  0  0  2  0  0  0  0  0  0
  183.8450  178.4630  143.3900 O   0  0  0  0  0  0  0  0  0  0  0  0
  181.7310  177.1120  138.3720 C   0  0  0  0  0  1  0  0  0  0  0  0
  185.5560  178.1380  141.8150 N   0  0  0  0  0  0  0  0  0  0  0  0
  183.5780  177.8110  139.8020 N   0  0  1  0  0  0  0  0  0  0  0  0
  190.9340  177.1260  147.7140 C   0  0  0  0  0  2  0  0  0  0  0  0
  192.0550  176.1440  147.6000 C   0  0  0  0  0  0  0  0  0  0  0  0
  192.1160  175.2230  146.4310 C   0  0  0  0  0  1  0  0  0  0  0  0
  192.9100  176.0810  148.4690 O   0  0  0  0  0  0  0  0  0  0  0  0
  2 24  1  1  0  0  0
  3 11  2  0  0  0  0
  4 21  2  0  0  0  0
  4  3  1  0  0  0  0
  5 25  2  0  0  0  0
  6 18  1  6  0  0  0
  6  5  1  0  0  0  0
  7 24  1  6  0  0  0
  7 19  1  0  0  0  0
  8 17  1  0  0  0  0
  9 26  1  1  0  0  0
  9 15  1  0  0  0  0
  9 28  1  0  0  0  0
 10 20  1  0  0  0  0
 11 13  1  0  0  0  0
 12  2  1  0  0  0  0
 12  8  1  0  0  0  0
 13 12  2  0  0  0  0
 14 27  1  0  0  0  0
 15 18  1  0  0  0  0
 16  1  1  0  0  0  0
 17  7  1  0  0  0  0
 17 10  1  1  0  0  0
 19 16  1  0  0  0  0
 20  1  1  0  0  0  0
 20 29  1  1  0  0  0
 21 22  1  0  0  0  0
 22 14  2  0  0  0  0
 22 13  1  0  0  0  0
 23 14  1  0  0  0  0
 27  5  1  0  0  0  0
 27  2  1  0  0  0  0
 28 23  1  6  0  0  0
 28  6  1  0  0  0  0
 30 29  1  0  0  0  0
 30 32  2  0  0  0  0
 31 30  1  0  0  0  0
M  END
>  <MODEL>
3

>  <REMARK>
 VINA RESULT:      -8.5      1.458      1.916
  Name = 
  2 active torsions:
  status: ('A' for Active; 'I' for Inactive)
    1  A    between atoms: C_20  and  C_29
    2  A    between atoms: C_29  and  C_30
                            x       y       z     vdW  Elec       q    Type
                         _______ _______ _______ _____ _____    ______ ____

>  <TORSDO>
F 2

$$$$
=
 OpenBabel11122410523D

 32 37  0  0  1  0  0  0  0  0999 V2000
  191.6460  176.5830  143.6650 O   0  0  0  0  0  0  0  0  0  0  0  0
  186.8820  177.7730  142.3310 C   0  0  2  0  0  3  0  0  0  0  0  0
  183.7530  178.6280  146.0400 C   0  0  0  0  0  3  0  0  0  0  0  0
  182.7400  178.9260  145.1310 C   0  0  0  0  0  3  0  0  0  0  0  0
  186.0300  178.3290  140.0130 C   0  0  0  0  0  0  0  0  0  0  0  0
  185.0410  179.0340  139.1220 C   0  0  1  0  0  3  0  0  0  0  0  0
  189.3180  177.6790  142.9180 C   0  0  1  0  0  3  0  0  0  0  0  0
  187.6060  177.7270  144.7460 N   0  0  0  0  0  2  0  0  0  0  0  0
  182.8860  179.8630  138.8880 C   0  0  2  0  0  3  0  0  0  0  0  0
  189.8540  177.0100  145.3690 C   0  0  0  0  0  2  0  0  0  0  0  0
  185.0310  178.3130  145.5790 C   0  0  0  0  0  3  0  0  0  0  0  0
  186.5620  177.9690  143.7920 C   0  0  0  0  0  0  0  0  0  0  0  0
  185.3190  178.2820  144.2030 C   0  0  0  0  0  0  0  0  0  0  0  0
  184.5450  178.6520  141.9520 C   0  0  0  0  0  0  0  0  0  0  0  0
  183.1320  178.8850  137.7460 C   0  0  0  0  0  2  0  0  0  0  0  0
  190.7510  175.5900  143.2180 C   0  0  0  0  0  2  0  0  0  0  0  0
  189.0250  177.8860  144.4250 C   0  0  1  0  0  3  0  0  0  0  0  0
  184.3730  178.1200  138.1250 C   0  0  0  0  0  2  0  0  0  0  0  0
  189.5570  176.2220  142.4940 C   0  0  0  0  0  2  0  0  0  0  0  0
  191.3530  176.9290  145.0120 C   0  0  1  0  0  3  0  0  0  0  0  0
  183.0090  178.9180  143.7620 C   0  0  0  0  0  3  0  0  0  0  0  0
  184.2940  178.6070  143.2760 C   0  0  0  0  0  0  0  0  0  0  0  0
  183.4590  178.9620  140.9600 C   0  0  0  0  0  2  0  0  0  0  0  0
  188.2640  178.3540  142.0420 C   0  0  0  0  0  2  0  0  0  0  0  0
  187.0210  177.7510  139.4900 O   0  0  0  0  0  0  0  0  0  0  0  0
  182.8100  181.2770  138.3440 C   0  0  0  0  0  1  0  0  0  0  0  0
  185.8500  178.3280  141.4420 N   0  0  0  0  0  0  0  0  0  0  0  0
  183.9850  179.7570  139.8460 N   0  0  1  0  0  0  0  0  0  0  0  0
  192.0720  176.0020  145.9840 C   0  0  0  0  0  2  0  0  0  0  0  0
  191.8540  176.4350  147.3980 C   0  0  0  0  0  0  0  0  0  0  0  0
  192.8050  176.0030  148.4600 C   0  0  0  0  0  1  0  0  0  0  0  0
  190.8910  177.1260  147.6890 O   0  0  0  0  0  0  0  0  0  0  0  0
  1 20  1  0  0  0  0
  2 24  1  6  0  0  0
  2 12  1  0  0  0  0
  4  3  1  0  0  0  0
  5 27  1  0  0  0  0
  6 18  1  6  0  0  0
  6 28  1  0  0  0  0
  6  5  1  0  0  0  0
  7 24  1  6  0  0  0
  7 17  1  0  0  0  0
  9 26  1  6  0  0  0
  9 28  1  0  0  0  0
 11  3  2  0  0  0  0
 12 13  2  0  0  0  0
 12  8  1  0  0  0  0
 13 11  1  0  0  0  0
 14 22  2  0  0  0  0
 15 18  1  0  0  0  0
 15  9  1  0  0  0  0
 16  1  1  0  0  0  0
 17  8  1  0  0  0  0
 17 10  1  1  0  0  0
 19  7  1  0  0  0  0
 19 16  1  0  0  0  0
 20 10  1  0  0  0  0
 20 29  1  1  0  0  0
 21  4  2  0  0  0  0
 22 21  1  0  0  0  0
 22 13  1  0  0  0  0
 23 14  1  0  0  0  0
 25  5  2  0  0  0  0
 27 14  1  0  0  0  0
 27  2  1  0  0  0  0
 28 23  1  1  0  0  0
 29 30  1  0  0  0  0
 30 32  2  0  0  0  0
 30 31  1  0  0  0  0
M  END
>  <MODEL>
4

>  <REMARK>
 VINA RESULT:      -8.4      2.369      4.228
  Name = 
  2 active torsions:
  status: ('A' for Active; 'I' for Inactive)
    1  A    between atoms: C_20  and  C_29
    2  A    between atoms: C_29  and  C_30
                            x       y       z     vdW  Elec       q    Type
                         _______ _______ _______ _____ _____    ______ ____

>  <TORSDO>
F 2

$$$$
=
 OpenBabel11122410523D

 32 37  0  0  1  0  0  0  0  0999 V2000
  181.4730  179.3490  140.3050 O   0  0  0  0  0  0  0  0  0  0  0  0
  186.3650  178.0910  140.9250 C   0  0  2  0  0  3  0  0  0  0  0  0
  189.0590  177.8120  136.8100 C   0  0  0  0  0  3  0  0  0  0  0  0
  190.1950  177.5190  137.5610 C   0  0  0  0  0  3  0  0  0  0  0  0
  187.6490  177.9490  143.1030 C   0  0  0  0  0  0  0  0  0  0  0  0
  188.9510  178.0280  143.8550 C   0  0  1  0  0  3  0  0  0  0  0  0
  184.1140  179.1790  140.7220 C   0  0  1  0  0  3  0  0  0  0  0  0
  185.4180  178.6350  138.6530 N   0  0  0  0  0  2  0  0  0  0  0  0
  191.2550  177.7540  143.7820 C   0  0  2  0  0  3  0  0  0  0  0  0
  183.0380  179.0900  138.3600 C   0  0  0  0  0  2  0  0  0  0  0  0
  187.8480  178.0680  137.4520 C   0  0  0  0  0  3  0  0  0  0  0  0
  186.5600  178.2720  139.4410 C   0  0  0  0  0  0  0  0  0  0  0  0
  187.7470  178.0260  138.8540 C   0  0  0  0  0  0  0  0  0  0  0  0
  188.8690  177.7630  140.9700 C   0  0  0  0  0  0  0  0  0  0  0  0
  190.7210  176.8810  144.9110 C   0  0  0  0  0  2  0  0  0  0  0  0
  181.8490  178.0170  140.5690 C   0  0  0  0  0  2  0  0  0  0  0  0
  184.2870  179.3870  139.1960 C   0  0  1  0  0  3  0  0  0  0  0  0
  189.2310  176.8100  144.7000 C   0  0  0  0  0  2  0  0  0  0  0  0
  183.2770  177.9550  141.1230 C   0  0  0  0  0  2  0  0  0  0  0  0
  181.7290  179.6640  138.9430 C   0  0  1  0  0  3  0  0  0  0  0  0
  190.1210  177.4900  138.9540 C   0  0  0  0  0  3  0  0  0  0  0  0
  188.9080  177.7490  139.6220 C   0  0  0  0  0  0  0  0  0  0  0  0
  190.0840  177.4380  141.7920 C   0  0  0  0  0  2  0  0  0  0  0  0
  185.4580  179.2030  141.4480 C   0  0  0  0  0  2  0  0  0  0  0  0
  186.5740  177.8350  143.7510 O   0  0  0  0  0  0  0  0  0  0  0  0
  192.0460  178.9130  144.3600 C   0  0  0  0  0  1  0  0  0  0  0  0
  187.6340  178.0170  141.6640 N   0  0  0  0  0  0  0  0  0  0  0  0
  190.1270  178.2620  143.0030 N   0  0  1  0  0  0  0  0  0  0  0  0
  180.5500  179.2750  138.0600 C   0  0  0  0  0  2  0  0  0  0  0  0
  180.5830  180.0190  136.7640 C   0  0  0  0  0  0  0  0  0  0  0  0
  180.4960  181.5050  136.7620 C   0  0  0  0  0  1  0  0  0  0  0  0
  180.6620  179.4130  135.7080 O   0  0  0  0  0  0  0  0  0  0  0  0
  1 16  1  0  0  0  0
  2 24  1  1  0  0  0
  2 27  1  0  0  0  0
  3 11  2  0  0  0  0
  3  4  1  0  0  0  0
  4 21  2  0  0  0  0
  5 25  2  0  0  0  0
  5  6  1  0  0  0  0
  6 18  1  6  0  0  0
  7 19  1  6  0  0  0
  7 24  1  0  0  0  0
  8 17  1  0  0  0  0
  8 12  1  0  0  0  0
  9 26  1  1  0  0  0
  9 15  1  0  0  0  0
 10 20  1  0  0  0  0
 11 13  1  0  0  0  0
 12  2  1  0  0  0  0
 13 12  2  0  0  0  0
 13 22  1  0  0  0  0
 14 27  1  0  0  0  0
 14 23  1  0  0  0  0
 16 19  1  0  0  0  0
 17 10  1  6  0  0  0
 17  7  1  0  0  0  0
 18 15  1  0  0  0  0
 20 29  1  6  0  0  0
 20  1  1  0  0  0  0
 21 22  1  0  0  0  0
 22 14  2  0  0  0  0
 27  5  1  0  0  0  0
 28 23  1  6  0  0  0
 28  9  1  0  0  0  0
 28  6  1  0  0  0  0
 30 29  1  0  0  0  0
 31 30  1  0  0  0  0
 32 30  2  0  0  0  0
M  END
>  <MODEL>
5

>  <REMARK>
 VINA RESULT:      -8.3      3.222      8.932
  Name = 
  2 active torsions:
  status: ('A' for Active; 'I' for Inactive)
    1  A    between atoms: C_20  and  C_29
    2  A    between atoms: C_29  and  C_30
                            x       y       z     vdW  Elec       q    Type
                         _______ _______ _______ _____ _____    ______ ____

>  <TORSDO>
F 2

$$$$
=
 OpenBabel11122410523D

 32 37  0  0  1  0  0  0  0  0999 V2000
  182.0260  179.2390  138.4860 O   0  0  0  0  0  0  0  0  0  0  0  0
  185.7950  178.5880  141.8420 C   0  0  2  0  0  3  0  0  0  0  0  0
  184.4860  178.6280  146.5920 C   0  0  0  0  0  3  0  0  0  0  0  0
  185.8020  178.3710  146.9680 C   0  0  0  0  0  3  0  0  0  0  0  0
  188.1800  177.8900  141.3560 C   0  0  0  0  0  0  0  0  0  0  0  0
  189.4610  177.2330  141.7970 C   0  0  1  0  0  3  0  0  0  0  0  0
  183.9370  178.4040  140.1680 C   0  0  1  0  0  3  0  0  0  0  0  0
  183.3940  178.8140  142.5780 N   0  0  0  0  0  2  0  0  0  0  0  0
  190.8560  176.6960  143.5730 C   0  0  2  0  0  3  0  0  0  0  0  0
  181.6240  179.2740  140.9630 C   0  0  0  0  0  2  0  0  0  0  0  0
  184.1500  178.7010  145.2400 C   0  0  0  0  0  3  0  0  0  0  0  0
  184.7660  178.6130  142.9450 C   0  0  0  0  0  0  0  0  0  0  0  0
  185.1230  178.5290  144.2400 C   0  0  0  0  0  0  0  0  0  0  0  0
  187.4120  178.0110  143.6940 C   0  0  0  0  0  0  0  0  0  0  0  0
  191.6770  177.4880  142.5630 C   0  0  0  0  0  2  0  0  0  0  0  0
  182.9170  180.2900  138.7850 C   0  0  0  0  0  2  0  0  0  0  0  0
  182.8560  178.4200  141.2760 C   0  0  1  0  0  3  0  0  0  0  0  0
  190.6760  178.1090  141.6220 C   0  0  0  0  0  2  0  0  0  0  0  0
  184.1780  179.7530  139.4720 C   0  0  0  0  0  2  0  0  0  0  0  0
  181.0740  179.0990  139.5320 C   0  0  1  0  0  3  0  0  0  0  0  0
  186.7800  178.1800  145.9910 C   0  0  0  0  0  3  0  0  0  0  0  0
  186.4620  178.2460  144.6210 C   0  0  0  0  0  0  0  0  0  0  0  0
  188.8380  177.7440  144.0860 C   0  0  0  0  0  2  0  0  0  0  0  0
  185.2430  177.7870  140.6640 C   0  0  0  0  0  2  0  0  0  0  0  0
  188.0610  178.2560  140.1560 O   0  0  0  0  0  0  0  0  0  0  0  0
  191.3230  175.2520  143.5940 C   0  0  0  0  0  1  0  0  0  0  0  0
  187.1010  178.0840  142.2910 N   0  0  0  0  0  0  0  0  0  0  0  0
  189.4470  176.7560  143.1890 N   0  0  1  0  0  0  0  0  0  0  0  0
  179.8810  180.0230  139.3140 C   0  0  0  0  0  2  0  0  0  0  0  0
  179.4010  179.9530  137.9000 C   0  0  0  0  0  0  0  0  0  0  0  0
  179.4760  181.1610  137.0330 C   0  0  0  0  0  1  0  0  0  0  0  0
  178.9310  178.9170  137.4600 O   0  0  0  0  0  0  0  0  0  0  0  0
  1 16  1  0  0  0  0
  1 20  1  0  0  0  0
  2 24  1  6  0  0  0
  2 27  1  0  0  0  0
  2 12  1  0  0  0  0
  3  4  1  0  0  0  0
  5  6  1  0  0  0  0
  5 27  1  0  0  0  0
  6 18  1  1  0  0  0
  6 28  1  0  0  0  0
  7 19  1  1  0  0  0
  7 24  1  0  0  0  0
  7 17  1  0  0  0  0
  8 12  1  0  0  0  0
  9 26  1  6  0  0  0
 11  3  2  0  0  0  0
 12 13  2  0  0  0  0
 13 22  1  0  0  0  0
 13 11  1  0  0  0  0
 14 23  1  0  0  0  0
 14 22  2  0  0  0  0
 15  9  1  0  0  0  0
 16 19  1  0  0  0  0
 17 10  1  6  0  0  0
 17  8  1  0  0  0  0
 18 15  1  0  0  0  0
 20 29  1  6  0  0  0
 20 10  1  0  0  0  0
 21  4  2  0  0  0  0
 22 21  1  0  0  0  0
 25  5  2  0  0  0  0
 27 14  1  0  0  0  0
 28  9  1  0  0  0  0
 28 23  1  1  0  0  0
 30 29  1  0  0  0  0
 31 30  1  0  0  0  0
 32 30  2  0  0  0  0
M  END
>  <MODEL>
6

>  <REMARK>
 VINA RESULT:      -8.2      3.211      9.273
  Name = 
  2 active torsions:
  status: ('A' for Active; 'I' for Inactive)
    1  A    between atoms: C_20  and  C_29
    2  A    between atoms: C_29  and  C_30
                            x       y       z     vdW  Elec       q    Type
                         _______ _______ _______ _____ _____    ______ ____

>  <TORSDO>
F 2

$$$$
=
 OpenBabel11122410523D

 32 37  0  0  1  0  0  0  0  0999 V2000
  181.9250  179.4890  140.2360 O   0  0  0  0  0  0  0  0  0  0  0  0
  186.1140  178.0410  142.7350 C   0  0  2  0  0  3  0  0  0  0  0  0
  190.2020  177.5970  140.0210 C   0  0  0  0  0  3  0  0  0  0  0  0
  190.9340  177.2680  141.1590 C   0  0  0  0  0  3  0  0  0  0  0  0
  186.4260  177.8770  145.2430 C   0  0  0  0  0  0  0  0  0  0  0  0
  187.3270  177.9120  146.4490 C   0  0  1  0  0  3  0  0  0  0  0  0
  184.1770  179.2170  141.6620 C   0  0  1  0  0  3  0  0  0  0  0  0
  186.1670  178.5920  140.2760 N   0  0  0  0  0  2  0  0  0  0  0  0
  189.4580  177.5440  147.2920 C   0  0  2  0  0  3  0  0  0  0  0  0
  184.1190  179.1400  139.0670 C   0  0  0  0  0  2  0  0  0  0  0  0
  188.8470  177.9110  140.1320 C   0  0  0  0  0  3  0  0  0  0  0  0
  186.8880  178.1940  141.4500 C   0  0  0  0  0  0  0  0  0  0  0  0
  188.1980  177.8920  141.3790 C   0  0  0  0  0  0  0  0  0  0  0  0
  188.3800  177.6120  143.7650 C   0  0  0  0  0  0  0  0  0  0  0  0
  188.4840  176.7080  148.1140 C   0  0  0  0  0  2  0  0  0  0  0  0
  182.1080  178.1460  140.6220 C   0  0  0  0  0  2  0  0  0  0  0  0
  184.9460  179.3970  140.3300 C   0  0  1  0  0  3  0  0  0  0  0  0
  187.1970  176.6960  147.3310 C   0  0  0  0  0  2  0  0  0  0  0  0
  183.1970  178.0340  141.6950 C   0  0  0  0  0  2  0  0  0  0  0  0
  182.7120  179.7750  139.0870 C   0  0  1  0  0  3  0  0  0  0  0  0
  190.3140  177.2610  142.4080 C   0  0  0  0  0  3  0  0  0  0  0  0
  188.9490  177.5780  142.5430 C   0  0  0  0  0  0  0  0  0  0  0  0
  189.1560  177.2480  145.0000 C   0  0  0  0  0  2  0  0  0  0  0  0
  185.1230  179.1960  142.8610 C   0  0  0  0  0  2  0  0  0  0  0  0
  185.1780  177.8150  145.4120 O   0  0  0  0  0  0  0  0  0  0  0  0
  190.0050  178.6770  148.1400 C   0  0  0  0  0  1  0  0  0  0  0  0
  186.9840  177.9260  143.9160 N   0  0  0  0  0  0  0  0  0  0  0  0
  188.7530  178.0870  146.1330 N   0  0  1  0  0  0  0  0  0  0  0  0
  181.9630  179.4220  137.8080 C   0  0  0  0  0  2  0  0  0  0  0  0
  181.1510  180.5810  137.3260 C   0  0  0  0  0  0  0  0  0  0  0  0
  181.2930  181.9090  137.9850 C   0  0  0  0  0  1  0  0  0  0  0  0
  180.3590  180.4390  136.4090 O   0  0  0  0  0  0  0  0  0  0  0  0
  1 16  1  0  0  0  0
  2 24  1  1  0  0  0
  2 27  1  0  0  0  0
  3 11  2  0  0  0  0
  3  4  1  0  0  0  0
  4 21  2  0  0  0  0
  5 25  2  0  0  0  0
  5  6  1  0  0  0  0
  6 18  1  6  0  0  0
  7 19  1  6  0  0  0
  7 24  1  0  0  0  0
  8 17  1  0  0  0  0
  8 12  1  0  0  0  0
  9 15  1  0  0  0  0
  9 26  1  1  0  0  0
 10 20  1  0  0  0  0
 11 13  1  0  0  0  0
 12  2  1  0  0  0  0
 13 12  2  0  0  0  0
 13 22  1  0  0  0  0
 14 27  1  0  0  0  0
 14 23  1  0  0  0  0
 16 19  1  0  0  0  0
 17 10  1  6  0  0  0
 17  7  1  0  0  0  0
 18 15  1  0  0  0  0
 20 29  1  6  0  0  0
 20  1  1  0  0  0  0
 21 22  1  0  0  0  0
 22 14  2  0  0  0  0
 27  5  1  0  0  0  0
 28 23  1  6  0  0  0
 28  6  1  0  0  0  0
 28  9  1  0  0  0  0
 30 29  1  0  0  0  0
 30 31  1  0  0  0  0
 32 30  2  0  0  0  0
M  END
>  <MODEL>
7

>  <REMARK>
 VINA RESULT:      -7.9      2.839      8.396
  Name = 
  2 active torsions:
  status: ('A' for Active; 'I' for Inactive)
    1  A    between atoms: C_20  and  C_29
    2  A    between atoms: C_29  and  C_30
                            x       y       z     vdW  Elec       q    Type
                         _______ _______ _______ _____ _____    ______ ____

>  <TORSDO>
F 2

$$$$
=
 OpenBabel11122410523D

 32 37  0  0  1  0  0  0  0  0999 V2000
  186.1700  178.1910  147.2730 O   0  0  0  0  0  0  0  0  0  0  0  0
  185.6780  178.5350  142.2200 C   0  0  2  0  0  3  0  0  0  0  0  0
  189.8050  177.9090  139.6030 C   0  0  0  0  0  3  0  0  0  0  0  0
  189.0860  178.0450  138.4170 C   0  0  0  0  0  3  0  0  0  0  0  0
  183.5250  178.6260  140.8900 C   0  0  0  0  0  0  0  0  0  0  0  0
  182.7710  178.3670  139.6130 C   0  0  1  0  0  3  0  0  0  0  0  0
  185.7750  177.8870  144.6410 C   0  0  1  0  0  3  0  0  0  0  0  0
  187.8880  177.9770  143.2980 N   0  0  0  0  0  2  0  0  0  0  0  0
  182.8720  178.1830  137.3010 C   0  0  2  0  0  3  0  0  0  0  0  0
  188.1330  177.9640  145.7260 C   0  0  0  0  0  2  0  0  0  0  0  0
  189.1400  177.9510  140.8280 C   0  0  0  0  0  3  0  0  0  0  0  0
  187.1390  178.1830  142.0920 C   0  0  0  0  0  0  0  0  0  0  0  0
  187.7480  178.1400  140.8920 C   0  0  0  0  0  0  0  0  0  0  0  0
  185.6680  178.3760  139.6990 C   0  0  0  0  0  0  0  0  0  0  0  0
  181.8300  179.2430  137.6350 C   0  0  0  0  0  2  0  0  0  0  0  0
  186.0330  179.4450  146.6440 C   0  0  0  0  0  2  0  0  0  0  0  0
  187.2740  177.5100  144.5410 C   0  0  1  0  0  3  0  0  0  0  0  0
  182.0440  179.5800  139.0880 C   0  0  0  0  0  2  0  0  0  0  0  0
  185.4900  179.2810  145.2200 C   0  0  0  0  0  2  0  0  0  0  0  0
  187.4970  177.7090  147.1090 C   0  0  1  0  0  3  0  0  0  0  0  0
  187.7020  178.2160  138.4580 C   0  0  0  0  0  3  0  0  0  0  0  0
  187.0110  178.2580  139.6840 C   0  0  0  0  0  0  0  0  0  0  0  0
  184.8820  178.5350  138.4280 C   0  0  0  0  0  2  0  0  0  0  0  0
  185.0510  177.6710  143.3130 C   0  0  0  0  0  2  0  0  0  0  0  0
  182.8890  179.0040  141.9100 O   0  0  0  0  0  0  0  0  0  0  0  0
  182.1890  176.9520  136.7350 C   0  0  0  0  0  1  0  0  0  0  0  0
  184.9510  178.4290  140.9460 N   0  0  0  0  0  0  0  0  0  0  0  0
  183.5980  177.8330  138.5200 N   0  0  1  0  0  0  0  0  0  0  0  0
  188.4110  178.2350  148.2080 C   0  0  0  0  0  2  0  0  0  0  0  0
  189.7780  177.6410  148.0990 C   0  0  0  0  0  0  0  0  0  0  0  0
  189.9760  176.3770  147.3370 C   0  0  0  0  0  1  0  0  0  0  0  0
  190.7280  178.1770  148.6450 O   0  0  0  0  0  0  0  0  0  0  0  0
  2 24  1  1  0  0  0
  3 11  2  0  0  0  0
  4 21  2  0  0  0  0
  4  3  1  0  0  0  0
  5 27  1  0  0  0  0
  5 25  2  0  0  0  0
  6 18  1  6  0  0  0
  6  5  1  0  0  0  0
  7 24  1  6  0  0  0
  7 19  1  0  0  0  0
  8 17  1  0  0  0  0
  9 26  1  1  0  0  0
  9 15  1  0  0  0  0
  9 28  1  0  0  0  0
 10 20  1  0  0  0  0
 11 13  1  0  0  0  0
 12  2  1  0  0  0  0
 12  8  1  0  0  0  0
 13 12  2  0  0  0  0
 14 27  1  0  0  0  0
 15 18  1  0  0  0  0
 16  1  1  0  0  0  0
 17  7  1  0  0  0  0
 17 10  1  1  0  0  0
 19 16  1  0  0  0  0
 20  1  1  0  0  0  0
 20 29  1  1  0  0  0
 21 22  1  0  0  0  0
 22 14  2  0  0  0  0
 22 13  1  0  0  0  0
 23 14  1  0  0  0  0
 27  2  1  0  0  0  0
 28 23  1  6  0  0  0
 28  6  1  0  0  0  0
 30 29  1  0  0  0  0
 30 32  2  0  0  0  0
 31 30  1  0  0  0  0
M  END
>  <MODEL>
8

>  <REMARK>
 VINA RESULT:      -7.8      2.084      2.953
  Name = 
  2 active torsions:
  status: ('A' for Active; 'I' for Inactive)
    1  A    between atoms: C_20  and  C_29
    2  A    between atoms: C_29  and  C_30
                            x       y       z     vdW  Elec       q    Type
                         _______ _______ _______ _____ _____    ______ ____

>  <TORSDO>
F 2

$$$$
=
 OpenBabel11122410523D

 32 37  0  0  1  0  0  0  0  0999 V2000
  189.5260  177.3880  137.3120 O   0  0  0  0  0  0  0  0  0  0  0  0
  188.5510  177.2210  142.3030 C   0  0  2  0  0  3  0  0  0  0  0  0
  192.2340  175.6420  145.1700 C   0  0  0  0  0  3  0  0  0  0  0  0
  191.4560  175.8550  146.3060 C   0  0  0  0  0  3  0  0  0  0  0  0
  186.5450  178.1860  143.5080 C   0  0  0  0  0  0  0  0  0  0  0  0
  185.9250  178.7580  144.7560 C   0  0  1  0  0  3  0  0  0  0  0  0
  189.1380  177.7880  139.9330 C   0  0  1  0  0  3  0  0  0  0  0  0
  190.8200  176.6250  141.3790 N   0  0  0  0  0  2  0  0  0  0  0  0
  185.9300  178.8140  147.0770 C   0  0  2  0  0  3  0  0  0  0  0  0
  191.2210  176.5690  138.9730 C   0  0  0  0  0  2  0  0  0  0  0  0
  191.7300  175.9650  143.9110 C   0  0  0  0  0  3  0  0  0  0  0  0
  189.9790  176.7930  142.5300 C   0  0  0  0  0  0  0  0  0  0  0  0
  190.4370  176.4980  143.7610 C   0  0  0  0  0  0  0  0  0  0  0  0
  188.4320  177.3050  144.8250 C   0  0  0  0  0  0  0  0  0  0  0  0
  184.5280  178.4240  146.6270 C   0  0  0  0  0  2  0  0  0  0  0  0
  188.7380  176.3560  137.8600 C   0  0  0  0  0  2  0  0  0  0  0  0
  190.6140  177.3640  140.1340 C   0  0  1  0  0  3  0  0  0  0  0  0
  184.6550  178.0580  145.1700 C   0  0  0  0  0  2  0  0  0  0  0  0
  188.2430  176.7370  139.2600 C   0  0  0  0  0  2  0  0  0  0  0  0
  190.9010  177.1390  137.5750 C   0  0  1  0  0  3  0  0  0  0  0  0
  190.1770  176.4000  146.1810 C   0  0  0  0  0  3  0  0  0  0  0  0
  189.6510  176.7360  144.9190 C   0  0  0  0  0  0  0  0  0  0  0  0
  187.5780  177.5310  146.0410 C   0  0  0  0  0  2  0  0  0  0  0  0
  188.5200  178.3070  141.2300 C   0  0  0  0  0  2  0  0  0  0  0  0
  185.8830  178.1990  142.4360 O   0  0  0  0  0  0  0  0  0  0  0  0
  185.9080  180.2080  147.6740 C   0  0  0  0  0  1  0  0  0  0  0  0
  187.8790  177.6450  143.5410 N   0  0  0  0  0  0  0  0  0  0  0  0
  186.8230  178.7830  145.9210 N   0  0  1  0  0  0  0  0  0  0  0  0
  191.5120  176.2510  136.4970 C   0  0  0  0  0  2  0  0  0  0  0  0
  192.9220  175.8890  136.8380 C   0  0  0  0  0  0  0  0  0  0  0  0
  193.2860  174.4630  137.0610 C   0  0  0  0  0  1  0  0  0  0  0  0
  193.7710  176.7580  136.9520 O   0  0  0  0  0  0  0  0  0  0  0  0
  1 20  1  0  0  0  0
  1 16  1  0  0  0  0
  2 24  1  6  0  0  0
  2 12  1  0  0  0  0
  2 27  1  0  0  0  0
  3  4  1  0  0  0  0
  5 27  1  0  0  0  0
  5  6  1  0  0  0  0
  6 18  1  1  0  0  0
  6 28  1  0  0  0  0
  7 19  1  1  0  0  0
  7 17  1  0  0  0  0
  7 24  1  0  0  0  0
  8 12  1  0  0  0  0
  9 26  1  6  0  0  0
 11  3  2  0  0  0  0
 12 13  2  0  0  0  0
 13 11  1  0  0  0  0
 13 22  1  0  0  0  0
 14 22  2  0  0  0  0
 14 23  1  0  0  0  0
 15  9  1  0  0  0  0
 16 19  1  0  0  0  0
 17 10  1  6  0  0  0
 17  8  1  0  0  0  0
 18 15  1  0  0  0  0
 20 29  1  6  0  0  0
 20 10  1  0  0  0  0
 21  4  2  0  0  0  0
 22 21  1  0  0  0  0
 25  5  2  0  0  0  0
 27 14  1  0  0  0  0
 28 23  1  1  0  0  0
 28  9  1  0  0  0  0
 29 30  1  0  0  0  0
 30 32  2  0  0  0  0
 30 31  1  0  0  0  0
M  END
>  <MODEL>
9

>  <REMARK>
 VINA RESULT:      -7.7      3.905      7.252
  Name = 
  2 active torsions:
  status: ('A' for Active; 'I' for Inactive)
    1  A    between atoms: C_20  and  C_29
    2  A    between atoms: C_29  and  C_30
                            x       y       z     vdW  Elec       q    Type
                         _______ _______ _______ _____ _____    ______ ____

>  <TORSDO>
F 2

$$$$
