=
 OpenBabel11122412123D

 34 41  0  0  1  0  0  0  0  0999 V2000
  187.9000  177.7720  143.3960 C   0  0  0  0  0  0  0  0  0  0  0  0
  190.3190  177.0320  142.9340 C   0  0  0  0  0  2  0  0  0  0  0  0
  181.7940  178.2100  141.2610 C   0  0  2  0  0  3  0  0  0  0  0  0
  185.5490  178.3760  143.6050 C   0  0  0  0  0  0  0  0  0  0  0  0
  184.1940  178.4620  141.4770 C   0  0  1  0  0  3  0  0  0  0  0  0
  182.6360  178.8120  139.4040 C   0  0  0  0  0  2  0  0  0  0  0  0
  181.3160  178.1730  139.8270 C   0  0  0  0  0  2  0  0  0  0  0  0
  181.7930  179.3090  143.5320 C   0  0  0  0  0  2  0  0  0  0  0  0
  188.9620  177.7600  141.1490 C   0  0  0  0  0  0  0  0  0  0  0  0
  189.9490  177.5700  138.1340 C   0  0  0  0  0  2  0  0  0  0  0  0
  185.4440  178.9670  140.7680 C   0  0  0  0  0  2  0  0  0  0  0  0
  183.0150  178.4020  143.7810 C   0  0  0  0  0  2  0  0  0  0  0  0
  187.8140  178.1500  140.5510 C   0  0  0  0  0  0  0  0  0  0  0  0
  191.0570  176.7620  141.6170 C   0  0  0  0  0  2  0  0  0  0  0  0
  184.2590  178.8540  142.9760 C   0  0  1  0  0  3  0  0  0  0  0  0
  180.9470  178.9300  142.2940 C   0  0  0  0  0  2  0  0  0  0  0  0
  190.0930  176.6740  139.2900 N   0  0  0  0  0  0  0  0  0  0  0  0
  186.6960  178.1860  142.8050 C   0  0  0  0  0  0  0  0  0  0  0  0
  182.9530  179.0820  140.8640 C   0  0  1  0  0  3  0  0  0  0  0  0
  186.6450  178.3840  141.3710 N   0  0  0  0  0  0  0  0  0  0  0  0
  186.8580  177.8120  145.5790 C   0  0  0  0  0  3  0  0  0  0  0  0
  188.9280  178.6970  138.3420 C   0  0  0  0  0  2  0  0  0  0  0  0
  185.6530  178.2120  144.9960 C   0  0  0  0  0  3  0  0  0  0  0  0
  187.6760  178.1970  139.0450 C   0  0  0  0  0  2  0  0  0  0  0  0
  190.2760  177.4870  140.5020 C   0  0  1  0  0  3  0  0  0  0  0  0
  187.9810  177.5850  144.7800 C   0  0  0  0  0  3  0  0  0  0  0  0
  189.0280  177.5580  142.5450 N   0  0  0  0  0  0  0  0  0  0  0  0
  191.2230  175.9570  139.0620 O   0  0  0  0  0  0  0  0  0  0  0  0
  191.0180  175.3520  137.8180 C   0  0  0  0  0  2  0  0  0  0  0  0
  194.1990  175.7000  138.4140 O   0  0  0  0  0  0  0  0  0  0  0  0
  193.0260  174.0470  137.2060 C   0  0  0  0  0  2  0  0  0  0  0  0
  192.3130  175.3550  137.0230 C   0  0  2  0  0  3  0  0  0  0  0  0
  194.3460  174.4370  137.8250 C   0  0  0  0  0  2  0  0  0  0  0  0
  193.2630  176.3710  137.6130 C   0  0  0  0  0  2  0  0  0  0  0  0
  1 26  1  0  0  0  0
  3  7  1  6  0  0  0
  3 16  1  0  0  0  0
  4 23  2  0  0  0  0
  5 11  1  6  0  0  0
  5 15  1  0  0  0  0
  6  7  1  0  0  0  0
  8 12  1  0  0  0  0
  9 27  1  0  0  0  0
 10 22  1  0  0  0  0
 10 17  1  0  0  0  0
 11 20  1  0  0  0  0
 13  9  2  0  0  0  0
 13 20  1  0  0  0  0
 14  2  1  0  0  0  0
 15  4  1  0  0  0  0
 15 12  1  1  0  0  0
 16  8  1  0  0  0  0
 17 25  1  0  0  0  0
 18  1  2  0  0  0  0
 18  4  1  0  0  0  0
 19  6  1  6  0  0  0
 19  3  1  0  0  0  0
 19  5  1  0  0  0  0
 20 18  1  0  0  0  0
 22 24  1  0  0  0  0
 23 21  1  0  0  0  0
 24 13  1  0  0  0  0
 25  9  1  0  0  0  0
 25 14  1  1  0  0  0
 26 21  2  0  0  0  0
 27  2  1  0  0  0  0
 27  1  1  0  0  0  0
 28 17  1  0  0  0  0
 29 28  1  0  0  0  0
 31 33  1  0  0  0  0
 32 31  1  0  0  0  0
 32 34  1  0  0  0  0
 32 29  1  1  0  0  0
 33 30  1  0  0  0  0
 34 30  1  0  0  0  0
M  END
>  <MODEL>
1

>  <REMARK>
 VINA RESULT:     -10.2      0.000      0.000
  Name = 
  3 active torsions:
  status: ('A' for Active; 'I' for Inactive)
    1  A    between atoms: N_17  and  O_28
    2  A    between atoms: O_28  and  C_29
    3  A    between atoms: C_29  and  C_32
                            x       y       z     vdW  Elec       q    Type
                         _______ _______ _______ _____ _____    ______ ____

>  <TORSDO>
F 3

$$$$
=
 OpenBabel11122412123D

 34 41  0  0  1  0  0  0  0  0999 V2000
  188.2240  177.7360  143.3130 C   0  0  0  0  0  0  0  0  0  0  0  0
  190.6070  176.9790  142.7140 C   0  0  0  0  0  2  0  0  0  0  0  0
  182.0060  178.2010  141.5370 C   0  0  2  0  0  3  0  0  0  0  0  0
  185.8930  178.3560  143.6560 C   0  0  0  0  0  0  0  0  0  0  0  0
  184.4160  178.4380  141.6110 C   0  0  1  0  0  3  0  0  0  0  0  0
  182.7400  178.7860  139.6300 C   0  0  0  0  0  2  0  0  0  0  0  0
  181.4440  178.1580  140.1340 C   0  0  0  0  0  2  0  0  0  0  0  0
  182.1440  179.3110  143.7970 C   0  0  0  0  0  2  0  0  0  0  0  0
  189.1520  177.7060  141.0070 C   0  0  0  0  0  0  0  0  0  0  0  0
  189.9580  177.4930  137.9400 C   0  0  0  0  0  2  0  0  0  0  0  0
  185.6240  178.9320  140.8260 C   0  0  0  0  0  2  0  0  0  0  0  0
  183.3740  178.3980  143.9800 C   0  0  0  0  0  2  0  0  0  0  0  0
  187.9730  178.1000  140.4750 C   0  0  0  0  0  0  0  0  0  0  0  0
  191.2650  176.6970  141.3570 C   0  0  0  0  0  2  0  0  0  0  0  0
  184.5710  178.8390  143.1010 C   0  0  1  0  0  3  0  0  0  0  0  0
  181.2250  178.9310  142.6140 C   0  0  0  0  0  2  0  0  0  0  0  0
  190.1650  176.6020  139.0910 N   0  0  0  0  0  0  0  0  0  0  0  0
  186.9890  178.1550  142.7910 C   0  0  0  0  0  0  0  0  0  0  0  0
  183.1440  179.0630  141.0670 C   0  0  1  0  0  3  0  0  0  0  0  0
  186.8550  178.3450  141.3610 N   0  0  0  0  0  0  0  0  0  0  0  0
  187.3120  177.7950  145.5520 C   0  0  0  0  0  3  0  0  0  0  0  0
  188.9590  178.6270  138.2010 C   0  0  0  0  0  2  0  0  0  0  0  0
  186.0770  178.1990  145.0390 C   0  0  0  0  0  3  0  0  0  0  0  0
  187.7470  178.1390  138.9800 C   0  0  0  0  0  2  0  0  0  0  0  0
  190.4240  177.4210  140.2850 C   0  0  1  0  0  3  0  0  0  0  0  0
  188.3850  177.5570  144.6910 C   0  0  0  0  0  3  0  0  0  0  0  0
  189.2990  177.5100  142.3980 N   0  0  0  0  0  0  0  0  0  0  0  0
  191.2760  175.8770  138.8010 O   0  0  0  0  0  0  0  0  0  0  0  0
  191.1860  175.6170  137.4300 C   0  0  0  0  0  2  0  0  0  0  0  0
  190.1300  173.3610  135.3340 O   0  0  0  0  0  0  0  0  0  0  0  0
  192.3180  173.9610  135.9870 C   0  0  0  0  0  2  0  0  0  0  0  0
  191.4120  174.1380  137.1700 C   0  0  2  0  0  3  0  0  0  0  0  0
  191.4800  173.1840  135.0010 C   0  0  0  0  0  2  0  0  0  0  0  0
  190.1140  173.5000  136.7300 C   0  0  0  0  0  2  0  0  0  0  0  0
  1 26  1  0  0  0  0
  3  7  1  6  0  0  0
  3 16  1  0  0  0  0
  4 23  2  0  0  0  0
  5 11  1  6  0  0  0
  5 15  1  0  0  0  0
  6  7  1  0  0  0  0
  8 12  1  0  0  0  0
  9 27  1  0  0  0  0
 10 22  1  0  0  0  0
 10 17  1  0  0  0  0
 11 20  1  0  0  0  0
 13  9  2  0  0  0  0
 13 20  1  0  0  0  0
 14  2  1  0  0  0  0
 15  4  1  0  0  0  0
 15 12  1  1  0  0  0
 16  8  1  0  0  0  0
 17 25  1  0  0  0  0
 18  1  2  0  0  0  0
 18  4  1  0  0  0  0
 19  6  1  6  0  0  0
 19  3  1  0  0  0  0
 19  5  1  0  0  0  0
 20 18  1  0  0  0  0
 22 24  1  0  0  0  0
 23 21  1  0  0  0  0
 24 13  1  0  0  0  0
 25  9  1  0  0  0  0
 25 14  1  1  0  0  0
 26 21  2  0  0  0  0
 27  2  1  0  0  0  0
 27  1  1  0  0  0  0
 28 17  1  0  0  0  0
 29 28  1  0  0  0  0
 30 34  1  0  0  0  0
 31 32  1  0  0  0  0
 32 29  1  6  0  0  0
 33 30  1  0  0  0  0
 33 31  1  0  0  0  0
 34 32  1  0  0  0  0
M  END
>  <MODEL>
2

>  <REMARK>
 VINA RESULT:      -9.7      1.116      1.491
  Name = 
  3 active torsions:
  status: ('A' for Active; 'I' for Inactive)
    1  A    between atoms: N_17  and  O_28
    2  A    between atoms: O_28  and  C_29
    3  A    between atoms: C_29  and  C_32
                            x       y       z     vdW  Elec       q    Type
                         _______ _______ _______ _____ _____    ______ ____

>  <TORSDO>
F 3

$$$$
=
 OpenBabel11122412123D

 34 41  0  0  1  0  0  0  0  0999 V2000
  184.5250  178.4590  144.1970 C   0  0  0  0  0  0  0  0  0  0  0  0
  182.4270  179.2320  142.9280 C   0  0  0  0  0  2  0  0  0  0  0  0
  190.9970  178.1360  144.4150 C   0  0  2  0  0  3  0  0  0  0  0  0
  186.6500  177.8370  145.2140 C   0  0  0  0  0  0  0  0  0  0  0  0
  188.6880  177.8780  143.7260 C   0  0  1  0  0  3  0  0  0  0  0  0
  190.9020  177.6520  142.3470 C   0  0  0  0  0  2  0  0  0  0  0  0
  191.9630  178.2590  143.2590 C   0  0  0  0  0  2  0  0  0  0  0  0
  190.1920  176.9010  146.4620 C   0  0  0  0  0  2  0  0  0  0  0  0
  184.3550  178.6110  141.7220 C   0  0  0  0  0  0  0  0  0  0  0  0
  184.5310  178.9880  138.5710 C   0  0  0  0  0  2  0  0  0  0  0  0
  187.7930  177.4210  142.5820 C   0  0  0  0  0  2  0  0  0  0  0  0
  188.9460  177.7940  146.3000 C   0  0  0  0  0  2  0  0  0  0  0  0
  185.6490  178.2550  141.5620 C   0  0  0  0  0  0  0  0  0  0  0  0
  182.2140  179.5840  141.4500 C   0  0  0  0  0  2  0  0  0  0  0  0
  188.0900  177.3940  145.0730 C   0  0  1  0  0  3  0  0  0  0  0  0
  191.4230  177.3520  145.6430 C   0  0  0  0  0  2  0  0  0  0  0  0
  183.9580  179.8120  139.6440 N   0  0  0  0  0  0  0  0  0  0  0  0
  185.8700  178.0790  144.0630 C   0  0  0  0  0  0  0  0  0  0  0  0
  190.0800  177.2930  143.5730 C   0  0  1  0  0  3  0  0  0  0  0  0
  186.4440  177.9680  142.7380 N   0  0  0  0  0  0  0  0  0  0  0  0
  184.7010  178.2820  146.6030 C   0  0  0  0  0  3  0  0  0  0  0  0
  185.4280  177.8480  139.0710 C   0  0  0  0  0  2  0  0  0  0  0  0
  186.0430  177.9150  146.4780 C   0  0  0  0  0  3  0  0  0  0  0  0
  186.3280  178.3000  140.2110 C   0  0  0  0  0  2  0  0  0  0  0  0
  183.3620  178.9270  140.6570 C   0  0  1  0  0  3  0  0  0  0  0  0
  183.9420  178.5610  145.4650 C   0  0  0  0  0  3  0  0  0  0  0  0
  183.7810  178.7280  143.0070 N   0  0  0  0  0  0  0  0  0  0  0  0
  182.9740  180.5440  139.0620 O   0  0  0  0  0  0  0  0  0  0  0  0
  182.3500  179.6620  138.1740 C   0  0  0  0  0  2  0  0  0  0  0  0
  180.9080  182.4940  137.4680 O   0  0  0  0  0  0  0  0  0  0  0  0
  180.8200  180.4010  136.3800 C   0  0  0  0  0  2  0  0  0  0  0  0
  180.9500  180.1560  137.8540 C   0  0  2  0  0  3  0  0  0  0  0  0
  180.4910  181.8710  136.2830 C   0  0  0  0  0  2  0  0  0  0  0  0
  180.7460  181.5230  138.4680 C   0  0  0  0  0  2  0  0  0  0  0  0
  1 26  1  0  0  0  0
  2 27  1  0  0  0  0
  3  7  1  6  0  0  0
  3 16  1  0  0  0  0
  4 23  2  0  0  0  0
  5 11  1  6  0  0  0
  5 15  1  0  0  0  0
  6  7  1  0  0  0  0
  9 27  1  0  0  0  0
 10 22  1  0  0  0  0
 10 17  1  0  0  0  0
 11 20  1  0  0  0  0
 12  8  1  0  0  0  0
 13  9  2  0  0  0  0
 13 20  1  0  0  0  0
 14  2  1  0  0  0  0
 15  4  1  0  0  0  0
 15 12  1  1  0  0  0
 16  8  1  0  0  0  0
 17 25  1  0  0  0  0
 18  1  2  0  0  0  0
 18  4  1  0  0  0  0
 19  6  1  6  0  0  0
 19  5  1  0  0  0  0
 19  3  1  0  0  0  0
 20 18  1  0  0  0  0
 22 24  1  0  0  0  0
 23 21  1  0  0  0  0
 24 13  1  0  0  0  0
 25 14  1  1  0  0  0
 25  9  1  0  0  0  0
 26 21  2  0  0  0  0
 27  1  1  0  0  0  0
 28 17  1  0  0  0  0
 29 28  1  0  0  0  0
 30 34  1  0  0  0  0
 31 32  1  0  0  0  0
 32 29  1  6  0  0  0
 32 34  1  0  0  0  0
 33 31  1  0  0  0  0
 33 30  1  0  0  0  0
M  END
>  <MODEL>
3

>  <REMARK>
 VINA RESULT:      -9.6      3.903      8.142
  Name = 
  3 active torsions:
  status: ('A' for Active; 'I' for Inactive)
    1  A    between atoms: N_17  and  O_28
    2  A    between atoms: O_28  and  C_29
    3  A    between atoms: C_29  and  C_32
                            x       y       z     vdW  Elec       q    Type
                         _______ _______ _______ _____ _____    ______ ____

>  <TORSDO>
F 3

$$$$
=
 OpenBabel11122412123D

 34 41  0  0  1  0  0  0  0  0999 V2000
  189.9170  176.9100  141.3910 C   0  0  0  0  0  0  0  0  0  0  0  0
  191.2210  176.1540  139.3080 C   0  0  0  0  0  2  0  0  0  0  0  0
  184.1720  178.2530  144.0800 C   0  0  2  0  0  3  0  0  0  0  0  0
  188.4690  177.5930  143.2280 C   0  0  0  0  0  0  0  0  0  0  0  0
  186.1160  178.2880  142.6350 C   0  0  1  0  0  3  0  0  0  0  0  0
  183.7070  179.2400  142.2550 C   0  0  0  0  0  2  0  0  0  0  0  0
  182.8830  178.6020  143.3710 C   0  0  0  0  0  2  0  0  0  0  0  0
  185.8830  178.7530  145.8650 C   0  0  0  0  0  2  0  0  0  0  0  0
  189.2280  177.3860  139.0520 C   0  0  0  0  0  0  0  0  0  0  0  0
  187.9460  177.8850  136.1870 C   0  0  0  0  0  2  0  0  0  0  0  0
  186.6740  178.8720  141.3430 C   0  0  0  0  0  2  0  0  0  0  0  0
  186.7410  177.7360  145.0850 C   0  0  0  0  0  2  0  0  0  0  0  0
  188.0850  177.9850  139.4580 C   0  0  0  0  0  0  0  0  0  0  0  0
  190.8450  176.1710  137.8220 C   0  0  0  0  0  2  0  0  0  0  0  0
  187.2220  178.2930  143.7220 C   0  0  1  0  0  3  0  0  0  0  0  0
  184.3810  178.7470  145.4990 C   0  0  0  0  0  2  0  0  0  0  0  0
  188.6100  176.7240  136.7940 N   0  0  0  0  0  0  0  0  0  0  0  0
  188.7440  177.5330  141.8450 C   0  0  0  0  0  0  0  0  0  0  0  0
  184.9450  179.1190  143.1260 C   0  0  1  0  0  3  0  0  0  0  0  0
  187.8170  178.0830  140.8770 N   0  0  0  0  0  0  0  0  0  0  0  0
  190.5850  176.4750  143.6760 C   0  0  0  0  0  3  0  0  0  0  0  0
  187.5790  178.9880  137.1880 C   0  0  0  0  0  2  0  0  0  0  0  0
  189.4130  177.0840  144.1340 C   0  0  0  0  0  3  0  0  0  0  0  0
  187.0160  178.4110  138.4770 C   0  0  0  0  0  2  0  0  0  0  0  0
  189.7060  177.1980  137.6530 C   0  0  1  0  0  3  0  0  0  0  0  0
  190.8350  176.3820  142.3050 C   0  0  0  0  0  3  0  0  0  0  0  0
  190.1400  176.8410  139.9810 N   0  0  0  0  0  0  0  0  0  0  0  0
  189.1320  176.0150  135.7610 O   0  0  0  0  0  0  0  0  0  0  0  0
  188.1480  175.0740  135.4400 C   0  0  0  0  0  2  0  0  0  0  0  0
  186.4570  172.3770  136.1160 O   0  0  0  0  0  0  0  0  0  0  0  0
  188.6570  173.0060  136.6950 C   0  0  0  0  0  2  0  0  0  0  0  0
  187.8080  174.2440  136.6650 C   0  0  2  0  0  3  0  0  0  0  0  0
  187.6550  171.8780  136.6460 C   0  0  0  0  0  2  0  0  0  0  0  0
  186.3980  173.7130  136.5380 C   0  0  0  0  0  2  0  0  0  0  0  0
  1 18  2  0  0  0  0
  1 26  1  0  0  0  0
  2 27  1  0  0  0  0
  3  7  1  6  0  0  0
  3 16  1  0  0  0  0
  4 15  1  0  0  0  0
  4 23  2  0  0  0  0
  5 11  1  6  0  0  0
  5 19  1  0  0  0  0
  5 15  1  0  0  0  0
  6  7  1  0  0  0  0
  9 13  2  0  0  0  0
  9 27  1  0  0  0  0
 10 17  1  0  0  0  0
 10 22  1  0  0  0  0
 12  8  1  0  0  0  0
 13 20  1  0  0  0  0
 14  2  1  0  0  0  0
 15 12  1  1  0  0  0
 16  8  1  0  0  0  0
 17 25  1  0  0  0  0
 18  4  1  0  0  0  0
 19  6  1  6  0  0  0
 19  3  1  0  0  0  0
 20 11  1  0  0  0  0
 20 18  1  0  0  0  0
 21 23  1  0  0  0  0
 22 24  1  0  0  0  0
 24 13  1  0  0  0  0
 25 14  1  1  0  0  0
 25  9  1  0  0  0  0
 26 21  2  0  0  0  0
 27  1  1  0  0  0  0
 28 17  1  0  0  0  0
 29 28  1  0  0  0  0
 30 34  1  0  0  0  0
 30 33  1  0  0  0  0
 32 29  1  6  0  0  0
 32 31  1  0  0  0  0
 33 31  1  0  0  0  0
 34 32  1  0  0  0  0
M  END
>  <MODEL>
4

>  <REMARK>
 VINA RESULT:      -9.5      2.375      3.946
  Name = 
  3 active torsions:
  status: ('A' for Active; 'I' for Inactive)
    1  A    between atoms: N_17  and  O_28
    2  A    between atoms: O_28  and  C_29
    3  A    between atoms: C_29  and  C_32
                            x       y       z     vdW  Elec       q    Type
                         _______ _______ _______ _____ _____    ______ ____

>  <TORSDO>
F 3

$$$$
=
 OpenBabel11122412123D

 34 41  0  0  1  0  0  0  0  0999 V2000
  187.0710  178.3080  140.7640 C   0  0  0  0  0  0  0  0  0  0  0  0
  184.9310  178.5180  139.3540 C   0  0  0  0  0  2  0  0  0  0  0  0
  189.7920  176.5450  146.3790 C   0  0  2  0  0  3  0  0  0  0  0  0
  188.9540  178.0030  142.2810 C   0  0  0  0  0  0  0  0  0  0  0  0
  188.4130  177.6500  144.7210 C   0  0  1  0  0  3  0  0  0  0  0  0
  188.1210  177.4670  147.3160 C   0  0  0  0  0  2  0  0  0  0  0  0
  189.1110  176.3780  147.7180 C   0  0  0  0  0  2  0  0  0  0  0  0
  191.6700  177.4980  144.9920 C   0  0  0  0  0  2  0  0  0  0  0  0
  184.8110  178.7520  141.6970 C   0  0  0  0  0  0  0  0  0  0  0  0
  182.0210  179.0250  143.1940 C   0  0  0  0  0  2  0  0  0  0  0  0
  187.2350  178.5980  144.5390 C   0  0  0  0  0  2  0  0  0  0  0  0
  190.7700  177.0940  143.8060 C   0  0  0  0  0  2  0  0  0  0  0  0
  185.2740  178.7130  142.9670 C   0  0  0  0  0  0  0  0  0  0  0  0
  183.4550  178.5760  139.7650 C   0  0  0  0  0  2  0  0  0  0  0  0
  189.5150  177.9950  143.6850 C   0  0  1  0  0  3  0  0  0  0  0  0
  191.2730  176.8740  146.3490 C   0  0  0  0  0  2  0  0  0  0  0  0
  182.4670  178.2100  142.0550 N   0  0  0  0  0  0  0  0  0  0  0  0
  187.5840  178.2700  142.0700 C   0  0  0  0  0  0  0  0  0  0  0  0
  188.9930  177.7910  146.1160 C   0  0  1  0  0  3  0  0  0  0  0  0
  186.6850  178.4780  143.1870 N   0  0  0  0  0  0  0  0  0  0  0  0
  189.2820  177.8990  139.8710 C   0  0  0  0  0  3  0  0  0  0  0  0
  183.1640  179.6940  143.9680 C   0  0  0  0  0  2  0  0  0  0  0  0
  189.7970  177.8480  141.1690 C   0  0  0  0  0  3  0  0  0  0  0  0
  184.3410  178.7500  144.1570 C   0  0  0  0  0  2  0  0  0  0  0  0
  183.4120  178.9980  141.2480 C   0  0  1  0  0  3  0  0  0  0  0  0
  187.9190  178.1220  139.6660 C   0  0  0  0  0  3  0  0  0  0  0  0
  185.6720  178.5460  140.5970 N   0  0  0  0  0  0  0  0  0  0  0  0
  181.3530  177.9640  141.3190 O   0  0  0  0  0  0  0  0  0  0  0  0
  180.2940  178.4210  142.1090 C   0  0  0  0  0  2  0  0  0  0  0  0
  180.0550  181.2530  140.5220 O   0  0  0  0  0  0  0  0  0  0  0  0
  179.6740  179.0390  139.7980 C   0  0  0  0  0  2  0  0  0  0  0  0
  179.2730  179.1350  141.2410 C   0  0  2  0  0  3  0  0  0  0  0  0
  179.8480  180.4770  139.3730 C   0  0  0  0  0  2  0  0  0  0  0  0
  179.3150  180.6180  141.5310 C   0  0  0  0  0  2  0  0  0  0  0  0
  1 18  1  0  0  0  0
  2 14  1  0  0  0  0
  2 27  1  0  0  0  0
  3 16  1  1  0  0  0
  3  7  1  0  0  0  0
  4 15  1  0  0  0  0
  5 11  1  1  0  0  0
  5 19  1  0  0  0  0
  6  7  1  0  0  0  0
  8 16  1  0  0  0  0
  9 13  2  0  0  0  0
 10 22  1  0  0  0  0
 12  8  1  0  0  0  0
 13 20  1  0  0  0  0
 13 24  1  0  0  0  0
 15 12  1  6  0  0  0
 15  5  1  0  0  0  0
 17 10  1  0  0  0  0
 18  4  2  0  0  0  0
 18 20  1  0  0  0  0
 19  3  1  0  0  0  0
 19  6  1  1  0  0  0
 20 11  1  0  0  0  0
 21 23  2  0  0  0  0
 22 24  1  0  0  0  0
 23  4  1  0  0  0  0
 25 14  1  6  0  0  0
 25  9  1  0  0  0  0
 25 17  1  0  0  0  0
 26 21  1  0  0  0  0
 26  1  2  0  0  0  0
 27  1  1  0  0  0  0
 27  9  1  0  0  0  0
 28 17  1  0  0  0  0
 28 29  1  0  0  0  0
 30 34  1  0  0  0  0
 31 32  1  0  0  0  0
 32 34  1  0  0  0  0
 32 29  1  1  0  0  0
 33 31  1  0  0  0  0
 33 30  1  0  0  0  0
M  END
>  <MODEL>
5

>  <REMARK>
 VINA RESULT:      -9.2      3.803      8.930
  Name = 
  3 active torsions:
  status: ('A' for Active; 'I' for Inactive)
    1  A    between atoms: N_17  and  O_28
    2  A    between atoms: O_28  and  C_29
    3  A    between atoms: C_29  and  C_32
                            x       y       z     vdW  Elec       q    Type
                         _______ _______ _______ _____ _____    ______ ____

>  <TORSDO>
F 3

$$$$
=
 OpenBabel11122412123D

 34 41  0  0  1  0  0  0  0  0999 V2000
  183.7420  178.6410  143.5830 C   0  0  0  0  0  0  0  0  0  0  0  0
  185.3040  178.3750  145.6080 C   0  0  0  0  0  2  0  0  0  0  0  0
  182.5050  177.2080  137.3820 C   0  0  2  0  0  3  0  0  0  0  0  0
  182.4190  178.7370  141.5390 C   0  0  0  0  0  0  0  0  0  0  0  0
  183.5610  178.0310  139.4010 C   0  0  1  0  0  3  0  0  0  0  0  0
  184.5760  177.5430  137.0380 C   0  0  0  0  0  2  0  0  0  0  0  0
  183.4870  176.7390  136.3330 C   0  0  0  0  0  2  0  0  0  0  0  0
  180.6530  178.7640  138.0950 C   0  0  0  0  0  2  0  0  0  0  0  0
  186.2060  178.3570  143.4300 C   0  0  0  0  0  0  0  0  0  0  0  0
  189.2750  177.7110  142.9140 C   0  0  0  0  0  2  0  0  0  0  0  0
  184.8470  178.6280  139.9570 C   0  0  0  0  0  2  0  0  0  0  0  0
  180.9820  178.2340  139.5050 C   0  0  0  0  0  2  0  0  0  0  0  0
  186.1690  178.3340  142.0790 C   0  0  0  0  0  0  0  0  0  0  0  0
  186.7840  177.9850  145.6950 C   0  0  0  0  0  2  0  0  0  0  0  0
  182.3430  178.7590  140.0280 C   0  0  1  0  0  3  0  0  0  0  0  0
  181.2510  177.9360  136.9350 C   0  0  0  0  0  2  0  0  0  0  0  0
  188.2810  177.1570  143.8430 N   0  0  0  0  0  0  0  0  0  0  0  0
  183.6720  178.6300  142.1810 C   0  0  0  0  0  0  0  0  0  0  0  0
  183.5090  178.2020  137.8950 C   0  0  1  0  0  3  0  0  0  0  0  0
  184.8910  178.4810  141.4140 N   0  0  0  0  0  0  0  0  0  0  0  0
  181.3450  178.9430  143.7140 C   0  0  0  0  0  3  0  0  0  0  0  0
  188.6750  178.5980  141.8150 C   0  0  0  0  0  2  0  0  0  0  0  0
  181.2660  178.9210  142.3190 C   0  0  0  0  0  3  0  0  0  0  0  0
  187.3920  178.0050  141.2530 C   0  0  0  0  0  2  0  0  0  0  0  0
  187.4050  178.2440  144.3070 C   0  0  1  0  0  3  0  0  0  0  0  0
  182.5810  178.7970  144.3480 C   0  0  0  0  0  3  0  0  0  0  0  0
  185.0260  178.4960  144.1930 N   0  0  0  0  0  0  0  0  0  0  0  0
  188.9890  176.6780  144.8980 O   0  0  0  0  0  0  0  0  0  0  0  0
  190.3260  176.7540  144.4950 C   0  0  0  0  0  2  0  0  0  0  0  0
  190.3710  176.2820  147.7150 O   0  0  0  0  0  0  0  0  0  0  0  0
  192.0560  175.9920  146.0880 C   0  0  0  0  0  2  0  0  0  0  0  0
  191.1990  177.1520  145.6730 C   0  0  2  0  0  3  0  0  0  0  0  0
  191.6430  175.7280  147.5160 C   0  0  0  0  0  2  0  0  0  0  0  0
  190.3270  177.4090  146.8810 C   0  0  0  0  0  2  0  0  0  0  0  0
  1 27  1  0  0  0  0
  1 26  1  0  0  0  0
  2 14  1  0  0  0  0
  3  7  1  6  0  0  0
  3 19  1  0  0  0  0
  4 18  1  0  0  0  0
  4 23  2  0  0  0  0
  5 11  1  1  0  0  0
  5 15  1  0  0  0  0
  7  6  1  0  0  0  0
  8 12  1  0  0  0  0
  9 27  1  0  0  0  0
  9 25  1  0  0  0  0
 10 17  1  0  0  0  0
 11 20  1  0  0  0  0
 13  9  2  0  0  0  0
 15 12  1  1  0  0  0
 15  4  1  0  0  0  0
 16  3  1  0  0  0  0
 16  8  1  0  0  0  0
 17 25  1  0  0  0  0
 17 28  1  0  0  0  0
 18  1  2  0  0  0  0
 19  6  1  6  0  0  0
 19  5  1  0  0  0  0
 20 13  1  0  0  0  0
 20 18  1  0  0  0  0
 21 26  2  0  0  0  0
 22 10  1  0  0  0  0
 23 21  1  0  0  0  0
 24 22  1  0  0  0  0
 24 13  1  0  0  0  0
 25 14  1  1  0  0  0
 27  2  1  0  0  0  0
 29 28  1  0  0  0  0
 31 33  1  0  0  0  0
 32 29  1  6  0  0  0
 32 31  1  0  0  0  0
 32 34  1  0  0  0  0
 33 30  1  0  0  0  0
 34 30  1  0  0  0  0
M  END
>  <MODEL>
6

>  <REMARK>
 VINA RESULT:      -9.2      3.603      5.536
  Name = 
  3 active torsions:
  status: ('A' for Active; 'I' for Inactive)
    1  A    between atoms: N_17  and  O_28
    2  A    between atoms: O_28  and  C_29
    3  A    between atoms: C_29  and  C_32
                            x       y       z     vdW  Elec       q    Type
                         _______ _______ _______ _____ _____    ______ ____

>  <TORSDO>
F 3

$$$$
=
 OpenBabel11122412123D

 34 41  0  0  1  0  0  0  0  0999 V2000
  188.6340  177.6350  138.6450 C   0  0  0  0  0  0  0  0  0  0  0  0
  187.0980  178.3150  140.5910 C   0  0  0  0  0  2  0  0  0  0  0  0
  193.7200  174.1560  136.6270 C   0  0  2  0  0  3  0  0  0  0  0  0
  190.2100  176.8370  136.9660 C   0  0  0  0  0  0  0  0  0  0  0  0
  192.3270  175.7500  137.8060 C   0  0  1  0  0  3  0  0  0  0  0  0
  194.6740  174.7710  138.4240 C   0  0  0  0  0  2  0  0  0  0  0  0
  194.8410  173.5920  137.4700 C   0  0  0  0  0  2  0  0  0  0  0  0
  192.9530  175.4600  134.6080 C   0  0  0  0  0  2  0  0  0  0  0  0
  189.3600  177.8080  141.0150 C   0  0  0  0  0  0  0  0  0  0  0  0
  190.4950  177.6520  143.9800 C   0  0  0  0  0  2  0  0  0  0  0  0
  192.3000  176.7290  138.9720 C   0  0  0  0  0  2  0  0  0  0  0  0
  191.5950  175.4630  135.3400 C   0  0  0  0  0  2  0  0  0  0  0  0
  190.6030  177.3650  140.7180 C   0  0  0  0  0  0  0  0  0  0  0  0
  187.3120  178.2690  142.1090 C   0  0  0  0  0  2  0  0  0  0  0  0
  191.6010  176.3800  136.5890 C   0  0  1  0  0  3  0  0  0  0  0  0
  193.9850  174.4500  135.1620 C   0  0  0  0  0  2  0  0  0  0  0  0
  189.2270  177.2260  143.3730 N   0  0  0  0  0  0  0  0  0  0  0  0
  189.9180  177.1810  138.3030 C   0  0  0  0  0  0  0  0  0  0  0  0
  193.7580  175.4370  137.4130 C   0  0  1  0  0  3  0  0  0  0  0  0
  190.9190  177.0470  139.3420 N   0  0  0  0  0  0  0  0  0  0  0  0
  187.9510  177.4840  136.3290 C   0  0  0  0  0  3  0  0  0  0  0  0
  191.5800  178.0240  142.9610 C   0  0  0  0  0  2  0  0  0  0  0  0
  189.2230  177.0210  135.9840 C   0  0  0  0  0  3  0  0  0  0  0  0
  191.6150  177.0470  141.7960 C   0  0  0  0  0  2  0  0  0  0  0  0
  188.8340  178.2080  142.3510 C   0  0  1  0  0  3  0  0  0  0  0  0
  187.6520  177.7860  137.6590 C   0  0  0  0  0  3  0  0  0  0  0  0
  188.3720  177.9400  140.0160 N   0  0  0  0  0  0  0  0  0  0  0  0
  188.3130  177.2420  144.3780 O   0  0  0  0  0  0  0  0  0  0  0  0
  188.9660  177.8700  145.4440 C   0  0  0  0  0  2  0  0  0  0  0  0
  189.5830  178.2540  148.6160 O   0  0  0  0  0  0  0  0  0  0  0  0
  187.5560  177.8610  147.4730 C   0  0  0  0  0  2  0  0  0  0  0  0
  188.6520  177.1450  146.7400 C   0  0  2  0  0  3  0  0  0  0  0  0
  188.1910  178.2530  148.7850 C   0  0  0  0  0  2  0  0  0  0  0  0
  189.8370  177.2470  147.6730 C   0  0  0  0  0  2  0  0  0  0  0  0
  1 27  1  0  0  0  0
  2 14  1  0  0  0  0
  3 16  1  6  0  0  0
  3 19  1  0  0  0  0
  3  7  1  0  0  0  0
  4 18  2  0  0  0  0
  5 11  1  1  0  0  0
  7  6  1  0  0  0  0
  8 16  1  0  0  0  0
  8 12  1  0  0  0  0
  9 25  1  0  0  0  0
 11 20  1  0  0  0  0
 13  9  2  0  0  0  0
 13 24  1  0  0  0  0
 15 12  1  6  0  0  0
 15  4  1  0  0  0  0
 15  5  1  0  0  0  0
 17 10  1  0  0  0  0
 17 28  1  0  0  0  0
 18  1  1  0  0  0  0
 18 20  1  0  0  0  0
 19  5  1  0  0  0  0
 19  6  1  1  0  0  0
 20 13  1  0  0  0  0
 21 26  1  0  0  0  0
 22 10  1  0  0  0  0
 23 21  2  0  0  0  0
 23  4  1  0  0  0  0
 24 22  1  0  0  0  0
 25 14  1  6  0  0  0
 25 17  1  0  0  0  0
 26  1  2  0  0  0  0
 27  2  1  0  0  0  0
 27  9  1  0  0  0  0
 28 29  1  0  0  0  0
 30 33  1  0  0  0  0
 31 33  1  0  0  0  0
 32 29  1  6  0  0  0
 32 31  1  0  0  0  0
 32 34  1  0  0  0  0
 34 30  1  0  0  0  0
M  END
>  <MODEL>
7

>  <REMARK>
 VINA RESULT:      -9.2      3.313      9.200
  Name = 
  3 active torsions:
  status: ('A' for Active; 'I' for Inactive)
    1  A    between atoms: N_17  and  O_28
    2  A    between atoms: O_28  and  C_29
    3  A    between atoms: C_29  and  C_32
                            x       y       z     vdW  Elec       q    Type
                         _______ _______ _______ _____ _____    ______ ____

>  <TORSDO>
F 3

$$$$
=
 OpenBabel11122412123D

 34 41  0  0  1  0  0  0  0  0999 V2000
  189.1910  177.4460  140.7090 C   0  0  0  0  0  0  0  0  0  0  0  0
  188.9220  177.0780  138.1790 C   0  0  0  0  0  2  0  0  0  0  0  0
  186.3990  177.6000  146.5590 C   0  0  2  0  0  3  0  0  0  0  0  0
  189.1980  177.7380  143.1280 C   0  0  0  0  0  0  0  0  0  0  0  0
  186.9610  178.0700  144.2490 C   0  0  1  0  0  3  0  0  0  0  0  0
  184.7970  178.6280  145.6120 C   0  0  0  0  0  2  0  0  0  0  0  0
  184.9310  177.7790  146.8730 C   0  0  0  0  0  2  0  0  0  0  0  0
  188.8060  178.2470  146.9450 C   0  0  0  0  0  2  0  0  0  0  0  0
  187.1310  177.9730  139.4230 C   0  0  0  0  0  0  0  0  0  0  0  0
  184.2790  178.4600  138.1060 C   0  0  0  0  0  2  0  0  0  0  0  0
  186.5160  178.8340  143.0090 C   0  0  0  0  0  2  0  0  0  0  0  0
  189.0500  177.4500  145.6480 C   0  0  0  0  0  2  0  0  0  0  0  0
  186.4660  178.3390  140.5420 C   0  0  0  0  0  0  0  0  0  0  0  0
  187.6830  177.1420  137.2760 C   0  0  0  0  0  2  0  0  0  0  0  0
  188.5020  178.1800  144.3960 C   0  0  1  0  0  3  0  0  0  0  0  0
  187.4240  178.0160  147.5980 C   0  0  0  0  0  2  0  0  0  0  0  0
  185.2720  177.3860  137.9680 N   0  0  0  0  0  0  0  0  0  0  0  0
  188.5310  177.8280  141.8880 C   0  0  0  0  0  0  0  0  0  0  0  0
  186.3100  178.6530  145.4900 C   0  0  1  0  0  3  0  0  0  0  0  0
  187.1580  178.2850  141.8130 N   0  0  0  0  0  0  0  0  0  0  0  0
  191.1960  176.9620  141.9730 C   0  0  0  0  0  3  0  0  0  0  0  0
  184.5460  179.4090  139.2820 C   0  0  0  0  0  2  0  0  0  0  0  0
  190.5410  177.3290  143.1520 C   0  0  0  0  0  3  0  0  0  0  0  0
  184.9870  178.6510  140.5250 C   0  0  0  0  0  2  0  0  0  0  0  0
  186.6190  177.9720  138.0230 C   0  0  1  0  0  3  0  0  0  0  0  0
  190.5210  177.0140  140.7520 C   0  0  0  0  0  3  0  0  0  0  0  0
  188.4670  177.5210  139.4790 N   0  0  0  0  0  0  0  0  0  0  0  0
  185.0700  176.8530  136.7350 O   0  0  0  0  0  0  0  0  0  0  0  0
  184.1500  175.8200  136.9380 C   0  0  0  0  0  2  0  0  0  0  0  0
  185.2350  172.9410  138.0010 O   0  0  0  0  0  0  0  0  0  0  0  0
  183.6140  173.4750  136.3700 C   0  0  0  0  0  2  0  0  0  0  0  0
  184.6800  174.5310  136.3340 C   0  0  2  0  0  3  0  0  0  0  0  0
  184.2160  172.3810  137.2180 C   0  0  0  0  0  2  0  0  0  0  0  0
  185.7720  173.9730  137.2180 C   0  0  0  0  0  2  0  0  0  0  0  0
  1 26  2  0  0  0  0
  1 18  1  0  0  0  0
  2 27  1  0  0  0  0
  3  7  1  1  0  0  0
  3 16  1  0  0  0  0
  4 23  1  0  0  0  0
  4 15  1  0  0  0  0
  5 11  1  6  0  0  0
  5 15  1  0  0  0  0
  5 19  1  0  0  0  0
  6  7  1  0  0  0  0
  8 16  1  0  0  0  0
  9 27  1  0  0  0  0
  9 13  2  0  0  0  0
 10 22  1  0  0  0  0
 12  8  1  0  0  0  0
 13 20  1  0  0  0  0
 14  2  1  0  0  0  0
 15 12  1  1  0  0  0
 17 25  1  0  0  0  0
 17 10  1  0  0  0  0
 18  4  2  0  0  0  0
 19  6  1  6  0  0  0
 19  3  1  0  0  0  0
 20 18  1  0  0  0  0
 20 11  1  0  0  0  0
 21 23  2  0  0  0  0
 22 24  1  0  0  0  0
 24 13  1  0  0  0  0
 25 14  1  6  0  0  0
 25  9  1  0  0  0  0
 26 21  1  0  0  0  0
 27  1  1  0  0  0  0
 28 29  1  0  0  0  0
 28 17  1  0  0  0  0
 31 33  1  0  0  0  0
 32 31  1  0  0  0  0
 32 29  1  1  0  0  0
 32 34  1  0  0  0  0
 33 30  1  0  0  0  0
 34 30  1  0  0  0  0
M  END
>  <MODEL>
8

>  <REMARK>
 VINA RESULT:      -9.1      3.113      5.930
  Name = 
  3 active torsions:
  status: ('A' for Active; 'I' for Inactive)
    1  A    between atoms: N_17  and  O_28
    2  A    between atoms: O_28  and  C_29
    3  A    between atoms: C_29  and  C_32
                            x       y       z     vdW  Elec       q    Type
                         _______ _______ _______ _____ _____    ______ ____

>  <TORSDO>
F 3

$$$$
=
 OpenBabel11122412123D

 34 41  0  0  1  0  0  0  0  0999 V2000
  188.5430  177.5610  142.5660 C   0  0  0  0  0  0  0  0  0  0  0  0
  190.7920  176.8270  141.5570 C   0  0  0  0  0  2  0  0  0  0  0  0
  182.1480  178.2780  141.7750 C   0  0  2  0  0  3  0  0  0  0  0  0
  186.3050  178.1820  143.3020 C   0  0  0  0  0  0  0  0  0  0  0  0
  184.5490  178.4720  141.5130 C   0  0  1  0  0  3  0  0  0  0  0  0
  182.6140  179.0250  139.8400 C   0  0  0  0  0  2  0  0  0  0  0  0
  181.3870  178.3730  140.4720 C   0  0  0  0  0  2  0  0  0  0  0  0
  182.6460  179.1760  144.0790 C   0  0  0  0  0  2  0  0  0  0  0  0
  189.1250  177.7280  140.1550 C   0  0  0  0  0  0  0  0  0  0  0  0
  189.4700  177.7830  136.9960 C   0  0  0  0  0  2  0  0  0  0  0  0
  185.6440  179.0170  140.6050 C   0  0  0  0  0  2  0  0  0  0  0  0
  183.8620  178.2320  143.9970 C   0  0  0  0  0  2  0  0  0  0  0  0
  187.8920  178.1860  139.8390 C   0  0  0  0  0  0  0  0  0  0  0  0
  191.2360  176.6600  140.0990 C   0  0  0  0  0  2  0  0  0  0  0  0
  184.9310  178.7330  142.9930 C   0  0  1  0  0  3  0  0  0  0  0  0
  181.5540  178.9190  143.0150 C   0  0  0  0  0  2  0  0  0  0  0  0
  189.8160  176.7890  138.0200 N   0  0  0  0  0  0  0  0  0  0  0  0
  187.2580  178.0440  142.2710 C   0  0  0  0  0  0  0  0  0  0  0  0
  183.2300  179.1630  141.2200 C   0  0  1  0  0  3  0  0  0  0  0  0
  186.9230  178.3660  140.8990 N   0  0  0  0  0  0  0  0  0  0  0  0
  187.9690  177.4290  144.9120 C   0  0  0  0  0  3  0  0  0  0  0  0
  188.5510  178.9040  137.5000 C   0  0  0  0  0  2  0  0  0  0  0  0
  186.6850  177.8970  144.6240 C   0  0  0  0  0  3  0  0  0  0  0  0
  187.4520  178.3640  138.4030 C   0  0  0  0  0  2  0  0  0  0  0  0
  190.2690  177.4900  139.2310 C   0  0  1  0  0  3  0  0  0  0  0  0
  188.8980  177.2540  143.8840 C   0  0  0  0  0  3  0  0  0  0  0  0
  189.4670  177.4040  141.4860 N   0  0  0  0  0  0  0  0  0  0  0  0
  190.8520  176.0760  137.5070 O   0  0  0  0  0  0  0  0  0  0  0  0
  190.7030  176.1770  136.1200 C   0  0  0  0  0  2  0  0  0  0  0  0
  192.7640  173.8120  136.9880 O   0  0  0  0  0  0  0  0  0  0  0  0
  190.9740  173.8130  135.4500 C   0  0  0  0  0  2  0  0  0  0  0  0
  191.6090  175.1720  135.4300 C   0  0  2  0  0  3  0  0  0  0  0  0
  191.9580  172.9630  136.2160 C   0  0  0  0  0  2  0  0  0  0  0  0
  192.8720  174.9940  136.2400 C   0  0  0  0  0  2  0  0  0  0  0  0
  1 26  1  0  0  0  0
  3  7  1  6  0  0  0
  3 16  1  0  0  0  0
  4 23  2  0  0  0  0
  5 11  1  6  0  0  0
  5 15  1  0  0  0  0
  6  7  1  0  0  0  0
  9 27  1  0  0  0  0
 10 22  1  0  0  0  0
 10 17  1  0  0  0  0
 11 20  1  0  0  0  0
 12  8  1  0  0  0  0
 13  9  2  0  0  0  0
 13 20  1  0  0  0  0
 14  2  1  0  0  0  0
 15  4  1  0  0  0  0
 15 12  1  1  0  0  0
 16  8  1  0  0  0  0
 17 25  1  0  0  0  0
 18  1  2  0  0  0  0
 18  4  1  0  0  0  0
 19  6  1  6  0  0  0
 19  5  1  0  0  0  0
 19  3  1  0  0  0  0
 20 18  1  0  0  0  0
 22 24  1  0  0  0  0
 23 21  1  0  0  0  0
 24 13  1  0  0  0  0
 25 14  1  1  0  0  0
 25  9  1  0  0  0  0
 26 21  2  0  0  0  0
 27  2  1  0  0  0  0
 27  1  1  0  0  0  0
 28 17  1  0  0  0  0
 29 28  1  0  0  0  0
 31 33  1  0  0  0  0
 32 31  1  0  0  0  0
 32 29  1  1  0  0  0
 32 34  1  0  0  0  0
 33 30  1  0  0  0  0
 34 30  1  0  0  0  0
M  END
>  <MODEL>
9

>  <REMARK>
 VINA RESULT:      -9.0      1.184      1.379
  Name = 
  3 active torsions:
  status: ('A' for Active; 'I' for Inactive)
    1  A    between atoms: N_17  and  O_28
    2  A    between atoms: O_28  and  C_29
    3  A    between atoms: C_29  and  C_32
                            x       y       z     vdW  Elec       q    Type
                         _______ _______ _______ _____ _____    ______ ____

>  <TORSDO>
F 3

$$$$
