=
 OpenBabel11122412103D

 34 41  0  0  1  0  0  0  0  0999 V2000
  188.6700  177.6360  139.3280 C   0  0  0  0  0  0  0  0  0  0  0  0
  186.9600  177.0260  137.5820 C   0  0  0  0  0  2  0  0  0  0  0  0
  189.3530  177.1900  145.7800 C   0  0  2  0  0  3  0  0  0  0  0  0
  190.0010  177.6560  141.3230 C   0  0  0  0  0  0  0  0  0  0  0  0
  188.8990  177.4600  143.5770 C   0  0  1  0  0  3  0  0  0  0  0  0
  191.4600  177.6770  144.9110 C   0  0  0  0  0  2  0  0  0  0  0  0
  186.3250  178.5540  139.2860 C   0  0  2  0  0  3  0  0  0  0  0  0
  183.4270  178.3330  140.4710 C   0  0  0  0  0  2  0  0  0  0  0  0
  187.5400  177.6190  142.8650 C   0  0  0  0  0  2  0  0  0  0  0  0
  191.4320  177.4650  143.4000 C   0  0  0  0  0  2  0  0  0  0  0  0
  186.2350  178.2090  140.7920 C   0  0  1  0  0  3  0  0  0  0  0  0
  185.5520  177.0230  137.5940 O   0  0  0  0  0  0  0  0  0  0  0  0
  190.1220  177.9730  142.7890 C   0  0  1  0  0  3  0  0  0  0  0  0
  190.6640  176.6960  145.5310 O   0  0  0  0  0  0  0  0  0  0  0  0
  183.7540  177.8560  139.0660 C   0  0  1  0  0  0  0  0  0  0  0  0
  188.7670  177.8580  140.7000 C   0  0  0  0  0  0  0  0  0  0  0  0
  188.8650  178.1060  144.8200 O   0  0  0  0  0  0  0  0  0  0  0  0
  187.5930  178.3460  141.5110 C   0  0  2  0  0  3  0  0  0  0  0  0
  190.9440  176.9950  139.2560 C   0  0  0  0  0  3  0  0  0  0  0  0
  184.1400  179.5020  140.7380 O   0  0  0  0  0  0  0  0  0  0  0  0
  191.0670  177.2360  140.5880 N   0  0  0  0  0  0  0  0  0  0  0  0
  185.2310  179.1160  141.5290 C   0  0  0  0  0  2  0  0  0  0  0  0
  185.1440  178.1020  138.4130 C   0  0  1  0  0  3  0  0  0  0  0  0
  189.7520  177.1920  138.6340 N   0  0  0  0  0  0  0  0  0  0  0  0
  187.4210  177.8510  138.6730 N   0  0  0  0  0  0  0  0  0  0  0  0
  183.2300  176.5740  138.8080 O   0  0  0  0  0  0  0  0  0  0  0  0
  182.5480  177.6580  138.2120 C   0  0  2  0  0  3  0  0  0  0  0  0
  181.9630  176.4560  134.8250 N   0  0  0  0  0  2  0  0  0  0  0  0
  181.8100  178.5390  136.0130 C   0  0  0  0  0  2  0  0  0  0  0  0
  182.8200  177.6780  136.7140 C   0  0  2  0  0  3  0  0  0  0  0  0
  181.6320  177.8680  134.6720 C   0  0  0  0  0  2  0  0  0  0  0  0
  182.6130  176.3030  136.1220 C   0  0  0  0  0  2  0  0  0  0  0  0
  188.4520  176.9400  147.9900 O   0  0  0  0  0  1  0  0  0  0  0  0
  189.2370  177.7660  147.1840 C   0  0  0  0  0  2  0  0  0  0  0  0
  1 16  1  0  0  0  0
  2 12  1  0  0  0  0
  2 25  1  0  0  0  0
  3 34  1  1  0  0  0
  4 13  1  0  0  0  0
  5  9  1  6  0  0  0
  5 17  1  0  0  0  0
  6 14  1  0  0  0  0
  7 25  1  6  0  0  0
  7 11  1  0  0  0  0
  8 20  1  0  0  0  0
 10  6  1  0  0  0  0
 11 18  1  0  0  0  0
 11 22  1  1  0  0  0
 13 10  1  1  0  0  0
 13  5  1  0  0  0  0
 14  3  1  0  0  0  0
 15  8  1  1  0  0  0
 16  4  2  0  0  0  0
 16 18  1  0  0  0  0
 17  3  1  0  0  0  0
 18  9  1  1  0  0  0
 19 21  2  0  0  0  0
 20 22  1  0  0  0  0
 21  4  1  0  0  0  0
 23 12  1  1  0  0  0
 23 15  1  0  0  0  0
 23  7  1  0  0  0  0
 24 19  1  0  0  0  0
 24  1  2  0  0  0  0
 25  1  1  0  0  0  0
 26 15  1  0  0  0  0
 27 26  1  1  0  0  0
 27 15  1  0  0  0  0
 28 32  1  0  0  0  0
 30 29  1  6  0  0  0
 30 27  1  0  0  0  0
 31 28  1  0  0  0  0
 31 29  1  0  0  0  0
 32 30  1  0  0  0  0
 34 33  1  0  0  0  0
M  END
>  <MODEL>
1

>  <REMARK>
 VINA RESULT:      -8.6      0.000      0.000
  Name = 
  2 active torsions:
  status: ('A' for Active; 'I' for Inactive)
    1  A    between atoms: C_3  and  C_7
    2  A    between atoms: C_29  and  C_32
                            x       y       z     vdW  Elec       q    Type
                         _______ _______ _______ _____ _____    ______ ____

>  <TORSDO>
F 2

$$$$
=
 OpenBabel11122412103D

 34 41  0  0  1  0  0  0  0  0999 V2000
  187.5710  178.3670  140.4030 C   0  0  0  0  0  0  0  0  0  0  0  0
  187.0690  178.0860  142.8560 C   0  0  0  0  0  2  0  0  0  0  0  0
  191.0910  175.3790  135.8240 C   0  0  2  0  0  3  0  0  0  0  0  0
  188.1270  177.9230  138.1130 C   0  0  0  0  0  0  0  0  0  0  0  0
  190.0730  176.4300  137.5530 C   0  0  1  0  0  3  0  0  0  0  0  0
  189.6340  176.8230  134.7180 C   0  0  0  0  0  2  0  0  0  0  0  0
  189.3270  178.4330  142.2080 C   0  0  2  0  0  3  0  0  0  0  0  0
  191.5650  176.8300  143.7150 C   0  0  0  0  0  2  0  0  0  0  0  0
  190.4510  176.4540  139.0490 C   0  0  0  0  0  2  0  0  0  0  0  0
  188.5670  177.2960  135.7030 C   0  0  0  0  0  2  0  0  0  0  0  0
  190.1570  177.4560  141.3430 C   0  0  1  0  0  3  0  0  0  0  0  0
  187.8510  177.6420  143.9400 O   0  0  0  0  0  0  0  0  0  0  0  0
  189.1690  177.5860  137.0810 C   0  0  1  0  0  3  0  0  0  0  0  0
  189.9440  175.4770  134.9870 O   0  0  0  0  0  0  0  0  0  0  0  0
  190.2300  177.1440  144.3690 C   0  0  1  0  0  0  0  0  0  0  0  0
  188.5160  177.9840  139.4530 C   0  0  0  0  0  0  0  0  0  0  0  0
  191.2340  176.4200  136.7680 O   0  0  0  0  0  0  0  0  0  0  0  0
  189.9430  177.6770  139.8310 C   0  0  2  0  0  3  0  0  0  0  0  0
  185.9290  178.5620  138.7140 C   0  0  0  0  0  3  0  0  0  0  0  0
  191.9680  177.9210  142.9450 O   0  0  0  0  0  0  0  0  0  0  0  0
  186.8440  178.2210  137.7680 N   0  0  0  0  0  0  0  0  0  0  0  0
  191.6680  177.5870  141.6160 C   0  0  0  0  0  2  0  0  0  0  0  0
  189.1770  178.0680  143.6930 C   0  0  1  0  0  3  0  0  0  0  0  0
  186.2930  178.6310  140.0220 N   0  0  0  0  0  0  0  0  0  0  0  0
  187.9550  178.4480  141.7750 N   0  0  0  0  0  0  0  0  0  0  0  0
  189.6680  176.0120  144.9910 O   0  0  0  0  0  0  0  0  0  0  0  0
  190.2410  176.9760  145.8500 C   0  0  2  0  0  3  0  0  0  0  0  0
  187.6240  177.1940  148.3720 N   0  0  0  0  0  2  0  0  0  0  0  0
  189.6780  178.3280  147.8530 C   0  0  0  0  0  2  0  0  0  0  0  0
  189.1430  177.7340  146.5830 C   0  0  2  0  0  3  0  0  0  0  0  0
  188.5030  178.2770  148.8000 C   0  0  0  0  0  2  0  0  0  0  0  0
  188.0640  176.7810  147.0450 C   0  0  0  0  0  2  0  0  0  0  0  0
  193.3170  176.1580  135.3810 O   0  0  0  0  0  1  0  0  0  0  0  0
  192.3620  175.2140  135.0030 C   0  0  0  0  0  2  0  0  0  0  0  0
  1 25  1  0  0  0  0
  2 12  1  0  0  0  0
  3 34  1  6  0  0  0
  3 17  1  0  0  0  0
  4 16  1  0  0  0  0
  5  9  1  1  0  0  0
  6 14  1  0  0  0  0
  6 10  1  0  0  0  0
  7 25  1  6  0  0  0
  7 23  1  0  0  0  0
 11 22  1  6  0  0  0
 11  7  1  0  0  0  0
 13 10  1  6  0  0  0
 13  5  1  0  0  0  0
 13  4  1  0  0  0  0
 14  3  1  0  0  0  0
 15  8  1  6  0  0  0
 15 26  1  0  0  0  0
 15 27  1  0  0  0  0
 16 18  1  0  0  0  0
 16  1  2  0  0  0  0
 17  5  1  0  0  0  0
 18  9  1  6  0  0  0
 18 11  1  0  0  0  0
 19 24  2  0  0  0  0
 20  8  1  0  0  0  0
 21  4  2  0  0  0  0
 21 19  1  0  0  0  0
 22 20  1  0  0  0  0
 23 12  1  6  0  0  0
 23 15  1  0  0  0  0
 24  1  1  0  0  0  0
 25  2  1  0  0  0  0
 27 26  1  6  0  0  0
 27 30  1  0  0  0  0
 28 31  1  0  0  0  0
 29 31  1  0  0  0  0
 30 32  1  1  0  0  0
 30 29  1  0  0  0  0
 32 28  1  0  0  0  0
 34 33  1  0  0  0  0
M  END
>  <MODEL>
2

>  <REMARK>
 VINA RESULT:      -8.5      3.093      8.719
  Name = 
  2 active torsions:
  status: ('A' for Active; 'I' for Inactive)
    1  A    between atoms: C_3  and  C_7
    2  A    between atoms: C_29  and  C_32
                            x       y       z     vdW  Elec       q    Type
                         _______ _______ _______ _____ _____    ______ ____

>  <TORSDO>
F 2

$$$$
=
 OpenBabel11122412103D

 34 41  0  0  1  0  0  0  0  0999 V2000
  187.5560  178.2890  139.9840 C   0  0  0  0  0  0  0  0  0  0  0  0
  185.5850  177.8620  138.4740 C   0  0  0  0  0  2  0  0  0  0  0  0
  189.4370  176.7540  146.0170 C   0  0  2  0  0  3  0  0  0  0  0  0
  189.2290  178.0620  141.6870 C   0  0  0  0  0  0  0  0  0  0  0  0
  188.5730  177.3750  144.0170 C   0  0  1  0  0  3  0  0  0  0  0  0
  191.3220  177.5610  144.9080 C   0  0  0  0  0  2  0  0  0  0  0  0
  185.2010  179.0030  140.5220 C   0  0  2  0  0  3  0  0  0  0  0  0
  182.5860  178.3340  142.1240 C   0  0  0  0  0  2  0  0  0  0  0  0
  187.1000  177.5460  143.5940 C   0  0  0  0  0  2  0  0  0  0  0  0
  191.0260  177.6210  143.4120 C   0  0  0  0  0  2  0  0  0  0  0  0
  185.4070  178.3880  141.9270 C   0  0  1  0  0  3  0  0  0  0  0  0
  184.2050  177.7410  138.7280 O   0  0  0  0  0  0  0  0  0  0  0  0
  189.6020  178.1200  143.1440 C   0  0  1  0  0  3  0  0  0  0  0  0
  190.7020  176.4220  145.4560 O   0  0  0  0  0  0  0  0  0  0  0  0
  182.6700  178.1460  140.6180 C   0  0  1  0  0  0  0  0  0  0  0  0
  187.8930  178.2690  141.3360 C   0  0  0  0  0  0  0  0  0  0  0  0
  188.7370  177.7830  145.3480 O   0  0  0  0  0  0  0  0  0  0  0  0
  186.8660  178.5050  142.4150 C   0  0  2  0  0  3  0  0  0  0  0  0
  189.8060  177.8620  139.4010 C   0  0  0  0  0  3  0  0  0  0  0  0
  183.2770  179.4920  142.4820 O   0  0  0  0  0  0  0  0  0  0  0  0
  190.1610  177.8700  140.7140 N   0  0  0  0  0  0  0  0  0  0  0  0
  184.5130  179.0620  142.9850 C   0  0  0  0  0  2  0  0  0  0  0  0
  183.9030  178.6190  139.7950 C   0  0  1  0  0  3  0  0  0  0  0  0
  188.5110  178.0670  139.0430 N   0  0  0  0  0  0  0  0  0  0  0  0
  186.1980  178.5140  139.6070 N   0  0  0  0  0  0  0  0  0  0  0  0
  182.1720  176.8920  140.2150 O   0  0  0  0  0  0  0  0  0  0  0  0
  181.3390  178.0040  139.9630 C   0  0  2  0  0  3  0  0  0  0  0  0
  179.9020  177.7080  136.6300 N   0  0  0  0  0  2  0  0  0  0  0  0
  180.4100  179.4670  138.1860 C   0  0  0  0  0  2  0  0  0  0  0  0
  181.3290  178.3150  138.4720 C   0  0  2  0  0  3  0  0  0  0  0  0
  179.8520  179.1540  136.8200 C   0  0  0  0  0  2  0  0  0  0  0  0
  180.7320  177.1620  137.6980 C   0  0  0  0  0  2  0  0  0  0  0  0
  188.2910  177.1340  148.0910 O   0  0  0  0  0  1  0  0  0  0  0  0
  189.5550  177.0570  147.5040 C   0  0  0  0  0  2  0  0  0  0  0  0
  1 16  1  0  0  0  0
  2 12  1  0  0  0  0
  2 25  1  0  0  0  0
  3 34  1  1  0  0  0
  4 13  1  0  0  0  0
  5  9  1  6  0  0  0
  5 17  1  0  0  0  0
  6 14  1  0  0  0  0
  7 25  1  6  0  0  0
  7 11  1  0  0  0  0
  8 20  1  0  0  0  0
 10  6  1  0  0  0  0
 11 18  1  0  0  0  0
 11 22  1  1  0  0  0
 13 10  1  6  0  0  0
 13  5  1  0  0  0  0
 14  3  1  0  0  0  0
 15  8  1  1  0  0  0
 16  4  2  0  0  0  0
 16 18  1  0  0  0  0
 17  3  1  0  0  0  0
 18  9  1  1  0  0  0
 19 21  2  0  0  0  0
 20 22  1  0  0  0  0
 21  4  1  0  0  0  0
 23 12  1  6  0  0  0
 23  7  1  0  0  0  0
 23 15  1  0  0  0  0
 24 19  1  0  0  0  0
 24  1  2  0  0  0  0
 25  1  1  0  0  0  0
 26 15  1  0  0  0  0
 27 26  1  6  0  0  0
 27 15  1  0  0  0  0
 28 31  1  0  0  0  0
 28 32  1  0  0  0  0
 29 30  1  0  0  0  0
 30 32  1  6  0  0  0
 30 27  1  0  0  0  0
 31 29  1  0  0  0  0
 34 33  1  0  0  0  0
M  END
>  <MODEL>
3

>  <REMARK>
 VINA RESULT:      -8.3      1.445      1.655
  Name = 
  2 active torsions:
  status: ('A' for Active; 'I' for Inactive)
    1  A    between atoms: C_3  and  C_7
    2  A    between atoms: C_29  and  C_32
                            x       y       z     vdW  Elec       q    Type
                         _______ _______ _______ _____ _____    ______ ____

>  <TORSDO>
F 2

$$$$
=
 OpenBabel11122412103D

 34 41  0  0  1  0  0  0  0  0999 V2000
  188.6140  177.5800  143.0510 C   0  0  0  0  0  0  0  0  0  0  0  0
  190.3820  176.2870  141.8060 C   0  0  0  0  0  2  0  0  0  0  0  0
  182.2000  178.5810  142.6720 C   0  0  2  0  0  3  0  0  0  0  0  0
  186.5210  178.2780  143.9910 C   0  0  0  0  0  0  0  0  0  0  0  0
  184.4460  178.3050  142.5670 C   0  0  1  0  0  3  0  0  0  0  0  0
  182.8740  179.3200  144.7770 C   0  0  0  0  0  2  0  0  0  0  0  0
  189.1720  177.9530  140.6230 C   0  0  2  0  0  3  0  0  0  0  0  0
  188.3560  177.3650  137.6510 C   0  0  0  0  0  2  0  0  0  0  0  0
  185.3460  178.0280  141.3460 C   0  0  0  0  0  2  0  0  0  0  0  0
  184.2870  178.8110  145.0500 C   0  0  0  0  0  2  0  0  0  0  0  0
  187.6520  177.9040  140.3360 C   0  0  1  0  0  3  0  0  0  0  0  0
  190.5540  175.9890  140.4410 O   0  0  0  0  0  0  0  0  0  0  0  0
  185.1640  178.8980  143.7970 C   0  0  1  0  0  3  0  0  0  0  0  0
  182.1560  178.3360  144.0730 O   0  0  0  0  0  0  0  0  0  0  0  0
  189.5600  176.6980  138.2950 C   0  0  1  0  0  0  0  0  0  0  0  0
  187.3290  178.0860  142.8680 C   0  0  0  0  0  0  0  0  0  0  0  0
  183.4000  179.1630  142.2040 O   0  0  0  0  0  0  0  0  0  0  0  0
  186.8120  178.4650  141.5030 C   0  0  2  0  0  3  0  0  0  0  0  0
  188.2400  177.4330  145.3800 C   0  0  0  0  0  3  0  0  0  0  0  0
  188.2740  178.6870  138.0860 O   0  0  0  0  0  0  0  0  0  0  0  0
  186.9940  177.9550  145.2260 N   0  0  0  0  0  0  0  0  0  0  0  0
  187.2800  178.7060  139.0750 C   0  0  0  0  0  2  0  0  0  0  0  0
  190.0640  177.0980  139.7110 C   0  0  1  0  0  3  0  0  0  0  0  0
  189.0400  177.2450  144.2980 N   0  0  0  0  0  0  0  0  0  0  0  0
  189.4590  177.3910  141.9160 N   0  0  0  0  0  0  0  0  0  0  0  0
  189.5820  175.3100  138.0610 O   0  0  0  0  0  0  0  0  0  0  0  0
  190.4950  176.0830  137.3110 C   0  0  2  0  0  3  0  0  0  0  0  0
  193.6770  174.3120  137.3110 N   0  0  0  0  0  2  0  0  0  0  0  0
  192.9030  176.5580  136.9470 C   0  0  0  0  0  2  0  0  0  0  0  0
  191.9090  175.8630  137.8300 C   0  0  2  0  0  3  0  0  0  0  0  0
  194.1200  175.6670  137.0010 C   0  0  0  0  0  2  0  0  0  0  0  0
  192.2840  174.4010  137.7340 C   0  0  0  0  0  2  0  0  0  0  0  0
  180.9420  179.4480  140.8210 O   0  0  0  0  0  1  0  0  0  0  0  0
  180.9920  179.3870  142.2140 C   0  0  0  0  0  2  0  0  0  0  0  0
  1 24  1  0  0  0  0
  2 25  1  0  0  0  0
  3 34  1  1  0  0  0
  3 14  1  0  0  0  0
  4 21  2  0  0  0  0
  5  9  1  6  0  0  0
  5 13  1  0  0  0  0
  6 10  1  0  0  0  0
  7 25  1  1  0  0  0
  8 20  1  0  0  0  0
 11 22  1  6  0  0  0
 11  7  1  0  0  0  0
 11 18  1  0  0  0  0
 12  2  1  0  0  0  0
 13  4  1  0  0  0  0
 13 10  1  1  0  0  0
 14  6  1  0  0  0  0
 15  8  1  6  0  0  0
 15 23  1  0  0  0  0
 16  1  2  0  0  0  0
 16  4  1  0  0  0  0
 17  5  1  0  0  0  0
 17  3  1  0  0  0  0
 18  9  1  6  0  0  0
 18 16  1  0  0  0  0
 20 22  1  0  0  0  0
 21 19  1  0  0  0  0
 23 12  1  1  0  0  0
 23  7  1  0  0  0  0
 24 19  2  0  0  0  0
 25  1  1  0  0  0  0
 26 15  1  0  0  0  0
 27 30  1  0  0  0  0
 27 26  1  1  0  0  0
 27 15  1  0  0  0  0
 28 32  1  0  0  0  0
 29 31  1  0  0  0  0
 30 29  1  6  0  0  0
 31 28  1  0  0  0  0
 32 30  1  0  0  0  0
 33 34  1  0  0  0  0
M  END
>  <MODEL>
4

>  <REMARK>
 VINA RESULT:      -8.0      3.845      7.055
  Name = 
  2 active torsions:
  status: ('A' for Active; 'I' for Inactive)
    1  A    between atoms: C_3  and  C_7
    2  A    between atoms: C_29  and  C_32
                            x       y       z     vdW  Elec       q    Type
                         _______ _______ _______ _____ _____    ______ ____

>  <TORSDO>
F 2

$$$$
=
 OpenBabel11122412103D

 34 41  0  0  1  0  0  0  0  0999 V2000
  183.6320  178.7600  142.8950 C   0  0  0  0  0  0  0  0  0  0  0  0
  185.7550  178.1820  144.1210 C   0  0  0  0  0  2  0  0  0  0  0  0
  180.4460  176.8060  137.5730 C   0  0  2  0  0  3  0  0  0  0  0  0
  181.6570  178.6200  141.5410 C   0  0  0  0  0  0  0  0  0  0  0  0
  181.7530  177.5180  139.2800 C   0  0  1  0  0  3  0  0  0  0  0  0
  178.9520  178.0890  138.8200 C   0  0  0  0  0  2  0  0  0  0  0  0
  185.9300  178.9470  141.8800 C   0  0  2  0  0  3  0  0  0  0  0  0
  188.0620  177.5990  140.0130 C   0  0  0  0  0  2  0  0  0  0  0  0
  183.2880  177.4700  139.4300 C   0  0  0  0  0  2  0  0  0  0  0  0
  179.5260  178.2920  140.2200 C   0  0  0  0  0  2  0  0  0  0  0  0
  185.3720  178.1990  140.6450 C   0  0  1  0  0  3  0  0  0  0  0  0
  187.0280  177.7750  143.6750 O   0  0  0  0  0  0  0  0  0  0  0  0
  181.0350  178.5510  140.1720 C   0  0  1  0  0  3  0  0  0  0  0  0
  179.2700  176.7920  138.3750 O   0  0  0  0  0  0  0  0  0  0  0  0
  188.2290  177.6330  141.5230 C   0  0  1  0  0  0  0  0  0  0  0  0
  183.0510  178.6220  141.6360 C   0  0  0  0  0  0  0  0  0  0  0  0
  181.4120  177.7680  137.9440 O   0  0  0  0  0  0  0  0  0  0  0  0
  183.8840  178.5180  140.3840 C   0  0  2  0  0  3  0  0  0  0  0  0
  181.4900  178.8370  143.8910 C   0  0  0  0  0  3  0  0  0  0  0  0
  187.5090  178.8060  139.5850 O   0  0  0  0  0  0  0  0  0  0  0  0
  180.9040  178.7350  142.6690 N   0  0  0  0  0  0  0  0  0  0  0  0
  186.1490  178.5490  139.3620 C   0  0  0  0  0  2  0  0  0  0  0  0
  187.2620  178.4310  142.4430 C   0  0  1  0  0  3  0  0  0  0  0  0
  182.8450  178.8460  144.0000 N   0  0  0  0  0  0  0  0  0  0  0  0
  185.0540  178.7780  143.0090 N   0  0  0  0  0  0  0  0  0  0  0  0
  188.5890  176.3730  142.0420 O   0  0  0  0  0  0  0  0  0  0  0  0
  189.6200  177.3360  141.9730 C   0  0  2  0  0  3  0  0  0  0  0  0
  191.4960  177.1450  145.0870 N   0  0  0  0  0  2  0  0  0  0  0  0
  191.1490  178.7440  143.3280 C   0  0  0  0  0  2  0  0  0  0  0  0
  189.9550  177.8360  143.3710 C   0  0  2  0  0  3  0  0  0  0  0  0
  191.8450  178.4900  144.6430 C   0  0  0  0  0  2  0  0  0  0  0  0
  190.3930  176.6870  144.2500 C   0  0  0  0  0  2  0  0  0  0  0  0
  180.8730  177.9210  135.4910 O   0  0  0  0  0  1  0  0  0  0  0  0
  180.1050  176.9250  136.0940 C   0  0  0  0  0  2  0  0  0  0  0  0
  1 25  1  0  0  0  0
  1 24  1  0  0  0  0
  3 34  1  6  0  0  0
  3 17  1  0  0  0  0
  3 14  1  0  0  0  0
  4 16  1  0  0  0  0
  4 21  2  0  0  0  0
  5  9  1  6  0  0  0
  5 13  1  0  0  0  0
  6 10  1  0  0  0  0
  7 23  1  0  0  0  0
  7 25  1  1  0  0  0
 11 22  1  6  0  0  0
 11  7  1  0  0  0  0
 12  2  1  0  0  0  0
 13 10  1  1  0  0  0
 13  4  1  0  0  0  0
 14  6  1  0  0  0  0
 15  8  1  6  0  0  0
 15 27  1  0  0  0  0
 15 26  1  0  0  0  0
 15 23  1  0  0  0  0
 16  1  2  0  0  0  0
 17  5  1  0  0  0  0
 18  9  1  6  0  0  0
 18 11  1  0  0  0  0
 18 16  1  0  0  0  0
 19 24  2  0  0  0  0
 20  8  1  0  0  0  0
 21 19  1  0  0  0  0
 22 20  1  0  0  0  0
 23 12  1  1  0  0  0
 25  2  1  0  0  0  0
 27 26  1  1  0  0  0
 27 30  1  0  0  0  0
 29 31  1  0  0  0  0
 30 29  1  6  0  0  0
 30 32  1  0  0  0  0
 31 28  1  0  0  0  0
 32 28  1  0  0  0  0
 33 34  1  0  0  0  0
M  END
>  <MODEL>
5

>  <REMARK>
 VINA RESULT:      -7.4      3.016      9.274
  Name = 
  2 active torsions:
  status: ('A' for Active; 'I' for Inactive)
    1  A    between atoms: C_3  and  C_7
    2  A    between atoms: C_29  and  C_32
                            x       y       z     vdW  Elec       q    Type
                         _______ _______ _______ _____ _____    ______ ____

>  <TORSDO>
F 2

$$$$
=
 OpenBabel11122412103D

 34 41  0  0  1  0  0  0  0  0999 V2000
  185.9390  178.2410  143.3380 C   0  0  0  0  0  0  0  0  0  0  0  0
  185.7170  179.0020  140.9470 C   0  0  0  0  0  2  0  0  0  0  0  0
  190.5130  178.1120  147.9580 C   0  0  2  0  0  3  0  0  0  0  0  0
  186.6340  178.0450  145.6250 C   0  0  0  0  0  0  0  0  0  0  0  0
  189.0830  178.0390  146.2030 C   0  0  1  0  0  3  0  0  0  0  0  0
  188.4760  177.7060  149.0150 C   0  0  0  0  0  2  0  0  0  0  0  0
  187.3270  177.3290  141.4440 C   0  0  2  0  0  3  0  0  0  0  0  0
  190.0900  177.4400  139.9610 C   0  0  0  0  0  2  0  0  0  0  0  0
  189.3830  177.9420  144.6940 C   0  0  0  0  0  2  0  0  0  0  0  0
  187.3440  178.0520  148.0530 C   0  0  0  0  0  2  0  0  0  0  0  0
  188.5690  177.5370  142.3430 C   0  0  1  0  0  3  0  0  0  0  0  0
  186.6180  179.0030  139.8640 O   0  0  0  0  0  0  0  0  0  0  0  0
  187.6660  177.5990  146.6250 C   0  0  1  0  0  3  0  0  0  0  0  0
  189.5260  178.6280  148.8440 O   0  0  0  0  0  0  0  0  0  0  0  0
  188.8320  178.0400  139.3540 C   0  0  1  0  0  0  0  0  0  0  0  0
  186.9200  177.8980  144.2660 C   0  0  0  0  0  0  0  0  0  0  0  0
  190.0180  177.2850  146.9250 O   0  0  0  0  0  0  0  0  0  0  0  0
  188.2550  177.3390  143.8410 C   0  0  2  0  0  3  0  0  0  0  0  0
  184.4890  178.8880  145.0890 C   0  0  0  0  0  3  0  0  0  0  0  0
  189.7630  176.2530  140.6150 O   0  0  0  0  0  0  0  0  0  0  0  0
  185.4220  178.5290  146.0110 N   0  0  0  0  0  0  0  0  0  0  0  0
  189.7100  176.5680  141.9810 C   0  0  0  0  0  2  0  0  0  0  0  0
  187.4320  177.8550  140.0050 C   0  0  1  0  0  3  0  0  0  0  0  0
  184.7500  178.7460  143.7630 N   0  0  0  0  0  0  0  0  0  0  0  0
  186.2100  178.0840  141.9460 N   0  0  0  0  0  0  0  0  0  0  0  0
  189.0540  179.3400  138.8570 O   0  0  0  0  0  0  0  0  0  0  0  0
  188.9510  178.3130  137.8930 C   0  0  2  0  0  3  0  0  0  0  0  0
  186.9540  178.3000  134.8480 N   0  0  0  0  0  2  0  0  0  0  0  0
  187.0490  177.0630  136.9060 C   0  0  0  0  0  2  0  0  0  0  0  0
  187.6220  178.4260  137.1580 C   0  0  2  0  0  3  0  0  0  0  0  0
  186.3250  177.2120  135.5900 C   0  0  0  0  0  2  0  0  0  0  0  0
  187.8320  179.0030  135.7770 C   0  0  0  0  0  2  0  0  0  0  0  0
  192.2840  176.4930  147.9030 O   0  0  0  0  0  1  0  0  0  0  0  0
  191.6300  177.4130  148.7220 C   0  0  0  0  0  2  0  0  0  0  0  0
  1 24  2  0  0  0  0
  1 16  1  0  0  0  0
  2 25  1  0  0  0  0
  3 34  1  1  0  0  0
  3 14  1  0  0  0  0
  4 21  1  0  0  0  0
  4 13  1  0  0  0  0
  5  9  1  6  0  0  0
  5 13  1  0  0  0  0
  5 17  1  0  0  0  0
  7 25  1  1  0  0  0
  7 11  1  0  0  0  0
  8 20  1  0  0  0  0
 10  6  1  0  0  0  0
 11 22  1  6  0  0  0
 11 18  1  0  0  0  0
 12  2  1  0  0  0  0
 13 10  1  1  0  0  0
 14  6  1  0  0  0  0
 15  8  1  1  0  0  0
 15 23  1  0  0  0  0
 16  4  2  0  0  0  0
 17  3  1  0  0  0  0
 18 16  1  0  0  0  0
 18  9  1  1  0  0  0
 19 21  2  0  0  0  0
 20 22  1  0  0  0  0
 23 12  1  1  0  0  0
 23  7  1  0  0  0  0
 24 19  1  0  0  0  0
 25  1  1  0  0  0  0
 26 15  1  0  0  0  0
 27 26  1  1  0  0  0
 27 15  1  0  0  0  0
 28 31  1  0  0  0  0
 28 32  1  0  0  0  0
 29 30  1  0  0  0  0
 30 32  1  6  0  0  0
 30 27  1  0  0  0  0
 31 29  1  0  0  0  0
 33 34  1  0  0  0  0
M  END
>  <MODEL>
6

>  <REMARK>
 VINA RESULT:      -7.4      2.877      5.004
  Name = 
  2 active torsions:
  status: ('A' for Active; 'I' for Inactive)
    1  A    between atoms: C_3  and  C_7
    2  A    between atoms: C_29  and  C_32
                            x       y       z     vdW  Elec       q    Type
                         _______ _______ _______ _____ _____    ______ ____

>  <TORSDO>
F 2

$$$$
=
 OpenBabel11122412103D

 34 41  0  0  1  0  0  0  0  0999 V2000
  188.1940  178.0780  139.9790 C   0  0  0  0  0  0  0  0  0  0  0  0
  190.3630  176.8370  139.6560 C   0  0  0  0  0  2  0  0  0  0  0  0
  182.0490  177.6830  137.8870 C   0  0  2  0  0  3  0  0  0  0  0  0
  185.8610  178.6090  140.1480 C   0  0  0  0  0  0  0  0  0  0  0  0
  184.2570  177.8210  138.3770 C   0  0  1  0  0  3  0  0  0  0  0  0
  182.0460  179.1230  139.7200 C   0  0  0  0  0  2  0  0  0  0  0  0
  189.3410  177.8200  137.7500 C   0  0  2  0  0  3  0  0  0  0  0  0
  189.4250  176.2400  135.0410 C   0  0  0  0  0  2  0  0  0  0  0  0
  185.4780  177.3740  137.5470 C   0  0  0  0  0  2  0  0  0  0  0  0
  183.3800  178.9950  140.4500 C   0  0  0  0  0  2  0  0  0  0  0  0
  187.9690  177.4010  137.1690 C   0  0  1  0  0  3  0  0  0  0  0  0
  190.9280  176.1890  138.5400 O   0  0  0  0  0  0  0  0  0  0  0  0
  184.5470  178.8750  139.4640 C   0  0  1  0  0  3  0  0  0  0  0  0
  181.6560  177.8570  139.2440 O   0  0  0  0  0  0  0  0  0  0  0  0
  190.4770  176.0340  136.1180 C   0  0  1  0  0  0  0  0  0  0  0  0
  186.9580  178.2530  139.3590 C   0  0  0  0  0  0  0  0  0  0  0  0
  183.2590  178.3190  137.5280 O   0  0  0  0  0  0  0  0  0  0  0  0
  186.7900  178.1090  137.8680 C   0  0  2  0  0  3  0  0  0  0  0  0
  187.2240  178.5540  142.0810 C   0  0  0  0  0  3  0  0  0  0  0  0
  189.0840  177.5910  134.9820 O   0  0  0  0  0  0  0  0  0  0  0  0
  186.0170  178.7600  141.4910 N   0  0  0  0  0  0  0  0  0  0  0  0
  187.8650  177.7100  135.6640 C   0  0  0  0  0  2  0  0  0  0  0  0
  190.5340  176.9210  137.3950 C   0  0  1  0  0  3  0  0  0  0  0  0
  188.3030  178.2130  141.3270 N   0  0  0  0  0  0  0  0  0  0  0  0
  189.3280  177.7280  139.1860 N   0  0  0  0  0  0  0  0  0  0  0  0
  190.7140  174.6690  136.3700 O   0  0  0  0  0  0  0  0  0  0  0  0
  191.7040  175.3470  135.6260 C   0  0  2  0  0  3  0  0  0  0  0  0
  194.8420  174.2090  137.0810 N   0  0  0  0  0  2  0  0  0  0  0  0
  194.1040  175.9790  135.6340 C   0  0  0  0  0  2  0  0  0  0  0  0
  192.9420  175.5620  136.4870 C   0  0  2  0  0  3  0  0  0  0  0  0
  195.2980  175.3720  136.3290 C   0  0  0  0  0  2  0  0  0  0  0  0
  193.3850  174.2570  137.1070 C   0  0  0  0  0  2  0  0  0  0  0  0
  181.2440  179.2550  136.2620 O   0  0  0  0  0  1  0  0  0  0  0  0
  180.9290  178.0730  136.9330 C   0  0  0  0  0  2  0  0  0  0  0  0
  1 24  1  0  0  0  0
  3 34  1  6  0  0  0
  3 14  1  0  0  0  0
  4 21  2  0  0  0  0
  5  9  1  6  0  0  0
  5 13  1  0  0  0  0
  6 10  1  0  0  0  0
  7 25  1  1  0  0  0
 11 22  1  6  0  0  0
 11  7  1  0  0  0  0
 11 18  1  0  0  0  0
 12  2  1  0  0  0  0
 13  4  1  0  0  0  0
 13 10  1  1  0  0  0
 14  6  1  0  0  0  0
 15  8  1  6  0  0  0
 15 26  1  0  0  0  0
 15 23  1  0  0  0  0
 16  1  2  0  0  0  0
 16  4  1  0  0  0  0
 17  3  1  0  0  0  0
 17  5  1  0  0  0  0
 18  9  1  1  0  0  0
 18 16  1  0  0  0  0
 20  8  1  0  0  0  0
 20 22  1  0  0  0  0
 21 19  1  0  0  0  0
 23  7  1  0  0  0  0
 23 12  1  1  0  0  0
 24 19  2  0  0  0  0
 25  2  1  0  0  0  0
 25  1  1  0  0  0  0
 27 15  1  0  0  0  0
 27 26  1  1  0  0  0
 27 30  1  0  0  0  0
 28 32  1  0  0  0  0
 29 31  1  0  0  0  0
 30 29  1  6  0  0  0
 30 32  1  0  0  0  0
 31 28  1  0  0  0  0
 33 34  1  0  0  0  0
M  END
>  <MODEL>
7

>  <REMARK>
 VINA RESULT:      -6.9      3.555      8.355
  Name = 
  2 active torsions:
  status: ('A' for Active; 'I' for Inactive)
    1  A    between atoms: C_3  and  C_7
    2  A    between atoms: C_29  and  C_32
                            x       y       z     vdW  Elec       q    Type
                         _______ _______ _______ _____ _____    ______ ____

>  <TORSDO>
F 2

$$$$
=
 OpenBabel11122412103D

 34 41  0  0  1  0  0  0  0  0999 V2000
  188.3810  177.8250  141.2170 C   0  0  0  0  0  0  0  0  0  0  0  0
  190.4120  176.5350  140.4710 C   0  0  0  0  0  2  0  0  0  0  0  0
  182.1460  178.4430  139.4770 C   0  0  2  0  0  3  0  0  0  0  0  0
  186.1160  178.4810  141.6530 C   0  0  0  0  0  0  0  0  0  0  0  0
  184.3750  178.2820  139.8480 C   0  0  1  0  0  3  0  0  0  0  0  0
  182.3490  179.3840  141.6000 C   0  0  0  0  0  2  0  0  0  0  0  0
  189.4070  178.0320  138.9260 C   0  0  2  0  0  3  0  0  0  0  0  0
  189.2350  177.1640  135.9150 C   0  0  0  0  0  2  0  0  0  0  0  0
  185.5140  177.9570  138.8610 C   0  0  0  0  0  2  0  0  0  0  0  0
  183.6950  178.9760  142.1930 C   0  0  0  0  0  2  0  0  0  0  0  0
  187.9800  177.8780  138.3470 C   0  0  1  0  0  3  0  0  0  0  0  0
  190.8690  176.1370  139.1990 O   0  0  0  0  0  0  0  0  0  0  0  0
  184.8050  179.0100  141.1370 C   0  0  1  0  0  3  0  0  0  0  0  0
  181.8260  178.3090  140.8580 O   0  0  0  0  0  0  0  0  0  0  0  0
  190.3070  176.6170  136.8440 C   0  0  1  0  0  0  0  0  0  0  0  0
  187.1420  178.2440  140.7360 C   0  0  0  0  0  0  0  0  0  0  0  0
  183.3930  179.0500  139.2070 O   0  0  0  0  0  0  0  0  0  0  0  0
  186.9000  178.4840  139.2670 C   0  0  2  0  0  3  0  0  0  0  0  0
  187.5460  177.8460  143.4280 C   0  0  0  0  0  3  0  0  0  0  0  0
  189.0180  178.5100  136.2050 O   0  0  0  0  0  0  0  0  0  0  0  0
  186.3400  178.2860  142.9820 N   0  0  0  0  0  0  0  0  0  0  0  0
  187.8430  178.5550  136.9700 C   0  0  0  0  0  2  0  0  0  0  0  0
  190.4970  177.1560  138.2910 C   0  0  1  0  0  3  0  0  0  0  0  0
  188.5570  177.6160  142.5490 N   0  0  0  0  0  0  0  0  0  0  0  0
  189.4450  177.5920  140.2950 N   0  0  0  0  0  0  0  0  0  0  0  0
  190.4280  175.2180  136.7450 O   0  0  0  0  0  0  0  0  0  0  0  0
  191.4450  175.9770  136.1250 C   0  0  2  0  0  3  0  0  0  0  0  0
  194.4810  174.2330  137.1260 N   0  0  0  0  0  2  0  0  0  0  0  0
  193.9000  176.3330  136.1130 C   0  0  0  0  0  2  0  0  0  0  0  0
  192.7310  175.8760  136.9340 C   0  0  2  0  0  3  0  0  0  0  0  0
  195.0410  175.4720  136.5970 C   0  0  0  0  0  2  0  0  0  0  0  0
  193.0410  174.4310  137.2520 C   0  0  0  0  0  2  0  0  0  0  0  0
  181.4710  180.3610  138.2020 O   0  0  0  0  0  1  0  0  0  0  0  0
  181.0280  179.1430  138.7170 C   0  0  0  0  0  2  0  0  0  0  0  0
  1 24  1  0  0  0  0
  3 34  1  6  0  0  0
  3 14  1  0  0  0  0
  4 21  2  0  0  0  0
  5  9  1  6  0  0  0
  5 13  1  0  0  0  0
  6 10  1  0  0  0  0
  7 25  1  1  0  0  0
  8 20  1  0  0  0  0
 11 22  1  6  0  0  0
 11  7  1  0  0  0  0
 11 18  1  0  0  0  0
 12  2  1  0  0  0  0
 13  4  1  0  0  0  0
 13 10  1  1  0  0  0
 14  6  1  0  0  0  0
 15  8  1  6  0  0  0
 15 23  1  0  0  0  0
 16  1  2  0  0  0  0
 16  4  1  0  0  0  0
 17  3  1  0  0  0  0
 17  5  1  0  0  0  0
 18  9  1  6  0  0  0
 18 16  1  0  0  0  0
 20 22  1  0  0  0  0
 21 19  1  0  0  0  0
 23  7  1  0  0  0  0
 23 12  1  1  0  0  0
 24 19  2  0  0  0  0
 25  2  1  0  0  0  0
 25  1  1  0  0  0  0
 26 15  1  0  0  0  0
 27 26  1  1  0  0  0
 27 15  1  0  0  0  0
 27 30  1  0  0  0  0
 28 32  1  0  0  0  0
 29 31  1  0  0  0  0
 30 29  1  6  0  0  0
 30 32  1  0  0  0  0
 31 28  1  0  0  0  0
 33 34  1  0  0  0  0
M  END
>  <MODEL>
8

>  <REMARK>
 VINA RESULT:      -6.8      3.482      7.783
  Name = 
  2 active torsions:
  status: ('A' for Active; 'I' for Inactive)
    1  A    between atoms: C_3  and  C_7
    2  A    between atoms: C_29  and  C_32
                            x       y       z     vdW  Elec       q    Type
                         _______ _______ _______ _____ _____    ______ ____

>  <TORSDO>
F 2

$$$$
=
 OpenBabel11122412103D

 34 41  0  0  1  0  0  0  0  0999 V2000
  185.8660  177.8960  137.9550 C   0  0  0  0  0  0  0  0  0  0  0  0
  188.3630  177.7670  138.2630 C   0  0  0  0  0  2  0  0  0  0  0  0
  180.7840  173.8390  137.9700 C   0  0  2  0  0  3  0  0  0  0  0  0
  183.5130  177.4490  138.0950 C   0  0  0  0  0  0  0  0  0  0  0  0
  182.6560  175.1020  137.7950 C   0  0  1  0  0  3  0  0  0  0  0  0
  179.9220  175.9990  138.1210 C   0  0  0  0  0  2  0  0  0  0  0  0
  187.3900  176.5440  136.4740 C   0  0  2  0  0  3  0  0  0  0  0  0
  188.5310  173.6910  135.8360 C   0  0  0  0  0  2  0  0  0  0  0  0
  184.0780  174.6970  137.3590 C   0  0  0  0  0  2  0  0  0  0  0  0
  181.0580  176.9610  138.4560 C   0  0  0  0  0  2  0  0  0  0  0  0
  186.4010  175.3660  136.6450 C   0  0  1  0  0  3  0  0  0  0  0  0
  189.3130  176.7930  137.9030 O   0  0  0  0  0  0  0  0  0  0  0  0
  182.3350  176.6060  137.6870 C   0  0  1  0  0  3  0  0  0  0  0  0
  180.1270  174.7860  138.8040 O   0  0  0  0  0  0  0  0  0  0  0  0
  189.3790  174.7590  136.5070 C   0  0  1  0  0  0  0  0  0  0  0  0
  184.7810  177.0790  137.6410 C   0  0  0  0  0  0  0  0  0  0  0  0
  181.7070  174.3880  137.0520 O   0  0  0  0  0  0  0  0  0  0  0  0
  184.9400  175.8390  136.7970 C   0  0  2  0  0  3  0  0  0  0  0  0
  184.4410  179.3460  139.1610 C   0  0  0  0  0  3  0  0  0  0  0  0
  187.7210  174.2870  134.8690 O   0  0  0  0  0  0  0  0  0  0  0  0
  183.3660  178.5790  138.8390 N   0  0  0  0  0  0  0  0  0  0  0  0
  186.4490  174.3980  135.4480 C   0  0  0  0  0  2  0  0  0  0  0  0
  188.8770  176.2200  136.6860 C   0  0  1  0  0  3  0  0  0  0  0  0
  185.6810  179.0030  138.7230 N   0  0  0  0  0  0  0  0  0  0  0  0
  187.1660  177.5410  137.4870 N   0  0  0  0  0  0  0  0  0  0  0  0
  190.0660  174.2580  137.6290 O   0  0  0  0  0  0  0  0  0  0  0  0
  190.8410  174.4670  136.4670 C   0  0  2  0  0  3  0  0  0  0  0  0
  193.9250  176.0420  137.5920 N   0  0  0  0  0  2  0  0  0  0  0  0
  192.7240  175.7810  135.5270 C   0  0  0  0  0  2  0  0  0  0  0  0
  191.7370  175.6830  136.6530 C   0  0  2  0  0  3  0  0  0  0  0  0
  193.9510  176.3770  136.1730 C   0  0  0  0  0  2  0  0  0  0  0  0
  192.5940  175.5220  137.8870 C   0  0  0  0  0  2  0  0  0  0  0  0
  180.0650  171.5970  137.5030 O   0  0  0  0  0  1  0  0  0  0  0  0
  179.7810  172.9410  137.2580 C   0  0  0  0  0  2  0  0  0  0  0  0
  1 24  1  0  0  0  0
  3 34  1  6  0  0  0
  3 14  1  0  0  0  0
  4 21  2  0  0  0  0
  5  9  1  6  0  0  0
  6 10  1  0  0  0  0
  6 14  1  0  0  0  0
  7 11  1  0  0  0  0
  7 23  1  0  0  0  0
  7 25  1  1  0  0  0
 11 22  1  6  0  0  0
 11 18  1  0  0  0  0
 12  2  1  0  0  0  0
 13  5  1  0  0  0  0
 13  4  1  0  0  0  0
 13 10  1  1  0  0  0
 15  8  1  6  0  0  0
 15 23  1  0  0  0  0
 15 26  1  0  0  0  0
 16  1  2  0  0  0  0
 16  4  1  0  0  0  0
 17  5  1  0  0  0  0
 17  3  1  0  0  0  0
 18  9  1  1  0  0  0
 18 16  1  0  0  0  0
 20 22  1  0  0  0  0
 20  8  1  0  0  0  0
 21 19  1  0  0  0  0
 23 12  1  1  0  0  0
 24 19  2  0  0  0  0
 25  1  1  0  0  0  0
 25  2  1  0  0  0  0
 27 15  1  0  0  0  0
 27 30  1  0  0  0  0
 27 26  1  1  0  0  0
 28 32  1  0  0  0  0
 29 31  1  0  0  0  0
 30 29  1  6  0  0  0
 30 32  1  0  0  0  0
 31 28  1  0  0  0  0
 34 33  1  0  0  0  0
M  END
>  <MODEL>
9

>  <REMARK>
 VINA RESULT:      -6.5      4.589      8.952
  Name = 
  2 active torsions:
  status: ('A' for Active; 'I' for Inactive)
    1  A    between atoms: C_3  and  C_7
    2  A    between atoms: C_29  and  C_32
                            x       y       z     vdW  Elec       q    Type
                         _______ _______ _______ _____ _____    ______ ____

>  <TORSDO>
F 2

$$$$
