=
 OpenBabel11122411303D

 37 43  0  0  1  0  0  0  0  0999 V2000
  184.4620  174.9630  137.1980 C   0  0  0  0  0  2  0  0  0  0  0  0
  188.9930  177.0450  137.2810 C   0  0  1  0  0  0  0  0  0  0  0  0
  185.3700  178.0290  139.2170 C   0  0  1  0  0  3  0  0  0  0  0  0
  184.3000  173.6040  136.5120 C   0  0  2  0  0  3  0  0  0  0  0  0
  182.0020  177.4000  137.4000 C   0  0  0  0  0  2  0  0  0  0  0  0
  187.9190  178.1480  139.3110 C   0  0  1  0  0  3  0  0  0  0  0  0
  184.3680  178.0680  138.0800 C   0  0  2  0  0  3  0  0  0  0  0  0
  182.2690  174.3820  135.0810 C   0  0  2  0  0  3  0  0  0  0  0  0
  186.6370  178.1830  138.4690 C   0  0  1  0  0  3  0  0  0  0  0  0
  183.0480  177.3870  138.5090 C   0  0  1  0  0  3  0  0  0  0  0  0
  187.6560  178.1930  140.8060 C   0  0  0  0  0  3  0  0  0  0  0  0
  183.6210  173.6470  135.1380 C   0  0  0  0  0  2  0  0  0  0  0  0
  186.5470  177.1390  137.4850 N   0  0  2  0  0  0  0  0  0  0  0  0
  189.4980  175.6860  136.8450 C   0  0  0  0  0  1  0  0  0  0  0  0
  184.0060  179.0760  141.0810 C   0  0  0  0  0  2  0  0  0  0  0  0
  186.4670  178.6260  141.2920 C   0  0  0  0  0  3  0  0  0  0  0  0
  187.6510  177.3310  136.5560 C   0  0  0  0  0  2  0  0  0  0  0  0
  182.2680  175.7990  135.5210 N   0  0  1  0  0  0  0  0  0  0  0  0
  181.7900  175.9810  136.9020 C   0  0  0  0  0  2  0  0  0  0  0  0
  185.3470  179.0320  140.3540 C   0  0  1  0  0  3  0  0  0  0  0  0
  185.2180  177.4030  136.9220 C   0  0  1  0  0  3  0  0  0  0  0  0
  188.8670  177.0450  138.8310 C   0  0  0  0  0  2  0  0  0  0  0  0
  182.4330  177.9640  139.8070 C   0  0  1  0  0  3  0  0  0  0  0  0
  189.9220  178.0120  136.9010 O   0  0  0  0  0  1  0  0  0  0  0  0
  183.5560  176.4640  135.2430 C   0  0  0  0  0  2  0  0  0  0  0  0
  181.1120  173.5460  135.6220 C   0  0  0  0  0  1  0  0  0  0  0  0
  184.6920  176.1370  136.2330 C   0  0  2  0  0  3  0  0  0  0  0  0
  183.2730  177.8790  140.9470 O   0  0  0  0  0  0  0  0  0  0  0  0
  180.4460  179.3450  140.4890 C   0  0  0  0  0  3  0  0  0  0  0  0
  181.5880  179.2160  139.6910 C   0  0  0  0  0  0  0  0  0  0  0  0
  181.9440  180.2560  138.8180 C   0  0  0  0  0  3  0  0  0  0  0  0
  181.5040  182.4080  137.8940 F   0  0  0  0  0  0  0  0  0  0  0  0
  180.0150  181.5290  139.5350 C   0  0  0  0  0  3  0  0  0  0  0  0
  181.1580  181.4080  138.7400 C   0  0  0  0  0  0  0  0  0  0  0  0
  179.6590  180.4990  140.4100 C   0  0  0  0  0  3  0  0  0  0  0  0
  183.8340  171.4600  136.8050 C   0  0  0  0  0  1  0  0  0  0  0  0
  183.6270  172.7230  137.3610 O   0  0  0  0  0  0  0  0  0  0  0  0
  2 14  1  6  0  0  0
  2 22  1  0  0  0  0
  3 20  1  0  0  0  0
  4  1  1  0  0  0  0
  4 37  1  0  0  0  0
  5 10  1  0  0  0  0
  6 11  1  0  0  0  0
  7 10  1  0  0  0  0
  7  3  1  0  0  0  0
  8 12  1  0  0  0  0
  8 18  1  0  0  0  0
  8 26  1  0  0  0  0
  9  3  1  0  0  0  0
  9  6  1  0  0  0  0
 10 23  1  0  0  0  0
 11 16  2  0  0  0  0
 12  4  1  0  0  0  0
 13  9  1  0  0  0  0
 17  2  1  0  0  0  0
 17 13  1  0  0  0  0
 18 19  1  0  0  0  0
 19  5  1  0  0  0  0
 20 15  1  0  0  0  0
 20 16  1  0  0  0  0
 21 13  1  0  0  0  0
 21  7  1  0  0  0  0
 22  6  1  0  0  0  0
 23 28  1  0  0  0  0
 24  2  1  0  0  0  0
 25 18  1  0  0  0  0
 25 27  1  0  0  0  0
 27 21  1  0  0  0  0
 27  1  1  0  0  0  0
 28 15  1  0  0  0  0
 30 23  1  0  0  0  0
 30 29  2  0  0  0  0
 31 30  1  0  0  0  0
 32 34  1  0  0  0  0
 33 35  2  0  0  0  0
 34 31  2  0  0  0  0
 34 33  1  0  0  0  0
 35 29  1  0  0  0  0
 36 37  1  0  0  0  0
M  END
>  <MODEL>
1

>  <REMARK>
 VINA RESULT:      -6.7      0.000      0.000
  Name = 
  2 active torsions:
  status: ('A' for Active; 'I' for Inactive)
    1  A    between atoms: C_4  and  O_37
    2  A    between atoms: C_23  and  C_30
                            x       y       z     vdW  Elec       q    Type
                         _______ _______ _______ _____ _____    ______ ____

>  <TORSDO>
F 2

$$$$
=
 OpenBabel11122411303D

 37 43  0  0  1  0  0  0  0  0999 V2000
  185.4270  175.3520  137.2540 C   0  0  0  0  0  2  0  0  0  0  0  0
  189.7850  177.2670  138.7430 C   0  0  1  0  0  0  0  0  0  0  0  0
  185.7870  178.1180  139.8080 C   0  0  1  0  0  3  0  0  0  0  0  0
  185.4470  174.0930  136.3840 C   0  0  2  0  0  3  0  0  0  0  0  0
  182.9930  177.8210  137.1340 C   0  0  0  0  0  2  0  0  0  0  0  0
  188.2270  178.1450  140.5580 C   0  0  1  0  0  3  0  0  0  0  0  0
  185.1070  178.3270  138.4690 C   0  0  2  0  0  3  0  0  0  0  0  0
  183.8470  175.1040  134.5960 C   0  0  2  0  0  3  0  0  0  0  0  0
  187.2020  178.3230  139.4310 C   0  0  1  0  0  3  0  0  0  0  0  0
  183.7230  177.6400  138.4600 C   0  0  1  0  0  3  0  0  0  0  0  0
  187.5920  178.0150  141.9310 C   0  0  0  0  0  3  0  0  0  0  0  0
  185.1400  174.3260  134.8990 C   0  0  0  0  0  2  0  0  0  0  0  0
  187.3670  177.4110  138.3320 N   0  0  2  0  0  0  0  0  0  0  0  0
  190.3860  175.9570  138.2810 C   0  0  0  0  0  1  0  0  0  0  0  0
  183.9910  178.9700  141.3830 C   0  0  0  0  0  2  0  0  0  0  0  0
  186.3180  178.4220  142.1520 C   0  0  0  0  0  3  0  0  0  0  0  0
  188.6720  177.6820  137.7440 C   0  0  0  0  0  2  0  0  0  0  0  0
  183.7320  176.4550  135.1960 N   0  0  1  0  0  0  0  0  0  0  0  0
  182.9170  176.4810  136.4230 C   0  0  0  0  0  2  0  0  0  0  0  0
  185.4730  178.9740  141.0200 C   0  0  1  0  0  3  0  0  0  0  0  0
  186.2250  177.7830  137.4900 C   0  0  1  0  0  3  0  0  0  0  0  0
  189.2680  177.0810  140.1980 C   0  0  0  0  0  2  0  0  0  0  0  0
  182.7960  178.0720  139.6230 C   0  0  1  0  0  3  0  0  0  0  0  0
  190.7790  178.2440  138.7360 O   0  0  0  0  0  1  0  0  0  0  0  0
  185.0470  177.1090  135.3400 C   0  0  0  0  0  2  0  0  0  0  0  0
  182.5910  174.2430  134.7160 C   0  0  0  0  0  1  0  0  0  0  0  0
  185.8940  176.6280  136.5360 C   0  0  2  0  0  3  0  0  0  0  0  0
  183.3190  177.8220  140.9180 O   0  0  0  0  0  0  0  0  0  0  0  0
  182.4740  180.3330  138.5720 C   0  0  0  0  0  3  0  0  0  0  0  0
  182.0070  179.3550  139.4560 C   0  0  0  0  0  0  0  0  0  0  0  0
  180.8070  179.5650  140.1520 C   0  0  0  0  0  3  0  0  0  0  0  0
  178.9310  180.9490  140.6460 F   0  0  0  0  0  0  0  0  0  0  0  0
  180.5610  181.7260  139.0900 C   0  0  0  0  0  3  0  0  0  0  0  0
  180.0870  180.7490  139.9700 C   0  0  0  0  0  0  0  0  0  0  0  0
  181.7530  181.5180  138.3900 C   0  0  0  0  0  3  0  0  0  0  0  0
  184.9770  171.9300  136.3350 C   0  0  0  0  0  1  0  0  0  0  0  0
  184.5810  173.1360  136.9160 O   0  0  0  0  0  0  0  0  0  0  0  0
  2 14  1  6  0  0  0
  2 22  1  0  0  0  0
  3 20  1  0  0  0  0
  4 37  1  0  0  0  0
  4  1  1  0  0  0  0
  5 10  1  0  0  0  0
  6 11  1  0  0  0  0
  7  3  1  0  0  0  0
  8 26  1  0  0  0  0
  8 12  1  0  0  0  0
  8 18  1  0  0  0  0
  9  3  1  0  0  0  0
  9  6  1  0  0  0  0
 10  7  1  0  0  0  0
 10 23  1  0  0  0  0
 11 16  2  0  0  0  0
 12  4  1  0  0  0  0
 13  9  1  0  0  0  0
 17 13  1  0  0  0  0
 17  2  1  0  0  0  0
 18 25  1  0  0  0  0
 18 19  1  0  0  0  0
 19  5  1  0  0  0  0
 20 15  1  0  0  0  0
 20 16  1  0  0  0  0
 21 13  1  0  0  0  0
 21  7  1  0  0  0  0
 22  6  1  0  0  0  0
 23 28  1  0  0  0  0
 24  2  1  0  0  0  0
 25 27  1  0  0  0  0
 27  1  1  0  0  0  0
 27 21  1  0  0  0  0
 28 15  1  0  0  0  0
 29 30  1  0  0  0  0
 30 23  1  0  0  0  0
 30 31  2  0  0  0  0
 33 34  2  0  0  0  0
 34 31  1  0  0  0  0
 34 32  1  0  0  0  0
 35 29  2  0  0  0  0
 35 33  1  0  0  0  0
 36 37  1  0  0  0  0
M  END
>  <MODEL>
2

>  <REMARK>
 VINA RESULT:      -6.3      1.257      1.580
  Name = 
  2 active torsions:
  status: ('A' for Active; 'I' for Inactive)
    1  A    between atoms: C_4  and  O_37
    2  A    between atoms: C_23  and  C_30
                            x       y       z     vdW  Elec       q    Type
                         _______ _______ _______ _____ _____    ______ ____

>  <TORSDO>
F 2

$$$$
=
 OpenBabel11122411303D

 37 43  0  0  1  0  0  0  0  0999 V2000
  186.9610  176.0090  138.3720 C   0  0  0  0  0  2  0  0  0  0  0  0
  189.5180  177.9370  142.1960 C   0  0  1  0  0  0  0  0  0  0  0  0
  185.4700  178.2460  141.0320 C   0  0  1  0  0  3  0  0  0  0  0  0
  187.6420  174.9480  137.5040 C   0  0  2  0  0  3  0  0  0  0  0  0
  184.5610  178.2540  137.2610 C   0  0  0  0  0  2  0  0  0  0  0  0
  187.1240  178.3200  142.9750 C   0  0  1  0  0  3  0  0  0  0  0  0
  185.5570  178.6570  139.5750 C   0  0  2  0  0  3  0  0  0  0  0  0
  187.0540  176.1570  135.2750 C   0  0  2  0  0  3  0  0  0  0  0  0
  186.8170  178.6310  141.5050 C   0  0  1  0  0  3  0  0  0  0  0  0
  184.5180  177.8770  138.7380 C   0  0  1  0  0  3  0  0  0  0  0  0
  185.9030  177.8770  143.7620 C   0  0  0  0  0  3  0  0  0  0  0  0
  188.1140  175.4390  136.1300 C   0  0  0  0  0  2  0  0  0  0  0  0
  187.6790  177.9670  140.5670 N   0  0  2  0  0  0  0  0  0  0  0  0
  190.4860  176.7930  141.9750 C   0  0  0  0  0  1  0  0  0  0  0  0
  183.0040  178.6320  141.4810 C   0  0  0  0  0  2  0  0  0  0  0  0
  184.6510  178.1310  143.3090 C   0  0  0  0  0  3  0  0  0  0  0  0
  189.0310  178.4480  140.8130 C   0  0  0  0  0  2  0  0  0  0  0  0
  186.4160  177.3520  135.8780 N   0  0  1  0  0  0  0  0  0  0  0  0
  185.0940  177.0760  136.4640 C   0  0  0  0  0  2  0  0  0  0  0  0
  184.4340  178.8230  141.9770 C   0  0  1  0  0  3  0  0  0  0  0  0
  187.0940  178.4030  139.2950 C   0  0  1  0  0  3  0  0  0  0  0  0
  188.3640  177.4310  143.1060 C   0  0  0  0  0  2  0  0  0  0  0  0
  183.0660  178.0010  139.2600 C   0  0  1  0  0  3  0  0  0  0  0  0
  190.1890  178.9720  142.8440 O   0  0  0  0  0  1  0  0  0  0  0  0
  187.3340  178.0680  136.7860 C   0  0  0  0  0  2  0  0  0  0  0  0
  186.0850  175.1930  134.5940 C   0  0  0  0  0  1  0  0  0  0  0  0
  187.5070  177.4320  138.1810 C   0  0  2  0  0  3  0  0  0  0  0  0
  182.8760  177.5470  140.5900 O   0  0  0  0  0  0  0  0  0  0  0  0
  180.9120  179.0870  138.5510 C   0  0  0  0  0  3  0  0  0  0  0  0
  182.2710  179.2250  138.8520 C   0  0  0  0  0  0  0  0  0  0  0  0
  182.8680  180.4940  138.7950 C   0  0  0  0  0  3  0  0  0  0  0  0
  182.6930  182.8330  138.3770 F   0  0  0  0  0  0  0  0  0  0  0  0
  180.7550  181.4670  138.1270 C   0  0  0  0  0  3  0  0  0  0  0  0
  182.1120  181.6110  138.4320 C   0  0  0  0  0  0  0  0  0  0  0  0
  180.1550  180.2060  138.1870 C   0  0  0  0  0  3  0  0  0  0  0  0
  187.6480  172.7970  136.9830 C   0  0  0  0  0  1  0  0  0  0  0  0
  186.8040  173.8410  137.3650 O   0  0  0  0  0  0  0  0  0  0  0  0
  2 14  1  6  0  0  0
  2 24  1  0  0  0  0
  2 22  1  0  0  0  0
  3  9  1  0  0  0  0
  3 20  1  0  0  0  0
  4  1  1  0  0  0  0
  5 10  1  0  0  0  0
  6 22  1  0  0  0  0
  6 11  1  0  0  0  0
  7  3  1  0  0  0  0
  8 18  1  0  0  0  0
  8 12  1  0  0  0  0
  9  6  1  0  0  0  0
 10 23  1  0  0  0  0
 10  7  1  0  0  0  0
 12  4  1  0  0  0  0
 13 17  1  0  0  0  0
 13  9  1  0  0  0  0
 15 20  1  0  0  0  0
 16 11  2  0  0  0  0
 17  2  1  0  0  0  0
 18 19  1  0  0  0  0
 18 25  1  0  0  0  0
 19  5  1  0  0  0  0
 20 16  1  0  0  0  0
 21  7  1  0  0  0  0
 21 13  1  0  0  0  0
 23 28  1  0  0  0  0
 25 27  1  0  0  0  0
 26  8  1  0  0  0  0
 27  1  1  0  0  0  0
 27 21  1  0  0  0  0
 28 15  1  0  0  0  0
 29 30  1  0  0  0  0
 30 23  1  0  0  0  0
 31 30  2  0  0  0  0
 32 34  1  0  0  0  0
 33 35  1  0  0  0  0
 33 34  2  0  0  0  0
 34 31  1  0  0  0  0
 35 29  2  0  0  0  0
 36 37  1  0  0  0  0
 37  4  1  0  0  0  0
M  END
>  <MODEL>
3

>  <REMARK>
 VINA RESULT:      -5.7      2.325      3.403
  Name = 
  2 active torsions:
  status: ('A' for Active; 'I' for Inactive)
    1  A    between atoms: C_4  and  O_37
    2  A    between atoms: C_23  and  C_30
                            x       y       z     vdW  Elec       q    Type
                         _______ _______ _______ _____ _____    ______ ____

>  <TORSDO>
F 2

$$$$
=
 OpenBabel11122411303D

 37 43  0  0  1  0  0  0  0  0999 V2000
  184.3370  177.2090  139.7490 C   0  0  0  0  0  2  0  0  0  0  0  0
  188.4710  178.6110  137.3380 C   0  0  1  0  0  0  0  0  0  0  0  0
  187.7210  177.6430  141.3800 C   0  0  1  0  0  3  0  0  0  0  0  0
  183.0960  176.8630  138.9220 C   0  0  2  0  0  3  0  0  0  0  0  0
  184.2910  178.5370  142.9540 C   0  0  0  0  0  2  0  0  0  0  0  0
  189.4590  177.7230  139.5110 C   0  0  1  0  0  3  0  0  0  0  0  0
  186.5290  178.5130  141.7300 C   0  0  2  0  0  3  0  0  0  0  0  0
  181.5300  178.4000  140.3240 C   0  0  2  0  0  3  0  0  0  0  0  0
  188.2370  178.3540  140.1900 C   0  0  1  0  0  3  0  0  0  0  0  0
  185.5120  177.7080  142.5710 C   0  0  1  0  0  3  0  0  0  0  0  0
  190.0770  176.5960  140.3190 C   0  0  0  0  0  3  0  0  0  0  0  0
  181.9920  177.9270  138.9330 C   0  0  0  0  0  2  0  0  0  0  0  0
  187.0730  178.4420  139.3500 N   0  0  2  0  0  0  0  0  0  0  0  0
  187.7810  178.0940  136.0930 C   0  0  0  0  0  1  0  0  0  0  0  0
  188.4080  176.8390  143.6850 C   0  0  0  0  0  2  0  0  0  0  0  0
  189.8200  176.4630  141.6420 C   0  0  0  0  0  3  0  0  0  0  0  0
  187.4150  179.3120  138.2340 C   0  0  0  0  0  2  0  0  0  0  0  0
  182.5750  178.9670  141.2090 N   0  0  1  0  0  0  0  0  0  0  0  0
  183.0780  178.0070  142.2070 C   0  0  0  0  0  2  0  0  0  0  0  0
  188.8670  177.4090  142.3460 C   0  0  1  0  0  3  0  0  0  0  0  0
  186.0960  179.0030  140.2890 C   0  0  1  0  0  3  0  0  0  0  0  0
  189.1770  177.4160  138.0370 C   0  0  0  0  0  2  0  0  0  0  0  0
  186.1140  177.0610  143.8420 C   0  0  1  0  0  3  0  0  0  0  0  0
  189.4310  179.5490  136.9610 O   0  0  0  0  0  1  0  0  0  0  0  0
  183.6400  179.6440  140.4440 C   0  0  0  0  0  2  0  0  0  0  0  0
  180.5830  177.4150  141.0050 C   0  0  0  0  0  1  0  0  0  0  0  0
  184.6750  178.7070  139.7880 C   0  0  2  0  0  3  0  0  0  0  0  0
  187.1780  176.1550  143.5940 O   0  0  0  0  0  0  0  0  0  0  0  0
  185.5760  179.1530  145.1280 C   0  0  0  0  0  3  0  0  0  0  0  0
  186.2460  177.9250  145.0790 C   0  0  0  0  0  0  0  0  0  0  0  0
  187.0030  177.5040  146.1830 C   0  0  0  0  0  3  0  0  0  0  0  0
  187.8300  177.9010  148.3820 F   0  0  0  0  0  0  0  0  0  0  0  0
  186.4310  179.5390  147.3620 C   0  0  0  0  0  3  0  0  0  0  0  0
  187.0960  178.3100  147.3200 C   0  0  0  0  0  0  0  0  0  0  0  0
  185.6700  179.9600  146.2670 C   0  0  0  0  0  3  0  0  0  0  0  0
  181.8350  175.1760  138.2410 C   0  0  0  0  0  1  0  0  0  0  0  0
  182.5870  175.6280  139.3280 O   0  0  0  0  0  0  0  0  0  0  0  0
  1 27  1  0  0  0  0
  2 14  1  6  0  0  0
  2 22  1  0  0  0  0
  2 17  1  0  0  0  0
  3  7  1  0  0  0  0
  3 20  1  0  0  0  0
  4 12  1  0  0  0  0
  4 37  1  0  0  0  0
  4  1  1  0  0  0  0
  6  9  1  0  0  0  0
  6 11  1  0  0  0  0
  7 10  1  0  0  0  0
  8 26  1  0  0  0  0
  8 18  1  0  0  0  0
  9  3  1  0  0  0  0
 10  5  1  0  0  0  0
 10 23  1  0  0  0  0
 11 16  2  0  0  0  0
 12  8  1  0  0  0  0
 13  9  1  0  0  0  0
 13 21  1  0  0  0  0
 16 20  1  0  0  0  0
 17 13  1  0  0  0  0
 18 19  1  0  0  0  0
 19  5  1  0  0  0  0
 20 15  1  0  0  0  0
 21  7  1  0  0  0  0
 22  6  1  0  0  0  0
 23 30  1  0  0  0  0
 24  2  1  0  0  0  0
 25 18  1  0  0  0  0
 27 21  1  0  0  0  0
 27 25  1  0  0  0  0
 28 15  1  0  0  0  0
 28 23  1  0  0  0  0
 29 35  1  0  0  0  0
 30 29  2  0  0  0  0
 30 31  1  0  0  0  0
 31 34  2  0  0  0  0
 34 33  1  0  0  0  0
 34 32  1  0  0  0  0
 35 33  2  0  0  0  0
 36 37  1  0  0  0  0
M  END
>  <MODEL>
4

>  <REMARK>
 VINA RESULT:      -4.5      3.571      5.796
  Name = 
  2 active torsions:
  status: ('A' for Active; 'I' for Inactive)
    1  A    between atoms: C_4  and  O_37
    2  A    between atoms: C_23  and  C_30
                            x       y       z     vdW  Elec       q    Type
                         _______ _______ _______ _____ _____    ______ ____

>  <TORSDO>
F 2

$$$$
=
 OpenBabel11122411303D

 37 43  0  0  1  0  0  0  0  0999 V2000
  186.7370  176.4220  135.9160 C   0  0  0  0  0  2  0  0  0  0  0  0
  185.0320  171.7550  135.4890 C   0  0  1  0  0  0  0  0  0  0  0  0
  183.1440  175.3960  136.4960 C   0  0  1  0  0  3  0  0  0  0  0  0
  188.1600  176.7220  135.4380 C   0  0  2  0  0  3  0  0  0  0  0  0
  185.1080  178.0790  138.4920 C   0  0  0  0  0  2  0  0  0  0  0  0
  182.8490  173.0670  135.4930 C   0  0  1  0  0  3  0  0  0  0  0  0
  184.0220  175.9500  137.6000 C   0  0  2  0  0  3  0  0  0  0  0  0
  188.8260  177.9260  137.6480 C   0  0  2  0  0  3  0  0  0  0  0  0
  183.5260  173.9680  136.5330 C   0  0  1  0  0  3  0  0  0  0  0  0
  184.2310  177.4690  137.4050 C   0  0  1  0  0  3  0  0  0  0  0  0
  181.7200  173.7560  134.7480 C   0  0  0  0  0  3  0  0  0  0  0  0
  189.1940  176.9070  136.5550 C   0  0  0  0  0  2  0  0  0  0  0  0
  184.9590  174.0260  136.4230 N   0  0  2  0  0  0  0  0  0  0  0  0
  186.2320  171.5220  134.5940 C   0  0  0  0  0  1  0  0  0  0  0  0
  181.1370  176.9360  136.6760 C   0  0  0  0  0  2  0  0  0  0  0  0
  181.1380  174.8750  135.2430 C   0  0  0  0  0  3  0  0  0  0  0  0
  185.4600  172.6790  136.6600 C   0  0  0  0  0  2  0  0  0  0  0  0
  187.5580  177.6840  138.3770 N   0  0  1  0  0  0  0  0  0  0  0  0
  186.4350  178.4980  137.8820 C   0  0  0  0  0  2  0  0  0  0  0  0
  181.6310  175.5000  136.5330 C   0  0  1  0  0  3  0  0  0  0  0  0
  185.2780  174.9950  137.4770 C   0  0  1  0  0  3  0  0  0  0  0  0
  183.8850  172.3480  134.6240 C   0  0  0  0  0  2  0  0  0  0  0  0
  182.9160  178.2770  137.2890 C   0  0  1  0  0  3  0  0  0  0  0  0
  184.6210  170.5310  136.0130 O   0  0  0  0  0  1  0  0  0  0  0  0
  187.2490  176.2450  138.4860 C   0  0  0  0  0  2  0  0  0  0  0  0
  189.0450  179.3730  137.2120 C   0  0  0  0  0  1  0  0  0  0  0  0
  186.6630  175.6010  137.2120 C   0  0  2  0  0  3  0  0  0  0  0  0
  182.0740  177.8840  136.2160 O   0  0  0  0  0  0  0  0  0  0  0  0
  182.3680  177.8750  139.7100 C   0  0  0  0  0  3  0  0  0  0  0  0
  182.2190  178.6780  138.5730 C   0  0  0  0  0  0  0  0  0  0  0  0
  181.4510  179.8500  138.6480 C   0  0  0  0  0  3  0  0  0  0  0  0
  180.0880  181.3390  139.9150 F   0  0  0  0  0  0  0  0  0  0  0  0
  180.9770  179.3990  140.9790 C   0  0  0  0  0  3  0  0  0  0  0  0
  180.8300  180.2080  139.8480 C   0  0  0  0  0  0  0  0  0  0  0  0
  181.7460  178.2340  140.9100 C   0  0  0  0  0  3  0  0  0  0  0  0
  186.8260  178.2730  134.5940 C   0  0  0  0  0  1  0  0  0  0  0  0
  188.1510  177.8340  134.5940 O   0  0  0  0  0  0  0  0  0  0  0  0
  1 27  1  0  0  0  0
  2 14  1  6  0  0  0
  2 24  1  0  0  0  0
  2 17  1  0  0  0  0
  3 20  1  0  0  0  0
  3  9  1  0  0  0  0
  3  7  1  0  0  0  0
  4  1  1  0  0  0  0
  4 12  1  0  0  0  0
  6  9  1  0  0  0  0
  8 18  1  0  0  0  0
 10  7  1  0  0  0  0
 10  5  1  0  0  0  0
 11 16  2  0  0  0  0
 11  6  1  0  0  0  0
 12  8  1  0  0  0  0
 13  9  1  0  0  0  0
 13 17  1  0  0  0  0
 13 21  1  0  0  0  0
 16 20  1  0  0  0  0
 18 25  1  0  0  0  0
 19 18  1  0  0  0  0
 19  5  1  0  0  0  0
 20 15  1  0  0  0  0
 21  7  1  0  0  0  0
 22  2  1  0  0  0  0
 22  6  1  0  0  0  0
 23 10  1  0  0  0  0
 23 30  1  0  0  0  0
 26  8  1  0  0  0  0
 27 21  1  0  0  0  0
 27 25  1  0  0  0  0
 28 15  1  0  0  0  0
 28 23  1  0  0  0  0
 29 35  1  0  0  0  0
 30 31  1  0  0  0  0
 30 29  2  0  0  0  0
 31 34  2  0  0  0  0
 34 32  1  0  0  0  0
 34 33  1  0  0  0  0
 35 33  2  0  0  0  0
 37 36  1  0  0  0  0
 37  4  1  0  0  0  0
M  END
>  <MODEL>
5

>  <REMARK>
 VINA RESULT:      -4.2      1.870      5.632
  Name = 
  2 active torsions:
  status: ('A' for Active; 'I' for Inactive)
    1  A    between atoms: C_4  and  O_37
    2  A    between atoms: C_23  and  C_30
                            x       y       z     vdW  Elec       q    Type
                         _______ _______ _______ _____ _____    ______ ____

>  <TORSDO>
F 2

$$$$
=
 OpenBabel11122411303D

 37 43  0  0  1  0  0  0  0  0999 V2000
  184.2130  177.4140  137.3530 C   0  0  0  0  0  2  0  0  0  0  0  0
  180.9330  181.0350  138.3560 C   0  0  1  0  0  0  0  0  0  0  0  0
  180.5800  176.8280  138.2230 C   0  0  1  0  0  3  0  0  0  0  0  0
  185.6930  177.7870  137.2360 C   0  0  2  0  0  3  0  0  0  0  0  0
  182.6700  174.8160  135.6490 C   0  0  0  0  0  2  0  0  0  0  0  0
  179.6820  178.9960  139.2290 C   0  0  1  0  0  3  0  0  0  0  0  0
  181.1620  176.4730  136.8680 C   0  0  2  0  0  3  0  0  0  0  0  0
  185.9920  176.5620  134.9590 C   0  0  2  0  0  3  0  0  0  0  0  0
  180.2690  178.2600  138.0190 C   0  0  1  0  0  3  0  0  0  0  0  0
  182.0590  175.2190  136.9860 C   0  0  1  0  0  3  0  0  0  0  0  0
  179.3000  178.0670  140.3680 C   0  0  0  0  0  3  0  0  0  0  0  0
  186.2420  177.8230  135.8050 C   0  0  0  0  0  2  0  0  0  0  0  0
  181.5240  178.7880  137.5560 N   0  0  2  0  0  0  0  0  0  0  0  0
  182.1440  181.8760  138.7030 C   0  0  0  0  0  1  0  0  0  0  0  0
  179.5110  174.6200  138.8670 C   0  0  0  0  0  2  0  0  0  0  0  0
  179.1250  176.7400  140.1570 C   0  0  0  0  0  3  0  0  0  0  0  0
  181.2780  180.1570  137.1230 C   0  0  0  0  0  2  0  0  0  0  0  0
  184.5770  176.1520  134.7850 N   0  0  1  0  0  0  0  0  0  0  0  0
  184.1680  175.0680  135.6930 C   0  0  0  0  0  2  0  0  0  0  0  0
  179.3530  176.1360  138.7850 C   0  0  1  0  0  3  0  0  0  0  0  0
  181.8380  177.8490  136.4750 C   0  0  1  0  0  3  0  0  0  0  0  0
  180.5380  180.2070  139.6110 C   0  0  0  0  0  2  0  0  0  0  0  0
  181.3530  173.9960  137.6210 C   0  0  1  0  0  3  0  0  0  0  0  0
  179.8800  181.8830  138.0200 O   0  0  0  0  0  1  0  0  0  0  0  0
  183.6620  177.3100  134.7880 C   0  0  0  0  0  2  0  0  0  0  0  0
  186.9500  175.4210  135.2920 C   0  0  0  0  0  1  0  0  0  0  0  0
  183.3440  177.8920  136.1800 C   0  0  2  0  0  3  0  0  0  0  0  0
  180.8600  174.2150  138.9330 O   0  0  0  0  0  0  0  0  0  0  0  0
  179.8310  173.7180  135.6400 C   0  0  0  0  0  3  0  0  0  0  0  0
  180.4970  173.1300  136.7200 C   0  0  0  0  0  0  0  0  0  0  0  0
  180.3820  171.7480  136.9360 C   0  0  0  0  0  3  0  0  0  0  0  0
  179.4890  169.6330  136.2970 F   0  0  0  0  0  0  0  0  0  0  0  0
  178.9310  171.5600  135.0080 C   0  0  0  0  0  3  0  0  0  0  0  0
  179.5990  170.9660  136.0840 C   0  0  0  0  0  0  0  0  0  0  0  0
  179.0470  172.9350  134.7860 C   0  0  0  0  0  3  0  0  0  0  0  0
  187.6310  177.6450  138.2960 C   0  0  0  0  0  1  0  0  0  0  0  0
  186.4600  176.9330  138.0300 O   0  0  0  0  0  0  0  0  0  0  0  0
  2 14  1  1  0  0  0
  2 22  1  0  0  0  0
  3 20  1  0  0  0  0
  4  1  1  0  0  0  0
  4 37  1  0  0  0  0
  5 19  1  0  0  0  0
  5 10  1  0  0  0  0
  6 22  1  0  0  0  0
  6 11  1  0  0  0  0
  7 10  1  0  0  0  0
  7  3  1  0  0  0  0
  8 26  1  0  0  0  0
  8 12  1  0  0  0  0
  9  3  1  0  0  0  0
  9  6  1  0  0  0  0
 10 23  1  0  0  0  0
 12  4  1  0  0  0  0
 13  9  1  0  0  0  0
 15 28  1  0  0  0  0
 16 11  2  0  0  0  0
 17 13  1  0  0  0  0
 17  2  1  0  0  0  0
 18 25  1  0  0  0  0
 18  8  1  0  0  0  0
 18 19  1  0  0  0  0
 20 15  1  0  0  0  0
 20 16  1  0  0  0  0
 21  7  1  0  0  0  0
 21 13  1  0  0  0  0
 23 28  1  0  0  0  0
 24  2  1  0  0  0  0
 25 27  1  0  0  0  0
 27 21  1  0  0  0  0
 27  1  1  0  0  0  0
 29 30  1  0  0  0  0
 30 31  2  0  0  0  0
 30 23  1  0  0  0  0
 33 34  2  0  0  0  0
 34 32  1  0  0  0  0
 34 31  1  0  0  0  0
 35 33  1  0  0  0  0
 35 29  2  0  0  0  0
 37 36  1  0  0  0  0
M  END
>  <MODEL>
6

>  <REMARK>
 VINA RESULT:      -4.1      3.119      6.944
  Name = 
  2 active torsions:
  status: ('A' for Active; 'I' for Inactive)
    1  A    between atoms: C_4  and  O_37
    2  A    between atoms: C_23  and  C_30
                            x       y       z     vdW  Elec       q    Type
                         _______ _______ _______ _____ _____    ______ ____

>  <TORSDO>
F 2

$$$$
=
 OpenBabel11122411303D

 37 43  0  0  1  0  0  0  0  0999 V2000
  188.4650  176.6260  140.5050 C   0  0  0  0  0  2  0  0  0  0  0  0
  184.5480  177.2620  137.4840 C   0  0  1  0  0  0  0  0  0  0  0  0
  188.2350  175.2610  136.9860 C   0  0  1  0  0  3  0  0  0  0  0  0
  188.3270  177.0440  141.9710 C   0  0  2  0  0  3  0  0  0  0  0  0
  191.4200  176.6740  138.6890 C   0  0  0  0  0  2  0  0  0  0  0  0
  185.7830  175.3850  136.2830 C   0  0  1  0  0  3  0  0  0  0  0  0
  189.2550  176.3070  137.3900 C   0  0  2  0  0  3  0  0  0  0  0  0
  190.5290  178.4320  141.9560 C   0  0  2  0  0  3  0  0  0  0  0  0
  187.0650  176.1190  136.6980 C   0  0  1  0  0  3  0  0  0  0  0  0
  190.3640  175.6640  138.2550 C   0  0  1  0  0  3  0  0  0  0  0  0
  186.0000  173.9070  136.0130 C   0  0  0  0  0  3  0  0  0  0  0  0
  189.0420  178.3480  142.3450 C   0  0  0  0  0  2  0  0  0  0  0  0
  186.9400  176.8920  137.9040 N   0  0  2  0  0  0  0  0  0  0  0  0
  183.7530  177.4860  138.7530 C   0  0  0  0  0  1  0  0  0  0  0  0
  189.7440  173.5150  135.9350 C   0  0  0  0  0  2  0  0  0  0  0  0
  187.2400  173.4160  135.7730 C   0  0  0  0  0  3  0  0  0  0  0  0
  185.9430  177.9220  137.6500 C   0  0  0  0  0  2  0  0  0  0  0  0
  190.8480  178.2530  140.5190 N   0  0  1  0  0  0  0  0  0  0  0  0
  191.3100  176.8940  140.1880 C   0  0  0  0  0  2  0  0  0  0  0  0
  188.4550  174.3220  135.8150 C   0  0  1  0  0  3  0  0  0  0  0  0
  188.3120  177.3890  138.0570 C   0  0  1  0  0  3  0  0  0  0  0  0
  184.6200  175.7320  137.2170 C   0  0  0  0  0  2  0  0  0  0  0  0
  191.0540  174.4470  137.5930 C   0  0  1  0  0  3  0  0  0  0  0  0
  183.8850  177.8780  136.4250 O   0  0  0  0  0  1  0  0  0  0  0  0
  189.7620  178.7420  139.6470 C   0  0  0  0  0  2  0  0  0  0  0  0
  191.4400  177.6630  142.9110 C   0  0  0  0  0  1  0  0  0  0  0  0
  188.5480  177.7990  139.5160 C   0  0  2  0  0  3  0  0  0  0  0  0
  190.1800  173.3770  137.2690 O   0  0  0  0  0  0  0  0  0  0  0  0
  191.9580  175.6290  135.5670 C   0  0  0  0  0  3  0  0  0  0  0  0
  192.1730  174.7190  136.6080 C   0  0  0  0  0  0  0  0  0  0  0  0
  193.4230  174.0970  136.7380 C   0  0  0  0  0  3  0  0  0  0  0  0
  195.6500  173.7710  135.9550 F   0  0  0  0  0  0  0  0  0  0  0  0
  194.2240  175.2800  134.7850 C   0  0  0  0  0  3  0  0  0  0  0  0
  194.4450  174.3750  135.8270 C   0  0  0  0  0  0  0  0  0  0  0  0
  192.9810  175.9070  134.6550 C   0  0  0  0  0  3  0  0  0  0  0  0
  188.3360  176.3780  144.0820 C   0  0  0  0  0  1  0  0  0  0  0  0
  188.7460  176.0030  142.8020 O   0  0  0  0  0  0  0  0  0  0  0  0
  1  4  1  0  0  0  0
  2 17  1  0  0  0  0
  2 14  1  1  0  0  0
  3  7  1  0  0  0  0
  4 12  1  0  0  0  0
  4 37  1  0  0  0  0
  5 19  1  0  0  0  0
  6  9  1  0  0  0  0
  6 22  1  0  0  0  0
  7 21  1  0  0  0  0
  7 10  1  0  0  0  0
  8 12  1  0  0  0  0
  8 26  1  0  0  0  0
  9  3  1  0  0  0  0
  9 13  1  0  0  0  0
 10  5  1  0  0  0  0
 11  6  1  0  0  0  0
 13 21  1  0  0  0  0
 15 28  1  0  0  0  0
 16 20  1  0  0  0  0
 16 11  2  0  0  0  0
 17 13  1  0  0  0  0
 18  8  1  0  0  0  0
 19 18  1  0  0  0  0
 20 15  1  0  0  0  0
 20  3  1  0  0  0  0
 21 27  1  0  0  0  0
 22  2  1  0  0  0  0
 23 10  1  0  0  0  0
 24  2  1  0  0  0  0
 25 18  1  0  0  0  0
 27 25  1  0  0  0  0
 27  1  1  0  0  0  0
 28 23  1  0  0  0  0
 29 30  1  0  0  0  0
 30 31  2  0  0  0  0
 30 23  1  0  0  0  0
 33 34  2  0  0  0  0
 34 32  1  0  0  0  0
 34 31  1  0  0  0  0
 35 33  1  0  0  0  0
 35 29  2  0  0  0  0
 37 36  1  0  0  0  0
M  END
>  <MODEL>
7

>  <REMARK>
 VINA RESULT:      -3.8      4.053      9.349
  Name = 
  2 active torsions:
  status: ('A' for Active; 'I' for Inactive)
    1  A    between atoms: C_4  and  O_37
    2  A    between atoms: C_23  and  C_30
                            x       y       z     vdW  Elec       q    Type
                         _______ _______ _______ _____ _____    ______ ____

>  <TORSDO>
F 2

$$$$
