=
 OpenBabel11122411433D

 37 42  0  0  1  0  0  0  0  0999 V2000
  185.4120  178.8800  141.2130 C   0  0  1  0  0  3  0  0  0  0  0  0
  188.6700  178.9870  140.2650 C   0  0  0  0  0  2  0  0  0  0  0  0
  182.9810  178.6090  140.3800 C   0  0  2  0  0  3  0  0  0  0  0  0
  186.3380  178.0200  140.4700 N   0  0  2  0  0  0  0  0  0  0  0  0
  184.3480  179.2950  140.1910 C   0  0  2  0  0  3  0  0  0  0  0  0
  187.7330  178.0090  140.9860 C   0  0  2  0  0  3  0  0  0  0  0  0
  182.4390  178.8490  141.7910 C   0  0  0  0  0  2  0  0  0  0  0  0
  184.9540  178.9100  138.8650 C   0  0  0  0  0  2  0  0  0  0  0  0
  185.7320  178.1390  143.5540 N   0  0  0  0  0  2  0  0  0  0  0  0
  183.5170  178.8230  142.8800 C   0  0  0  0  0  2  0  0  0  0  0  0
  189.1760  177.0550  138.8400 O   0  0  0  0  0  0  0  0  0  0  0  0
  189.2630  178.4560  138.9420 C   0  0  1  0  0  3  0  0  0  0  0  0
  184.8080  178.1390  142.4300 C   0  0  1  0  0  3  0  0  0  0  0  0
  186.3330  178.5250  139.1500 N   0  0  2  0  0  0  0  0  0  0  0  0
  187.9070  178.0580  142.5130 C   0  0  1  0  0  3  0  0  0  0  0  0
  188.3620  177.7820  137.9420 C   0  0  2  0  0  3  0  0  0  0  0  0
  186.8870  177.4850  138.2670 C   0  0  2  0  0  3  0  0  0  0  0  0
  186.8440  177.2580  143.2450 C   0  0  0  0  0  2  0  0  0  0  0  0
  189.4950  176.1100  143.1010 C   0  0  0  0  0  2  0  0  0  0  0  0
  189.2780  177.5950  142.9260 C   0  0  0  0  0  0  0  0  0  0  0  0
  190.2260  178.4930  143.2650 C   0  0  0  0  0  3  0  0  0  0  0  0
  192.0990  178.9830  144.6190 F   0  0  0  0  0  0  0  0  0  0  0  0
  191.6340  176.6750  144.2640 C   0  0  0  0  0  2  0  0  0  0  0  0
  191.6110  178.0860  143.6890 C   0  0  1  0  0  3  0  0  0  0  0  0
  190.9660  175.7320  143.2720 C   0  0  0  0  0  2  0  0  0  0  0  0
  186.1210  177.3030  136.9460 C   0  0  0  0  0  2  0  0  0  0  0  0
  185.4710  175.9230  136.8120 C   0  0  1  0  0  3  0  0  0  0  0  0
  183.7060  176.9140  135.3500 C   0  0  0  0  0  1  0  0  0  0  0  0
  184.6960  175.7760  135.5090 C   0  0  0  0  0  2  0  0  0  0  0  0
  186.5110  174.8170  136.9640 C   0  0  0  0  0  2  0  0  0  0  0  0
  185.9160  173.4540  136.6460 C   0  0  0  0  0  2  0  0  0  0  0  0
  185.0740  172.9540  137.8030 C   0  0  0  0  0  1  0  0  0  0  0  0
  183.0630  177.1660  140.1270 N   0  0  0  0  0  2  0  0  0  0  0  0
  181.9300  176.7080  139.3180 C   0  0  0  0  0  0  0  0  0  0  0  0
  182.2940  175.4610  138.5280 C   0  0  0  0  0  1  0  0  0  0  0  0
  180.8230  176.4460  140.1300 O   0  0  0  0  0  1  0  0  0  0  0  0
  181.5630  177.7990  138.3360 C   0  0  0  0  0  1  0  0  0  0  0  0
  1 13  1  0  0  0  0
  2  6  1  0  0  0  0
  3  7  1  0  0  0  0
  4  6  1  0  0  0  0
  4  1  1  0  0  0  0
  5  3  1  0  0  0  0
  5  1  1  0  0  0  0
  6 15  1  0  0  0  0
  7 10  1  0  0  0  0
  8 14  1  0  0  0  0
  8  5  1  0  0  0  0
 11 12  1  0  0  0  0
 12  2  1  0  0  0  0
 13 10  1  0  0  0  0
 13  9  1  0  0  0  0
 14  4  1  0  0  0  0
 15 20  1  0  0  0  0
 15 18  1  0  0  0  0
 16 17  1  0  0  0  0
 16 11  1  0  0  0  0
 16 12  1  0  0  0  0
 17 14  1  0  0  0  0
 18  9  1  0  0  0  0
 19 25  1  0  0  0  0
 20 19  1  0  0  0  0
 20 21  2  0  0  0  0
 21 24  1  0  0  0  0
 24 23  1  0  0  0  0
 24 22  1  0  0  0  0
 25 23  1  0  0  0  0
 26 17  1  0  0  0  0
 27 26  1  0  0  0  0
 27 30  1  0  0  0  0
 28 29  1  0  0  0  0
 29 27  1  0  0  0  0
 31 30  1  0  0  0  0
 31 32  1  0  0  0  0
 33  3  1  0  0  0  0
 34 33  1  0  0  0  0
 34 36  1  0  0  0  0
 35 34  1  0  0  0  0
 37 34  1  0  0  0  0
M  END
>  <MODEL>
1

>  <REMARK>
 VINA RESULT:      -7.2      0.000      0.000
  Name = 
  8 active torsions:
  status: ('A' for Active; 'I' for Inactive)
    1  A    between atoms: C_1  and  C_4
    2  A    between atoms: C_1  and  C_27
    3  A    between atoms: C_2  and  N_22
    4  A    between atoms: C_4  and  C_12
    5  A    between atoms: C_4  and  C_37
    6  A    between atoms: C_6  and  N_22
    7  A    between atoms: C_8  and  C_12
    8  A    between atoms: C_23  and  C_30
                            x       y       z     vdW  Elec       q    Type
                         _______ _______ _______ _____ _____    ______ ____

>  <TORSDO>
F 8

$$$$
=
 OpenBabel11122411433D

 37 42  0  0  1  0  0  0  0  0999 V2000
  187.1500  178.2000  137.3430 C   0  0  1  0  0  3  0  0  0  0  0  0
  184.9750  179.3170  139.6980 C   0  0  0  0  0  2  0  0  0  0  0  0
  189.6100  177.5570  136.8810 C   0  0  2  0  0  3  0  0  0  0  0  0
  186.7280  177.7940  138.6880 N   0  0  2  0  0  0  0  0  0  0  0  0
  188.6290  178.5780  137.4880 C   0  0  2  0  0  3  0  0  0  0  0  0
  185.2840  177.9980  138.9780 C   0  0  2  0  0  3  0  0  0  0  0  0
  189.2980  177.3120  135.4020 C   0  0  0  0  0  2  0  0  0  0  0  0
  188.8290  178.6810  138.9790 C   0  0  0  0  0  2  0  0  0  0  0  0
  185.5380  177.0190  135.8810 N   0  0  0  0  0  2  0  0  0  0  0  0
  187.8000  177.2870  135.0810 C   0  0  0  0  0  2  0  0  0  0  0  0
  185.2000  177.9660  141.7330 O   0  0  0  0  0  0  0  0  0  0  0  0
  185.1730  179.2800  141.2290 C   0  0  1  0  0  3  0  0  0  0  0  0
  186.9260  177.0650  136.3150 C   0  0  1  0  0  3  0  0  0  0  0  0
  187.4980  178.5850  139.5710 N   0  0  2  0  0  0  0  0  0  0  0  0
  184.2990  177.7200  137.8290 C   0  0  1  0  0  3  0  0  0  0  0  0
  186.4250  178.6680  141.8000 C   0  0  2  0  0  3  0  0  0  0  0  0
  187.4480  177.9540  140.9000 C   0  0  2  0  0  3  0  0  0  0  0  0
  184.7200  176.5340  136.9790 C   0  0  0  0  0  2  0  0  0  0  0  0
  182.6490  176.3420  139.2570 C   0  0  0  0  0  2  0  0  0  0  0  0
  182.9000  177.5170  138.3410 C   0  0  0  0  0  0  0  0  0  0  0  0
  181.8880  178.2780  137.8740 C   0  0  0  0  0  3  0  0  0  0  0  0
  179.5950  178.4040  137.3170 F   0  0  0  0  0  0  0  0  0  0  0  0
  180.2070  176.7110  138.8750 C   0  0  0  0  0  2  0  0  0  0  0  0
  180.4690  178.1160  138.3470 C   0  0  1  0  0  3  0  0  0  0  0  0
  181.2690  176.3730  139.9140 C   0  0  0  0  0  2  0  0  0  0  0  0
  188.8000  177.9140  141.6320 C   0  0  0  0  0  2  0  0  0  0  0  0
  188.7980  176.9860  142.8500 C   0  0  1  0  0  3  0  0  0  0  0  0
  191.0900  176.2640  143.5320 C   0  0  0  0  0  1  0  0  0  0  0  0
  189.8520  175.8900  142.7400 C   0  0  0  0  0  2  0  0  0  0  0  0
  188.9630  177.7830  144.1400 C   0  0  0  0  0  2  0  0  0  0  0  0
  187.8750  177.4390  145.1440 C   0  0  0  0  0  2  0  0  0  0  0  0
  188.4320  177.4250  146.5540 C   0  0  0  0  0  1  0  0  0  0  0  0
  189.5760  176.2810  137.6040 N   0  0  0  0  0  2  0  0  0  0  0  0
  190.9240  175.8630  138.0000 C   0  0  0  0  0  0  0  0  0  0  0  0
  191.3060  176.4610  139.3460 C   0  0  0  0  0  1  0  0  0  0  0  0
  191.0070  174.4700  138.0620 O   0  0  0  0  0  1  0  0  0  0  0  0
  191.9090  176.3610  136.9650 C   0  0  0  0  0  1  0  0  0  0  0  0
  1  5  1  0  0  0  0
  1  4  1  0  0  0  0
  2 12  1  0  0  0  0
  3  5  1  0  0  0  0
  3 33  1  0  0  0  0
  4  6  1  0  0  0  0
  4 14  1  0  0  0  0
  5  8  1  0  0  0  0
  6  2  1  0  0  0  0
  7  3  1  0  0  0  0
  8 14  1  0  0  0  0
  9 13  1  0  0  0  0
  9 18  1  0  0  0  0
 10  7  1  0  0  0  0
 10 13  1  0  0  0  0
 11 16  1  0  0  0  0
 12 11  1  0  0  0  0
 12 16  1  0  0  0  0
 13  1  1  0  0  0  0
 14 17  1  0  0  0  0
 15 20  1  0  0  0  0
 15  6  1  0  0  0  0
 17 26  1  0  0  0  0
 17 16  1  0  0  0  0
 18 15  1  0  0  0  0
 19 25  1  0  0  0  0
 20 19  1  0  0  0  0
 21 20  2  0  0  0  0
 21 24  1  0  0  0  0
 22 24  1  0  0  0  0
 23 25  1  0  0  0  0
 24 23  1  0  0  0  0
 26 27  1  0  0  0  0
 27 30  1  0  0  0  0
 29 27  1  0  0  0  0
 29 28  1  0  0  0  0
 30 31  1  0  0  0  0
 31 32  1  0  0  0  0
 33 34  1  0  0  0  0
 34 36  1  0  0  0  0
 34 35  1  0  0  0  0
 37 34  1  0  0  0  0
M  END
>  <MODEL>
2

>  <REMARK>
 VINA RESULT:      -7.0      3.167      8.068
  Name = 
  8 active torsions:
  status: ('A' for Active; 'I' for Inactive)
    1  A    between atoms: C_1  and  C_4
    2  A    between atoms: C_1  and  C_27
    3  A    between atoms: C_2  and  N_22
    4  A    between atoms: C_4  and  C_12
    5  A    between atoms: C_4  and  C_37
    6  A    between atoms: C_6  and  N_22
    7  A    between atoms: C_8  and  C_12
    8  A    between atoms: C_23  and  C_30
                            x       y       z     vdW  Elec       q    Type
                         _______ _______ _______ _____ _____    ______ ____

>  <TORSDO>
F 8

$$$$
=
 OpenBabel11122411433D

 37 42  0  0  1  0  0  0  0  0999 V2000
  188.3380  177.6030  138.4830 C   0  0  1  0  0  3  0  0  0  0  0  0
  185.1720  178.7550  138.0680 C   0  0  0  0  0  2  0  0  0  0  0  0
  190.3390  177.4760  140.1120 C   0  0  2  0  0  3  0  0  0  0  0  0
  187.0580  177.4890  139.1880 N   0  0  2  0  0  0  0  0  0  0  0  0
  189.2590  178.3540  139.4500 C   0  0  2  0  0  3  0  0  0  0  0  0
  185.8630  177.4060  138.3060 C   0  0  2  0  0  3  0  0  0  0  0  0
  191.1930  176.7690  139.0550 C   0  0  0  0  0  2  0  0  0  0  0  0
  188.3160  178.9050  140.4890 C   0  0  0  0  0  2  0  0  0  0  0  0
  188.2550  175.7120  136.8850 N   0  0  0  0  0  2  0  0  0  0  0  0
  190.3970  176.2950  137.8340 C   0  0  0  0  0  2  0  0  0  0  0  0
  183.8010  178.1060  139.9970 O   0  0  0  0  0  0  0  0  0  0  0  0
  184.1940  179.1860  139.1830 C   0  0  1  0  0  3  0  0  0  0  0  0
  188.8930  176.2120  138.0930 C   0  0  1  0  0  3  0  0  0  0  0  0
  186.9700  178.6520  139.9850 N   0  0  2  0  0  0  0  0  0  0  0  0
  186.0130  176.5940  137.0090 C   0  0  1  0  0  3  0  0  0  0  0  0
  184.6160  179.0760  140.6240 C   0  0  2  0  0  3  0  0  0  0  0  0
  185.9490  178.4150  141.0190 C   0  0  2  0  0  3  0  0  0  0  0  0
  186.8800  175.3610  137.1930 C   0  0  0  0  0  2  0  0  0  0  0  0
  184.1770  176.9570  135.2320 C   0  0  0  0  0  2  0  0  0  0  0  0
  184.6740  176.2050  136.4450 C   0  0  0  0  0  0  0  0  0  0  0  0
  183.8940  175.3160  137.0950 C   0  0  0  0  0  3  0  0  0  0  0  0
  181.7000  174.6290  137.6380 F   0  0  0  0  0  0  0  0  0  0  0  0
  181.9300  175.9550  135.6740 C   0  0  0  0  0  2  0  0  0  0  0  0
  182.5450  174.8940  136.5790 C   0  0  1  0  0  3  0  0  0  0  0  0
  182.9400  176.3220  134.5950 C   0  0  0  0  0  2  0  0  0  0  0  0
  186.3430  178.9070  142.4210 C   0  0  0  0  0  2  0  0  0  0  0  0
  185.4860  178.2980  143.5350 C   0  0  1  0  0  3  0  0  0  0  0  0
  186.6360  178.2480  145.7520 C   0  0  0  0  0  1  0  0  0  0  0  0
  186.3110  177.4560  144.5010 C   0  0  0  0  0  2  0  0  0  0  0  0
  184.7080  179.3810  144.2750 C   0  0  0  0  0  2  0  0  0  0  0  0
  183.3330  178.8850  144.6940 C   0  0  0  0  0  2  0  0  0  0  0  0
  182.3370  179.0490  143.5620 C   0  0  0  0  0  1  0  0  0  0  0  0
  189.7480  176.4770  141.0080 N   0  0  0  0  0  2  0  0  0  0  0  0
  190.3750  176.5200  142.3320 C   0  0  0  0  0  0  0  0  0  0  0  0
  189.5530  177.3600  143.2980 C   0  0  0  0  0  1  0  0  0  0  0  0
  190.5300  175.2290  142.8430 O   0  0  0  0  0  1  0  0  0  0  0  0
  191.7420  177.1560  142.2000 C   0  0  0  0  0  1  0  0  0  0  0  0
  1  4  1  0  0  0  0
  1  5  1  0  0  0  0
  2  6  1  0  0  0  0
  2 12  1  0  0  0  0
  3 33  1  0  0  0  0
  4 14  1  0  0  0  0
  5  3  1  0  0  0  0
  5  8  1  0  0  0  0
  6  4  1  0  0  0  0
  7  3  1  0  0  0  0
  9 18  1  0  0  0  0
  9 13  1  0  0  0  0
 10 13  1  0  0  0  0
 10  7  1  0  0  0  0
 11 16  1  0  0  0  0
 12 11  1  0  0  0  0
 12 16  1  0  0  0  0
 13  1  1  0  0  0  0
 14  8  1  0  0  0  0
 14 17  1  0  0  0  0
 15 18  1  0  0  0  0
 15  6  1  0  0  0  0
 16 17  1  0  0  0  0
 17 26  1  0  0  0  0
 19 20  1  0  0  0  0
 20 15  1  0  0  0  0
 20 21  2  0  0  0  0
 23 24  1  0  0  0  0
 24 21  1  0  0  0  0
 24 22  1  0  0  0  0
 25 19  1  0  0  0  0
 25 23  1  0  0  0  0
 26 27  1  0  0  0  0
 27 30  1  0  0  0  0
 27 29  1  0  0  0  0
 29 28  1  0  0  0  0
 30 31  1  0  0  0  0
 32 31  1  0  0  0  0
 33 34  1  0  0  0  0
 34 36  1  0  0  0  0
 34 35  1  0  0  0  0
 37 34  1  0  0  0  0
M  END
>  <MODEL>
3

>  <REMARK>
 VINA RESULT:      -6.6      2.917      8.083
  Name = 
  8 active torsions:
  status: ('A' for Active; 'I' for Inactive)
    1  A    between atoms: C_1  and  C_4
    2  A    between atoms: C_1  and  C_27
    3  A    between atoms: C_2  and  N_22
    4  A    between atoms: C_4  and  C_12
    5  A    between atoms: C_4  and  C_37
    6  A    between atoms: C_6  and  N_22
    7  A    between atoms: C_8  and  C_12
    8  A    between atoms: C_23  and  C_30
                            x       y       z     vdW  Elec       q    Type
                         _______ _______ _______ _____ _____    ______ ____

>  <TORSDO>
F 8

$$$$
=
 OpenBabel11122411433D

 37 42  0  0  1  0  0  0  0  0999 V2000
  185.2670  178.8840  141.0650 C   0  0  1  0  0  3  0  0  0  0  0  0
  188.5740  179.0450  140.3190 C   0  0  0  0  0  2  0  0  0  0  0  0
  182.9000  178.5340  140.0900 C   0  0  2  0  0  3  0  0  0  0  0  0
  186.2570  178.0280  140.4040 N   0  0  2  0  0  0  0  0  0  0  0  0
  184.2600  179.2480  139.9680 C   0  0  2  0  0  3  0  0  0  0  0  0
  187.6160  178.0640  141.0070 C   0  0  2  0  0  3  0  0  0  0  0  0
  182.2650  178.7970  141.4590 C   0  0  0  0  0  2  0  0  0  0  0  0
  184.9570  178.8440  138.6940 C   0  0  0  0  0  2  0  0  0  0  0  0
  185.4560  178.2100  143.4410 N   0  0  0  0  0  2  0  0  0  0  0  0
  183.2730  178.8240  142.6130 C   0  0  0  0  0  2  0  0  0  0  0  0
  189.2120  177.0900  138.9800 O   0  0  0  0  0  0  0  0  0  0  0  0
  189.2620  178.4950  139.0500 C   0  0  1  0  0  3  0  0  0  0  0  0
  184.6050  178.1600  142.2620 C   0  0  1  0  0  3  0  0  0  0  0  0
  186.3230  178.4990  139.0740 N   0  0  2  0  0  0  0  0  0  0  0  0
  187.6940  178.1550  142.5400 C   0  0  1  0  0  3  0  0  0  0  0  0
  188.4400  177.7750  138.0140 C   0  0  2  0  0  3  0  0  0  0  0  0
  186.9540  177.4510  138.2550 C   0  0  2  0  0  3  0  0  0  0  0  0
  186.6040  177.3480  143.2250 C   0  0  0  0  0  2  0  0  0  0  0  0
  190.1010  178.8060  143.2040 C   0  0  0  0  0  2  0  0  0  0  0  0
  189.0450  177.7350  143.0490 C   0  0  0  0  0  0  0  0  0  0  0  0
  189.3340  176.4280  143.2160 C   0  0  0  0  0  3  0  0  0  0  0  0
  190.9810  174.7360  143.1430 F   0  0  0  0  0  0  0  0  0  0  0  0
  191.7740  176.9620  143.4290 C   0  0  0  0  0  2  0  0  0  0  0  0
  190.6700  175.9520  143.7180 C   0  0  1  0  0  3  0  0  0  0  0  0
  191.3410  178.3240  143.9570 C   0  0  0  0  0  2  0  0  0  0  0  0
  186.2770  177.2180  136.8940 C   0  0  0  0  0  2  0  0  0  0  0  0
  186.6660  175.8840  136.2500 C   0  0  1  0  0  3  0  0  0  0  0  0
  188.8960  174.9890  135.5680 C   0  0  0  0  0  1  0  0  0  0  0  0
  187.8340  176.0320  135.2810 C   0  0  0  0  0  2  0  0  0  0  0  0
  186.9610  174.8330  137.3140 C   0  0  0  0  0  2  0  0  0  0  0  0
  185.8700  173.7750  137.3630 C   0  0  0  0  0  2  0  0  0  0  0  0
  185.3190  173.5100  135.9750 C   0  0  0  0  0  1  0  0  0  0  0  0
  183.0290  177.0880  139.8820 N   0  0  0  0  0  2  0  0  0  0  0  0
  182.0450  176.6060  138.9090 C   0  0  0  0  0  0  0  0  0  0  0  0
  180.9870  175.7470  139.5840 C   0  0  0  0  0  1  0  0  0  0  0  0
  181.4340  177.6800  138.2560 O   0  0  0  0  0  1  0  0  0  0  0  0
  182.7570  175.7550  137.8800 C   0  0  0  0  0  1  0  0  0  0  0  0
  1 13  1  0  0  0  0
  2  6  1  0  0  0  0
  3  7  1  0  0  0  0
  4  6  1  0  0  0  0
  4  1  1  0  0  0  0
  5  3  1  0  0  0  0
  5  1  1  0  0  0  0
  6 15  1  0  0  0  0
  7 10  1  0  0  0  0
  8 14  1  0  0  0  0
  8  5  1  0  0  0  0
 11 12  1  0  0  0  0
 12  2  1  0  0  0  0
 13 10  1  0  0  0  0
 13  9  1  0  0  0  0
 14  4  1  0  0  0  0
 15 20  1  0  0  0  0
 15 18  1  0  0  0  0
 16 17  1  0  0  0  0
 16 11  1  0  0  0  0
 16 12  1  0  0  0  0
 17 14  1  0  0  0  0
 18  9  1  0  0  0  0
 19 25  1  0  0  0  0
 20 19  1  0  0  0  0
 20 21  2  0  0  0  0
 21 24  1  0  0  0  0
 22 24  1  0  0  0  0
 23 24  1  0  0  0  0
 23 25  1  0  0  0  0
 26 17  1  0  0  0  0
 27 26  1  0  0  0  0
 27 30  1  0  0  0  0
 29 28  1  0  0  0  0
 29 27  1  0  0  0  0
 30 31  1  0  0  0  0
 32 31  1  0  0  0  0
 33  3  1  0  0  0  0
 34 35  1  0  0  0  0
 34 33  1  0  0  0  0
 36 34  1  0  0  0  0
 37 34  1  0  0  0  0
M  END
>  <MODEL>
4

>  <REMARK>
 VINA RESULT:      -6.2      1.159      1.726
  Name = 
  8 active torsions:
  status: ('A' for Active; 'I' for Inactive)
    1  A    between atoms: C_1  and  C_4
    2  A    between atoms: C_1  and  C_27
    3  A    between atoms: C_2  and  N_22
    4  A    between atoms: C_4  and  C_12
    5  A    between atoms: C_4  and  C_37
    6  A    between atoms: C_6  and  N_22
    7  A    between atoms: C_8  and  C_12
    8  A    between atoms: C_23  and  C_30
                            x       y       z     vdW  Elec       q    Type
                         _______ _______ _______ _____ _____    ______ ____

>  <TORSDO>
F 8

$$$$
=
 OpenBabel11122411433D

 37 42  0  0  1  0  0  0  0  0999 V2000
  188.3970  177.3060  138.0170 C   0  0  1  0  0  3  0  0  0  0  0  0
  185.1730  178.2800  137.5920 C   0  0  0  0  0  2  0  0  0  0  0  0
  190.4760  177.5030  139.5380 C   0  0  2  0  0  3  0  0  0  0  0  0
  187.1570  177.2670  138.7980 N   0  0  2  0  0  0  0  0  0  0  0  0
  189.3330  178.2300  138.8030 C   0  0  2  0  0  3  0  0  0  0  0  0
  185.9260  177.0080  138.0040 C   0  0  2  0  0  3  0  0  0  0  0  0
  191.3060  176.6620  138.5630 C   0  0  0  0  0  2  0  0  0  0  0  0
  188.4200  178.9110  139.7900 C   0  0  0  0  0  2  0  0  0  0  0  0
  188.3120  175.1820  136.7450 N   0  0  0  0  0  2  0  0  0  0  0  0
  190.4730  175.9740  137.4760 C   0  0  0  0  0  2  0  0  0  0  0  0
  183.9210  177.9070  139.6690 O   0  0  0  0  0  0  0  0  0  0  0  0
  184.2330  178.8530  138.6750 C   0  0  1  0  0  3  0  0  0  0  0  0
  188.9870  175.8880  137.8240 C   0  0  1  0  0  3  0  0  0  0  0  0
  187.0620  178.5400  139.4040 N   0  0  2  0  0  0  0  0  0  0  0  0
  186.0460  176.0040  136.8450 C   0  0  1  0  0  3  0  0  0  0  0  0
  184.7270  178.9890  140.0910 C   0  0  2  0  0  3  0  0  0  0  0  0
  186.1010  178.4400  140.5140 C   0  0  2  0  0  3  0  0  0  0  0  0
  186.9680  174.8430  137.1760 C   0  0  0  0  0  2  0  0  0  0  0  0
  184.3180  175.6300  134.9660 C   0  0  0  0  0  2  0  0  0  0  0  0
  184.6980  175.4890  136.4220 C   0  0  0  0  0  0  0  0  0  0  0  0
  183.8150  175.0530  137.3440 C   0  0  0  0  0  3  0  0  0  0  0  0
  181.5480  174.8400  137.9730 F   0  0  0  0  0  0  0  0  0  0  0  0
  181.9720  175.0950  135.6450 C   0  0  0  0  0  2  0  0  0  0  0  0
  182.4520  174.5310  136.9760 C   0  0  1  0  0  3  0  0  0  0  0  0
  183.0510  174.8580  134.5960 C   0  0  0  0  0  2  0  0  0  0  0  0
  186.5410  179.1620  141.7990 C   0  0  0  0  0  2  0  0  0  0  0  0
  186.0500  178.4720  143.0750 C   0  0  1  0  0  3  0  0  0  0  0  0
  183.8620  179.0210  144.1480 C   0  0  0  0  0  1  0  0  0  0  0  0
  184.5460  178.2260  143.0530 C   0  0  0  0  0  2  0  0  0  0  0  0
  186.8170  177.1780  143.3230 C   0  0  0  0  0  2  0  0  0  0  0  0
  187.6910  177.2830  144.5630 C   0  0  0  0  0  2  0  0  0  0  0  0
  186.8550  177.6370  145.7780 C   0  0  0  0  0  1  0  0  0  0  0  0
  189.9670  176.6430  140.6110 N   0  0  0  0  0  2  0  0  0  0  0  0
  190.6160  176.9520  141.8880 C   0  0  0  0  0  0  0  0  0  0  0  0
  192.1190  177.1040  141.7120 C   0  0  0  0  0  1  0  0  0  0  0  0
  190.0850  178.1210  142.4370 O   0  0  0  0  0  1  0  0  0  0  0  0
  190.3670  175.8090  142.8480 C   0  0  0  0  0  1  0  0  0  0  0  0
  1  4  1  0  0  0  0
  1  5  1  0  0  0  0
  2  6  1  0  0  0  0
  2 12  1  0  0  0  0
  3 33  1  0  0  0  0
  4 14  1  0  0  0  0
  5  3  1  0  0  0  0
  5  8  1  0  0  0  0
  6  4  1  0  0  0  0
  7  3  1  0  0  0  0
  9 18  1  0  0  0  0
  9 13  1  0  0  0  0
 10 13  1  0  0  0  0
 10  7  1  0  0  0  0
 11 16  1  0  0  0  0
 12 11  1  0  0  0  0
 12 16  1  0  0  0  0
 13  1  1  0  0  0  0
 14  8  1  0  0  0  0
 14 17  1  0  0  0  0
 15 18  1  0  0  0  0
 15  6  1  0  0  0  0
 16 17  1  0  0  0  0
 17 26  1  0  0  0  0
 19 20  1  0  0  0  0
 20 15  1  0  0  0  0
 20 21  2  0  0  0  0
 23 24  1  0  0  0  0
 24 21  1  0  0  0  0
 24 22  1  0  0  0  0
 25 19  1  0  0  0  0
 25 23  1  0  0  0  0
 26 27  1  0  0  0  0
 27 30  1  0  0  0  0
 29 27  1  0  0  0  0
 29 28  1  0  0  0  0
 30 31  1  0  0  0  0
 31 32  1  0  0  0  0
 33 34  1  0  0  0  0
 34 36  1  0  0  0  0
 34 37  1  0  0  0  0
 35 34  1  0  0  0  0
M  END
>  <MODEL>
5

>  <REMARK>
 VINA RESULT:      -5.9      2.917      7.964
  Name = 
  8 active torsions:
  status: ('A' for Active; 'I' for Inactive)
    1  A    between atoms: C_1  and  C_4
    2  A    between atoms: C_1  and  C_27
    3  A    between atoms: C_2  and  N_22
    4  A    between atoms: C_4  and  C_12
    5  A    between atoms: C_4  and  C_37
    6  A    between atoms: C_6  and  N_22
    7  A    between atoms: C_8  and  C_12
    8  A    between atoms: C_23  and  C_30
                            x       y       z     vdW  Elec       q    Type
                         _______ _______ _______ _____ _____    ______ ____

>  <TORSDO>
F 8

$$$$
=
 OpenBabel11122411433D

 37 42  0  0  1  0  0  0  0  0999 V2000
  184.2770  179.1370  140.2330 C   0  0  1  0  0  3  0  0  0  0  0  0
  187.3590  179.4090  141.6300 C   0  0  0  0  0  2  0  0  0  0  0  0
  182.9860  178.5690  138.0690 C   0  0  2  0  0  3  0  0  0  0  0  0
  185.4530  178.2790  140.4030 N   0  0  2  0  0  0  0  0  0  0  0  0
  184.1490  179.3420  138.7200 C   0  0  2  0  0  3  0  0  0  0  0  0
  186.1670  178.4450  141.6970 C   0  0  2  0  0  3  0  0  0  0  0  0
  181.6530  178.9220  138.7360 C   0  0  0  0  0  2  0  0  0  0  0  0
  185.4710  178.8600  138.1790 C   0  0  0  0  0  2  0  0  0  0  0  0
  182.9750  178.6980  142.2930 N   0  0  0  0  0  2  0  0  0  0  0  0
  181.7530  179.1120  140.2530 C   0  0  0  0  0  2  0  0  0  0  0  0
  188.6530  177.3760  141.1690 O   0  0  0  0  0  0  0  0  0  0  0  0
  188.6690  178.7820  141.1030 C   0  0  1  0  0  3  0  0  0  0  0  0
  183.0140  178.4920  140.8540 C   0  0  1  0  0  3  0  0  0  0  0  0
  186.3210  178.6270  139.3430 N   0  0  2  0  0  0  0  0  0  0  0  0
  185.2980  178.6820  142.9430 C   0  0  1  0  0  3  0  0  0  0  0  0
  188.6360  177.9240  139.8660 C   0  0  2  0  0  3  0  0  0  0  0  0
  187.3060  177.5440  139.1920 C   0  0  2  0  0  3  0  0  0  0  0  0
  184.0070  177.8840  142.9110 C   0  0  0  0  0  2  0  0  0  0  0  0
  187.1790  177.3770  144.1350 C   0  0  0  0  0  2  0  0  0  0  0  0
  186.0570  178.3870  144.2080 C   0  0  0  0  0  0  0  0  0  0  0  0
  185.6450  178.9020  145.3850 C   0  0  0  0  0  3  0  0  0  0  0  0
  185.4560  178.6060  147.7210 F   0  0  0  0  0  0  0  0  0  0  0  0
  187.1460  177.3290  146.6340 C   0  0  0  0  0  2  0  0  0  0  0  0
  186.3630  178.6360  146.6800 C   0  0  1  0  0  3  0  0  0  0  0  0
  188.0380  177.3380  145.3990 C   0  0  0  0  0  2  0  0  0  0  0  0
  187.5920  177.1480  137.7340 C   0  0  0  0  0  2  0  0  0  0  0  0
  188.7490  176.1530  137.5960 C   0  0  1  0  0  3  0  0  0  0  0  0
  187.8310  174.7730  135.7270 C   0  0  0  0  0  1  0  0  0  0  0  0
  188.2690  174.7680  137.1790 C   0  0  0  0  0  2  0  0  0  0  0  0
  189.8080  176.6820  136.6360 C   0  0  0  0  0  2  0  0  0  0  0  0
  191.2100  176.3570  137.1270 C   0  0  0  0  0  2  0  0  0  0  0  0
  191.2230  176.1880  138.6340 C   0  0  0  0  0  1  0  0  0  0  0  0
  183.1960  177.1190  138.1380 N   0  0  0  0  0  2  0  0  0  0  0  0
  183.0510  176.5020  136.8160 C   0  0  0  0  0  0  0  0  0  0  0  0
  181.7960  175.6450  136.7490 C   0  0  0  0  0  1  0  0  0  0  0  0
  183.0070  177.4810  135.8200 O   0  0  0  0  0  1  0  0  0  0  0  0
  184.2460  175.6090  136.5650 C   0  0  0  0  0  1  0  0  0  0  0  0
  1  4  1  0  0  0  0
  1 13  1  0  0  0  0
  2  6  1  0  0  0  0
  3 33  1  0  0  0  0
  3  5  1  0  0  0  0
  3  7  1  0  0  0  0
  4  6  1  0  0  0  0
  5  1  1  0  0  0  0
  6 15  1  0  0  0  0
  7 10  1  0  0  0  0
  8  5  1  0  0  0  0
  8 14  1  0  0  0  0
  9 18  1  0  0  0  0
 10 13  1  0  0  0  0
 12 11  1  0  0  0  0
 12  2  1  0  0  0  0
 13  9  1  0  0  0  0
 14  4  1  0  0  0  0
 15 20  1  0  0  0  0
 16 12  1  0  0  0  0
 16 11  1  0  0  0  0
 17 14  1  0  0  0  0
 17 16  1  0  0  0  0
 18 15  1  0  0  0  0
 19 20  1  0  0  0  0
 19 25  1  0  0  0  0
 20 21  2  0  0  0  0
 21 24  1  0  0  0  0
 23 24  1  0  0  0  0
 24 22  1  0  0  0  0
 25 23  1  0  0  0  0
 26 17  1  0  0  0  0
 27 26  1  0  0  0  0
 28 29  1  0  0  0  0
 29 27  1  0  0  0  0
 30 31  1  0  0  0  0
 30 27  1  0  0  0  0
 31 32  1  0  0  0  0
 34 33  1  0  0  0  0
 35 34  1  0  0  0  0
 36 34  1  0  0  0  0
 37 34  1  0  0  0  0
M  END
>  <MODEL>
6

>  <REMARK>
 VINA RESULT:      -5.8      2.423      3.570
  Name = 
  8 active torsions:
  status: ('A' for Active; 'I' for Inactive)
    1  A    between atoms: C_1  and  C_4
    2  A    between atoms: C_1  and  C_27
    3  A    between atoms: C_2  and  N_22
    4  A    between atoms: C_4  and  C_12
    5  A    between atoms: C_4  and  C_37
    6  A    between atoms: C_6  and  N_22
    7  A    between atoms: C_8  and  C_12
    8  A    between atoms: C_23  and  C_30
                            x       y       z     vdW  Elec       q    Type
                         _______ _______ _______ _____ _____    ______ ____

>  <TORSDO>
F 8

$$$$
=
 OpenBabel11122411433D

 37 42  0  0  1  0  0  0  0  0999 V2000
  187.3780  175.6060  136.2970 C   0  0  1  0  0  3  0  0  0  0  0  0
  184.0890  175.2190  135.5500 C   0  0  0  0  0  2  0  0  0  0  0  0
  189.1150  177.1440  137.4340 C   0  0  2  0  0  3  0  0  0  0  0  0
  186.1100  175.5850  137.0320 N   0  0  2  0  0  0  0  0  0  0  0  0
  187.9160  177.0310  136.4730 C   0  0  2  0  0  3  0  0  0  0  0  0
  185.1080  174.6110  136.5230 C   0  0  2  0  0  3  0  0  0  0  0  0
  190.2590  176.2280  136.9920 C   0  0  0  0  0  2  0  0  0  0  0  0
  186.7340  177.7970  137.0100 C   0  0  0  0  0  2  0  0  0  0  0  0
  188.0440  173.2210  136.2810 N   0  0  0  0  0  2  0  0  0  0  0  0
  189.7920  174.8800  136.4330 C   0  0  0  0  0  2  0  0  0  0  0  0
  182.7410  175.5590  137.5710 O   0  0  0  0  0  0  0  0  0  0  0  0
  182.8990  175.9360  136.2250 C   0  0  1  0  0  3  0  0  0  0  0  0
  188.3570  174.5320  136.8290 C   0  0  1  0  0  3  0  0  0  0  0  0
  185.5910  176.8940  136.9130 N   0  0  2  0  0  0  0  0  0  0  0  0
  185.6450  173.2570  136.0300 C   0  0  1  0  0  3  0  0  0  0  0  0
  183.1560  176.8930  137.3580 C   0  0  2  0  0  3  0  0  0  0  0  0
  184.5650  177.0690  137.9530 C   0  0  2  0  0  3  0  0  0  0  0  0
  186.8040  172.7510  136.8710 C   0  0  0  0  0  2  0  0  0  0  0  0
  184.4180  171.4160  134.7010 C   0  0  0  0  0  2  0  0  0  0  0  0
  184.5570  172.2200  135.9730 C   0  0  0  0  0  0  0  0  0  0  0  0
  183.6540  172.1260  136.9710 C   0  0  0  0  0  3  0  0  0  0  0  0
  181.4280  171.6310  137.5920 F   0  0  0  0  0  0  0  0  0  0  0  0
  182.1860  170.6750  135.5480 C   0  0  0  0  0  2  0  0  0  0  0  0
  182.5430  171.1110  136.9640 C   0  0  1  0  0  3  0  0  0  0  0  0
  183.4600  170.2330  134.8380 C   0  0  0  0  0  2  0  0  0  0  0  0
  184.6240  178.4240  138.6790 C   0  0  0  0  0  2  0  0  0  0  0  0
  184.0030  178.3850  140.0780 C   0  0  1  0  0  3  0  0  0  0  0  0
  184.7970  178.2530  142.4430 C   0  0  0  0  0  1  0  0  0  0  0  0
  184.9170  179.0030  141.1300 C   0  0  0  0  0  2  0  0  0  0  0  0
  182.6300  179.0480  140.0810 C   0  0  0  0  0  2  0  0  0  0  0  0
  181.5590  178.0980  140.5930 C   0  0  0  0  0  2  0  0  0  0  0  0
  180.9430  178.6270  141.8740 C   0  0  0  0  0  1  0  0  0  0  0  0
  188.7340  176.8170  138.8130 N   0  0  0  0  0  2  0  0  0  0  0  0
  189.1850  177.8540  139.7450 C   0  0  0  0  0  0  0  0  0  0  0  0
  190.6220  177.6080  140.1800 C   0  0  0  0  0  1  0  0  0  0  0  0
  189.0800  179.1180  139.1590 O   0  0  0  0  0  1  0  0  0  0  0  0
  188.3060  177.8150  140.9760 C   0  0  0  0  0  1  0  0  0  0  0  0
  1  5  1  0  0  0  0
  1 13  1  0  0  0  0
  1  4  1  0  0  0  0
  2 12  1  0  0  0  0
  2  6  1  0  0  0  0
  3 33  1  0  0  0  0
  5  8  1  0  0  0  0
  5  3  1  0  0  0  0
  6  4  1  0  0  0  0
  7  3  1  0  0  0  0
  9 13  1  0  0  0  0
  9 18  1  0  0  0  0
 10 13  1  0  0  0  0
 10  7  1  0  0  0  0
 12 16  1  0  0  0  0
 12 11  1  0  0  0  0
 14  8  1  0  0  0  0
 14  4  1  0  0  0  0
 14 17  1  0  0  0  0
 15  6  1  0  0  0  0
 15 18  1  0  0  0  0
 16 11  1  0  0  0  0
 16 17  1  0  0  0  0
 17 26  1  0  0  0  0
 19 25  1  0  0  0  0
 19 20  1  0  0  0  0
 20 15  1  0  0  0  0
 20 21  2  0  0  0  0
 23 24  1  0  0  0  0
 24 21  1  0  0  0  0
 24 22  1  0  0  0  0
 25 23  1  0  0  0  0
 26 27  1  0  0  0  0
 27 30  1  0  0  0  0
 27 29  1  0  0  0  0
 29 28  1  0  0  0  0
 30 31  1  0  0  0  0
 31 32  1  0  0  0  0
 33 34  1  0  0  0  0
 34 35  1  0  0  0  0
 34 37  1  0  0  0  0
 36 34  1  0  0  0  0
M  END
>  <MODEL>
7

>  <REMARK>
 VINA RESULT:      -5.7      3.378      8.241
  Name = 
  8 active torsions:
  status: ('A' for Active; 'I' for Inactive)
    1  A    between atoms: C_1  and  C_4
    2  A    between atoms: C_1  and  C_27
    3  A    between atoms: C_2  and  N_22
    4  A    between atoms: C_4  and  C_12
    5  A    between atoms: C_4  and  C_37
    6  A    between atoms: C_6  and  N_22
    7  A    between atoms: C_8  and  C_12
    8  A    between atoms: C_23  and  C_30
                            x       y       z     vdW  Elec       q    Type
                         _______ _______ _______ _____ _____    ______ ____

>  <TORSDO>
F 8

$$$$
=
 OpenBabel11122411433D

 37 42  0  0  1  0  0  0  0  0999 V2000
  184.0410  179.3530  140.3000 C   0  0  1  0  0  3  0  0  0  0  0  0
  187.2910  179.3200  141.2800 C   0  0  0  0  0  2  0  0  0  0  0  0
  182.4440  179.1110  138.2830 C   0  0  2  0  0  3  0  0  0  0  0  0
  185.1770  178.4310  140.2050 N   0  0  2  0  0  0  0  0  0  0  0  0
  183.7270  179.7480  138.8520 C   0  0  2  0  0  3  0  0  0  0  0  0
  186.0640  178.4060  141.3990 C   0  0  2  0  0  3  0  0  0  0  0  0
  181.2350  179.4360  139.1630 C   0  0  0  0  0  2  0  0  0  0  0  0
  184.9360  179.2800  138.0820 C   0  0  0  0  0  2  0  0  0  0  0  0
  182.9980  178.7210  142.4550 N   0  0  0  0  0  2  0  0  0  0  0  0
  181.5440  179.4340  140.6650 C   0  0  0  0  0  2  0  0  0  0  0  0
  188.3910  177.3050  140.4120 O   0  0  0  0  0  0  0  0  0  0  0  0
  188.4800  178.7070  140.5090 C   0  0  1  0  0  3  0  0  0  0  0  0
  182.8350  178.6920  141.0090 C   0  0  1  0  0  3  0  0  0  0  0  0
  185.9160  178.8700  139.0830 N   0  0  2  0  0  0  0  0  0  0  0  0
  185.3820  178.5260  142.7720 C   0  0  1  0  0  3  0  0  0  0  0  0
  188.2340  178.0100  139.1970 C   0  0  2  0  0  3  0  0  0  0  0  0
  186.8070  177.7720  138.6730 C   0  0  2  0  0  3  0  0  0  0  0  0
  184.0520  177.7940  142.8260 C   0  0  0  0  0  2  0  0  0  0  0  0
  186.0200  178.5630  145.2720 C   0  0  0  0  0  2  0  0  0  0  0  0
  186.2820  178.0450  143.8770 C   0  0  0  0  0  0  0  0  0  0  0  0
  187.3670  177.2950  143.5940 C   0  0  0  0  0  3  0  0  0  0  0  0
  189.5890  176.7290  144.1610 F   0  0  0  0  0  0  0  0  0  0  0  0
  188.2670  177.6690  145.9030 C   0  0  0  0  0  2  0  0  0  0  0  0
  188.3030  176.7910  144.6590 C   0  0  1  0  0  3  0  0  0  0  0  0
  186.8190  177.8280  146.3480 C   0  0  0  0  0  2  0  0  0  0  0  0
  186.8750  177.5470  137.1530 C   0  0  0  0  0  2  0  0  0  0  0  0
  187.0330  176.0720  136.7700 C   0  0  1  0  0  3  0  0  0  0  0  0
  189.4830  175.9280  136.3090 C   0  0  0  0  0  1  0  0  0  0  0  0
  188.3640  175.4960  137.2370 C   0  0  0  0  0  2  0  0  0  0  0  0
  185.8610  175.2480  137.2930 C   0  0  0  0  0  2  0  0  0  0  0  0
  186.1560  173.7580  137.2130 C   0  0  0  0  0  2  0  0  0  0  0  0
  184.9320  172.9490  137.5960 C   0  0  0  0  0  1  0  0  0  0  0  0
  182.5760  177.6560  138.1530 N   0  0  0  0  0  2  0  0  0  0  0  0
  182.2060  177.2110  136.8070 C   0  0  0  0  0  0  0  0  0  0  0  0
  181.4790  178.3110  136.0500 C   0  0  0  0  0  1  0  0  0  0  0  0
  183.3400  176.8160  136.0920 O   0  0  0  0  0  1  0  0  0  0  0  0
  181.2730  176.0250  136.9280 C   0  0  0  0  0  1  0  0  0  0  0  0
  1 13  1  0  0  0  0
  2  6  1  0  0  0  0
  3  5  1  0  0  0  0
  3  7  1  0  0  0  0
  4  1  1  0  0  0  0
  4  6  1  0  0  0  0
  5  1  1  0  0  0  0
  6 15  1  0  0  0  0
  7 10  1  0  0  0  0
  8  5  1  0  0  0  0
  8 14  1  0  0  0  0
  9 18  1  0  0  0  0
 10 13  1  0  0  0  0
 11 12  1  0  0  0  0
 12  2  1  0  0  0  0
 13  9  1  0  0  0  0
 14  4  1  0  0  0  0
 15 18  1  0  0  0  0
 15 20  1  0  0  0  0
 16 11  1  0  0  0  0
 16 12  1  0  0  0  0
 17 14  1  0  0  0  0
 17 16  1  0  0  0  0
 19 25  1  0  0  0  0
 20 19  1  0  0  0  0
 21 20  2  0  0  0  0
 21 24  1  0  0  0  0
 22 24  1  0  0  0  0
 23 25  1  0  0  0  0
 24 23  1  0  0  0  0
 26 17  1  0  0  0  0
 27 26  1  0  0  0  0
 27 29  1  0  0  0  0
 27 30  1  0  0  0  0
 28 29  1  0  0  0  0
 31 30  1  0  0  0  0
 31 32  1  0  0  0  0
 33  3  1  0  0  0  0
 34 37  1  0  0  0  0
 34 33  1  0  0  0  0
 35 34  1  0  0  0  0
 36 34  1  0  0  0  0
M  END
>  <MODEL>
8

>  <REMARK>
 VINA RESULT:      -5.2      1.957      2.844
  Name = 
  8 active torsions:
  status: ('A' for Active; 'I' for Inactive)
    1  A    between atoms: C_1  and  C_4
    2  A    between atoms: C_1  and  C_27
    3  A    between atoms: C_2  and  N_22
    4  A    between atoms: C_4  and  C_12
    5  A    between atoms: C_4  and  C_37
    6  A    between atoms: C_6  and  N_22
    7  A    between atoms: C_8  and  C_12
    8  A    between atoms: C_23  and  C_30
                            x       y       z     vdW  Elec       q    Type
                         _______ _______ _______ _____ _____    ______ ____

>  <TORSDO>
F 8

$$$$
=
 OpenBabel11122411433D

 37 42  0  0  1  0  0  0  0  0999 V2000
  186.6100  178.6390  140.5340 C   0  0  1  0  0  3  0  0  0  0  0  0
  189.5330  178.4090  142.2440 C   0  0  0  0  0  2  0  0  0  0  0  0
  185.4630  178.2310  138.2550 C   0  0  2  0  0  3  0  0  0  0  0  0
  187.5890  177.5910  140.8420 N   0  0  2  0  0  0  0  0  0  0  0  0
  186.6750  178.8080  139.0120 C   0  0  2  0  0  3  0  0  0  0  0  0
  188.1860  177.6750  142.2010 C   0  0  2  0  0  3  0  0  0  0  0  0
  184.1560  178.8390  138.7700 C   0  0  0  0  0  2  0  0  0  0  0  0
  187.9360  178.0800  138.6230 C   0  0  0  0  0  2  0  0  0  0  0  0
  185.0480  178.5120  142.4520 N   0  0  0  0  0  2  0  0  0  0  0  0
  184.1330  179.0630  140.2860 C   0  0  0  0  0  2  0  0  0  0  0  0
  190.4790  176.1630  141.9580 O   0  0  0  0  0  0  0  0  0  0  0  0
  190.7550  177.5400  141.8700 C   0  0  1  0  0  3  0  0  0  0  0  0
  185.1950  178.2510  141.0280 C   0  0  1  0  0  3  0  0  0  0  0  0
  188.6080  177.7420  139.8740 N   0  0  2  0  0  0  0  0  0  0  0  0
  187.2530  178.1070  143.3440 C   0  0  1  0  0  3  0  0  0  0  0  0
  190.6930  176.6580  140.6520 C   0  0  2  0  0  3  0  0  0  0  0  0
  189.3910  176.4960  139.8470 C   0  0  2  0  0  3  0  0  0  0  0  0
  185.8480  177.5510  143.1890 C   0  0  0  0  0  2  0  0  0  0  0  0
  187.0400  178.1470  145.9160 C   0  0  0  0  0  2  0  0  0  0  0  0
  187.8140  177.7280  144.6870 C   0  0  0  0  0  0  0  0  0  0  0  0
  189.0350  177.1620  144.7790 C   0  0  0  0  0  3  0  0  0  0  0  0
  191.0180  176.9190  146.0410 F   0  0  0  0  0  0  0  0  0  0  0  0
  189.0770  177.5820  147.2500 C   0  0  0  0  0  2  0  0  0  0  0  0
  189.6460  176.7660  146.0960 C   0  0  1  0  0  3  0  0  0  0  0  0
  187.5570  177.5020  147.2020 C   0  0  0  0  0  2  0  0  0  0  0  0
  189.7470  176.0030  138.4340 C   0  0  0  0  0  2  0  0  0  0  0  0
  191.0600  176.5880  137.9060 C   0  0  1  0  0  3  0  0  0  0  0  0
  193.2790  175.9360  136.9620 C   0  0  0  0  0  1  0  0  0  0  0  0
  192.2050  175.5840  137.9740 C   0  0  0  0  0  2  0  0  0  0  0  0
  190.8830  177.1290  136.4910 C   0  0  0  0  0  2  0  0  0  0  0  0
  189.6860  176.4930  135.8030 C   0  0  0  0  0  2  0  0  0  0  0  0
  188.9830  177.5000  134.9140 C   0  0  0  0  0  1  0  0  0  0  0  0
  185.4000  176.7710  138.3700 N   0  0  0  0  0  2  0  0  0  0  0  0
  185.2670  176.1430  137.0530 C   0  0  0  0  0  0  0  0  0  0  0  0
  186.3480  175.0950  136.8370 C   0  0  0  0  0  1  0  0  0  0  0  0
  184.0060  175.5550  136.9150 O   0  0  0  0  0  1  0  0  0  0  0  0
  185.4230  177.2080  135.9900 C   0  0  0  0  0  1  0  0  0  0  0  0
  1  4  1  0  0  0  0
  1 13  1  0  0  0  0
  3 33  1  0  0  0  0
  3  7  1  0  0  0  0
  3  5  1  0  0  0  0
  4  6  1  0  0  0  0
  5  1  1  0  0  0  0
  6  2  1  0  0  0  0
  6 15  1  0  0  0  0
  7 10  1  0  0  0  0
  8  5  1  0  0  0  0
  8 14  1  0  0  0  0
  9 18  1  0  0  0  0
 10 13  1  0  0  0  0
 12 11  1  0  0  0  0
 12  2  1  0  0  0  0
 13  9  1  0  0  0  0
 14  4  1  0  0  0  0
 15 20  1  0  0  0  0
 16 12  1  0  0  0  0
 16 11  1  0  0  0  0
 17 14  1  0  0  0  0
 17 16  1  0  0  0  0
 18 15  1  0  0  0  0
 19 25  1  0  0  0  0
 20 21  2  0  0  0  0
 20 19  1  0  0  0  0
 21 24  1  0  0  0  0
 22 24  1  0  0  0  0
 24 23  1  0  0  0  0
 25 23  1  0  0  0  0
 26 17  1  0  0  0  0
 27 29  1  0  0  0  0
 27 26  1  0  0  0  0
 28 29  1  0  0  0  0
 30 27  1  0  0  0  0
 31 30  1  0  0  0  0
 32 31  1  0  0  0  0
 34 33  1  0  0  0  0
 35 34  1  0  0  0  0
 36 34  1  0  0  0  0
 37 34  1  0  0  0  0
M  END
>  <MODEL>
9

>  <REMARK>
 VINA RESULT:      -5.2      2.446      4.024
  Name = 
  8 active torsions:
  status: ('A' for Active; 'I' for Inactive)
    1  A    between atoms: C_1  and  C_4
    2  A    between atoms: C_1  and  C_27
    3  A    between atoms: C_2  and  N_22
    4  A    between atoms: C_4  and  C_12
    5  A    between atoms: C_4  and  C_37
    6  A    between atoms: C_6  and  N_22
    7  A    between atoms: C_8  and  C_12
    8  A    between atoms: C_23  and  C_30
                            x       y       z     vdW  Elec       q    Type
                         _______ _______ _______ _____ _____    ______ ____

>  <TORSDO>
F 8

$$$$
