=
 OpenBabel11122410243D

 30 35  0  0  1  0  0  0  0  0999 V2000
  188.9810  177.3330  143.3050 C   0  0  1  0  0  3  0  0  0  0  0  0
  191.2360  176.6850  144.5610 C   0  0  0  0  0  0  0  0  0  0  0  0
  187.0920  178.1970  147.0690 C   0  0  0  0  0  2  0  0  0  0  0  0
  187.7030  178.1300  143.6130 C   0  0  1  0  0  3  0  0  0  0  0  0
  189.7650  178.0680  142.3970 O   0  0  0  0  0  0  0  0  0  0  0  0
  187.1400  178.6720  140.0410 O   0  0  0  0  0  0  0  0  0  0  0  0
  184.5270  178.0530  142.8680 C   0  0  1  0  0  3  0  0  0  0  0  0
  187.7010  178.3600  141.1260 C   0  0  0  0  0  0  0  0  0  0  0  0
  184.4360  177.9150  144.3950 C   0  0  2  0  0  3  0  0  0  0  0  0
  185.8280  178.6000  146.4300 C   0  0  0  0  0  0  0  0  0  0  0  0
  189.1610  177.9720  141.1170 C   0  0  2  0  0  3  0  0  0  0  0  0
  186.9580  178.3560  142.3610 N   0  0  0  0  0  0  0  0  0  0  0  0
  191.8280  176.2880  145.6940 C   0  0  0  0  0  3  0  0  0  0  0  0
  183.3330  178.8450  144.7730 C   0  0  0  0  0  2  0  0  0  0  0  0
  183.1650  178.6060  142.4610 C   0  0  0  0  0  2  0  0  0  0  0  0
  192.0790  176.8670  143.3430 C   0  0  0  0  0  1  0  0  0  0  0  0
  187.7220  177.2720  146.0310 C   0  0  1  0  0  3  0  0  0  0  0  0
  191.0020  176.0590  146.9270 C   0  0  0  0  0  2  0  0  0  0  0  0
  189.7350  176.9000  144.5820 C   0  0  1  0  0  3  0  0  0  0  0  0
  186.8930  177.4220  144.7170 C   0  0  1  0  0  3  0  0  0  0  0  0
  184.9400  179.2540  147.0370 O   0  0  0  0  0  0  0  0  0  0  0  0
  185.7090  178.1890  145.0720 N   0  0  0  0  0  0  0  0  0  0  0  0
  182.6280  179.2100  143.7120 C   0  0  0  0  0  2  0  0  0  0  0  0
  185.6710  180.3800  142.9790 C   0  0  0  0  0  1  0  0  0  0  0  0
  190.0200  177.2180  147.1320 C   0  0  0  0  0  2  0  0  0  0  0  0
  189.2180  177.5800  145.8630 C   0  0  2  0  0  3  0  0  0  0  0  0
  185.6380  178.9880  142.3510 C   0  0  2  0  0  3  0  0  0  0  0  0
  189.3640  176.5970  140.4860 C   0  0  0  0  0  2  0  0  0  0  0  0
  191.4830  177.4990  139.9410 F   0  0  0  0  0  0  0  0  0  0  0  0
  190.5000  176.6430  139.4830 C   0  0  0  0  0  2  0  0  0  0  0  0
  1  5  1  6  0  0  0
  1  4  1  0  0  0  0
  1 19  1  0  0  0  0
  2 13  2  0  0  0  0
  4 12  1  6  0  0  0
  4 20  1  0  0  0  0
  6  8  2  0  0  0  0
  7 15  1  1  0  0  0
  7  9  1  0  0  0  0
  8 12  1  0  0  0  0
  9 14  1  1  0  0  0
  9 22  1  0  0  0  0
 10 21  2  0  0  0  0
 10  3  1  0  0  0  0
 11 28  1  1  0  0  0
 11  8  1  0  0  0  0
 11  5  1  0  0  0  0
 13 18  1  0  0  0  0
 15 23  1  0  0  0  0
 16  2  1  0  0  0  0
 17  3  1  1  0  0  0
 18 25  1  0  0  0  0
 19  2  1  6  0  0  0
 19 26  1  0  0  0  0
 20 22  1  1  0  0  0
 20 17  1  0  0  0  0
 22 10  1  0  0  0  0
 23 14  1  0  0  0  0
 26 17  1  0  0  0  0
 26 25  1  1  0  0  0
 27 12  1  0  0  0  0
 27  7  1  0  0  0  0
 27 24  1  1  0  0  0
 30 29  1  0  0  0  0
 30 28  1  0  0  0  0
M  END
>  <MODEL>
1

>  <REMARK>
 VINA RESULT:      -9.2      0.000      0.000
  Name = 
  2 active torsions:
  status: ('A' for Active; 'I' for Inactive)
    1  A    between atoms: C_11  and  C_28
    2  A    between atoms: C_28  and  C_30
                            x       y       z     vdW  Elec       q    Type
                         _______ _______ _______ _____ _____    ______ ____

>  <TORSDO>
F 2

$$$$
=
 OpenBabel11122410243D

 30 35  0  0  1  0  0  0  0  0999 V2000
  187.3910  178.2860  140.4820 C   0  0  1  0  0  3  0  0  0  0  0  0
  184.9230  178.6660  139.5610 C   0  0  0  0  0  0  0  0  0  0  0  0
  185.8580  177.7250  144.4590 C   0  0  0  0  0  2  0  0  0  0  0  0
  188.0530  177.6600  141.7210 C   0  0  1  0  0  3  0  0  0  0  0  0
  187.6130  177.4440  139.3770 O   0  0  0  0  0  0  0  0  0  0  0  0
  191.1480  177.1380  139.8440 O   0  0  0  0  0  0  0  0  0  0  0  0
  190.6880  178.1240  143.5890 C   0  0  1  0  0  3  0  0  0  0  0  0
  189.9410  177.3930  140.1080 C   0  0  0  0  0  0  0  0  0  0  0  0
  189.5890  178.2960  144.6480 C   0  0  2  0  0  3  0  0  0  0  0  0
  187.1950  177.4750  145.0230 C   0  0  0  0  0  0  0  0  0  0  0  0
  188.9650  177.5950  138.9740 C   0  0  2  0  0  3  0  0  0  0  0  0
  189.4990  177.5110  141.4750 N   0  0  0  0  0  0  0  0  0  0  0  0
  183.6550  179.0020  139.8250 C   0  0  0  0  0  3  0  0  0  0  0  0
  190.0930  177.5180  145.8160 C   0  0  0  0  0  2  0  0  0  0  0  0
  191.9250  177.7410  144.3930 C   0  0  0  0  0  2  0  0  0  0  0  0
  185.3000  178.3600  138.1500 C   0  0  0  0  0  1  0  0  0  0  0  0
  186.1610  178.5470  143.2090 C   0  0  1  0  0  3  0  0  0  0  0  0
  183.2520  179.3530  141.2280 C   0  0  0  0  0  2  0  0  0  0  0  0
  185.9060  178.6400  140.7150 C   0  0  1  0  0  3  0  0  0  0  0  0
  187.7030  178.4820  142.9770 C   0  0  1  0  0  3  0  0  0  0  0  0
  187.3670  176.9460  146.1520 O   0  0  0  0  0  0  0  0  0  0  0  0
  188.2650  177.8750  144.1740 N   0  0  0  0  0  0  0  0  0  0  0  0
  191.3790  177.2280  145.6800 C   0  0  0  0  0  2  0  0  0  0  0  0
  190.0210  175.6740  143.0540 C   0  0  0  0  0  1  0  0  0  0  0  0
  183.8240  178.3300  142.2160 C   0  0  0  0  0  2  0  0  0  0  0  0
  185.3290  178.0510  142.0160 C   0  0  2  0  0  3  0  0  0  0  0  0
  190.4160  177.0490  142.5190 C   0  0  2  0  0  3  0  0  0  0  0  0
  189.2090  178.9230  138.2630 C   0  0  0  0  0  2  0  0  0  0  0  0
  187.7300  179.4580  136.4950 F   0  0  0  0  0  0  0  0  0  0  0  0
  188.9040  178.7900  136.7840 C   0  0  0  0  0  2  0  0  0  0  0  0
  1  5  1  6  0  0  0
  1 19  1  0  0  0  0
  1  4  1  0  0  0  0
  2 13  2  0  0  0  0
  3 10  1  0  0  0  0
  4 12  1  6  0  0  0
  4 20  1  0  0  0  0
  6  8  2  0  0  0  0
  7 15  1  1  0  0  0
  7  9  1  0  0  0  0
  8 12  1  0  0  0  0
  9 14  1  1  0  0  0
 10 21  2  0  0  0  0
 11 28  1  1  0  0  0
 11  5  1  0  0  0  0
 11  8  1  0  0  0  0
 12 27  1  0  0  0  0
 13 18  1  0  0  0  0
 15 23  1  0  0  0  0
 16  2  1  0  0  0  0
 17  3  1  1  0  0  0
 18 25  1  0  0  0  0
 19  2  1  6  0  0  0
 19 26  1  0  0  0  0
 20 17  1  0  0  0  0
 20 22  1  1  0  0  0
 22  9  1  0  0  0  0
 22 10  1  0  0  0  0
 23 14  1  0  0  0  0
 26 25  1  1  0  0  0
 26 17  1  0  0  0  0
 27 24  1  1  0  0  0
 27  7  1  0  0  0  0
 29 30  1  0  0  0  0
 30 28  1  0  0  0  0
M  END
>  <MODEL>
2

>  <REMARK>
 VINA RESULT:      -8.5      2.242      5.779
  Name = 
  2 active torsions:
  status: ('A' for Active; 'I' for Inactive)
    1  A    between atoms: C_11  and  C_28
    2  A    between atoms: C_28  and  C_30
                            x       y       z     vdW  Elec       q    Type
                         _______ _______ _______ _____ _____    ______ ____

>  <TORSDO>
F 2

$$$$
=
 OpenBabel11122410243D

 30 35  0  0  1  0  0  0  0  0999 V2000
  187.0000  178.0200  141.9820 C   0  0  1  0  0  3  0  0  0  0  0  0
  188.2070  178.0510  144.3540 C   0  0  0  0  0  0  0  0  0  0  0  0
  183.2380  178.9460  143.8450 C   0  0  0  0  0  2  0  0  0  0  0  0
  185.6950  178.5550  141.3690 C   0  0  1  0  0  3  0  0  0  0  0  0
  188.0750  178.7810  141.4880 O   0  0  0  0  0  0  0  0  0  0  0  0
  187.1910  178.4810  138.0340 O   0  0  0  0  0  0  0  0  0  0  0  0
  183.5230  177.6900  139.0920 C   0  0  1  0  0  3  0  0  0  0  0  0
  187.0720  178.4470  139.2880 C   0  0  0  0  0  0  0  0  0  0  0  0
  182.6020  177.7410  140.3210 C   0  0  2  0  0  3  0  0  0  0  0  0
  182.5200  178.9750  142.5600 C   0  0  0  0  0  0  0  0  0  0  0  0
  188.3140  178.3870  140.1460 C   0  0  2  0  0  3  0  0  0  0  0  0
  185.7670  178.4440  139.9010 N   0  0  0  0  0  0  0  0  0  0  0  0
  188.0940  177.9470  145.6830 C   0  0  0  0  0  3  0  0  0  0  0  0
  181.3860  178.4500  139.8270 C   0  0  0  0  0  2  0  0  0  0  0  0
  182.5780  177.8750  137.9090 C   0  0  0  0  0  2  0  0  0  0  0  0
  189.5650  178.2490  143.7670 C   0  0  0  0  0  1  0  0  0  0  0  0
  184.4370  178.0510  143.5480 C   0  0  1  0  0  3  0  0  0  0  0  0
  186.7460  177.7100  146.3020 C   0  0  0  0  0  2  0  0  0  0  0  0
  186.9430  177.9360  143.5230 C   0  0  1  0  0  3  0  0  0  0  0  0
  184.4850  177.8410  142.0020 C   0  0  1  0  0  3  0  0  0  0  0  0
  181.3810  179.4960  142.4310 O   0  0  0  0  0  0  0  0  0  0  0  0
  183.2330  178.3720  141.4850 N   0  0  0  0  0  0  0  0  0  0  0  0
  181.3690  178.5090  138.5030 C   0  0  0  0  0  2  0  0  0  0  0  0
  184.1490  180.2040  139.2520 C   0  0  0  0  0  1  0  0  0  0  0  0
  185.7040  178.6440  145.6780 C   0  0  0  0  0  2  0  0  0  0  0  0
  185.7240  178.6510  144.1350 C   0  0  2  0  0  3  0  0  0  0  0  0
  184.6240  178.7680  139.0450 C   0  0  2  0  0  3  0  0  0  0  0  0
  188.9820  177.0170  140.0580 C   0  0  0  0  0  2  0  0  0  0  0  0
  191.1100  177.7320  140.8080 F   0  0  0  0  0  0  0  0  0  0  0  0
  190.4530  177.1730  139.7280 C   0  0  0  0  0  2  0  0  0  0  0  0
  1  5  1  1  0  0  0
  1 19  1  0  0  0  0
  2 13  2  0  0  0  0
  4 12  1  6  0  0  0
  4  1  1  0  0  0  0
  4 20  1  0  0  0  0
  6  8  2  0  0  0  0
  7 15  1  6  0  0  0
  7  9  1  0  0  0  0
  8 12  1  0  0  0  0
  8 11  1  0  0  0  0
  9 14  1  6  0  0  0
  9 22  1  0  0  0  0
 10  3  1  0  0  0  0
 11 28  1  1  0  0  0
 11  5  1  0  0  0  0
 13 18  1  0  0  0  0
 15 23  1  0  0  0  0
 16  2  1  0  0  0  0
 17  3  1  6  0  0  0
 17 26  1  0  0  0  0
 19 26  1  0  0  0  0
 19  2  1  1  0  0  0
 20 22  1  6  0  0  0
 20 17  1  0  0  0  0
 21 10  2  0  0  0  0
 22 10  1  0  0  0  0
 23 14  1  0  0  0  0
 25 18  1  0  0  0  0
 26 25  1  1  0  0  0
 27  7  1  0  0  0  0
 27 24  1  1  0  0  0
 27 12  1  0  0  0  0
 30 28  1  0  0  0  0
 30 29  1  0  0  0  0
M  END
>  <MODEL>
3

>  <REMARK>
 VINA RESULT:      -8.4      2.423      3.758
  Name = 
  2 active torsions:
  status: ('A' for Active; 'I' for Inactive)
    1  A    between atoms: C_11  and  C_28
    2  A    between atoms: C_28  and  C_30
                            x       y       z     vdW  Elec       q    Type
                         _______ _______ _______ _____ _____    ______ ____

>  <TORSDO>
F 2

$$$$
=
 OpenBabel11122410243D

 30 35  0  0  1  0  0  0  0  0999 V2000
  187.2420  177.8650  145.2880 C   0  0  1  0  0  3  0  0  0  0  0  0
  184.7290  178.5430  145.8440 C   0  0  0  0  0  0  0  0  0  0  0  0
  186.6560  178.9370  141.1670 C   0  0  0  0  0  2  0  0  0  0  0  0
  188.2710  178.1450  144.1810 C   0  0  1  0  0  3  0  0  0  0  0  0
  187.6270  178.5610  146.4490 O   0  0  0  0  0  0  0  0  0  0  0  0
  191.0070  177.3890  146.4860 O   0  0  0  0  0  0  0  0  0  0  0  0
  190.7280  176.6130  142.6740 C   0  0  1  0  0  3  0  0  0  0  0  0
  189.8530  177.6440  146.0470 C   0  0  0  0  0  0  0  0  0  0  0  0
  189.8170  176.8880  141.4680 C   0  0  2  0  0  3  0  0  0  0  0  0
  188.0450  178.6100  140.8040 C   0  0  0  0  0  0  0  0  0  0  0  0
  188.7270  177.8780  147.0270 C   0  0  2  0  0  3  0  0  0  0  0  0
  189.6010  177.6950  144.6290 N   0  0  0  0  0  0  0  0  0  0  0  0
  183.4860  178.7490  145.3950 C   0  0  0  0  0  3  0  0  0  0  0  0
  190.7560  177.3720  140.4150 C   0  0  0  0  0  2  0  0  0  0  0  0
  192.1150  176.4450  142.0650 C   0  0  0  0  0  2  0  0  0  0  0  0
  184.9920  178.6910  147.3060 C   0  0  0  0  0  1  0  0  0  0  0  0
  186.4160  178.0840  142.4090 C   0  0  1  0  0  3  0  0  0  0  0  0
  183.1800  178.5700  143.9350 C   0  0  0  0  0  2  0  0  0  0  0  0
  185.7910  178.1450  144.8380 C   0  0  1  0  0  3  0  0  0  0  0  0
  187.8010  177.5170  142.8540 C   0  0  1  0  0  3  0  0  0  0  0  0
  188.5760  179.0030  139.7320 O   0  0  0  0  0  0  0  0  0  0  0  0
  188.7260  177.8210  141.7730 N   0  0  0  0  0  0  0  0  0  0  0  0
  192.0140  177.1140  140.7380 C   0  0  0  0  0  2  0  0  0  0  0  0
  191.0450  179.1310  143.2190 C   0  0  0  0  0  1  0  0  0  0  0  0
  184.2540  179.2540  143.0810 C   0  0  0  0  0  2  0  0  0  0  0  0
  185.6970  178.8960  143.4970 C   0  0  2  0  0  3  0  0  0  0  0  0
  190.7660  177.7240  143.7420 C   0  0  2  0  0  3  0  0  0  0  0  0
  188.3050  176.5780  147.7070 C   0  0  0  0  0  2  0  0  0  0  0  0
  187.9300  178.1210  149.4600 F   0  0  0  0  0  0  0  0  0  0  0  0
  187.5580  176.8760  148.9910 C   0  0  0  0  0  2  0  0  0  0  0  0
  1  5  1  1  0  0  0
  2 16  1  0  0  0  0
  4 12  1  1  0  0  0
  4  1  1  0  0  0  0
  5 11  1  0  0  0  0
  7 15  1  6  0  0  0
  7 27  1  0  0  0  0
  8  6  2  0  0  0  0
  8 11  1  0  0  0  0
  9 14  1  6  0  0  0
  9 22  1  0  0  0  0
  9  7  1  0  0  0  0
 10  3  1  0  0  0  0
 10 22  1  0  0  0  0
 11 28  1  6  0  0  0
 12  8  1  0  0  0  0
 13  2  2  0  0  0  0
 14 23  1  0  0  0  0
 17  3  1  6  0  0  0
 17 20  1  0  0  0  0
 17 26  1  0  0  0  0
 18 13  1  0  0  0  0
 19  1  1  0  0  0  0
 19  2  1  1  0  0  0
 20 22  1  6  0  0  0
 20  4  1  0  0  0  0
 21 10  2  0  0  0  0
 23 15  1  0  0  0  0
 25 18  1  0  0  0  0
 26 25  1  6  0  0  0
 26 19  1  0  0  0  0
 27 24  1  6  0  0  0
 27 12  1  0  0  0  0
 28 30  1  0  0  0  0
 30 29  1  0  0  0  0
M  END
>  <MODEL>
4

>  <REMARK>
 VINA RESULT:      -8.4      2.542      6.734
  Name = 
  2 active torsions:
  status: ('A' for Active; 'I' for Inactive)
    1  A    between atoms: C_11  and  C_28
    2  A    between atoms: C_28  and  C_30
                            x       y       z     vdW  Elec       q    Type
                         _______ _______ _______ _____ _____    ______ ____

>  <TORSDO>
F 2

$$$$
=
 OpenBabel11122410243D

 30 35  0  0  1  0  0  0  0  0999 V2000
  188.3490  177.4900  142.9540 C   0  0  1  0  0  3  0  0  0  0  0  0
  187.4350  177.8860  145.4220 C   0  0  0  0  0  0  0  0  0  0  0  0
  184.8330  179.3430  141.3160 C   0  0  0  0  0  2  0  0  0  0  0  0
  188.0880  178.0520  141.5470 C   0  0  1  0  0  3  0  0  0  0  0  0
  189.5980  177.9570  143.4020 O   0  0  0  0  0  0  0  0  0  0  0  0
  191.4250  177.0080  140.4760 O   0  0  0  0  0  0  0  0  0  0  0  0
  188.0910  177.0120  138.4530 C   0  0  1  0  0  3  0  0  0  0  0  0
  190.4390  177.2770  141.2140 C   0  0  0  0  0  0  0  0  0  0  0  0
  186.6300  177.4710  138.5690 C   0  0  2  0  0  3  0  0  0  0  0  0
  185.2990  179.1820  139.9290 C   0  0  0  0  0  0  0  0  0  0  0  0
  190.6090  177.2370  142.7140 C   0  0  2  0  0  3  0  0  0  0  0  0
  189.1580  177.6010  140.6380 N   0  0  0  0  0  0  0  0  0  0  0  0
  186.3820  178.1050  146.2180 C   0  0  0  0  0  3  0  0  0  0  0  0
  186.3880  178.2160  137.3000 C   0  0  0  0  0  2  0  0  0  0  0  0
  188.3790  177.0550  136.9570 C   0  0  0  0  0  2  0  0  0  0  0  0
  188.7840  177.7490  146.0460 C   0  0  0  0  0  1  0  0  0  0  0  0
  185.5820  178.2420  142.0600 C   0  0  1  0  0  3  0  0  0  0  0  0
  185.0060  178.2100  145.6250 C   0  0  0  0  0  2  0  0  0  0  0  0
  187.1850  177.7670  143.9310 C   0  0  1  0  0  3  0  0  0  0  0  0
  186.6650  177.6810  141.0870 C   0  0  1  0  0  3  0  0  0  0  0  0
  184.7950  179.8170  138.9660 O   0  0  0  0  0  0  0  0  0  0  0  0
  186.3690  178.2550  139.7820 N   0  0  0  0  0  0  0  0  0  0  0  0
  187.3420  177.9740  136.4120 C   0  0  0  0  0  2  0  0  0  0  0  0
  189.0470  179.3800  138.9170 C   0  0  0  0  0  1  0  0  0  0  0  0
  185.0280  179.1170  144.3890 C   0  0  0  0  0  2  0  0  0  0  0  0
  186.1500  178.7690  143.3870 C   0  0  2  0  0  3  0  0  0  0  0  0
  189.1210  177.8810  139.2020 C   0  0  2  0  0  3  0  0  0  0  0  0
  190.7410  175.8030  143.2190 C   0  0  0  0  0  2  0  0  0  0  0  0
  192.4310  174.5910  144.3480 F   0  0  0  0  0  0  0  0  0  0  0  0
  191.6800  175.7490  144.4070 C   0  0  0  0  0  2  0  0  0  0  0  0
  1  5  1  1  0  0  0
  1 19  1  0  0  0  0
  2 16  1  0  0  0  0
  2 13  2  0  0  0  0
  4 12  1  6  0  0  0
  4  1  1  0  0  0  0
  6  8  2  0  0  0  0
  7 15  1  6  0  0  0
  7  9  1  0  0  0  0
  7 27  1  0  0  0  0
  8 11  1  0  0  0  0
  9 14  1  6  0  0  0
  9 22  1  0  0  0  0
 10  3  1  0  0  0  0
 11 28  1  1  0  0  0
 11  5  1  0  0  0  0
 12  8  1  0  0  0  0
 17  3  1  6  0  0  0
 17 26  1  0  0  0  0
 18 13  1  0  0  0  0
 19  2  1  1  0  0  0
 20 22  1  6  0  0  0
 20  4  1  0  0  0  0
 20 17  1  0  0  0  0
 21 10  2  0  0  0  0
 22 10  1  0  0  0  0
 23 15  1  0  0  0  0
 23 14  1  0  0  0  0
 25 18  1  0  0  0  0
 26 19  1  0  0  0  0
 26 25  1  1  0  0  0
 27 24  1  1  0  0  0
 27 12  1  0  0  0  0
 28 30  1  0  0  0  0
 29 30  1  0  0  0  0
M  END
>  <MODEL>
5

>  <REMARK>
 VINA RESULT:      -7.9      2.326      5.242
  Name = 
  2 active torsions:
  status: ('A' for Active; 'I' for Inactive)
    1  A    between atoms: C_11  and  C_28
    2  A    between atoms: C_28  and  C_30
                            x       y       z     vdW  Elec       q    Type
                         _______ _______ _______ _____ _____    ______ ____

>  <TORSDO>
F 2

$$$$
=
 OpenBabel11122410243D

 30 35  0  0  1  0  0  0  0  0999 V2000
  184.8550  178.7950  140.8830 C   0  0  1  0  0  3  0  0  0  0  0  0
  183.8090  178.9250  143.3270 C   0  0  0  0  0  0  0  0  0  0  0  0
  188.5280  177.2540  142.4990 C   0  0  0  0  0  2  0  0  0  0  0  0
  186.0160  178.0670  140.1860 C   0  0  1  0  0  3  0  0  0  0  0  0
  183.6420  178.2220  140.4560 O   0  0  0  0  0  0  0  0  0  0  0  0
  184.3450  178.4250  136.9540 O   0  0  0  0  0  0  0  0  0  0  0  0
  188.1520  178.6040  137.7780 C   0  0  1  0  0  3  0  0  0  0  0  0
  184.5470  178.4220  138.1980 C   0  0  0  0  0  0  0  0  0  0  0  0
  189.1280  178.3910  138.9460 C   0  0  2  0  0  3  0  0  0  0  0  0
  189.1500  177.1280  141.1700 C   0  0  0  0  0  0  0  0  0  0  0  0
  183.3870  178.6680  139.1330 C   0  0  2  0  0  3  0  0  0  0  0  0
  185.8710  178.2080  138.7260 N   0  0  0  0  0  0  0  0  0  0  0  0
  184.0190  178.9910  144.6460 C   0  0  0  0  0  3  0  0  0  0  0  0
  190.1810  177.5030  138.3720 C   0  0  0  0  0  2  0  0  0  0  0  0
  188.9790  178.2880  136.5370 C   0  0  0  0  0  2  0  0  0  0  0  0
  182.4030  178.9550  142.8270 C   0  0  0  0  0  1  0  0  0  0  0  0
  187.4720  178.3340  142.2820 C   0  0  1  0  0  3  0  0  0  0  0  0
  185.4240  179.0010  145.1800 C   0  0  0  0  0  2  0  0  0  0  0  0
  185.0200  178.8480  142.4180 C   0  0  1  0  0  3  0  0  0  0  0  0
  187.3620  178.5700  140.7430 C   0  0  1  0  0  3  0  0  0  0  0  0
  190.1810  176.4340  140.9670 O   0  0  0  0  0  0  0  0  0  0  0  0
  188.4780  177.8520  140.1460 N   0  0  0  0  0  0  0  0  0  0  0  0
  190.1060  177.4600  137.0500 C   0  0  0  0  0  2  0  0  0  0  0  0
  187.1430  176.2210  137.9690 C   0  0  0  0  0  1  0  0  0  0  0  0
  186.2620  177.9210  144.4870 C   0  0  0  0  0  2  0  0  0  0  0  0
  186.1440  177.9390  142.9480 C   0  0  2  0  0  3  0  0  0  0  0  0
  186.8920  177.7180  137.7980 C   0  0  2  0  0  3  0  0  0  0  0  0
  182.9420  180.1280  139.0940 C   0  0  0  0  0  2  0  0  0  0  0  0
  181.5550  179.9660  137.1830 F   0  0  0  0  0  0  0  0  0  0  0  0
  181.5360  180.2320  138.5390 C   0  0  0  0  0  2  0  0  0  0  0  0
  1  5  1  1  0  0  0
  1 19  1  0  0  0  0
  2 13  2  0  0  0  0
  4 12  1  6  0  0  0
  4 20  1  0  0  0  0
  4  1  1  0  0  0  0
  6  8  2  0  0  0  0
  7 15  1  6  0  0  0
  7 27  1  0  0  0  0
  7  9  1  0  0  0  0
  8 12  1  0  0  0  0
  8 11  1  0  0  0  0
  9 14  1  6  0  0  0
  9 22  1  0  0  0  0
 10  3  1  0  0  0  0
 11 28  1  1  0  0  0
 11  5  1  0  0  0  0
 13 18  1  0  0  0  0
 15 23  1  0  0  0  0
 16  2  1  0  0  0  0
 17  3  1  6  0  0  0
 17 26  1  0  0  0  0
 19 26  1  0  0  0  0
 19  2  1  1  0  0  0
 20 22  1  6  0  0  0
 20 17  1  0  0  0  0
 21 10  2  0  0  0  0
 22 10  1  0  0  0  0
 23 14  1  0  0  0  0
 25 18  1  0  0  0  0
 26 25  1  1  0  0  0
 27 24  1  1  0  0  0
 27 12  1  0  0  0  0
 29 30  1  0  0  0  0
 30 28  1  0  0  0  0
M  END
>  <MODEL>
6

>  <REMARK>
 VINA RESULT:      -7.8      3.452      6.824
  Name = 
  2 active torsions:
  status: ('A' for Active; 'I' for Inactive)
    1  A    between atoms: C_11  and  C_28
    2  A    between atoms: C_28  and  C_30
                            x       y       z     vdW  Elec       q    Type
                         _______ _______ _______ _____ _____    ______ ____

>  <TORSDO>
F 2

$$$$
=
 OpenBabel11122410243D

 30 35  0  0  1  0  0  0  0  0999 V2000
  188.4930  177.5500  144.1360 C   0  0  1  0  0  3  0  0  0  0  0  0
  189.8720  177.3540  146.4030 C   0  0  0  0  0  0  0  0  0  0  0  0
  184.9990  178.7660  146.3240 C   0  0  0  0  0  2  0  0  0  0  0  0
  187.2080  178.2390  143.6480 C   0  0  1  0  0  3  0  0  0  0  0  0
  189.6010  178.2190  143.5850 O   0  0  0  0  0  0  0  0  0  0  0  0
  188.4330  178.1620  140.2040 O   0  0  0  0  0  0  0  0  0  0  0  0
  184.7930  177.6990  141.5210 C   0  0  1  0  0  3  0  0  0  0  0  0
  188.4060  178.0850  141.4620 C   0  0  0  0  0  0  0  0  0  0  0  0
  183.9770  177.7870  142.8200 C   0  0  2  0  0  3  0  0  0  0  0  0
  184.1930  178.9240  145.1020 C   0  0  0  0  0  0  0  0  0  0  0  0
  189.6960  177.8620  142.2150 C   0  0  2  0  0  3  0  0  0  0  0  0
  187.1580  178.1870  142.1760 N   0  0  0  0  0  0  0  0  0  0  0  0
  189.8500  177.2040  147.7320 C   0  0  0  0  0  3  0  0  0  0  0  0
  182.8080  178.6370  142.4500 C   0  0  0  0  0  2  0  0  0  0  0  0
  183.7860  178.0290  140.4250 C   0  0  0  0  0  2  0  0  0  0  0  0
  191.1950  177.4400  145.7180 C   0  0  0  0  0  1  0  0  0  0  0  0
  186.0730  177.7690  145.9000 C   0  0  1  0  0  3  0  0  0  0  0  0
  188.5350  177.0760  148.4480 C   0  0  0  0  0  2  0  0  0  0  0  0
  188.5450  177.4040  145.6720 C   0  0  1  0  0  3  0  0  0  0  0  0
  185.9820  177.6230  144.3490 C   0  0  1  0  0  3  0  0  0  0  0  0
  183.1080  179.5620  145.0830 O   0  0  0  0  0  0  0  0  0  0  0  0
  184.7560  178.3010  143.9530 N   0  0  0  0  0  0  0  0  0  0  0  0
  182.6970  178.7550  141.1350 C   0  0  0  0  0  2  0  0  0  0  0  0
  185.6860  180.1280  141.7210 C   0  0  0  0  0  1  0  0  0  0  0  0
  187.5510  178.1370  147.9430 C   0  0  0  0  0  2  0  0  0  0  0  0
  187.4560  178.2100  146.4040 C   0  0  2  0  0  3  0  0  0  0  0  0
  185.9930  178.6610  141.4260 C   0  0  2  0  0  3  0  0  0  0  0  0
  190.2100  176.4380  142.0250 C   0  0  0  0  0  2  0  0  0  0  0  0
  191.5450  175.2680  143.5900 F   0  0  0  0  0  0  0  0  0  0  0  0
  191.5790  176.2870  142.6570 C   0  0  0  0  0  2  0  0  0  0  0  0
  1  5  1  1  0  0  0
  1 19  1  0  0  0  0
  2 13  2  0  0  0  0
  4 12  1  6  0  0  0
  4  1  1  0  0  0  0
  4 20  1  0  0  0  0
  6  8  2  0  0  0  0
  7 15  1  6  0  0  0
  7  9  1  0  0  0  0
  8 12  1  0  0  0  0
  8 11  1  0  0  0  0
  9 14  1  6  0  0  0
  9 22  1  0  0  0  0
 10  3  1  0  0  0  0
 11 28  1  1  0  0  0
 11  5  1  0  0  0  0
 13 18  1  0  0  0  0
 15 23  1  0  0  0  0
 16  2  1  0  0  0  0
 17  3  1  6  0  0  0
 17 26  1  0  0  0  0
 19  2  1  1  0  0  0
 19 26  1  0  0  0  0
 20 22  1  6  0  0  0
 20 17  1  0  0  0  0
 21 10  2  0  0  0  0
 22 10  1  0  0  0  0
 23 14  1  0  0  0  0
 25 18  1  0  0  0  0
 26 25  1  1  0  0  0
 27  7  1  0  0  0  0
 27 24  1  1  0  0  0
 27 12  1  0  0  0  0
 28 30  1  0  0  0  0
 30 29  1  0  0  0  0
M  END
>  <MODEL>
7

>  <REMARK>
 VINA RESULT:      -7.6      1.476      2.104
  Name = 
  2 active torsions:
  status: ('A' for Active; 'I' for Inactive)
    1  A    between atoms: C_11  and  C_28
    2  A    between atoms: C_28  and  C_30
                            x       y       z     vdW  Elec       q    Type
                         _______ _______ _______ _____ _____    ______ ____

>  <TORSDO>
F 2

$$$$
=
 OpenBabel11122410243D

 30 35  0  0  1  0  0  0  0  0999 V2000
  189.1690  177.8000  141.5320 C   0  0  1  0  0  3  0  0  0  0  0  0
  189.8480  177.6560  138.9630 C   0  0  0  0  0  0  0  0  0  0  0  0
  185.0440  178.3370  140.4490 C   0  0  0  0  0  2  0  0  0  0  0  0
  187.8940  177.6430  142.3760 C   0  0  1  0  0  3  0  0  0  0  0  0
  189.9990  176.6860  141.7560 O   0  0  0  0  0  0  0  0  0  0  0  0
  189.9040  176.8580  145.3280 O   0  0  0  0  0  0  0  0  0  0  0  0
  186.5840  178.8890  145.0930 C   0  0  1  0  0  3  0  0  0  0  0  0
  189.5790  177.0710  144.1290 C   0  0  0  0  0  0  0  0  0  0  0  0
  185.4940  179.2750  144.0820 C   0  0  2  0  0  3  0  0  0  0  0  0
  184.6020  178.3920  141.8520 C   0  0  0  0  0  0  0  0  0  0  0  0
  190.5930  176.8290  143.0360 C   0  0  2  0  0  3  0  0  0  0  0  0
  188.2620  177.5570  143.8010 N   0  0  0  0  0  0  0  0  0  0  0  0
  189.5390  177.9400  137.6930 C   0  0  0  0  0  3  0  0  0  0  0  0
  184.2210  178.9370  144.7830 C   0  0  0  0  0  2  0  0  0  0  0  0
  185.8620  178.8820  146.4360 C   0  0  0  0  0  2  0  0  0  0  0  0
  191.1430  176.9720  139.2450 C   0  0  0  0  0  1  0  0  0  0  0  0
  186.5060  178.7640  140.5330 C   0  0  1  0  0  3  0  0  0  0  0  0
  188.2600  178.6630  137.3780 C   0  0  0  0  0  2  0  0  0  0  0  0
  188.8670  178.0720  140.0420 C   0  0  1  0  0  3  0  0  0  0  0  0
  186.8990  178.7720  142.0430 C   0  0  1  0  0  3  0  0  0  0  0  0
  183.3980  178.2490  142.1900 O   0  0  0  0  0  0  0  0  0  0  0  0
  185.6560  178.6110  142.7830 N   0  0  0  0  0  0  0  0  0  0  0  0
  184.4240  178.7380  146.0770 C   0  0  0  0  0  2  0  0  0  0  0  0
  186.2940  176.3420  144.6880 C   0  0  0  0  0  1  0  0  0  0  0  0
  187.0950  178.0450  138.1600 C   0  0  0  0  0  2  0  0  0  0  0  0
  187.3900  177.8560  139.6640 C   0  0  2  0  0  3  0  0  0  0  0  0
  187.2510  177.5200  144.8590 C   0  0  2  0  0  3  0  0  0  0  0  0
  191.6850  177.8950  143.0480 C   0  0  0  0  0  2  0  0  0  0  0  0
  190.9070  179.9980  143.8030 F   0  0  0  0  0  0  0  0  0  0  0  0
  191.4970  178.8250  144.2300 C   0  0  0  0  0  2  0  0  0  0  0  0
  1  5  1  6  0  0  0
  1  4  1  0  0  0  0
  2 16  1  0  0  0  0
  3 10  1  0  0  0  0
  4 12  1  1  0  0  0
  5 11  1  0  0  0  0
  7 15  1  1  0  0  0
  8  6  2  0  0  0  0
  9 14  1  1  0  0  0
  9  7  1  0  0  0  0
 10 21  2  0  0  0  0
 10 22  1  0  0  0  0
 11 28  1  6  0  0  0
 11  8  1  0  0  0  0
 12  8  1  0  0  0  0
 12 27  1  0  0  0  0
 13  2  2  0  0  0  0
 14 23  1  0  0  0  0
 17  3  1  1  0  0  0
 17 20  1  0  0  0  0
 18 13  1  0  0  0  0
 18 25  1  0  0  0  0
 19  2  1  6  0  0  0
 19  1  1  0  0  0  0
 20  4  1  0  0  0  0
 20 22  1  1  0  0  0
 22  9  1  0  0  0  0
 23 15  1  0  0  0  0
 26 25  1  6  0  0  0
 26 19  1  0  0  0  0
 26 17  1  0  0  0  0
 27 24  1  6  0  0  0
 27  7  1  0  0  0  0
 28 30  1  0  0  0  0
 29 30  1  0  0  0  0
M  END
>  <MODEL>
8

>  <REMARK>
 VINA RESULT:      -7.4      2.120      4.972
  Name = 
  2 active torsions:
  status: ('A' for Active; 'I' for Inactive)
    1  A    between atoms: C_11  and  C_28
    2  A    between atoms: C_28  and  C_30
                            x       y       z     vdW  Elec       q    Type
                         _______ _______ _______ _____ _____    ______ ____

>  <TORSDO>
F 2

$$$$
=
 OpenBabel11122410243D

 30 35  0  0  1  0  0  0  0  0999 V2000
  187.8000  178.1350  142.0860 C   0  0  1  0  0  3  0  0  0  0  0  0
  188.8640  177.5780  144.4610 C   0  0  0  0  0  0  0  0  0  0  0  0
  191.2400  176.4730  140.1150 C   0  0  0  0  0  2  0  0  0  0  0  0
  187.9850  177.6820  140.6280 C   0  0  1  0  0  3  0  0  0  0  0  0
  186.5860  177.6140  142.5700 O   0  0  0  0  0  0  0  0  0  0  0  0
  184.5750  178.7370  139.8330 O   0  0  0  0  0  0  0  0  0  0  0  0
  187.7830  178.9430  137.6250 C   0  0  1  0  0  3  0  0  0  0  0  0
  185.6070  178.4330  140.4910 C   0  0  0  0  0  0  0  0  0  0  0  0
  189.2560  178.5040  137.6220 C   0  0  2  0  0  3  0  0  0  0  0  0
  190.6890  176.7260  138.7730 C   0  0  0  0  0  0  0  0  0  0  0  0
  185.5260  178.3610  141.9970 C   0  0  2  0  0  3  0  0  0  0  0  0
  186.8560  178.1770  139.8190 N   0  0  0  0  0  0  0  0  0  0  0  0
  189.9660  177.3230  145.1760 C   0  0  0  0  0  3  0  0  0  0  0  0
  189.4320  177.8580  136.2890 C   0  0  0  0  0  2  0  0  0  0  0  0
  187.4080  179.0030  136.1490 C   0  0  0  0  0  2  0  0  0  0  0  0
  187.5530  177.6440  145.1700 C   0  0  0  0  0  1  0  0  0  0  0  0
  190.5190  177.5030  140.9800 C   0  0  1  0  0  3  0  0  0  0  0  0
  191.3060  177.2870  144.4980 C   0  0  0  0  0  2  0  0  0  0  0  0
  189.0230  177.8100  142.9710 C   0  0  1  0  0  3  0  0  0  0  0  0
  189.3730  178.1120  140.1150 C   0  0  1  0  0  3  0  0  0  0  0  0
  191.1440  176.1720  137.7380 O   0  0  0  0  0  0  0  0  0  0  0  0
  189.5990  177.6400  138.7570 N   0  0  0  0  0  0  0  0  0  0  0  0
  188.4240  178.1460  135.4790 C   0  0  0  0  0  2  0  0  0  0  0  0
  186.8920  176.5300  137.9690 C   0  0  0  0  0  1  0  0  0  0  0  0
  191.2230  176.4720  143.2030 C   0  0  0  0  0  2  0  0  0  0  0  0
  190.0390  176.8700  142.2950 C   0  0  2  0  0  3  0  0  0  0  0  0
  186.8130  178.0030  138.3660 C   0  0  2  0  0  3  0  0  0  0  0  0
  185.4030  179.7530  142.6130 C   0  0  0  0  0  2  0  0  0  0  0  0
  184.0160  178.4330  144.0030 F   0  0  0  0  0  0  0  0  0  0  0  0
  184.5550  179.6980  143.8680 C   0  0  0  0  0  2  0  0  0  0  0  0
  1  5  1  1  0  0  0
  1 19  1  0  0  0  0
  2 16  1  0  0  0  0
  2 13  2  0  0  0  0
  4 12  1  6  0  0  0
  4  1  1  0  0  0  0
  6  8  2  0  0  0  0
  7 15  1  6  0  0  0
  7 27  1  0  0  0  0
  8 11  1  0  0  0  0
  9 14  1  6  0  0  0
  9  7  1  0  0  0  0
  9 22  1  0  0  0  0
 10  3  1  0  0  0  0
 11  5  1  0  0  0  0
 11 28  1  1  0  0  0
 12  8  1  0  0  0  0
 17  3  1  6  0  0  0
 17 26  1  0  0  0  0
 18 13  1  0  0  0  0
 19  2  1  1  0  0  0
 20 22  1  6  0  0  0
 20  4  1  0  0  0  0
 20 17  1  0  0  0  0
 21 10  2  0  0  0  0
 22 10  1  0  0  0  0
 23 15  1  0  0  0  0
 23 14  1  0  0  0  0
 25 18  1  0  0  0  0
 26 19  1  0  0  0  0
 26 25  1  1  0  0  0
 27 24  1  1  0  0  0
 27 12  1  0  0  0  0
 28 30  1  0  0  0  0
 30 29  1  0  0  0  0
M  END
>  <MODEL>
9

>  <REMARK>
 VINA RESULT:      -7.4      2.971      6.177
  Name = 
  2 active torsions:
  status: ('A' for Active; 'I' for Inactive)
    1  A    between atoms: C_11  and  C_28
    2  A    between atoms: C_28  and  C_30
                            x       y       z     vdW  Elec       q    Type
                         _______ _______ _______ _____ _____    ______ ____

>  <TORSDO>
F 2

$$$$
