=
 OpenBabel11122411513D

 28 32  0  0  1  0  0  0  0  0999 V2000
  181.3480  176.4000  137.2240 C   0  0  0  0  0  0  0  0  0  0  0  0
  185.6740  178.1750  138.9070 O   0  0  0  0  0  0  0  0  0  0  0  0
  179.1360  181.1590  140.8830 O   0  0  0  0  0  0  0  0  0  0  0  0
  183.6270  174.8060  137.5740 C   0  0  0  0  0  3  0  0  0  0  0  0
  180.3480  179.3640  141.7960 N   0  0  0  0  0  0  0  0  0  0  0  0
  180.0710  177.1360  137.0030 C   0  0  0  0  0  2  0  0  0  0  0  0
  184.4540  180.3130  139.0940 O   0  0  0  0  0  0  0  0  0  0  0  0
  184.7590  179.0030  139.7640 S   0  0  0  0  0  0  0  0  0  0  0  0
  184.7340  178.9670  142.5190 C   0  0  0  0  0  0  0  0  0  0  0  0
  183.2730  178.1150  140.1210 C   0  0  1  0  0  3  0  0  0  0  0  0
  179.4740  180.7930  136.7600 O   0  0  0  0  0  1  0  0  0  0  0  0
  180.8780  178.2180  139.7750 C   0  0  1  0  0  3  0  0  0  0  0  0
  183.3750  178.6120  142.4630 O   0  0  0  0  0  0  0  0  0  0  0  0
  185.4710  179.2740  141.3230 N   0  0  0  0  0  2  0  0  0  0  0  0
  179.1900  179.4610  137.0660 C   0  0  2  0  0  3  0  0  0  0  0  0
  182.3090  176.7720  138.2050 C   0  0  0  0  0  0  0  0  0  0  0  0
  179.8100  180.1060  140.7220 C   0  0  0  0  0  0  0  0  0  0  0  0
  185.3180  179.0040  143.6330 O   0  0  0  0  0  0  0  0  0  0  0  0
  178.9310  179.3100  138.5680 C   0  0  0  0  0  2  0  0  0  0  0  0
  183.4510  175.9550  138.3450 C   0  0  0  0  0  3  0  0  0  0  0  0
  181.5350  175.2410  136.4610 C   0  0  0  0  0  3  0  0  0  0  0  0
  182.6690  174.4490  136.6300 C   0  0  0  0  0  3  0  0  0  0  0  0
  180.3220  178.5700  136.5720 C   0  0  0  0  0  2  0  0  0  0  0  0
  181.2140  178.3220  141.2830 C   0  0  1  0  0  3  0  0  0  0  0  0
  180.1830  179.5500  139.4030 C   0  0  2  0  0  3  0  0  0  0  0  0
  182.6360  178.8240  141.2660 C   0  0  2  0  0  3  0  0  0  0  0  0
  180.2840  179.7640  143.1920 C   0  0  0  0  0  1  0  0  0  0  0  0
  182.2170  178.0680  139.0190 C   0  0  2  0  0  3  0  0  0  0  0  0
  1 16  1  0  0  0  0
  2  8  2  0  0  0  0
  4 20  1  0  0  0  0
  5 27  1  0  0  0  0
  6  1  1  0  0  0  0
  7  8  2  0  0  0  0
  8 14  1  0  0  0  0
  9 18  2  0  0  0  0
 10  8  1  6  0  0  0
 10 26  1  0  0  0  0
 11 15  1  0  0  0  0
 12 24  1  0  0  0  0
 13  9  1  0  0  0  0
 14  9  1  0  0  0  0
 15 19  1  0  0  0  0
 16 20  2  0  0  0  0
 16 28  1  0  0  0  0
 17  3  2  0  0  0  0
 17  5  1  0  0  0  0
 19 25  1  0  0  0  0
 21 22  1  0  0  0  0
 21  1  2  0  0  0  0
 22  4  2  0  0  0  0
 23  6  1  0  0  0  0
 23 15  1  0  0  0  0
 24  5  1  0  0  0  0
 25 12  1  0  0  0  0
 25 17  1  0  0  0  0
 26 24  1  0  0  0  0
 26 13  1  0  0  0  0
 28 12  1  0  0  0  0
 28 10  1  0  0  0  0
M  END
>  <MODEL>
1

>  <REMARK>
 VINA RESULT:      -6.2      0.000      0.000
  Name = 
  0 active torsions:
  status: ('A' for Active; 'I' for Inactive)
                            x       y       z     vdW  Elec       q    Type
                         _______ _______ _______ _____ _____    ______ ____

>  <TORSDO>
F 0

$$$$
=
 OpenBabel11122411513D

 28 32  0  0  1  0  0  0  0  0999 V2000
  190.5460  177.1220  140.1710 C   0  0  0  0  0  0  0  0  0  0  0  0
  187.2980  179.0390  136.9350 O   0  0  0  0  0  0  0  0  0  0  0  0
  191.8870  173.4610  135.0990 O   0  0  0  0  0  0  0  0  0  0  0  0
  188.1020  178.2570  140.9430 C   0  0  0  0  0  3  0  0  0  0  0  0
  189.7640  173.4400  136.1070 N   0  0  0  0  0  0  0  0  0  0  0  0
  191.8660  176.4880  139.8900 C   0  0  0  0  0  2  0  0  0  0  0  0
  188.9180  178.2940  135.2280 O   0  0  0  0  0  0  0  0  0  0  0  0
  187.7670  177.8820  136.1020 S   0  0  0  0  0  0  0  0  0  0  0  0
  186.1400  175.8660  135.1610 C   0  0  0  0  0  0  0  0  0  0  0  0
  188.2140  176.5160  137.1330 C   0  0  1  0  0  3  0  0  0  0  0  0
  193.9390  176.6380  136.8140 O   0  0  0  0  0  1  0  0  0  0  0  0
  190.1170  175.1450  137.7350 C   0  0  1  0  0  3  0  0  0  0  0  0
  186.9650  174.9430  135.8270 O   0  0  0  0  0  0  0  0  0  0  0  0
  186.4650  177.2670  135.1330 N   0  0  0  0  0  2  0  0  0  0  0  0
  193.4020  176.0840  137.9770 C   0  0  2  0  0  3  0  0  0  0  0  0
  189.4560  177.1070  139.2570 C   0  0  0  0  0  0  0  0  0  0  0  0
  191.0780  173.9270  135.9470 C   0  0  0  0  0  0  0  0  0  0  0  0
  185.0920  175.4620  134.5940 O   0  0  0  0  0  0  0  0  0  0  0  0
  192.6300  174.8030  137.6420 C   0  0  0  0  0  2  0  0  0  0  0  0
  188.2450  177.6990  139.6730 C   0  0  0  0  0  3  0  0  0  0  0  0
  190.3870  177.6820  141.4450 C   0  0  0  0  0  3  0  0  0  0  0  0
  189.1750  178.2500  141.8300 C   0  0  0  0  0  3  0  0  0  0  0  0
  192.5420  177.1200  138.6870 C   0  0  0  0  0  2  0  0  0  0  0  0
  189.0360  174.2930  137.0250 C   0  0  1  0  0  3  0  0  0  0  0  0
  191.3710  175.0780  136.8290 C   0  0  2  0  0  3  0  0  0  0  0  0
  188.2720  175.3270  136.2370 C   0  0  2  0  0  3  0  0  0  0  0  0
  189.1480  172.4270  135.2660 C   0  0  0  0  0  1  0  0  0  0  0  0
  189.5760  176.5900  137.8190 C   0  0  2  0  0  3  0  0  0  0  0  0
  1 21  1  0  0  0  0
  3 17  2  0  0  0  0
  4 22  1  0  0  0  0
  5 24  1  0  0  0  0
  6  1  1  0  0  0  0
  7  8  2  0  0  0  0
  8  2  2  0  0  0  0
  9 13  1  0  0  0  0
 10  8  1  6  0  0  0
 10 28  1  0  0  0  0
 11 15  1  0  0  0  0
 12 28  1  0  0  0  0
 13 26  1  0  0  0  0
 14  9  1  0  0  0  0
 14  8  1  0  0  0  0
 15 23  1  0  0  0  0
 16 20  1  0  0  0  0
 16  1  2  0  0  0  0
 17  5  1  0  0  0  0
 17 25  1  0  0  0  0
 18  9  2  0  0  0  0
 19 15  1  0  0  0  0
 20  4  2  0  0  0  0
 21 22  2  0  0  0  0
 23  6  1  0  0  0  0
 24 12  1  0  0  0  0
 25 19  1  0  0  0  0
 25 12  1  0  0  0  0
 26 24  1  0  0  0  0
 26 10  1  0  0  0  0
 27  5  1  0  0  0  0
 28 16  1  0  0  0  0
M  END
>  <MODEL>
2

>  <REMARK>
 VINA RESULT:      -5.8      6.549     10.370
  Name = 
  0 active torsions:
  status: ('A' for Active; 'I' for Inactive)
                            x       y       z     vdW  Elec       q    Type
                         _______ _______ _______ _____ _____    ______ ____

>  <TORSDO>
F 0

$$$$
=
 OpenBabel11122411513D

 28 32  0  0  1  0  0  0  0  0999 V2000
  181.8350  177.9310  135.3520 C   0  0  0  0  0  0  0  0  0  0  0  0
  181.4340  178.4670  140.2770 O   0  0  0  0  0  0  0  0  0  0  0  0
  187.1640  174.8780  137.1420 O   0  0  0  0  0  0  0  0  0  0  0  0
  180.5510  180.1120  136.5570 C   0  0  0  0  0  3  0  0  0  0  0  0
  186.8400  177.1610  137.5970 N   0  0  0  0  0  0  0  0  0  0  0  0
  182.4950  176.8310  134.5940 C   0  0  0  0  0  2  0  0  0  0  0  0
  182.7500  176.3810  140.3740 O   0  0  0  0  0  0  0  0  0  0  0  0
  182.8140  177.8760  140.2410 S   0  0  0  0  0  0  0  0  0  0  0  0
  185.0780  179.1240  141.1970 C   0  0  0  0  0  0  0  0  0  0  0  0
  183.6500  178.3430  138.7540 C   0  0  1  0  0  3  0  0  0  0  0  0
  183.5170  173.4560  135.7550 O   0  0  0  0  0  1  0  0  0  0  0  0
  184.6230  177.3890  136.7530 C   0  0  1  0  0  3  0  0  0  0  0  0
  185.6420  178.9940  139.9160 O   0  0  0  0  0  0  0  0  0  0  0  0
  183.7940  178.5530  141.5030 N   0  0  0  0  0  2  0  0  0  0  0  0
  183.5810  174.6330  135.0070 C   0  0  2  0  0  3  0  0  0  0  0  0
  182.2380  178.3390  136.6550 C   0  0  0  0  0  0  0  0  0  0  0  0
  186.4220  175.8970  137.1290 C   0  0  0  0  0  0  0  0  0  0  0  0
  185.7000  179.7620  142.0850 O   0  0  0  0  0  0  0  0  0  0  0  0
  184.9090  175.3500  135.2690 C   0  0  0  0  0  2  0  0  0  0  0  0
  181.5610  179.4320  137.2360 C   0  0  0  0  0  3  0  0  0  0  0  0
  180.8230  178.6270  134.6800 C   0  0  0  0  0  3  0  0  0  0  0  0
  180.1810  179.7090  135.2780 C   0  0  0  0  0  3  0  0  0  0  0  0
  182.3710  175.5030  135.3180 C   0  0  0  0  0  2  0  0  0  0  0  0
  185.7140  178.0710  137.6150 C   0  0  1  0  0  3  0  0  0  0  0  0
  185.0090  175.8910  136.6900 C   0  0  2  0  0  3  0  0  0  0  0  0
  185.0940  178.0630  138.9900 C   0  0  2  0  0  3  0  0  0  0  0  0
  188.1190  177.4250  138.2370 C   0  0  0  0  0  1  0  0  0  0  0  0
  183.2770  177.5790  137.4860 C   0  0  2  0  0  3  0  0  0  0  0  0
  1 16  1  0  0  0  0
  4 20  1  0  0  0  0
  5 24  1  0  0  0  0
  5 27  1  0  0  0  0
  6 23  1  0  0  0  0
  6  1  1  0  0  0  0
  8  2  2  0  0  0  0
  8  7  2  0  0  0  0
  8 14  1  0  0  0  0
  9 14  1  0  0  0  0
  9 18  2  0  0  0  0
 10 26  1  0  0  0  0
 10  8  1  1  0  0  0
 12 28  1  0  0  0  0
 12 24  1  0  0  0  0
 13  9  1  0  0  0  0
 15 19  1  0  0  0  0
 15 23  1  0  0  0  0
 15 11  1  0  0  0  0
 16 20  2  0  0  0  0
 16 28  1  0  0  0  0
 17  3  2  0  0  0  0
 17  5  1  0  0  0  0
 19 25  1  0  0  0  0
 21 22  1  0  0  0  0
 21  1  2  0  0  0  0
 22  4  2  0  0  0  0
 24 26  1  0  0  0  0
 25 12  1  0  0  0  0
 25 17  1  0  0  0  0
 26 13  1  0  0  0  0
 28 10  1  0  0  0  0
M  END
>  <MODEL>
3

>  <REMARK>
 VINA RESULT:      -5.7      2.729      5.534
  Name = 
  0 active torsions:
  status: ('A' for Active; 'I' for Inactive)
                            x       y       z     vdW  Elec       q    Type
                         _______ _______ _______ _____ _____    ______ ____

>  <TORSDO>
F 0

$$$$
=
 OpenBabel11122411513D

 28 32  0  0  1  0  0  0  0  0999 V2000
  186.7180  178.0680  139.1030 C   0  0  0  0  0  0  0  0  0  0  0  0
  187.5580  176.5610  143.7650 O   0  0  0  0  0  0  0  0  0  0  0  0
  192.6100  175.6890  138.3550 O   0  0  0  0  0  0  0  0  0  0  0  0
  185.5770  179.3080  141.3440 C   0  0  0  0  0  3  0  0  0  0  0  0
  192.1860  177.5030  139.7890 N   0  0  0  0  0  0  0  0  0  0  0  0
  187.2660  177.5030  137.8370 C   0  0  0  0  0  2  0  0  0  0  0  0
  189.0570  174.9080  142.7090 O   0  0  0  0  0  0  0  0  0  0  0  0
  188.9330  176.3190  143.2140 S   0  0  0  0  0  0  0  0  0  0  0  0
  191.2300  177.5220  144.1480 C   0  0  0  0  0  0  0  0  0  0  0  0
  189.3030  177.4820  141.9340 C   0  0  1  0  0  3  0  0  0  0  0  0
  188.8910  174.2200  137.2350 O   0  0  0  0  0  1  0  0  0  0  0  0
  189.8140  177.5940  139.5700 C   0  0  1  0  0  3  0  0  0  0  0  0
  191.4520  178.0150  142.8500 O   0  0  0  0  0  0  0  0  0  0  0  0
  190.1340  176.6340  144.4260 N   0  0  0  0  0  2  0  0  0  0  0  0
  188.6390  175.5810  137.0600 C   0  0  2  0  0  3  0  0  0  0  0  0
  187.4020  178.0110  140.3500 C   0  0  0  0  0  0  0  0  0  0  0  0
  191.7910  176.4640  138.9200 C   0  0  0  0  0  0  0  0  0  0  0  0
  191.9930  177.8760  145.0830 O   0  0  0  0  0  0  0  0  0  0  0  0
  189.9100  176.3910  137.3370 C   0  0  0  0  0  2  0  0  0  0  0  0
  186.7930  178.6330  141.4590 C   0  0  0  0  0  3  0  0  0  0  0  0
  185.5010  178.7530  139.0000 C   0  0  0  0  0  3  0  0  0  0  0  0
  184.9310  179.3670  140.1130 C   0  0  0  0  0  3  0  0  0  0  0  0
  187.4700  176.0030  137.9390 C   0  0  0  0  0  2  0  0  0  0  0  0
  191.0170  178.0900  140.4100 C   0  0  1  0  0  3  0  0  0  0  0  0
  190.3210  176.3470  138.8040 C   0  0  2  0  0  3  0  0  0  0  0  0
  190.7800  177.4270  141.7430 C   0  0  2  0  0  3  0  0  0  0  0  0
  193.5540  177.7470  140.2180 C   0  0  0  0  0  1  0  0  0  0  0  0
  188.6930  177.2110  140.5610 C   0  0  2  0  0  3  0  0  0  0  0  0
  1 16  1  0  0  0  0
  3 17  2  0  0  0  0
  4 20  1  0  0  0  0
  5 27  1  0  0  0  0
  5 24  1  0  0  0  0
  6 23  1  0  0  0  0
  6  1  1  0  0  0  0
  7  8  2  0  0  0  0
  8  2  2  0  0  0  0
  8 14  1  0  0  0  0
  9 14  1  0  0  0  0
  9 18  2  0  0  0  0
 10  8  1  1  0  0  0
 12 24  1  0  0  0  0
 12 28  1  0  0  0  0
 13  9  1  0  0  0  0
 15 11  1  0  0  0  0
 15 19  1  0  0  0  0
 15 23  1  0  0  0  0
 16 28  1  0  0  0  0
 16 20  2  0  0  0  0
 17  5  1  0  0  0  0
 19 25  1  0  0  0  0
 21  1  2  0  0  0  0
 21 22  1  0  0  0  0
 22  4  2  0  0  0  0
 24 26  1  0  0  0  0
 25 17  1  0  0  0  0
 25 12  1  0  0  0  0
 26 10  1  0  0  0  0
 26 13  1  0  0  0  0
 28 10  1  0  0  0  0
M  END
>  <MODEL>
4

>  <REMARK>
 VINA RESULT:      -5.4      5.813      8.816
  Name = 
  0 active torsions:
  status: ('A' for Active; 'I' for Inactive)
                            x       y       z     vdW  Elec       q    Type
                         _______ _______ _______ _____ _____    ______ ____

>  <TORSDO>
F 0

$$$$
=
 OpenBabel11122411513D

 28 32  0  0  1  0  0  0  0  0999 V2000
  181.6470  178.7270  142.8000 C   0  0  0  0  0  0  0  0  0  0  0  0
  179.6800  182.0040  139.6230 O   0  0  0  0  0  0  0  0  0  0  0  0
  185.6020  177.8390  137.8510 O   0  0  0  0  0  0  0  0  0  0  0  0
  178.9310  179.4190  142.7980 C   0  0  0  0  0  3  0  0  0  0  0  0
  183.3010  177.3940  137.6840 N   0  0  0  0  0  0  0  0  0  0  0  0
  183.0620  178.2700  142.8980 C   0  0  0  0  0  2  0  0  0  0  0  0
  181.9630  182.1110  138.6880 O   0  0  0  0  0  0  0  0  0  0  0  0
  180.6600  181.3620  138.6830 S   0  0  0  0  0  0  0  0  0  0  0  0
  179.9750  180.0560  136.3550 C   0  0  0  0  0  0  0  0  0  0  0  0
  180.9070  179.6630  139.1100 C   0  0  1  0  0  3  0  0  0  0  0  0
  186.1310  179.7990  141.4730 O   0  0  0  0  0  1  0  0  0  0  0  0
  182.6290  178.1300  139.8490 C   0  0  1  0  0  3  0  0  0  0  0  0
  180.6210  178.9120  136.8530 O   0  0  0  0  0  0  0  0  0  0  0  0
  180.0070  181.2990  137.0770 N   0  0  0  0  0  2  0  0  0  0  0  0
  185.2870  178.7770  141.9100 C   0  0  2  0  0  3  0  0  0  0  0  0
  181.0440  179.1640  141.5870 C   0  0  0  0  0  0  0  0  0  0  0  0
  184.4470  177.8720  138.3540 C   0  0  0  0  0  0  0  0  0  0  0  0
  179.3460  179.9870  135.2680 O   0  0  0  0  0  0  0  0  0  0  0  0
  184.9800  177.8190  140.7540 C   0  0  0  0  0  2  0  0  0  0  0  0
  179.6790  179.5180  141.6250 C   0  0  0  0  0  3  0  0  0  0  0  0
  180.8820  178.6280  143.9680 C   0  0  0  0  0  3  0  0  0  0  0  0
  179.5320  178.9740  143.9710 C   0  0  0  0  0  3  0  0  0  0  0  0
  184.0310  179.3780  142.5260 C   0  0  0  0  0  2  0  0  0  0  0  0
  182.1150  177.7330  138.4430 C   0  0  1  0  0  3  0  0  0  0  0  0
  184.1300  178.4690  139.6690 C   0  0  2  0  0  3  0  0  0  0  0  0
  181.5500  179.0310  137.9240 C   0  0  2  0  0  3  0  0  0  0  0  0
  183.2860  176.9060  136.3140 C   0  0  0  0  0  1  0  0  0  0  0  0
  181.8330  179.3780  140.2900 C   0  0  2  0  0  3  0  0  0  0  0  0
  1  6  1  0  0  0  0
  1 21  1  0  0  0  0
  3 17  2  0  0  0  0
  4 22  1  0  0  0  0
  5 17  1  0  0  0  0
  5 24  1  0  0  0  0
  8  7  2  0  0  0  0
  8  2  2  0  0  0  0
  9 13  1  0  0  0  0
  9 14  1  0  0  0  0
 10  8  1  6  0  0  0
 10 28  1  0  0  0  0
 11 15  1  0  0  0  0
 12 28  1  0  0  0  0
 13 26  1  0  0  0  0
 14  8  1  0  0  0  0
 15 23  1  0  0  0  0
 16 20  1  0  0  0  0
 16  1  2  0  0  0  0
 17 25  1  0  0  0  0
 18  9  2  0  0  0  0
 19 15  1  0  0  0  0
 20  4  2  0  0  0  0
 21 22  2  0  0  0  0
 23  6  1  0  0  0  0
 24 12  1  0  0  0  0
 25 12  1  0  0  0  0
 25 19  1  0  0  0  0
 26 24  1  0  0  0  0
 26 10  1  0  0  0  0
 27  5  1  0  0  0  0
 28 16  1  0  0  0  0
M  END
>  <MODEL>
5

>  <REMARK>
 VINA RESULT:      -5.3      2.359      6.462
  Name = 
  0 active torsions:
  status: ('A' for Active; 'I' for Inactive)
                            x       y       z     vdW  Elec       q    Type
                         _______ _______ _______ _____ _____    ______ ____

>  <TORSDO>
F 0

$$$$
=
 OpenBabel11122411513D

 28 32  0  0  1  0  0  0  0  0999 V2000
  184.0110  176.0830  135.4630 C   0  0  0  0  0  0  0  0  0  0  0  0
  186.5210  178.7470  138.8250 O   0  0  0  0  0  0  0  0  0  0  0  0
  179.0750  178.7870  138.5030 O   0  0  0  0  0  0  0  0  0  0  0  0
  186.5100  175.3130  136.4720 C   0  0  0  0  0  3  0  0  0  0  0  0
  180.5610  177.3410  139.6090 N   0  0  0  0  0  0  0  0  0  0  0  0
  182.6820  176.3770  134.8570 C   0  0  0  0  0  2  0  0  0  0  0  0
  184.5540  180.2380  138.7640 O   0  0  0  0  0  0  0  0  0  0  0  0
  185.1380  178.9860  139.3570 S   0  0  0  0  0  0  0  0  0  0  0  0
  184.2860  178.2800  141.8810 C   0  0  0  0  0  0  0  0  0  0  0  0
  184.1000  177.5910  139.0340 C   0  0  1  0  0  3  0  0  0  0  0  0
  180.7770  179.5630  134.7950 O   0  0  0  0  0  1  0  0  0  0  0  0
  182.0970  176.9630  137.8260 C   0  0  1  0  0  3  0  0  0  0  0  0
  183.2720  177.5130  141.2810 O   0  0  0  0  0  0  0  0  0  0  0  0
  185.1660  179.0950  141.0880 N   0  0  0  0  0  2  0  0  0  0  0  0
  180.9710  178.1810  134.8290 C   0  0  2  0  0  3  0  0  0  0  0  0
  184.3920  176.5080  136.7660 C   0  0  0  0  0  0  0  0  0  0  0  0
  180.1280  178.0950  138.4970 C   0  0  0  0  0  0  0  0  0  0  0  0
  184.4350  178.2400  143.1290 O   0  0  0  0  0  0  0  0  0  0  0  0
  180.3470  177.5940  136.0990 C   0  0  0  0  0  2  0  0  0  0  0  0
  185.6630  176.1140  137.2370 C   0  0  0  0  0  3  0  0  0  0  0  0
  184.8710  175.2750  134.7080 C   0  0  0  0  0  3  0  0  0  0  0  0
  186.1150  174.8940  135.2060 C   0  0  0  0  0  3  0  0  0  0  0  0
  182.4570  177.8700  134.7060 C   0  0  0  0  0  2  0  0  0  0  0  0
  181.8830  176.8070  139.3520 C   0  0  1  0  0  3  0  0  0  0  0  0
  181.0770  178.0320  137.3640 C   0  0  2  0  0  3  0  0  0  0  0  0
  182.9150  177.7460  139.9240 C   0  0  2  0  0  3  0  0  0  0  0  0
  179.9180  177.3460  140.9140 C   0  0  0  0  0  1  0  0  0  0  0  0
  183.5450  177.4590  137.6170 C   0  0  2  0  0  3  0  0  0  0  0  0
  1 16  1  0  0  0  0
  2  8  2  0  0  0  0
  4 20  1  0  0  0  0
  5 27  1  0  0  0  0
  6  1  1  0  0  0  0
  7  8  2  0  0  0  0
  8 14  1  0  0  0  0
  9 18  2  0  0  0  0
 10  8  1  6  0  0  0
 10 26  1  0  0  0  0
 11 15  1  0  0  0  0
 12 24  1  0  0  0  0
 13  9  1  0  0  0  0
 14  9  1  0  0  0  0
 15 19  1  0  0  0  0
 16 20  2  0  0  0  0
 16 28  1  0  0  0  0
 17  3  2  0  0  0  0
 17  5  1  0  0  0  0
 19 25  1  0  0  0  0
 21 22  1  0  0  0  0
 21  1  2  0  0  0  0
 22  4  2  0  0  0  0
 23 15  1  0  0  0  0
 23  6  1  0  0  0  0
 24  5  1  0  0  0  0
 24 26  1  0  0  0  0
 25 12  1  0  0  0  0
 25 17  1  0  0  0  0
 26 13  1  0  0  0  0
 28 12  1  0  0  0  0
 28 10  1  0  0  0  0
M  END
>  <MODEL>
6

>  <REMARK>
 VINA RESULT:      -5.3      1.963      2.583
  Name = 
  0 active torsions:
  status: ('A' for Active; 'I' for Inactive)
                            x       y       z     vdW  Elec       q    Type
                         _______ _______ _______ _____ _____    ______ ____

>  <TORSDO>
F 0

$$$$
=
 OpenBabel11122411513D

 28 32  0  0  1  0  0  0  0  0999 V2000
  184.8470  176.3840  137.0580 C   0  0  0  0  0  0  0  0  0  0  0  0
  182.7260  180.5920  138.6390 O   0  0  0  0  0  0  0  0  0  0  0  0
  178.9310  174.1970  138.1280 O   0  0  0  0  0  0  0  0  0  0  0  0
  186.2590  178.4050  138.3910 C   0  0  0  0  0  3  0  0  0  0  0  0
  180.2550  175.0680  139.8630 N   0  0  0  0  0  0  0  0  0  0  0  0
  184.2100  175.2380  136.3490 C   0  0  0  0  0  2  0  0  0  0  0  0
  180.6440  179.5940  137.7620 O   0  0  0  0  0  0  0  0  0  0  0  0
  181.5860  179.6580  138.9320 S   0  0  0  0  0  0  0  0  0  0  0  0
  180.5090  179.2370  141.4330 C   0  0  0  0  0  0  0  0  0  0  0  0
  182.1930  178.0490  139.3430 C   0  0  1  0  0  3  0  0  0  0  0  0
  180.9380  175.0780  134.6010 O   0  0  0  0  0  1  0  0  0  0  0  0
  182.1390  175.7540  138.5740 C   0  0  1  0  0  3  0  0  0  0  0  0
  180.8010  177.8700  141.2850 O   0  0  0  0  0  0  0  0  0  0  0  0
  180.7410  180.1650  140.3600 N   0  0  0  0  0  2  0  0  0  0  0  0
  182.0210  174.6120  135.3470 C   0  0  2  0  0  3  0  0  0  0  0  0
  184.1520  177.2300  137.9670 C   0  0  0  0  0  0  0  0  0  0  0  0
  179.9860  174.7710  138.5100 C   0  0  0  0  0  0  0  0  0  0  0  0
  180.0530  179.6570  142.5270 O   0  0  0  0  0  0  0  0  0  0  0  0
  181.5440  174.1260  136.7190 C   0  0  0  0  0  2  0  0  0  0  0  0
  184.8910  178.2460  138.6100 C   0  0  0  0  0  3  0  0  0  0  0  0
  186.2210  176.5530  136.8520 C   0  0  0  0  0  3  0  0  0  0  0  0
  186.9250  177.5590  137.5110 C   0  0  0  0  0  3  0  0  0  0  0  0
  183.0820  175.7000  135.4450 C   0  0  0  0  0  2  0  0  0  0  0  0
  181.4510  175.8800  139.9560 C   0  0  1  0  0  3  0  0  0  0  0  0
  181.0410  175.2660  137.5980 C   0  0  2  0  0  3  0  0  0  0  0  0
  181.0570  177.3350  139.9920 C   0  0  2  0  0  3  0  0  0  0  0  0
  179.3250  174.8480  140.9590 C   0  0  0  0  0  1  0  0  0  0  0  0
  182.6360  177.1630  138.1820 C   0  0  2  0  0  3  0  0  0  0  0  0
  1 16  1  0  0  0  0
  2  8  2  0  0  0  0
  3 17  2  0  0  0  0
  4 20  1  0  0  0  0
  5 24  1  0  0  0  0
  5 27  1  0  0  0  0
  6  1  1  0  0  0  0
  7  8  2  0  0  0  0
  8 14  1  0  0  0  0
  9 18  2  0  0  0  0
 10  8  1  6  0  0  0
 10 26  1  0  0  0  0
 11 15  1  0  0  0  0
 12 24  1  0  0  0  0
 13  9  1  0  0  0  0
 14  9  1  0  0  0  0
 15 23  1  0  0  0  0
 15 19  1  0  0  0  0
 16 28  1  0  0  0  0
 16 20  2  0  0  0  0
 17  5  1  0  0  0  0
 19 25  1  0  0  0  0
 21  1  2  0  0  0  0
 21 22  1  0  0  0  0
 22  4  2  0  0  0  0
 23  6  1  0  0  0  0
 24 26  1  0  0  0  0
 25 17  1  0  0  0  0
 25 12  1  0  0  0  0
 26 13  1  0  0  0  0
 28 12  1  0  0  0  0
 28 10  1  0  0  0  0
M  END
>  <MODEL>
7

>  <REMARK>
 VINA RESULT:      -5.1      2.872      4.473
  Name = 
  0 active torsions:
  status: ('A' for Active; 'I' for Inactive)
                            x       y       z     vdW  Elec       q    Type
                         _______ _______ _______ _____ _____    ______ ____

>  <TORSDO>
F 0

$$$$
=
 OpenBabel11122411513D

 28 32  0  0  1  0  0  0  0  0999 V2000
  182.5180  173.5500  136.6860 C   0  0  0  0  0  0  0  0  0  0  0  0
  186.8800  175.4120  135.2030 O   0  0  0  0  0  0  0  0  0  0  0  0
  181.2920  179.7750  137.5050 O   0  0  0  0  0  0  0  0  0  0  0  0
  184.9430  172.1690  136.9510 C   0  0  0  0  0  3  0  0  0  0  0  0
  182.9910  178.6850  138.7080 N   0  0  0  0  0  0  0  0  0  0  0  0
  181.1690  174.1800  136.6090 C   0  0  0  0  0  2  0  0  0  0  0  0
  185.5560  177.4080  134.6040 O   0  0  0  0  0  0  0  0  0  0  0  0
  186.2690  176.6860  135.7120 S   0  0  0  0  0  0  0  0  0  0  0  0
  187.3230  178.2290  137.7380 C   0  0  0  0  0  0  0  0  0  0  0  0
  185.1710  176.3530  137.0580 C   0  0  1  0  0  3  0  0  0  0  0  0
  180.0450  177.0890  134.5940 O   0  0  0  0  0  1  0  0  0  0  0  0
  182.8400  176.5360  137.6870 C   0  0  1  0  0  3  0  0  0  0  0  0
  186.1100  178.0760  138.4310 O   0  0  0  0  0  0  0  0  0  0  0  0
  187.4890  177.7050  136.4090 N   0  0  0  0  0  2  0  0  0  0  0  0
  180.0820  176.2150  135.6820 C   0  0  2  0  0  3  0  0  0  0  0  0
  183.7260  174.2910  136.8090 C   0  0  0  0  0  0  0  0  0  0  0  0
  181.9850  178.7440  137.7210 C   0  0  0  0  0  0  0  0  0  0  0  0
  188.2840  178.8190  138.2950 O   0  0  0  0  0  0  0  0  0  0  0  0
  180.4500  176.9800  136.9570 C   0  0  0  0  0  2  0  0  0  0  0  0
  184.9300  173.5640  136.9260 C   0  0  0  0  0  3  0  0  0  0  0  0
  182.5450  172.1500  136.7170 C   0  0  0  0  0  3  0  0  0  0  0  0
  183.7500  171.4610  136.8450 C   0  0  0  0  0  3  0  0  0  0  0  0
  181.0400  175.0700  135.3860 C   0  0  0  0  0  2  0  0  0  0  0  0
  183.7190  177.4380  138.5890 C   0  0  1  0  0  3  0  0  0  0  0  0
  181.8850  177.4950  136.9350 C   0  0  2  0  0  3  0  0  0  0  0  0
  184.9420  177.6600  137.7350 C   0  0  2  0  0  3  0  0  0  0  0  0
  183.4230  179.8120  139.5190 C   0  0  0  0  0  1  0  0  0  0  0  0
  183.7860  175.8180  136.7000 C   0  0  2  0  0  3  0  0  0  0  0  0
  1 21  2  0  0  0  0
  1 16  1  0  0  0  0
  2  8  2  0  0  0  0
  3 17  2  0  0  0  0
  5 27  1  0  0  0  0
  6  1  1  0  0  0  0
  7  8  2  0  0  0  0
  8 14  1  0  0  0  0
  9 18  2  0  0  0  0
  9 13  1  0  0  0  0
 10  8  1  6  0  0  0
 10 26  1  0  0  0  0
 11 15  1  0  0  0  0
 12 24  1  0  0  0  0
 14  9  1  0  0  0  0
 15 19  1  0  0  0  0
 16 20  2  0  0  0  0
 17  5  1  0  0  0  0
 20  4  1  0  0  0  0
 21 22  1  0  0  0  0
 22  4  2  0  0  0  0
 23 15  1  0  0  0  0
 23  6  1  0  0  0  0
 24  5  1  0  0  0  0
 25 19  1  0  0  0  0
 25 12  1  0  0  0  0
 25 17  1  0  0  0  0
 26 13  1  0  0  0  0
 26 24  1  0  0  0  0
 28 16  1  0  0  0  0
 28 10  1  0  0  0  0
 28 12  1  0  0  0  0
M  END
>  <MODEL>
8

>  <REMARK>
 VINA RESULT:      -5.1      2.971      4.165
  Name = 
  0 active torsions:
  status: ('A' for Active; 'I' for Inactive)
                            x       y       z     vdW  Elec       q    Type
                         _______ _______ _______ _____ _____    ______ ____

>  <TORSDO>
F 0

$$$$
=
 OpenBabel11122411513D

 28 32  0  0  1  0  0  0  0  0999 V2000
  179.7980  179.0430  138.2040 C   0  0  0  0  0  0  0  0  0  0  0  0
  184.3990  180.0340  139.7980 O   0  0  0  0  0  0  0  0  0  0  0  0
  182.4230  173.2680  137.3750 O   0  0  0  0  0  0  0  0  0  0  0  0
  180.9800  181.5760  137.9940 C   0  0  0  0  0  3  0  0  0  0  0  0
  183.2020  175.1550  136.2100 N   0  0  0  0  0  0  0  0  0  0  0  0
  179.0630  177.7470  138.2510 C   0  0  0  0  0  2  0  0  0  0  0  0
  184.4640  177.6330  140.3710 O   0  0  0  0  0  0  0  0  0  0  0  0
  184.6500  178.6480  139.2780 S   0  0  0  0  0  0  0  0  0  0  0  0
  186.4470  178.0250  137.2830 C   0  0  0  0  0  0  0  0  0  0  0  0
  183.5920  178.2990  137.9050 C   0  0  1  0  0  3  0  0  0  0  0  0
  179.7880  174.7020  140.2470 O   0  0  0  0  0  1  0  0  0  0  0  0
  181.8120  176.8070  137.2210 C   0  0  1  0  0  3  0  0  0  0  0  0
  185.3850  177.4540  136.5600 O   0  0  0  0  0  0  0  0  0  0  0  0
  186.2490  178.5320  138.6140 N   0  0  0  0  0  2  0  0  0  0  0  0
  179.3360  175.4480  139.1580 C   0  0  2  0  0  3  0  0  0  0  0  0
  181.2140  179.1400  138.1130 C   0  0  0  0  0  0  0  0  0  0  0  0
  182.3940  174.5120  137.1730 C   0  0  0  0  0  0  0  0  0  0  0  0
  187.5830  178.1060  136.7510 O   0  0  0  0  0  0  0  0  0  0  0  0
  180.1060  175.0520  137.8940 C   0  0  0  0  0  2  0  0  0  0  0  0
  181.7760  180.4310  138.0230 C   0  0  0  0  0  3  0  0  0  0  0  0
  179.0100  180.2000  138.1700 C   0  0  0  0  0  3  0  0  0  0  0  0
  179.5950  181.4600  138.0690 C   0  0  0  0  0  3  0  0  0  0  0  0
  179.4460  176.9330  139.4730 C   0  0  0  0  0  2  0  0  0  0  0  0
  183.0700  176.5910  136.3430 C   0  0  1  0  0  3  0  0  0  0  0  0
  181.5730  175.4630  137.9530 C   0  0  2  0  0  3  0  0  0  0  0  0
  184.1770  177.1090  137.2270 C   0  0  2  0  0  3  0  0  0  0  0  0
  184.2240  174.4950  135.4130 C   0  0  0  0  0  1  0  0  0  0  0  0
  182.1460  177.9290  138.2280 C   0  0  2  0  0  3  0  0  0  0  0  0
  1  6  1  0  0  0  0
  4 20  2  0  0  0  0
  4 22  1  0  0  0  0
  5 24  1  0  0  0  0
  5 17  1  0  0  0  0
  6 23  1  0  0  0  0
  8  2  2  0  0  0  0
  8  7  2  0  0  0  0
  9 14  1  0  0  0  0
 10 28  1  0  0  0  0
 10  8  1  1  0  0  0
 12 25  1  0  0  0  0
 12 28  1  0  0  0  0
 13 26  1  0  0  0  0
 13  9  1  0  0  0  0
 14  8  1  0  0  0  0
 15 23  1  0  0  0  0
 15 11  1  0  0  0  0
 16  1  2  0  0  0  0
 16 28  1  0  0  0  0
 17  3  2  0  0  0  0
 17 25  1  0  0  0  0
 18  9  2  0  0  0  0
 19 25  1  0  0  0  0
 19 15  1  0  0  0  0
 20 16  1  0  0  0  0
 21  1  1  0  0  0  0
 22 21  2  0  0  0  0
 24 12  1  0  0  0  0
 24 26  1  0  0  0  0
 26 10  1  0  0  0  0
 27  5  1  0  0  0  0
M  END
>  <MODEL>
9

>  <REMARK>
 VINA RESULT:      -5.0      2.945      5.430
  Name = 
  0 active torsions:
  status: ('A' for Active; 'I' for Inactive)
                            x       y       z     vdW  Elec       q    Type
                         _______ _______ _______ _____ _____    ______ ____

>  <TORSDO>
F 0

$$$$
