=
 OpenBabel11122411503D

 28 32  0  0  1  0  0  0  0  0999 V2000
  181.4220  176.6890  137.0340 C   0  0  0  0  0  0  0  0  0  0  0  0
  185.4620  178.2820  138.8100 O   0  0  0  0  0  0  0  0  0  0  0  0
  179.3010  181.3010  140.7860 O   0  0  0  0  0  0  0  0  0  0  0  0
  183.3810  174.7690  137.6960 C   0  0  0  0  0  3  0  0  0  0  0  0
  180.2920  179.4120  141.9220 C   0  0  2  0  0  3  0  0  0  0  0  0
  180.3010  177.5990  136.6350 C   0  0  0  0  0  2  0  0  0  0  0  0
  184.1800  180.3660  139.1820 O   0  0  0  0  0  0  0  0  0  0  0  0
  184.5620  179.0290  139.7580 S   0  0  0  0  0  0  0  0  0  0  0  0
  184.6920  178.7870  142.4970 C   0  0  0  0  0  0  0  0  0  0  0  0
  183.1630  178.0810  140.1180 N   0  0  1  0  0  0  0  0  0  0  0  0
  180.6460  181.2190  136.9220 O   0  0  0  0  0  0  0  0  0  0  0  0
  180.7780  178.2220  139.8040 C   0  0  1  0  0  3  0  0  0  0  0  0
  183.3810  178.4870  142.5040 C   0  0  0  0  0  2  0  0  0  0  0  0
  185.3500  179.2320  141.2930 N   0  0  0  0  0  0  0  0  0  0  0  0
  180.2750  180.0350  137.1610 C   0  0  0  0  0  0  0  0  0  0  0  0
  182.2360  176.8910  138.1810 C   0  0  0  0  0  0  0  0  0  0  0  0
  179.8550  180.1670  140.7350 C   0  0  0  0  0  0  0  0  0  0  0  0
  185.4810  178.6320  143.7460 C   0  0  0  0  0  1  0  0  0  0  0  0
  179.3540  179.7690  138.3030 C   0  0  0  0  0  2  0  0  0  0  0  0
  183.2050  175.8990  138.4950 C   0  0  0  0  0  3  0  0  0  0  0  0
  181.5950  175.5410  136.2550 C   0  0  0  0  0  3  0  0  0  0  0  0
  182.5800  174.5910  136.5710 C   0  0  0  0  0  3  0  0  0  0  0  0
  180.7870  178.9470  136.3830 N   0  0  0  0  0  2  0  0  0  0  0  0
  181.1240  178.2800  141.3050 C   0  0  1  0  0  3  0  0  0  0  0  0
  180.1280  179.5030  139.5170 N   0  0  0  0  0  0  0  0  0  0  0  0
  182.5640  178.7150  141.2680 C   0  0  2  0  0  3  0  0  0  0  0  0
  179.1280  178.8440  142.5880 N   0  0  0  0  0  1  0  0  0  0  0  0
  182.1380  178.1270  139.0710 C   0  0  2  0  0  3  0  0  0  0  0  0
  1 16  1  0  0  0  0
  2  8  2  0  0  0  0
  4 20  1  0  0  0  0
  5 27  1  6  0  0  0
  6  1  1  0  0  0  0
  7  8  2  0  0  0  0
  8 14  1  0  0  0  0
  9 13  1  0  0  0  0
  9 18  1  0  0  0  0
 10  8  1  6  0  0  0
 10 26  1  0  0  0  0
 11 15  2  0  0  0  0
 12 25  1  6  0  0  0
 12 24  1  0  0  0  0
 14  9  2  0  0  0  0
 15 19  1  0  0  0  0
 16 20  2  0  0  0  0
 16 28  1  0  0  0  0
 17  3  2  0  0  0  0
 17  5  1  0  0  0  0
 19 25  1  0  0  0  0
 21 22  1  0  0  0  0
 21  1  2  0  0  0  0
 22  4  2  0  0  0  0
 23  6  1  0  0  0  0
 23 15  1  0  0  0  0
 24  5  1  0  0  0  0
 25 17  1  0  0  0  0
 26 24  1  0  0  0  0
 26 13  1  0  0  0  0
 28 12  1  0  0  0  0
 28 10  1  0  0  0  0
M  END
>  <MODEL>
1

>  <REMARK>
 VINA RESULT:      -6.8      0.000      0.000
  Name = 
  0 active torsions:
  status: ('A' for Active; 'I' for Inactive)
                            x       y       z     vdW  Elec       q    Type
                         _______ _______ _______ _____ _____    ______ ____

>  <TORSDO>
F 0

$$$$
=
 OpenBabel11122411503D

 28 32  0  0  1  0  0  0  0  0999 V2000
  179.7420  181.6340  139.6010 C   0  0  0  0  0  0  0  0  0  0  0  0
  184.2590  180.4800  139.0780 O   0  0  0  0  0  0  0  0  0  0  0  0
  179.6650  175.6740  141.6800 O   0  0  0  0  0  0  0  0  0  0  0  0
  181.0490  182.5750  137.2840 C   0  0  0  0  0  3  0  0  0  0  0  0
  180.1280  175.9460  139.3230 C   0  0  2  0  0  3  0  0  0  0  0  0
  178.9310  181.2060  140.7860 C   0  0  0  0  0  2  0  0  0  0  0  0
  183.7630  178.7890  140.8160 O   0  0  0  0  0  0  0  0  0  0  0  0
  183.7640  179.0820  139.3400 S   0  0  0  0  0  0  0  0  0  0  0  0
  184.1330  176.9800  137.6010 C   0  0  0  0  0  0  0  0  0  0  0  0
  182.1880  178.8750  138.6610 N   0  0  1  0  0  0  0  0  0  0  0  0
  180.4450  179.2650  143.4780 O   0  0  0  0  0  0  0  0  0  0  0  0
  179.9540  178.4140  139.4360 C   0  0  1  0  0  3  0  0  0  0  0  0
  182.8060  176.7670  137.6230 C   0  0  0  0  0  3  0  0  0  0  0  0
  184.7510  177.9310  138.4930 N   0  0  0  0  0  2  0  0  0  0  0  0
  179.7470  179.5560  142.4660 C   0  0  0  0  0  0  0  0  0  0  0  0
  180.7080  180.8100  138.9620 C   0  0  0  0  0  0  0  0  0  0  0  0
  179.8170  176.4300  140.6790 C   0  0  0  0  0  0  0  0  0  0  0  0
  184.9740  176.2430  136.6240 C   0  0  0  0  0  1  0  0  0  0  0  0
  178.9310  178.4950  141.8070 C   0  0  0  0  0  2  0  0  0  0  0  0
  181.3390  181.3070  137.7890 C   0  0  0  0  0  3  0  0  0  0  0  0
  179.4460  182.8930  139.0700 C   0  0  0  0  0  3  0  0  0  0  0  0
  180.1070  183.3720  137.9270 C   0  0  0  0  0  3  0  0  0  0  0  0
  179.7890  180.8760  141.9140 N   0  0  0  0  0  2  0  0  0  0  0  0
  180.4750  177.2430  138.5810 C   0  0  1  0  0  3  0  0  0  0  0  0
  179.7180  177.8380  140.7620 N   0  0  0  0  0  0  0  0  0  0  0  0
  181.9640  177.4500  138.6580 C   0  0  2  0  0  3  0  0  0  0  0  0
  178.9310  175.3610  138.7330 N   0  0  0  0  0  1  0  0  0  0  0  0
  181.1150  179.4360  139.4880 C   0  0  2  0  0  3  0  0  0  0  0  0
  1  6  1  0  0  0  0
  2  8  2  0  0  0  0
  4 20  2  0  0  0  0
  4 22  1  0  0  0  0
  5 27  1  6  0  0  0
  5 17  1  0  0  0  0
  6 23  1  0  0  0  0
  8  7  2  0  0  0  0
  9 13  2  0  0  0  0
  9 14  1  0  0  0  0
 10  8  1  1  0  0  0
 10 28  1  0  0  0  0
 12 28  1  0  0  0  0
 12 25  1  1  0  0  0
 13 26  1  0  0  0  0
 14  8  1  0  0  0  0
 15 11  2  0  0  0  0
 16 28  1  0  0  0  0
 16  1  2  0  0  0  0
 17 25  1  0  0  0  0
 17  3  2  0  0  0  0
 18  9  1  0  0  0  0
 19 15  1  0  0  0  0
 20 16  1  0  0  0  0
 21  1  1  0  0  0  0
 22 21  2  0  0  0  0
 23 15  1  0  0  0  0
 24 26  1  0  0  0  0
 24  5  1  0  0  0  0
 24 12  1  0  0  0  0
 25 19  1  0  0  0  0
 26 10  1  0  0  0  0
M  END
>  <MODEL>
2

>  <REMARK>
 VINA RESULT:      -6.2      2.568      5.058
  Name = 
  0 active torsions:
  status: ('A' for Active; 'I' for Inactive)
                            x       y       z     vdW  Elec       q    Type
                         _______ _______ _______ _____ _____    ______ ____

>  <TORSDO>
F 0

$$$$
=
 OpenBabel11122411503D

 28 32  0  0  1  0  0  0  0  0999 V2000
  186.5820  174.2770  136.2470 C   0  0  0  0  0  0  0  0  0  0  0  0
  190.9530  173.8630  134.5940 O   0  0  0  0  0  0  0  0  0  0  0  0
  189.0320  179.8100  138.0460 O   0  0  0  0  0  0  0  0  0  0  0  0
  187.8130  171.7500  136.4890 C   0  0  0  0  0  3  0  0  0  0  0  0
  189.9510  177.8610  139.1430 C   0  0  2  0  0  3  0  0  0  0  0  0
  185.8100  175.5600  136.1770 C   0  0  0  0  0  2  0  0  0  0  0  0
  190.9320  176.3370  134.6430 O   0  0  0  0  0  0  0  0  0  0  0  0
  191.2120  175.0860  135.4320 S   0  0  0  0  0  0  0  0  0  0  0  0
  193.1180  175.2030  137.4150 C   0  0  0  0  0  0  0  0  0  0  0  0
  190.2590  175.0300  136.8720 N   0  0  1  0  0  0  0  0  0  0  0  0
  187.2480  178.5170  134.5980 O   0  0  0  0  0  0  0  0  0  0  0  0
  188.4860  176.3020  137.8940 C   0  0  1  0  0  3  0  0  0  0  0  0
  192.1610  175.6050  138.2700 C   0  0  0  0  0  2  0  0  0  0  0  0
  192.8520  175.0820  136.0020 N   0  0  0  0  0  0  0  0  0  0  0  0
  186.8350  177.7260  135.4920 C   0  0  0  0  0  0  0  0  0  0  0  0
  187.9730  174.2040  136.5270 C   0  0  0  0  0  0  0  0  0  0  0  0
  189.0510  178.5560  138.2060 C   0  0  0  0  0  0  0  0  0  0  0  0
  194.4630  174.8520  137.9380 C   0  0  0  0  0  1  0  0  0  0  0  0
  186.9300  178.1230  136.9270 C   0  0  0  0  0  2  0  0  0  0  0  0
  188.5610  172.9160  136.6570 C   0  0  0  0  0  3  0  0  0  0  0  0
  185.8410  173.1000  136.1040 C   0  0  0  0  0  3  0  0  0  0  0  0
  186.4530  171.8410  136.2070 C   0  0  0  0  0  3  0  0  0  0  0  0
  186.3380  176.4310  135.1370 N   0  0  0  0  0  2  0  0  0  0  0  0
  189.7670  176.3900  138.7460 C   0  0  1  0  0  3  0  0  0  0  0  0
  188.2100  177.6800  137.4830 N   0  0  0  0  0  0  0  0  0  0  0  0
  190.8270  176.0340  137.7390 C   0  0  2  0  0  3  0  0  0  0  0  0
  189.4730  178.0550  140.5050 N   0  0  0  0  0  1  0  0  0  0  0  0
  188.8640  175.4350  136.6690 C   0  0  2  0  0  3  0  0  0  0  0  0
  1 16  1  0  0  0  0
  2  8  2  0  0  0  0
  3 17  2  0  0  0  0
  4 20  1  0  0  0  0
  5 27  1  1  0  0  0
  6  1  1  0  0  0  0
  7  8  2  0  0  0  0
  8 14  1  0  0  0  0
  9 18  1  0  0  0  0
  9 13  1  0  0  0  0
 10  8  1  6  0  0  0
 10 26  1  0  0  0  0
 11 15  2  0  0  0  0
 12 25  1  6  0  0  0
 12 24  1  0  0  0  0
 14  9  2  0  0  0  0
 15 19  1  0  0  0  0
 16 20  2  0  0  0  0
 16 28  1  0  0  0  0
 17  5  1  0  0  0  0
 19 25  1  0  0  0  0
 21 22  1  0  0  0  0
 21  1  2  0  0  0  0
 22  4  2  0  0  0  0
 23 15  1  0  0  0  0
 23  6  1  0  0  0  0
 24  5  1  0  0  0  0
 25 17  1  0  0  0  0
 26 13  1  0  0  0  0
 26 24  1  0  0  0  0
 28 10  1  0  0  0  0
 28 12  1  0  0  0  0
M  END
>  <MODEL>
3

>  <REMARK>
 VINA RESULT:      -5.9      6.569      8.371
  Name = 
  0 active torsions:
  status: ('A' for Active; 'I' for Inactive)
                            x       y       z     vdW  Elec       q    Type
                         _______ _______ _______ _____ _____    ______ ____

>  <TORSDO>
F 0

$$$$
=
 OpenBabel11122411503D

 28 32  0  0  1  0  0  0  0  0999 V2000
  180.4820  180.5190  136.3280 C   0  0  0  0  0  0  0  0  0  0  0  0
  180.2250  180.2590  141.0060 O   0  0  0  0  0  0  0  0  0  0  0  0
  182.6960  174.6860  137.2900 O   0  0  0  0  0  0  0  0  0  0  0  0
  181.1850  182.8310  137.7840 C   0  0  0  0  0  3  0  0  0  0  0  0
  184.0970  176.4770  138.1100 C   0  0  2  0  0  3  0  0  0  0  0  0
  180.1310  179.3680  135.4350 C   0  0  0  0  0  2  0  0  0  0  0  0
  180.1620  177.8170  140.6100 O   0  0  0  0  0  0  0  0  0  0  0  0
  181.0510  179.0140  140.8190 S   0  0  0  0  0  0  0  0  0  0  0  0
  183.5050  178.6170  142.0020 C   0  0  0  0  0  0  0  0  0  0  0  0
  182.1420  179.2200  139.4960 N   0  0  1  0  0  0  0  0  0  0  0  0
  178.9310  176.2200  136.8340 O   0  0  0  0  0  0  0  0  0  0  0  0
  182.5350  178.2360  137.3320 C   0  0  1  0  0  3  0  0  0  0  0  0
  184.0180  178.3690  140.7840 C   0  0  0  0  0  3  0  0  0  0  0  0
  182.0840  178.7720  142.1940 N   0  0  0  0  0  2  0  0  0  0  0  0
  179.6930  177.0680  136.2910 C   0  0  0  0  0  0  0  0  0  0  0  0
  181.1670  180.3810  137.5660 C   0  0  0  0  0  0  0  0  0  0  0  0
  182.9070  175.9230  137.4420 C   0  0  0  0  0  0  0  0  0  0  0  0
  184.4190  178.7620  143.1630 C   0  0  0  0  0  1  0  0  0  0  0  0
  181.0730  176.6670  135.8910 C   0  0  0  0  0  2  0  0  0  0  0  0
  181.5190  181.5660  138.2690 C   0  0  0  0  0  3  0  0  0  0  0  0
  180.1740  181.7940  135.8450 C   0  0  0  0  0  3  0  0  0  0  0  0
  180.5070  182.9470  136.5750 C   0  0  0  0  0  3  0  0  0  0  0  0
  179.2610  178.4230  136.1190 N   0  0  0  0  0  2  0  0  0  0  0  0
  183.7260  177.9570  138.2700 C   0  0  1  0  0  3  0  0  0  0  0  0
  182.0030  176.9140  136.9950 N   0  0  0  0  0  0  0  0  0  0  0  0
  183.0960  178.1450  139.6240 C   0  0  2  0  0  3  0  0  0  0  0  0
  185.2460  176.3640  137.2200 N   0  0  0  0  0  1  0  0  0  0  0  0
  181.5160  179.0300  138.1840 C   0  0  2  0  0  3  0  0  0  0  0  0
  1 16  1  0  0  0  0
  3 17  2  0  0  0  0
  4 20  1  0  0  0  0
  5 27  1  6  0  0  0
  5 24  1  0  0  0  0
  6 23  1  0  0  0  0
  6  1  1  0  0  0  0
  7  8  2  0  0  0  0
  8  2  2  0  0  0  0
  8 14  1  0  0  0  0
  9 14  1  0  0  0  0
  9 18  1  0  0  0  0
 10 26  1  0  0  0  0
 10  8  1  1  0  0  0
 12 25  1  1  0  0  0
 12 28  1  0  0  0  0
 12 24  1  0  0  0  0
 13  9  2  0  0  0  0
 15 11  2  0  0  0  0
 16 28  1  0  0  0  0
 16 20  2  0  0  0  0
 17  5  1  0  0  0  0
 19 15  1  0  0  0  0
 19 25  1  0  0  0  0
 21  1  2  0  0  0  0
 21 22  1  0  0  0  0
 22  4  2  0  0  0  0
 23 15  1  0  0  0  0
 24 26  1  0  0  0  0
 25 17  1  0  0  0  0
 26 13  1  0  0  0  0
 28 10  1  0  0  0  0
M  END
>  <MODEL>
4

>  <REMARK>
 VINA RESULT:      -5.7      2.409      4.898
  Name = 
  0 active torsions:
  status: ('A' for Active; 'I' for Inactive)
                            x       y       z     vdW  Elec       q    Type
                         _______ _______ _______ _____ _____    ______ ____

>  <TORSDO>
F 0

$$$$
=
 OpenBabel11122411503D

 28 32  0  0  1  0  0  0  0  0999 V2000
  190.2330  176.8430  139.4760 C   0  0  0  0  0  0  0  0  0  0  0  0
  187.5710  179.2660  136.4670 O   0  0  0  0  0  0  0  0  0  0  0  0
  190.0650  172.8440  134.5950 O   0  0  0  0  0  0  0  0  0  0  0  0
  188.0400  178.2560  140.5500 C   0  0  0  0  0  3  0  0  0  0  0  0
  187.9590  173.1840  135.7310 C   0  0  2  0  0  3  0  0  0  0  0  0
  191.4310  176.0540  139.0410 C   0  0  0  0  0  2  0  0  0  0  0  0
  188.6940  177.8780  134.7530 O   0  0  0  0  0  0  0  0  0  0  0  0
  187.5330  177.9670  135.7070 S   0  0  0  0  0  0  0  0  0  0  0  0
  185.2070  176.6520  135.0440 C   0  0  0  0  0  0  0  0  0  0  0  0
  187.5270  176.6360  136.8100 N   0  0  1  0  0  0  0  0  0  0  0  0
  192.4680  176.0170  135.5430 O   0  0  0  0  0  0  0  0  0  0  0  0
  188.9430  174.7670  137.3640 C   0  0  1  0  0  3  0  0  0  0  0  0
  185.6940  175.5500  135.6400 C   0  0  0  0  0  2  0  0  0  0  0  0
  186.0300  177.8210  134.8490 N   0  0  0  0  0  0  0  0  0  0  0  0
  191.9850  175.6360  136.6460 C   0  0  0  0  0  0  0  0  0  0  0  0
  189.0240  176.9230  138.7330 C   0  0  0  0  0  0  0  0  0  0  0  0
  189.4010  173.3970  135.5160 C   0  0  0  0  0  0  0  0  0  0  0  0
  183.7890  176.6760  134.6030 C   0  0  0  0  0  1  0  0  0  0  0  0
  191.4040  174.2660  136.7620 C   0  0  0  0  0  2  0  0  0  0  0  0
  187.9340  177.6310  139.3070 C   0  0  0  0  0  3  0  0  0  0  0  0
  190.3180  177.4560  140.7300 C   0  0  0  0  0  3  0  0  0  0  0  0
  189.2340  178.1740  141.2600 C   0  0  0  0  0  3  0  0  0  0  0  0
  191.9340  176.5330  137.7610 N   0  0  0  0  0  2  0  0  0  0  0  0
  187.6150  174.2700  136.7580 C   0  0  1  0  0  3  0  0  0  0  0  0
  189.9770  174.3010  136.4380 N   0  0  0  0  0  0  0  0  0  0  0  0
  187.1440  175.4920  136.0170 C   0  0  2  0  0  3  0  0  0  0  0  0
  187.7500  171.8730  136.3310 N   0  0  0  0  0  1  0  0  0  0  0  0
  188.8530  176.3110  137.3450 C   0  0  2  0  0  3  0  0  0  0  0  0
  1 21  1  0  0  0  0
  3 17  2  0  0  0  0
  4 22  1  0  0  0  0
  5 27  1  1  0  0  0
  5 24  1  0  0  0  0
  6  1  1  0  0  0  0
  7  8  2  0  0  0  0
  8  2  2  0  0  0  0
  9 13  1  0  0  0  0
 10  8  1  6  0  0  0
 10 28  1  0  0  0  0
 11 15  2  0  0  0  0
 12 25  1  6  0  0  0
 13 26  1  0  0  0  0
 14  9  2  0  0  0  0
 14  8  1  0  0  0  0
 15 19  1  0  0  0  0
 15 23  1  0  0  0  0
 16 20  1  0  0  0  0
 16  1  2  0  0  0  0
 17  5  1  0  0  0  0
 17 25  1  0  0  0  0
 18  9  1  0  0  0  0
 20  4  2  0  0  0  0
 21 22  2  0  0  0  0
 23  6  1  0  0  0  0
 24 12  1  0  0  0  0
 25 19  1  0  0  0  0
 26 24  1  0  0  0  0
 26 10  1  0  0  0  0
 28 12  1  0  0  0  0
 28 16  1  0  0  0  0
M  END
>  <MODEL>
5

>  <REMARK>
 VINA RESULT:      -5.4      6.110      9.656
  Name = 
  0 active torsions:
  status: ('A' for Active; 'I' for Inactive)
                            x       y       z     vdW  Elec       q    Type
                         _______ _______ _______ _____ _____    ______ ____

>  <TORSDO>
F 0

$$$$
=
 OpenBabel11122411503D

 28 32  0  0  1  0  0  0  0  0999 V2000
  181.5950  178.3980  135.6380 C   0  0  0  0  0  0  0  0  0  0  0  0
  181.0650  177.8190  140.2640 O   0  0  0  0  0  0  0  0  0  0  0  0
  186.9960  175.4570  137.0660 O   0  0  0  0  0  0  0  0  0  0  0  0
  180.4250  180.5260  137.0730 C   0  0  0  0  0  3  0  0  0  0  0  0
  186.7580  177.6860  137.9680 C   0  0  2  0  0  3  0  0  0  0  0  0
  182.1960  177.3460  134.7560 C   0  0  0  0  0  2  0  0  0  0  0  0
  182.6810  175.9690  139.9580 O   0  0  0  0  0  0  0  0  0  0  0  0
  182.5230  177.4430  140.2190 S   0  0  0  0  0  0  0  0  0  0  0  0
  184.4740  178.7170  141.6840 C   0  0  0  0  0  0  0  0  0  0  0  0
  183.3400  178.3810  139.0190 N   0  0  1  0  0  0  0  0  0  0  0  0
  183.2390  174.1320  136.1320 O   0  0  0  0  0  0  0  0  0  0  0  0
  184.5200  178.0030  136.9530 C   0  0  1  0  0  3  0  0  0  0  0  0
  185.1530  178.9270  140.5420 C   0  0  0  0  0  3  0  0  0  0  0  0
  183.2980  177.8830  141.7100 N   0  0  0  0  0  2  0  0  0  0  0  0
  183.3010  175.2960  135.6450 C   0  0  0  0  0  0  0  0  0  0  0  0
  182.0580  178.6920  136.9490 C   0  0  0  0  0  0  0  0  0  0  0  0
  186.3160  176.5140  137.1930 C   0  0  0  0  0  0  0  0  0  0  0  0
  184.9290  179.3780  142.9340 C   0  0  0  0  0  1  0  0  0  0  0  0
  184.6330  175.9280  135.4190 C   0  0  0  0  0  2  0  0  0  0  0  0
  181.4580  179.7790  137.6410 C   0  0  0  0  0  3  0  0  0  0  0  0
  180.5750  179.1700  135.0740 C   0  0  0  0  0  3  0  0  0  0  0  0
  179.9780  180.2190  135.7920 C   0  0  0  0  0  3  0  0  0  0  0  0
  182.1020  176.0310  135.3740 N   0  0  0  0  0  2  0  0  0  0  0  0
  185.4840  178.5410  138.0280 C   0  0  1  0  0  3  0  0  0  0  0  0
  185.0380  176.6770  136.6100 N   0  0  0  0  0  0  0  0  0  0  0  0
  184.7450  178.2020  139.2950 C   0  0  2  0  0  3  0  0  0  0  0  0
  187.7810  178.4030  137.2180 N   0  0  0  0  0  1  0  0  0  0  0  0
  183.1450  177.8840  137.6540 C   0  0  2  0  0  3  0  0  0  0  0  0
  1 16  1  0  0  0  0
  3 17  2  0  0  0  0
  4 20  1  0  0  0  0
  5 27  1  6  0  0  0
  5 24  1  0  0  0  0
  6 23  1  0  0  0  0
  6  1  1  0  0  0  0
  7  8  2  0  0  0  0
  8  2  2  0  0  0  0
  8 14  1  0  0  0  0
  9 14  1  0  0  0  0
  9 18  1  0  0  0  0
 10 26  1  0  0  0  0
 10  8  1  1  0  0  0
 12 25  1  1  0  0  0
 12 28  1  0  0  0  0
 12 24  1  0  0  0  0
 13  9  2  0  0  0  0
 15 11  2  0  0  0  0
 16 20  2  0  0  0  0
 16 28  1  0  0  0  0
 17  5  1  0  0  0  0
 19 15  1  0  0  0  0
 19 25  1  0  0  0  0
 21  1  2  0  0  0  0
 21 22  1  0  0  0  0
 22  4  2  0  0  0  0
 23 15  1  0  0  0  0
 24 26  1  0  0  0  0
 25 17  1  0  0  0  0
 26 13  1  0  0  0  0
 28 10  1  0  0  0  0
M  END
>  <MODEL>
6

>  <REMARK>
 VINA RESULT:      -5.0      2.865      5.337
  Name = 
  0 active torsions:
  status: ('A' for Active; 'I' for Inactive)
                            x       y       z     vdW  Elec       q    Type
                         _______ _______ _______ _____ _____    ______ ____

>  <TORSDO>
F 0

$$$$
=
 OpenBabel11122411503D

 28 32  0  0  1  0  0  0  0  0999 V2000
  184.9120  177.0570  137.1510 C   0  0  0  0  0  0  0  0  0  0  0  0
  182.7460  180.9120  138.7180 O   0  0  0  0  0  0  0  0  0  0  0  0
  178.9570  174.9890  137.4770 O   0  0  0  0  0  0  0  0  0  0  0  0
  186.2580  178.5820  139.1060 C   0  0  0  0  0  3  0  0  0  0  0  0
  179.9990  175.4930  139.5990 C   0  0  2  0  0  3  0  0  0  0  0  0
  184.3140  176.1610  136.1100 C   0  0  0  0  0  2  0  0  0  0  0  0
  180.7390  179.8910  137.6900 O   0  0  0  0  0  0  0  0  0  0  0  0
  181.5860  179.9760  138.9320 S   0  0  0  0  0  0  0  0  0  0  0  0
  180.3600  179.5950  141.3670 C   0  0  0  0  0  0  0  0  0  0  0  0
  182.1630  178.4160  139.4020 N   0  0  1  0  0  0  0  0  0  0  0  0
  181.0920  176.9570  134.5940 O   0  0  0  0  0  0  0  0  0  0  0  0
  182.1360  176.1660  138.5420 C   0  0  1  0  0  3  0  0  0  0  0  0
  180.5730  178.2740  141.2350 C   0  0  0  0  0  2  0  0  0  0  0  0
  180.6320  180.5070  140.2830 N   0  0  0  0  0  0  0  0  0  0  0  0
  181.9640  176.3880  135.3100 C   0  0  0  0  0  0  0  0  0  0  0  0
  184.1630  177.6810  138.1850 C   0  0  0  0  0  0  0  0  0  0  0  0
  179.9660  175.3780  138.1310 C   0  0  0  0  0  0  0  0  0  0  0  0
  179.8600  180.1260  142.6610 C   0  0  0  0  0  1  0  0  0  0  0  0
  181.5640  175.2540  136.1940 C   0  0  0  0  0  2  0  0  0  0  0  0
  184.8720  178.4310  139.1630 C   0  0  0  0  0  3  0  0  0  0  0  0
  186.3030  177.1990  137.1200 C   0  0  0  0  0  3  0  0  0  0  0  0
  186.9740  177.9710  138.0820 C   0  0  0  0  0  3  0  0  0  0  0  0
  183.3130  176.8690  135.3250 N   0  0  0  0  0  2  0  0  0  0  0  0
  181.3110  176.2510  139.8410 C   0  0  1  0  0  3  0  0  0  0  0  0
  181.1780  175.7620  137.5110 N   0  0  0  0  0  0  0  0  0  0  0  0
  181.0030  177.7230  139.9080 C   0  0  2  0  0  3  0  0  0  0  0  0
  180.0980  174.1630  140.1850 N   0  0  0  0  0  1  0  0  0  0  0  0
  182.6420  177.6050  138.2790 C   0  0  2  0  0  3  0  0  0  0  0  0
  1 16  1  0  0  0  0
  2  8  2  0  0  0  0
  3 17  2  0  0  0  0
  4 20  1  0  0  0  0
  5 24  1  0  0  0  0
  5 27  1  1  0  0  0
  6  1  1  0  0  0  0
  7  8  2  0  0  0  0
  8 14  1  0  0  0  0
  9 18  1  0  0  0  0
 10  8  1  6  0  0  0
 10 26  1  0  0  0  0
 11 15  2  0  0  0  0
 12 25  1  6  0  0  0
 12 24  1  0  0  0  0
 13  9  1  0  0  0  0
 14  9  2  0  0  0  0
 15 23  1  0  0  0  0
 15 19  1  0  0  0  0
 16 28  1  0  0  0  0
 16 20  2  0  0  0  0
 17  5  1  0  0  0  0
 19 25  1  0  0  0  0
 21  1  2  0  0  0  0
 21 22  1  0  0  0  0
 22  4  2  0  0  0  0
 23  6  1  0  0  0  0
 24 26  1  0  0  0  0
 25 17  1  0  0  0  0
 26 13  1  0  0  0  0
 28 12  1  0  0  0  0
 28 10  1  0  0  0  0
M  END
>  <MODEL>
7

>  <REMARK>
 VINA RESULT:      -4.9      2.830      4.283
  Name = 
  0 active torsions:
  status: ('A' for Active; 'I' for Inactive)
                            x       y       z     vdW  Elec       q    Type
                         _______ _______ _______ _____ _____    ______ ____

>  <TORSDO>
F 0

$$$$
=
 OpenBabel11122411503D

 28 32  0  0  1  0  0  0  0  0999 V2000
  179.8210  179.6290  138.6240 C   0  0  0  0  0  0  0  0  0  0  0  0
  184.1810  179.7590  140.3500 O   0  0  0  0  0  0  0  0  0  0  0  0
  181.7720  173.7760  137.2880 O   0  0  0  0  0  0  0  0  0  0  0  0
  181.2880  182.0060  138.2310 C   0  0  0  0  0  3  0  0  0  0  0  0
  182.8890  175.5440  136.0770 C   0  0  2  0  0  3  0  0  0  0  0  0
  178.9310  178.4320  138.7670 C   0  0  0  0  0  2  0  0  0  0  0  0
  183.9290  177.3000  140.4780 O   0  0  0  0  0  0  0  0  0  0  0  0
  184.3390  178.4570  139.6090 S   0  0  0  0  0  0  0  0  0  0  0  0
  186.2600  178.0190  137.6860 C   0  0  0  0  0  0  0  0  0  0  0  0
  183.4210  178.4960  138.1450 N   0  0  1  0  0  0  0  0  0  0  0  0
  180.0560  175.4790  140.5890 O   0  0  0  0  0  0  0  0  0  0  0  0
  181.5550  177.3210  137.1740 C   0  0  1  0  0  3  0  0  0  0  0  0
  185.2860  177.6450  136.8390 C   0  0  0  0  0  3  0  0  0  0  0  0
  185.9830  178.2680  139.0800 N   0  0  0  0  0  2  0  0  0  0  0  0
  179.7350  176.2360  139.6310 C   0  0  0  0  0  0  0  0  0  0  0  0
  181.2180  179.5520  138.3730 C   0  0  0  0  0  0  0  0  0  0  0  0
  181.9110  175.0070  137.0390 C   0  0  0  0  0  0  0  0  0  0  0  0
  187.6410  178.2040  137.1720 C   0  0  0  0  0  1  0  0  0  0  0  0
  179.8180  175.7270  138.2310 C   0  0  0  0  0  2  0  0  0  0  0  0
  181.9260  180.7670  138.1660 C   0  0  0  0  0  3  0  0  0  0  0  0
  179.1910  180.8770  138.6640 C   0  0  0  0  0  3  0  0  0  0  0  0
  179.9210  182.0630  138.4860 C   0  0  0  0  0  3  0  0  0  0  0  0
  179.3560  177.5950  139.8790 N   0  0  0  0  0  2  0  0  0  0  0  0
  182.8370  177.0510  136.3620 C   0  0  1  0  0  3  0  0  0  0  0  0
  181.1440  176.0080  137.6770 N   0  0  0  0  0  0  0  0  0  0  0  0
  183.9070  177.3820  137.3670 C   0  0  2  0  0  3  0  0  0  0  0  0
  182.4180  175.2960  134.7210 N   0  0  0  0  0  1  0  0  0  0  0  0
  181.9920  178.2370  138.3420 C   0  0  2  0  0  3  0  0  0  0  0  0
  1 21  1  0  0  0  0
  1  6  1  0  0  0  0
  4 22  1  0  0  0  0
  5 27  1  6  0  0  0
  5 24  1  0  0  0  0
  5 17  1  0  0  0  0
  6 23  1  0  0  0  0
  8  2  2  0  0  0  0
  8  7  2  0  0  0  0
  9 14  1  0  0  0  0
 10 28  1  0  0  0  0
 10  8  1  1  0  0  0
 12 25  1  1  0  0  0
 12 28  1  0  0  0  0
 13 26  1  0  0  0  0
 13  9  2  0  0  0  0
 14  8  1  0  0  0  0
 15 23  1  0  0  0  0
 15 11  2  0  0  0  0
 16  1  2  0  0  0  0
 17  3  2  0  0  0  0
 17 25  1  0  0  0  0
 18  9  1  0  0  0  0
 19 15  1  0  0  0  0
 20  4  2  0  0  0  0
 20 16  1  0  0  0  0
 22 21  2  0  0  0  0
 24 12  1  0  0  0  0
 24 26  1  0  0  0  0
 25 19  1  0  0  0  0
 26 10  1  0  0  0  0
 28 16  1  0  0  0  0
M  END
>  <MODEL>
8

>  <REMARK>
 VINA RESULT:      -4.8      2.867      5.315
  Name = 
  0 active torsions:
  status: ('A' for Active; 'I' for Inactive)
                            x       y       z     vdW  Elec       q    Type
                         _______ _______ _______ _____ _____    ______ ____

>  <TORSDO>
F 0

$$$$
=
 OpenBabel11122411503D

 28 32  0  0  1  0  0  0  0  0999 V2000
  185.4240  178.2540  139.1820 C   0  0  0  0  0  0  0  0  0  0  0  0
  181.4890  178.2140  136.6270 O   0  0  0  0  0  0  0  0  0  0  0  0
  187.0590  174.2370  134.5940 O   0  0  0  0  0  0  0  0  0  0  0  0
  182.9790  178.2730  140.5880 C   0  0  0  0  0  3  0  0  0  0  0  0
  185.3300  173.4550  136.0910 C   0  0  2  0  0  3  0  0  0  0  0  0
  186.7890  178.2520  138.5630 C   0  0  0  0  0  2  0  0  0  0  0  0
  182.9910  177.5030  134.7930 O   0  0  0  0  0  0  0  0  0  0  0  0
  182.1380  177.0400  135.9440 S   0  0  0  0  0  0  0  0  0  0  0  0
  180.9930  174.5410  135.7870 C   0  0  0  0  0  0  0  0  0  0  0  0
  183.0650  176.1300  137.0840 N   0  0  1  0  0  0  0  0  0  0  0  0
  187.1920  178.3120  134.9380 O   0  0  0  0  0  0  0  0  0  0  0  0
  185.3710  175.5330  137.4400 C   0  0  1  0  0  3  0  0  0  0  0  0
  182.1120  174.0270  136.3270 C   0  0  0  0  0  2  0  0  0  0  0  0
  180.9240  175.9270  135.3910 N   0  0  0  0  0  0  0  0  0  0  0  0
  187.1760  177.8880  136.1280 C   0  0  0  0  0  0  0  0  0  0  0  0
  184.3240  177.5090  138.6770 C   0  0  0  0  0  0  0  0  0  0  0  0
  186.3180  174.4310  135.6000 C   0  0  0  0  0  0  0  0  0  0  0  0
  179.7990  173.6740  135.6200 C   0  0  0  0  0  1  0  0  0  0  0  0
  187.5460  176.4700  136.4080 C   0  0  0  0  0  2  0  0  0  0  0  0
  183.1100  177.5280  139.4160 C   0  0  0  0  0  3  0  0  0  0  0  0
  185.2840  178.9770  140.3700 C   0  0  0  0  0  3  0  0  0  0  0  0
  184.0630  179.0030  141.0640 C   0  0  0  0  0  3  0  0  0  0  0  0
  186.7410  178.7410  137.1930 N   0  0  0  0  0  2  0  0  0  0  0  0
  184.5390  174.2770  137.1180 C   0  0  1  0  0  3  0  0  0  0  0  0
  186.3530  175.6240  136.3570 N   0  0  0  0  0  0  0  0  0  0  0  0
  183.3430  174.8760  136.4260 C   0  0  2  0  0  3  0  0  0  0  0  0
  186.0210  172.3710  136.7750 N   0  0  0  0  0  1  0  0  0  0  0  0
  184.3770  176.7160  137.3730 C   0  0  2  0  0  3  0  0  0  0  0  0
  1 21  1  0  0  0  0
  3 17  2  0  0  0  0
  4 22  1  0  0  0  0
  5 27  1  1  0  0  0
  5 24  1  0  0  0  0
  6  1  1  0  0  0  0
  7  8  2  0  0  0  0
  8  2  2  0  0  0  0
  9 13  1  0  0  0  0
 10  8  1  6  0  0  0
 10 28  1  0  0  0  0
 11 15  2  0  0  0  0
 12 25  1  6  0  0  0
 13 26  1  0  0  0  0
 14  9  2  0  0  0  0
 14  8  1  0  0  0  0
 15 19  1  0  0  0  0
 15 23  1  0  0  0  0
 16  1  2  0  0  0  0
 16 20  1  0  0  0  0
 17  5  1  0  0  0  0
 17 25  1  0  0  0  0
 18  9  1  0  0  0  0
 20  4  2  0  0  0  0
 21 22  2  0  0  0  0
 23  6  1  0  0  0  0
 24 12  1  0  0  0  0
 25 19  1  0  0  0  0
 26 10  1  0  0  0  0
 26 24  1  0  0  0  0
 28 12  1  0  0  0  0
 28 16  1  0  0  0  0
M  END
>  <MODEL>
9

>  <REMARK>
 VINA RESULT:      -4.4      3.621      7.269
  Name = 
  0 active torsions:
  status: ('A' for Active; 'I' for Inactive)
                            x       y       z     vdW  Elec       q    Type
                         _______ _______ _______ _____ _____    ______ ____

>  <TORSDO>
F 0

$$$$
