=
 OpenBabel11122411053D

 31 35  0  0  1  0  0  0  0  0999 V2000
  190.1320  175.9980  142.8370 C   0  0  0  0  0  0  0  0  0  0  0  0
  186.5480  177.1480  143.4070 C   0  0  2  0  0  3  0  0  0  0  0  0
  186.5470  177.9040  144.7320 C   0  0  0  0  0  0  0  0  0  0  0  0
  187.5580  178.3140  146.9100 C   0  0  0  0  0  0  0  0  0  0  0  0
  187.9250  177.0160  142.7930 C   0  0  0  0  0  0  0  0  0  0  0  0
  190.5210  176.7830  141.7510 C   0  0  0  0  0  3  0  0  0  0  0  0
  187.5820  177.6960  145.6590 C   0  0  0  0  0  3  0  0  0  0  0  0
  186.0870  178.9890  141.7410 C   0  0  2  0  0  3  0  0  0  0  0  0
  191.0080  175.1270  143.3930 F   0  0  0  0  0  0  0  0  0  0  0  0
  184.3060  178.9910  144.1800 C   0  0  0  0  0  2  0  0  0  0  0  0
  188.8710  178.0540  148.0380 Cl  0  0  0  0  0  0  0  0  0  0  0  0
  187.3470  178.6680  140.9410 C   0  0  0  0  0  2  0  0  0  0  0  0
  185.5360  177.7130  142.3950 C   0  0  2  0  0  3  0  0  0  0  0  0
  188.8390  176.1120  143.3520 C   0  0  0  0  0  3  0  0  0  0  0  0
  186.4860  179.1340  147.2630 C   0  0  0  0  0  3  0  0  0  0  0  0
  188.3210  177.8030  141.6880 C   0  0  0  0  0  0  0  0  0  0  0  0
  189.6150  177.6740  141.1730 C   0  0  0  0  0  3  0  0  0  0  0  0
  184.1880  177.9410  143.0800 C   0  0  0  0  0  2  0  0  0  0  0  0
  185.4450  178.7060  145.1140 C   0  0  0  0  0  0  0  0  0  0  0  0
  185.4350  179.3290  146.3670 C   0  0  0  0  0  3  0  0  0  0  0  0
  184.6820  177.6020  139.6730 O   0  0  0  0  0  0  0  0  0  0  0  0
  184.4210  178.8230  139.8380 C   0  0  0  0  0  0  0  0  0  0  0  0
  185.0880  179.5740  140.8570 N   0  0  0  0  0  2  0  0  0  0  0  0
  181.0170  178.0430  139.5540 C   0  0  0  0  0  0  0  0  0  0  0  0
  182.3190  180.1930  139.7000 C   0  0  0  0  0  2  0  0  0  0  0  0
  183.8580  177.7930  137.0720 C   0  0  0  0  0  1  0  0  0  0  0  0
  180.0220  177.3410  139.8670 O   0  0  0  0  0  0  0  0  0  0  0  0
  181.4060  179.2000  140.4250 C   0  0  0  0  0  2  0  0  0  0  0  0
  182.8170  178.5680  137.8610 C   0  0  2  0  0  3  0  0  0  0  0  0
  183.4350  179.4920  138.9200 C   0  0  2  0  0  3  0  0  0  0  0  0
  181.8280  177.6620  138.4380 N   0  0  0  0  0  2  0  0  0  0  0  0
  1 14  1  0  0  0  0
  1  9  1  0  0  0  0
  2  5  1  6  0  0  0
  2  3  1  0  0  0  0
  3 19  2  0  0  0  0
  3  7  1  0  0  0  0
  4 15  1  0  0  0  0
  4 11  1  0  0  0  0
  5 14  2  0  0  0  0
  6  1  2  0  0  0  0
  7  4  2  0  0  0  0
  8 23  1  6  0  0  0
  8 13  1  0  0  0  0
 10 19  1  0  0  0  0
 12 16  1  0  0  0  0
 12  8  1  0  0  0  0
 13 18  1  1  0  0  0
 13  2  1  0  0  0  0
 16  5  1  0  0  0  0
 17 16  2  0  0  0  0
 17  6  1  0  0  0  0
 18 10  1  0  0  0  0
 19 20  1  0  0  0  0
 20 15  2  0  0  0  0
 21 22  2  0  0  0  0
 22 23  1  0  0  0  0
 24 27  2  0  0  0  0
 24 28  1  0  0  0  0
 25 28  1  0  0  0  0
 29 26  1  1  0  0  0
 29 31  1  0  0  0  0
 29 30  1  0  0  0  0
 30 25  1  0  0  0  0
 30 22  1  1  0  0  0
 31 24  1  0  0  0  0
M  END
>  <MODEL>
1

>  <REMARK>
 VINA RESULT:      -9.5      0.000      0.000
  Name = 
  2 active torsions:
  status: ('A' for Active; 'I' for Inactive)
    1  A    between atoms: C_5  and  C_30
    2  A    between atoms: C_10  and  N_16
                            x       y       z     vdW  Elec       q    Type
                         _______ _______ _______ _____ _____    ______ ____

>  <TORSDO>
F 2

$$$$
=
 OpenBabel11122411053D

 31 35  0  0  1  0  0  0  0  0999 V2000
  191.1520  176.3410  143.7430 C   0  0  0  0  0  0  0  0  0  0  0  0
  187.4100  177.0430  143.7820 C   0  0  2  0  0  3  0  0  0  0  0  0
  187.1300  177.7960  145.0770 C   0  0  0  0  0  0  0  0  0  0  0  0
  187.7640  178.3350  147.3660 C   0  0  0  0  0  0  0  0  0  0  0  0
  188.8660  177.0790  143.3700 C   0  0  0  0  0  0  0  0  0  0  0  0
  191.5920  177.1650  142.7060 C   0  0  0  0  0  3  0  0  0  0  0  0
  188.0400  177.7210  146.1440 C   0  0  0  0  0  3  0  0  0  0  0  0
  186.9690  178.8070  142.0300 C   0  0  2  0  0  3  0  0  0  0  0  0
  192.0390  175.5870  144.4340 F   0  0  0  0  0  0  0  0  0  0  0  0
  184.8740  178.5970  144.1950 C   0  0  0  0  0  2  0  0  0  0  0  0
  188.9250  178.2420  148.6720 Cl  0  0  0  0  0  0  0  0  0  0  0  0
  188.3600  178.6420  141.4210 C   0  0  0  0  0  2  0  0  0  0  0  0
  186.4900  177.4750  142.6260 C   0  0  2  0  0  3  0  0  0  0  0  0
  189.7940  176.2960  144.0700 C   0  0  0  0  0  3  0  0  0  0  0  0
  186.5610  179.0180  147.5490 C   0  0  0  0  0  3  0  0  0  0  0  0
  189.3150  177.9060  142.3140 C   0  0  0  0  0  0  0  0  0  0  0  0
  190.6760  177.9360  141.9890 C   0  0  0  0  0  3  0  0  0  0  0  0
  185.0410  177.5370  143.1100 C   0  0  0  0  0  2  0  0  0  0  0  0
  185.8950  178.4580  145.2840 C   0  0  0  0  0  0  0  0  0  0  0  0
  185.6320  179.0790  146.5100 C   0  0  0  0  0  3  0  0  0  0  0  0
  186.6720  177.6530  139.4310 O   0  0  0  0  0  0  0  0  0  0  0  0
  185.9440  178.6400  139.7180 C   0  0  0  0  0  0  0  0  0  0  0  0
  186.0420  179.2620  141.0030 N   0  0  0  0  0  2  0  0  0  0  0  0
  182.7020  177.4820  139.0660 C   0  0  0  0  0  0  0  0  0  0  0  0
  183.7350  179.7650  139.3070 C   0  0  0  0  0  2  0  0  0  0  0  0
  185.8220  177.5210  136.9320 C   0  0  0  0  0  1  0  0  0  0  0  0
  181.7590  176.6770  139.2800 O   0  0  0  0  0  0  0  0  0  0  0  0
  182.8580  178.6850  139.9470 C   0  0  0  0  0  2  0  0  0  0  0  0
  184.6180  178.1840  137.5770 C   0  0  2  0  0  3  0  0  0  0  0  0
  185.0040  179.1840  138.6770 C   0  0  2  0  0  3  0  0  0  0  0  0
  183.6740  177.1810  138.0590 N   0  0  0  0  0  2  0  0  0  0  0  0
  1 14  1  0  0  0  0
  1  9  1  0  0  0  0
  2  5  1  6  0  0  0
  2  3  1  0  0  0  0
  3 19  2  0  0  0  0
  3  7  1  0  0  0  0
  4 15  1  0  0  0  0
  4 11  1  0  0  0  0
  5 14  2  0  0  0  0
  6  1  2  0  0  0  0
  7  4  2  0  0  0  0
  8 23  1  6  0  0  0
  8 13  1  0  0  0  0
 10 19  1  0  0  0  0
 12  8  1  0  0  0  0
 12 16  1  0  0  0  0
 13 18  1  1  0  0  0
 13  2  1  0  0  0  0
 16  5  1  0  0  0  0
 17 16  2  0  0  0  0
 17  6  1  0  0  0  0
 18 10  1  0  0  0  0
 19 20  1  0  0  0  0
 20 15  2  0  0  0  0
 21 22  2  0  0  0  0
 22 23  1  0  0  0  0
 24 27  2  0  0  0  0
 24 28  1  0  0  0  0
 25 28  1  0  0  0  0
 29 26  1  1  0  0  0
 29 31  1  0  0  0  0
 29 30  1  0  0  0  0
 30 25  1  0  0  0  0
 30 22  1  1  0  0  0
 31 24  1  0  0  0  0
M  END
>  <MODEL>
2

>  <REMARK>
 VINA RESULT:      -9.1      1.207      1.313
  Name = 
  2 active torsions:
  status: ('A' for Active; 'I' for Inactive)
    1  A    between atoms: C_5  and  C_30
    2  A    between atoms: C_10  and  N_16
                            x       y       z     vdW  Elec       q    Type
                         _______ _______ _______ _____ _____    ______ ____

>  <TORSDO>
F 2

$$$$
=
 OpenBabel11122411053D

 31 35  0  0  1  0  0  0  0  0999 V2000
  189.9120  175.9340  142.7190 C   0  0  0  0  0  0  0  0  0  0  0  0
  186.5640  177.0890  144.1150 C   0  0  2  0  0  3  0  0  0  0  0  0
  186.8710  177.7990  145.4290 C   0  0  0  0  0  0  0  0  0  0  0  0
  188.3500  178.1280  147.3360 C   0  0  0  0  0  0  0  0  0  0  0  0
  187.7670  176.9680  143.2040 C   0  0  0  0  0  0  0  0  0  0  0  0
  190.0600  176.7530  141.5990 C   0  0  0  0  0  3  0  0  0  0  0  0
  188.0840  177.5530  146.0930 C   0  0  0  0  0  3  0  0  0  0  0  0
  185.7680  178.9890  142.6540 C   0  0  2  0  0  3  0  0  0  0  0  0
  190.8770  175.0380  143.0360 F   0  0  0  0  0  0  0  0  0  0  0  0
  184.5790  178.9200  145.4280 C   0  0  0  0  0  2  0  0  0  0  0  0
  189.8770  177.8200  148.1330 Cl  0  0  0  0  0  0  0  0  0  0  0  0
  186.8130  178.6860  141.5810 C   0  0  0  0  0  2  0  0  0  0  0  0
  185.3590  177.6950  143.3740 C   0  0  2  0  0  3  0  0  0  0  0  0
  188.7690  176.0390  143.5150 C   0  0  0  0  0  3  0  0  0  0  0  0
  187.3960  178.9430  147.9470 C   0  0  0  0  0  3  0  0  0  0  0  0
  187.9160  177.7900  142.0630 C   0  0  0  0  0  0  0  0  0  0  0  0
  189.0600  177.6700  141.2670 C   0  0  0  0  0  3  0  0  0  0  0  0
  184.2020  177.9090  144.3500 C   0  0  0  0  0  2  0  0  0  0  0  0
  185.8930  178.5960  146.0740 C   0  0  0  0  0  0  0  0  0  0  0  0
  186.1730  179.1760  147.3160 C   0  0  0  0  0  3  0  0  0  0  0  0
  183.8010  177.6370  141.0790 O   0  0  0  0  0  0  0  0  0  0  0  0
  183.6570  178.8760  141.2550 C   0  0  0  0  0  0  0  0  0  0  0  0
  184.6060  179.6100  142.0350 N   0  0  0  0  0  2  0  0  0  0  0  0
  181.0890  177.3490  139.4250 C   0  0  0  0  0  0  0  0  0  0  0  0
  181.1600  179.1440  141.1900 C   0  0  0  0  0  2  0  0  0  0  0  0
  183.7700  179.8100  138.4020 C   0  0  0  0  0  1  0  0  0  0  0  0
  180.5560  176.3260  138.9230 O   0  0  0  0  0  0  0  0  0  0  0  0
  180.8280  177.6850  140.8640 C   0  0  0  0  0  2  0  0  0  0  0  0
  182.4550  179.4440  139.0680 C   0  0  2  0  0  3  0  0  0  0  0  0
  182.5020  179.5800  140.5970 C   0  0  2  0  0  3  0  0  0  0  0  0
  182.0200  178.1140  138.6530 N   0  0  0  0  0  2  0  0  0  0  0  0
  1  9  1  0  0  0  0
  1 14  1  0  0  0  0
  2  5  1  6  0  0  0
  2  3  1  0  0  0  0
  3 19  2  0  0  0  0
  3  7  1  0  0  0  0
  4 15  1  0  0  0  0
  4 11  1  0  0  0  0
  5 14  2  0  0  0  0
  6  1  2  0  0  0  0
  7  4  2  0  0  0  0
  8 23  1  6  0  0  0
  8 13  1  0  0  0  0
 10 19  1  0  0  0  0
 12 16  1  0  0  0  0
 12  8  1  0  0  0  0
 13  2  1  0  0  0  0
 13 18  1  1  0  0  0
 16  5  1  0  0  0  0
 17  6  1  0  0  0  0
 17 16  2  0  0  0  0
 18 10  1  0  0  0  0
 19 20  1  0  0  0  0
 20 15  2  0  0  0  0
 21 22  2  0  0  0  0
 22 23  1  0  0  0  0
 24 28  1  0  0  0  0
 27 24  2  0  0  0  0
 28 25  1  0  0  0  0
 29 26  1  6  0  0  0
 29 30  1  0  0  0  0
 30 25  1  0  0  0  0
 30 22  1  1  0  0  0
 31 29  1  0  0  0  0
 31 24  1  0  0  0  0
M  END
>  <MODEL>
3

>  <REMARK>
 VINA RESULT:      -8.7      1.015      1.191
  Name = 
  2 active torsions:
  status: ('A' for Active; 'I' for Inactive)
    1  A    between atoms: C_5  and  C_30
    2  A    between atoms: C_10  and  N_16
                            x       y       z     vdW  Elec       q    Type
                         _______ _______ _______ _____ _____    ______ ____

>  <TORSDO>
F 2

$$$$
=
 OpenBabel11122411053D

 31 35  0  0  1  0  0  0  0  0999 V2000
  193.3980  175.1950  135.7770 C   0  0  0  0  0  0  0  0  0  0  0  0
  190.1820  176.8430  136.9720 C   0  0  2  0  0  3  0  0  0  0  0  0
  189.0810  175.8000  136.8100 C   0  0  0  0  0  0  0  0  0  0  0  0
  188.2390  173.7980  135.7080 C   0  0  0  0  0  0  0  0  0  0  0  0
  191.5740  176.2490  136.9880 C   0  0  0  0  0  0  0  0  0  0  0  0
  194.1170  175.0620  136.9660 C   0  0  0  0  0  3  0  0  0  0  0  0
  189.2640  174.7180  135.9340 C   0  0  0  0  0  3  0  0  0  0  0  0
  190.3480  177.0590  139.4830 C   0  0  2  0  0  3  0  0  0  0  0  0
  193.9240  174.7470  134.6120 F   0  0  0  0  0  0  0  0  0  0  0  0
  187.5390  177.0960  138.3760 C   0  0  0  0  0  2  0  0  0  0  0  0
  188.5000  172.4470  134.6270 Cl  0  0  0  0  0  0  0  0  0  0  0  0
  191.8410  176.7350  139.4760 C   0  0  0  0  0  2  0  0  0  0  0  0
  189.9550  177.7700  138.1790 C   0  0  2  0  0  3  0  0  0  0  0  0
  192.1340  175.7890  135.7890 C   0  0  0  0  0  3  0  0  0  0  0  0
  187.0050  173.9580  136.3400 C   0  0  0  0  0  3  0  0  0  0  0  0
  192.3090  176.1200  138.1890 C   0  0  0  0  0  0  0  0  0  0  0  0
  193.5780  175.5320  138.1640 C   0  0  0  0  0  3  0  0  0  0  0  0
  188.5070  178.2610  138.1940 C   0  0  0  0  0  2  0  0  0  0  0  0
  187.8130  175.9760  137.4170 C   0  0  0  0  0  0  0  0  0  0  0  0
  186.7960  175.0430  137.1920 C   0  0  0  0  0  3  0  0  0  0  0  0
  189.9380  176.1410  142.1590 O   0  0  0  0  0  0  0  0  0  0  0  0
  189.8450  177.3780  141.9460 C   0  0  0  0  0  0  0  0  0  0  0  0
  190.0420  177.9030  140.6300 N   0  0  0  0  0  2  0  0  0  0  0  0
  191.0300  177.1420  145.2350 C   0  0  0  0  0  0  0  0  0  0  0  0
  190.7010  179.0450  143.6210 C   0  0  0  0  0  2  0  0  0  0  0  0
  187.5520  176.7910  143.7960 C   0  0  0  0  0  1  0  0  0  0  0  0
  191.7100  176.5590  146.1190 O   0  0  0  0  0  0  0  0  0  0  0  0
  191.7010  178.1140  144.3110 C   0  0  0  0  0  2  0  0  0  0  0  0
  188.7510  177.6050  144.2480 C   0  0  2  0  0  3  0  0  0  0  0  0
  189.4810  178.2920  143.0840 C   0  0  2  0  0  3  0  0  0  0  0  0
  189.6550  176.7880  145.0520 N   0  0  0  0  0  2  0  0  0  0  0  0
  1 14  2  0  0  0  0
  1  6  1  0  0  0  0
  2  3  1  1  0  0  0
  2  5  1  0  0  0  0
  2 13  1  0  0  0  0
  3 19  1  0  0  0  0
  4  7  1  0  0  0  0
  4 15  2  0  0  0  0
  5 16  2  0  0  0  0
  6 17  2  0  0  0  0
  7  3  2  0  0  0  0
  8 23  1  1  0  0  0
  9  1  1  0  0  0  0
 11  4  1  0  0  0  0
 12  8  1  0  0  0  0
 13 18  1  1  0  0  0
 13  8  1  0  0  0  0
 14  5  1  0  0  0  0
 15 20  1  0  0  0  0
 16 12  1  0  0  0  0
 17 16  1  0  0  0  0
 18 10  1  0  0  0  0
 19 10  1  0  0  0  0
 20 19  2  0  0  0  0
 22 21  2  0  0  0  0
 23 22  1  0  0  0  0
 24 27  2  0  0  0  0
 25 28  1  0  0  0  0
 28 24  1  0  0  0  0
 29 26  1  6  0  0  0
 29 31  1  0  0  0  0
 30 22  1  6  0  0  0
 30 25  1  0  0  0  0
 30 29  1  0  0  0  0
 31 24  1  0  0  0  0
M  END
>  <MODEL>
4

>  <REMARK>
 VINA RESULT:      -8.5      5.488      8.751
  Name = 
  2 active torsions:
  status: ('A' for Active; 'I' for Inactive)
    1  A    between atoms: C_5  and  C_30
    2  A    between atoms: C_10  and  N_16
                            x       y       z     vdW  Elec       q    Type
                         _______ _______ _______ _____ _____    ______ ____

>  <TORSDO>
F 2

$$$$
=
 OpenBabel11122411053D

 31 35  0  0  1  0  0  0  0  0999 V2000
  188.8480  178.1630  142.4800 C   0  0  0  0  0  0  0  0  0  0  0  0
  186.0370  178.9920  140.0510 C   0  0  2  0  0  3  0  0  0  0  0  0
  186.1870  178.0290  138.8780 C   0  0  0  0  0  0  0  0  0  0  0  0
  187.6010  176.5740  137.5310 C   0  0  0  0  0  0  0  0  0  0  0  0
  186.7550  178.5320  141.3010 C   0  0  0  0  0  0  0  0  0  0  0  0
  188.1500  177.6190  143.5590 C   0  0  0  0  0  3  0  0  0  0  0  0
  187.4180  177.3950  138.6440 C   0  0  0  0  0  3  0  0  0  0  0  0
  183.8840  178.2110  141.1130 C   0  0  2  0  0  3  0  0  0  0  0  0
  190.1990  178.2460  142.5190 F   0  0  0  0  0  0  0  0  0  0  0  0
  183.8000  178.4980  138.1090 C   0  0  0  0  0  2  0  0  0  0  0  0
  189.1390  175.7800  137.2740 Cl  0  0  0  0  0  0  0  0  0  0  0  0
  184.5520  178.0140  142.4730 C   0  0  0  0  0  2  0  0  0  0  0  0
  184.5700  179.3510  140.3470 C   0  0  2  0  0  3  0  0  0  0  0  0
  188.1530  178.6200  141.3580 C   0  0  0  0  0  3  0  0  0  0  0  0
  186.5610  176.3910  136.6190 C   0  0  0  0  0  3  0  0  0  0  0  0
  186.0510  177.9880  142.4000 C   0  0  0  0  0  0  0  0  0  0  0  0
  186.7560  177.5410  143.5220 C   0  0  0  0  0  3  0  0  0  0  0  0
  183.8470  179.7010  139.0460 C   0  0  0  0  0  2  0  0  0  0  0  0
  185.1490  177.8680  137.9280 C   0  0  0  0  0  0  0  0  0  0  0  0
  185.3400  177.0360  136.8200 C   0  0  0  0  0  3  0  0  0  0  0  0
  181.7020  176.6340  140.1500 O   0  0  0  0  0  0  0  0  0  0  0  0
  181.4260  177.6800  140.7960 C   0  0  0  0  0  0  0  0  0  0  0  0
  182.4720  178.5110  141.3070 N   0  0  0  0  0  2  0  0  0  0  0  0
  179.9820  180.7410  139.8900 C   0  0  0  0  0  0  0  0  0  0  0  0
  179.2900  178.3330  139.6450 C   0  0  0  0  0  2  0  0  0  0  0  0
  180.4580  179.0980  143.2610 C   0  0  0  0  0  1  0  0  0  0  0  0
  180.0780  181.9070  139.4270 O   0  0  0  0  0  0  0  0  0  0  0  0
  179.8330  179.5830  138.9480 C   0  0  0  0  0  2  0  0  0  0  0  0
  179.7580  179.2590  141.9230 C   0  0  2  0  0  3  0  0  0  0  0  0
  179.9850  178.0660  140.9830 C   0  0  2  0  0  3  0  0  0  0  0  0
  180.1270  180.5250  141.2970 N   0  0  0  0  0  2  0  0  0  0  0  0
  1  9  1  0  0  0  0
  1  6  1  0  0  0  0
  2  3  1  6  0  0  0
  2 13  1  0  0  0  0
  2  5  1  0  0  0  0
  4  7  2  0  0  0  0
  5 14  1  0  0  0  0
  5 16  2  0  0  0  0
  7  3  1  0  0  0  0
  8 23  1  1  0  0  0
  8 12  1  0  0  0  0
 10 18  1  0  0  0  0
 11  4  1  0  0  0  0
 13 18  1  6  0  0  0
 13  8  1  0  0  0  0
 14  1  2  0  0  0  0
 15 20  2  0  0  0  0
 15  4  1  0  0  0  0
 16 12  1  0  0  0  0
 16 17  1  0  0  0  0
 17  6  2  0  0  0  0
 19 10  1  0  0  0  0
 19  3  2  0  0  0  0
 20 19  1  0  0  0  0
 21 22  2  0  0  0  0
 22 23  1  0  0  0  0
 24 31  1  0  0  0  0
 25 30  1  0  0  0  0
 27 24  2  0  0  0  0
 28 25  1  0  0  0  0
 28 24  1  0  0  0  0
 29 26  1  1  0  0  0
 30 22  1  6  0  0  0
 30 29  1  0  0  0  0
 31 29  1  0  0  0  0
M  END
>  <MODEL>
5

>  <REMARK>
 VINA RESULT:      -8.1      2.940      5.437
  Name = 
  2 active torsions:
  status: ('A' for Active; 'I' for Inactive)
    1  A    between atoms: C_5  and  C_30
    2  A    between atoms: C_10  and  N_16
                            x       y       z     vdW  Elec       q    Type
                         _______ _______ _______ _____ _____    ______ ____

>  <TORSDO>
F 2

$$$$
=
 OpenBabel11122411053D

 31 35  0  0  1  0  0  0  0  0999 V2000
  188.8840  178.0890  143.4470 C   0  0  0  0  0  0  0  0  0  0  0  0
  186.5430  179.0040  140.5870 C   0  0  2  0  0  3  0  0  0  0  0  0
  186.9260  178.1060  139.4160 C   0  0  0  0  0  0  0  0  0  0  0  0
  188.5970  176.7440  138.2810 C   0  0  0  0  0  0  0  0  0  0  0  0
  187.0320  178.4890  141.9240 C   0  0  0  0  0  0  0  0  0  0  0  0
  188.0140  177.4790  144.3520 C   0  0  0  0  0  3  0  0  0  0  0  0
  188.1950  177.5030  139.3810 C   0  0  0  0  0  3  0  0  0  0  0  0
  184.2520  178.1360  141.1990 C   0  0  2  0  0  3  0  0  0  0  0  0
  190.2030  178.1900  143.7360 F   0  0  0  0  0  0  0  0  0  0  0  0
  184.7090  178.5790  138.2470 C   0  0  0  0  0  2  0  0  0  0  0  0
  190.1740  175.9870  138.2710 Cl  0  0  0  0  0  0  0  0  0  0  0  0
  184.6650  177.8780  142.6460 C   0  0  0  0  0  2  0  0  0  0  0  0
  185.0380  179.3250  140.6280 C   0  0  2  0  0  3  0  0  0  0  0  0
  188.3930  178.5950  142.2400 C   0  0  0  0  0  3  0  0  0  0  0  0
  187.7440  176.5940  137.1870 C   0  0  0  0  0  3  0  0  0  0  0  0
  186.1530  177.8780  142.8470 C   0  0  0  0  0  0  0  0  0  0  0  0
  186.6530  177.3840  144.0570 C   0  0  0  0  0  3  0  0  0  0  0  0
  184.5560  179.7320  139.2350 C   0  0  0  0  0  2  0  0  0  0  0  0
  186.0830  177.9800  138.2850 C   0  0  0  0  0  0  0  0  0  0  0  0
  186.4920  177.2100  137.1920 C   0  0  0  0  0  3  0  0  0  0  0  0
  182.3380  176.6590  139.6730 O   0  0  0  0  0  0  0  0  0  0  0  0
  181.9160  177.6270  140.3580 C   0  0  0  0  0  0  0  0  0  0  0  0
  182.8220  178.4050  141.1450 N   0  0  0  0  0  2  0  0  0  0  0  0
  179.8720  178.3770  143.1030 C   0  0  0  0  0  0  0  0  0  0  0  0
  180.1940  179.3970  140.8250 C   0  0  0  0  0  2  0  0  0  0  0  0
  179.7550  175.5520  140.5930 C   0  0  0  0  0  1  0  0  0  0  0  0
  179.6990  178.4960  144.3430 O   0  0  0  0  0  0  0  0  0  0  0  0
  180.4590  179.5180  142.3280 C   0  0  0  0  0  2  0  0  0  0  0  0
  179.5270  176.9920  141.0190 C   0  0  2  0  0  3  0  0  0  0  0  0
  180.4550  177.9830  140.3010 C   0  0  2  0  0  3  0  0  0  0  0  0
  179.6110  177.1200  142.4710 N   0  0  0  0  0  2  0  0  0  0  0  0
  1  9  1  0  0  0  0
  1  6  1  0  0  0  0
  2  3  1  6  0  0  0
  2 13  1  0  0  0  0
  2  5  1  0  0  0  0
  4  7  2  0  0  0  0
  5 14  1  0  0  0  0
  5 16  2  0  0  0  0
  7  3  1  0  0  0  0
  8 23  1  1  0  0  0
  8 12  1  0  0  0  0
 10 19  1  0  0  0  0
 10 18  1  0  0  0  0
 11  4  1  0  0  0  0
 12 16  1  0  0  0  0
 13 18  1  6  0  0  0
 13  8  1  0  0  0  0
 14  1  2  0  0  0  0
 15 20  2  0  0  0  0
 15  4  1  0  0  0  0
 16 17  1  0  0  0  0
 17  6  2  0  0  0  0
 19  3  2  0  0  0  0
 20 19  1  0  0  0  0
 21 22  2  0  0  0  0
 22 23  1  0  0  0  0
 24 27  2  0  0  0  0
 25 28  1  0  0  0  0
 28 24  1  0  0  0  0
 29 26  1  1  0  0  0
 29 31  1  0  0  0  0
 30 22  1  1  0  0  0
 30 25  1  0  0  0  0
 30 29  1  0  0  0  0
 31 24  1  0  0  0  0
M  END
>  <MODEL>
6

>  <REMARK>
 VINA RESULT:      -8.0      2.918      5.095
  Name = 
  2 active torsions:
  status: ('A' for Active; 'I' for Inactive)
    1  A    between atoms: C_5  and  C_30
    2  A    between atoms: C_10  and  N_16
                            x       y       z     vdW  Elec       q    Type
                         _______ _______ _______ _____ _____    ______ ____

>  <TORSDO>
F 2

$$$$
=
 OpenBabel11122411053D

 31 35  0  0  1  0  0  0  0  0999 V2000
  188.9900  178.0850  143.5050 C   0  0  0  0  0  0  0  0  0  0  0  0
  186.6240  179.0040  140.6680 C   0  0  2  0  0  3  0  0  0  0  0  0
  186.9960  178.1060  139.4920 C   0  0  0  0  0  0  0  0  0  0  0  0
  188.6550  176.7440  138.3410 C   0  0  0  0  0  0  0  0  0  0  0  0
  187.1250  178.4870  141.9990 C   0  0  0  0  0  0  0  0  0  0  0  0
  188.1280  177.4750  144.4170 C   0  0  0  0  0  3  0  0  0  0  0  0
  188.2640  177.5030  139.4450 C   0  0  0  0  0  3  0  0  0  0  0  0
  184.3380  178.1370  141.2990 C   0  0  2  0  0  3  0  0  0  0  0  0
  190.3120  178.1840  143.7820 F   0  0  0  0  0  0  0  0  0  0  0  0
  184.7690  178.5830  138.3440 C   0  0  0  0  0  2  0  0  0  0  0  0
  190.2320  175.9870  138.3160 Cl  0  0  0  0  0  0  0  0  0  0  0  0
  184.7640  177.8780  142.7420 C   0  0  0  0  0  2  0  0  0  0  0  0
  185.1200  179.3260  140.7220 C   0  0  2  0  0  3  0  0  0  0  0  0
  188.4890  178.5920  142.3040 C   0  0  0  0  0  3  0  0  0  0  0  0
  187.7930  176.5960  137.2540 C   0  0  0  0  0  3  0  0  0  0  0  0
  186.2530  177.8760  142.9300 C   0  0  0  0  0  0  0  0  0  0  0  0
  186.7640  177.3810  144.1340 C   0  0  0  0  0  3  0  0  0  0  0  0
  184.6250  179.7350  139.3340 C   0  0  0  0  0  2  0  0  0  0  0  0
  186.1430  177.9820  138.3690 C   0  0  0  0  0  0  0  0  0  0  0  0
  186.5410  177.2130  137.2710 C   0  0  0  0  0  3  0  0  0  0  0  0
  182.3990  176.6150  139.8510 O   0  0  0  0  0  0  0  0  0  0  0  0
  181.9880  177.6060  140.5100 C   0  0  0  0  0  0  0  0  0  0  0  0
  182.9070  178.4080  141.2590 N   0  0  0  0  0  2  0  0  0  0  0  0
  179.4450  175.6830  139.0570 C   0  0  0  0  0  0  0  0  0  0  0  0
  179.6710  176.9460  141.2230 C   0  0  0  0  0  2  0  0  0  0  0  0
  180.7830  179.1160  138.2090 C   0  0  0  0  0  1  0  0  0  0  0  0
  179.0650  174.6720  138.4120 O   0  0  0  0  0  0  0  0  0  0  0  0
  179.6520  175.5760  140.5390 C   0  0  0  0  0  2  0  0  0  0  0  0
  179.9600  178.1560  139.0510 C   0  0  2  0  0  3  0  0  0  0  0  0
  180.5280  177.9630  140.4640 C   0  0  2  0  0  3  0  0  0  0  0  0
  179.7810  176.8840  138.3560 N   0  0  0  0  0  2  0  0  0  0  0  0
  1  9  1  0  0  0  0
  1  6  1  0  0  0  0
  2  3  1  6  0  0  0
  2 13  1  0  0  0  0
  2  5  1  0  0  0  0
  4  7  2  0  0  0  0
  5 14  1  0  0  0  0
  5 16  2  0  0  0  0
  7  3  1  0  0  0  0
  8 23  1  1  0  0  0
  8 12  1  0  0  0  0
 10 19  1  0  0  0  0
 10 18  1  0  0  0  0
 11  4  1  0  0  0  0
 12 16  1  0  0  0  0
 13 18  1  6  0  0  0
 13  8  1  0  0  0  0
 14  1  2  0  0  0  0
 15 20  2  0  0  0  0
 15  4  1  0  0  0  0
 16 17  1  0  0  0  0
 17  6  2  0  0  0  0
 19  3  2  0  0  0  0
 20 19  1  0  0  0  0
 21 22  2  0  0  0  0
 22 23  1  0  0  0  0
 24 28  1  0  0  0  0
 27 24  2  0  0  0  0
 28 25  1  0  0  0  0
 29 26  1  6  0  0  0
 29 30  1  0  0  0  0
 30 22  1  6  0  0  0
 30 25  1  0  0  0  0
 31 29  1  0  0  0  0
 31 24  1  0  0  0  0
M  END
>  <MODEL>
7

>  <REMARK>
 VINA RESULT:      -7.6      2.741      4.915
  Name = 
  2 active torsions:
  status: ('A' for Active; 'I' for Inactive)
    1  A    between atoms: C_5  and  C_30
    2  A    between atoms: C_10  and  N_16
                            x       y       z     vdW  Elec       q    Type
                         _______ _______ _______ _____ _____    ______ ____

>  <TORSDO>
F 2

$$$$
=
 OpenBabel11122411053D

 31 35  0  0  1  0  0  0  0  0999 V2000
  179.8210  179.1070  143.4140 C   0  0  0  0  0  0  0  0  0  0  0  0
  183.1480  179.2950  141.5740 C   0  0  2  0  0  3  0  0  0  0  0  0
  184.2000  178.7540  142.5360 C   0  0  0  0  0  0  0  0  0  0  0  0
  184.9160  178.3050  144.8210 C   0  0  0  0  0  0  0  0  0  0  0  0
  181.7370  178.8840  141.9360 C   0  0  0  0  0  0  0  0  0  0  0  0
  179.1520  178.1080  142.7060 C   0  0  0  0  0  3  0  0  0  0  0  0
  183.9380  178.7190  143.9160 C   0  0  0  0  0  3  0  0  0  0  0  0
  183.1030  177.5200  139.7780 C   0  0  2  0  0  3  0  0  0  0  0  0
  179.2270  179.6990  144.4780 F   0  0  0  0  0  0  0  0  0  0  0  0
  185.8590  178.4140  140.6280 C   0  0  0  0  0  2  0  0  0  0  0  0
  184.5560  178.2530  146.5320 Cl  0  0  0  0  0  0  0  0  0  0  0  0
  181.6000  177.3010  139.9430 C   0  0  0  0  0  2  0  0  0  0  0  0
  183.4640  178.9770  140.1010 C   0  0  2  0  0  3  0  0  0  0  0  0
  181.1060  179.4950  143.0280 C   0  0  0  0  0  3  0  0  0  0  0  0
  186.1820  177.9400  144.3620 C   0  0  0  0  0  3  0  0  0  0  0  0
  181.0520  177.8780  141.2150 C   0  0  0  0  0  0  0  0  0  0  0  0
  179.7620  177.5040  141.6050 C   0  0  0  0  0  3  0  0  0  0  0  0
  184.9290  179.2980  139.8030 C   0  0  0  0  0  2  0  0  0  0  0  0
  185.5000  178.4180  142.0840 C   0  0  0  0  0  0  0  0  0  0  0  0
  186.4700  177.9950  142.9980 C   0  0  0  0  0  3  0  0  0  0  0  0
  183.4010  174.8820  138.7180 O   0  0  0  0  0  0  0  0  0  0  0  0
  183.6260  175.8500  137.9450 C   0  0  0  0  0  0  0  0  0  0  0  0
  183.4920  177.1950  138.4130 N   0  0  0  0  0  2  0  0  0  0  0  0
  186.0420  173.5000  136.9870 C   0  0  0  0  0  0  0  0  0  0  0  0
  183.7690  174.1360  136.1130 C   0  0  0  0  0  2  0  0  0  0  0  0
  185.9700  177.2700  136.7140 C   0  0  0  0  0  1  0  0  0  0  0  0
  186.9010  172.6270  137.2760 O   0  0  0  0  0  0  0  0  0  0  0  0
  184.5980  173.1080  136.8880 C   0  0  0  0  0  2  0  0  0  0  0  0
  185.5630  175.8750  136.2730 C   0  0  2  0  0  3  0  0  0  0  0  0
  184.0800  175.5730  136.5380 C   0  0  2  0  0  3  0  0  0  0  0  0
  186.4390  174.8700  136.8670 N   0  0  0  0  0  2  0  0  0  0  0  0
  1  9  1  0  0  0  0
  2  5  1  1  0  0  0
  2  3  1  0  0  0  0
  3  7  1  0  0  0  0
  4 11  1  0  0  0  0
  5 14  2  0  0  0  0
  6  1  2  0  0  0  0
  7  4  2  0  0  0  0
  8 23  1  6  0  0  0
  8 12  1  0  0  0  0
  8 13  1  0  0  0  0
 10 19  1  0  0  0  0
 12 16  1  0  0  0  0
 13 18  1  1  0  0  0
 13  2  1  0  0  0  0
 14  1  1  0  0  0  0
 15  4  1  0  0  0  0
 16 17  2  0  0  0  0
 16  5  1  0  0  0  0
 17  6  1  0  0  0  0
 18 10  1  0  0  0  0
 19  3  2  0  0  0  0
 19 20  1  0  0  0  0
 20 15  2  0  0  0  0
 22 23  1  0  0  0  0
 22 21  2  0  0  0  0
 24 27  2  0  0  0  0
 25 30  1  0  0  0  0
 25 28  1  0  0  0  0
 28 24  1  0  0  0  0
 29 30  1  0  0  0  0
 29 26  1  1  0  0  0
 29 31  1  0  0  0  0
 30 22  1  1  0  0  0
 31 24  1  0  0  0  0
M  END
>  <MODEL>
8

>  <REMARK>
 VINA RESULT:      -7.5      3.593      6.299
  Name = 
  2 active torsions:
  status: ('A' for Active; 'I' for Inactive)
    1  A    between atoms: C_5  and  C_30
    2  A    between atoms: C_10  and  N_16
                            x       y       z     vdW  Elec       q    Type
                         _______ _______ _______ _____ _____    ______ ____

>  <TORSDO>
F 2

$$$$
=
 OpenBabel11122411053D

 31 35  0  0  1  0  0  0  0  0999 V2000
  185.0940  178.9120  144.6600 C   0  0  0  0  0  0  0  0  0  0  0  0
  188.8330  178.6750  143.9830 C   0  0  2  0  0  3  0  0  0  0  0  0
  189.4010  177.7360  145.0410 C   0  0  0  0  0  0  0  0  0  0  0  0
  189.2250  176.7120  147.2450 C   0  0  0  0  0  0  0  0  0  0  0  0
  187.3370  178.5390  143.8000 C   0  0  0  0  0  0  0  0  0  0  0  0
  184.5560  178.2450  143.5590 C   0  0  0  0  0  3  0  0  0  0  0  0
  188.6870  177.5030  146.2280 C   0  0  0  0  0  3  0  0  0  0  0  0
  189.1190  177.3300  141.8650 C   0  0  2  0  0  3  0  0  0  0  0  0
  184.2770  179.4130  145.6170 F   0  0  0  0  0  0  0  0  0  0  0  0
  191.5310  177.3920  143.6800 C   0  0  0  0  0  2  0  0  0  0  0  0
  188.3060  176.4220  148.7040 Cl  0  0  0  0  0  0  0  0  0  0  0  0
  187.6340  177.4350  141.5220 C   0  0  0  0  0  2  0  0  0  0  0  0
  189.5730  178.5780  142.6370 C   0  0  2  0  0  3  0  0  0  0  0  0
  186.4780  179.0610  144.7770 C   0  0  0  0  0  3  0  0  0  0  0  0
  190.4980  176.1600  147.0990 C   0  0  0  0  0  3  0  0  0  0  0  0
  186.7870  177.8710  142.6810 C   0  0  0  0  0  0  0  0  0  0  0  0
  185.3990  177.7370  142.5690 C   0  0  0  0  0  3  0  0  0  0  0  0
  191.0840  178.6050  142.8700 C   0  0  0  0  0  2  0  0  0  0  0  0
  190.7070  177.2030  144.9190 C   0  0  0  0  0  0  0  0  0  0  0  0
  191.2340  176.4040  145.9390 C   0  0  0  0  0  3  0  0  0  0  0  0
  188.6120  178.7140  139.4150 O   0  0  0  0  0  0  0  0  0  0  0  0
  189.5820  177.9110  139.4420 C   0  0  0  0  0  0  0  0  0  0  0  0
  189.8900  177.1890  140.6380 N   0  0  0  0  0  2  0  0  0  0  0  0
  189.7680  174.9190  137.6260 C   0  0  0  0  0  0  0  0  0  0  0  0
  189.4850  177.3400  136.9960 C   0  0  0  0  0  2  0  0  0  0  0  0
  192.4010  176.8730  139.5080 C   0  0  0  0  0  1  0  0  0  0  0  0
  189.4740  173.7060  137.4760 O   0  0  0  0  0  0  0  0  0  0  0  0
  188.8120  175.9740  137.1530 C   0  0  0  0  0  2  0  0  0  0  0  0
  191.4920  176.6320  138.3160 C   0  0  2  0  0  3  0  0  0  0  0  0
  190.3820  177.6860  138.1880 C   0  0  2  0  0  3  0  0  0  0  0  0
  190.9540  175.2750  138.3440 N   0  0  0  0  0  2  0  0  0  0  0  0
  1 14  1  0  0  0  0
  1  9  1  0  0  0  0
  2  5  1  6  0  0  0
  2  3  1  0  0  0  0
  3  7  1  0  0  0  0
  4 11  1  0  0  0  0
  5 14  2  0  0  0  0
  6  1  2  0  0  0  0
  7  4  2  0  0  0  0
  8 23  1  6  0  0  0
  8 13  1  0  0  0  0
 10 19  1  0  0  0  0
 12  8  1  0  0  0  0
 12 16  1  0  0  0  0
 13 18  1  1  0  0  0
 13  2  1  0  0  0  0
 15  4  1  0  0  0  0
 16  5  1  0  0  0  0
 17 16  2  0  0  0  0
 17  6  1  0  0  0  0
 18 10  1  0  0  0  0
 19  3  2  0  0  0  0
 19 20  1  0  0  0  0
 20 15  2  0  0  0  0
 21 22  2  0  0  0  0
 22 23  1  0  0  0  0
 24 31  1  0  0  0  0
 25 28  1  0  0  0  0
 25 30  1  0  0  0  0
 27 24  2  0  0  0  0
 28 24  1  0  0  0  0
 29 31  1  0  0  0  0
 29 26  1  1  0  0  0
 30 29  1  0  0  0  0
 30 22  1  1  0  0  0
M  END
>  <MODEL>
9

>  <REMARK>
 VINA RESULT:      -7.5      3.847      6.123
  Name = 
  2 active torsions:
  status: ('A' for Active; 'I' for Inactive)
    1  A    between atoms: C_5  and  C_30
    2  A    between atoms: C_10  and  N_16
                            x       y       z     vdW  Elec       q    Type
                         _______ _______ _______ _____ _____    ______ ____

>  <TORSDO>
F 2

$$$$
