=
 OpenBabel11122411513D

 28 32  0  0  1  0  0  0  0  0999 V2000
  182.2760  179.6100  138.6040 C   0  0  0  0  0  0  0  0  0  0  0  0
  179.8100  175.9910  139.0110 O   0  0  0  0  0  0  0  0  0  0  0  0
  183.9330  177.5160  134.8110 C   0  0  0  0  0  1  0  0  0  0  0  0
  180.7900  180.3270  136.3370 C   0  0  0  0  0  3  0  0  0  0  0  0
  184.7740  175.5970  136.2230 C   0  0  1  0  0  3  0  0  0  0  0  0
  183.1590  179.3000  139.7690 C   0  0  0  0  0  2  0  0  0  0  0  0
  178.9310  176.8050  136.8680 O   0  0  0  0  0  0  0  0  0  0  0  0
  179.9140  175.8730  137.5150 S   0  0  0  0  0  0  0  0  0  0  0  0
  180.7570  173.2840  137.2360 C   0  0  1  0  0  3  0  0  0  0  0  0
  181.5310  176.2460  136.9740 N   0  0  2  0  0  0  0  0  0  0  0  0
  186.5360  178.7890  140.1570 O   0  0  0  0  0  1  0  0  0  0  0  0
  183.6310  176.8000  137.9820 N   0  0  1  0  0  0  0  0  0  0  0  0
  181.9250  173.9760  137.7960 N   0  0  0  0  0  2  0  0  0  0  0  0
  179.5490  174.2000  137.0310 C   0  0  0  0  0  2  0  0  0  0  0  0
  185.3580  178.5370  139.4560 C   0  0  2  0  0  3  0  0  0  0  0  0
  181.8660  178.6100  137.6930 C   0  0  0  0  0  0  0  0  0  0  0  0
  184.8850  177.0750  135.9160 C   0  0  2  0  0  3  0  0  0  0  0  0
  181.1040  172.5420  135.9550 C   0  0  0  0  0  1  0  0  0  0  0  0
  185.7010  178.1320  138.0230 C   0  0  0  0  0  2  0  0  0  0  0  0
  181.1310  178.9910  136.5580 C   0  0  0  0  0  3  0  0  0  0  0  0
  181.9310  180.9470  138.3740 C   0  0  0  0  0  3  0  0  0  0  0  0
  181.1870  181.3040  137.2490 C   0  0  0  0  0  3  0  0  0  0  0  0
  184.5210  179.7270  139.4730 N   0  0  0  0  0  2  0  0  0  0  0  0
  183.7630  175.4830  137.3580 C   0  0  1  0  0  3  0  0  0  0  0  0
  184.4650  177.7380  137.2120 C   0  0  2  0  0  3  0  0  0  0  0  0
  182.3810  175.0510  136.9050 C   0  0  2  0  0  3  0  0  0  0  0  0
  184.4440  174.8230  135.1030 O   0  0  0  0  0  1  0  0  0  0  0  0
  182.1930  177.1360  137.9270 C   0  0  1  0  0  3  0  0  0  0  0  0
  1  6  1  0  0  0  0
  3 17  1  0  0  0  0
  4 20  2  0  0  0  0
  4 22  1  0  0  0  0
  5 27  1  6  0  0  0
  5 24  1  0  0  0  0
  7  8  2  0  0  0  0
  8  2  2  0  0  0  0
  9 18  1  6  0  0  0
  9 13  1  0  0  0  0
 10  8  1  1  0  0  0
 10 28  1  0  0  0  0
 14  9  1  0  0  0  0
 14  8  1  0  0  0  0
 15 23  1  0  0  0  0
 15 11  1  0  0  0  0
 16 28  1  0  0  0  0
 16  1  2  0  0  0  0
 17  5  1  0  0  0  0
 17 25  1  0  0  0  0
 19 15  1  0  0  0  0
 20 16  1  0  0  0  0
 21  1  1  0  0  0  0
 22 21  2  0  0  0  0
 23  6  1  0  0  0  0
 24 12  1  0  0  0  0
 25 12  1  0  0  0  0
 25 19  1  0  0  0  0
 26 10  1  0  0  0  0
 26 24  1  0  0  0  0
 26 13  1  0  0  0  0
 28 12  1  0  0  0  0
M  END
>  <MODEL>
1

>  <REMARK>
 VINA RESULT:      -5.4      0.000      0.000
  Name = 
  0 active torsions:
  status: ('A' for Active; 'I' for Inactive)
                            x       y       z     vdW  Elec       q    Type
                         _______ _______ _______ _____ _____    ______ ____

>  <TORSDO>
F 0

$$$$
=
 OpenBabel11122411513D

 28 32  0  0  1  0  0  0  0  0999 V2000
  180.8470  179.0560  142.3880 C   0  0  0  0  0  0  0  0  0  0  0  0
  179.8850  175.4670  140.0340 O   0  0  0  0  0  0  0  0  0  0  0  0
  183.4470  180.2180  138.7260 C   0  0  0  0  0  1  0  0  0  0  0  0
  179.3780  180.6020  140.5680 C   0  0  0  0  0  3  0  0  0  0  0  0
  184.8340  178.1280  139.0320 C   0  0  1  0  0  3  0  0  0  0  0  0
  181.6910  178.3360  143.3890 C   0  0  0  0  0  2  0  0  0  0  0  0
  178.9310  177.1650  138.5370 O   0  0  0  0  0  0  0  0  0  0  0  0
  180.1390  176.3190  138.8190 S   0  0  0  0  0  0  0  0  0  0  0  0
  181.9050  174.7580  137.4280 C   0  0  1  0  0  3  0  0  0  0  0  0
  181.5360  177.3370  139.0570 N   0  0  2  0  0  0  0  0  0  0  0  0
  184.9750  178.5680  144.3760 O   0  0  0  0  0  1  0  0  0  0  0  0
  183.1950  177.6690  140.7500 N   0  0  1  0  0  0  0  0  0  0  0  0
  182.6840  175.2310  138.5790 N   0  0  0  0  0  2  0  0  0  0  0  0
  180.4610  175.2650  137.4210 C   0  0  0  0  0  2  0  0  0  0  0  0
  184.0330  178.5090  143.3510 C   0  0  2  0  0  3  0  0  0  0  0  0
  180.9100  178.7570  141.0070 C   0  0  0  0  0  0  0  0  0  0  0  0
  184.4080  179.4530  139.6280 C   0  0  2  0  0  3  0  0  0  0  0  0
  182.5990  175.0710  136.1120 C   0  0  0  0  0  1  0  0  0  0  0  0
  184.6100  179.1660  142.0980 C   0  0  0  0  0  2  0  0  0  0  0  0
  180.1740  179.5510  140.1100 C   0  0  0  0  0  3  0  0  0  0  0  0
  180.0470  180.1140  142.8370 C   0  0  0  0  0  3  0  0  0  0  0  0
  179.3110  180.8800  141.9330 C   0  0  0  0  0  3  0  0  0  0  0  0
  182.8130  179.1810  143.7750 N   0  0  0  0  0  2  0  0  0  0  0  0
  183.8550  177.0940  139.5780 C   0  0  1  0  0  3  0  0  0  0  0  0
  183.6750  179.0540  140.8920 C   0  0  2  0  0  3  0  0  0  0  0  0
  182.7720  176.6970  138.5920 C   0  0  2  0  0  3  0  0  0  0  0  0
  184.9020  178.1470  137.6330 O   0  0  0  0  0  1  0  0  0  0  0  0
  181.7440  177.5910  140.4810 C   0  0  1  0  0  3  0  0  0  0  0  0
  1 21  1  0  0  0  0
  1  6  1  0  0  0  0
  3 17  1  0  0  0  0
  4 22  1  0  0  0  0
  5 27  1  6  0  0  0
  5 24  1  0  0  0  0
  5 17  1  0  0  0  0
  6 23  1  0  0  0  0
  7  8  2  0  0  0  0
  8  2  2  0  0  0  0
  9 18  1  6  0  0  0
  9 13  1  0  0  0  0
 10  8  1  1  0  0  0
 10 28  1  0  0  0  0
 12 25  1  0  0  0  0
 13 26  1  0  0  0  0
 14  9  1  0  0  0  0
 14  8  1  0  0  0  0
 15 23  1  0  0  0  0
 15 11  1  0  0  0  0
 16  1  2  0  0  0  0
 17 25  1  0  0  0  0
 19 15  1  0  0  0  0
 20  4  2  0  0  0  0
 20 16  1  0  0  0  0
 22 21  2  0  0  0  0
 24 12  1  0  0  0  0
 25 19  1  0  0  0  0
 26 10  1  0  0  0  0
 26 24  1  0  0  0  0
 28 12  1  0  0  0  0
 28 16  1  0  0  0  0
M  END
>  <MODEL>
2

>  <REMARK>
 VINA RESULT:      -5.4      2.721      3.556
  Name = 
  0 active torsions:
  status: ('A' for Active; 'I' for Inactive)
                            x       y       z     vdW  Elec       q    Type
                         _______ _______ _______ _____ _____    ______ ____

>  <TORSDO>
F 0

$$$$
=
 OpenBabel11122411513D

 28 32  0  0  1  0  0  0  0  0999 V2000
  181.9910  178.2400  137.3050 C   0  0  0  0  0  0  0  0  0  0  0  0
  181.1920  173.9200  137.5370 O   0  0  0  0  0  0  0  0  0  0  0  0
  185.5820  176.9830  134.6530 C   0  0  0  0  0  1  0  0  0  0  0  0
  181.2660  178.1940  134.5980 C   0  0  0  0  0  3  0  0  0  0  0  0
  186.5460  175.6460  136.5680 C   0  0  1  0  0  3  0  0  0  0  0  0
  182.4410  178.3670  138.7250 C   0  0  0  0  0  2  0  0  0  0  0  0
  180.8970  174.2280  135.1180 O   0  0  0  0  0  0  0  0  0  0  0  0
  181.8650  173.8260  136.1940 S   0  0  0  0  0  0  0  0  0  0  0  0
  183.7020  171.8490  136.6490 C   0  0  1  0  0  3  0  0  0  0  0  0
  183.2780  174.8490  136.1350 N   0  0  2  0  0  0  0  0  0  0  0  0
  185.3580  179.3720  140.2400 O   0  0  0  0  0  1  0  0  0  0  0  0
  184.4720  176.2770  137.6400 N   0  0  1  0  0  0  0  0  0  0  0  0
  184.2140  172.9890  137.4200 N   0  0  0  0  0  2  0  0  0  0  0  0
  182.3920  172.1480  135.9180 C   0  0  0  0  0  2  0  0  0  0  0  0
  184.7140  178.6200  139.2580 C   0  0  2  0  0  3  0  0  0  0  0  0
  182.3670  177.1400  136.5000 C   0  0  0  0  0  0  0  0  0  0  0  0
  186.1640  177.0200  136.0600 C   0  0  2  0  0  3  0  0  0  0  0  0
  184.7490  171.3020  135.6920 C   0  0  0  0  0  1  0  0  0  0  0  0
  185.6800  178.3720  138.1000 C   0  0  0  0  0  2  0  0  0  0  0  0
  182.0030  177.1410  135.1430 C   0  0  0  0  0  3  0  0  0  0  0  0
  181.2530  179.2910  136.7500 C   0  0  0  0  0  3  0  0  0  0  0  0
  180.8870  179.2670  135.4030 C   0  0  0  0  0  3  0  0  0  0  0  0
  183.5300  179.3320  138.8030 N   0  0  0  0  0  2  0  0  0  0  0  0
  185.3280  175.1320  137.3290 C   0  0  1  0  0  3  0  0  0  0  0  0
  185.0820  177.4660  137.0220 C   0  0  2  0  0  3  0  0  0  0  0  0
  184.4930  174.1360  136.5450 C   0  0  2  0  0  3  0  0  0  0  0  0
  186.9750  174.7810  135.5530 O   0  0  0  0  0  1  0  0  0  0  0  0
  183.1430  175.9570  137.0770 C   0  0  1  0  0  3  0  0  0  0  0  0
  1  6  1  0  0  0  0
  3 17  1  0  0  0  0
  4 20  2  0  0  0  0
  4 22  1  0  0  0  0
  5 27  1  6  0  0  0
  5 24  1  0  0  0  0
  6 23  1  0  0  0  0
  7  8  2  0  0  0  0
  8  2  2  0  0  0  0
  9 18  1  6  0  0  0
  9 13  1  0  0  0  0
 10  8  1  1  0  0  0
 10 26  1  0  0  0  0
 10 28  1  0  0  0  0
 14  8  1  0  0  0  0
 14  9  1  0  0  0  0
 15 11  1  0  0  0  0
 16 28  1  0  0  0  0
 16  1  2  0  0  0  0
 17  5  1  0  0  0  0
 17 25  1  0  0  0  0
 19 15  1  0  0  0  0
 20 16  1  0  0  0  0
 21  1  1  0  0  0  0
 22 21  2  0  0  0  0
 23 15  1  0  0  0  0
 24 12  1  0  0  0  0
 25 12  1  0  0  0  0
 25 19  1  0  0  0  0
 26 24  1  0  0  0  0
 26 13  1  0  0  0  0
 28 12  1  0  0  0  0
M  END
>  <MODEL>
3

>  <REMARK>
 VINA RESULT:      -5.3      1.935      2.327
  Name = 
  0 active torsions:
  status: ('A' for Active; 'I' for Inactive)
                            x       y       z     vdW  Elec       q    Type
                         _______ _______ _______ _____ _____    ______ ____

>  <TORSDO>
F 0

$$$$
=
 OpenBabel11122411513D

 28 32  0  0  1  0  0  0  0  0999 V2000
  189.6100  177.9570  138.1900 C   0  0  0  0  0  0  0  0  0  0  0  0
  193.7310  177.3550  136.7740 O   0  0  0  0  0  0  0  0  0  0  0  0
  189.0920  173.4500  137.2230 C   0  0  0  0  0  1  0  0  0  0  0  0
  190.1870  176.3810  140.4350 C   0  0  0  0  0  3  0  0  0  0  0  0
  189.6450  173.8940  134.7980 C   0  0  1  0  0  3  0  0  0  0  0  0
  189.1830  178.7710  137.0110 C   0  0  0  0  0  2  0  0  0  0  0  0
  193.7700  175.8340  138.7020 O   0  0  0  0  0  0  0  0  0  0  0  0
  193.5670  175.9260  137.2170 S   0  0  0  0  0  0  0  0  0  0  0  0
  194.3380  174.5730  134.9660 C   0  0  1  0  0  3  0  0  0  0  0  0
  191.9850  175.3230  136.7940 N   0  0  2  0  0  0  0  0  0  0  0  0
  186.7660  178.4160  134.5940 O   0  0  0  0  0  1  0  0  0  0  0  0
  190.0570  176.1280  135.6250 N   0  0  1  0  0  0  0  0  0  0  0  0
  193.0460  175.1650  134.5960 N   0  0  0  0  0  2  0  0  0  0  0  0
  194.7760  174.9140  136.3920 C   0  0  0  0  0  2  0  0  0  0  0  0
  187.8010  177.8610  135.3450 C   0  0  2  0  0  3  0  0  0  0  0  0
  190.4280  176.8130  138.0480 C   0  0  0  0  0  0  0  0  0  0  0  0
  188.6780  174.1490  135.9350 C   0  0  2  0  0  3  0  0  0  0  0  0
  194.3550  173.0710  134.7330 C   0  0  0  0  0  1  0  0  0  0  0  0
  187.6140  176.3460  135.4200 C   0  0  0  0  0  2  0  0  0  0  0  0
  190.6970  176.0300  139.1840 C   0  0  0  0  0  3  0  0  0  0  0  0
  189.1020  178.3000  139.4490 C   0  0  0  0  0  3  0  0  0  0  0  0
  189.3930  177.5190  140.5680 C   0  0  0  0  0  3  0  0  0  0  0  0
  187.8020  178.4500  136.6750 N   0  0  0  0  0  2  0  0  0  0  0  0
  190.6440  175.0450  134.8360 C   0  0  1  0  0  3  0  0  0  0  0  0
  188.7660  175.6480  136.1440 C   0  0  2  0  0  3  0  0  0  0  0  0
  191.9720  174.6820  135.4740 C   0  0  2  0  0  3  0  0  0  0  0  0
  190.2480  172.6310  134.8580 O   0  0  0  0  0  1  0  0  0  0  0  0
  191.0290  176.4250  136.6980 C   0  0  1  0  0  3  0  0  0  0  0  0
  1 21  1  0  0  0  0
  2  8  2  0  0  0  0
  4 22  1  0  0  0  0
  5 24  1  0  0  0  0
  5 27  1  1  0  0  0
  5 17  1  0  0  0  0
  6  1  1  0  0  0  0
  8  7  2  0  0  0  0
  9 18  1  1  0  0  0
  9 14  1  0  0  0  0
 10  8  1  6  0  0  0
 11 15  1  0  0  0  0
 12 25  1  0  0  0  0
 12 28  1  0  0  0  0
 13  9  1  0  0  0  0
 13 26  1  0  0  0  0
 14  8  1  0  0  0  0
 15 19  1  0  0  0  0
 15 23  1  0  0  0  0
 16  1  2  0  0  0  0
 16 20  1  0  0  0  0
 17 25  1  0  0  0  0
 17  3  1  0  0  0  0
 19 25  1  0  0  0  0
 20  4  2  0  0  0  0
 21 22  2  0  0  0  0
 23  6  1  0  0  0  0
 24 26  1  0  0  0  0
 24 12  1  0  0  0  0
 26 10  1  0  0  0  0
 28 10  1  0  0  0  0
 28 16  1  0  0  0  0
M  END
>  <MODEL>
4

>  <REMARK>
 VINA RESULT:      -5.2      6.754      9.530
  Name = 
  0 active torsions:
  status: ('A' for Active; 'I' for Inactive)
                            x       y       z     vdW  Elec       q    Type
                         _______ _______ _______ _____ _____    ______ ____

>  <TORSDO>
F 0

$$$$
=
 OpenBabel11122411513D

 28 32  0  0  1  0  0  0  0  0999 V2000
  187.9710  177.5740  137.7170 C   0  0  0  0  0  0  0  0  0  0  0  0
  185.9040  173.7010  137.4320 O   0  0  0  0  0  0  0  0  0  0  0  0
  190.8750  175.7520  134.5940 C   0  0  0  0  0  1  0  0  0  0  0  0
  187.1370  178.1730  135.1090 C   0  0  0  0  0  3  0  0  0  0  0  0
  191.4750  173.9050  136.2100 C   0  0  1  0  0  3  0  0  0  0  0  0
  188.5060  177.3370  139.0920 C   0  0  0  0  0  2  0  0  0  0  0  0
  185.6000  174.4610  135.1160 O   0  0  0  0  0  0  0  0  0  0  0  0
  186.4510  173.6270  136.0320 S   0  0  0  0  0  0  0  0  0  0  0  0
  187.6160  171.1510  136.0400 C   0  0  1  0  0  3  0  0  0  0  0  0
  188.1040  174.1840  135.9800 N   0  0  2  0  0  0  0  0  0  0  0  0
  191.6600  177.1860  140.4500 O   0  0  0  0  0  1  0  0  0  0  0  0
  189.7470  174.9410  137.5480 N   0  0  1  0  0  0  0  0  0  0  0  0
  188.4880  171.9530  136.9070 N   0  0  0  0  0  2  0  0  0  0  0  0
  186.4260  171.9340  135.4820 C   0  0  0  0  0  2  0  0  0  0  0  0
  190.7710  176.8220  139.4400 C   0  0  2  0  0  3  0  0  0  0  0  0
  187.9540  176.5540  136.7380 C   0  0  0  0  0  0  0  0  0  0  0  0
  191.5080  175.3930  135.9320 C   0  0  2  0  0  3  0  0  0  0  0  0
  188.3990  170.4780  134.9230 C   0  0  0  0  0  1  0  0  0  0  0  0
  191.5570  176.4870  138.1730 C   0  0  0  0  0  2  0  0  0  0  0  0
  187.5430  176.8780  135.4340 C   0  0  0  0  0  3  0  0  0  0  0  0
  187.5630  178.8710  137.3810 C   0  0  0  0  0  3  0  0  0  0  0  0
  187.1420  179.1690  136.0850 C   0  0  0  0  0  3  0  0  0  0  0  0
  189.8400  177.9140  139.1990 N   0  0  0  0  0  2  0  0  0  0  0  0
  190.1980  173.6590  137.0050 C   0  0  1  0  0  3  0  0  0  0  0  0
  190.6610  175.9800  137.0430 C   0  0  2  0  0  3  0  0  0  0  0  0
  189.0620  173.0900  136.1740 C   0  0  2  0  0  3  0  0  0  0  0  0
  191.5710  173.1240  135.0520 O   0  0  0  0  0  1  0  0  0  0  0  0
  188.3590  175.1200  137.0740 C   0  0  1  0  0  3  0  0  0  0  0  0
  1  6  1  0  0  0  0
  3 17  1  0  0  0  0
  4 20  2  0  0  0  0
  4 22  1  0  0  0  0
  5 27  1  6  0  0  0
  5 24  1  0  0  0  0
  6 23  1  0  0  0  0
  7  8  2  0  0  0  0
  8  2  2  0  0  0  0
  9 18  1  6  0  0  0
  9 13  1  0  0  0  0
 10  8  1  1  0  0  0
 10 26  1  0  0  0  0
 10 28  1  0  0  0  0
 14  8  1  0  0  0  0
 14  9  1  0  0  0  0
 15 11  1  0  0  0  0
 16 28  1  0  0  0  0
 16  1  2  0  0  0  0
 17  5  1  0  0  0  0
 17 25  1  0  0  0  0
 19 15  1  0  0  0  0
 20 16  1  0  0  0  0
 21  1  1  0  0  0  0
 22 21  2  0  0  0  0
 23 15  1  0  0  0  0
 24 12  1  0  0  0  0
 25 12  1  0  0  0  0
 25 19  1  0  0  0  0
 26 13  1  0  0  0  0
 26 24  1  0  0  0  0
 28 12  1  0  0  0  0
M  END
>  <MODEL>
5

>  <REMARK>
 VINA RESULT:      -5.0      5.424      6.664
  Name = 
  0 active torsions:
  status: ('A' for Active; 'I' for Inactive)
                            x       y       z     vdW  Elec       q    Type
                         _______ _______ _______ _____ _____    ______ ____

>  <TORSDO>
F 0

$$$$
=
 OpenBabel11122411513D

 28 32  0  0  1  0  0  0  0  0999 V2000
  182.8600  178.2360  142.0790 C   0  0  0  0  0  0  0  0  0  0  0  0
  180.9560  174.4660  140.8480 O   0  0  0  0  0  0  0  0  0  0  0  0
  180.7550  180.0020  138.3420 C   0  0  0  0  0  1  0  0  0  0  0  0
  180.3330  179.2550  142.7430 C   0  0  0  0  0  3  0  0  0  0  0  0
  182.0240  178.4020  136.8550 C   0  0  1  0  0  3  0  0  0  0  0  0
  184.2450  177.8100  141.7150 C   0  0  0  0  0  2  0  0  0  0  0  0
  178.9310  175.7850  141.2830 O   0  0  0  0  0  0  0  0  0  0  0  0
  179.8910  175.3260  140.2230 S   0  0  0  0  0  0  0  0  0  0  0  0
  179.7910  174.3000  137.6880 C   0  0  1  0  0  3  0  0  0  0  0  0
  180.5970  176.7060  139.4210 N   0  0  2  0  0  0  0  0  0  0  0  0
  186.6300  178.9930  139.5410 O   0  0  0  0  0  1  0  0  0  0  0  0
  182.7970  177.5370  138.9770 N   0  0  1  0  0  0  0  0  0  0  0  0
  181.0790  175.0020  137.7330 N   0  0  0  0  0  2  0  0  0  0  0  0
  179.0110  174.3740  139.0020 C   0  0  0  0  0  2  0  0  0  0  0  0
  185.3040  178.6430  139.7920 C   0  0  2  0  0  3  0  0  0  0  0  0
  181.7480  177.9350  141.2600 C   0  0  0  0  0  0  0  0  0  0  0  0
  182.1170  179.5650  137.8200 C   0  0  2  0  0  3  0  0  0  0  0  0
  178.9370  174.7660  136.5200 C   0  0  0  0  0  1  0  0  0  0  0  0
  184.3910  179.4070  138.8330 C   0  0  0  0  0  2  0  0  0  0  0  0
  180.4920  178.4640  141.6040 C   0  0  0  0  0  3  0  0  0  0  0  0
  182.6910  179.0320  143.2190 C   0  0  0  0  0  3  0  0  0  0  0  0
  181.4330  179.5350  143.5530 C   0  0  0  0  0  3  0  0  0  0  0  0
  184.9760  178.9490  141.1760 N   0  0  0  0  0  2  0  0  0  0  0  0
  182.1960  177.1460  137.7010 C   0  0  1  0  0  3  0  0  0  0  0  0
  182.9230  179.0040  138.9740 C   0  0  2  0  0  3  0  0  0  0  0  0
  180.8930  176.4330  138.0100 C   0  0  2  0  0  3  0  0  0  0  0  0
  180.8470  178.4060  136.0970 O   0  0  0  0  0  1  0  0  0  0  0  0
  181.8840  177.0420  140.0270 C   0  0  1  0  0  3  0  0  0  0  0  0
  1 21  1  0  0  0  0
  4 22  1  0  0  0  0
  5 27  1  1  0  0  0
  5 24  1  0  0  0  0
  5 17  1  0  0  0  0
  6  1  1  0  0  0  0
  8  2  2  0  0  0  0
  8  7  2  0  0  0  0
  9 18  1  6  0  0  0
  9 13  1  0  0  0  0
  9 14  1  0  0  0  0
 10 28  1  0  0  0  0
 10  8  1  1  0  0  0
 11 15  1  0  0  0  0
 12 28  1  0  0  0  0
 13 26  1  0  0  0  0
 14  8  1  0  0  0  0
 15 23  1  0  0  0  0
 16 20  1  0  0  0  0
 16  1  2  0  0  0  0
 17  3  1  0  0  0  0
 17 25  1  0  0  0  0
 19 25  1  0  0  0  0
 19 15  1  0  0  0  0
 20  4  2  0  0  0  0
 21 22  2  0  0  0  0
 23  6  1  0  0  0  0
 24 26  1  0  0  0  0
 24 12  1  0  0  0  0
 25 12  1  0  0  0  0
 26 10  1  0  0  0  0
 28 16  1  0  0  0  0
M  END
>  <MODEL>
6

>  <REMARK>
 VINA RESULT:      -4.6      2.227      3.565
  Name = 
  0 active torsions:
  status: ('A' for Active; 'I' for Inactive)
                            x       y       z     vdW  Elec       q    Type
                         _______ _______ _______ _____ _____    ______ ____

>  <TORSDO>
F 0

$$$$
=
 OpenBabel11122411513D

 28 32  0  0  1  0  0  0  0  0999 V2000
  185.2420  174.8800  136.9800 C   0  0  0  0  0  0  0  0  0  0  0  0
  183.5240  177.1270  140.3500 O   0  0  0  0  0  0  0  0  0  0  0  0
  181.2850  175.9680  134.8170 C   0  0  0  0  0  1  0  0  0  0  0  0
  185.5070  177.2820  135.5580 C   0  0  0  0  0  3  0  0  0  0  0  0
  179.9650  174.7340  136.5840 C   0  0  1  0  0  3  0  0  0  0  0  0
  185.1020  173.5420  137.6300 C   0  0  0  0  0  2  0  0  0  0  0  0
  183.6650  178.9530  138.7140 O   0  0  0  0  0  0  0  0  0  0  0  0
  182.7660  177.9090  139.3110 S   0  0  0  0  0  0  0  0  0  0  0  0
  180.2060  177.7230  140.2600 C   0  0  1  0  0  3  0  0  0  0  0  0
  182.1640  176.8540  138.0580 N   0  0  2  0  0  0  0  0  0  0  0  0
  183.4310  170.6470  136.8320 O   0  0  0  0  0  1  0  0  0  0  0  0
  182.1450  174.5030  137.6050 N   0  0  1  0  0  0  0  0  0  0  0  0
  180.5050  176.3660  139.7880 N   0  0  0  0  0  2  0  0  0  0  0  0
  181.3690  178.7010  140.0770 C   0  0  0  0  0  2  0  0  0  0  0  0
  183.4320  172.0350  136.9560 C   0  0  2  0  0  3  0  0  0  0  0  0
  184.2300  175.8630  137.0740 C   0  0  0  0  0  0  0  0  0  0  0  0
  180.9860  174.6250  135.4700 C   0  0  2  0  0  3  0  0  0  0  0  0
  178.9310  178.2670  139.6360 C   0  0  0  0  0  1  0  0  0  0  0  0
  182.3670  172.6240  136.0310 C   0  0  0  0  0  2  0  0  0  0  0  0
  184.3770  177.0560  136.3450 C   0  0  0  0  0  3  0  0  0  0  0  0
  186.3710  175.1160  136.1870 C   0  0  0  0  0  3  0  0  0  0  0  0
  186.5070  176.3130  135.4840 C   0  0  0  0  0  3  0  0  0  0  0  0
  184.7510  172.5490  136.6220 N   0  0  0  0  0  2  0  0  0  0  0  0
  180.7680  174.9240  137.8660 C   0  0  1  0  0  3  0  0  0  0  0  0
  182.2340  174.1400  136.1810 C   0  0  2  0  0  3  0  0  0  0  0  0
  180.8140  176.3610  138.3520 C   0  0  2  0  0  3  0  0  0  0  0  0
  179.0160  175.7410  136.3660 O   0  0  0  0  0  1  0  0  0  0  0  0
  182.9980  175.6580  137.9550 C   0  0  1  0  0  3  0  0  0  0  0  0
  1 16  1  0  0  0  0
  1  6  1  0  0  0  0
  3 17  1  0  0  0  0
  4 20  1  0  0  0  0
  5 27  1  6  0  0  0
  5 24  1  0  0  0  0
  7  8  2  0  0  0  0
  8 14  1  0  0  0  0
  8  2  2  0  0  0  0
  9 18  1  6  0  0  0
 10 26  1  0  0  0  0
 10  8  1  1  0  0  0
 11 15  1  0  0  0  0
 12 24  1  0  0  0  0
 12 28  1  0  0  0  0
 13  9  1  0  0  0  0
 14  9  1  0  0  0  0
 16 28  1  0  0  0  0
 17 25  1  0  0  0  0
 17  5  1  0  0  0  0
 19 25  1  0  0  0  0
 19 15  1  0  0  0  0
 20 16  2  0  0  0  0
 21  1  2  0  0  0  0
 22  4  2  0  0  0  0
 22 21  1  0  0  0  0
 23 15  1  0  0  0  0
 23  6  1  0  0  0  0
 24 26  1  0  0  0  0
 25 12  1  0  0  0  0
 26 13  1  0  0  0  0
 28 10  1  0  0  0  0
M  END
>  <MODEL>
7

>  <REMARK>
 VINA RESULT:      -4.4      2.495      5.398
  Name = 
  0 active torsions:
  status: ('A' for Active; 'I' for Inactive)
                            x       y       z     vdW  Elec       q    Type
                         _______ _______ _______ _____ _____    ______ ____

>  <TORSDO>
F 0

$$$$
=
 OpenBabel11122411513D

 28 32  0  0  1  0  0  0  0  0999 V2000
  185.1580  174.9290  137.2820 C   0  0  0  0  0  0  0  0  0  0  0  0
  183.2850  177.1810  140.5630 O   0  0  0  0  0  0  0  0  0  0  0  0
  182.1240  177.1850  134.5950 C   0  0  0  0  0  1  0  0  0  0  0  0
  186.2620  177.3180  136.3170 C   0  0  0  0  0  3  0  0  0  0  0  0
  180.2040  176.1500  135.8710 C   0  0  1  0  0  3  0  0  0  0  0  0
  184.5820  173.6090  137.6820 C   0  0  0  0  0  2  0  0  0  0  0  0
  184.1890  179.0700  139.2790 O   0  0  0  0  0  0  0  0  0  0  0  0
  182.9700  178.2290  139.5300 S   0  0  0  0  0  0  0  0  0  0  0  0
  180.2890  178.5960  139.9350 C   0  0  1  0  0  3  0  0  0  0  0  0
  182.4400  177.4910  138.0400 N   0  0  2  0  0  0  0  0  0  0  0  0
  182.5240  171.3210  136.1520 O   0  0  0  0  0  1  0  0  0  0  0  0
  181.9960  175.2780  137.2410 N   0  0  1  0  0  0  0  0  0  0  0  0
  180.3730  177.2610  139.3290 N   0  0  0  0  0  2  0  0  0  0  0  0
  181.6510  179.2640  140.1270 C   0  0  0  0  0  2  0  0  0  0  0  0
  182.8080  172.6450  136.4830 C   0  0  2  0  0  3  0  0  0  0  0  0
  184.3960  176.1190  137.3290 C   0  0  0  0  0  0  0  0  0  0  0  0
  181.3950  175.9010  134.9680 C   0  0  2  0  0  3  0  0  0  0  0  0
  179.3380  179.5020  139.1690 C   0  0  0  0  0  1  0  0  0  0  0  0
  182.1350  173.5720  135.4720 C   0  0  0  0  0  2  0  0  0  0  0  0
  184.9640  177.3040  136.8300 C   0  0  0  0  0  3  0  0  0  0  0  0
  186.4580  174.9530  136.7630 C   0  0  0  0  0  3  0  0  0  0  0  0
  187.0100  176.1420  136.2880 C   0  0  0  0  0  3  0  0  0  0  0  0
  184.2500  172.8430  136.4880 N   0  0  0  0  0  2  0  0  0  0  0  0
  180.7260  176.0020  137.2960 C   0  0  1  0  0  3  0  0  0  0  0  0
  182.3140  175.0510  135.8220 C   0  0  2  0  0  3  0  0  0  0  0  0
  180.9830  177.3250  137.9930 C   0  0  2  0  0  3  0  0  0  0  0  0
  179.5770  177.3790  135.6320 O   0  0  0  0  0  1  0  0  0  0  0  0
  182.9870  176.1410  137.9180 C   0  0  1  0  0  3  0  0  0  0  0  0
  1 16  1  0  0  0  0
  1  6  1  0  0  0  0
  3 17  1  0  0  0  0
  4 20  1  0  0  0  0
  5 27  1  1  0  0  0
  5 24  1  0  0  0  0
  7  8  2  0  0  0  0
  8 14  1  0  0  0  0
  8  2  2  0  0  0  0
  9 18  1  6  0  0  0
  9 14  1  0  0  0  0
 10  8  1  1  0  0  0
 11 15  1  0  0  0  0
 12 24  1  0  0  0  0
 12 28  1  0  0  0  0
 13  9  1  0  0  0  0
 15 23  1  0  0  0  0
 16 28  1  0  0  0  0
 17 25  1  0  0  0  0
 17  5  1  0  0  0  0
 19 25  1  0  0  0  0
 19 15  1  0  0  0  0
 20 16  2  0  0  0  0
 21  1  2  0  0  0  0
 22  4  2  0  0  0  0
 22 21  1  0  0  0  0
 23  6  1  0  0  0  0
 24 26  1  0  0  0  0
 25 12  1  0  0  0  0
 26 10  1  0  0  0  0
 26 13  1  0  0  0  0
 28 10  1  0  0  0  0
M  END
>  <MODEL>
8

>  <REMARK>
 VINA RESULT:      -4.2      2.297      5.455
  Name = 
  0 active torsions:
  status: ('A' for Active; 'I' for Inactive)
                            x       y       z     vdW  Elec       q    Type
                         _______ _______ _______ _____ _____    ______ ____

>  <TORSDO>
F 0

$$$$
=
 OpenBabel11122411513D

 28 32  0  0  1  0  0  0  0  0999 V2000
  182.5120  178.8660  138.3740 C   0  0  0  0  0  0  0  0  0  0  0  0
  186.6980  179.4570  137.1590 O   0  0  0  0  0  0  0  0  0  0  0  0
  183.4980  174.3520  137.9690 C   0  0  0  0  0  1  0  0  0  0  0  0
  183.4050  177.8150  140.8150 C   0  0  0  0  0  3  0  0  0  0  0  0
  184.0440  174.6770  135.5230 C   0  0  1  0  0  3  0  0  0  0  0  0
  181.9310  179.3650  137.0910 C   0  0  0  0  0  2  0  0  0  0  0  0
  187.0850  178.2520  139.2630 O   0  0  0  0  0  0  0  0  0  0  0  0
  186.9620  178.1090  137.7730 S   0  0  0  0  0  0  0  0  0  0  0  0
  188.2650  176.8330  135.7330 C   0  0  1  0  0  3  0  0  0  0  0  0
  185.6800  176.9900  137.3870 N   0  0  2  0  0  0  0  0  0  0  0  0
  179.9120  177.9920  134.6720 O   0  0  0  0  0  1  0  0  0  0  0  0
  183.6780  177.0030  136.0740 N   0  0  1  0  0  0  0  0  0  0  0  0
  186.8800  176.9360  135.2560 N   0  0  0  0  0  2  0  0  0  0  0  0
  188.4790  177.4510  137.1160 C   0  0  0  0  0  2  0  0  0  0  0  0
  181.0170  177.8830  135.5150 C   0  0  2  0  0  3  0  0  0  0  0  0
  183.6560  178.0350  138.4000 C   0  0  0  0  0  0  0  0  0  0  0  0
  182.9720  174.7350  136.5910 C   0  0  2  0  0  3  0  0  0  0  0  0
  188.7670  175.3990  135.6920 C   0  0  0  0  0  1  0  0  0  0  0  0
  181.3090  176.4060  135.7750 C   0  0  0  0  0  2  0  0  0  0  0  0
  184.0810  177.5090  139.6320 C   0  0  0  0  0  3  0  0  0  0  0  0
  181.8410  179.1660  139.5650 C   0  0  0  0  0  3  0  0  0  0  0  0
  182.2870  178.6470  140.7810 C   0  0  0  0  0  3  0  0  0  0  0  0
  180.7450  178.5850  136.7610 N   0  0  0  0  0  2  0  0  0  0  0  0
  184.6260  176.0840  135.4430 C   0  0  1  0  0  3  0  0  0  0  0  0
  182.5710  176.1960  136.6130 C   0  0  2  0  0  3  0  0  0  0  0  0
  185.9550  176.2360  136.1580 C   0  0  2  0  0  3  0  0  0  0  0  0
  185.0060  173.6880  135.7590 O   0  0  0  0  0  1  0  0  0  0  0  0
  184.4360  177.7110  137.1270 C   0  0  1  0  0  3  0  0  0  0  0  0
  1 16  2  0  0  0  0
  1 21  1  0  0  0  0
  2  8  2  0  0  0  0
  5 27  1  1  0  0  0
  5 17  1  0  0  0  0
  6  1  1  0  0  0  0
  8  7  2  0  0  0  0
  9 18  1  1  0  0  0
  9 14  1  0  0  0  0
 10  8  1  6  0  0  0
 11 15  1  0  0  0  0
 12 25  1  0  0  0  0
 12 28  1  0  0  0  0
 13  9  1  0  0  0  0
 13 26  1  0  0  0  0
 14  8  1  0  0  0  0
 15 19  1  0  0  0  0
 15 23  1  0  0  0  0
 16 20  1  0  0  0  0
 17 25  1  0  0  0  0
 17  3  1  0  0  0  0
 19 25  1  0  0  0  0
 20  4  2  0  0  0  0
 21 22  2  0  0  0  0
 22  4  1  0  0  0  0
 23  6  1  0  0  0  0
 24  5  1  0  0  0  0
 24 12  1  0  0  0  0
 24 26  1  0  0  0  0
 26 10  1  0  0  0  0
 28 10  1  0  0  0  0
 28 16  1  0  0  0  0
M  END
>  <MODEL>
9

>  <REMARK>
 VINA RESULT:      -4.2      2.557      5.343
  Name = 
  0 active torsions:
  status: ('A' for Active; 'I' for Inactive)
                            x       y       z     vdW  Elec       q    Type
                         _______ _______ _______ _____ _____    ______ ____

>  <TORSDO>
F 0

$$$$
