=
 OpenBabel11122410343D

 30 35  0  0  1  0  0  0  0  0999 V2000
  187.0760  177.6540  142.6190 C   0  0  2  0  0  3  0  0  0  0  0  0
  185.0950  179.2340  142.3060 C   0  0  0  0  0  0  0  0  0  0  0  0
  186.1610  177.6290  146.7070 O   0  0  0  0  0  0  0  0  0  0  0  0
  188.0780  177.3250  143.7390 C   0  0  2  0  0  3  0  0  0  0  0  0
  187.7490  178.4430  141.6560 O   0  0  0  0  0  0  0  0  0  0  0  0
  190.9110  177.1900  141.6460 O   0  0  0  0  0  0  0  0  0  0  0  0
  190.7170  177.2020  145.1280 C   0  0  1  0  0  3  0  0  0  0  0  0
  189.7180  177.1110  141.9040 C   0  0  0  0  0  0  0  0  0  0  0  0
  189.6150  177.7870  146.0400 C   0  0  2  0  0  3  0  0  0  0  0  0
  187.4160  177.4250  147.2310 C   0  0  0  0  0  0  0  0  0  0  0  0
  188.6530  177.6150  140.9580 C   0  0  2  0  0  3  0  0  0  0  0  0
  189.2090  176.4610  143.1660 C   0  0  1  0  0  3  0  0  0  0  0  0
  183.9730  179.8970  142.8050 C   0  0  0  0  0  3  0  0  0  0  0  0
  190.3270  178.0890  147.3470 C   0  0  0  0  0  2  0  0  0  0  0  0
  191.8570  176.7640  146.0380 C   0  0  0  0  0  2  0  0  0  0  0  0
  185.4230  179.4100  140.9660 O   0  0  0  0  0  1  0  0  0  0  0  0
  186.0670  177.1560  145.3770 C   0  0  2  0  0  3  0  0  0  0  0  0
  183.5730  179.7100  144.1250 C   0  0  0  0  0  3  0  0  0  0  0  0
  185.8650  178.3940  143.1490 C   0  0  0  0  0  0  0  0  0  0  0  0
  187.4850  176.6760  144.9940 C   0  0  2  0  0  3  0  0  0  0  0  0
  187.6820  177.6520  148.4410 O   0  0  0  0  0  0  0  0  0  0  0  0
  188.3820  176.8570  146.2550 C   0  0  1  0  0  3  0  0  0  0  0  0
  191.4360  177.0710  147.4580 C   0  0  0  0  0  2  0  0  0  0  0  0
  191.3460  175.3980  143.6210 O   0  0  0  0  0  1  0  0  0  0  0  0
  184.2870  178.8440  144.9490 C   0  0  0  0  0  3  0  0  0  0  0  0
  185.4300  178.1840  144.4780 C   0  0  0  0  0  0  0  0  0  0  0  0
  190.2630  176.0520  144.2150 C   0  0  1  0  0  3  0  0  0  0  0  0
  189.2340  178.3670  139.8030 C   0  0  0  0  0  3  0  0  0  0  0  0
  189.0490  179.3350  137.6700 O   0  0  0  0  0  1  0  0  0  0  0  0
  188.4970  178.6360  138.7350 C   0  0  0  0  0  3  0  0  0  0  0  0
  1  5  1  6  0  0  0
  1 19  1  0  0  0  0
  1  4  1  0  0  0  0
  2 13  2  0  0  0  0
  2 19  1  0  0  0  0
  3 10  1  0  0  0  0
  4 20  1  0  0  0  0
  6  8  2  0  0  0  0
  7 15  1  0  0  0  0
  7  9  1  0  0  0  0
  8 12  1  0  0  0  0
  9 22  1  0  0  0  0
  9 14  1  0  0  0  0
 10 21  2  0  0  0  0
 11  5  1  0  0  0  0
 11  8  1  0  0  0  0
 12  4  1  0  0  0  0
 12 27  1  0  0  0  0
 13 18  1  0  0  0  0
 14 23  1  0  0  0  0
 15 23  1  0  0  0  0
 16  2  1  0  0  0  0
 17  3  1  0  0  0  0
 18 25  2  0  0  0  0
 19 26  2  0  0  0  0
 20 17  1  0  0  0  0
 20 22  1  0  0  0  0
 22 10  1  0  0  0  0
 24 27  1  0  0  0  0
 26 25  1  0  0  0  0
 26 17  1  0  0  0  0
 27  7  1  0  0  0  0
 28 11  1  0  0  0  0
 29 30  1  0  0  0  0
 30 28  2  0  0  0  0
M  END
>  <MODEL>
1

>  <REMARK>
 VINA RESULT:      -9.8      0.000      0.000
  Name = 
  1 active torsions:
  status: ('A' for Active; 'I' for Inactive)
    1  A    between atoms: C_11  and  C_28
                            x       y       z     vdW  Elec       q    Type
                         _______ _______ _______ _____ _____    ______ ____

>  <TORSDO>
F 1

$$$$
=
 OpenBabel11122410343D

 30 35  0  0  1  0  0  0  0  0999 V2000
  183.7780  178.8880  141.3180 C   0  0  2  0  0  3  0  0  0  0  0  0
  182.8630  178.0620  139.0830 C   0  0  0  0  0  0  0  0  0  0  0  0
  187.6100  178.0820  139.8250 O   0  0  0  0  0  0  0  0  0  0  0  0
  185.0180  178.6170  142.1870 C   0  0  2  0  0  3  0  0  0  0  0  0
  182.6790  178.2280  141.9160 O   0  0  0  0  0  0  0  0  0  0  0  0
  183.2800  178.5090  145.2520 O   0  0  0  0  0  0  0  0  0  0  0  0
  186.5780  177.6300  144.5330 C   0  0  1  0  0  3  0  0  0  0  0  0
  183.4600  178.8450  144.0900 C   0  0  0  0  0  0  0  0  0  0  0  0
  187.1900  177.1550  143.1960 C   0  0  2  0  0  3  0  0  0  0  0  0
  188.2640  177.7830  140.9960 C   0  0  0  0  0  0  0  0  0  0  0  0
  182.3280  178.9260  143.0910 C   0  0  2  0  0  3  0  0  0  0  0  0
  184.8140  179.2520  143.5690 C   0  0  1  0  0  3  0  0  0  0  0  0
  183.0560  177.6280  137.7700 C   0  0  0  0  0  3  0  0  0  0  0  0
  188.3980  176.3310  143.6050 C   0  0  0  0  0  2  0  0  0  0  0  0
  187.6610  177.4770  145.5930 C   0  0  0  0  0  2  0  0  0  0  0  0
  181.5600  178.1620  139.5580 O   0  0  0  0  0  1  0  0  0  0  0  0
  186.4760  178.8970  140.0530 C   0  0  2  0  0  3  0  0  0  0  0  0
  184.3380  177.5630  137.2310 C   0  0  0  0  0  3  0  0  0  0  0  0
  183.9720  178.4000  139.8970 C   0  0  0  0  0  0  0  0  0  0  0  0
  186.3600  179.0480  141.5860 C   0  0  2  0  0  3  0  0  0  0  0  0
  189.3690  177.1800  141.0120 O   0  0  0  0  0  0  0  0  0  0  0  0
  187.5760  178.2980  142.2090 C   0  0  1  0  0  3  0  0  0  0  0  0
  188.8900  176.9350  144.8990 C   0  0  0  0  0  2  0  0  0  0  0  0
  185.7250  179.5210  145.8060 O   0  0  0  0  0  1  0  0  0  0  0  0
  185.4330  177.9460  138.0010 C   0  0  0  0  0  3  0  0  0  0  0  0
  185.2670  178.3630  139.3290 C   0  0  0  0  0  0  0  0  0  0  0  0
  186.0150  179.0600  144.5180 C   0  0  1  0  0  3  0  0  0  0  0  0
  181.0510  178.3760  143.6390 C   0  0  0  0  0  3  0  0  0  0  0  0
  178.9310  178.6650  144.6120 O   0  0  0  0  0  1  0  0  0  0  0  0
  180.1130  179.1880  144.1050 C   0  0  0  0  0  3  0  0  0  0  0  0
  1 19  1  6  0  0  0
  1  5  1  0  0  0  0
  1  4  1  0  0  0  0
  2 16  1  0  0  0  0
  2 19  1  0  0  0  0
  3 17  1  0  0  0  0
  3 10  1  0  0  0  0
  4 12  1  0  0  0  0
  5 11  1  0  0  0  0
  7 15  1  0  0  0  0
  8  6  2  0  0  0  0
  9 14  1  0  0  0  0
  9  7  1  0  0  0  0
 10 21  2  0  0  0  0
 10 22  1  0  0  0  0
 11 28  1  0  0  0  0
 11  8  1  0  0  0  0
 12  8  1  0  0  0  0
 12 27  1  0  0  0  0
 13  2  2  0  0  0  0
 14 23  1  0  0  0  0
 17 20  1  0  0  0  0
 18 13  1  0  0  0  0
 18 25  2  0  0  0  0
 20  4  1  0  0  0  0
 20 22  1  0  0  0  0
 22  9  1  0  0  0  0
 23 15  1  0  0  0  0
 25 26  1  0  0  0  0
 26 19  2  0  0  0  0
 26 17  1  0  0  0  0
 27  7  1  0  0  0  0
 27 24  1  0  0  0  0
 28 30  2  0  0  0  0
 30 29  1  0  0  0  0
M  END
>  <MODEL>
2

>  <REMARK>
 VINA RESULT:      -9.1      2.854      6.247
  Name = 
  1 active torsions:
  status: ('A' for Active; 'I' for Inactive)
    1  A    between atoms: C_11  and  C_28
                            x       y       z     vdW  Elec       q    Type
                         _______ _______ _______ _____ _____    ______ ____

>  <TORSDO>
F 1

$$$$
=
 OpenBabel11122410343D

 30 35  0  0  1  0  0  0  0  0999 V2000
  187.2580  178.4730  142.9670 C   0  0  2  0  0  3  0  0  0  0  0  0
  188.2060  177.4470  145.1030 C   0  0  0  0  0  0  0  0  0  0  0  0
  183.6480  178.9660  145.0370 O   0  0  0  0  0  0  0  0  0  0  0  0
  185.8750  178.5920  142.3010 C   0  0  2  0  0  3  0  0  0  0  0  0
  187.9880  177.4830  142.2670 O   0  0  0  0  0  0  0  0  0  0  0  0
  186.9920  177.8680  139.0380 O   0  0  0  0  0  0  0  0  0  0  0  0
  183.7400  178.1030  140.2740 C   0  0  1  0  0  3  0  0  0  0  0  0
  187.1110  178.2690  140.1870 C   0  0  0  0  0  0  0  0  0  0  0  0
  183.2270  177.8780  141.7150 C   0  0  2  0  0  3  0  0  0  0  0  0
  182.7590  178.8650  143.9930 C   0  0  0  0  0  0  0  0  0  0  0  0
  188.3520  178.0070  141.0090 C   0  0  2  0  0  3  0  0  0  0  0  0
  186.0490  179.0990  140.8640 C   0  0  1  0  0  3  0  0  0  0  0  0
  188.0950  177.1280  146.4570 C   0  0  0  0  0  3  0  0  0  0  0  0
  181.7730  177.4740  141.5390 C   0  0  0  0  0  2  0  0  0  0  0  0
  182.5120  178.2810  139.3900 C   0  0  0  0  0  2  0  0  0  0  0  0
  189.3850  177.1160  144.4430 O   0  0  0  0  0  1  0  0  0  0  0  0
  184.9300  179.3700  144.5940 C   0  0  2  0  0  3  0  0  0  0  0  0
  186.9570  177.4870  147.1740 C   0  0  0  0  0  3  0  0  0  0  0  0
  187.1450  178.1040  144.4310 C   0  0  0  0  0  0  0  0  0  0  0  0
  184.8460  179.4430  143.0530 C   0  0  2  0  0  3  0  0  0  0  0  0
  181.5330  178.6460  144.1760 O   0  0  0  0  0  0  0  0  0  0  0  0
  183.3750  179.1070  142.6620 C   0  0  1  0  0  3  0  0  0  0  0  0
  181.2990  178.1750  140.2880 C   0  0  0  0  0  2  0  0  0  0  0  0
  184.9300  179.5940  138.7640 O   0  0  0  0  0  1  0  0  0  0  0  0
  185.9300  178.1820  146.5410 C   0  0  0  0  0  3  0  0  0  0  0  0
  186.0090  178.4940  145.1770 C   0  0  0  0  0  0  0  0  0  0  0  0
  184.7160  179.2780  140.1090 C   0  0  1  0  0  3  0  0  0  0  0  0
  189.2920  177.0660  140.3260 C   0  0  0  0  0  3  0  0  0  0  0  0
  191.3040  176.6190  139.1970 O   0  0  0  0  0  1  0  0  0  0  0  0
  190.4400  177.5030  139.8290 C   0  0  0  0  0  3  0  0  0  0  0  0
  1  5  1  6  0  0  0
  1 19  1  0  0  0  0
  2 13  1  0  0  0  0
  4  1  1  0  0  0  0
  4 20  1  0  0  0  0
  6  8  2  0  0  0  0
  7  9  1  0  0  0  0
  8 12  1  0  0  0  0
  8 11  1  0  0  0  0
  9 22  1  0  0  0  0
 10 21  2  0  0  0  0
 10  3  1  0  0  0  0
 11  5  1  0  0  0  0
 12  4  1  0  0  0  0
 13 18  2  0  0  0  0
 14  9  1  0  0  0  0
 15  7  1  0  0  0  0
 15 23  1  0  0  0  0
 16  2  1  0  0  0  0
 17  3  1  0  0  0  0
 17 26  1  0  0  0  0
 19  2  2  0  0  0  0
 19 26  1  0  0  0  0
 20 17  1  0  0  0  0
 22 20  1  0  0  0  0
 22 10  1  0  0  0  0
 23 14  1  0  0  0  0
 24 27  1  0  0  0  0
 25 18  1  0  0  0  0
 26 25  2  0  0  0  0
 27  7  1  0  0  0  0
 27 12  1  0  0  0  0
 28 11  1  0  0  0  0
 29 30  1  0  0  0  0
 30 28  2  0  0  0  0
M  END
>  <MODEL>
3

>  <REMARK>
 VINA RESULT:      -8.9      2.237      5.936
  Name = 
  1 active torsions:
  status: ('A' for Active; 'I' for Inactive)
    1  A    between atoms: C_11  and  C_28
                            x       y       z     vdW  Elec       q    Type
                         _______ _______ _______ _____ _____    ______ ____

>  <TORSDO>
F 1

$$$$
=
 OpenBabel11122410343D

 30 35  0  0  1  0  0  0  0  0999 V2000
  188.8660  178.0000  143.2870 C   0  0  2  0  0  3  0  0  0  0  0  0
  186.7080  177.7910  144.6340 C   0  0  0  0  0  0  0  0  0  0  0  0
  186.4690  178.6110  139.9050 O   0  0  0  0  0  0  0  0  0  0  0  0
  189.3110  177.7340  141.8380 C   0  0  2  0  0  3  0  0  0  0  0  0
  189.3710  176.9510  144.0920 O   0  0  0  0  0  0  0  0  0  0  0  0
  192.3800  176.2220  142.6840 O   0  0  0  0  0  0  0  0  0  0  0  0
  190.7580  176.3870  139.6010 C   0  0  1  0  0  3  0  0  0  0  0  0
  191.4210  176.9590  142.8620 C   0  0  0  0  0  0  0  0  0  0  0  0
  189.2490  176.5370  139.3010 C   0  0  2  0  0  3  0  0  0  0  0  0
  187.2890  178.0890  138.9340 C   0  0  0  0  0  0  0  0  0  0  0  0
  190.7660  177.1180  144.2150 C   0  0  2  0  0  3  0  0  0  0  0  0
  190.8410  177.8060  141.7580 C   0  0  1  0  0  3  0  0  0  0  0  0
  185.3180  177.8780  144.7330 C   0  0  0  0  0  3  0  0  0  0  0  0
  189.0740  175.9130  137.9280 C   0  0  0  0  0  2  0  0  0  0  0  0
  191.4500  176.1310  138.2690 C   0  0  0  0  0  2  0  0  0  0  0  0
  187.4280  177.4350  145.7680 O   0  0  0  0  0  1  0  0  0  0  0  0
  187.2030  179.0290  141.0400 C   0  0  2  0  0  3  0  0  0  0  0  0
  184.5580  178.2820  143.6390 C   0  0  0  0  0  3  0  0  0  0  0  0
  187.3580  178.0720  143.4060 C   0  0  0  0  0  0  0  0  0  0  0  0
  188.6710  178.6280  140.7700 C   0  0  2  0  0  3  0  0  0  0  0  0
  186.8610  177.7750  137.7920 O   0  0  0  0  0  0  0  0  0  0  0  0
  188.7150  178.0010  139.3440 C   0  0  1  0  0  3  0  0  0  0  0  0
  190.3780  176.1400  137.2010 C   0  0  0  0  0  2  0  0  0  0  0  0
  192.7910  177.5030  140.3400 O   0  0  0  0  0  1  0  0  0  0  0  0
  185.1880  178.6160  142.4440 C   0  0  0  0  0  3  0  0  0  0  0  0
  186.5790  178.5160  142.3120 C   0  0  0  0  0  0  0  0  0  0  0  0
  191.3950  177.5770  140.3370 C   0  0  1  0  0  3  0  0  0  0  0  0
  191.3020  176.1480  145.2180 C   0  0  0  0  0  3  0  0  0  0  0  0
  192.1760  175.6490  147.3420 O   0  0  0  0  0  1  0  0  0  0  0  0
  191.6810  176.5600  146.4190 C   0  0  0  0  0  3  0  0  0  0  0  0
  1 19  1  6  0  0  0
  1  5  1  0  0  0  0
  2 13  1  0  0  0  0
  2 16  1  0  0  0  0
  3 17  1  0  0  0  0
  4  1  1  0  0  0  0
  5 11  1  0  0  0  0
  6  8  2  0  0  0  0
  7 27  1  0  0  0  0
  8 11  1  0  0  0  0
  9 22  1  0  0  0  0
  9  7  1  0  0  0  0
 10 22  1  0  0  0  0
 10  3  1  0  0  0  0
 11 28  1  0  0  0  0
 12  4  1  0  0  0  0
 12  8  1  0  0  0  0
 14  9  1  0  0  0  0
 15  7  1  0  0  0  0
 17 26  1  0  0  0  0
 18 13  2  0  0  0  0
 19  2  2  0  0  0  0
 20 17  1  0  0  0  0
 20  4  1  0  0  0  0
 21 10  2  0  0  0  0
 22 20  1  0  0  0  0
 23 14  1  0  0  0  0
 23 15  1  0  0  0  0
 25 18  1  0  0  0  0
 26 25  2  0  0  0  0
 26 19  1  0  0  0  0
 27 24  1  0  0  0  0
 27 12  1  0  0  0  0
 28 30  2  0  0  0  0
 30 29  1  0  0  0  0
M  END
>  <MODEL>
4

>  <REMARK>
 VINA RESULT:      -8.8      1.938      5.922
  Name = 
  1 active torsions:
  status: ('A' for Active; 'I' for Inactive)
    1  A    between atoms: C_11  and  C_28
                            x       y       z     vdW  Elec       q    Type
                         _______ _______ _______ _____ _____    ______ ____

>  <TORSDO>
F 1

$$$$
=
 OpenBabel11122410343D

 30 35  0  0  1  0  0  0  0  0999 V2000
  188.2320  177.4260  142.3780 C   0  0  2  0  0  3  0  0  0  0  0  0
  186.9460  178.6280  140.5290 C   0  0  0  0  0  0  0  0  0  0  0  0
  184.9010  178.0620  144.8400 O   0  0  0  0  0  0  0  0  0  0  0  0
  188.2720  177.4600  143.9160 C   0  0  2  0  0  3  0  0  0  0  0  0
  189.3810  178.1000  141.9020 O   0  0  0  0  0  0  0  0  0  0  0  0
  191.7840  177.3170  144.1770 O   0  0  0  0  0  0  0  0  0  0  0  0
  189.3970  177.9720  146.6330 C   0  0  1  0  0  3  0  0  0  0  0  0
  190.7040  177.1250  143.6380 C   0  0  0  0  0  0  0  0  0  0  0  0
  187.9770  178.5630  146.4790 C   0  0  2  0  0  3  0  0  0  0  0  0
  185.5210  178.1380  146.0650 C   0  0  0  0  0  0  0  0  0  0  0  0
  190.5070  177.2860  142.1480 C   0  0  2  0  0  3  0  0  0  0  0  0
  189.4910  176.6670  144.4060 C   0  0  1  0  0  3  0  0  0  0  0  0
  185.7790  179.2140  140.0370 C   0  0  0  0  0  3  0  0  0  0  0  0
  187.6880  179.2070  147.8240 C   0  0  0  0  0  2  0  0  0  0  0  0
  189.6760  177.8780  148.1280 C   0  0  0  0  0  2  0  0  0  0  0  0
  188.0620  178.5870  139.7010 O   0  0  0  0  0  1  0  0  0  0  0  0
  185.6760  177.3340  143.9070 C   0  0  2  0  0  3  0  0  0  0  0  0
  184.6200  179.2300  140.8080 C   0  0  0  0  0  3  0  0  0  0  0  0
  186.9780  178.0810  141.8360 C   0  0  0  0  0  0  0  0  0  0  0  0
  186.9990  176.9890  144.6270 C   0  0  2  0  0  3  0  0  0  0  0  0
  184.9510  178.6280  147.0760 O   0  0  0  0  0  0  0  0  0  0  0  0
  186.8780  177.5310  146.0830 C   0  0  1  0  0  3  0  0  0  0  0  0
  188.4460  178.3910  148.8430 C   0  0  0  0  0  2  0  0  0  0  0  0
  190.8130  176.0150  146.3380 O   0  0  0  0  0  1  0  0  0  0  0  0
  184.6210  178.6470  142.0720 C   0  0  0  0  0  3  0  0  0  0  0  0
  185.7860  178.0720  142.5970 C   0  0  0  0  0  0  0  0  0  0  0  0
  189.6140  176.6160  145.9430 C   0  0  1  0  0  3  0  0  0  0  0  0
  191.7080  177.8740  141.4800 C   0  0  0  0  0  3  0  0  0  0  0  0
  193.3970  177.8120  139.8480 O   0  0  0  0  0  1  0  0  0  0  0  0
  192.2820  177.2550  140.4590 C   0  0  0  0  0  3  0  0  0  0  0  0
  1 19  1  6  0  0  0
  1  4  1  0  0  0  0
  2 19  1  0  0  0  0
  3 10  1  0  0  0  0
  4 12  1  0  0  0  0
  4 20  1  0  0  0  0
  5 11  1  0  0  0  0
  5  1  1  0  0  0  0
  7 15  1  0  0  0  0
  8  6  2  0  0  0  0
  8 12  1  0  0  0  0
  9  7  1  0  0  0  0
  9 14  1  0  0  0  0
 10 22  1  0  0  0  0
 10 21  2  0  0  0  0
 11  8  1  0  0  0  0
 12 27  1  0  0  0  0
 13  2  2  0  0  0  0
 13 18  1  0  0  0  0
 14 23  1  0  0  0  0
 15 23  1  0  0  0  0
 16  2  1  0  0  0  0
 17 20  1  0  0  0  0
 17  3  1  0  0  0  0
 18 25  2  0  0  0  0
 19 26  2  0  0  0  0
 20 22  1  0  0  0  0
 22  9  1  0  0  0  0
 25 26  1  0  0  0  0
 26 17  1  0  0  0  0
 27 24  1  0  0  0  0
 27  7  1  0  0  0  0
 28 11  1  0  0  0  0
 29 30  1  0  0  0  0
 30 28  2  0  0  0  0
M  END
>  <MODEL>
5

>  <REMARK>
 VINA RESULT:      -8.6      1.717      2.642
  Name = 
  1 active torsions:
  status: ('A' for Active; 'I' for Inactive)
    1  A    between atoms: C_11  and  C_28
                            x       y       z     vdW  Elec       q    Type
                         _______ _______ _______ _____ _____    ______ ____

>  <TORSDO>
F 1

$$$$
=
 OpenBabel11122410343D

 30 35  0  0  1  0  0  0  0  0999 V2000
  186.3380  178.7540  142.8590 C   0  0  2  0  0  3  0  0  0  0  0  0
  186.7300  178.0790  145.2900 C   0  0  0  0  0  0  0  0  0  0  0  0
  182.2530  178.9420  143.7730 O   0  0  0  0  0  0  0  0  0  0  0  0
  185.2030  178.6180  141.8300 C   0  0  2  0  0  3  0  0  0  0  0  0
  187.3390  177.8120  142.5240 O   0  0  0  0  0  0  0  0  0  0  0  0
  187.2860  177.7440  139.1240 O   0  0  0  0  0  0  0  0  0  0  0  0
  183.8090  177.6460  139.3750 C   0  0  1  0  0  3  0  0  0  0  0  0
  187.0240  178.2660  140.1990 C   0  0  0  0  0  0  0  0  0  0  0  0
  182.9280  177.4920  140.6360 C   0  0  2  0  0  3  0  0  0  0  0  0
  181.7200  178.6200  142.5480 C   0  0  0  0  0  0  0  0  0  0  0  0
  187.9950  178.2570  141.3570 C   0  0  2  0  0  3  0  0  0  0  0  0
  185.7320  179.0030  140.4420 C   0  0  1  0  0  3  0  0  0  0  0  0
  186.2650  177.8790  146.5910 C   0  0  0  0  0  3  0  0  0  0  0  0
  181.6380  176.8780  140.1210 C   0  0  0  0  0  2  0  0  0  0  0  0
  182.8780  177.5680  138.1730 C   0  0  0  0  0  2  0  0  0  0  0  0
  188.0770  177.8510  145.0290 O   0  0  0  0  0  1  0  0  0  0  0  0
  183.5580  179.4750  143.6510 C   0  0  2  0  0  3  0  0  0  0  0  0
  184.9380  178.1450  146.9130 C   0  0  0  0  0  3  0  0  0  0  0  0
  185.8460  178.5150  144.2720 C   0  0  0  0  0  0  0  0  0  0  0  0
  183.9170  179.3870  142.1510 C   0  0  2  0  0  3  0  0  0  0  0  0
  180.5230  178.2520  142.4130 O   0  0  0  0  0  0  0  0  0  0  0  0
  182.6660  178.8150  141.4180 C   0  0  1  0  0  3  0  0  0  0  0  0
  181.4750  177.3820  138.7070 C   0  0  0  0  0  2  0  0  0  0  0  0
  185.2230  179.1350  138.0690 O   0  0  0  0  0  1  0  0  0  0  0  0
  184.0710  178.6280  145.9360 C   0  0  0  0  0  3  0  0  0  0  0  0
  184.5080  178.8160  144.6180 C   0  0  0  0  0  0  0  0  0  0  0  0
  184.6630  178.9240  139.3330 C   0  0  1  0  0  3  0  0  0  0  0  0
  189.1850  177.3930  141.0890 C   0  0  0  0  0  3  0  0  0  0  0  0
  190.9300  176.0010  141.8240 O   0  0  0  0  0  1  0  0  0  0  0  0
  189.8260  176.8010  142.0860 C   0  0  0  0  0  3  0  0  0  0  0  0
  1  5  1  6  0  0  0
  1 19  1  0  0  0  0
  2 13  1  0  0  0  0
  4 20  1  0  0  0  0
  4  1  1  0  0  0  0
  6  8  2  0  0  0  0
  7  9  1  0  0  0  0
  8 12  1  0  0  0  0
  8 11  1  0  0  0  0
  9 22  1  0  0  0  0
 10  3  1  0  0  0  0
 11  5  1  0  0  0  0
 12  4  1  0  0  0  0
 13 18  2  0  0  0  0
 14  9  1  0  0  0  0
 15 23  1  0  0  0  0
 15  7  1  0  0  0  0
 16  2  1  0  0  0  0
 17  3  1  0  0  0  0
 17 26  1  0  0  0  0
 19 26  1  0  0  0  0
 19  2  2  0  0  0  0
 20 17  1  0  0  0  0
 21 10  2  0  0  0  0
 22 20  1  0  0  0  0
 22 10  1  0  0  0  0
 23 14  1  0  0  0  0
 24 27  1  0  0  0  0
 25 18  1  0  0  0  0
 26 25  2  0  0  0  0
 27  7  1  0  0  0  0
 27 12  1  0  0  0  0
 28 11  1  0  0  0  0
 28 30  2  0  0  0  0
 29 30  1  0  0  0  0
M  END
>  <MODEL>
6

>  <REMARK>
 VINA RESULT:      -8.5      2.651      6.391
  Name = 
  1 active torsions:
  status: ('A' for Active; 'I' for Inactive)
    1  A    between atoms: C_11  and  C_28
                            x       y       z     vdW  Elec       q    Type
                         _______ _______ _______ _____ _____    ______ ____

>  <TORSDO>
F 1

$$$$
=
 OpenBabel11122410343D

 30 35  0  0  1  0  0  0  0  0999 V2000
  186.4690  178.2530  138.7810 C   0  0  2  0  0  3  0  0  0  0  0  0
  187.2510  177.0070  136.6940 C   0  0  0  0  0  0  0  0  0  0  0  0
  190.2680  177.5350  140.3960 O   0  0  0  0  0  0  0  0  0  0  0  0
  186.7910  178.2260  140.2850 C   0  0  2  0  0  3  0  0  0  0  0  0
  185.2230  177.6090  138.5950 O   0  0  0  0  0  0  0  0  0  0  0  0
  183.4440  178.4690  141.3630 O   0  0  0  0  0  0  0  0  0  0  0  0
  186.3240  177.7590  143.1960 C   0  0  1  0  0  3  0  0  0  0  0  0
  184.3720  178.6280  140.5830 C   0  0  0  0  0  0  0  0  0  0  0  0
  187.6520  177.1270  142.7180 C   0  0  2  0  0  3  0  0  0  0  0  0
  189.9520  177.4810  141.7330 C   0  0  0  0  0  0  0  0  0  0  0  0
  184.2080  178.4550  139.0900 C   0  0  2  0  0  3  0  0  0  0  0  0
  185.7430  179.0560  141.0390 C   0  0  1  0  0  3  0  0  0  0  0  0
  188.2540  176.3870  135.9470 C   0  0  0  0  0  3  0  0  0  0  0  0
  188.2330  176.4820  143.9640 C   0  0  0  0  0  2  0  0  0  0  0  0
  186.4080  177.8670  144.7130 C   0  0  0  0  0  2  0  0  0  0  0  0
  185.9730  177.0750  136.1510 O   0  0  0  0  0  1  0  0  0  0  0  0
  189.3140  178.2800  139.6640 C   0  0  2  0  0  3  0  0  0  0  0  0
  189.5610  176.3410  136.4250 C   0  0  0  0  0  3  0  0  0  0  0  0
  187.5420  177.5610  137.9660 C   0  0  0  0  0  0  0  0  0  0  0  0
  188.2070  178.6650  140.6710 C   0  0  2  0  0  3  0  0  0  0  0  0
  190.7310  176.9810  142.5870 O   0  0  0  0  0  0  0  0  0  0  0  0
  188.6540  178.1260  142.0630 C   0  0  1  0  0  3  0  0  0  0  0  0
  187.7580  177.3230  145.1250 C   0  0  0  0  0  2  0  0  0  0  0  0
  184.9300  179.7530  143.2210 O   0  0  0  0  0  1  0  0  0  0  0  0
  189.8730  176.9300  137.6460 C   0  0  0  0  0  3  0  0  0  0  0  0
  188.8800  177.5390  138.4250 C   0  0  0  0  0  0  0  0  0  0  0  0
  185.9860  179.1170  142.5610 C   0  0  1  0  0  3  0  0  0  0  0  0
  182.8690  177.8980  138.7300 C   0  0  0  0  0  3  0  0  0  0  0  0
  181.4860  176.1150  138.0710 O   0  0  0  0  0  1  0  0  0  0  0  0
  182.7360  176.6200  138.4040 C   0  0  0  0  0  3  0  0  0  0  0  0
  1 19  1  6  0  0  0
  1  4  1  0  0  0  0
  2 19  1  0  0  0  0
  3 10  1  0  0  0  0
  4 20  1  0  0  0  0
  4 12  1  0  0  0  0
  5  1  1  0  0  0  0
  5 11  1  0  0  0  0
  7 15  1  0  0  0  0
  8 12  1  0  0  0  0
  8  6  2  0  0  0  0
  9  7  1  0  0  0  0
  9 14  1  0  0  0  0
 10 22  1  0  0  0  0
 10 21  2  0  0  0  0
 11  8  1  0  0  0  0
 12 27  1  0  0  0  0
 13 18  1  0  0  0  0
 13  2  2  0  0  0  0
 14 23  1  0  0  0  0
 15 23  1  0  0  0  0
 16  2  1  0  0  0  0
 17  3  1  0  0  0  0
 17 20  1  0  0  0  0
 18 25  2  0  0  0  0
 19 26  2  0  0  0  0
 20 22  1  0  0  0  0
 22  9  1  0  0  0  0
 25 26  1  0  0  0  0
 26 17  1  0  0  0  0
 27  7  1  0  0  0  0
 27 24  1  0  0  0  0
 28 11  1  0  0  0  0
 29 30  1  0  0  0  0
 30 28  2  0  0  0  0
M  END
>  <MODEL>
7

>  <REMARK>
 VINA RESULT:      -8.5      2.569      6.261
  Name = 
  1 active torsions:
  status: ('A' for Active; 'I' for Inactive)
    1  A    between atoms: C_11  and  C_28
                            x       y       z     vdW  Elec       q    Type
                         _______ _______ _______ _____ _____    ______ ____

>  <TORSDO>
F 1

$$$$
=
 OpenBabel11122410343D

 30 35  0  0  1  0  0  0  0  0999 V2000
  187.8670  178.2550  141.3440 C   0  0  2  0  0  3  0  0  0  0  0  0
  186.5480  178.0970  143.5240 C   0  0  0  0  0  0  0  0  0  0  0  0
  184.1840  178.4520  139.3560 O   0  0  0  0  0  0  0  0  0  0  0  0
  187.6440  177.8670  139.8710 C   0  0  2  0  0  3  0  0  0  0  0  0
  188.7520  177.3070  141.9100 O   0  0  0  0  0  0  0  0  0  0  0  0
  190.8760  176.5560  139.3610 O   0  0  0  0  0  0  0  0  0  0  0  0
  188.0520  176.3670  137.3240 C   0  0  1  0  0  3  0  0  0  0  0  0
  190.0410  177.2720  139.8970 C   0  0  0  0  0  0  0  0  0  0  0  0
  186.5590  176.4320  137.7200 C   0  0  2  0  0  3  0  0  0  0  0  0
  184.5270  177.8690  138.1590 C   0  0  0  0  0  0  0  0  0  0  0  0
  190.0410  177.5350  141.3850 C   0  0  2  0  0  3  0  0  0  0  0  0
  188.9720  177.9880  139.1120 C   0  0  1  0  0  3  0  0  0  0  0  0
  185.3420  178.1430  144.2270 C   0  0  0  0  0  3  0  0  0  0  0  0
  185.8430  175.6740  136.6160 C   0  0  0  0  0  2  0  0  0  0  0  0
  188.1010  176.0100  135.8440 C   0  0  0  0  0  2  0  0  0  0  0  0
  187.7200  177.8780  144.2390 O   0  0  0  0  0  1  0  0  0  0  0  0
  185.3100  179.0030  140.0110 C   0  0  2  0  0  3  0  0  0  0  0  0
  184.1490  178.4130  143.5630 C   0  0  0  0  0  3  0  0  0  0  0  0
  186.5650  178.2830  142.1190 C   0  0  0  0  0  0  0  0  0  0  0  0
  186.5330  178.6310  139.1430 C   0  0  2  0  0  3  0  0  0  0  0  0
  183.6640  177.4320  137.3530 O   0  0  0  0  0  0  0  0  0  0  0  0
  185.9900  177.8730  137.8940 C   0  0  1  0  0  3  0  0  0  0  0  0
  186.6710  175.8780  135.3700 C   0  0  0  0  0  2  0  0  0  0  0  0
  190.1110  177.6210  136.9970 O   0  0  0  0  0  1  0  0  0  0  0  0
  184.1590  178.6530  142.1920 C   0  0  0  0  0  3  0  0  0  0  0  0
  185.3530  178.5910  141.4600 C   0  0  0  0  0  0  0  0  0  0  0  0
  188.8560  177.6440  137.6130 C   0  0  1  0  0  3  0  0  0  0  0  0
  191.0360  176.6860  142.1090 C   0  0  0  0  0  3  0  0  0  0  0  0
  191.6900  175.4050  143.9680 O   0  0  0  0  0  1  0  0  0  0  0  0
  190.7570  176.1930  143.3060 C   0  0  0  0  0  3  0  0  0  0  0  0
  1  5  1  1  0  0  0
  1 19  1  0  0  0  0
  2 13  1  0  0  0  0
  2 16  1  0  0  0  0
  3 17  1  0  0  0  0
  4  1  1  0  0  0  0
  6  8  2  0  0  0  0
  7 27  1  0  0  0  0
  7  9  1  0  0  0  0
  8 11  1  0  0  0  0
  9 22  1  0  0  0  0
 10  3  1  0  0  0  0
 11  5  1  0  0  0  0
 11 28  1  0  0  0  0
 12  4  1  0  0  0  0
 12  8  1  0  0  0  0
 14  9  1  0  0  0  0
 15  7  1  0  0  0  0
 17 26  1  0  0  0  0
 18 13  2  0  0  0  0
 19  2  2  0  0  0  0
 20  4  1  0  0  0  0
 20 17  1  0  0  0  0
 21 10  2  0  0  0  0
 22 10  1  0  0  0  0
 22 20  1  0  0  0  0
 23 15  1  0  0  0  0
 23 14  1  0  0  0  0
 24 27  1  0  0  0  0
 25 18  1  0  0  0  0
 26 19  1  0  0  0  0
 26 25  2  0  0  0  0
 27 12  1  0  0  0  0
 28 30  2  0  0  0  0
 30 29  1  0  0  0  0
M  END
>  <MODEL>
8

>  <REMARK>
 VINA RESULT:      -8.2      2.392      6.638
  Name = 
  1 active torsions:
  status: ('A' for Active; 'I' for Inactive)
    1  A    between atoms: C_11  and  C_28
                            x       y       z     vdW  Elec       q    Type
                         _______ _______ _______ _____ _____    ______ ____

>  <TORSDO>
F 1

$$$$
=
 OpenBabel11122410343D

 30 35  0  0  1  0  0  0  0  0999 V2000
  186.1960  177.7810  141.9450 C   0  0  2  0  0  3  0  0  0  0  0  0
  184.0050  178.9920  142.4450 C   0  0  0  0  0  0  0  0  0  0  0  0
  186.9450  177.8410  146.0670 O   0  0  0  0  0  0  0  0  0  0  0  0
  187.5930  177.6870  142.5840 C   0  0  2  0  0  3  0  0  0  0  0  0
  186.2980  178.6140  140.8050 O   0  0  0  0  0  0  0  0  0  0  0  0
  189.3790  177.9010  139.5520 O   0  0  0  0  0  0  0  0  0  0  0  0
  190.5410  178.0820  142.8350 C   0  0  1  0  0  3  0  0  0  0  0  0
  188.4110  177.6410  140.2530 C   0  0  0  0  0  0  0  0  0  0  0  0
  189.7910  178.5280  144.1110 C   0  0  2  0  0  3  0  0  0  0  0  0
  188.3190  177.8780  146.0600 C   0  0  0  0  0  0  0  0  0  0  0  0
  186.9940  177.9080  139.8010 C   0  0  2  0  0  3  0  0  0  0  0  0
  188.5480  176.9910  141.6060 C   0  0  1  0  0  3  0  0  0  0  0  0
  183.0640  179.4890  143.3490 C   0  0  0  0  0  3  0  0  0  0  0  0
  190.8870  179.0180  145.0410 C   0  0  0  0  0  2  0  0  0  0  0  0
  192.0010  177.8900  143.2250 C   0  0  0  0  0  2  0  0  0  0  0  0
  183.7570  179.1430  141.0850 O   0  0  0  0  0  1  0  0  0  0  0  0
  186.4310  177.2840  144.8730 C   0  0  2  0  0  3  0  0  0  0  0  0
  183.2420  179.3140  144.7180 C   0  0  0  0  0  3  0  0  0  0  0  0
  185.1740  178.3410  142.9130 C   0  0  0  0  0  0  0  0  0  0  0  0
  187.6510  177.0230  143.9630 C   0  0  2  0  0  3  0  0  0  0  0  0
  188.9870  178.2140  147.0730 O   0  0  0  0  0  0  0  0  0  0  0  0
  188.9190  177.4210  144.7780 C   0  0  1  0  0  3  0  0  0  0  0  0
  192.1120  178.2040  144.7010 C   0  0  0  0  0  2  0  0  0  0  0  0
  190.8460  176.3220  141.1820 O   0  0  0  0  0  1  0  0  0  0  0  0
  184.3580  178.6280  145.1900 C   0  0  0  0  0  3  0  0  0  0  0  0
  185.3270  178.1390  144.3040 C   0  0  0  0  0  0  0  0  0  0  0  0
  189.9780  176.8220  142.1580 C   0  0  1  0  0  3  0  0  0  0  0  0
  186.9450  178.6770  138.5200 C   0  0  0  0  0  3  0  0  0  0  0  0
  186.8410  178.7720  136.1740 O   0  0  0  0  0  1  0  0  0  0  0  0
  186.8860  178.0460  137.3570 C   0  0  0  0  0  3  0  0  0  0  0  0
  1  5  1  6  0  0  0
  1  4  1  0  0  0  0
  1 19  1  0  0  0  0
  2 19  2  0  0  0  0
  2 13  1  0  0  0  0
  4 20  1  0  0  0  0
  6  8  2  0  0  0  0
  7 15  1  0  0  0  0
  7  9  1  0  0  0  0
  8 12  1  0  0  0  0
  9 22  1  0  0  0  0
  9 14  1  0  0  0  0
 10  3  1  0  0  0  0
 10 21  2  0  0  0  0
 11  8  1  0  0  0  0
 11  5  1  0  0  0  0
 12 27  1  0  0  0  0
 12  4  1  0  0  0  0
 13 18  2  0  0  0  0
 15 23  1  0  0  0  0
 16  2  1  0  0  0  0
 17  3  1  0  0  0  0
 18 25  1  0  0  0  0
 19 26  1  0  0  0  0
 20 22  1  0  0  0  0
 20 17  1  0  0  0  0
 22 10  1  0  0  0  0
 23 14  1  0  0  0  0
 24 27  1  0  0  0  0
 26 17  1  0  0  0  0
 26 25  2  0  0  0  0
 27  7  1  0  0  0  0
 28 11  1  0  0  0  0
 29 30  1  0  0  0  0
 30 28  2  0  0  0  0
M  END
>  <MODEL>
9

>  <REMARK>
 VINA RESULT:      -8.0      1.486      1.916
  Name = 
  1 active torsions:
  status: ('A' for Active; 'I' for Inactive)
    1  A    between atoms: C_11  and  C_28
                            x       y       z     vdW  Elec       q    Type
                         _______ _______ _______ _____ _____    ______ ____

>  <TORSDO>
F 1

$$$$
