=
 OpenBabel11122410263D

 30 34  0  0  1  0  0  0  0  0999 V2000
  187.1580  178.1240  142.7090 C   0  0  0  0  0  0  0  0  0  0  0  0
  184.7510  178.9970  142.4480 C   0  0  0  0  0  0  0  0  0  0  0  0
  186.6590  177.6920  146.8540 N   0  0  0  0  0  2  0  0  0  0  0  0
  188.1900  177.5980  143.5430 C   0  0  0  0  0  0  0  0  0  0  0  0
  187.4330  178.3390  141.3560 C   0  0  0  0  0  3  0  0  0  0  0  0
  190.9750  177.3760  141.0800 O   0  0  0  0  0  1  0  0  0  0  0  0
  190.9650  177.2600  145.2010 C   0  0  2  0  0  3  0  0  0  0  0  0
  189.7150  177.5850  141.6350 C   0  0  0  0  0  0  0  0  0  0  0  0
  189.9250  177.8870  145.9260 O   0  0  0  0  0  0  0  0  0  0  0  0
  187.9800  177.2660  147.1720 C   0  0  0  0  0  0  0  0  0  0  0  0
  188.6880  178.0780  140.8200 C   0  0  0  0  0  0  0  0  0  0  0  0
  189.4790  177.3170  143.0050 C   0  0  0  0  0  0  0  0  0  0  0  0
  183.3550  178.9890  143.0010 C   0  0  0  0  0  2  0  0  0  0  0  0
  184.9340  179.4500  141.2880 O   0  0  0  0  0  0  0  0  0  0  0  0
  186.6750  177.7640  145.4350 C   0  0  0  0  0  0  0  0  0  0  0  0
  183.3260  179.0380  144.5020 C   0  0  0  0  0  3  0  0  0  0  0  0
  185.8740  178.4380  143.2540 C   0  0  0  0  0  0  0  0  0  0  0  0
  187.8890  177.4000  144.8980 C   0  0  0  0  0  0  0  0  0  0  0  0
  188.3710  177.1040  148.3580 O   0  0  0  0  0  0  0  0  0  0  0  0
  188.8330  177.0080  145.9720 C   0  0  1  0  0  3  0  0  0  0  0  0
  191.2810  175.6990  143.3150 C   0  0  0  0  0  2  0  0  0  0  0  0
  184.3680  178.6690  145.2490 C   0  0  0  0  0  3  0  0  0  0  0  0
  185.6460  178.2610  144.6390 C   0  0  0  0  0  0  0  0  0  0  0  0
  190.5630  176.6950  143.8360 C   0  0  0  0  0  0  0  0  0  0  0  0
  191.7270  176.2700  146.0890 C   0  0  0  0  0  2  0  0  0  0  0  0
  192.6860  175.9040  148.3390 C   0  0  0  0  0  1  0  0  0  0  0  0
  191.7200  176.7410  147.5310 C   0  0  0  0  0  2  0  0  0  0  0  0
  188.9270  178.3630  139.3690 C   0  0  0  0  0  2  0  0  0  0  0  0
  187.1380  177.9930  137.6650 C   0  0  0  0  0  1  0  0  0  0  0  0
  188.2330  177.3380  138.4850 C   0  0  0  0  0  2  0  0  0  0  0  0
  1 17  2  0  0  0  0
  1  4  1  0  0  0  0
  2 13  1  0  0  0  0
  2 17  1  0  0  0  0
  3 10  1  0  0  0  0
  4 18  2  0  0  0  0
  5  1  1  0  0  0  0
  6  8  1  0  0  0  0
  7  9  1  0  0  0  0
  7 25  1  1  0  0  0
  8 12  2  0  0  0  0
  9 20  1  0  0  0  0
 10 19  2  0  0  0  0
 11  5  2  0  0  0  0
 11  8  1  0  0  0  0
 12  4  1  0  0  0  0
 12 24  1  0  0  0  0
 13 16  1  0  0  0  0
 14  2  2  0  0  0  0
 15  3  1  0  0  0  0
 16 22  2  0  0  0  0
 17 23  1  0  0  0  0
 18 15  1  0  0  0  0
 20 18  1  6  0  0  0
 20 10  1  0  0  0  0
 21 24  2  0  0  0  0
 23 22  1  0  0  0  0
 23 15  2  0  0  0  0
 24  7  1  0  0  0  0
 25 27  1  0  0  0  0
 27 26  1  0  0  0  0
 28 11  1  0  0  0  0
 29 30  1  0  0  0  0
 30 28  1  0  0  0  0
M  END
>  <MODEL>
1

>  <REMARK>
 VINA RESULT:     -11.4      0.000      0.000
  Name = 
  4 active torsions:
  status: ('A' for Active; 'I' for Inactive)
    1  A    between atoms: C_7  and  C_15
    2  A    between atoms: C_11  and  C_28
    3  A    between atoms: C_15  and  C_23
    4  A    between atoms: C_28  and  C_30
                            x       y       z     vdW  Elec       q    Type
                         _______ _______ _______ _____ _____    ______ ____

>  <TORSDO>
F 4

$$$$
=
 OpenBabel11122410263D

 30 34  0  0  1  0  0  0  0  0999 V2000
  187.2870  177.9230  144.4010 C   0  0  0  0  0  0  0  0  0  0  0  0
  184.8890  178.3680  145.2230 C   0  0  0  0  0  0  0  0  0  0  0  0
  186.1650  178.6460  140.4220 N   0  0  0  0  0  2  0  0  0  0  0  0
  188.2310  177.8800  143.3310 C   0  0  0  0  0  0  0  0  0  0  0  0
  187.7110  177.5670  145.6830 C   0  0  0  0  0  3  0  0  0  0  0  0
  191.2270  176.6170  145.1470 O   0  0  0  0  0  1  0  0  0  0  0  0
  190.3660  176.8200  141.1200 C   0  0  2  0  0  3  0  0  0  0  0  0
  189.9410  177.0820  144.8810 C   0  0  0  0  0  0  0  0  0  0  0  0
  189.0210  176.8170  140.6820 O   0  0  0  0  0  0  0  0  0  0  0  0
  187.4160  178.3590  139.8040 C   0  0  0  0  0  0  0  0  0  0  0  0
  189.0140  177.1500  145.9280 C   0  0  0  0  0  0  0  0  0  0  0  0
  189.5730  177.4640  143.5690 C   0  0  0  0  0  0  0  0  0  0  0  0
  183.5970  179.0880  144.9660 C   0  0  0  0  0  2  0  0  0  0  0  0
  185.0760  177.8560  146.3580 O   0  0  0  0  0  0  0  0  0  0  0  0
  186.4560  178.5410  141.8080 C   0  0  0  0  0  0  0  0  0  0  0  0
  183.2170  179.0960  143.5130 C   0  0  0  0  0  3  0  0  0  0  0  0
  185.9320  178.3080  144.1580 C   0  0  0  0  0  0  0  0  0  0  0  0
  187.7760  178.2350  142.0530 C   0  0  0  0  0  0  0  0  0  0  0  0
  187.5630  178.3320  138.5550 O   0  0  0  0  0  0  0  0  0  0  0  0
  188.5260  178.1260  140.7780 C   0  0  1  0  0  3  0  0  0  0  0  0
  191.8180  177.9680  142.7540 C   0  0  0  0  0  2  0  0  0  0  0  0
  184.1100  178.9110  142.5400 C   0  0  0  0  0  3  0  0  0  0  0  0
  185.5210  178.6090  142.8380 C   0  0  0  0  0  0  0  0  0  0  0  0
  190.6070  177.4790  142.4820 C   0  0  0  0  0  0  0  0  0  0  0  0
  191.2990  177.3160  140.0100 C   0  0  0  0  0  2  0  0  0  0  0  0
  192.5250  176.4180  138.0590 C   0  0  0  0  0  1  0  0  0  0  0  0
  191.2040  176.4100  138.7980 C   0  0  0  0  0  2  0  0  0  0  0  0
  189.3940  176.7490  147.3200 C   0  0  0  0  0  2  0  0  0  0  0  0
  188.0560  178.0320  148.9940 C   0  0  0  0  0  1  0  0  0  0  0  0
  189.3810  177.9450  148.2600 C   0  0  0  0  0  2  0  0  0  0  0  0
  1  5  2  0  0  0  0
  2 14  2  0  0  0  0
  3 15  1  0  0  0  0
  4 12  2  0  0  0  0
  4  1  1  0  0  0  0
  5 11  1  0  0  0  0
  7 25  1  6  0  0  0
  7 24  1  0  0  0  0
  8  6  1  0  0  0  0
  8 11  2  0  0  0  0
  9 20  1  0  0  0  0
  9  7  1  0  0  0  0
 10  3  1  0  0  0  0
 11 28  1  0  0  0  0
 12  8  1  0  0  0  0
 13  2  1  0  0  0  0
 15 18  2  0  0  0  0
 15 23  1  0  0  0  0
 16 13  1  0  0  0  0
 17  1  1  0  0  0  0
 17  2  1  0  0  0  0
 18  4  1  0  0  0  0
 19 10  2  0  0  0  0
 20 10  1  6  0  0  0
 20 18  1  0  0  0  0
 22 23  1  0  0  0  0
 22 16  2  0  0  0  0
 23 17  2  0  0  0  0
 24 21  2  0  0  0  0
 24 12  1  0  0  0  0
 26 27  1  0  0  0  0
 27 25  1  0  0  0  0
 28 30  1  0  0  0  0
 30 29  1  0  0  0  0
M  END
>  <MODEL>
2

>  <REMARK>
 VINA RESULT:     -11.1      2.169      5.617
  Name = 
  4 active torsions:
  status: ('A' for Active; 'I' for Inactive)
    1  A    between atoms: C_7  and  C_15
    2  A    between atoms: C_11  and  C_28
    3  A    between atoms: C_15  and  C_23
    4  A    between atoms: C_28  and  C_30
                            x       y       z     vdW  Elec       q    Type
                         _______ _______ _______ _____ _____    ______ ____

>  <TORSDO>
F 4

$$$$
=
 OpenBabel11122410263D

 30 34  0  0  1  0  0  0  0  0999 V2000
  189.1280  177.5970  143.3540 C   0  0  0  0  0  0  0  0  0  0  0  0
  191.0040  177.3920  141.6050 C   0  0  0  0  0  0  0  0  0  0  0  0
  186.3450  178.6500  140.3950 N   0  0  0  0  0  2  0  0  0  0  0  0
  187.7540  177.8350  143.6600 C   0  0  0  0  0  0  0  0  0  0  0  0
  190.0160  177.3560  144.4050 C   0  0  0  0  0  3  0  0  0  0  0  0
  187.8720  177.6770  147.3790 O   0  0  0  0  0  1  0  0  0  0  0  0
  185.0170  179.1640  144.8030 C   0  0  2  0  0  3  0  0  0  0  0  0
  188.2550  177.6250  146.0410 C   0  0  0  0  0  0  0  0  0  0  0  0
  185.3890  179.6110  143.5140 O   0  0  0  0  0  0  0  0  0  0  0  0
  185.2240  178.8760  141.2430 C   0  0  0  0  0  0  0  0  0  0  0  0
  189.5960  177.3690  145.7300 C   0  0  0  0  0  0  0  0  0  0  0  0
  187.3060  177.8410  145.0130 C   0  0  0  0  0  0  0  0  0  0  0  0
  191.3460  177.1060  140.1710 C   0  0  0  0  0  2  0  0  0  0  0  0
  191.9340  177.3960  142.4540 O   0  0  0  0  0  0  0  0  0  0  0  0
  187.3380  178.1710  141.2900 C   0  0  0  0  0  0  0  0  0  0  0  0
  190.3660  177.7170  139.2090 C   0  0  0  0  0  3  0  0  0  0  0  0
  189.5840  177.6220  142.0000 C   0  0  0  0  0  0  0  0  0  0  0  0
  186.8860  178.0810  142.5870 C   0  0  0  0  0  0  0  0  0  0  0  0
  184.1320  179.3330  140.8140 O   0  0  0  0  0  0  0  0  0  0  0  0
  185.4630  178.4940  142.6680 C   0  0  1  0  0  3  0  0  0  0  0  0
  185.3220  177.2170  146.2890 C   0  0  0  0  0  2  0  0  0  0  0  0
  189.1280  178.0570  139.5700 C   0  0  0  0  0  3  0  0  0  0  0  0
  188.6690  177.9250  140.9640 C   0  0  0  0  0  0  0  0  0  0  0  0
  185.8580  178.0140  145.3640 C   0  0  0  0  0  0  0  0  0  0  0  0
  183.5040  178.9310  144.8820 C   0  0  0  0  0  2  0  0  0  0  0  0
  181.6030  179.0510  143.3040 C   0  0  0  0  0  1  0  0  0  0  0  0
  182.7820  179.8070  143.8770 C   0  0  0  0  0  2  0  0  0  0  0  0
  190.6070  177.1380  146.8100 C   0  0  0  0  0  2  0  0  0  0  0  0
  192.4620  175.5740  147.4060 C   0  0  0  0  0  1  0  0  0  0  0  0
  191.8030  176.3570  146.2860 C   0  0  0  0  0  2  0  0  0  0  0  0
  1  4  1  0  0  0  0
  1  5  2  0  0  0  0
  2 17  1  0  0  0  0
  2 14  2  0  0  0  0
  3 10  1  0  0  0  0
  3 15  1  0  0  0  0
  4 12  2  0  0  0  0
  5 11  1  0  0  0  0
  7 25  1  6  0  0  0
  7 24  1  0  0  0  0
  8  6  1  0  0  0  0
  9  7  1  0  0  0  0
 11  8  2  0  0  0  0
 11 28  1  0  0  0  0
 12 24  1  0  0  0  0
 12  8  1  0  0  0  0
 13  2  1  0  0  0  0
 15 18  2  0  0  0  0
 16 22  2  0  0  0  0
 16 13  1  0  0  0  0
 17  1  1  0  0  0  0
 18 20  1  0  0  0  0
 18  4  1  0  0  0  0
 19 10  2  0  0  0  0
 20 10  1  6  0  0  0
 20  9  1  0  0  0  0
 22 23  1  0  0  0  0
 23 15  1  0  0  0  0
 23 17  2  0  0  0  0
 24 21  2  0  0  0  0
 26 27  1  0  0  0  0
 27 25  1  0  0  0  0
 30 28  1  0  0  0  0
 30 29  1  0  0  0  0
M  END
>  <MODEL>
3

>  <REMARK>
 VINA RESULT:     -10.1      1.679      6.908
  Name = 
  4 active torsions:
  status: ('A' for Active; 'I' for Inactive)
    1  A    between atoms: C_7  and  C_15
    2  A    between atoms: C_11  and  C_28
    3  A    between atoms: C_15  and  C_23
    4  A    between atoms: C_28  and  C_30
                            x       y       z     vdW  Elec       q    Type
                         _______ _______ _______ _____ _____    ______ ____

>  <TORSDO>
F 4

$$$$
=
 OpenBabel11122410263D

 30 34  0  0  1  0  0  0  0  0999 V2000
  189.2400  177.2710  143.6050 C   0  0  0  0  0  0  0  0  0  0  0  0
  191.2860  176.3670  144.8780 C   0  0  0  0  0  0  0  0  0  0  0  0
  187.1220  177.8080  147.1870 N   0  0  0  0  0  2  0  0  0  0  0  0
  187.9260  177.8290  143.6280 C   0  0  0  0  0  0  0  0  0  0  0  0
  189.8400  177.0230  142.3680 C   0  0  0  0  0  3  0  0  0  0  0  0
  187.2240  178.0140  139.9750 O   0  0  0  0  0  1  0  0  0  0  0  0
  184.7240  178.2390  143.2460 C   0  0  2  0  0  3  0  0  0  0  0  0
  187.8800  177.8070  141.1860 C   0  0  0  0  0  0  0  0  0  0  0  0
  185.0930  177.6210  144.4640 O   0  0  0  0  0  0  0  0  0  0  0  0
  185.8900  178.2560  146.6280 C   0  0  0  0  0  0  0  0  0  0  0  0
  189.1790  177.2820  141.1730 C   0  0  0  0  0  0  0  0  0  0  0  0
  187.2390  178.1100  142.4120 C   0  0  0  0  0  0  0  0  0  0  0  0
  192.0560  176.3760  146.1670 C   0  0  0  0  0  2  0  0  0  0  0  0
  191.8370  175.8850  143.8530 O   0  0  0  0  0  0  0  0  0  0  0  0
  187.9710  177.6980  146.0540 C   0  0  0  0  0  0  0  0  0  0  0  0
  191.1630  176.3670  147.3750 C   0  0  0  0  0  3  0  0  0  0  0  0
  189.9180  176.9590  144.8230 C   0  0  0  0  0  0  0  0  0  0  0  0
  187.3450  178.0600  144.8830 C   0  0  0  0  0  0  0  0  0  0  0  0
  184.8630  178.4530  147.3280 O   0  0  0  0  0  0  0  0  0  0  0  0
  185.9510  178.4900  145.1530 C   0  0  1  0  0  3  0  0  0  0  0  0
  185.6610  179.7530  141.5360 C   0  0  0  0  0  2  0  0  0  0  0  0
  189.8920  176.7660  147.3260 C   0  0  0  0  0  3  0  0  0  0  0  0
  189.2600  177.1710  146.0580 C   0  0  0  0  0  0  0  0  0  0  0  0
  185.8890  178.7640  142.4010 C   0  0  0  0  0  0  0  0  0  0  0  0
  183.6040  179.2600  143.4710 C   0  0  0  0  0  2  0  0  0  0  0  0
  181.1470  179.0000  143.5830 C   0  0  0  0  0  1  0  0  0  0  0  0
  182.4590  178.6260  144.2370 C   0  0  0  0  0  2  0  0  0  0  0  0
  189.8660  176.9610  139.8830 C   0  0  0  0  0  2  0  0  0  0  0  0
  192.0620  176.7410  138.7120 C   0  0  0  0  0  1  0  0  0  0  0  0
  191.3710  177.1520  139.9980 C   0  0  0  0  0  2  0  0  0  0  0  0
  1  4  2  0  0  0  0
  1 17  1  0  0  0  0
  2 13  1  0  0  0  0
  4 18  1  0  0  0  0
  5  1  1  0  0  0  0
  6  8  1  0  0  0  0
  7 25  1  1  0  0  0
  7  9  1  0  0  0  0
  8 12  2  0  0  0  0
 10  3  1  0  0  0  0
 10 19  2  0  0  0  0
 11  8  1  0  0  0  0
 11  5  2  0  0  0  0
 12  4  1  0  0  0  0
 13 16  1  0  0  0  0
 14  2  2  0  0  0  0
 15 23  1  0  0  0  0
 15  3  1  0  0  0  0
 17  2  1  0  0  0  0
 17 23  2  0  0  0  0
 18 20  1  0  0  0  0
 18 15  2  0  0  0  0
 20  9  1  6  0  0  0
 20 10  1  0  0  0  0
 21 24  2  0  0  0  0
 22 16  2  0  0  0  0
 23 22  1  0  0  0  0
 24 12  1  0  0  0  0
 24  7  1  0  0  0  0
 25 27  1  0  0  0  0
 26 27  1  0  0  0  0
 28 30  1  0  0  0  0
 28 11  1  0  0  0  0
 29 30  1  0  0  0  0
M  END
>  <MODEL>
4

>  <REMARK>
 VINA RESULT:      -9.9      1.773      5.720
  Name = 
  4 active torsions:
  status: ('A' for Active; 'I' for Inactive)
    1  A    between atoms: C_7  and  C_15
    2  A    between atoms: C_11  and  C_28
    3  A    between atoms: C_15  and  C_23
    4  A    between atoms: C_28  and  C_30
                            x       y       z     vdW  Elec       q    Type
                         _______ _______ _______ _____ _____    ______ ____

>  <TORSDO>
F 4

$$$$
=
 OpenBabel11122410263D

 30 34  0  0  1  0  0  0  0  0999 V2000
  188.5260  177.5270  144.2780 C   0  0  0  0  0  0  0  0  0  0  0  0
  186.8180  177.8230  146.1810 C   0  0  0  0  0  0  0  0  0  0  0  0
  185.7020  178.7350  141.4190 N   0  0  0  0  0  2  0  0  0  0  0  0
  188.8540  177.6370  142.8930 C   0  0  0  0  0  0  0  0  0  0  0  0
  189.4860  177.0170  145.1550 C   0  0  0  0  0  3  0  0  0  0  0  0
  192.2910  176.2030  142.9140 O   0  0  0  0  0  1  0  0  0  0  0  0
  189.6490  176.9060  139.8280 C   0  0  2  0  0  3  0  0  0  0  0  0
  191.0530  176.6760  143.3440 C   0  0  0  0  0  0  0  0  0  0  0  0
  188.2580  176.9370  140.0780 O   0  0  0  0  0  0  0  0  0  0  0  0
  186.5020  178.5520  140.2550 C   0  0  0  0  0  0  0  0  0  0  0  0
  190.7310  176.5940  144.7040 C   0  0  0  0  0  0  0  0  0  0  0  0
  190.1300  177.2180  142.4180 C   0  0  0  0  0  0  0  0  0  0  0  0
  185.5920  178.5490  146.6530 C   0  0  0  0  0  2  0  0  0  0  0  0
  187.4930  177.1730  147.0230 O   0  0  0  0  0  0  0  0  0  0  0  0
  186.6040  178.4590  142.4800 C   0  0  0  0  0  0  0  0  0  0  0  0
  184.5740  178.7360  145.5630 C   0  0  0  0  0  3  0  0  0  0  0  0
  187.2350  177.9180  144.7520 C   0  0  0  0  0  0  0  0  0  0  0  0
  187.8690  178.1460  142.0350 C   0  0  0  0  0  0  0  0  0  0  0  0
  186.0430  178.6870  139.0910 O   0  0  0  0  0  0  0  0  0  0  0  0
  187.9270  178.2140  140.5540 C   0  0  1  0  0  3  0  0  0  0  0  0
  191.7490  177.8590  140.7080 C   0  0  0  0  0  2  0  0  0  0  0  0
  184.8970  178.6930  144.2700 C   0  0  0  0  0  3  0  0  0  0  0  0
  186.2670  178.3780  143.8290 C   0  0  0  0  0  0  0  0  0  0  0  0
  190.5320  177.3880  140.9830 C   0  0  0  0  0  0  0  0  0  0  0  0
  189.9740  177.5560  138.4780 C   0  0  0  0  0  2  0  0  0  0  0  0
  189.5350  175.5070  137.1640 C   0  0  0  0  0  1  0  0  0  0  0  0
  190.5810  176.5360  137.5340 C   0  0  0  0  0  2  0  0  0  0  0  0
  191.7010  176.0240  145.6920 C   0  0  0  0  0  2  0  0  0  0  0  0
  192.4000  175.9380  148.0890 C   0  0  0  0  0  1  0  0  0  0  0  0
  191.4000  176.5100  147.1020 C   0  0  0  0  0  2  0  0  0  0  0  0
  1 17  1  0  0  0  0
  1  5  2  0  0  0  0
  2 13  1  0  0  0  0
  2 14  2  0  0  0  0
  3 15  1  0  0  0  0
  4  1  1  0  0  0  0
  6  8  1  0  0  0  0
  7 25  1  6  0  0  0
  7  9  1  0  0  0  0
  7 24  1  0  0  0  0
  8 11  2  0  0  0  0
 10 20  1  0  0  0  0
 10  3  1  0  0  0  0
 11  5  1  0  0  0  0
 11 28  1  0  0  0  0
 12  4  2  0  0  0  0
 12  8  1  0  0  0  0
 15 23  1  0  0  0  0
 16 13  1  0  0  0  0
 17  2  1  0  0  0  0
 18 15  2  0  0  0  0
 18  4  1  0  0  0  0
 19 10  2  0  0  0  0
 20  9  1  6  0  0  0
 20 18  1  0  0  0  0
 21 24  2  0  0  0  0
 22 16  2  0  0  0  0
 23 22  1  0  0  0  0
 23 17  2  0  0  0  0
 24 12  1  0  0  0  0
 26 27  1  0  0  0  0
 27 25  1  0  0  0  0
 28 30  1  0  0  0  0
 30 29  1  0  0  0  0
M  END
>  <MODEL>
5

>  <REMARK>
 VINA RESULT:      -9.7      1.791      5.904
  Name = 
  4 active torsions:
  status: ('A' for Active; 'I' for Inactive)
    1  A    between atoms: C_7  and  C_15
    2  A    between atoms: C_11  and  C_28
    3  A    between atoms: C_15  and  C_23
    4  A    between atoms: C_28  and  C_30
                            x       y       z     vdW  Elec       q    Type
                         _______ _______ _______ _____ _____    ______ ____

>  <TORSDO>
F 4

$$$$
=
 OpenBabel11122410263D

 30 34  0  0  1  0  0  0  0  0999 V2000
  187.8520  177.7690  143.6330 C   0  0  0  0  0  0  0  0  0  0  0  0
  185.7100  178.2440  144.9770 C   0  0  0  0  0  0  0  0  0  0  0  0
  185.9280  178.7360  140.0310 N   0  0  0  0  0  2  0  0  0  0  0  0
  188.5400  177.7530  142.3820 C   0  0  0  0  0  0  0  0  0  0  0  0
  188.5290  177.3330  144.7750 C   0  0  0  0  0  3  0  0  0  0  0  0
  191.8030  176.3050  143.4430 O   0  0  0  0  0  1  0  0  0  0  0  0
  190.1000  176.7470  139.7140 C   0  0  2  0  0  3  0  0  0  0  0  0
  190.5100  176.8220  143.4840 C   0  0  0  0  0  0  0  0  0  0  0  0
  188.6930  176.8090  139.5790 O   0  0  0  0  0  0  0  0  0  0  0  0
  187.0030  178.4440  139.1430 C   0  0  0  0  0  0  0  0  0  0  0  0
  189.8360  176.8640  144.7110 C   0  0  0  0  0  0  0  0  0  0  0  0
  189.8830  177.2850  142.3020 C   0  0  0  0  0  0  0  0  0  0  0  0
  184.4240  179.0160  145.0410 C   0  0  0  0  0  2  0  0  0  0  0  0
  186.1160  177.6670  146.0200 O   0  0  0  0  0  0  0  0  0  0  0  0
  186.5070  178.5490  141.3140 C   0  0  0  0  0  0  0  0  0  0  0  0
  183.7390  179.1120  143.7070 C   0  0  0  0  0  3  0  0  0  0  0  0
  186.4940  178.2080  143.7090 C   0  0  0  0  0  0  0  0  0  0  0  0
  187.8340  178.1900  141.2510 C   0  0  0  0  0  0  0  0  0  0  0  0
  186.8740  178.4780  137.8920 O   0  0  0  0  0  0  0  0  0  0  0  0
  188.2860  178.1260  139.8400 C   0  0  1  0  0  3  0  0  0  0  0  0
  191.9180  177.7610  141.0410 C   0  0  0  0  0  2  0  0  0  0  0  0
  184.3920  178.9520  142.5560 C   0  0  0  0  0  3  0  0  0  0  0  0
  185.8210  178.5910  142.5250 C   0  0  0  0  0  0  0  0  0  0  0  0
  190.6580  177.3250  141.0180 C   0  0  0  0  0  0  0  0  0  0  0  0
  190.7910  177.2720  138.4500 C   0  0  0  0  0  2  0  0  0  0  0  0
  192.8800  176.2130  137.6550 C   0  0  0  0  0  1  0  0  0  0  0  0
  191.3690  176.1220  137.6490 C   0  0  0  0  0  2  0  0  0  0  0  0
  190.4910  176.3780  145.9660 C   0  0  0  0  0  2  0  0  0  0  0  0
  190.8580  177.5110  148.1620 C   0  0  0  0  0  1  0  0  0  0  0  0
  189.8210  176.9660  147.1990 C   0  0  0  0  0  2  0  0  0  0  0  0
  1 17  1  0  0  0  0
  1  5  2  0  0  0  0
  2 13  1  0  0  0  0
  2 14  2  0  0  0  0
  3 15  1  0  0  0  0
  4  1  1  0  0  0  0
  6  8  1  0  0  0  0
  7 25  1  6  0  0  0
  7 24  1  0  0  0  0
  8 11  2  0  0  0  0
  9  7  1  0  0  0  0
  9 20  1  0  0  0  0
 10  3  1  0  0  0  0
 11  5  1  0  0  0  0
 11 28  1  0  0  0  0
 12  4  2  0  0  0  0
 12  8  1  0  0  0  0
 15 23  1  0  0  0  0
 16 13  1  0  0  0  0
 17  2  1  0  0  0  0
 18 15  2  0  0  0  0
 18  4  1  0  0  0  0
 19 10  2  0  0  0  0
 20 10  1  6  0  0  0
 20 18  1  0  0  0  0
 22 16  2  0  0  0  0
 23 22  1  0  0  0  0
 23 17  2  0  0  0  0
 24 21  2  0  0  0  0
 24 12  1  0  0  0  0
 27 26  1  0  0  0  0
 27 25  1  0  0  0  0
 28 30  1  0  0  0  0
 30 29  1  0  0  0  0
M  END
>  <MODEL>
6

>  <REMARK>
 VINA RESULT:      -9.6      2.296      5.825
  Name = 
  4 active torsions:
  status: ('A' for Active; 'I' for Inactive)
    1  A    between atoms: C_7  and  C_15
    2  A    between atoms: C_11  and  C_28
    3  A    between atoms: C_15  and  C_23
    4  A    between atoms: C_28  and  C_30
                            x       y       z     vdW  Elec       q    Type
                         _______ _______ _______ _____ _____    ______ ____

>  <TORSDO>
F 4

$$$$
=
 OpenBabel11122410263D

 30 34  0  0  1  0  0  0  0  0999 V2000
  185.3290  178.5430  142.2310 C   0  0  0  0  0  0  0  0  0  0  0  0
  185.0700  178.5260  139.6710 C   0  0  0  0  0  0  0  0  0  0  0  0
  189.4160  177.6400  141.9230 N   0  0  0  0  0  2  0  0  0  0  0  0
  186.1670  178.4360  143.3820 C   0  0  0  0  0  0  0  0  0  0  0  0
  183.9590  178.7400  142.4160 C   0  0  0  0  0  3  0  0  0  0  0  0
  183.6160  178.7040  146.0810 O   0  0  0  0  0  1  0  0  0  0  0  0
  187.5230  177.3880  146.1440 C   0  0  2  0  0  3  0  0  0  0  0  0
  184.2100  178.6790  144.8220 C   0  0  0  0  0  0  0  0  0  0  0  0
  188.1150  176.8680  144.9690 O   0  0  0  0  0  0  0  0  0  0  0  0
  189.7060  177.5400  143.3140 C   0  0  0  0  0  0  0  0  0  0  0  0
  183.3990  178.8060  143.6870 C   0  0  0  0  0  0  0  0  0  0  0  0
  185.6100  178.5120  144.6910 C   0  0  0  0  0  0  0  0  0  0  0  0
  185.7480  178.7340  138.3470 C   0  0  0  0  0  2  0  0  0  0  0  0
  183.8120  178.4690  139.6980 O   0  0  0  0  0  0  0  0  0  0  0  0
  188.0590  178.0600  141.9040 C   0  0  0  0  0  0  0  0  0  0  0  0
  187.1440  178.1800  138.3190 C   0  0  0  0  0  3  0  0  0  0  0  0
  185.8830  178.4340  140.9180 C   0  0  0  0  0  0  0  0  0  0  0  0
  187.5380  178.2310  143.1660 C   0  0  0  0  0  0  0  0  0  0  0  0
  190.8280  177.1670  143.7460 O   0  0  0  0  0  0  0  0  0  0  0  0
  188.5680  177.9460  144.1950 C   0  0  1  0  0  3  0  0  0  0  0  0
  186.2270  179.3490  146.8990 C   0  0  0  0  0  2  0  0  0  0  0  0
  187.8490  177.9610  139.4300 C   0  0  0  0  0  3  0  0  0  0  0  0
  187.2660  178.1780  140.7660 C   0  0  0  0  0  0  0  0  0  0  0  0
  186.4710  178.4780  145.9180 C   0  0  0  0  0  0  0  0  0  0  0  0
  188.5940  177.7550  147.1770 C   0  0  0  0  0  2  0  0  0  0  0  0
  190.8990  176.8590  147.2390 C   0  0  0  0  0  1  0  0  0  0  0  0
  189.4430  176.5430  147.5080 C   0  0  0  0  0  2  0  0  0  0  0  0
  181.9180  178.9840  143.8150 C   0  0  0  0  0  2  0  0  0  0  0  0
  180.0750  179.9880  142.4600 C   0  0  0  0  0  1  0  0  0  0  0  0
  181.2490  179.0270  142.4490 C   0  0  0  0  0  2  0  0  0  0  0  0
  1  5  2  0  0  0  0
  1  4  1  0  0  0  0
  2 14  2  0  0  0  0
  2 17  1  0  0  0  0
  3 10  1  0  0  0  0
  4 12  2  0  0  0  0
  5 11  1  0  0  0  0
  7 25  1  1  0  0  0
  8  6  1  0  0  0  0
  9  7  1  0  0  0  0
 10 19  2  0  0  0  0
 10 20  1  0  0  0  0
 11 28  1  0  0  0  0
 11  8  2  0  0  0  0
 12  8  1  0  0  0  0
 12 24  1  0  0  0  0
 13  2  1  0  0  0  0
 15  3  1  0  0  0  0
 15 18  2  0  0  0  0
 16 13  1  0  0  0  0
 16 22  2  0  0  0  0
 17  1  1  0  0  0  0
 18  4  1  0  0  0  0
 20 18  1  6  0  0  0
 20  9  1  0  0  0  0
 22 23  1  0  0  0  0
 23 17  2  0  0  0  0
 23 15  1  0  0  0  0
 24  7  1  0  0  0  0
 24 21  2  0  0  0  0
 25 27  1  0  0  0  0
 26 27  1  0  0  0  0
 30 29  1  0  0  0  0
 30 28  1  0  0  0  0
M  END
>  <MODEL>
7

>  <REMARK>
 VINA RESULT:      -9.5      2.029      5.146
  Name = 
  4 active torsions:
  status: ('A' for Active; 'I' for Inactive)
    1  A    between atoms: C_7  and  C_15
    2  A    between atoms: C_11  and  C_28
    3  A    between atoms: C_15  and  C_23
    4  A    between atoms: C_28  and  C_30
                            x       y       z     vdW  Elec       q    Type
                         _______ _______ _______ _____ _____    ______ ____

>  <TORSDO>
F 4

$$$$
=
 OpenBabel11122410263D

 30 34  0  0  1  0  0  0  0  0999 V2000
  187.1140  177.9430  142.8560 C   0  0  0  0  0  0  0  0  0  0  0  0
  185.9580  177.9950  145.1550 C   0  0  0  0  0  0  0  0  0  0  0  0
  183.6060  179.2380  140.9510 N   0  0  0  0  0  2  0  0  0  0  0  0
  187.0630  178.1830  141.4500 C   0  0  0  0  0  0  0  0  0  0  0  0
  188.2840  177.4110  143.4030 C   0  0  0  0  0  3  0  0  0  0  0  0
  190.4230  176.9270  140.4460 O   0  0  0  0  0  1  0  0  0  0  0  0
  187.0450  177.7480  138.2280 C   0  0  2  0  0  3  0  0  0  0  0  0
  189.3290  177.3000  141.2240 C   0  0  0  0  0  0  0  0  0  0  0  0
  185.7680  177.6870  138.8330 O   0  0  0  0  0  0  0  0  0  0  0  0
  184.0770  179.1910  139.6070 C   0  0  0  0  0  0  0  0  0  0  0  0
  189.3780  177.0900  142.6080 C   0  0  0  0  0  0  0  0  0  0  0  0
  188.1800  177.8690  140.6230 C   0  0  0  0  0  0  0  0  0  0  0  0
  184.8790  178.6160  145.9940 C   0  0  0  0  0  2  0  0  0  0  0  0
  186.8470  177.3130  145.7290 O   0  0  0  0  0  0  0  0  0  0  0  0
  184.7630  178.9210  141.7120 C   0  0  0  0  0  0  0  0  0  0  0  0
  183.6070  178.8410  145.2270 C   0  0  0  0  0  3  0  0  0  0  0  0
  185.9820  178.2270  143.6820 C   0  0  0  0  0  0  0  0  0  0  0  0
  185.8740  178.7100  140.9270 C   0  0  0  0  0  0  0  0  0  0  0  0
  183.3250  179.3990  138.6200 O   0  0  0  0  0  0  0  0  0  0  0  0
  185.5390  178.9030  139.4940 C   0  0  1  0  0  3  0  0  0  0  0  0
  189.2760  178.7290  138.6190 C   0  0  0  0  0  2  0  0  0  0  0  0
  183.5790  178.9200  143.8960 C   0  0  0  0  0  3  0  0  0  0  0  0
  184.7930  178.7130  143.0880 C   0  0  0  0  0  0  0  0  0  0  0  0
  188.1870  178.1770  139.1550 C   0  0  0  0  0  0  0  0  0  0  0  0
  186.9860  178.5210  136.9070 C   0  0  0  0  0  2  0  0  0  0  0  0
  187.8620  176.5010  135.7800 C   0  0  0  0  0  1  0  0  0  0  0  0
  186.7880  177.5670  135.7450 C   0  0  0  0  0  2  0  0  0  0  0  0
  190.5890  176.4910  143.2530 C   0  0  0  0  0  2  0  0  0  0  0  0
  191.5190  178.7020  143.9490 C   0  0  0  0  0  1  0  0  0  0  0  0
  191.0630  177.3370  144.4260 C   0  0  0  0  0  2  0  0  0  0  0  0
  1  5  1  0  0  0  0
  1 17  1  0  0  0  0
  2 14  2  0  0  0  0
  2 13  1  0  0  0  0
  3 15  1  0  0  0  0
  4  1  2  0  0  0  0
  6  8  1  0  0  0  0
  7 25  1  6  0  0  0
  7  9  1  0  0  0  0
  7 24  1  0  0  0  0
  8 11  1  0  0  0  0
 10  3  1  0  0  0  0
 11 28  1  0  0  0  0
 11  5  2  0  0  0  0
 12  8  2  0  0  0  0
 12  4  1  0  0  0  0
 15 23  1  0  0  0  0
 16 13  1  0  0  0  0
 17  2  1  0  0  0  0
 18  4  1  0  0  0  0
 18 15  2  0  0  0  0
 19 10  2  0  0  0  0
 20  9  1  6  0  0  0
 20 10  1  0  0  0  0
 20 18  1  0  0  0  0
 21 24  2  0  0  0  0
 22 16  2  0  0  0  0
 23 17  2  0  0  0  0
 23 22  1  0  0  0  0
 24 12  1  0  0  0  0
 27 26  1  0  0  0  0
 27 25  1  0  0  0  0
 28 30  1  0  0  0  0
 29 30  1  0  0  0  0
M  END
>  <MODEL>
8

>  <REMARK>
 VINA RESULT:      -9.5      2.148      6.336
  Name = 
  4 active torsions:
  status: ('A' for Active; 'I' for Inactive)
    1  A    between atoms: C_7  and  C_15
    2  A    between atoms: C_11  and  C_28
    3  A    between atoms: C_15  and  C_23
    4  A    between atoms: C_28  and  C_30
                            x       y       z     vdW  Elec       q    Type
                         _______ _______ _______ _____ _____    ______ ____

>  <TORSDO>
F 4

$$$$
=
 OpenBabel11122410263D

 30 34  0  0  1  0  0  0  0  0999 V2000
  186.6310  178.2280  141.4700 C   0  0  0  0  0  0  0  0  0  0  0  0
  184.5850  178.9300  140.0750 C   0  0  0  0  0  0  0  0  0  0  0  0
  184.3950  178.3950  145.0170 N   0  0  0  0  0  2  0  0  0  0  0  0
  187.1960  177.8860  142.7350 C   0  0  0  0  0  0  0  0  0  0  0  0
  187.4630  178.2530  140.3480 C   0  0  0  0  0  3  0  0  0  0  0  0
  190.7630  177.4400  141.7620 O   0  0  0  0  0  1  0  0  0  0  0  0
  188.9850  177.9410  145.4480 C   0  0  2  0  0  3  0  0  0  0  0  0
  189.3910  177.6650  141.6870 C   0  0  0  0  0  0  0  0  0  0  0  0
  187.7460  178.6150  145.5520 O   0  0  0  0  0  0  0  0  0  0  0  0
  185.4440  178.0890  145.9320 C   0  0  0  0  0  0  0  0  0  0  0  0
  188.8220  177.9790  140.4460 C   0  0  0  0  0  0  0  0  0  0  0  0
  188.5860  177.5930  142.8490 C   0  0  0  0  0  0  0  0  0  0  0  0
  183.0870  178.9330  139.9740 C   0  0  0  0  0  2  0  0  0  0  0  0
  185.2560  179.2130  139.0480 O   0  0  0  0  0  0  0  0  0  0  0  0
  185.0190  178.2560  143.7490 C   0  0  0  0  0  0  0  0  0  0  0  0
  182.4180  179.2050  141.2920 C   0  0  0  0  0  3  0  0  0  0  0  0
  185.2430  178.5540  141.3590 C   0  0  0  0  0  0  0  0  0  0  0  0
  186.3390  177.8770  143.8450 C   0  0  0  0  0  0  0  0  0  0  0  0
  185.2850  178.1260  147.1790 O   0  0  0  0  0  0  0  0  0  0  0  0
  186.7240  177.6990  145.2660 C   0  0  1  0  0  3  0  0  0  0  0  0
  190.0500  176.1340  144.1470 C   0  0  0  0  0  2  0  0  0  0  0  0
  183.0320  179.0040  142.4590 C   0  0  0  0  0  3  0  0  0  0  0  0
  184.4400  178.5750  142.5240 C   0  0  0  0  0  0  0  0  0  0  0  0
  189.1960  177.1580  144.1480 C   0  0  0  0  0  0  0  0  0  0  0  0
  189.2740  177.1340  146.7190 C   0  0  0  0  0  2  0  0  0  0  0  0
  188.2540  177.8780  148.8460 C   0  0  0  0  0  1  0  0  0  0  0  0
  189.4280  178.0620  147.9090 C   0  0  0  0  0  2  0  0  0  0  0  0
  189.6650  178.0560  139.2110 C   0  0  0  0  0  2  0  0  0  0  0  0
  188.9820  178.3320  136.8230 C   0  0  0  0  0  1  0  0  0  0  0  0
  189.0520  178.9980  138.1850 C   0  0  0  0  0  2  0  0  0  0  0  0
  1  4  1  0  0  0  0
  2 17  1  0  0  0  0
  3 10  1  0  0  0  0
  4 12  1  0  0  0  0
  4 18  2  0  0  0  0
  5 11  2  0  0  0  0
  5  1  1  0  0  0  0
  7  9  1  0  0  0  0
  7 25  1  1  0  0  0
  8  6  1  0  0  0  0
  8 12  2  0  0  0  0
 10 19  2  0  0  0  0
 11  8  1  0  0  0  0
 12 24  1  0  0  0  0
 13  2  1  0  0  0  0
 13 16  1  0  0  0  0
 14  2  2  0  0  0  0
 15 18  1  0  0  0  0
 15  3  1  0  0  0  0
 16 22  2  0  0  0  0
 17  1  2  0  0  0  0
 17 23  1  0  0  0  0
 20 18  1  6  0  0  0
 20  9  1  0  0  0  0
 20 10  1  0  0  0  0
 21 24  2  0  0  0  0
 22 23  1  0  0  0  0
 23 15  2  0  0  0  0
 24  7  1  0  0  0  0
 25 27  1  0  0  0  0
 27 26  1  0  0  0  0
 28 11  1  0  0  0  0
 29 30  1  0  0  0  0
 30 28  1  0  0  0  0
M  END
>  <MODEL>
9

>  <REMARK>
 VINA RESULT:      -9.5      1.726      2.329
  Name = 
  4 active torsions:
  status: ('A' for Active; 'I' for Inactive)
    1  A    between atoms: C_7  and  C_15
    2  A    between atoms: C_11  and  C_28
    3  A    between atoms: C_15  and  C_23
    4  A    between atoms: C_28  and  C_30
                            x       y       z     vdW  Elec       q    Type
                         _______ _______ _______ _____ _____    ______ ____

>  <TORSDO>
F 4

$$$$
