=
 OpenBabel11122411043D

 31 35  0  0  1  0  0  0  0  0999 V2000
  189.9860  176.7800  146.4570 C   0  0  0  0  0  0  0  0  0  0  0  0
  187.6520  177.6250  143.6260 N   0  0  0  0  0  0  0  0  0  0  0  0
  186.4020  178.1020  144.1790 C   0  0  0  0  0  0  0  0  0  0  0  0
  184.8560  178.4150  146.0320 C   0  0  0  0  0  0  0  0  0  0  0  0
  188.8450  177.4680  144.4250 C   0  0  0  0  0  0  0  0  0  0  0  0
  191.2130  177.1490  145.8990 C   0  0  0  0  0  3  0  0  0  0  0  0
  186.0710  177.9360  145.5330 C   0  0  0  0  0  3  0  0  0  0  0  0
  188.9300  178.6160  141.7650 C   0  0  2  0  0  3  0  0  0  0  0  0
  189.9400  176.2690  147.7100 F   0  0  0  0  0  0  0  0  0  0  0  0
  185.8670  178.9690  141.9100 C   0  0  0  0  0  2  0  0  0  0  0  0
  184.5480  178.2480  147.3400 F   0  0  0  0  0  0  0  0  0  0  0  0
  190.1460  178.3480  142.5330 N   0  0  0  0  0  2  0  0  0  0  0  0
  187.8470  177.6080  142.1610 C   0  0  2  0  0  3  0  0  0  0  0  0
  188.8090  176.9340  145.7220 C   0  0  0  0  0  3  0  0  0  0  0  0
  183.9620  179.0710  145.1820 C   0  0  0  0  0  3  0  0  0  0  0  0
  190.0870  177.8350  143.8690 C   0  0  0  0  0  0  0  0  0  0  0  0
  191.2640  177.6730  144.6050 C   0  0  0  0  0  3  0  0  0  0  0  0
  186.5950  177.8040  141.4140 N   0  0  0  0  0  2  0  0  0  0  0  0
  185.4910  178.7520  143.3340 C   0  0  0  0  0  0  0  0  0  0  0  0
  184.2810  179.2430  143.8330 C   0  0  0  0  0  3  0  0  0  0  0  0
  190.2040  176.4010  140.5040 O   0  0  0  0  0  0  0  0  0  0  0  0
  189.8510  177.3660  139.7720 C   0  0  0  0  0  0  0  0  0  0  0  0
  189.2160  178.5110  140.3420 N   0  0  0  0  0  2  0  0  0  0  0  0
  189.8000  174.7370  137.1750 C   0  0  1  0  0  3  0  0  0  0  0  0
  188.8240  177.0100  137.5150 C   0  0  0  0  0  2  0  0  0  0  0  0
  192.5240  176.6330  138.5910 C   0  0  0  0  0  1  0  0  0  0  0  0
  189.5180  173.3130  137.1810 N   0  0  0  0  0  1  0  0  0  0  0  0
  188.5280  175.5080  137.5290 C   0  0  0  0  0  2  0  0  0  0  0  0
  191.2130  176.3470  137.8800 C   0  0  2  0  0  3  0  0  0  0  0  0
  190.1050  177.3350  138.2910 C   0  0  2  0  0  3  0  0  0  0  0  0
  190.8120  175.0180  138.1110 O   0  0  0  0  0  0  0  0  0  0  0  0
  1  9  1  0  0  0  0
  2  3  1  0  0  0  0
  2  5  1  0  0  0  0
  3  7  1  0  0  0  0
  4 11  1  0  0  0  0
  5 14  1  0  0  0  0
  6  1  1  0  0  0  0
  7  4  2  0  0  0  0
  8 23  1  6  0  0  0
  8 13  1  0  0  0  0
  8 12  1  0  0  0  0
 10 19  1  0  0  0  0
 12 16  1  0  0  0  0
 13 18  1  6  0  0  0
 13  2  1  0  0  0  0
 14  1  2  0  0  0  0
 15  4  1  0  0  0  0
 16  5  2  0  0  0  0
 16 17  1  0  0  0  0
 17  6  2  0  0  0  0
 18 10  1  0  0  0  0
 19 20  1  0  0  0  0
 19  3  2  0  0  0  0
 20 15  2  0  0  0  0
 22 23  1  0  0  0  0
 22 21  2  0  0  0  0
 24 27  1  1  0  0  0
 24 28  1  0  0  0  0
 24 31  1  0  0  0  0
 25 28  1  0  0  0  0
 25 30  1  0  0  0  0
 29 31  1  0  0  0  0
 29 30  1  0  0  0  0
 29 26  1  1  0  0  0
 30 22  1  1  0  0  0
M  END
>  <MODEL>
1

>  <REMARK>
 VINA RESULT:     -10.2      0.000      0.000
  Name = 
  2 active torsions:
  status: ('A' for Active; 'I' for Inactive)
    1  A    between atoms: C_5  and  C_30
    2  A    between atoms: C_10  and  N_16
                            x       y       z     vdW  Elec       q    Type
                         _______ _______ _______ _____ _____    ______ ____

>  <TORSDO>
F 2

$$$$
=
 OpenBabel11122411043D

 31 35  0  0  1  0  0  0  0  0999 V2000
  190.1620  176.2020  142.6670 C   0  0  0  0  0  0  0  0  0  0  0  0
  186.7840  177.6050  143.5600 N   0  0  0  0  0  0  0  0  0  0  0  0
  186.7630  177.9050  144.9760 C   0  0  0  0  0  0  0  0  0  0  0  0
  187.6930  177.7400  147.2180 C   0  0  0  0  0  0  0  0  0  0  0  0
  188.0040  177.3040  142.8470 C   0  0  0  0  0  0  0  0  0  0  0  0
  190.3280  176.7250  141.3820 C   0  0  0  0  0  3  0  0  0  0  0  0
  187.7440  177.4240  145.8570 C   0  0  0  0  0  3  0  0  0  0  0  0
  185.9670  179.0330  141.7230 C   0  0  2  0  0  3  0  0  0  0  0  0
  191.1240  175.4170  143.2060 F   0  0  0  0  0  0  0  0  0  0  0  0
  184.7190  179.2530  144.5370 C   0  0  0  0  0  2  0  0  0  0  0  0
  188.6450  177.2690  148.0580 F   0  0  0  0  0  0  0  0  0  0  0  0
  187.1510  178.6310  140.9620 N   0  0  0  0  0  2  0  0  0  0  0  0
  185.6090  177.9290  142.7230 C   0  0  2  0  0  3  0  0  0  0  0  0
  189.0040  176.4860  143.3940 C   0  0  0  0  0  3  0  0  0  0  0  0
  186.6640  178.5470  147.7090 C   0  0  0  0  0  3  0  0  0  0  0  0
  188.1780  177.8240  141.5480 C   0  0  0  0  0  0  0  0  0  0  0  0
  189.3350  177.5320  140.8210 C   0  0  0  0  0  3  0  0  0  0  0  0
  184.4130  178.2550  143.5160 N   0  0  0  0  0  2  0  0  0  0  0  0
  185.7300  178.7040  145.4830 C   0  0  0  0  0  0  0  0  0  0  0  0
  185.6830  179.0330  146.8410 C   0  0  0  0  0  3  0  0  0  0  0  0
  185.9920  178.4940  138.9250 O   0  0  0  0  0  0  0  0  0  0  0  0
  184.9310  178.9640  139.4200 C   0  0  0  0  0  0  0  0  0  0  0  0
  184.8550  179.2640  140.8130 N   0  0  0  0  0  2  0  0  0  0  0  0
  181.3970  177.8810  139.4550 C   0  0  1  0  0  3  0  0  0  0  0  0
  182.6640  180.0270  139.3040 C   0  0  0  0  0  2  0  0  0  0  0  0
  184.1000  177.1180  137.1880 C   0  0  0  0  0  1  0  0  0  0  0  0
  180.6070  177.0300  140.3260 N   0  0  0  0  0  1  0  0  0  0  0  0
  181.8390  179.1260  140.2250 C   0  0  0  0  0  2  0  0  0  0  0  0
  183.0990  177.9450  137.9770 C   0  0  2  0  0  3  0  0  0  0  0  0
  183.7330  179.2270  138.5510 C   0  0  2  0  0  3  0  0  0  0  0  0
  182.5220  177.1690  139.0000 O   0  0  0  0  0  0  0  0  0  0  0  0
  1  9  1  0  0  0  0
  1 14  1  0  0  0  0
  2  3  1  0  0  0  0
  3 19  2  0  0  0  0
  3  7  1  0  0  0  0
  4 15  1  0  0  0  0
  4 11  1  0  0  0  0
  5 14  2  0  0  0  0
  5  2  1  0  0  0  0
  6  1  2  0  0  0  0
  7  4  2  0  0  0  0
  8 23  1  6  0  0  0
  8 13  1  0  0  0  0
 10 19  1  0  0  0  0
 12 16  1  0  0  0  0
 12  8  1  0  0  0  0
 13 18  1  1  0  0  0
 13  2  1  0  0  0  0
 16  5  1  0  0  0  0
 17  6  1  0  0  0  0
 17 16  2  0  0  0  0
 18 10  1  0  0  0  0
 19 20  1  0  0  0  0
 20 15  2  0  0  0  0
 21 22  2  0  0  0  0
 22 23  1  0  0  0  0
 24 28  1  0  0  0  0
 24 27  1  1  0  0  0
 25 28  1  0  0  0  0
 29 26  1  1  0  0  0
 29 30  1  0  0  0  0
 29 31  1  0  0  0  0
 30 25  1  0  0  0  0
 30 22  1  1  0  0  0
 31 24  1  0  0  0  0
M  END
>  <MODEL>
2

>  <REMARK>
 VINA RESULT:     -10.2      3.252      5.193
  Name = 
  2 active torsions:
  status: ('A' for Active; 'I' for Inactive)
    1  A    between atoms: C_5  and  C_30
    2  A    between atoms: C_10  and  N_16
                            x       y       z     vdW  Elec       q    Type
                         _______ _______ _______ _____ _____    ______ ____

>  <TORSDO>
F 2

$$$$
=
 OpenBabel11122411043D

 31 35  0  0  1  0  0  0  0  0999 V2000
  190.0370  176.9560  146.0440 C   0  0  0  0  0  0  0  0  0  0  0  0
  187.4120  177.7520  143.4660 N   0  0  0  0  0  0  0  0  0  0  0  0
  186.2030  178.1710  144.1450 C   0  0  0  0  0  0  0  0  0  0  0  0
  184.8320  178.3940  146.1420 C   0  0  0  0  0  0  0  0  0  0  0  0
  188.6810  177.6300  144.1440 C   0  0  0  0  0  0  0  0  0  0  0  0
  191.1900  177.3820  145.3800 C   0  0  0  0  0  3  0  0  0  0  0  0
  186.0110  177.9720  145.5210 C   0  0  0  0  0  3  0  0  0  0  0  0
  188.4670  178.8210  141.5100 C   0  0  2  0  0  3  0  0  0  0  0  0
  190.1310  176.4250  147.2870 F   0  0  0  0  0  0  0  0  0  0  0  0
  185.4210  179.0520  141.9540 C   0  0  0  0  0  2  0  0  0  0  0  0
  184.6580  178.1950  147.4700 F   0  0  0  0  0  0  0  0  0  0  0  0
  189.7600  178.5890  142.1540 N   0  0  0  0  0  2  0  0  0  0  0  0
  187.4660  177.7650  141.9890 C   0  0  2  0  0  3  0  0  0  0  0  0
  188.7890  177.0750  145.4280 C   0  0  0  0  0  3  0  0  0  0  0  0
  183.8370  179.0280  145.3940 C   0  0  0  0  0  3  0  0  0  0  0  0
  189.8500  178.0540  143.4790 C   0  0  0  0  0  0  0  0  0  0  0  0
  191.0970  177.9270  144.0960 C   0  0  0  0  0  3  0  0  0  0  0  0
  186.1410  177.9240  141.3680 N   0  0  0  0  0  2  0  0  0  0  0  0
  185.1920  178.7970  143.4030 C   0  0  0  0  0  0  0  0  0  0  0  0
  184.0180  179.2330  144.0240 C   0  0  0  0  0  3  0  0  0  0  0  0
  189.9850  176.8560  140.1130 O   0  0  0  0  0  0  0  0  0  0  0  0
  189.3890  177.7300  139.4260 C   0  0  0  0  0  0  0  0  0  0  0  0
  188.6190  178.7490  140.0650 N   0  0  0  0  0  2  0  0  0  0  0  0
  187.2010  176.5930  136.6730 C   0  0  1  0  0  3  0  0  0  0  0  0
  188.4530  178.6610  137.2960 C   0  0  0  0  0  2  0  0  0  0  0  0
  190.3690  175.3450  137.8700 C   0  0  0  0  0  1  0  0  0  0  0  0
  185.8890  175.9760  136.6120 N   0  0  0  0  0  1  0  0  0  0  0  0
  187.0710  178.0080  137.2390 C   0  0  0  0  0  2  0  0  0  0  0  0
  189.3470  176.3190  137.3090 C   0  0  2  0  0  3  0  0  0  0  0  0
  189.4890  177.7240  137.9270 C   0  0  2  0  0  3  0  0  0  0  0  0
  188.0440  175.8200  137.4930 O   0  0  0  0  0  0  0  0  0  0  0  0
  1  9  1  0  0  0  0
  2  5  1  0  0  0  0
  2  3  1  0  0  0  0
  3  7  1  0  0  0  0
  4 11  1  0  0  0  0
  5 14  2  0  0  0  0
  6  1  2  0  0  0  0
  7  4  2  0  0  0  0
  8 23  1  6  0  0  0
  8 13  1  0  0  0  0
  8 12  1  0  0  0  0
 10 19  1  0  0  0  0
 12 16  1  0  0  0  0
 13 18  1  6  0  0  0
 13  2  1  0  0  0  0
 14  1  1  0  0  0  0
 15  4  1  0  0  0  0
 16 17  2  0  0  0  0
 16  5  1  0  0  0  0
 17  6  1  0  0  0  0
 18 10  1  0  0  0  0
 19 20  1  0  0  0  0
 19  3  2  0  0  0  0
 20 15  2  0  0  0  0
 22 23  1  0  0  0  0
 22 21  2  0  0  0  0
 24 27  1  1  0  0  0
 24 28  1  0  0  0  0
 24 31  1  0  0  0  0
 25 30  1  0  0  0  0
 28 25  1  0  0  0  0
 29 31  1  0  0  0  0
 29 26  1  1  0  0  0
 29 30  1  0  0  0  0
 30 22  1  1  0  0  0
M  END
>  <MODEL>
3

>  <REMARK>
 VINA RESULT:     -10.0      1.234      1.471
  Name = 
  2 active torsions:
  status: ('A' for Active; 'I' for Inactive)
    1  A    between atoms: C_5  and  C_30
    2  A    between atoms: C_10  and  N_16
                            x       y       z     vdW  Elec       q    Type
                         _______ _______ _______ _____ _____    ______ ____

>  <TORSDO>
F 2

$$$$
=
 OpenBabel11122411043D

 31 35  0  0  1  0  0  0  0  0999 V2000
  184.2850  178.8650  144.8240 C   0  0  0  0  0  0  0  0  0  0  0  0
  187.9490  178.3410  144.1360 N   0  0  0  0  0  0  0  0  0  0  0  0
  188.5690  177.7730  145.3150 C   0  0  0  0  0  0  0  0  0  0  0  0
  188.5550  177.1950  147.6790 C   0  0  0  0  0  0  0  0  0  0  0  0
  186.5160  178.4190  143.9720 C   0  0  0  0  0  0  0  0  0  0  0  0
  183.7440  178.5950  143.5650 C   0  0  0  0  0  3  0  0  0  0  0  0
  187.9270  177.7580  146.5640 C   0  0  0  0  0  3  0  0  0  0  0  0
  188.2600  177.6210  141.7980 C   0  0  2  0  0  3  0  0  0  0  0  0
  183.4710  179.2110  145.8490 F   0  0  0  0  0  0  0  0  0  0  0  0
  190.5070  177.1910  143.8690 C   0  0  0  0  0  2  0  0  0  0  0  0
  187.9270  177.1880  148.8780 F   0  0  0  0  0  0  0  0  0  0  0  0
  186.8210  177.8130  141.6090 N   0  0  0  0  0  2  0  0  0  0  0  0
  188.7530  178.5490  142.9120 C   0  0  2  0  0  3  0  0  0  0  0  0
  185.6650  178.7820  145.0260 C   0  0  0  0  0  3  0  0  0  0  0  0
  189.8290  176.6350  147.5530 C   0  0  0  0  0  3  0  0  0  0  0  0
  185.9620  178.1510  142.7040 C   0  0  0  0  0  0  0  0  0  0  0  0
  184.5830  178.2410  142.5040 C   0  0  0  0  0  3  0  0  0  0  0  0
  190.2000  178.4240  143.1490 N   0  0  0  0  0  2  0  0  0  0  0  0
  189.8510  177.2180  145.2060 C   0  0  0  0  0  0  0  0  0  0  0  0
  190.4770  176.6430  146.3160 C   0  0  0  0  0  3  0  0  0  0  0  0
  190.2190  175.9460  140.5830 O   0  0  0  0  0  0  0  0  0  0  0  0
  189.9270  177.0240  139.9960 C   0  0  0  0  0  0  0  0  0  0  0  0
  188.9600  177.9130  140.5570 N   0  0  0  0  0  2  0  0  0  0  0  0
  191.2550  175.1400  137.1080 C   0  0  1  0  0  3  0  0  0  0  0  0
  189.7150  177.0650  137.5000 C   0  0  0  0  0  2  0  0  0  0  0  0
  192.9220  177.0570  139.6710 C   0  0  0  0  0  1  0  0  0  0  0  0
  191.3280  173.7320  136.7640 N   0  0  0  0  0  1  0  0  0  0  0  0
  189.7910  175.5780  137.1460 C   0  0  0  0  0  2  0  0  0  0  0  0
  191.9810  176.7400  138.5210 C   0  0  2  0  0  3  0  0  0  0  0  0
  190.6000  177.3980  138.7060 C   0  0  2  0  0  3  0  0  0  0  0  0
  191.8550  175.3470  138.3630 O   0  0  0  0  0  0  0  0  0  0  0  0
  1 14  1  0  0  0  0
  1  9  1  0  0  0  0
  2  3  1  0  0  0  0
  3  7  1  0  0  0  0
  4 11  1  0  0  0  0
  5  2  1  0  0  0  0
  5 14  2  0  0  0  0
  6  1  2  0  0  0  0
  7  4  2  0  0  0  0
  8 23  1  6  0  0  0
  8 13  1  0  0  0  0
 10 19  1  0  0  0  0
 12  8  1  0  0  0  0
 12 16  1  0  0  0  0
 13 18  1  1  0  0  0
 13  2  1  0  0  0  0
 15  4  1  0  0  0  0
 16  5  1  0  0  0  0
 17 16  2  0  0  0  0
 17  6  1  0  0  0  0
 18 10  1  0  0  0  0
 19  3  2  0  0  0  0
 19 20  1  0  0  0  0
 20 15  2  0  0  0  0
 22 23  1  0  0  0  0
 22 21  2  0  0  0  0
 24 27  1  1  0  0  0
 24 28  1  0  0  0  0
 24 31  1  0  0  0  0
 25 30  1  0  0  0  0
 28 25  1  0  0  0  0
 29 30  1  0  0  0  0
 29 26  1  1  0  0  0
 30 22  1  1  0  0  0
 31 29  1  0  0  0  0
M  END
>  <MODEL>
4

>  <REMARK>
 VINA RESULT:      -9.9      1.144      3.959
  Name = 
  2 active torsions:
  status: ('A' for Active; 'I' for Inactive)
    1  A    between atoms: C_5  and  C_30
    2  A    between atoms: C_10  and  N_16
                            x       y       z     vdW  Elec       q    Type
                         _______ _______ _______ _____ _____    ______ ____

>  <TORSDO>
F 2

$$$$
=
 OpenBabel11122411043D

 31 35  0  0  1  0  0  0  0  0999 V2000
  184.3600  178.7610  145.0400 C   0  0  0  0  0  0  0  0  0  0  0  0
  187.9810  178.3800  144.0810 N   0  0  0  0  0  0  0  0  0  0  0  0
  188.6950  177.7790  145.1880 C   0  0  0  0  0  0  0  0  0  0  0  0
  188.8610  177.0960  147.5170 C   0  0  0  0  0  0  0  0  0  0  0  0
  186.5380  178.4220  144.0180 C   0  0  0  0  0  0  0  0  0  0  0  0
  183.7410  178.5310  143.8090 C   0  0  0  0  0  3  0  0  0  0  0  0
  188.1420  177.6890  146.4750 C   0  0  0  0  0  3  0  0  0  0  0  0
  188.1480  177.7750  141.6970 C   0  0  2  0  0  3  0  0  0  0  0  0
  183.6090  179.0360  146.1330 F   0  0  0  0  0  0  0  0  0  0  0  0
  190.5450  177.3220  143.5880 C   0  0  0  0  0  2  0  0  0  0  0  0
  188.3170  177.0160  148.7550 F   0  0  0  0  0  0  0  0  0  0  0  0
  186.6960  177.9320  141.6150 N   0  0  0  0  0  2  0  0  0  0  0  0
  188.6920  178.6670  142.8170 C   0  0  2  0  0  3  0  0  0  0  0  0
  185.7520  178.7120  145.1440 C   0  0  0  0  0  3  0  0  0  0  0  0
  190.1380  176.5810  147.2800 C   0  0  0  0  0  3  0  0  0  0  0  0
  185.9060  178.1940  142.7800 C   0  0  0  0  0  0  0  0  0  0  0  0
  184.5130  178.2520  142.6780 C   0  0  0  0  0  3  0  0  0  0  0  0
  190.1540  178.5760  142.9490 N   0  0  0  0  0  2  0  0  0  0  0  0
  189.9820  177.2690  144.9660 C   0  0  0  0  0  0  0  0  0  0  0  0
  190.6980  176.6640  146.0030 C   0  0  0  0  0  3  0  0  0  0  0  0
  189.9890  176.1720  140.2260 O   0  0  0  0  0  0  0  0  0  0  0  0
  189.6640  177.2880  139.7350 C   0  0  0  0  0  0  0  0  0  0  0  0
  188.7540  178.1440  140.4250 N   0  0  0  0  0  2  0  0  0  0  0  0
  188.7680  176.7860  136.1840 C   0  0  1  0  0  3  0  0  0  0  0  0
  189.2860  178.7020  137.7000 C   0  0  0  0  0  2  0  0  0  0  0  0
  191.5730  175.6050  138.1230 C   0  0  0  0  0  1  0  0  0  0  0  0
  187.7070  176.0720  135.4990 N   0  0  0  0  0  1  0  0  0  0  0  0
  188.1660  177.9430  136.9850 C   0  0  0  0  0  2  0  0  0  0  0  0
  190.6030  176.5800  137.4780 C   0  0  2  0  0  3  0  0  0  0  0  0
  190.2390  177.7420  138.4230 C   0  0  2  0  0  3  0  0  0  0  0  0
  189.4470  175.9050  137.0450 O   0  0  0  0  0  0  0  0  0  0  0  0
  1 14  1  0  0  0  0
  1  9  1  0  0  0  0
  2  3  1  0  0  0  0
  3  7  1  0  0  0  0
  4 11  1  0  0  0  0
  5  2  1  0  0  0  0
  5 14  2  0  0  0  0
  6  1  2  0  0  0  0
  7  4  2  0  0  0  0
  8 23  1  6  0  0  0
  8 13  1  0  0  0  0
 10 19  1  0  0  0  0
 12  8  1  0  0  0  0
 12 16  1  0  0  0  0
 13 18  1  1  0  0  0
 13  2  1  0  0  0  0
 15  4  1  0  0  0  0
 16  5  1  0  0  0  0
 17 16  2  0  0  0  0
 17  6  1  0  0  0  0
 18 10  1  0  0  0  0
 19  3  2  0  0  0  0
 19 20  1  0  0  0  0
 20 15  2  0  0  0  0
 22 21  2  0  0  0  0
 22 23  1  0  0  0  0
 24 27  1  1  0  0  0
 24 28  1  0  0  0  0
 24 31  1  0  0  0  0
 25 30  1  0  0  0  0
 28 25  1  0  0  0  0
 29 26  1  1  0  0  0
 29 30  1  0  0  0  0
 30 22  1  1  0  0  0
 31 29  1  0  0  0  0
M  END
>  <MODEL>
5

>  <REMARK>
 VINA RESULT:      -9.7      1.282      4.058
  Name = 
  2 active torsions:
  status: ('A' for Active; 'I' for Inactive)
    1  A    between atoms: C_5  and  C_30
    2  A    between atoms: C_10  and  N_16
                            x       y       z     vdW  Elec       q    Type
                         _______ _______ _______ _____ _____    ______ ____

>  <TORSDO>
F 2

$$$$
=
 OpenBabel11122411043D

 31 35  0  0  1  0  0  0  0  0999 V2000
  191.1980  176.6540  144.5750 C   0  0  0  0  0  0  0  0  0  0  0  0
  187.6700  177.5490  143.6140 N   0  0  0  0  0  0  0  0  0  0  0  0
  186.9420  177.9250  144.8080 C   0  0  0  0  0  0  0  0  0  0  0  0
  186.7020  178.0430  147.2260 C   0  0  0  0  0  0  0  0  0  0  0  0
  189.1070  177.4050  143.5920 C   0  0  0  0  0  0  0  0  0  0  0  0
  191.8960  177.1190  143.4580 C   0  0  0  0  0  3  0  0  0  0  0  0
  187.4310  177.6600  146.0970 C   0  0  0  0  0  3  0  0  0  0  0  0
  187.6720  178.7170  141.4420 C   0  0  2  0  0  3  0  0  0  0  0  0
  191.8680  176.0660  145.5940 F   0  0  0  0  0  0  0  0  0  0  0  0
  185.2180  178.9010  143.3040 C   0  0  0  0  0  2  0  0  0  0  0  0
  187.1840  177.7810  148.4640 F   0  0  0  0  0  0  0  0  0  0  0  0
  189.1120  178.4650  141.3750 N   0  0  0  0  0  2  0  0  0  0  0  0
  187.0080  177.6310  142.2940 C   0  0  2  0  0  3  0  0  0  0  0  0
  189.8100  176.7910  144.6400 C   0  0  0  0  0  3  0  0  0  0  0  0
  185.4800  178.7030  147.0770 C   0  0  0  0  0  3  0  0  0  0  0  0
  189.8190  177.8690  142.4680 C   0  0  0  0  0  0  0  0  0  0  0  0
  191.2070  177.7230  142.4030 C   0  0  0  0  0  3  0  0  0  0  0  0
  185.5510  177.8080  142.3940 N   0  0  0  0  0  2  0  0  0  0  0  0
  185.7090  178.5770  144.6720 C   0  0  0  0  0  0  0  0  0  0  0  0
  184.9840  178.9740  145.8000 C   0  0  0  0  0  3  0  0  0  0  0  0
  188.5240  177.0320  139.3080 O   0  0  0  0  0  0  0  0  0  0  0  0
  187.5790  177.8350  139.0760 C   0  0  0  0  0  0  0  0  0  0  0  0
  187.1100  178.7130  140.1000 N   0  0  0  0  0  2  0  0  0  0  0  0
  187.7730  175.7720  136.0160 C   0  0  1  0  0  3  0  0  0  0  0  0
  185.9940  176.7050  137.4990 C   0  0  0  0  0  2  0  0  0  0  0  0
  188.9070  179.1280  136.7020 C   0  0  0  0  0  1  0  0  0  0  0  0
  188.5000  174.5700  135.6500 N   0  0  0  0  0  1  0  0  0  0  0  0
  186.7660  175.4400  137.1180 C   0  0  0  0  0  2  0  0  0  0  0  0
  187.9570  177.9520  136.5620 C   0  0  2  0  0  3  0  0  0  0  0  0
  186.9390  177.8920  137.7180 C   0  0  2  0  0  3  0  0  0  0  0  0
  188.6800  176.7480  136.4680 O   0  0  0  0  0  0  0  0  0  0  0  0
  1 14  1  0  0  0  0
  1  9  1  0  0  0  0
  2  3  1  0  0  0  0
  3  7  1  0  0  0  0
  4 11  1  0  0  0  0
  5  2  1  0  0  0  0
  5 14  2  0  0  0  0
  6  1  2  0  0  0  0
  7  4  2  0  0  0  0
  8 23  1  6  0  0  0
  8 13  1  0  0  0  0
 10 19  1  0  0  0  0
 12  8  1  0  0  0  0
 12 16  1  0  0  0  0
 13 18  1  1  0  0  0
 13  2  1  0  0  0  0
 15  4  1  0  0  0  0
 16  5  1  0  0  0  0
 17 16  2  0  0  0  0
 17  6  1  0  0  0  0
 18 10  1  0  0  0  0
 19  3  2  0  0  0  0
 19 20  1  0  0  0  0
 20 15  2  0  0  0  0
 22 21  2  0  0  0  0
 22 23  1  0  0  0  0
 24 27  1  1  0  0  0
 24 31  1  0  0  0  0
 24 28  1  0  0  0  0
 25 30  1  0  0  0  0
 28 25  1  0  0  0  0
 29 26  1  1  0  0  0
 29 30  1  0  0  0  0
 30 22  1  1  0  0  0
 31 29  1  0  0  0  0
M  END
>  <MODEL>
6

>  <REMARK>
 VINA RESULT:      -9.7      1.964      2.301
  Name = 
  2 active torsions:
  status: ('A' for Active; 'I' for Inactive)
    1  A    between atoms: C_5  and  C_30
    2  A    between atoms: C_10  and  N_16
                            x       y       z     vdW  Elec       q    Type
                         _______ _______ _______ _____ _____    ______ ____

>  <TORSDO>
F 2

$$$$
=
 OpenBabel11122411043D

 31 35  0  0  1  0  0  0  0  0999 V2000
  189.7180  176.8480  141.8080 C   0  0  0  0  0  0  0  0  0  0  0  0
  186.2640  177.8170  142.9510 N   0  0  0  0  0  0  0  0  0  0  0  0
  186.2900  178.0340  144.3820 C   0  0  0  0  0  0  0  0  0  0  0  0
  187.3570  177.8470  146.5610 C   0  0  0  0  0  0  0  0  0  0  0  0
  187.4680  177.6930  142.1620 C   0  0  0  0  0  0  0  0  0  0  0  0
  189.7550  177.4570  140.5510 C   0  0  0  0  0  3  0  0  0  0  0  0
  187.3650  177.6160  145.1830 C   0  0  0  0  0  3  0  0  0  0  0  0
  185.1980  179.2470  141.2480 C   0  0  2  0  0  3  0  0  0  0  0  0
  190.7880  176.1450  142.2500 F   0  0  0  0  0  0  0  0  0  0  0  0
  184.0930  179.1710  144.1290 C   0  0  0  0  0  2  0  0  0  0  0  0
  188.3990  177.4380  147.3230 F   0  0  0  0  0  0  0  0  0  0  0  0
  186.3730  179.0220  140.4070 N   0  0  0  0  0  2  0  0  0  0  0  0
  185.0170  178.0570  142.1950 C   0  0  2  0  0  3  0  0  0  0  0  0
  188.5790  176.9610  142.6080 C   0  0  0  0  0  3  0  0  0  0  0  0
  186.2760  178.5070  147.1520 C   0  0  0  0  0  3  0  0  0  0  0  0
  187.5120  178.3010  140.8910 C   0  0  0  0  0  0  0  0  0  0  0  0
  188.6510  178.1800  140.0910 C   0  0  0  0  0  3  0  0  0  0  0  0
  183.8390  178.2040  143.0650 N   0  0  0  0  0  2  0  0  0  0  0  0
  185.2070  178.6850  144.9890 C   0  0  0  0  0  0  0  0  0  0  0  0
  185.2020  178.9300  146.3650 C   0  0  0  0  0  3  0  0  0  0  0  0
  184.4910  177.5540  139.0680 O   0  0  0  0  0  0  0  0  0  0  0  0
  183.7180  178.5140  139.3360 C   0  0  0  0  0  0  0  0  0  0  0  0
  184.0180  179.4050  140.4110 N   0  0  0  0  0  2  0  0  0  0  0  0
  180.4660  180.1580  139.9580 C   0  0  1  0  0  3  0  0  0  0  0  0
  182.2690  180.2350  138.2320 C   0  0  0  0  0  2  0  0  0  0  0  0
  181.3260  176.6880  139.4660 C   0  0  0  0  0  1  0  0  0  0  0  0
  179.8820  180.8500  141.0920 N   0  0  0  0  0  1  0  0  0  0  0  0
  181.6580  180.9600  139.4330 C   0  0  0  0  0  2  0  0  0  0  0  0
  181.2010  178.1740  139.1780 C   0  0  2  0  0  3  0  0  0  0  0  0
  182.4750  178.7450  138.5240 C   0  0  2  0  0  3  0  0  0  0  0  0
  180.8850  178.8760  140.3560 O   0  0  0  0  0  0  0  0  0  0  0  0
  1  9  1  0  0  0  0
  1 14  1  0  0  0  0
  2  3  1  0  0  0  0
  3 19  2  0  0  0  0
  3  7  1  0  0  0  0
  4 15  1  0  0  0  0
  4 11  1  0  0  0  0
  5 14  2  0  0  0  0
  5  2  1  0  0  0  0
  6  1  2  0  0  0  0
  7  4  2  0  0  0  0
  8 23  1  6  0  0  0
  8 13  1  0  0  0  0
 10 19  1  0  0  0  0
 12 16  1  0  0  0  0
 12  8  1  0  0  0  0
 13  2  1  0  0  0  0
 13 18  1  1  0  0  0
 16  5  1  0  0  0  0
 17  6  1  0  0  0  0
 17 16  2  0  0  0  0
 18 10  1  0  0  0  0
 19 20  1  0  0  0  0
 20 15  2  0  0  0  0
 21 22  2  0  0  0  0
 22 23  1  0  0  0  0
 24 31  1  0  0  0  0
 24 27  1  1  0  0  0
 25 30  1  0  0  0  0
 25 28  1  0  0  0  0
 28 24  1  0  0  0  0
 29 26  1  1  0  0  0
 29 31  1  0  0  0  0
 30 29  1  0  0  0  0
 30 22  1  1  0  0  0
M  END
>  <MODEL>
7

>  <REMARK>
 VINA RESULT:      -9.5      3.803      6.188
  Name = 
  2 active torsions:
  status: ('A' for Active; 'I' for Inactive)
    1  A    between atoms: C_5  and  C_30
    2  A    between atoms: C_10  and  N_16
                            x       y       z     vdW  Elec       q    Type
                         _______ _______ _______ _____ _____    ______ ____

>  <TORSDO>
F 2

$$$$
=
 OpenBabel11122411043D

 31 35  0  0  1  0  0  0  0  0999 V2000
  188.5440  177.9340  144.2210 C   0  0  0  0  0  0  0  0  0  0  0  0
  186.5940  178.6470  141.0800 N   0  0  0  0  0  0  0  0  0  0  0  0
  187.3940  178.2620  139.9370 C   0  0  0  0  0  0  0  0  0  0  0  0
  189.5050  177.6150  138.9160 C   0  0  0  0  0  0  0  0  0  0  0  0
  186.9340  178.2660  142.4310 C   0  0  0  0  0  0  0  0  0  0  0  0
  187.5130  177.5550  145.0850 C   0  0  0  0  0  3  0  0  0  0  0  0
  188.7670  177.9900  140.0420 C   0  0  0  0  0  3  0  0  0  0  0  0
  184.2060  178.1610  141.4580 C   0  0  2  0  0  3  0  0  0  0  0  0
  189.8230  177.9570  144.6640 F   0  0  0  0  0  0  0  0  0  0  0  0
  185.3090  178.3950  138.5850 C   0  0  0  0  0  2  0  0  0  0  0  0
  190.8300  177.3570  139.0300 F   0  0  0  0  0  0  0  0  0  0  0  0
  184.5430  177.8870  142.8560 N   0  0  0  0  0  2  0  0  0  0  0  0
  185.2190  179.1520  140.8780 C   0  0  2  0  0  3  0  0  0  0  0  0
  188.2560  178.2920  142.9020 C   0  0  0  0  0  3  0  0  0  0  0  0
  188.8750  177.5010  137.6740 C   0  0  0  0  0  3  0  0  0  0  0  0
  185.9000  177.8850  143.3110 C   0  0  0  0  0  0  0  0  0  0  0  0
  186.1920  177.5340  144.6310 C   0  0  0  0  0  3  0  0  0  0  0  0
  184.9340  179.4910  139.4750 N   0  0  0  0  0  2  0  0  0  0  0  0
  186.7760  178.1550  138.6830 C   0  0  0  0  0  0  0  0  0  0  0  0
  187.5090  177.7670  137.5580 C   0  0  0  0  0  3  0  0  0  0  0  0
  182.0780  177.0870  139.8970 O   0  0  0  0  0  0  0  0  0  0  0  0
  181.8370  178.1190  140.5800 C   0  0  0  0  0  0  0  0  0  0  0  0
  182.8620  178.7130  141.3770 N   0  0  0  0  0  2  0  0  0  0  0  0
  179.2250  178.7690  143.1130 C   0  0  1  0  0  3  0  0  0  0  0  0
  180.4510  180.0560  141.3600 C   0  0  0  0  0  2  0  0  0  0  0  0
  179.3050  176.5130  140.2970 C   0  0  0  0  0  1  0  0  0  0  0  0
  179.1120  178.5190  144.5380 N   0  0  0  0  0  1  0  0  0  0  0  0
  180.3380  179.7870  142.8620 C   0  0  0  0  0  2  0  0  0  0  0  0
  179.3590  177.8180  141.0730 C   0  0  2  0  0  3  0  0  0  0  0  0
  180.4730  178.7500  140.5580 C   0  0  2  0  0  3  0  0  0  0  0  0
  179.5140  177.5630  142.4480 O   0  0  0  0  0  0  0  0  0  0  0  0
  1  9  1  0  0  0  0
  1  6  1  0  0  0  0
  2  5  1  0  0  0  0
  3  7  1  0  0  0  0
  3  2  1  0  0  0  0
  4 11  1  0  0  0  0
  4  7  2  0  0  0  0
  5 14  1  0  0  0  0
  5 16  2  0  0  0  0
  8 23  1  1  0  0  0
  8 12  1  0  0  0  0
 10 19  1  0  0  0  0
 10 18  1  0  0  0  0
 12 16  1  0  0  0  0
 13 18  1  6  0  0  0
 13  2  1  0  0  0  0
 13  8  1  0  0  0  0
 14  1  2  0  0  0  0
 15  4  1  0  0  0  0
 16 17  1  0  0  0  0
 17  6  2  0  0  0  0
 19  3  2  0  0  0  0
 20 15  2  0  0  0  0
 20 19  1  0  0  0  0
 21 22  2  0  0  0  0
 22 23  1  0  0  0  0
 24 27  1  1  0  0  0
 25 28  1  0  0  0  0
 28 24  1  0  0  0  0
 29 26  1  6  0  0  0
 29 31  1  0  0  0  0
 30 22  1  1  0  0  0
 30 29  1  0  0  0  0
 30 25  1  0  0  0  0
 31 24  1  0  0  0  0
M  END
>  <MODEL>
8

>  <REMARK>
 VINA RESULT:      -9.5      4.402      7.844
  Name = 
  2 active torsions:
  status: ('A' for Active; 'I' for Inactive)
    1  A    between atoms: C_5  and  C_30
    2  A    between atoms: C_10  and  N_16
                            x       y       z     vdW  Elec       q    Type
                         _______ _______ _______ _____ _____    ______ ____

>  <TORSDO>
F 2

$$$$
=
 OpenBabel11122411043D

 31 35  0  0  1  0  0  0  0  0999 V2000
  189.1890  177.7940  145.0300 C   0  0  0  0  0  0  0  0  0  0  0  0
  187.3020  178.5090  141.8510 N   0  0  0  0  0  0  0  0  0  0  0  0
  188.0970  178.0630  140.7270 C   0  0  0  0  0  0  0  0  0  0  0  0
  190.1900  177.3050  139.7450 C   0  0  0  0  0  0  0  0  0  0  0  0
  187.6130  178.1470  143.2150 C   0  0  0  0  0  0  0  0  0  0  0  0
  188.1360  177.4790  145.8910 C   0  0  0  0  0  3  0  0  0  0  0  0
  189.4570  177.7380  140.8530 C   0  0  0  0  0  3  0  0  0  0  0  0
  184.8930  178.1310  142.2140 C   0  0  2  0  0  3  0  0  0  0  0  0
  190.4640  177.7750  145.4860 F   0  0  0  0  0  0  0  0  0  0  0  0
  186.0340  178.2480  139.3490 C   0  0  0  0  0  2  0  0  0  0  0  0
  191.5020  176.9960  139.8790 F   0  0  0  0  0  0  0  0  0  0  0  0
  185.2040  177.8780  143.6220 N   0  0  0  0  0  2  0  0  0  0  0  0
  185.9520  179.0650  141.6210 C   0  0  2  0  0  3  0  0  0  0  0  0
  188.9300  178.1310  143.6990 C   0  0  0  0  0  3  0  0  0  0  0  0
  189.5680  177.1860  138.4990 C   0  0  0  0  0  3  0  0  0  0  0  0
  186.5560  177.8310  144.0910 C   0  0  0  0  0  0  0  0  0  0  0  0
  186.8190  177.5010  145.4230 C   0  0  0  0  0  3  0  0  0  0  0  0
  185.6950  179.3800  140.2070 N   0  0  0  0  0  2  0  0  0  0  0  0
  187.4880  177.9500  139.4690 C   0  0  0  0  0  0  0  0  0  0  0  0
  188.2150  177.5050  138.3610 C   0  0  0  0  0  3  0  0  0  0  0  0
  182.8320  177.2730  140.4420 O   0  0  0  0  0  0  0  0  0  0  0  0
  182.5820  178.2500  141.2000 C   0  0  0  0  0  0  0  0  0  0  0  0
  183.5730  178.7350  142.1050 N   0  0  0  0  0  2  0  0  0  0  0  0
  179.3920  177.6050  139.4480 C   0  0  1  0  0  3  0  0  0  0  0  0
  180.1530  178.0510  141.7840 C   0  0  0  0  0  2  0  0  0  0  0  0
  181.8320  180.2360  139.0620 C   0  0  0  0  0  1  0  0  0  0  0  0
  178.9310  176.5820  138.5280 N   0  0  0  0  0  1  0  0  0  0  0  0
  179.6760  176.9710  140.8110 C   0  0  0  0  0  2  0  0  0  0  0  0
  180.8080  179.3360  139.7330 C   0  0  2  0  0  3  0  0  0  0  0  0
  181.2420  178.9280  141.1550 C   0  0  2  0  0  3  0  0  0  0  0  0
  180.5610  178.2010  138.9400 O   0  0  0  0  0  0  0  0  0  0  0  0
  1  9  1  0  0  0  0
  1  6  1  0  0  0  0
  2  5  1  0  0  0  0
  3  7  1  0  0  0  0
  3  2  1  0  0  0  0
  4 11  1  0  0  0  0
  4  7  2  0  0  0  0
  5 14  1  0  0  0  0
  5 16  2  0  0  0  0
  8 23  1  1  0  0  0
  8 12  1  0  0  0  0
 10 19  1  0  0  0  0
 10 18  1  0  0  0  0
 12 16  1  0  0  0  0
 13 18  1  6  0  0  0
 13  2  1  0  0  0  0
 13  8  1  0  0  0  0
 14  1  2  0  0  0  0
 15  4  1  0  0  0  0
 16 17  1  0  0  0  0
 17  6  2  0  0  0  0
 19  3  2  0  0  0  0
 20 15  2  0  0  0  0
 20 19  1  0  0  0  0
 21 22  2  0  0  0  0
 22 23  1  0  0  0  0
 24 27  1  6  0  0  0
 24 28  1  0  0  0  0
 28 25  1  0  0  0  0
 29 26  1  6  0  0  0
 29 30  1  0  0  0  0
 30 22  1  6  0  0  0
 30 25  1  0  0  0  0
 31 24  1  0  0  0  0
 31 29  1  0  0  0  0
M  END
>  <MODEL>
9

>  <REMARK>
 VINA RESULT:      -9.3      4.126      7.023
  Name = 
  2 active torsions:
  status: ('A' for Active; 'I' for Inactive)
    1  A    between atoms: C_5  and  C_30
    2  A    between atoms: C_10  and  N_16
                            x       y       z     vdW  Elec       q    Type
                         _______ _______ _______ _____ _____    ______ ____

>  <TORSDO>
F 2

$$$$
