=
 OpenBabel11122411093D

 31 35  0  0  0  0  0  0  0  0999 V2000
  185.2300  178.6020  144.0640 C   0  0  0  0  0  0  0  0  0  0  0  0
  188.8020  177.4480  143.7640 C   0  0  0  0  0  0  0  0  0  0  0  0
  189.3170  177.3200  145.0910 C   0  0  0  0  0  0  0  0  0  0  0  0
  188.6910  177.3400  138.4990 O   0  0  0  0  0  0  0  0  0  0  0  0
  189.8360  176.9830  138.8870 C   0  0  0  0  0  0  0  0  0  0  0  0
  189.0860  177.4610  147.5200 C   0  0  0  0  0  0  0  0  0  0  0  0
  187.4750  177.8650  143.4430 C   0  0  0  0  0  0  0  0  0  0  0  0
  184.8700  178.6820  142.7200 C   0  0  0  0  0  3  0  0  0  0  0  0
  188.5510  177.5970  146.2390 C   0  0  0  0  0  3  0  0  0  0  0  0
  189.2400  177.2430  141.3610 C   0  0  0  0  0  0  0  0  0  0  0  0
  184.0690  179.0090  145.3080 Cl  0  0  0  0  0  0  0  0  0  0  0  0
  191.4530  176.6100  144.1820 C   0  0  0  0  0  3  0  0  0  0  0  0
  188.0990  177.8160  148.9220 Cl  0  0  0  0  0  0  0  0  0  0  0  0
  187.9710  177.6420  141.0990 N   0  0  0  0  0  0  0  0  0  0  0  0
  189.6810  177.1370  142.6870 C   0  0  0  0  0  0  0  0  0  0  0  0
  190.1390  176.9250  140.2880 N   0  0  0  0  0  2  0  0  0  0  0  0
  186.5180  178.1990  144.4190 C   0  0  0  0  0  3  0  0  0  0  0  0
  190.4060  177.0420  147.6840 C   0  0  0  0  0  3  0  0  0  0  0  0
  187.0910  177.9520  142.0810 C   0  0  0  0  0  0  0  0  0  0  0  0
  185.7990  178.3560  141.7310 C   0  0  0  0  0  3  0  0  0  0  0  0
  190.9570  176.7350  142.9300 N   0  0  0  0  0  0  0  0  0  0  0  0
  190.6550  176.8960  145.2820 C   0  0  0  0  0  0  0  0  0  0  0  0
  191.1900  176.7600  146.5660 C   0  0  0  0  0  3  0  0  0  0  0  0
  192.8000  175.9180  135.9710 C   0  0  0  0  0  0  0  0  0  0  0  0
  190.4890  176.2330  136.6090 C   0  0  0  0  0  3  0  0  0  0  0  0
  192.6880  177.0180  139.4480 F   0  0  0  0  0  0  0  0  0  0  0  0
  193.7490  175.5720  135.0180 O   0  0  0  0  0  1  0  0  0  0  0  0
  191.4430  175.8850  135.6490 C   0  0  0  0  0  3  0  0  0  0  0  0
  192.2550  176.6520  138.2170 C   0  0  0  0  0  0  0  0  0  0  0  0
  190.8790  176.6210  137.9000 C   0  0  0  0  0  0  0  0  0  0  0  0
  193.2040  176.3020  137.2510 C   0  0  0  0  0  3  0  0  0  0  0  0
  1 17  1  0  0  0  0
  1 11  1  0  0  0  0
  2  3  1  0  0  0  0
  3 22  2  0  0  0  0
  3  9  1  0  0  0  0
  4  5  2  0  0  0  0
  5 16  1  0  0  0  0
  6 18  1  0  0  0  0
  6 13  1  0  0  0  0
  7  2  1  0  0  0  0
  7 17  2  0  0  0  0
  8  1  2  0  0  0  0
  9  6  2  0  0  0  0
 10 15  1  0  0  0  0
 12 22  1  0  0  0  0
 14 10  2  0  0  0  0
 14 19  1  0  0  0  0
 15 21  1  0  0  0  0
 15  2  2  0  0  0  0
 16 10  1  0  0  0  0
 19  7  1  0  0  0  0
 20 19  2  0  0  0  0
 20  8  1  0  0  0  0
 21 12  2  0  0  0  0
 22 23  1  0  0  0  0
 23 18  2  0  0  0  0
 24 31  1  0  0  0  0
 25 30  2  0  0  0  0
 27 24  1  0  0  0  0
 28 24  2  0  0  0  0
 28 25  1  0  0  0  0
 29 26  1  0  0  0  0
 30 29  1  0  0  0  0
 30  5  1  0  0  0  0
 31 29  2  0  0  0  0
M  END
>  <MODEL>
1

>  <REMARK>
 VINA RESULT:     -11.7      0.000      0.000
  Name = 
  1 active torsions:
  status: ('A' for Active; 'I' for Inactive)
    1  A    between atoms: C_5  and  C_30
                            x       y       z     vdW  Elec       q    Type
                         _______ _______ _______ _____ _____    ______ ____

>  <TORSDO>
F 1

$$$$
=
 OpenBabel11122411093D

 31 35  0  0  0  0  0  0  0  0999 V2000
  185.1950  178.6040  144.1200 C   0  0  0  0  0  0  0  0  0  0  0  0
  188.7700  177.4640  143.8050 C   0  0  0  0  0  0  0  0  0  0  0  0
  189.2900  177.3330  145.1300 C   0  0  0  0  0  0  0  0  0  0  0  0
  188.6410  177.3730  138.5400 O   0  0  0  0  0  0  0  0  0  0  0  0
  189.7890  177.0190  138.9230 C   0  0  0  0  0  0  0  0  0  0  0  0
  189.0660  177.4650  147.5600 C   0  0  0  0  0  0  0  0  0  0  0  0
  187.4400  177.8770  143.4900 C   0  0  0  0  0  0  0  0  0  0  0  0
  184.8300  178.6870  142.7780 C   0  0  0  0  0  3  0  0  0  0  0  0
  188.5260  177.6040  146.2810 C   0  0  0  0  0  3  0  0  0  0  0  0
  189.2010  177.2680  141.3990 C   0  0  0  0  0  0  0  0  0  0  0  0
  184.0360  179.0030  145.3700 Cl  0  0  0  0  0  0  0  0  0  0  0  0
  191.4250  176.6340  144.2110 C   0  0  0  0  0  3  0  0  0  0  0  0
  188.0830  177.8110  148.9660 Cl  0  0  0  0  0  0  0  0  0  0  0  0
  187.9290  177.6640  141.1440 N   0  0  0  0  0  0  0  0  0  0  0  0
  189.6460  177.1600  142.7240 C   0  0  0  0  0  0  0  0  0  0  0  0
  190.0970  176.9570  140.3230 N   0  0  0  0  0  2  0  0  0  0  0  0
  186.4860  178.2040  144.4700 C   0  0  0  0  0  3  0  0  0  0  0  0
  190.3880  177.0500  147.7190 C   0  0  0  0  0  3  0  0  0  0  0  0
  187.0510  177.9670  142.1290 C   0  0  0  0  0  0  0  0  0  0  0  0
  185.7560  178.3680  141.7850 C   0  0  0  0  0  3  0  0  0  0  0  0
  190.9240  176.7620  142.9620 N   0  0  0  0  0  0  0  0  0  0  0  0
  190.6300  176.9130  145.3140 C   0  0  0  0  0  0  0  0  0  0  0  0
  191.1690  176.7750  146.5970 C   0  0  0  0  0  3  0  0  0  0  0  0
  192.8650  176.0030  136.1070 C   0  0  0  0  0  0  0  0  0  0  0  0
  192.1760  176.6610  138.3290 C   0  0  0  0  0  3  0  0  0  0  0  0
  189.2300  176.3180  136.1580 F   0  0  0  0  0  0  0  0  0  0  0  0
  193.8690  175.6750  135.2060 O   0  0  0  0  0  1  0  0  0  0  0  0
  193.1880  176.3310  137.4240 C   0  0  0  0  0  3  0  0  0  0  0  0
  190.5120  176.3300  136.5970 C   0  0  0  0  0  0  0  0  0  0  0  0
  190.8300  176.6640  137.9310 C   0  0  0  0  0  0  0  0  0  0  0  0
  191.5310  176.0020  135.6960 C   0  0  0  0  0  3  0  0  0  0  0  0
  1 17  1  0  0  0  0
  1 11  1  0  0  0  0
  2  3  1  0  0  0  0
  3 22  2  0  0  0  0
  3  9  1  0  0  0  0
  4  5  2  0  0  0  0
  5 16  1  0  0  0  0
  6 18  1  0  0  0  0
  6 13  1  0  0  0  0
  7  2  1  0  0  0  0
  7 17  2  0  0  0  0
  8  1  2  0  0  0  0
  9  6  2  0  0  0  0
 10 15  1  0  0  0  0
 12 22  1  0  0  0  0
 14 10  2  0  0  0  0
 14 19  1  0  0  0  0
 15 21  1  0  0  0  0
 15  2  2  0  0  0  0
 16 10  1  0  0  0  0
 19  7  1  0  0  0  0
 20 19  2  0  0  0  0
 20  8  1  0  0  0  0
 21 12  2  0  0  0  0
 22 23  1  0  0  0  0
 23 18  2  0  0  0  0
 24 28  1  0  0  0  0
 26 29  1  0  0  0  0
 27 24  1  0  0  0  0
 28 25  2  0  0  0  0
 29 30  2  0  0  0  0
 30 25  1  0  0  0  0
 30  5  1  0  0  0  0
 31 24  2  0  0  0  0
 31 29  1  0  0  0  0
M  END
>  <MODEL>
2

>  <REMARK>
 VINA RESULT:     -11.6      0.871      1.230
  Name = 
  1 active torsions:
  status: ('A' for Active; 'I' for Inactive)
    1  A    between atoms: C_5  and  C_30
                            x       y       z     vdW  Elec       q    Type
                         _______ _______ _______ _____ _____    ______ ____

>  <TORSDO>
F 1

$$$$
=
 OpenBabel11122411093D

 31 35  0  0  0  0  0  0  0  0999 V2000
  190.0590  177.3480  142.1220 C   0  0  0  0  0  0  0  0  0  0  0  0
  186.6040  178.3650  143.2210 C   0  0  0  0  0  0  0  0  0  0  0  0
  186.5670  178.2610  144.6460 C   0  0  0  0  0  0  0  0  0  0  0  0
  184.9390  179.2970  138.3120 O   0  0  0  0  0  0  0  0  0  0  0  0
  183.9930  179.5350  139.1120 C   0  0  0  0  0  0  0  0  0  0  0  0
  187.6000  177.7550  146.8030 C   0  0  0  0  0  0  0  0  0  0  0  0
  187.7430  178.0660  142.4140 C   0  0  0  0  0  0  0  0  0  0  0  0
  189.9450  177.4960  140.7410 C   0  0  0  0  0  3  0  0  0  0  0  0
  187.6720  177.8450  145.4120 C   0  0  0  0  0  3  0  0  0  0  0  0
  185.3850  178.9220  141.1690 C   0  0  0  0  0  0  0  0  0  0  0  0
  191.5680  176.8070  142.8250 Cl  0  0  0  0  0  0  0  0  0  0  0  0
  184.2550  179.0030  144.6290 C   0  0  0  0  0  3  0  0  0  0  0  0
  188.9980  177.2340  147.7180 Cl  0  0  0  0  0  0  0  0  0  0  0  0
  186.4890  178.6280  140.4380 N   0  0  0  0  0  0  0  0  0  0  0  0
  185.4170  178.7980  142.5650 C   0  0  0  0  0  0  0  0  0  0  0  0
  184.1800  179.3600  140.5240 N   0  0  0  0  0  2  0  0  0  0  0  0
  188.9690  177.6300  142.9470 C   0  0  0  0  0  3  0  0  0  0  0  0
  186.4170  178.0810  147.4630 C   0  0  0  0  0  3  0  0  0  0  0  0
  187.6450  178.2110  141.0060 C   0  0  0  0  0  0  0  0  0  0  0  0
  188.7410  177.9270  140.1850 C   0  0  0  0  0  3  0  0  0  0  0  0
  184.3010  179.0970  143.2810 N   0  0  0  0  0  0  0  0  0  0  0  0
  185.3740  178.5870  145.3380 C   0  0  0  0  0  0  0  0  0  0  0  0
  185.3050  178.4970  146.7310 C   0  0  0  0  0  3  0  0  0  0  0  0
  180.2110  180.9490  137.6580 C   0  0  0  0  0  0  0  0  0  0  0  0
  182.3460  181.3540  138.7190 C   0  0  0  0  0  3  0  0  0  0  0  0
  182.0300  177.7930  137.8640 F   0  0  0  0  0  0  0  0  0  0  0  0
  178.9910  181.4200  137.1910 O   0  0  0  0  0  1  0  0  0  0  0  0
  181.1190  181.8290  138.2490 C   0  0  0  0  0  3  0  0  0  0  0  0
  181.7580  179.1130  138.0020 C   0  0  0  0  0  0  0  0  0  0  0  0
  182.6820  179.9960  138.6020 C   0  0  0  0  0  0  0  0  0  0  0  0
  180.5310  179.5960  137.5340 C   0  0  0  0  0  3  0  0  0  0  0  0
  1 11  1  0  0  0  0
  1 17  1  0  0  0  0
  2  3  1  0  0  0  0
  3 22  2  0  0  0  0
  3  9  1  0  0  0  0
  4  5  2  0  0  0  0
  5 16  1  0  0  0  0
  6 18  1  0  0  0  0
  6 13  1  0  0  0  0
  7 17  2  0  0  0  0
  7  2  1  0  0  0  0
  8  1  2  0  0  0  0
  9  6  2  0  0  0  0
 10 15  1  0  0  0  0
 12 22  1  0  0  0  0
 14 19  1  0  0  0  0
 14 10  2  0  0  0  0
 15  2  2  0  0  0  0
 15 21  1  0  0  0  0
 16 10  1  0  0  0  0
 19  7  1  0  0  0  0
 20  8  1  0  0  0  0
 20 19  2  0  0  0  0
 21 12  2  0  0  0  0
 22 23  1  0  0  0  0
 23 18  2  0  0  0  0
 24 28  1  0  0  0  0
 26 29  1  0  0  0  0
 27 24  1  0  0  0  0
 28 25  2  0  0  0  0
 29 30  2  0  0  0  0
 30 25  1  0  0  0  0
 30  5  1  0  0  0  0
 31 24  2  0  0  0  0
 31 29  1  0  0  0  0
M  END
>  <MODEL>
3

>  <REMARK>
 VINA RESULT:     -11.2      4.422      7.360
  Name = 
  1 active torsions:
  status: ('A' for Active; 'I' for Inactive)
    1  A    between atoms: C_5  and  C_30
                            x       y       z     vdW  Elec       q    Type
                         _______ _______ _______ _____ _____    ______ ____

>  <TORSDO>
F 1

$$$$
=
 OpenBabel11122411093D

 31 35  0  0  0  0  0  0  0  0999 V2000
  186.5930  178.0990  147.0390 C   0  0  0  0  0  0  0  0  0  0  0  0
  187.4060  177.8900  143.3670 C   0  0  0  0  0  0  0  0  0  0  0  0
  188.7960  177.5750  143.2600 C   0  0  0  0  0  0  0  0  0  0  0  0
  182.4830  178.9970  141.8590 O   0  0  0  0  0  0  0  0  0  0  0  0
  183.1920  178.8290  140.8300 C   0  0  0  0  0  0  0  0  0  0  0  0
  190.9810  177.0850  144.2390 C   0  0  0  0  0  0  0  0  0  0  0  0
  186.7030  178.0580  144.5980 C   0  0  0  0  0  0  0  0  0  0  0  0
  185.2350  178.4080  146.9860 C   0  0  0  0  0  3  0  0  0  0  0  0
  189.6270  177.3930  144.3810 C   0  0  0  0  0  3  0  0  0  0  0  0
  185.3080  178.3590  142.1890 C   0  0  0  0  0  0  0  0  0  0  0  0
  187.3940  177.9280  148.5850 Cl  0  0  0  0  0  0  0  0  0  0  0  0
  188.6040  177.6010  140.8400 C   0  0  0  0  0  3  0  0  0  0  0  0
  191.9810  176.8670  145.6590 Cl  0  0  0  0  0  0  0  0  0  0  0  0
  184.6770  178.5090  143.3800 N   0  0  0  0  0  0  0  0  0  0  0  0
  186.6740  178.0480  142.1560 C   0  0  0  0  0  0  0  0  0  0  0  0
  184.5860  178.5140  140.9580 N   0  0  0  0  0  2  0  0  0  0  0  0
  187.3170  177.9270  145.8570 C   0  0  0  0  0  3  0  0  0  0  0  0
  191.5370  176.9500  142.9680 C   0  0  0  0  0  3  0  0  0  0  0  0
  185.3200  178.3720  144.5640 C   0  0  0  0  0  0  0  0  0  0  0  0
  184.6000  178.5420  145.7510 C   0  0  0  0  0  3  0  0  0  0  0  0
  187.2900  177.9010  140.9530 N   0  0  0  0  0  0  0  0  0  0  0  0
  189.3810  177.4320  141.9780 C   0  0  0  0  0  0  0  0  0  0  0  0
  190.7380  177.1240  141.8380 C   0  0  0  0  0  3  0  0  0  0  0  0
  181.4410  179.2750  136.9380 C   0  0  0  0  0  0  0  0  0  0  0  0
  182.0600  180.1920  139.0870 C   0  0  0  0  0  3  0  0  0  0  0  0
  183.0430  176.6550  138.9080 F   0  0  0  0  0  0  0  0  0  0  0  0
  180.8730  179.4330  135.6810 O   0  0  0  0  0  1  0  0  0  0  0  0
  181.4880  180.3520  137.8230 C   0  0  0  0  0  3  0  0  0  0  0  0
  182.5430  177.8710  138.5790 C   0  0  0  0  0  0  0  0  0  0  0  0
  182.5950  178.9550  139.4820 C   0  0  0  0  0  0  0  0  0  0  0  0
  181.9680  178.0380  137.3150 C   0  0  0  0  0  3  0  0  0  0  0  0
  1 11  1  0  0  0  0
  2  7  1  0  0  0  0
  3  2  1  0  0  0  0
  3  9  1  0  0  0  0
  5 16  1  0  0  0  0
  5  4  2  0  0  0  0
  6  9  2  0  0  0  0
  6 13  1  0  0  0  0
  7 17  1  0  0  0  0
  8  1  1  0  0  0  0
 10 14  2  0  0  0  0
 12 21  2  0  0  0  0
 12 22  1  0  0  0  0
 14 19  1  0  0  0  0
 15 10  1  0  0  0  0
 15  2  2  0  0  0  0
 16 10  1  0  0  0  0
 17  1  2  0  0  0  0
 18  6  1  0  0  0  0
 19  7  2  0  0  0  0
 19 20  1  0  0  0  0
 20  8  2  0  0  0  0
 21 15  1  0  0  0  0
 22  3  2  0  0  0  0
 23 22  1  0  0  0  0
 23 18  2  0  0  0  0
 24 31  2  0  0  0  0
 24 28  1  0  0  0  0
 25 30  1  0  0  0  0
 27 24  1  0  0  0  0
 28 25  2  0  0  0  0
 29 26  1  0  0  0  0
 29 30  2  0  0  0  0
 30  5  1  0  0  0  0
 31 29  1  0  0  0  0
M  END
>  <MODEL>
4

>  <REMARK>
 VINA RESULT:     -10.4      4.308      6.600
  Name = 
  1 active torsions:
  status: ('A' for Active; 'I' for Inactive)
    1  A    between atoms: C_5  and  C_30
                            x       y       z     vdW  Elec       q    Type
                         _______ _______ _______ _____ _____    ______ ____

>  <TORSDO>
F 1

$$$$
=
 OpenBabel11122411093D

 31 35  0  0  0  0  0  0  0  0999 V2000
  185.9500  178.3240  145.8340 C   0  0  0  0  0  0  0  0  0  0  0  0
  186.7220  178.3650  142.1480 C   0  0  0  0  0  0  0  0  0  0  0  0
  188.1130  178.0660  142.0050 C   0  0  0  0  0  0  0  0  0  0  0  0
  181.7770  179.5390  140.7700 O   0  0  0  0  0  0  0  0  0  0  0  0
  182.4760  179.4450  139.7250 C   0  0  0  0  0  0  0  0  0  0  0  0
  190.3120  177.5270  142.9260 C   0  0  0  0  0  0  0  0  0  0  0  0
  186.0320  178.4460  143.3950 C   0  0  0  0  0  0  0  0  0  0  0  0
  184.5900  178.6270  145.8160 C   0  0  0  0  0  3  0  0  0  0  0  0
  188.9580  177.8160  143.1020 C   0  0  0  0  0  3  0  0  0  0  0  0
  184.6090  178.8980  141.0270 C   0  0  0  0  0  0  0  0  0  0  0  0
  186.7690  178.0560  147.3570 Cl  0  0  0  0  0  0  0  0  0  0  0  0
  187.8940  178.2530  139.5950 C   0  0  0  0  0  3  0  0  0  0  0  0
  191.3290  177.2210  144.3170 Cl  0  0  0  0  0  0  0  0  0  0  0  0
  183.9910  178.9650  142.2320 N   0  0  0  0  0  0  0  0  0  0  0  0
  185.9770  178.5990  140.9580 C   0  0  0  0  0  0  0  0  0  0  0  0
  183.8730  179.1310  139.8170 N   0  0  0  0  0  2  0  0  0  0  0  0
  186.6610  178.2350  144.6360 C   0  0  0  0  0  3  0  0  0  0  0  0
  190.8540  177.4800  141.6420 C   0  0  0  0  0  3  0  0  0  0  0  0
  184.6480  178.7530  143.3970 C   0  0  0  0  0  0  0  0  0  0  0  0
  183.9400  178.8400  144.6000 C   0  0  0  0  0  3  0  0  0  0  0  0
  186.5790  178.5360  139.7410 N   0  0  0  0  0  0  0  0  0  0  0  0
  188.6850  178.0140  140.7100 C   0  0  0  0  0  0  0  0  0  0  0  0
  190.0410  177.7240  140.5350 C   0  0  0  0  0  3  0  0  0  0  0  0
  180.7100  179.9800  135.8500 C   0  0  0  0  0  0  0  0  0  0  0  0
  181.7590  178.5710  137.5120 C   0  0  0  0  0  3  0  0  0  0  0  0
  181.4540  182.0020  138.7960 F   0  0  0  0  0  0  0  0  0  0  0  0
  180.1410  180.1390  134.5940 O   0  0  0  0  0  1  0  0  0  0  0  0
  181.1860  178.7300  136.2470 C   0  0  0  0  0  3  0  0  0  0  0  0
  181.3780  180.9180  137.9840 C   0  0  0  0  0  0  0  0  0  0  0  0
  181.8620  179.6570  138.3950 C   0  0  0  0  0  0  0  0  0  0  0  0
  180.8060  181.0700  136.7170 C   0  0  0  0  0  3  0  0  0  0  0  0
  1 11  1  0  0  0  0
  2  7  1  0  0  0  0
  3  2  1  0  0  0  0
  3  9  1  0  0  0  0
  5 16  1  0  0  0  0
  5  4  2  0  0  0  0
  6  9  2  0  0  0  0
  6 13  1  0  0  0  0
  7 19  2  0  0  0  0
  7 17  1  0  0  0  0
  8  1  1  0  0  0  0
 10 14  2  0  0  0  0
 12 21  2  0  0  0  0
 12 22  1  0  0  0  0
 14 19  1  0  0  0  0
 15 10  1  0  0  0  0
 15  2  2  0  0  0  0
 16 10  1  0  0  0  0
 17  1  2  0  0  0  0
 18  6  1  0  0  0  0
 19 20  1  0  0  0  0
 20  8  2  0  0  0  0
 21 15  1  0  0  0  0
 22  3  2  0  0  0  0
 23 22  1  0  0  0  0
 23 18  2  0  0  0  0
 24 28  2  0  0  0  0
 24 31  1  0  0  0  0
 25 30  2  0  0  0  0
 27 24  1  0  0  0  0
 28 25  1  0  0  0  0
 29 30  1  0  0  0  0
 29 26  1  0  0  0  0
 30  5  1  0  0  0  0
 31 29  2  0  0  0  0
M  END
>  <MODEL>
5

>  <REMARK>
 VINA RESULT:     -10.4      4.757      7.293
  Name = 
  1 active torsions:
  status: ('A' for Active; 'I' for Inactive)
    1  A    between atoms: C_5  and  C_30
                            x       y       z     vdW  Elec       q    Type
                         _______ _______ _______ _____ _____    ______ ____

>  <TORSDO>
F 1

$$$$
=
 OpenBabel11122411093D

 31 35  0  0  0  0  0  0  0  0999 V2000
  183.7200  178.9720  139.5490 C   0  0  0  0  0  0  0  0  0  0  0  0
  187.3720  178.0940  139.8340 C   0  0  0  0  0  0  0  0  0  0  0  0
  187.8930  178.0220  138.5050 C   0  0  0  0  0  0  0  0  0  0  0  0
  187.2740  177.9090  145.0970 O   0  0  0  0  0  0  0  0  0  0  0  0
  188.4430  177.6480  144.7050 C   0  0  0  0  0  0  0  0  0  0  0  0
  187.6500  178.1760  136.0780 C   0  0  0  0  0  0  0  0  0  0  0  0
  186.0160  178.4030  140.1600 C   0  0  0  0  0  0  0  0  0  0  0  0
  183.3560  179.0040  140.8940 C   0  0  0  0  0  3  0  0  0  0  0  0
  187.1070  178.2550  137.3610 C   0  0  0  0  0  3  0  0  0  0  0  0
  187.8260  177.8910  142.2340 C   0  0  0  0  0  0  0  0  0  0  0  0
  182.5300  179.3030  138.3100 Cl  0  0  0  0  0  0  0  0  0  0  0  0
  190.0790  177.4690  139.4050 C   0  0  0  0  0  3  0  0  0  0  0  0
  186.6370  178.4720  134.6810 Cl  0  0  0  0  0  0  0  0  0  0  0  0
  186.5300  178.1890  142.5010 N   0  0  0  0  0  0  0  0  0  0  0  0
  188.2720  177.8380  140.9070 C   0  0  0  0  0  0  0  0  0  0  0  0
  188.7480  177.6300  143.3030 N   0  0  0  0  0  2  0  0  0  0  0  0
  185.0360  178.6740  139.1880 C   0  0  0  0  0  3  0  0  0  0  0  0
  188.9980  177.8640  135.9090 C   0  0  0  0  0  3  0  0  0  0  0  0
  185.6280  178.4410  141.5230 C   0  0  0  0  0  0  0  0  0  0  0  0
  184.3090  178.7400  141.8790 C   0  0  0  0  0  3  0  0  0  0  0  0
  189.5750  177.5380  140.6580 N   0  0  0  0  0  0  0  0  0  0  0  0
  189.2600  177.7060  138.3090 C   0  0  0  0  0  0  0  0  0  0  0  0
  189.8020  177.6290  137.0230 C   0  0  0  0  0  3  0  0  0  0  0  0
  191.5870  176.7680  147.4900 C   0  0  0  0  0  0  0  0  0  0  0  0
  190.7010  176.7560  145.2410 C   0  0  0  0  0  3  0  0  0  0  0  0
  188.2470  178.2360  147.5440 F   0  0  0  0  0  0  0  0  0  0  0  0
  192.6130  176.4790  148.3810 O   0  0  0  0  0  1  0  0  0  0  0  0
  191.7330  176.4650  146.1360 C   0  0  0  0  0  3  0  0  0  0  0  0
  189.3740  177.6590  147.0590 C   0  0  0  0  0  0  0  0  0  0  0  0
  189.5120  177.3550  145.6870 C   0  0  0  0  0  0  0  0  0  0  0  0
  190.4110  177.3640  147.9490 C   0  0  0  0  0  3  0  0  0  0  0  0
  1  8  1  0  0  0  0
  2  7  1  0  0  0  0
  2 15  1  0  0  0  0
  3  2  2  0  0  0  0
  5  4  2  0  0  0  0
  5 30  1  0  0  0  0
  6  9  2  0  0  0  0
  7 19  2  0  0  0  0
  8 20  2  0  0  0  0
  9  3  1  0  0  0  0
 10 14  2  0  0  0  0
 10 16  1  0  0  0  0
 11  1  1  0  0  0  0
 12 21  1  0  0  0  0
 13  6  1  0  0  0  0
 15 10  1  0  0  0  0
 16  5  1  0  0  0  0
 17  1  2  0  0  0  0
 17  7  1  0  0  0  0
 18  6  1  0  0  0  0
 18 23  2  0  0  0  0
 19 20  1  0  0  0  0
 19 14  1  0  0  0  0
 21 15  2  0  0  0  0
 22  3  1  0  0  0  0
 22 12  2  0  0  0  0
 23 22  1  0  0  0  0
 24 31  1  0  0  0  0
 24 27  1  0  0  0  0
 25 30  2  0  0  0  0
 25 28  1  0  0  0  0
 28 24  2  0  0  0  0
 29 26  1  0  0  0  0
 29 31  2  0  0  0  0
 30 29  1  0  0  0  0
M  END
>  <MODEL>
6

>  <REMARK>
 VINA RESULT:     -10.3      4.248      7.828
  Name = 
  1 active torsions:
  status: ('A' for Active; 'I' for Inactive)
    1  A    between atoms: C_5  and  C_30
                            x       y       z     vdW  Elec       q    Type
                         _______ _______ _______ _____ _____    ______ ____

>  <TORSDO>
F 1

$$$$
=
 OpenBabel11122411093D

 31 35  0  0  0  0  0  0  0  0999 V2000
  184.1560  178.9590  142.2780 C   0  0  0  0  0  0  0  0  0  0  0  0
  187.6710  177.7650  142.9120 C   0  0  0  0  0  0  0  0  0  0  0  0
  187.8350  177.6700  144.3290 C   0  0  0  0  0  0  0  0  0  0  0  0
  188.8780  177.5080  137.7920 O   0  0  0  0  0  0  0  0  0  0  0  0
  189.8840  177.1520  138.4630 C   0  0  0  0  0  0  0  0  0  0  0  0
  187.0060  177.8820  146.6180 C   0  0  0  0  0  0  0  0  0  0  0  0
  186.4730  178.1850  142.2590 C   0  0  0  0  0  0  0  0  0  0  0  0
  184.1450  179.0040  140.8850 C   0  0  0  0  0  3  0  0  0  0  0  0
  186.8110  177.9870  145.2400 C   0  0  0  0  0  3  0  0  0  0  0  0
  188.6930  177.4870  140.7010 C   0  0  0  0  0  0  0  0  0  0  0  0
  182.7270  179.4120  143.1810 Cl  0  0  0  0  0  0  0  0  0  0  0  0
  190.1190  176.9150  144.0020 C   0  0  0  0  0  3  0  0  0  0  0  0
  185.7060  178.2850  147.7180 Cl  0  0  0  0  0  0  0  0  0  0  0  0
  187.5350  177.8900  140.1200 N   0  0  0  0  0  0  0  0  0  0  0  0
  188.7860  177.4160  142.0980 C   0  0  0  0  0  0  0  0  0  0  0  0
  189.8270  177.1310  139.8970 N   0  0  0  0  0  2  0  0  0  0  0  0
  185.3080  178.5540  142.9550 C   0  0  0  0  0  3  0  0  0  0  0  0
  188.2360  177.4560  147.1180 C   0  0  0  0  0  3  0  0  0  0  0  0
  186.4430  178.2360  140.8420 C   0  0  0  0  0  0  0  0  0  0  0  0
  185.2860  178.6420  140.1690 C   0  0  0  0  0  3  0  0  0  0  0  0
  189.9540  177.0090  142.6630 N   0  0  0  0  0  0  0  0  0  0  0  0
  189.0760  177.2390  144.8590 C   0  0  0  0  0  0  0  0  0  0  0  0
  189.2700  177.1350  146.2400 C   0  0  0  0  0  3  0  0  0  0  0  0
  193.5520  176.0090  136.5490 C   0  0  0  0  0  0  0  0  0  0  0  0
  192.3380  176.7540  138.5030 C   0  0  0  0  0  3  0  0  0  0  0  0
  190.0270  176.3550  135.6720 F   0  0  0  0  0  0  0  0  0  0  0  0
  194.7450  175.6410  135.9420 O   0  0  0  0  0  1  0  0  0  0  0  0
  193.5390  176.3840  137.8930 C   0  0  0  0  0  3  0  0  0  0  0  0
  191.1580  176.3730  136.4190 C   0  0  0  0  0  0  0  0  0  0  0  0
  191.1350  176.7530  137.7790 C   0  0  0  0  0  0  0  0  0  0  0  0
  192.3640  176.0040  135.8150 C   0  0  0  0  0  3  0  0  0  0  0  0
  1 17  1  0  0  0  0
  1 11  1  0  0  0  0
  2  3  1  0  0  0  0
  3 22  2  0  0  0  0
  3  9  1  0  0  0  0
  4  5  2  0  0  0  0
  5 16  1  0  0  0  0
  6 18  1  0  0  0  0
  6 13  1  0  0  0  0
  7  2  1  0  0  0  0
  7 17  2  0  0  0  0
  8  1  2  0  0  0  0
  9  6  2  0  0  0  0
 10 15  1  0  0  0  0
 12 22  1  0  0  0  0
 14 10  2  0  0  0  0
 14 19  1  0  0  0  0
 15 21  1  0  0  0  0
 15  2  2  0  0  0  0
 16 10  1  0  0  0  0
 19  7  1  0  0  0  0
 20 19  2  0  0  0  0
 20  8  1  0  0  0  0
 21 12  2  0  0  0  0
 22 23  1  0  0  0  0
 23 18  2  0  0  0  0
 24 28  1  0  0  0  0
 26 29  1  0  0  0  0
 27 24  1  0  0  0  0
 28 25  2  0  0  0  0
 29 30  2  0  0  0  0
 30  5  1  0  0  0  0
 30 25  1  0  0  0  0
 31 29  1  0  0  0  0
 31 24  2  0  0  0  0
M  END
>  <MODEL>
7

>  <REMARK>
 VINA RESULT:      -9.7      1.429      1.936
  Name = 
  1 active torsions:
  status: ('A' for Active; 'I' for Inactive)
    1  A    between atoms: C_5  and  C_30
                            x       y       z     vdW  Elec       q    Type
                         _______ _______ _______ _____ _____    ______ ____

>  <TORSDO>
F 1

$$$$
=
 OpenBabel11122411093D

 31 35  0  0  0  0  0  0  0  0999 V2000
  190.9340  177.2140  142.0100 C   0  0  0  0  0  0  0  0  0  0  0  0
  187.5030  177.9620  143.3710 C   0  0  0  0  0  0  0  0  0  0  0  0
  187.5880  177.8820  144.7960 C   0  0  0  0  0  0  0  0  0  0  0  0
  185.3810  178.6560  138.6010 O   0  0  0  0  0  0  0  0  0  0  0  0
  184.4860  178.8300  139.4710 C   0  0  0  0  0  0  0  0  0  0  0  0
  188.8280  177.5060  146.8680 C   0  0  0  0  0  0  0  0  0  0  0  0
  188.5950  177.7430  142.4780 C   0  0  0  0  0  0  0  0  0  0  0  0
  190.6990  177.3250  140.6410 C   0  0  0  0  0  3  0  0  0  0  0  0
  188.7820  177.5750  145.4750 C   0  0  0  0  0  3  0  0  0  0  0  0
  186.0820  178.3750  141.4160 C   0  0  0  0  0  0  0  0  0  0  0  0
  192.5340  176.8140  142.5960 Cl  0  0  0  0  0  0  0  0  0  0  0  0
  185.2280  178.4290  144.9560 C   0  0  0  0  0  3  0  0  0  0  0  0
  190.3330  177.1200  147.6740 Cl  0  0  0  0  0  0  0  0  0  0  0  0
  187.1460  178.1600  140.6030 N   0  0  0  0  0  0  0  0  0  0  0  0
  186.2360  178.2820  142.8070 C   0  0  0  0  0  0  0  0  0  0  0  0
  184.7970  178.6980  140.8650 N   0  0  0  0  0  2  0  0  0  0  0  0
  189.8920  177.4210  142.9170 C   0  0  0  0  0  3  0  0  0  0  0  0
  187.6770  177.7450  147.6170 C   0  0  0  0  0  3  0  0  0  0  0  0
  188.3750  177.8510  141.0820 C   0  0  0  0  0  0  0  0  0  0  0  0
  189.4220  177.6440  140.1780 C   0  0  0  0  0  3  0  0  0  0  0  0
  185.1580  178.5010  143.6070 N   0  0  0  0  0  0  0  0  0  0  0  0
  186.4300  178.1220  145.5770 C   0  0  0  0  0  0  0  0  0  0  0  0
  186.4790  178.0530  146.9730 C   0  0  0  0  0  3  0  0  0  0  0  0
  180.5030  179.8090  138.2060 C   0  0  0  0  0  0  0  0  0  0  0  0
  182.7830  179.1890  137.6960 C   0  0  0  0  0  3  0  0  0  0  0  0
  182.3520  179.4780  141.3350 F   0  0  0  0  0  0  0  0  0  0  0  0
  179.2180  180.1230  137.7840 O   0  0  0  0  0  1  0  0  0  0  0  0
  181.4910  179.5050  137.2690 C   0  0  0  0  0  3  0  0  0  0  0  0
  182.0980  179.4790  140.0030 C   0  0  0  0  0  0  0  0  0  0  0  0
  183.1040  179.1710  139.0620 C   0  0  0  0  0  0  0  0  0  0  0  0
  180.8060  179.7950  139.5690 C   0  0  0  0  0  3  0  0  0  0  0  0
  1 11  1  0  0  0  0
  1 17  1  0  0  0  0
  2  3  1  0  0  0  0
  3  9  2  0  0  0  0
  3 22  1  0  0  0  0
  4  5  2  0  0  0  0
  5 16  1  0  0  0  0
  6 18  2  0  0  0  0
  6 13  1  0  0  0  0
  7 17  2  0  0  0  0
  7  2  1  0  0  0  0
  8  1  2  0  0  0  0
  9  6  1  0  0  0  0
 10 15  1  0  0  0  0
 12 22  1  0  0  0  0
 14 19  1  0  0  0  0
 14 10  2  0  0  0  0
 15  2  2  0  0  0  0
 15 21  1  0  0  0  0
 16 10  1  0  0  0  0
 19  7  1  0  0  0  0
 20  8  1  0  0  0  0
 20 19  2  0  0  0  0
 21 12  2  0  0  0  0
 22 23  2  0  0  0  0
 23 18  1  0  0  0  0
 24 31  1  0  0  0  0
 25 30  2  0  0  0  0
 27 24  1  0  0  0  0
 28 25  1  0  0  0  0
 28 24  2  0  0  0  0
 29 26  1  0  0  0  0
 30  5  1  0  0  0  0
 30 29  1  0  0  0  0
 31 29  2  0  0  0  0
M  END
>  <MODEL>
8

>  <REMARK>
 VINA RESULT:      -9.2      4.083      6.981
  Name = 
  1 active torsions:
  status: ('A' for Active; 'I' for Inactive)
    1  A    between atoms: C_5  and  C_30
                            x       y       z     vdW  Elec       q    Type
                         _______ _______ _______ _____ _____    ______ ____

>  <TORSDO>
F 1

$$$$
=
 OpenBabel11122411093D

 31 35  0  0  0  0  0  0  0  0999 V2000
  186.0580  178.0720  145.6250 C   0  0  0  0  0  0  0  0  0  0  0  0
  185.9770  178.1940  141.8610 C   0  0  0  0  0  0  0  0  0  0  0  0
  184.6510  178.5660  141.4800 C   0  0  0  0  0  0  0  0  0  0  0  0
  191.0370  176.8210  141.3620 O   0  0  0  0  0  0  0  0  0  0  0  0
  190.5470  176.9860  140.2120 C   0  0  0  0  0  0  0  0  0  0  0  0
  182.3450  179.1840  142.0050 C   0  0  0  0  0  0  0  0  0  0  0  0
  186.4210  178.0370  143.2090 C   0  0  0  0  0  0  0  0  0  0  0  0
  187.3840  177.7020  145.8430 C   0  0  0  0  0  3  0  0  0  0  0  0
  183.6300  178.8220  142.4140 C   0  0  0  0  0  3  0  0  0  0  0  0
  188.2370  177.5940  141.1230 C   0  0  0  0  0  0  0  0  0  0  0  0
  184.9840  178.3290  146.9820 Cl  0  0  0  0  0  0  0  0  0  0  0  0
  185.3020  178.4500  139.1440 C   0  0  0  0  0  3  0  0  0  0  0  0
  181.1030  179.4930  143.1990 Cl  0  0  0  0  0  0  0  0  0  0  0  0
  188.6180  177.4560  142.4180 N   0  0  0  0  0  0  0  0  0  0  0  0
  186.9190  177.9630  140.8190 C   0  0  0  0  0  0  0  0  0  0  0  0
  189.1720  177.3660  140.0590 N   0  0  0  0  0  2  0  0  0  0  0  0
  185.5840  178.2370  144.3220 C   0  0  0  0  0  3  0  0  0  0  0  0
  182.0520  179.3010  140.6480 C   0  0  0  0  0  3  0  0  0  0  0  0
  187.7670  177.6610  143.4510 C   0  0  0  0  0  0  0  0  0  0  0  0
  188.2360  177.4980  144.7580 C   0  0  0  0  0  3  0  0  0  0  0  0
  186.5540  178.0970  139.5160 N   0  0  0  0  0  0  0  0  0  0  0  0
  184.3300  178.6910  140.1050 C   0  0  0  0  0  0  0  0  0  0  0  0
  183.0430  179.0550  139.6980 C   0  0  0  0  0  3  0  0  0  0  0  0
  192.9100  176.3970  136.6770 C   0  0  0  0  0  0  0  0  0  0  0  0
  190.7650  176.4730  137.7890 C   0  0  0  0  0  3  0  0  0  0  0  0
  193.4450  177.2080  140.1950 F   0  0  0  0  0  0  0  0  0  0  0  0
  193.6630  176.2050  135.5270 O   0  0  0  0  0  1  0  0  0  0  0  0
  191.5210  176.2790  136.6300 C   0  0  0  0  0  3  0  0  0  0  0  0
  192.7930  176.9060  139.0450 C   0  0  0  0  0  0  0  0  0  0  0  0
  191.3860  176.7880  139.0070 C   0  0  0  0  0  0  0  0  0  0  0  0
  193.5440  176.7100  137.8820 C   0  0  0  0  0  3  0  0  0  0  0  0
  1  8  1  0  0  0  0
  1 11  1  0  0  0  0
  2  7  1  0  0  0  0
  3  2  1  0  0  0  0
  3  9  1  0  0  0  0
  5  4  2  0  0  0  0
  6  9  2  0  0  0  0
  6 13  1  0  0  0  0
  7 19  2  0  0  0  0
  7 17  1  0  0  0  0
 10 14  2  0  0  0  0
 12 21  2  0  0  0  0
 12 22  1  0  0  0  0
 14 19  1  0  0  0  0
 15 10  1  0  0  0  0
 15  2  2  0  0  0  0
 16  5  1  0  0  0  0
 16 10  1  0  0  0  0
 17  1  2  0  0  0  0
 18  6  1  0  0  0  0
 19 20  1  0  0  0  0
 20  8  2  0  0  0  0
 21 15  1  0  0  0  0
 22  3  2  0  0  0  0
 23 22  1  0  0  0  0
 23 18  2  0  0  0  0
 24 31  1  0  0  0  0
 25 30  2  0  0  0  0
 27 24  1  0  0  0  0
 28 24  2  0  0  0  0
 28 25  1  0  0  0  0
 29 26  1  0  0  0  0
 30 29  1  0  0  0  0
 30  5  1  0  0  0  0
 31 29  2  0  0  0  0
M  END
>  <MODEL>
9

>  <REMARK>
 VINA RESULT:      -9.1      1.912      4.921
  Name = 
  1 active torsions:
  status: ('A' for Active; 'I' for Inactive)
    1  A    between atoms: C_5  and  C_30
                            x       y       z     vdW  Elec       q    Type
                         _______ _______ _______ _____ _____    ______ ____

>  <TORSDO>
F 1

$$$$
