=
 OpenBabel11122412273D

 34 40  0  0  1  0  0  0  0  0999 V2000
  189.5650  177.5730  140.5730 C   0  0  1  0  0  3  0  0  0  0  0  0
  191.5160  176.7990  139.4080 C   0  0  0  0  0  2  0  0  0  0  0  0
  183.2290  178.1250  140.9120 C   0  0  0  0  0  0  0  0  0  0  0  0
  187.4870  178.3070  141.7570 C   0  0  2  0  0  3  0  0  0  0  0  0
  185.5330  179.0800  140.3390 C   0  0  2  0  0  3  0  0  0  0  0  0
  183.5220  179.4870  138.7690 C   0  0  0  0  0  1  0  0  0  0  0  0
  182.5590  177.0230  140.1570 C   0  0  0  0  0  1  0  0  0  0  0  0
  183.8530  179.1200  143.0090 C   0  0  0  0  0  2  0  0  0  0  0  0
  189.7210  177.6080  138.2290 C   0  0  2  0  0  3  0  0  0  0  0  0
  188.4820  176.4030  135.5200 C   0  0  0  0  0  2  0  0  0  0  0  0
  186.1620  178.2930  139.1880 C   0  0  0  0  0  2  0  0  0  0  0  0
  185.3910  179.0980  142.9180 C   0  0  0  0  0  2  0  0  0  0  0  0
  188.1900  177.7300  138.0740 C   0  0  1  0  0  3  0  0  0  0  0  0
  192.0630  176.3990  137.7150 S   0  0  0  0  0  0  0  0  0  0  0  0
  185.9630  178.4160  141.6670 C   0  0  2  0  0  3  0  0  0  0  0  0
  183.2160  178.0950  142.2010 N   0  0  0  0  0  0  0  0  0  0  0  0
  189.7160  175.8990  136.2890 C   0  0  1  0  0  3  0  0  0  0  0  0
  188.0340  177.6450  140.4760 C   0  0  1  0  0  3  0  0  0  0  0  0
  184.0020  179.2080  140.1900 C   0  0  1  0  0  3  0  0  0  0  0  0
  187.6220  178.3820  139.2690 N   0  0  2  0  0  0  0  0  0  0  0  0
  189.2350  177.6190  143.0320 C   0  0  0  0  0  2  0  0  0  0  0  0
  188.3490  177.9280  135.4890 C   0  0  0  0  0  2  0  0  0  0  0  0
  187.8390  177.5200  142.8730 O   0  0  0  0  0  0  0  0  0  0  0  0
  187.8090  178.5130  136.8030 C   0  0  0  0  0  2  0  0  0  0  0  0
  190.4810  177.0040  137.0520 C   0  0  1  0  0  3  0  0  0  0  0  0
  189.9460  176.8920  141.8890 C   0  0  0  0  0  2  0  0  0  0  0  0
  190.0610  176.8340  139.4140 N   0  0  2  0  0  0  0  0  0  0  0  0
  189.3170  174.8150  137.1770 N   0  0  0  0  0  2  0  0  0  0  0  0
  188.0680  174.4380  136.8120 O   0  0  0  0  0  0  0  0  0  0  0  0
  186.0840  172.1530  136.0620 O   0  0  0  0  0  0  0  0  0  0  0  0
  188.4230  172.3410  135.7800 C   0  0  0  0  0  2  0  0  0  0  0  0
  188.0370  173.0610  137.0380 C   0  0  2  0  0  3  0  0  0  0  0  0
  187.1740  171.5870  135.3870 C   0  0  0  0  0  2  0  0  0  0  0  0
  186.6100  172.6240  137.2740 C   0  0  0  0  0  2  0  0  0  0  0  0
  1 26  1  1  0  0  0
  2 27  1  0  0  0  0
  3 16  2  0  0  0  0
  4 23  1  1  0  0  0
  5 11  1  6  0  0  0
  5 15  1  0  0  0  0
  6 19  1  0  0  0  0
  7  3  1  0  0  0  0
  9 27  1  0  0  0  0
 10 17  1  0  0  0  0
 11 20  1  0  0  0  0
 12  8  1  0  0  0  0
 13  9  1  0  0  0  0
 13 20  1  0  0  0  0
 14  2  1  0  0  0  0
 15  4  1  0  0  0  0
 15 12  1  0  0  0  0
 16  8  1  0  0  0  0
 17 25  1  0  0  0  0
 17 28  1  0  0  0  0
 18  1  1  0  0  0  0
 18  4  1  0  0  0  0
 19  5  1  0  0  0  0
 19  3  1  0  0  0  0
 20 18  1  0  0  0  0
 22 10  1  0  0  0  0
 22 24  1  0  0  0  0
 23 21  1  0  0  0  0
 24 13  1  0  0  0  0
 25 14  1  0  0  0  0
 25  9  1  0  0  0  0
 26 21  1  0  0  0  0
 27  1  1  0  0  0  0
 29 32  1  0  0  0  0
 29 28  1  0  0  0  0
 30 34  1  0  0  0  0
 31 32  1  0  0  0  0
 32 34  1  0  0  0  0
 33 31  1  0  0  0  0
 33 30  1  0  0  0  0
M  END
>  <MODEL>
1

>  <REMARK>
 VINA RESULT:      -7.3      0.000      0.000
  Name = 
  3 active torsions:
  status: ('A' for Active; 'I' for Inactive)
    1  A    between atoms: C_17  and  N_28
    2  A    between atoms: N_28  and  O_29
    3  A    between atoms: O_29  and  C_32
                            x       y       z     vdW  Elec       q    Type
                         _______ _______ _______ _____ _____    ______ ____

>  <TORSDO>
F 3

$$$$
=
 OpenBabel11122412273D

 34 40  0  0  1  0  0  0  0  0999 V2000
  189.6940  177.5350  141.2700 C   0  0  1  0  0  3  0  0  0  0  0  0
  191.7670  176.8410  140.2770 C   0  0  0  0  0  2  0  0  0  0  0  0
  183.3520  178.0330  140.9610 C   0  0  0  0  0  0  0  0  0  0  0  0
  187.4930  178.1870  142.2650 C   0  0  2  0  0  3  0  0  0  0  0  0
  185.6930  179.0320  140.6940 C   0  0  2  0  0  3  0  0  0  0  0  0
  183.8560  179.5190  138.9440 C   0  0  0  0  0  1  0  0  0  0  0  0
  182.7790  176.9730  140.0770 C   0  0  0  0  0  1  0  0  0  0  0  0
  183.7390  178.9070  143.1660 C   0  0  0  0  0  2  0  0  0  0  0  0
  190.0990  177.7070  138.9630 C   0  0  2  0  0  3  0  0  0  0  0  0
  189.1680  176.6560  136.0720 C   0  0  0  0  0  2  0  0  0  0  0  0
  186.4500  178.3170  139.5730 C   0  0  0  0  0  2  0  0  0  0  0  0
  185.2770  178.8990  143.2390 C   0  0  0  0  0  2  0  0  0  0  0  0
  188.5910  177.8300  138.6520 C   0  0  1  0  0  3  0  0  0  0  0  0
  192.4950  176.5430  138.6330 S   0  0  0  0  0  0  0  0  0  0  0  0
  185.9870  178.2940  142.0200 C   0  0  2  0  0  3  0  0  0  0  0  0
  183.2030  177.9270  142.2380 N   0  0  0  0  0  0  0  0  0  0  0  0
  190.3190  176.1150  136.9380 C   0  0  1  0  0  3  0  0  0  0  0  0
  188.1820  177.6050  141.0150 C   0  0  1  0  0  3  0  0  0  0  0  0
  184.1850  179.1600  140.3900 C   0  0  1  0  0  3  0  0  0  0  0  0
  187.8910  178.4080  139.8140 N   0  0  2  0  0  0  0  0  0  0  0  0
  189.1040  177.4360  143.6780 C   0  0  0  0  0  2  0  0  0  0  0  0
  189.0220  178.1790  136.1140 C   0  0  0  0  0  2  0  0  0  0  0  0
  187.7340  177.3390  143.3660 O   0  0  0  0  0  0  0  0  0  0  0  0
  188.3380  178.6840  137.3940 C   0  0  0  0  0  2  0  0  0  0  0  0
  190.9860  177.1770  137.8400 C   0  0  1  0  0  3  0  0  0  0  0  0
  189.9410  176.7810  142.5780 C   0  0  0  0  0  2  0  0  0  0  0  0
  190.3190  176.8670  140.1300 N   0  0  2  0  0  0  0  0  0  0  0  0
  189.8400  174.9780  137.7140 N   0  0  0  0  0  2  0  0  0  0  0  0
  190.7320  173.9730  137.5450 O   0  0  0  0  0  0  0  0  0  0  0  0
  192.3140  172.0640  135.6540 O   0  0  0  0  0  0  0  0  0  0  0  0
  190.0890  172.8580  135.5620 C   0  0  0  0  0  2  0  0  0  0  0  0
  190.9510  173.9270  136.1670 C   0  0  2  0  0  3  0  0  0  0  0  0
  191.0760  171.8420  135.0350 C   0  0  0  0  0  2  0  0  0  0  0  0
  192.3570  173.4440  135.9000 C   0  0  0  0  0  2  0  0  0  0  0  0
  1 26  1  1  0  0  0
  3 16  2  0  0  0  0
  4 23  1  1  0  0  0
  5 11  1  6  0  0  0
  5 15  1  0  0  0  0
  6 19  1  0  0  0  0
  7  3  1  0  0  0  0
  8 12  1  0  0  0  0
  9 27  1  0  0  0  0
 10 22  1  0  0  0  0
 10 17  1  0  0  0  0
 11 20  1  0  0  0  0
 13  9  1  0  0  0  0
 13 20  1  0  0  0  0
 14  2  1  0  0  0  0
 15  4  1  0  0  0  0
 15 12  1  0  0  0  0
 16  8  1  0  0  0  0
 17 28  1  0  0  0  0
 17 25  1  0  0  0  0
 18  1  1  0  0  0  0
 18  4  1  0  0  0  0
 19  5  1  0  0  0  0
 19  3  1  0  0  0  0
 20 18  1  0  0  0  0
 22 24  1  0  0  0  0
 23 21  1  0  0  0  0
 24 13  1  0  0  0  0
 25 14  1  0  0  0  0
 25  9  1  0  0  0  0
 26 21  1  0  0  0  0
 27  2  1  0  0  0  0
 27  1  1  0  0  0  0
 29 28  1  0  0  0  0
 30 34  1  0  0  0  0
 31 32  1  0  0  0  0
 32 29  1  0  0  0  0
 33 31  1  0  0  0  0
 33 30  1  0  0  0  0
 34 32  1  0  0  0  0
M  END
>  <MODEL>
2

>  <REMARK>
 VINA RESULT:      -7.0      1.551      1.903
  Name = 
  3 active torsions:
  status: ('A' for Active; 'I' for Inactive)
    1  A    between atoms: C_17  and  N_28
    2  A    between atoms: N_28  and  O_29
    3  A    between atoms: O_29  and  C_32
                            x       y       z     vdW  Elec       q    Type
                         _______ _______ _______ _____ _____    ______ ____

>  <TORSDO>
F 3

$$$$
=
 OpenBabel11122412273D

 34 40  0  0  1  0  0  0  0  0999 V2000
  180.0080  178.6520  137.6300 C   0  0  1  0  0  3  0  0  0  0  0  0
  180.1330  176.6600  138.9640 C   0  0  0  0  0  2  0  0  0  0  0  0
  180.9680  184.9180  137.0130 C   0  0  0  0  0  0  0  0  0  0  0  0
  179.9540  180.7580  136.2800 C   0  0  2  0  0  3  0  0  0  0  0  0
  179.4390  182.9230  137.4920 C   0  0  2  0  0  3  0  0  0  0  0  0
  179.2660  185.0740  138.9130 C   0  0  0  0  0  1  0  0  0  0  0  0
  182.0650  185.3790  137.9170 C   0  0  0  0  0  1  0  0  0  0  0  0
  180.1870  184.3900  134.8020 C   0  0  0  0  0  2  0  0  0  0  0  0
  179.5840  178.6620  139.9400 C   0  0  2  0  0  3  0  0  0  0  0  0
  180.6130  179.7840  142.7700 C   0  0  0  0  0  2  0  0  0  0  0  0
  179.8780  182.2140  138.7750 C   0  0  0  0  0  2  0  0  0  0  0  0
  179.8450  182.8950  134.9420 C   0  0  0  0  0  2  0  0  0  0  0  0
  179.7900  180.1900  140.0270 C   0  0  1  0  0  3  0  0  0  0  0  0
  180.1370  176.1520  140.7150 S   0  0  0  0  0  0  0  0  0  0  0  0
  180.1810  182.2710  136.3040 C   0  0  2  0  0  3  0  0  0  0  0  0
  181.1960  184.8390  135.7460 N   0  0  0  0  0  0  0  0  0  0  0  0
  180.9340  178.4210  142.1310 C   0  0  1  0  0  3  0  0  0  0  0  0
  180.2720  180.1640  137.6670 C   0  0  1  0  0  3  0  0  0  0  0  0
  179.6410  184.4520  137.5720 C   0  0  1  0  0  3  0  0  0  0  0  0
  179.4740  180.8080  138.7250 N   0  0  2  0  0  0  0  0  0  0  0  0
  180.4120  178.8200  135.1870 C   0  0  0  0  0  2  0  0  0  0  0  0
  179.1710  180.2500  142.5480 C   0  0  0  0  0  2  0  0  0  0  0  0
  180.8000  180.1680  135.3170 O   0  0  0  0  0  0  0  0  0  0  0  0
  178.9310  180.8170  141.1420 C   0  0  0  0  0  2  0  0  0  0  0  0
  179.8130  177.8690  141.2220 C   0  0  1  0  0  3  0  0  0  0  0  0
  180.7770  178.0450  136.4540 C   0  0  0  0  0  2  0  0  0  0  0  0
  180.4310  178.0840  138.9080 N   0  0  2  0  0  0  0  0  0  0  0  0
  182.2030  178.5130  141.4200 N   0  0  0  0  0  2  0  0  0  0  0  0
  183.1740  178.6590  142.3520 O   0  0  0  0  0  0  0  0  0  0  0  0
  185.6140  179.4720  140.5900 O   0  0  0  0  0  0  0  0  0  0  0  0
  185.4930  178.2930  142.6350 C   0  0  0  0  0  2  0  0  0  0  0  0
  184.2700  177.9710  141.8270 C   0  0  2  0  0  3  0  0  0  0  0  0
  186.3920  179.0270  141.6680 C   0  0  0  0  0  2  0  0  0  0  0  0
  184.5950  178.5190  140.4570 C   0  0  0  0  0  2  0  0  0  0  0  0
  1 26  1  6  0  0  0
  1 18  1  0  0  0  0
  1 27  1  0  0  0  0
  2 14  1  0  0  0  0
  3 19  1  0  0  0  0
  3  7  1  0  0  0  0
  4 23  1  6  0  0  0
  4 15  1  0  0  0  0
  4 18  1  0  0  0  0
  5 19  1  0  0  0  0
  5 11  1  1  0  0  0
  8 12  1  0  0  0  0
  8 16  1  0  0  0  0
  9 13  1  0  0  0  0
  9 25  1  0  0  0  0
 12 15  1  0  0  0  0
 13 24  1  0  0  0  0
 14 25  1  0  0  0  0
 15  5  1  0  0  0  0
 16  3  2  0  0  0  0
 17 10  1  0  0  0  0
 18 20  1  0  0  0  0
 19  6  1  0  0  0  0
 20 11  1  0  0  0  0
 20 13  1  0  0  0  0
 21 23  1  0  0  0  0
 21 26  1  0  0  0  0
 22 10  1  0  0  0  0
 24 22  1  0  0  0  0
 25 17  1  0  0  0  0
 27  2  1  0  0  0  0
 27  9  1  0  0  0  0
 28 17  1  0  0  0  0
 28 29  1  0  0  0  0
 30 33  1  0  0  0  0
 32 29  1  0  0  0  0
 32 31  1  0  0  0  0
 33 31  1  0  0  0  0
 34 30  1  0  0  0  0
 34 32  1  0  0  0  0
M  END
>  <MODEL>
3

>  <REMARK>
 VINA RESULT:      -6.3      5.639      9.643
  Name = 
  3 active torsions:
  status: ('A' for Active; 'I' for Inactive)
    1  A    between atoms: C_17  and  N_28
    2  A    between atoms: N_28  and  O_29
    3  A    between atoms: O_29  and  C_32
                            x       y       z     vdW  Elec       q    Type
                         _______ _______ _______ _____ _____    ______ ____

>  <TORSDO>
F 3

$$$$
=
 OpenBabel11122412273D

 34 40  0  0  1  0  0  0  0  0999 V2000
  187.5460  176.9380  136.3200 C   0  0  1  0  0  3  0  0  0  0  0  0
  185.7810  176.6760  134.7140 C   0  0  0  0  0  2  0  0  0  0  0  0
  189.4960  176.9570  142.3840 C   0  0  0  0  0  0  0  0  0  0  0  0
  189.3460  177.1480  138.0460 C   0  0  2  0  0  3  0  0  0  0  0  0
  188.7270  178.1850  140.2750 C   0  0  2  0  0  3  0  0  0  0  0  0
  187.8680  178.9150  142.6000 C   0  0  0  0  0  1  0  0  0  0  0  0
  188.6170  176.0920  143.2270 C   0  0  0  0  0  1  0  0  0  0  0  0
  191.5920  177.3140  141.2640 C   0  0  0  0  0  2  0  0  0  0  0  0
  185.3570  177.6840  136.7310 C   0  0  2  0  0  3  0  0  0  0  0  0
  182.7740  177.2710  138.5980 C   0  0  0  0  0  2  0  0  0  0  0  0
  187.2770  177.8220  139.9490 C   0  0  0  0  0  2  0  0  0  0  0  0
  191.1460  177.4190  139.7940 C   0  0  0  0  0  2  0  0  0  0  0  0
  185.6060  177.7500  138.2540 C   0  0  1  0  0  3  0  0  0  0  0  0
  183.9690  176.8380  134.5950 S   0  0  0  0  0  0  0  0  0  0  0  0
  189.6490  177.1820  139.5460 C   0  0  2  0  0  3  0  0  0  0  0  0
  190.6800  176.5400  142.0870 N   0  0  0  0  0  0  0  0  0  0  0  0
  183.0430  176.6400  137.2200 C   0  0  1  0  0  3  0  0  0  0  0  0
  187.8340  176.9380  137.8290 C   0  0  1  0  0  3  0  0  0  0  0  0
  188.9830  178.2530  141.7960 C   0  0  1  0  0  3  0  0  0  0  0  0
  187.0400  177.9750  138.5120 N   0  0  2  0  0  0  0  0  0  0  0  0
  189.9070  176.2230  136.0500 C   0  0  0  0  0  2  0  0  0  0  0  0
  183.2440  178.7240  138.7180 C   0  0  0  0  0  2  0  0  0  0  0  0
  190.0530  176.0870  137.4440 O   0  0  0  0  0  0  0  0  0  0  0  0
  184.7610  178.8520  138.9210 C   0  0  0  0  0  2  0  0  0  0  0  0
  183.9090  177.5110  136.2830 C   0  0  1  0  0  3  0  0  0  0  0  0
  188.4640  175.9190  135.6420 C   0  0  0  0  0  2  0  0  0  0  0  0
  186.1350  176.6140  136.1250 N   0  0  2  0  0  0  0  0  0  0  0  0
  183.6230  175.3160  137.4060 N   0  0  0  0  0  2  0  0  0  0  0  0
  182.6050  174.4240  137.3590 O   0  0  0  0  0  0  0  0  0  0  0  0
  184.5620  172.0040  137.1600 O   0  0  0  0  0  0  0  0  0  0  0  0
  182.2840  172.2200  136.5660 C   0  0  0  0  0  2  0  0  0  0  0  0
  182.9620  173.5390  136.3390 C   0  0  2  0  0  3  0  0  0  0  0  0
  183.4220  171.2600  136.8260 C   0  0  0  0  0  2  0  0  0  0  0  0
  184.4310  173.2090  136.4540 C   0  0  0  0  0  2  0  0  0  0  0  0
  1 26  1  6  0  0  0
  1 18  1  0  0  0  0
  2 27  1  0  0  0  0
  3  7  1  0  0  0  0
  4 23  1  6  0  0  0
  4 15  1  0  0  0  0
  5 11  1  1  0  0  0
  5 19  1  0  0  0  0
  8 16  1  0  0  0  0
  9 13  1  0  0  0  0
 10 22  1  0  0  0  0
 12  8  1  0  0  0  0
 13 20  1  0  0  0  0
 13 24  1  0  0  0  0
 14  2  1  0  0  0  0
 14 25  1  0  0  0  0
 15 12  1  0  0  0  0
 15  5  1  0  0  0  0
 16  3  2  0  0  0  0
 17 28  1  0  0  0  0
 17 10  1  0  0  0  0
 18  4  1  0  0  0  0
 18 20  1  0  0  0  0
 19  3  1  0  0  0  0
 19  6  1  0  0  0  0
 20 11  1  0  0  0  0
 21 23  1  0  0  0  0
 22 24  1  0  0  0  0
 25  9  1  0  0  0  0
 25 17  1  0  0  0  0
 26 21  1  0  0  0  0
 27  1  1  0  0  0  0
 27  9  1  0  0  0  0
 29 28  1  0  0  0  0
 31 33  1  0  0  0  0
 32 34  1  0  0  0  0
 32 31  1  0  0  0  0
 32 29  1  0  0  0  0
 33 30  1  0  0  0  0
 34 30  1  0  0  0  0
M  END
>  <MODEL>
4

>  <REMARK>
 VINA RESULT:      -5.9      2.819      5.573
  Name = 
  3 active torsions:
  status: ('A' for Active; 'I' for Inactive)
    1  A    between atoms: C_17  and  N_28
    2  A    between atoms: N_28  and  O_29
    3  A    between atoms: O_29  and  C_32
                            x       y       z     vdW  Elec       q    Type
                         _______ _______ _______ _____ _____    ______ ____

>  <TORSDO>
F 3

$$$$
=
 OpenBabel11122412273D

 34 40  0  0  1  0  0  0  0  0999 V2000
  190.9130  176.9520  138.1700 C   0  0  1  0  0  3  0  0  0  0  0  0
  190.8870  176.1670  135.9020 C   0  0  0  0  0  2  0  0  0  0  0  0
  188.0700  177.4280  143.8500 C   0  0  0  0  0  0  0  0  0  0  0  0
  190.8940  177.6960  140.5590 C   0  0  2  0  0  3  0  0  0  0  0  0
  188.6720  178.3950  141.5590 C   0  0  2  0  0  3  0  0  0  0  0  0
  186.3030  178.7230  142.5340 C   0  0  0  0  0  1  0  0  0  0  0  0
  187.1230  176.2930  144.0660 C   0  0  0  0  0  1  0  0  0  0  0  0
  190.1660  178.5000  144.3340 C   0  0  0  0  0  2  0  0  0  0  0  0
  188.9500  176.9120  136.8810 C   0  0  2  0  0  3  0  0  0  0  0  0
  186.0270  175.6010  136.6310 C   0  0  0  0  0  2  0  0  0  0  0  0
  188.0080  177.5800  140.4470 C   0  0  0  0  0  2  0  0  0  0  0  0
  190.8450  178.4960  142.9520 C   0  0  0  0  0  2  0  0  0  0  0  0
  188.0570  177.0080  138.1370 C   0  0  1  0  0  3  0  0  0  0  0  0
  189.6980  175.7190  134.5950 S   0  0  0  0  0  0  0  0  0  0  0  0
  190.0620  177.7820  141.8410 C   0  0  2  0  0  3  0  0  0  0  0  0
  189.1870  177.4400  144.4960 N   0  0  0  0  0  0  0  0  0  0  0  0
  187.3210  175.1400  135.9370 C   0  0  1  0  0  3  0  0  0  0  0  0
  190.0730  177.0000  139.4550 C   0  0  1  0  0  3  0  0  0  0  0  0
  187.7840  178.4970  142.8180 C   0  0  1  0  0  3  0  0  0  0  0  0
  188.7930  177.6910  139.2170 N   0  0  2  0  0  0  0  0  0  0  0  0
  192.8880  177.0750  139.6680 C   0  0  0  0  0  2  0  0  0  0  0  0
  185.8800  177.1230  136.7250 C   0  0  0  0  0  2  0  0  0  0  0  0
  192.0660  176.9520  140.8050 O   0  0  0  0  0  0  0  0  0  0  0  0
  186.7360  177.7430  137.8390 C   0  0  0  0  0  2  0  0  0  0  0  0
  188.3210  176.2800  135.6420 C   0  0  1  0  0  3  0  0  0  0  0  0
  192.2700  176.3200  138.4900 C   0  0  0  0  0  2  0  0  0  0  0  0
  190.1750  176.1820  137.1720 N   0  0  2  0  0  0  0  0  0  0  0  0
  187.9350  174.0800  136.7270 N   0  0  0  0  0  2  0  0  0  0  0  0
  187.0800  173.0300  136.7200 O   0  0  0  0  0  0  0  0  0  0  0  0
  187.9060  170.2120  135.6720 O   0  0  0  0  0  0  0  0  0  0  0  0
  186.0490  171.5830  135.1610 C   0  0  0  0  0  2  0  0  0  0  0  0
  187.2270  172.4660  135.4520 C   0  0  2  0  0  3  0  0  0  0  0  0
  186.6430  170.1960  135.0660 C   0  0  0  0  0  2  0  0  0  0  0  0
  188.3960  171.5090  135.4610 C   0  0  0  0  0  2  0  0  0  0  0  0
  1 26  1  1  0  0  0
  1 18  1  0  0  0  0
  2 27  1  0  0  0  0
  3  7  1  0  0  0  0
  3 16  2  0  0  0  0
  4 23  1  1  0  0  0
  4 15  1  0  0  0  0
  5 11  1  6  0  0  0
  5 15  1  0  0  0  0
  5 19  1  0  0  0  0
  6 19  1  0  0  0  0
  8 16  1  0  0  0  0
  9 27  1  0  0  0  0
  9 13  1  0  0  0  0
 10 22  1  0  0  0  0
 12  8  1  0  0  0  0
 13 20  1  0  0  0  0
 14 25  1  0  0  0  0
 14  2  1  0  0  0  0
 15 12  1  0  0  0  0
 17 10  1  0  0  0  0
 17 28  1  0  0  0  0
 18  4  1  0  0  0  0
 19  3  1  0  0  0  0
 20 18  1  0  0  0  0
 20 11  1  0  0  0  0
 21 23  1  0  0  0  0
 22 24  1  0  0  0  0
 24 13  1  0  0  0  0
 25 17  1  0  0  0  0
 25  9  1  0  0  0  0
 26 21  1  0  0  0  0
 27  1  1  0  0  0  0
 29 28  1  0  0  0  0
 31 32  1  0  0  0  0
 32 34  1  0  0  0  0
 32 29  1  0  0  0  0
 33 31  1  0  0  0  0
 33 30  1  0  0  0  0
 34 30  1  0  0  0  0
M  END
>  <MODEL>
5

>  <REMARK>
 VINA RESULT:      -5.9      2.392      3.672
  Name = 
  3 active torsions:
  status: ('A' for Active; 'I' for Inactive)
    1  A    between atoms: C_17  and  N_28
    2  A    between atoms: N_28  and  O_29
    3  A    between atoms: O_29  and  C_32
                            x       y       z     vdW  Elec       q    Type
                         _______ _______ _______ _____ _____    ______ ____

>  <TORSDO>
F 3

$$$$
=
 OpenBabel11122412273D

 34 40  0  0  1  0  0  0  0  0999 V2000
  185.4170  178.6260  139.4530 C   0  0  1  0  0  3  0  0  0  0  0  0
  187.4070  178.2750  138.1570 C   0  0  0  0  0  2  0  0  0  0  0  0
  179.4770  176.8990  140.9730 C   0  0  0  0  0  0  0  0  0  0  0  0
  183.3290  178.9010  140.8050 C   0  0  2  0  0  3  0  0  0  0  0  0
  181.1190  178.3770  139.6810 C   0  0  2  0  0  3  0  0  0  0  0  0
  178.9960  177.4620  138.5270 C   0  0  0  0  0  1  0  0  0  0  0  0
  179.2650  175.4430  140.7120 C   0  0  0  0  0  1  0  0  0  0  0  0
  179.8060  178.7000  142.5300 C   0  0  0  0  0  2  0  0  0  0  0  0
  185.3460  177.9200  137.2140 C   0  0  2  0  0  3  0  0  0  0  0  0
  184.4950  175.5050  135.2720 C   0  0  0  0  0  2  0  0  0  0  0  0
  181.9180  177.5360  138.6840 C   0  0  0  0  0  2  0  0  0  0  0  0
  181.2000  179.2130  142.1230 C   0  0  0  0  0  2  0  0  0  0  0  0
  183.8950  177.4130  137.3620 C   0  0  1  0  0  3  0  0  0  0  0  0
  187.9250  177.5560  136.5650 S   0  0  0  0  0  0  0  0  0  0  0  0
  181.8960  178.4080  141.0160 C   0  0  2  0  0  3  0  0  0  0  0  0
  179.5870  177.3050  142.1930 N   0  0  0  0  0  0  0  0  0  0  0  0
  185.8870  175.7810  135.8670 C   0  0  1  0  0  3  0  0  0  0  0  0
  183.9920  178.0950  139.6700 C   0  0  1  0  0  3  0  0  0  0  0  0
  179.6660  177.8770  139.8330 C   0  0  1  0  0  3  0  0  0  0  0  0
  183.2100  178.1740  138.4230 N   0  0  2  0  0  0  0  0  0  0  0  0
  185.3060  179.3770  141.8160 C   0  0  0  0  0  2  0  0  0  0  0  0
  183.7390  176.7680  134.8510 C   0  0  0  0  0  2  0  0  0  0  0  0
  184.0690  178.7270  141.9930 O   0  0  0  0  0  0  0  0  0  0  0  0
  183.1170  177.5220  136.0360 C   0  0  0  0  0  2  0  0  0  0  0  0
  186.1850  177.2760  136.1150 C   0  0  1  0  0  3  0  0  0  0  0  0
  186.1560  178.6200  140.7930 C   0  0  0  0  0  2  0  0  0  0  0  0
  186.0750  177.7750  138.4650 N   0  0  2  0  0  0  0  0  0  0  0  0
  186.0510  174.9950  137.0840 N   0  0  0  0  0  2  0  0  0  0  0  0
  184.9080  174.2900  137.2620 O   0  0  0  0  0  0  0  0  0  0  0  0
  185.3940  171.6740  135.6380 O   0  0  0  0  0  0  0  0  0  0  0  0
  186.7680  172.8330  137.1730 C   0  0  0  0  0  2  0  0  0  0  0  0
  185.3370  173.0040  137.5920 C   0  0  2  0  0  3  0  0  0  0  0  0
  186.7140  171.7710  136.1000 C   0  0  0  0  0  2  0  0  0  0  0  0
  184.5960  171.9960  136.7450 C   0  0  0  0  0  2  0  0  0  0  0  0
  1 18  1  0  0  0  0
  1 26  1  1  0  0  0
  2 27  1  0  0  0  0
  3 16  2  0  0  0  0
  4 15  1  0  0  0  0
  4 23  1  1  0  0  0
  5 11  1  6  0  0  0
  5 19  1  0  0  0  0
  5 15  1  0  0  0  0
  6 19  1  0  0  0  0
  7  3  1  0  0  0  0
  9 13  1  0  0  0  0
  9 27  1  0  0  0  0
 10 17  1  0  0  0  0
 12  8  1  0  0  0  0
 13 20  1  0  0  0  0
 14  2  1  0  0  0  0
 15 12  1  0  0  0  0
 16  8  1  0  0  0  0
 17 25  1  0  0  0  0
 17 28  1  0  0  0  0
 18  4  1  0  0  0  0
 19  3  1  0  0  0  0
 20 11  1  0  0  0  0
 20 18  1  0  0  0  0
 21 23  1  0  0  0  0
 22 10  1  0  0  0  0
 22 24  1  0  0  0  0
 24 13  1  0  0  0  0
 25 14  1  0  0  0  0
 25  9  1  0  0  0  0
 26 21  1  0  0  0  0
 27  1  1  0  0  0  0
 28 29  1  0  0  0  0
 29 32  1  0  0  0  0
 30 33  1  0  0  0  0
 30 34  1  0  0  0  0
 31 32  1  0  0  0  0
 33 31  1  0  0  0  0
 34 32  1  0  0  0  0
M  END
>  <MODEL>
6

>  <REMARK>
 VINA RESULT:      -5.7      2.727      4.003
  Name = 
  3 active torsions:
  status: ('A' for Active; 'I' for Inactive)
    1  A    between atoms: C_17  and  N_28
    2  A    between atoms: N_28  and  O_29
    3  A    between atoms: O_29  and  C_32
                            x       y       z     vdW  Elec       q    Type
                         _______ _______ _______ _____ _____    ______ ____

>  <TORSDO>
F 3

$$$$
=
 OpenBabel11122412273D

 34 40  0  0  1  0  0  0  0  0999 V2000
  180.2430  176.0880  139.7570 C   0  0  1  0  0  3  0  0  0  0  0  0
  179.9860  177.8440  141.3750 C   0  0  0  0  0  2  0  0  0  0  0  0
  184.0220  172.5330  136.0630 C   0  0  0  0  0  0  0  0  0  0  0  0
  180.5900  174.2370  138.1100 C   0  0  2  0  0  3  0  0  0  0  0  0
  182.4360  174.5140  136.3970 C   0  0  2  0  0  3  0  0  0  0  0  0
  184.5700  174.7740  134.9630 C   0  0  0  0  0  1  0  0  0  0  0  0
  185.3980  172.4450  136.6410 C   0  0  0  0  0  1  0  0  0  0  0  0
  181.8970  171.5090  135.6050 C   0  0  0  0  0  2  0  0  0  0  0  0
  181.5650  178.0290  139.7200 C   0  0  2  0  0  3  0  0  0  0  0  0
  184.5650  179.1400  140.0230 C   0  0  0  0  0  2  0  0  0  0  0  0
  183.0570  175.5360  137.3510 C   0  0  0  0  0  2  0  0  0  0  0  0
  180.9380  172.4100  136.4040 C   0  0  0  0  0  2  0  0  0  0  0  0
  182.6290  177.3540  138.8280 C   0  0  1  0  0  3  0  0  0  0  0  0
  180.8320  179.3590  141.9340 S   0  0  0  0  0  0  0  0  0  0  0  0
  181.6140  173.5100  137.2360 C   0  0  2  0  0  3  0  0  0  0  0  0
  183.2500  171.5020  136.1310 N   0  0  0  0  0  0  0  0  0  0  0  0
  183.4830  179.0610  141.1140 C   0  0  1  0  0  3  0  0  0  0  0  0
  181.2910  175.3520  138.9110 C   0  0  1  0  0  3  0  0  0  0  0  0
  183.4940  173.8350  135.5000 C   0  0  1  0  0  3  0  0  0  0  0  0
  181.9980  176.2920  138.0220 N   0  0  2  0  0  0  0  0  0  0  0  0
  178.9310  173.9850  139.6400 C   0  0  0  0  0  2  0  0  0  0  0  0
  184.0300  179.5330  138.6430 C   0  0  0  0  0  2  0  0  0  0  0  0
  180.0000  173.3220  139.0070 O   0  0  0  0  0  0  0  0  0  0  0  0
  183.3350  178.3740  137.9140 C   0  0  0  0  0  2  0  0  0  0  0  0
  182.0380  179.1950  140.5830 C   0  0  1  0  0  3  0  0  0  0  0  0
  179.4670  175.0620  140.5850 C   0  0  0  0  0  2  0  0  0  0  0  0
  180.9370  177.0570  140.6020 N   0  0  2  0  0  0  0  0  0  0  0  0
  183.6600  177.8310  141.8750 N   0  0  0  0  0  2  0  0  0  0  0  0
  183.6400  178.1650  143.1870 O   0  0  0  0  0  0  0  0  0  0  0  0
  185.6260  178.2770  145.5880 O   0  0  0  0  0  0  0  0  0  0  0  0
  185.9690  177.7780  143.3030 C   0  0  0  0  0  2  0  0  0  0  0  0
  184.8680  178.7920  143.4080 C   0  0  2  0  0  3  0  0  0  0  0  0
  186.5530  177.7210  144.6950 C   0  0  0  0  0  2  0  0  0  0  0  0
  184.9430  179.2510  144.8460 C   0  0  0  0  0  2  0  0  0  0  0  0
  1 26  1  1  0  0  0
  1 27  1  0  0  0  0
  2 14  1  0  0  0  0
  3 16  2  0  0  0  0
  3  7  1  0  0  0  0
  4 18  1  0  0  0  0
  4 23  1  1  0  0  0
  5 15  1  0  0  0  0
  5 11  1  1  0  0  0
  6 19  1  0  0  0  0
  8 16  1  0  0  0  0
  8 12  1  0  0  0  0
  9 25  1  0  0  0  0
  9 27  1  0  0  0  0
 10 17  1  0  0  0  0
 11 20  1  0  0  0  0
 12 15  1  0  0  0  0
 13  9  1  0  0  0  0
 15  4  1  0  0  0  0
 17 28  1  0  0  0  0
 18  1  1  0  0  0  0
 19  3  1  0  0  0  0
 19  5  1  0  0  0  0
 20 13  1  0  0  0  0
 20 18  1  0  0  0  0
 21 26  1  0  0  0  0
 22 10  1  0  0  0  0
 23 21  1  0  0  0  0
 24 22  1  0  0  0  0
 24 13  1  0  0  0  0
 25 17  1  0  0  0  0
 25 14  1  0  0  0  0
 27  2  1  0  0  0  0
 28 29  1  0  0  0  0
 29 32  1  0  0  0  0
 31 32  1  0  0  0  0
 31 33  1  0  0  0  0
 32 34  1  0  0  0  0
 33 30  1  0  0  0  0
 34 30  1  0  0  0  0
M  END
>  <MODEL>
7

>  <REMARK>
 VINA RESULT:      -5.6      4.670      8.776
  Name = 
  3 active torsions:
  status: ('A' for Active; 'I' for Inactive)
    1  A    between atoms: C_17  and  N_28
    2  A    between atoms: N_28  and  O_29
    3  A    between atoms: O_29  and  C_32
                            x       y       z     vdW  Elec       q    Type
                         _______ _______ _______ _____ _____    ______ ____

>  <TORSDO>
F 3

$$$$
=
 OpenBabel11122412273D

 34 40  0  0  1  0  0  0  0  0999 V2000
  189.0790  177.2970  137.9940 C   0  0  1  0  0  3  0  0  0  0  0  0
  188.4380  176.8000  135.7340 C   0  0  0  0  0  2  0  0  0  0  0  0
  187.6420  177.4820  144.1960 C   0  0  0  0  0  0  0  0  0  0  0  0
  189.6960  177.7450  140.3770 C   0  0  2  0  0  3  0  0  0  0  0  0
  187.8860  178.6230  141.9190 C   0  0  2  0  0  3  0  0  0  0  0  0
  185.8680  179.1590  143.4400 C   0  0  0  0  0  1  0  0  0  0  0  0
  186.5920  176.4720  144.5280 C   0  0  0  0  0  1  0  0  0  0  0  0
  189.9390  178.1860  144.2720 C   0  0  0  0  0  2  0  0  0  0  0  0
  186.9050  177.6860  137.1940 C   0  0  2  0  0  3  0  0  0  0  0  0
  183.8230  176.8350  137.5160 C   0  0  0  0  0  2  0  0  0  0  0  0
  186.8750  178.0470  140.9260 C   0  0  0  0  0  2  0  0  0  0  0  0
  190.2940  178.2530  142.7750 C   0  0  0  0  0  2  0  0  0  0  0  0
  186.3310  177.7550  138.6260 C   0  0  1  0  0  3  0  0  0  0  0  0
  186.9380  176.6820  134.7040 S   0  0  0  0  0  0  0  0  0  0  0  0
  189.1850  177.7920  141.8180 C   0  0  2  0  0  3  0  0  0  0  0  0
  188.8590  177.2610  144.5650 N   0  0  0  0  0  0  0  0  0  0  0  0
  184.8440  176.2850  136.5060 C   0  0  1  0  0  3  0  0  0  0  0  0
  188.5550  177.3080  139.4370 C   0  0  1  0  0  3  0  0  0  0  0  0
  187.3190  178.6960  143.3530 C   0  0  1  0  0  3  0  0  0  0  0  0
  187.3840  178.1940  139.5610 N   0  0  2  0  0  0  0  0  0  0  0  0
  191.3230  176.9630  138.9990 C   0  0  0  0  0  2  0  0  0  0  0  0
  183.9500  178.3400  137.7710 C   0  0  0  0  0  2  0  0  0  0  0  0
  190.7570  176.8210  140.2810 O   0  0  0  0  0  0  0  0  0  0  0  0
  185.1150  178.6970  138.7060 C   0  0  0  0  0  2  0  0  0  0  0  0
  185.9300  177.3000  136.0860 C   0  0  1  0  0  3  0  0  0  0  0  0
  190.3510  176.4490  137.9360 C   0  0  0  0  0  2  0  0  0  0  0  0
  188.0280  176.7630  137.1310 N   0  0  2  0  0  0  0  0  0  0  0  0
  185.4330  175.0630  137.0380 N   0  0  0  0  0  2  0  0  0  0  0  0
  184.4360  174.3630  137.6300 O   0  0  0  0  0  0  0  0  0  0  0  0
  184.4760  171.8210  135.8250 O   0  0  0  0  0  0  0  0  0  0  0  0
  186.2100  172.9470  136.9700 C   0  0  0  0  0  2  0  0  0  0  0  0
  184.9490  173.0730  137.7740 C   0  0  2  0  0  3  0  0  0  0  0  0
  185.8710  171.9270  135.9090 C   0  0  0  0  0  2  0  0  0  0  0  0
  184.0110  172.0850  137.1220 C   0  0  0  0  0  2  0  0  0  0  0  0
  1 26  1  1  0  0  0
  1 18  1  0  0  0  0
  2 27  1  0  0  0  0
  3  7  1  0  0  0  0
  3 16  2  0  0  0  0
  4 23  1  1  0  0  0
  4 15  1  0  0  0  0
  5 11  1  6  0  0  0
  5 19  1  0  0  0  0
  8 16  1  0  0  0  0
  9 13  1  0  0  0  0
 10 22  1  0  0  0  0
 12  8  1  0  0  0  0
 13 24  1  0  0  0  0
 13 20  1  0  0  0  0
 14  2  1  0  0  0  0
 14 25  1  0  0  0  0
 15  5  1  0  0  0  0
 15 12  1  0  0  0  0
 17 28  1  0  0  0  0
 17 10  1  0  0  0  0
 18 20  1  0  0  0  0
 18  4  1  0  0  0  0
 19  6  1  0  0  0  0
 19  3  1  0  0  0  0
 20 11  1  0  0  0  0
 21 23  1  0  0  0  0
 22 24  1  0  0  0  0
 25 17  1  0  0  0  0
 25  9  1  0  0  0  0
 26 21  1  0  0  0  0
 27  9  1  0  0  0  0
 27  1  1  0  0  0  0
 28 29  1  0  0  0  0
 29 32  1  0  0  0  0
 30 33  1  0  0  0  0
 30 34  1  0  0  0  0
 31 32  1  0  0  0  0
 33 31  1  0  0  0  0
 34 32  1  0  0  0  0
M  END
>  <MODEL>
8

>  <REMARK>
 VINA RESULT:      -5.6      2.346      4.036
  Name = 
  3 active torsions:
  status: ('A' for Active; 'I' for Inactive)
    1  A    between atoms: C_17  and  N_28
    2  A    between atoms: N_28  and  O_29
    3  A    between atoms: O_29  and  C_32
                            x       y       z     vdW  Elec       q    Type
                         _______ _______ _______ _____ _____    ______ ____

>  <TORSDO>
F 3

$$$$
=
 OpenBabel11122412273D

 34 40  0  0  1  0  0  0  0  0999 V2000
  184.2430  178.2460  138.0260 C   0  0  1  0  0  3  0  0  0  0  0  0
  182.2960  177.8810  136.6690 C   0  0  0  0  0  2  0  0  0  0  0  0
  187.2620  177.5720  143.5940 C   0  0  0  0  0  0  0  0  0  0  0  0
  186.2560  178.5460  139.4810 C   0  0  2  0  0  3  0  0  0  0  0  0
  185.8740  178.9600  141.9520 C   0  0  2  0  0  3  0  0  0  0  0  0
  185.3410  179.0070  144.4800 C   0  0  0  0  0  1  0  0  0  0  0  0
  186.7530  176.3780  144.3330 C   0  0  0  0  0  1  0  0  0  0  0  0
  188.9910  178.6270  142.3000 C   0  0  0  0  0  2  0  0  0  0  0  0
  182.0670  178.3550  138.9020 C   0  0  2  0  0  3  0  0  0  0  0  0
  180.0230  176.9880  140.9720 C   0  0  0  0  0  2  0  0  0  0  0  0
  184.4930  178.3310  141.7610 C   0  0  0  0  0  2  0  0  0  0  0  0
  188.2620  178.9010  140.9710 C   0  0  0  0  0  2  0  0  0  0  0  0
  182.5810  178.1860  140.3480 C   0  0  1  0  0  3  0  0  0  0  0  0
  180.5000  177.6250  136.8480 S   0  0  0  0  0  0  0  0  0  0  0  0
  186.8250  178.3650  140.8900 C   0  0  2  0  0  3  0  0  0  0  0  0
  188.4280  177.5150  143.0450 N   0  0  0  0  0  0  0  0  0  0  0  0
  180.1490  176.7150  139.4630 C   0  0  1  0  0  3  0  0  0  0  0  0
  184.8060  178.0260  139.4380 C   0  0  1  0  0  3  0  0  0  0  0  0
  186.3950  178.7970  143.3960 C   0  0  1  0  0  3  0  0  0  0  0  0
  183.9620  178.6940  140.4450 N   0  0  2  0  0  0  0  0  0  0  0  0
  186.6050  178.1810  137.2670 C   0  0  0  0  0  2  0  0  0  0  0  0
  180.2020  178.4610  141.3530 C   0  0  0  0  0  2  0  0  0  0  0  0
  187.0380  177.8200  138.5580 O   0  0  0  0  0  0  0  0  0  0  0  0
  181.6720  178.9070  141.3630 C   0  0  0  0  0  2  0  0  0  0  0  0
  180.6260  177.9300  138.6360 C   0  0  1  0  0  3  0  0  0  0  0  0
  185.2030  177.6250  137.0090 C   0  0  0  0  0  2  0  0  0  0  0  0
  182.9160  177.6370  137.9640 N   0  0  2  0  0  0  0  0  0  0  0  0
  181.0090  175.5570  139.2570 N   0  0  0  0  0  2  0  0  0  0  0  0
  180.2210  174.4570  139.3110 O   0  0  0  0  0  0  0  0  0  0  0  0
  181.6660  172.5840  137.2800 O   0  0  0  0  0  0  0  0  0  0  0  0
  179.3920  172.7470  137.9060 C   0  0  0  0  0  2  0  0  0  0  0  0
  180.0030  174.1150  137.9760 C   0  0  2  0  0  3  0  0  0  0  0  0
  180.4390  171.9100  137.2090 C   0  0  0  0  0  2  0  0  0  0  0  0
  181.3330  173.9470  137.2790 C   0  0  0  0  0  2  0  0  0  0  0  0
  1 26  1  6  0  0  0
  1 18  1  0  0  0  0
  2 14  1  0  0  0  0
  2 27  1  0  0  0  0
  3  7  1  0  0  0  0
  4 23  1  6  0  0  0
  4 15  1  0  0  0  0
  5 11  1  1  0  0  0
  5 19  1  0  0  0  0
  8 16  1  0  0  0  0
  9 13  1  0  0  0  0
 10 22  1  0  0  0  0
 12  8  1  0  0  0  0
 13 20  1  0  0  0  0
 13 24  1  0  0  0  0
 14 25  1  0  0  0  0
 15 12  1  0  0  0  0
 15  5  1  0  0  0  0
 16  3  2  0  0  0  0
 17 10  1  0  0  0  0
 18  4  1  0  0  0  0
 18 20  1  0  0  0  0
 19  3  1  0  0  0  0
 19  6  1  0  0  0  0
 20 11  1  0  0  0  0
 21 23  1  0  0  0  0
 22 24  1  0  0  0  0
 25  9  1  0  0  0  0
 25 17  1  0  0  0  0
 26 21  1  0  0  0  0
 27  1  1  0  0  0  0
 27  9  1  0  0  0  0
 28 29  1  0  0  0  0
 28 17  1  0  0  0  0
 31 32  1  0  0  0  0
 32 29  1  0  0  0  0
 33 30  1  0  0  0  0
 33 31  1  0  0  0  0
 34 30  1  0  0  0  0
 34 32  1  0  0  0  0
M  END
>  <MODEL>
9

>  <REMARK>
 VINA RESULT:      -5.3      3.893      6.872
  Name = 
  3 active torsions:
  status: ('A' for Active; 'I' for Inactive)
    1  A    between atoms: C_17  and  N_28
    2  A    between atoms: N_28  and  O_29
    3  A    between atoms: O_29  and  C_32
                            x       y       z     vdW  Elec       q    Type
                         _______ _______ _______ _____ _____    ______ ____

>  <TORSDO>
F 3

$$$$
