=
 OpenBabel11122410533D

 31 35  0  0  1  0  0  0  0  0999 V2000
  183.7530  178.9990  144.8670 C   0  0  0  0  0  0  0  0  0  0  0  0
  186.7690  178.6160  142.6450 N   0  0  0  0  0  0  0  0  0  0  0  0
  187.7910  177.8900  143.3730 C   0  0  0  0  0  0  0  0  0  0  0  0
  184.1100  177.3350  138.2750 N   0  0  0  0  0  2  0  0  0  0  0  0
  185.2960  177.7360  137.9550 C   0  0  0  0  0  0  0  0  0  0  0  0
  188.7460  177.0580  145.4520 C   0  0  0  0  0  0  0  0  0  0  0  0
  185.4090  178.7080  143.1150 C   0  0  0  0  0  0  0  0  0  0  0  0
  182.7290  178.8330  143.9290 C   0  0  0  0  0  3  0  0  0  0  0  0
  187.7510  177.7630  144.7710 C   0  0  0  0  0  3  0  0  0  0  0  0
  185.9090  178.4710  140.3370 C   0  0  0  0  0  0  0  0  0  0  0  0
  183.4510  179.2160  146.1690 F   0  0  0  0  0  0  0  0  0  0  0  0
  188.8990  177.3750  141.1800 C   0  0  0  0  0  2  0  0  0  0  0  0
  188.6880  176.9360  146.9310 C   0  0  0  0  0  1  0  0  0  0  0  0
  184.6970  178.3340  140.7970 N   0  0  0  0  0  0  0  0  0  0  0  0
  186.9910  179.0230  141.2400 C   0  0  2  0  0  3  0  0  0  0  0  0
  186.1930  178.2530  138.9480 N   0  0  0  0  0  2  0  0  0  0  0  0
  185.0900  178.9350  144.4610 C   0  0  0  0  0  3  0  0  0  0  0  0
  189.7930  176.4670  144.7420 C   0  0  0  0  0  3  0  0  0  0  0  0
  184.3730  178.5610  142.1750 C   0  0  0  0  0  0  0  0  0  0  0  0
  183.0380  178.6140  142.5840 C   0  0  0  0  0  3  0  0  0  0  0  0
  188.4140  178.7450  140.7340 C   0  0  0  0  0  2  0  0  0  0  0  0
  188.8580  177.2990  142.6700 C   0  0  0  0  0  0  0  0  0  0  0  0
  189.8460  176.5830  143.3520 C   0  0  0  0  0  3  0  0  0  0  0  0
  188.0470  175.6470  136.4090 C   0  0  1  0  0  3  0  0  0  0  0  0
  185.5930  176.0750  136.0970 C   0  0  0  0  0  2  0  0  0  0  0  0
  187.4110  179.3640  136.7710 N   0  0  0  0  0  1  0  0  0  0  0  0
  188.9800  174.8030  137.0070 O   0  0  0  0  0  1  0  0  0  0  0  0
  186.6380  175.1580  136.7330 C   0  0  0  0  0  2  0  0  0  0  0  0
  187.2150  178.0050  136.2920 C   0  0  2  0  0  3  0  0  0  0  0  0
  185.7740  177.5300  136.5460 C   0  0  2  0  0  3  0  0  0  0  0  0
  188.2460  177.0690  136.9230 C   0  0  0  0  0  2  0  0  0  0  0  0
  1 11  1  0  0  0  0
  2  7  1  0  0  0  0
  2  3  1  0  0  0  0
  3  9  1  0  0  0  0
  5  4  2  0  0  0  0
  5 16  1  0  0  0  0
  6 13  1  0  0  0  0
  7 17  2  0  0  0  0
  8  1  2  0  0  0  0
  9  6  2  0  0  0  0
 10 14  2  0  0  0  0
 10 15  1  0  0  0  0
 12 22  1  0  0  0  0
 14 19  1  0  0  0  0
 15 21  1  6  0  0  0
 15  2  1  0  0  0  0
 16 10  1  0  0  0  0
 17  1  1  0  0  0  0
 18  6  1  0  0  0  0
 19 20  2  0  0  0  0
 19  7  1  0  0  0  0
 20  8  1  0  0  0  0
 21 12  1  0  0  0  0
 22 23  1  0  0  0  0
 22  3  2  0  0  0  0
 23 18  2  0  0  0  0
 24 28  1  0  0  0  0
 24 31  1  0  0  0  0
 24 27  1  1  0  0  0
 25 30  1  0  0  0  0
 25 28  1  0  0  0  0
 29 30  1  0  0  0  0
 29 26  1  1  0  0  0
 29 31  1  0  0  0  0
 30  5  1  1  0  0  0
M  END
>  <MODEL>
1

>  <REMARK>
 VINA RESULT:      -9.7      0.000      0.000
  Name = 
  1 active torsions:
  status: ('A' for Active; 'I' for Inactive)
    1  A    between atoms: C_5  and  C_30
                            x       y       z     vdW  Elec       q    Type
                         _______ _______ _______ _____ _____    ______ ____

>  <TORSDO>
F 1

$$$$
=
 OpenBabel11122410533D

 31 35  0  0  1  0  0  0  0  0999 V2000
  182.2380  178.9340  143.2670 C   0  0  0  0  0  0  0  0  0  0  0  0
  185.8830  178.7760  142.3330 N   0  0  0  0  0  0  0  0  0  0  0  0
  186.6160  178.1780  143.4310 C   0  0  0  0  0  0  0  0  0  0  0  0
  185.1410  177.1010  137.3890 N   0  0  0  0  0  2  0  0  0  0  0  0
  186.3260  177.6050  137.4990 C   0  0  0  0  0  0  0  0  0  0  0  0
  186.7960  177.5110  145.7660 C   0  0  0  0  0  0  0  0  0  0  0  0
  184.4420  178.7500  142.2660 C   0  0  0  0  0  0  0  0  0  0  0  0
  181.6500  178.6380  142.0330 C   0  0  0  0  0  3  0  0  0  0  0  0
  186.0710  178.0930  144.7230 C   0  0  0  0  0  3  0  0  0  0  0  0
  185.9520  178.4740  139.8850 C   0  0  0  0  0  0  0  0  0  0  0  0
  181.4590  179.1610  144.3510 F   0  0  0  0  0  0  0  0  0  0  0  0
  188.4940  177.7040  141.8350 C   0  0  0  0  0  2  0  0  0  0  0  0
  186.2040  177.4310  147.1250 C   0  0  0  0  0  1  0  0  0  0  0  0
  184.6720  178.2330  139.8780 N   0  0  0  0  0  0  0  0  0  0  0  0
  186.5760  179.1580  141.0830 C   0  0  2  0  0  3  0  0  0  0  0  0
  186.7470  178.2400  138.7150 N   0  0  0  0  0  2  0  0  0  0  0  0
  183.6300  178.9880  143.3840 C   0  0  0  0  0  3  0  0  0  0  0  0
  188.0740  177.0020  145.5290 C   0  0  0  0  0  3  0  0  0  0  0  0
  183.8430  178.4720  141.0240 C   0  0  0  0  0  0  0  0  0  0  0  0
  182.4520  178.4060  140.9120 C   0  0  0  0  0  3  0  0  0  0  0  0
  188.1020  179.0040  141.1530 C   0  0  0  0  0  2  0  0  0  0  0  0
  187.9110  177.6710  143.2080 C   0  0  0  0  0  0  0  0  0  0  0  0
  188.6290  177.0780  144.2500 C   0  0  0  0  0  3  0  0  0  0  0  0
  189.6210  175.7670  137.2140 C   0  0  1  0  0  3  0  0  0  0  0  0
  187.4290  175.9220  136.0000 C   0  0  0  0  0  2  0  0  0  0  0  0
  188.5810  179.4060  137.0530 N   0  0  0  0  0  1  0  0  0  0  0  0
  190.3350  175.0480  138.1700 O   0  0  0  0  0  1  0  0  0  0  0  0
  188.2390  175.1430  137.0370 C   0  0  0  0  0  2  0  0  0  0  0  0
  188.6930  178.0180  136.6350 C   0  0  2  0  0  3  0  0  0  0  0  0
  187.3060  177.4020  136.3790 C   0  0  2  0  0  3  0  0  0  0  0  0
  189.4930  177.2190  137.6620 C   0  0  0  0  0  2  0  0  0  0  0  0
  1 17  1  0  0  0  0
  1 11  1  0  0  0  0
  2  3  1  0  0  0  0
  3  9  1  0  0  0  0
  4  5  2  0  0  0  0
  5 16  1  0  0  0  0
  6 13  1  0  0  0  0
  7  2  1  0  0  0  0
  7 17  2  0  0  0  0
  8  1  2  0  0  0  0
  9  6  2  0  0  0  0
 10 15  1  0  0  0  0
 12 22  1  0  0  0  0
 14 10  2  0  0  0  0
 14 19  1  0  0  0  0
 15 21  1  1  0  0  0
 15  2  1  0  0  0  0
 16 10  1  0  0  0  0
 18  6  1  0  0  0  0
 19  7  1  0  0  0  0
 20 19  2  0  0  0  0
 20  8  1  0  0  0  0
 21 12  1  0  0  0  0
 22  3  2  0  0  0  0
 22 23  1  0  0  0  0
 23 18  2  0  0  0  0
 24 31  1  0  0  0  0
 24 27  1  1  0  0  0
 25 30  1  0  0  0  0
 25 28  1  0  0  0  0
 28 24  1  0  0  0  0
 29 26  1  1  0  0  0
 29 31  1  0  0  0  0
 30 29  1  0  0  0  0
 30  5  1  1  0  0  0
M  END
>  <MODEL>
2

>  <REMARK>
 VINA RESULT:      -9.5      1.262      1.575
  Name = 
  1 active torsions:
  status: ('A' for Active; 'I' for Inactive)
    1  A    between atoms: C_5  and  C_30
                            x       y       z     vdW  Elec       q    Type
                         _______ _______ _______ _____ _____    ______ ____

>  <TORSDO>
F 1

$$$$
=
 OpenBabel11122410533D

 31 35  0  0  1  0  0  0  0  0999 V2000
  185.1310  178.7310  146.0570 C   0  0  0  0  0  0  0  0  0  0  0  0
  187.3190  178.4910  143.0010 N   0  0  0  0  0  0  0  0  0  0  0  0
  188.4980  177.7190  143.3360 C   0  0  0  0  0  0  0  0  0  0  0  0
  183.4290  177.5000  139.5820 N   0  0  0  0  0  2  0  0  0  0  0  0
  184.4690  177.9200  138.9400 C   0  0  0  0  0  0  0  0  0  0  0  0
  190.0240  176.7530  144.9700 C   0  0  0  0  0  0  0  0  0  0  0  0
  186.1680  178.5540  143.8690 C   0  0  0  0  0  0  0  0  0  0  0  0
  183.8670  178.6280  145.4690 C   0  0  0  0  0  3  0  0  0  0  0  0
  188.8840  177.5020  144.6700 C   0  0  0  0  0  3  0  0  0  0  0  0
  185.7930  178.4980  141.0620 C   0  0  0  0  0  0  0  0  0  0  0  0
  185.2440  178.8630  147.4000 F   0  0  0  0  0  0  0  0  0  0  0  0
  188.8750  177.3470  140.8830 C   0  0  0  0  0  2  0  0  0  0  0  0
  190.4160  176.5340  146.3850 C   0  0  0  0  0  1  0  0  0  0  0  0
  184.7770  178.3320  141.8600 N   0  0  0  0  0  0  0  0  0  0  0  0
  187.1100  178.9890  141.6240 C   0  0  2  0  0  3  0  0  0  0  0  0
  185.6370  178.3710  139.6420 N   0  0  0  0  0  2  0  0  0  0  0  0
  186.2790  178.6930  145.2600 C   0  0  0  0  0  3  0  0  0  0  0  0
  190.7920  176.2080  143.9390 C   0  0  0  0  0  3  0  0  0  0  0  0
  184.8920  178.4700  143.2830 C   0  0  0  0  0  0  0  0  0  0  0  0
  183.7470  178.4960  144.0820 C   0  0  0  0  0  3  0  0  0  0  0  0
  188.3060  178.7440  140.6920 C   0  0  0  0  0  2  0  0  0  0  0  0
  189.2880  177.1740  142.3070 C   0  0  0  0  0  0  0  0  0  0  0  0
  190.4220  176.4150  142.6080 C   0  0  0  0  0  3  0  0  0  0  0  0
  185.5180  175.1850  136.5440 C   0  0  1  0  0  3  0  0  0  0  0  0
  183.5550  176.6970  136.9490 C   0  0  0  0  0  2  0  0  0  0  0  0
  186.8080  178.6530  137.3530 N   0  0  0  0  0  1  0  0  0  0  0  0
  186.0400  173.9180  136.7980 O   0  0  0  0  0  1  0  0  0  0  0  0
  184.1460  175.3090  137.2020 C   0  0  0  0  0  2  0  0  0  0  0  0
  185.8990  177.6410  136.8420 C   0  0  2  0  0  3  0  0  0  0  0  0
  184.4910  177.8050  137.4420 C   0  0  2  0  0  3  0  0  0  0  0  0
  186.4670  176.2440  137.0930 C   0  0  0  0  0  2  0  0  0  0  0  0
  1 11  1  0  0  0  0
  2  3  1  0  0  0  0
  2  7  1  0  0  0  0
  3  9  1  0  0  0  0
  5  4  2  0  0  0  0
  5 16  1  0  0  0  0
  6 13  1  0  0  0  0
  7 17  1  0  0  0  0
  8  1  1  0  0  0  0
  9  6  2  0  0  0  0
 10 15  1  0  0  0  0
 10 14  2  0  0  0  0
 12 22  1  0  0  0  0
 14 19  1  0  0  0  0
 15 21  1  6  0  0  0
 15  2  1  0  0  0  0
 16 10  1  0  0  0  0
 17  1  2  0  0  0  0
 18  6  1  0  0  0  0
 19  7  2  0  0  0  0
 19 20  1  0  0  0  0
 20  8  2  0  0  0  0
 21 12  1  0  0  0  0
 22 23  1  0  0  0  0
 22  3  2  0  0  0  0
 23 18  2  0  0  0  0
 24 27  1  1  0  0  0
 24 31  1  0  0  0  0
 24 28  1  0  0  0  0
 25 28  1  0  0  0  0
 25 30  1  0  0  0  0
 29 31  1  0  0  0  0
 29 26  1  1  0  0  0
 29 30  1  0  0  0  0
 30  5  1  1  0  0  0
M  END
>  <MODEL>
3

>  <REMARK>
 VINA RESULT:      -8.9      1.268      1.549
  Name = 
  1 active torsions:
  status: ('A' for Active; 'I' for Inactive)
    1  A    between atoms: C_5  and  C_30
                            x       y       z     vdW  Elec       q    Type
                         _______ _______ _______ _____ _____    ______ ____

>  <TORSDO>
F 1

$$$$
=
 OpenBabel11122410533D

 31 35  0  0  1  0  0  0  0  0999 V2000
  184.4150  178.6450  144.5390 C   0  0  0  0  0  0  0  0  0  0  0  0
  188.1040  178.5350  143.7900 N   0  0  0  0  0  0  0  0  0  0  0  0
  188.7800  177.8770  144.8900 C   0  0  0  0  0  0  0  0  0  0  0  0
  187.6260  177.1350  138.7290 N   0  0  0  0  0  2  0  0  0  0  0  0
  188.8020  177.6310  138.9280 C   0  0  0  0  0  0  0  0  0  0  0  0
  188.8380  177.0820  147.1910 C   0  0  0  0  0  0  0  0  0  0  0  0
  186.6690  178.5150  143.6460 C   0  0  0  0  0  0  0  0  0  0  0  0
  183.8940  178.4190  143.2610 C   0  0  0  0  0  3  0  0  0  0  0  0
  188.1680  177.7220  146.1450 C   0  0  0  0  0  3  0  0  0  0  0  0
  188.3030  178.3680  141.3360 C   0  0  0  0  0  0  0  0  0  0  0  0
  183.5800  178.8140  145.5910 F   0  0  0  0  0  0  0  0  0  0  0  0
  190.7400  177.4890  143.3720 C   0  0  0  0  0  2  0  0  0  0  0  0
  188.1750  176.9280  148.5110 C   0  0  0  0  0  1  0  0  0  0  0  0
  187.0250  178.1290  141.2490 N   0  0  0  0  0  0  0  0  0  0  0  0
  188.8610  178.9840  142.6010 C   0  0  2  0  0  3  0  0  0  0  0  0
  189.1580  178.1980  140.1980 N   0  0  0  0  0  2  0  0  0  0  0  0
  185.7990  178.6920  144.7310 C   0  0  0  0  0  3  0  0  0  0  0  0
  190.1280  176.5860  146.9940 C   0  0  0  0  0  3  0  0  0  0  0  0
  186.1370  178.3060  142.3610 C   0  0  0  0  0  0  0  0  0  0  0  0
  184.7540  178.2480  142.1730 C   0  0  0  0  0  3  0  0  0  0  0  0
  190.3820  178.8260  142.7420 C   0  0  0  0  0  2  0  0  0  0  0  0
  190.0850  177.3820  144.7080 C   0  0  0  0  0  0  0  0  0  0  0  0
  190.7490  176.7320  145.7520 C   0  0  0  0  0  3  0  0  0  0  0  0
  189.0320  175.5430  135.7810 C   0  0  1  0  0  3  0  0  0  0  0  0
  189.3030  177.9360  136.4890 C   0  0  0  0  0  2  0  0  0  0  0  0
  190.9230  175.6280  139.0620 N   0  0  0  0  0  1  0  0  0  0  0  0
  188.1380  174.6150  135.2500 O   0  0  0  0  0  1  0  0  0  0  0  0
  188.3460  176.9010  135.8950 C   0  0  0  0  0  2  0  0  0  0  0  0
  190.4650  176.0850  137.7610 C   0  0  2  0  0  3  0  0  0  0  0  0
  189.8410  177.4880  137.8520 C   0  0  2  0  0  3  0  0  0  0  0  0
  189.5000  175.0680  137.1530 C   0  0  0  0  0  2  0  0  0  0  0  0
  1 17  1  0  0  0  0
  1 11  1  0  0  0  0
  2  3  1  0  0  0  0
  3  9  1  0  0  0  0
  4  5  2  0  0  0  0
  5 16  1  0  0  0  0
  6 13  1  0  0  0  0
  7  2  1  0  0  0  0
  7 17  2  0  0  0  0
  8  1  2  0  0  0  0
  9  6  2  0  0  0  0
 10 15  1  0  0  0  0
 12 22  1  0  0  0  0
 14 10  2  0  0  0  0
 14 19  1  0  0  0  0
 15 21  1  1  0  0  0
 15  2  1  0  0  0  0
 16 10  1  0  0  0  0
 18  6  1  0  0  0  0
 19  7  1  0  0  0  0
 20 19  2  0  0  0  0
 20  8  1  0  0  0  0
 21 12  1  0  0  0  0
 22  3  2  0  0  0  0
 22 23  1  0  0  0  0
 23 18  2  0  0  0  0
 24 27  1  1  0  0  0
 24 28  1  0  0  0  0
 24 31  1  0  0  0  0
 25 30  1  0  0  0  0
 28 25  1  0  0  0  0
 29 30  1  0  0  0  0
 29 26  1  1  0  0  0
 30  5  1  1  0  0  0
 31 29  1  0  0  0  0
M  END
>  <MODEL>
4

>  <REMARK>
 VINA RESULT:      -8.8      1.808      2.634
  Name = 
  1 active torsions:
  status: ('A' for Active; 'I' for Inactive)
    1  A    between atoms: C_5  and  C_30
                            x       y       z     vdW  Elec       q    Type
                         _______ _______ _______ _____ _____    ______ ____

>  <TORSDO>
F 1

$$$$
=
 OpenBabel11122410533D

 31 35  0  0  1  0  0  0  0  0999 V2000
  189.2620  177.5610  141.8820 C   0  0  0  0  0  0  0  0  0  0  0  0
  185.6260  177.8630  142.8130 N   0  0  0  0  0  0  0  0  0  0  0  0
  185.5340  178.1690  144.2270 C   0  0  0  0  0  0  0  0  0  0  0  0
  184.1810  180.6790  138.5950 N   0  0  0  0  0  2  0  0  0  0  0  0
  183.1350  180.1390  139.1310 C   0  0  0  0  0  0  0  0  0  0  0  0
  186.5040  178.2590  146.4590 C   0  0  0  0  0  0  0  0  0  0  0  0
  186.8720  177.9330  142.0900 C   0  0  0  0  0  0  0  0  0  0  0  0
  189.2460  178.1530  140.6150 C   0  0  0  0  0  3  0  0  0  0  0  0
  186.6140  177.9560  145.0990 C   0  0  0  0  0  3  0  0  0  0  0  0
  184.4750  178.7370  140.8130 C   0  0  0  0  0  0  0  0  0  0  0  0
  190.4250  177.0980  142.3980 F   0  0  0  0  0  0  0  0  0  0  0  0
  183.1880  178.9710  143.8380 C   0  0  0  0  0  2  0  0  0  0  0  0
  187.6560  178.0260  147.3660 C   0  0  0  0  0  1  0  0  0  0  0  0
  185.6260  178.9980  140.2640 N   0  0  0  0  0  0  0  0  0  0  0  0
  184.4060  177.7760  141.9810 C   0  0  2  0  0  3  0  0  0  0  0  0
  183.2590  179.2260  140.2310 N   0  0  0  0  0  2  0  0  0  0  0  0
  188.0790  177.4530  142.6190 C   0  0  0  0  0  3  0  0  0  0  0  0
  185.3120  178.7840  146.9620 C   0  0  0  0  0  3  0  0  0  0  0  0
  186.8610  178.5100  140.8070 C   0  0  0  0  0  0  0  0  0  0  0  0
  188.0460  178.6280  140.0780 C   0  0  0  0  0  3  0  0  0  0  0  0
  183.1020  177.8780  142.7850 C   0  0  0  0  0  2  0  0  0  0  0  0
  184.3350  178.6880  144.7500 C   0  0  0  0  0  0  0  0  0  0  0  0
  184.2300  179.0030  146.1080 C   0  0  0  0  0  3  0  0  0  0  0  0
  179.6170  178.9400  139.8440 C   0  0  1  0  0  3  0  0  0  0  0  0
  180.9230  181.0850  139.8430 C   0  0  0  0  0  2  0  0  0  0  0  0
  181.8360  179.0050  136.7740 N   0  0  0  0  0  1  0  0  0  0  0  0
  179.1700  177.8900  140.6430 O   0  0  0  0  0  1  0  0  0  0  0  0
  180.4080  179.9270  140.6990 C   0  0  0  0  0  2  0  0  0  0  0  0
  181.0120  179.5300  137.8500 C   0  0  2  0  0  3  0  0  0  0  0  0
  181.7750  180.5830  138.6730 C   0  0  2  0  0  3  0  0  0  0  0  0
  180.4940  178.3880  138.7240 C   0  0  0  0  0  2  0  0  0  0  0  0
  1 11  1  0  0  0  0
  1 17  1  0  0  0  0
  2  3  1  0  0  0  0
  3 22  2  0  0  0  0
  3  9  1  0  0  0  0
  4  5  2  0  0  0  0
  5 16  1  0  0  0  0
  6 18  1  0  0  0  0
  6 13  1  0  0  0  0
  7 17  2  0  0  0  0
  7  2  1  0  0  0  0
  8  1  2  0  0  0  0
  9  6  2  0  0  0  0
 10 15  1  0  0  0  0
 12 22  1  0  0  0  0
 14 19  1  0  0  0  0
 14 10  2  0  0  0  0
 15 21  1  1  0  0  0
 15  2  1  0  0  0  0
 16 10  1  0  0  0  0
 19  7  1  0  0  0  0
 20  8  1  0  0  0  0
 20 19  2  0  0  0  0
 21 12  1  0  0  0  0
 22 23  1  0  0  0  0
 23 18  2  0  0  0  0
 24 27  1  1  0  0  0
 24 28  1  0  0  0  0
 25 28  1  0  0  0  0
 29 26  1  6  0  0  0
 29 30  1  0  0  0  0
 29 31  1  0  0  0  0
 30  5  1  1  0  0  0
 30 25  1  0  0  0  0
 31 24  1  0  0  0  0
M  END
>  <MODEL>
5

>  <REMARK>
 VINA RESULT:      -8.6      3.493      5.635
  Name = 
  1 active torsions:
  status: ('A' for Active; 'I' for Inactive)
    1  A    between atoms: C_5  and  C_30
                            x       y       z     vdW  Elec       q    Type
                         _______ _______ _______ _____ _____    ______ ____

>  <TORSDO>
F 1

$$$$
=
 OpenBabel11122410533D

 31 35  0  0  1  0  0  0  0  0999 V2000
  183.5170  179.0680  143.2920 C   0  0  0  0  0  0  0  0  0  0  0  0
  187.0050  178.5540  141.9700 N   0  0  0  0  0  0  0  0  0  0  0  0
  187.8150  177.9670  143.0180 C   0  0  0  0  0  0  0  0  0  0  0  0
  185.5660  176.6430  137.2700 N   0  0  0  0  0  2  0  0  0  0  0  0
  186.7900  177.0540  137.2110 C   0  0  0  0  0  0  0  0  0  0  0  0
  188.2170  177.4330  145.3590 C   0  0  0  0  0  0  0  0  0  0  0  0
  185.5680  178.6420  142.0660 C   0  0  0  0  0  0  0  0  0  0  0  0
  182.7680  178.7460  142.1560 C   0  0  0  0  0  3  0  0  0  0  0  0
  187.4210  178.0070  144.3650 C   0  0  0  0  0  3  0  0  0  0  0  0
  186.7640  178.0960  139.5570 C   0  0  0  0  0  0  0  0  0  0  0  0
  182.8890  179.4250  144.4370 F   0  0  0  0  0  0  0  0  0  0  0  0
  189.4530  177.2420  141.2590 C   0  0  0  0  0  2  0  0  0  0  0  0
  187.7840  177.4860  146.7790 C   0  0  0  0  0  1  0  0  0  0  0  0
  185.4780  177.9610  139.7100 N   0  0  0  0  0  0  0  0  0  0  0  0
  187.5730  178.7990  140.6260 C   0  0  2  0  0  3  0  0  0  0  0  0
  187.3970  177.7260  138.3240 N   0  0  0  0  0  2  0  0  0  0  0  0
  184.9130  179.0150  143.2480 C   0  0  0  0  0  3  0  0  0  0  0  0
  189.4180  176.8070  145.0170 C   0  0  0  0  0  3  0  0  0  0  0  0
  184.8090  178.3380  140.9220 C   0  0  0  0  0  0  0  0  0  0  0  0
  183.4130  178.3800  140.9710 C   0  0  0  0  0  3  0  0  0  0  0  0
  189.0820  178.5260  140.5350 C   0  0  0  0  0  2  0  0  0  0  0  0
  189.0330  177.3430  142.6880 C   0  0  0  0  0  0  0  0  0  0  0  0
  189.8230  176.7580  143.6820 C   0  0  0  0  0  3  0  0  0  0  0  0
  189.8340  174.8710  136.6760 C   0  0  1  0  0  3  0  0  0  0  0  0
  187.5470  175.2020  135.6970 C   0  0  0  0  0  2  0  0  0  0  0  0
  189.1480  178.5890  136.4310 N   0  0  0  0  0  1  0  0  0  0  0  0
  190.5760  174.1230  137.5890 O   0  0  0  0  0  1  0  0  0  0  0  0
  188.3870  174.3880  136.6820 C   0  0  0  0  0  2  0  0  0  0  0  0
  189.0750  177.1800  136.0790 C   0  0  2  0  0  3  0  0  0  0  0  0
  187.6140  176.7010  136.0060 C   0  0  2  0  0  3  0  0  0  0  0  0
  189.9020  176.3460  137.0570 C   0  0  0  0  0  2  0  0  0  0  0  0
  1 11  1  0  0  0  0
  2  7  1  0  0  0  0
  2  3  1  0  0  0  0
  3  9  1  0  0  0  0
  5  4  2  0  0  0  0
  5 16  1  0  0  0  0
  6 13  1  0  0  0  0
  7 17  2  0  0  0  0
  8  1  2  0  0  0  0
  9  6  2  0  0  0  0
 10 14  2  0  0  0  0
 10 15  1  0  0  0  0
 12 22  1  0  0  0  0
 14 19  1  0  0  0  0
 15 21  1  1  0  0  0
 15  2  1  0  0  0  0
 16 10  1  0  0  0  0
 17  1  1  0  0  0  0
 18  6  1  0  0  0  0
 19 20  2  0  0  0  0
 19  7  1  0  0  0  0
 20  8  1  0  0  0  0
 21 12  1  0  0  0  0
 22  3  2  0  0  0  0
 22 23  1  0  0  0  0
 23 18  2  0  0  0  0
 24 28  1  0  0  0  0
 24 31  1  0  0  0  0
 24 27  1  1  0  0  0
 25 30  1  0  0  0  0
 25 28  1  0  0  0  0
 29 26  1  1  0  0  0
 29 31  1  0  0  0  0
 30 29  1  0  0  0  0
 30  5  1  1  0  0  0
M  END
>  <MODEL>
6

>  <REMARK>
 VINA RESULT:      -8.5      1.209      1.443
  Name = 
  1 active torsions:
  status: ('A' for Active; 'I' for Inactive)
    1  A    between atoms: C_5  and  C_30
                            x       y       z     vdW  Elec       q    Type
                         _______ _______ _______ _____ _____    ______ ____

>  <TORSDO>
F 1

$$$$
=
 OpenBabel11122410533D

 31 35  0  0  1  0  0  0  0  0999 V2000
  180.7980  178.8590  143.2450 C   0  0  0  0  0  0  0  0  0  0  0  0
  184.4220  178.9010  142.2220 N   0  0  0  0  0  0  0  0  0  0  0  0
  185.2270  178.4840  143.3520 C   0  0  0  0  0  0  0  0  0  0  0  0
  183.7160  176.6580  137.5020 N   0  0  0  0  0  2  0  0  0  0  0  0
  184.8560  177.2650  137.5230 C   0  0  0  0  0  0  0  0  0  0  0  0
  185.5120  178.0840  145.7380 C   0  0  0  0  0  0  0  0  0  0  0  0
  182.9870  178.7510  142.2010 C   0  0  0  0  0  0  0  0  0  0  0  0
  180.2100  178.3880  142.0670 C   0  0  0  0  0  3  0  0  0  0  0  0
  184.7190  178.4920  144.6620 C   0  0  0  0  0  3  0  0  0  0  0  0
  184.4630  178.3480  139.8170 C   0  0  0  0  0  0  0  0  0  0  0  0
  180.0260  179.1360  144.3220 F   0  0  0  0  0  0  0  0  0  0  0  0
  187.1030  177.9980  141.7580 C   0  0  0  0  0  2  0  0  0  0  0  0
  184.9590  178.1000  147.1150 C   0  0  0  0  0  1  0  0  0  0  0  0
  183.2080  178.0050  139.8740 N   0  0  0  0  0  0  0  0  0  0  0  0
  185.0530  179.2030  140.9180 C   0  0  2  0  0  3  0  0  0  0  0  0
  185.2490  178.0570  138.6540 N   0  0  0  0  0  2  0  0  0  0  0  0
  182.1830  179.0390  143.3130 C   0  0  0  0  0  3  0  0  0  0  0  0
  186.8230  177.6590  145.5150 C   0  0  0  0  0  3  0  0  0  0  0  0
  182.3870  178.2950  141.0140 C   0  0  0  0  0  0  0  0  0  0  0  0
  181.0040  178.1050  140.9520 C   0  0  0  0  0  3  0  0  0  0  0  0
  186.5880  179.1830  140.9570 C   0  0  0  0  0  2  0  0  0  0  0  0
  186.5540  178.0630  143.1440 C   0  0  0  0  0  0  0  0  0  0  0  0
  187.3420  177.6440  144.2190 C   0  0  0  0  0  3  0  0  0  0  0  0
  186.2390  174.1440  135.8890 C   0  0  1  0  0  3  0  0  0  0  0  0
  185.1570  176.3090  135.2230 C   0  0  0  0  0  2  0  0  0  0  0  0
  187.7210  176.9330  137.9810 N   0  0  0  0  0  1  0  0  0  0  0  0
  186.0000  172.8010  136.1710 O   0  0  0  0  0  1  0  0  0  0  0  0
  184.9240  174.8280  135.5240 C   0  0  0  0  0  2  0  0  0  0  0  0
  187.1130  176.2950  136.8250 C   0  0  2  0  0  3  0  0  0  0  0  0
  185.8260  177.0250  136.4010 C   0  0  2  0  0  3  0  0  0  0  0  0
  186.8640  174.8140  137.1090 C   0  0  0  0  0  2  0  0  0  0  0  0
  1 17  1  0  0  0  0
  1 11  1  0  0  0  0
  2  3  1  0  0  0  0
  3  9  1  0  0  0  0
  4  5  2  0  0  0  0
  5 16  1  0  0  0  0
  6 13  1  0  0  0  0
  7  2  1  0  0  0  0
  7 17  2  0  0  0  0
  8  1  2  0  0  0  0
  9  6  2  0  0  0  0
 10 14  2  0  0  0  0
 10 15  1  0  0  0  0
 12 22  1  0  0  0  0
 14 19  1  0  0  0  0
 15 21  1  1  0  0  0
 15  2  1  0  0  0  0
 16 10  1  0  0  0  0
 18  6  1  0  0  0  0
 19  7  1  0  0  0  0
 20 19  2  0  0  0  0
 20  8  1  0  0  0  0
 21 12  1  0  0  0  0
 22  3  2  0  0  0  0
 22 23  1  0  0  0  0
 23 18  2  0  0  0  0
 24 27  1  1  0  0  0
 24 31  1  0  0  0  0
 25 28  1  0  0  0  0
 25 30  1  0  0  0  0
 28 24  1  0  0  0  0
 29 31  1  0  0  0  0
 29 26  1  1  0  0  0
 30 29  1  0  0  0  0
 30  5  1  1  0  0  0
M  END
>  <MODEL>
7

>  <REMARK>
 VINA RESULT:      -8.5      1.797      2.556
  Name = 
  1 active torsions:
  status: ('A' for Active; 'I' for Inactive)
    1  A    between atoms: C_5  and  C_30
                            x       y       z     vdW  Elec       q    Type
                         _______ _______ _______ _____ _____    ______ ____

>  <TORSDO>
F 1

$$$$
=
 OpenBabel11122410533D

 31 35  0  0  1  0  0  0  0  0999 V2000
  186.6210  178.2530  147.1680 C   0  0  0  0  0  0  0  0  0  0  0  0
  187.8140  178.3470  143.5980 N   0  0  0  0  0  0  0  0  0  0  0  0
  189.0080  177.5340  143.4870 C   0  0  0  0  0  0  0  0  0  0  0  0
  183.0610  177.7770  141.3850 N   0  0  0  0  0  2  0  0  0  0  0  0
  183.8860  178.2600  140.5150 C   0  0  0  0  0  0  0  0  0  0  0  0
  190.9030  176.3780  144.4880 C   0  0  0  0  0  0  0  0  0  0  0  0
  186.9690  178.3190  144.7670 C   0  0  0  0  0  0  0  0  0  0  0  0
  185.2370  178.2260  146.9690 C   0  0  0  0  0  3  0  0  0  0  0  0
  189.7550  177.1640  144.6170 C   0  0  0  0  0  3  0  0  0  0  0  0
  185.7910  178.5840  142.2040 C   0  0  0  0  0  0  0  0  0  0  0  0
  187.1250  178.2310  148.4250 F   0  0  0  0  0  0  0  0  0  0  0  0
  188.6400  177.4400  141.0070 C   0  0  0  0  0  2  0  0  0  0  0  0
  191.6810  175.9970  145.6940 C   0  0  0  0  0  1  0  0  0  0  0  0
  185.0460  178.3350  143.2420 N   0  0  0  0  0  0  0  0  0  0  0  0
  187.2330  179.0000  142.4030 C   0  0  2  0  0  3  0  0  0  0  0  0
  185.2240  178.6200  140.8870 N   0  0  0  0  0  2  0  0  0  0  0  0
  187.4850  178.2980  146.0700 C   0  0  0  0  0  3  0  0  0  0  0  0
  191.3160  175.9490  143.2250 C   0  0  0  0  0  3  0  0  0  0  0  0
  185.5750  178.3100  144.5750 C   0  0  0  0  0  0  0  0  0  0  0  0
  184.7140  178.2530  145.6740 C   0  0  0  0  0  3  0  0  0  0  0  0
  188.0950  178.8530  141.1410 C   0  0  0  0  0  2  0  0  0  0  0  0
  189.4420  177.1040  142.2190 C   0  0  0  0  0  0  0  0  0  0  0  0
  190.5830  176.3070  142.0920 C   0  0  0  0  0  3  0  0  0  0  0  0
  180.5530  178.7140  138.7800 C   0  0  1  0  0  3  0  0  0  0  0  0
  182.8690  179.6810  138.7140 C   0  0  0  0  0  2  0  0  0  0  0  0
  183.0550  175.8820  139.0370 N   0  0  0  0  0  1  0  0  0  0  0  0
  179.2760  178.8750  139.3140 O   0  0  0  0  0  1  0  0  0  0  0  0
  181.4560  179.8410  139.2760 C   0  0  0  0  0  2  0  0  0  0  0  0
  182.5240  177.1770  138.6460 C   0  0  2  0  0  3  0  0  0  0  0  0
  183.4660  178.3160  139.0730 C   0  0  2  0  0  3  0  0  0  0  0  0
  181.1130  177.3610  139.2040 C   0  0  0  0  0  2  0  0  0  0  0  0
  1 11  1  0  0  0  0
  2  7  1  0  0  0  0
  3  2  1  0  0  0  0
  3  9  1  0  0  0  0
  5 16  1  0  0  0  0
  5  4  2  0  0  0  0
  6  9  2  0  0  0  0
  6 13  1  0  0  0  0
  7 17  1  0  0  0  0
  8  1  1  0  0  0  0
 10 15  1  0  0  0  0
 10 14  2  0  0  0  0
 12 21  1  0  0  0  0
 12 22  1  0  0  0  0
 14 19  1  0  0  0  0
 15 21  1  6  0  0  0
 15  2  1  0  0  0  0
 16 10  1  0  0  0  0
 17  1  2  0  0  0  0
 18  6  1  0  0  0  0
 19  7  2  0  0  0  0
 19 20  1  0  0  0  0
 20  8  2  0  0  0  0
 22  3  2  0  0  0  0
 23 22  1  0  0  0  0
 23 18  2  0  0  0  0
 24 31  1  0  0  0  0
 24 28  1  0  0  0  0
 24 27  1  1  0  0  0
 25 30  1  0  0  0  0
 25 28  1  0  0  0  0
 29 26  1  1  0  0  0
 29 30  1  0  0  0  0
 29 31  1  0  0  0  0
 30  5  1  1  0  0  0
M  END
>  <MODEL>
8

>  <REMARK>
 VINA RESULT:      -8.2      3.243      4.232
  Name = 
  1 active torsions:
  status: ('A' for Active; 'I' for Inactive)
    1  A    between atoms: C_5  and  C_30
                            x       y       z     vdW  Elec       q    Type
                         _______ _______ _______ _____ _____    ______ ____

>  <TORSDO>
F 1

$$$$
=
 OpenBabel11122410533D

 31 35  0  0  1  0  0  0  0  0999 V2000
  191.5050  177.3700  141.9010 C   0  0  0  0  0  0  0  0  0  0  0  0
  188.9960  177.4870  139.0950 N   0  0  0  0  0  0  0  0  0  0  0  0
  189.2790  176.4030  138.1750 C   0  0  0  0  0  0  0  0  0  0  0  0
  184.7790  178.4000  142.1260 N   0  0  0  0  0  2  0  0  0  0  0  0
  184.5110  178.7300  140.9060 C   0  0  0  0  0  0  0  0  0  0  0  0
  190.7700  174.7000  137.2780 C   0  0  0  0  0  0  0  0  0  0  0  0
  189.6080  177.5710  140.3980 C   0  0  0  0  0  0  0  0  0  0  0  0
  190.6900  177.7270  142.9800 C   0  0  0  0  0  3  0  0  0  0  0  0
  190.5190  175.7440  138.1720 C   0  0  0  0  0  3  0  0  0  0  0  0
  186.9130  178.3790  140.0720 C   0  0  0  0  0  0  0  0  0  0  0  0
  192.8150  177.0960  142.1030 F   0  0  0  0  0  0  0  0  0  0  0  0
  186.9510  176.6470  137.2690 C   0  0  0  0  0  2  0  0  0  0  0  0
  192.0880  174.0150  137.2890 C   0  0  0  0  0  1  0  0  0  0  0  0
  187.4120  178.2370  141.2670 N   0  0  0  0  0  0  0  0  0  0  0  0
  187.8370  178.3810  138.8730 C   0  0  2  0  0  3  0  0  0  0  0  0
  185.5250  178.6890  139.8910 N   0  0  0  0  0  2  0  0  0  0  0  0
  190.9650  177.2910  140.6130 C   0  0  0  0  0  3  0  0  0  0  0  0
  189.7810  174.3000  136.3770 C   0  0  0  0  0  3  0  0  0  0  0  0
  188.7990  177.9470  141.4860 C   0  0  0  0  0  0  0  0  0  0  0  0
  189.3380  178.0140  142.7730 C   0  0  0  0  0  3  0  0  0  0  0  0
  187.1150  178.1340  137.5400 C   0  0  0  0  0  2  0  0  0  0  0  0
  188.2950  175.9970  137.2550 C   0  0  0  0  0  0  0  0  0  0  0  0
  188.5420  174.9450  136.3690 C   0  0  0  0  0  3  0  0  0  0  0  0
  182.1360  177.3300  138.3130 C   0  0  1  0  0  3  0  0  0  0  0  0
  182.1740  177.8240  140.7740 C   0  0  0  0  0  2  0  0  0  0  0  0
  183.8160  180.6830  138.8490 N   0  0  0  0  0  1  0  0  0  0  0  0
  182.3330  176.3370  137.3560 O   0  0  0  0  0  1  0  0  0  0  0  0
  182.3720  176.7490  139.7040 C   0  0  0  0  0  2  0  0  0  0  0  0
  182.9100  179.5760  139.1050 C   0  0  2  0  0  3  0  0  0  0  0  0
  183.0870  179.0320  140.5330 C   0  0  2  0  0  3  0  0  0  0  0  0
  183.0980  178.4850  138.0500 C   0  0  0  0  0  2  0  0  0  0  0  0
  1 11  1  0  0  0  0
  1  8  1  0  0  0  0
  2  7  1  0  0  0  0
  3  2  1  0  0  0  0
  5  4  2  0  0  0  0
  6 13  1  0  0  0  0
  6  9  2  0  0  0  0
  7 17  1  0  0  0  0
  7 19  2  0  0  0  0
  9  3  1  0  0  0  0
 10 14  2  0  0  0  0
 12 21  1  0  0  0  0
 14 19  1  0  0  0  0
 15 21  1  6  0  0  0
 15  2  1  0  0  0  0
 15 10  1  0  0  0  0
 16 10  1  0  0  0  0
 16  5  1  0  0  0  0
 17  1  2  0  0  0  0
 18  6  1  0  0  0  0
 19 20  1  0  0  0  0
 20  8  2  0  0  0  0
 22 12  1  0  0  0  0
 22  3  2  0  0  0  0
 23 18  2  0  0  0  0
 23 22  1  0  0  0  0
 24 27  1  6  0  0  0
 24 28  1  0  0  0  0
 28 25  1  0  0  0  0
 29 26  1  6  0  0  0
 29 30  1  0  0  0  0
 30 25  1  0  0  0  0
 30  5  1  6  0  0  0
 31 24  1  0  0  0  0
 31 29  1  0  0  0  0
M  END
>  <MODEL>
9

>  <REMARK>
 VINA RESULT:      -8.2      3.104      6.148
  Name = 
  1 active torsions:
  status: ('A' for Active; 'I' for Inactive)
    1  A    between atoms: C_5  and  C_30
                            x       y       z     vdW  Elec       q    Type
                         _______ _______ _______ _____ _____    ______ ____

>  <TORSDO>
F 1

$$$$
