=
 OpenBabel11122412243D

 34 40  0  0  1  0  0  0  0  0999 V2000
  184.8070  178.5500  139.6460 C   0  0  0  0  0  0  0  0  0  0  0  0
  186.9200  178.7390  140.8190 O   0  0  0  0  0  0  0  0  0  0  0  0
  179.2040  180.2250  138.6570 C   0  0  1  0  0  3  0  0  0  0  0  0
  182.6480  177.9530  138.6870 C   0  0  0  0  0  0  0  0  0  0  0  0
  180.5380  178.5210  139.9250 N   0  0  2  0  0  0  0  0  0  0  0  0
  180.4510  180.8090  140.5900 O   0  0  0  0  0  1  0  0  0  0  0  0
  179.3080  181.4900  138.0780 O   0  0  0  0  0  1  0  0  0  0  0  0
  180.1250  178.7420  137.0050 O   0  0  0  0  0  0  0  0  0  0  0  0
  185.0030  179.3270  142.0570 C   0  0  1  0  0  3  0  0  0  0  0  0
  184.8330  178.7580  145.0340 C   0  0  0  0  0  2  0  0  0  0  0  0
  181.3210  178.3590  141.1650 C   0  0  0  0  0  2  0  0  0  0  0  0
  180.3410  177.5090  137.6210 C   0  0  0  0  0  2  0  0  0  0  0  0
  183.6150  178.6700  142.2540 C   0  0  2  0  0  3  0  0  0  0  0  0
  187.0930  178.1950  142.0990 C   0  0  0  0  0  2  0  0  0  0  0  0
  181.1750  177.6670  138.8990 C   0  0  1  0  0  3  0  0  0  0  0  0
  178.9310  179.1940  137.5670 C   0  0  0  0  0  2  0  0  0  0  0  0
  185.6270  177.9780  144.0950 N   0  0  0  0  0  0  0  0  0  0  0  0
  183.4130  178.4410  139.7640 C   0  0  0  0  0  0  0  0  0  0  0  0
  180.4600  179.9390  139.4920 C   0  0  2  0  0  3  0  0  0  0  0  0
  182.7450  178.9320  141.0210 C   0  0  1  0  0  3  0  0  0  0  0  0
  184.6800  177.6790  137.3850 C   0  0  0  0  0  3  0  0  0  0  0  0
  183.3540  178.5580  144.7530 C   0  0  0  0  0  2  0  0  0  0  0  0
  183.2950  177.5560  137.5080 C   0  0  0  0  0  3  0  0  0  0  0  0
  182.9440  179.2820  143.4820 C   0  0  0  0  0  2  0  0  0  0  0  0
  186.0940  178.8850  143.0340 C   0  0  2  0  0  3  0  0  0  0  0  0
  185.4340  178.1690  138.4530 C   0  0  0  0  0  3  0  0  0  0  0  0
  185.5900  178.9950  140.7660 N   0  0  0  0  0  0  0  0  0  0  0  0
  186.7790  177.5210  144.8620 C   0  0  0  0  0  2  0  0  0  0  0  0
  186.7370  178.1270  146.2540 C   0  0  0  0  0  2  0  0  0  0  0  0
  189.9190  177.2850  147.4490 N   0  0  0  0  0  2  0  0  0  0  0  0
  187.8860  178.1980  148.2920 C   0  0  0  0  0  2  0  0  0  0  0  0
  187.5730  177.3510  147.1550 N   0  0  0  0  0  0  0  0  0  0  0  0
  189.3820  178.1370  148.4920 C   0  0  0  0  0  2  0  0  0  0  0  0
  188.8440  177.1460  146.4800 C   0  0  0  0  0  2  0  0  0  0  0  0
  1 18  1  0  0  0  0
  1 27  1  0  0  0  0
  2 14  1  0  0  0  0
  3  7  1  6  0  0  0
  3 19  1  0  0  0  0
  4 15  1  0  0  0  0
  4 18  2  0  0  0  0
  5 11  1  1  0  0  0
  8 16  1  0  0  0  0
  8 12  1  0  0  0  0
  9 27  1  6  0  0  0
  9 13  1  0  0  0  0
  9 25  1  0  0  0  0
 13 24  1  1  0  0  0
 15 12  1  6  0  0  0
 15  5  1  0  0  0  0
 16  3  1  0  0  0  0
 17 28  1  0  0  0  0
 17 10  1  0  0  0  0
 18 20  1  0  0  0  0
 19  5  1  0  0  0  0
 19  6  1  1  0  0  0
 20 11  1  1  0  0  0
 20 13  1  0  0  0  0
 21 23  2  0  0  0  0
 21 26  1  0  0  0  0
 22 10  1  0  0  0  0
 23  4  1  0  0  0  0
 24 22  1  0  0  0  0
 25 14  1  6  0  0  0
 25 17  1  0  0  0  0
 26  1  2  0  0  0  0
 27  2  1  0  0  0  0
 28 29  1  0  0  0  0
 29 32  1  0  0  0  0
 30 33  1  0  0  0  0
 31 33  1  0  0  0  0
 32 31  1  0  0  0  0
 34 32  1  0  0  0  0
 34 30  1  0  0  0  0
M  END
>  <MODEL>
1

>  <REMARK>
 VINA RESULT:      -8.2      0.000      0.000
  Name = 
  3 active torsions:
  status: ('A' for Active; 'I' for Inactive)
    1  A    between atoms: N_17  and  C_28
    2  A    between atoms: C_28  and  C_29
    3  A    between atoms: C_29  and  N_32
                            x       y       z     vdW  Elec       q    Type
                         _______ _______ _______ _____ _____    ______ ____

>  <TORSDO>
F 3

$$$$
=
 OpenBabel11122412243D

 34 40  0  0  1  0  0  0  0  0999 V2000
  187.0180  178.4040  140.5700 C   0  0  0  0  0  0  0  0  0  0  0  0
  186.0790  178.8180  138.3740 O   0  0  0  0  0  0  0  0  0  0  0  0
  191.5950  178.1180  144.3330 C   0  0  1  0  0  3  0  0  0  0  0  0
  187.8520  177.5460  142.6930 C   0  0  0  0  0  0  0  0  0  0  0  0
  190.1970  176.6610  142.8430 N   0  0  2  0  0  0  0  0  0  0  0  0
  191.8110  178.1850  141.9700 O   0  0  0  0  0  1  0  0  0  0  0  0
  191.9900  179.4430  144.5130 O   0  0  0  0  0  1  0  0  0  0  0  0
  189.4270  178.0030  145.3630 O   0  0  0  0  0  0  0  0  0  0  0  0
  188.2970  178.0210  138.4070 C   0  0  1  0  0  3  0  0  0  0  0  0
  189.3180  176.1550  136.2410 C   0  0  0  0  0  2  0  0  0  0  0  0
  190.0490  176.2640  141.4290 C   0  0  0  0  0  2  0  0  0  0  0  0
  188.8330  176.8060  144.9600 C   0  0  0  0  0  2  0  0  0  0  0  0
  189.0110  176.8820  139.1730 C   0  0  2  0  0  3  0  0  0  0  0  0
  186.1730  177.8640  137.3510 C   0  0  0  0  0  2  0  0  0  0  0  0
  188.8410  176.6690  143.4330 C   0  0  1  0  0  3  0  0  0  0  0  0
  190.7710  177.6700  145.5350 C   0  0  0  0  0  2  0  0  0  0  0  0
  187.9240  176.2420  136.6580 N   0  0  0  0  0  0  0  0  0  0  0  0
  188.0130  177.7430  141.3080 C   0  0  0  0  0  0  0  0  0  0  0  0
  190.8690  177.9780  142.9860 C   0  0  2  0  0  3  0  0  0  0  0  0
  189.2820  177.3250  140.6150 C   0  0  1  0  0  3  0  0  0  0  0  0
  185.7010  178.6680  142.5890 C   0  0  0  0  0  3  0  0  0  0  0  0
  190.1580  175.5670  137.3610 C   0  0  0  0  0  2  0  0  0  0  0  0
  186.6810  177.9960  143.3200 C   0  0  0  0  0  3  0  0  0  0  0  0
  190.3390  176.5740  138.4850 C   0  0  0  0  0  2  0  0  0  0  0  0
  187.6610  177.6300  137.0710 C   0  0  2  0  0  3  0  0  0  0  0  0
  185.8660  178.8670  141.2170 C   0  0  0  0  0  3  0  0  0  0  0  0
  187.1600  178.5530  139.1470 N   0  0  0  0  0  0  0  0  0  0  0  0
  187.1510  175.9550  135.4570 C   0  0  0  0  0  2  0  0  0  0  0  0
  186.5880  174.5470  135.5360 C   0  0  0  0  0  2  0  0  0  0  0  0
  183.7260  173.6790  137.3560 N   0  0  0  0  0  2  0  0  0  0  0  0
  185.9740  172.9310  137.1130 C   0  0  0  0  0  2  0  0  0  0  0  0
  185.9280  174.3510  136.8150 N   0  0  0  0  0  0  0  0  0  0  0  0
  184.5720  172.5080  137.4800 C   0  0  0  0  0  2  0  0  0  0  0  0
  184.5180  174.6450  136.6130 C   0  0  0  0  0  2  0  0  0  0  0  0
  1 26  2  0  0  0  0
  1 18  1  0  0  0  0
  2 27  1  0  0  0  0
  3  7  1  1  0  0  0
  3 16  1  0  0  0  0
  4 23  1  0  0  0  0
  4 15  1  0  0  0  0
  5 11  1  6  0  0  0
  5 19  1  0  0  0  0
  5 15  1  0  0  0  0
  8 16  1  0  0  0  0
  9 27  1  1  0  0  0
  9 13  1  0  0  0  0
 10 17  1  0  0  0  0
 10 22  1  0  0  0  0
 12  8  1  0  0  0  0
 13 24  1  6  0  0  0
 13 20  1  0  0  0  0
 14  2  1  0  0  0  0
 15 12  1  1  0  0  0
 17 25  1  0  0  0  0
 18  4  2  0  0  0  0
 19  6  1  6  0  0  0
 19  3  1  0  0  0  0
 20 18  1  0  0  0  0
 20 11  1  1  0  0  0
 21 23  2  0  0  0  0
 22 24  1  0  0  0  0
 25 14  1  1  0  0  0
 25  9  1  0  0  0  0
 26 21  1  0  0  0  0
 27  1  1  0  0  0  0
 28 29  1  0  0  0  0
 28 17  1  0  0  0  0
 29 32  1  0  0  0  0
 30 33  1  0  0  0  0
 31 33  1  0  0  0  0
 32 31  1  0  0  0  0
 34 32  1  0  0  0  0
 34 30  1  0  0  0  0
M  END
>  <MODEL>
2

>  <REMARK>
 VINA RESULT:      -8.2      4.153      9.500
  Name = 
  3 active torsions:
  status: ('A' for Active; 'I' for Inactive)
    1  A    between atoms: N_17  and  C_28
    2  A    between atoms: C_28  and  C_29
    3  A    between atoms: C_29  and  N_32
                            x       y       z     vdW  Elec       q    Type
                         _______ _______ _______ _____ _____    ______ ____

>  <TORSDO>
F 3

$$$$
=
 OpenBabel11122412243D

 34 40  0  0  1  0  0  0  0  0999 V2000
  186.1430  178.2170  138.7450 C   0  0  0  0  0  0  0  0  0  0  0  0
  188.2120  178.3240  140.0030 O   0  0  0  0  0  0  0  0  0  0  0  0
  180.6480  180.1000  137.5430 C   0  0  1  0  0  3  0  0  0  0  0  0
  184.0040  177.7040  137.6960 C   0  0  0  0  0  0  0  0  0  0  0  0
  181.8680  178.3410  138.8520 N   0  0  2  0  0  0  0  0  0  0  0  0
  181.8360  180.6280  139.5290 O   0  0  0  0  0  1  0  0  0  0  0  0
  180.8220  181.3630  136.9770 O   0  0  0  0  0  1  0  0  0  0  0  0
  181.5810  178.5940  135.9190 O   0  0  0  0  0  0  0  0  0  0  0  0
  186.2690  178.9740  141.1670 C   0  0  1  0  0  3  0  0  0  0  0  0
  185.9580  178.3960  144.1320 C   0  0  0  0  0  2  0  0  0  0  0  0
  182.5930  178.1450  140.1220 C   0  0  0  0  0  2  0  0  0  0  0  0
  181.7280  177.3500  136.5360 C   0  0  0  0  0  2  0  0  0  0  0  0
  184.8520  178.3670  141.3040 C   0  0  2  0  0  3  0  0  0  0  0  0
  188.3140  177.7670  141.2860 C   0  0  0  0  0  2  0  0  0  0  0  0
  182.5150  177.4700  137.8470 C   0  0  1  0  0  3  0  0  0  0  0  0
  180.3820  179.0860  136.4360 C   0  0  0  0  0  2  0  0  0  0  0  0
  186.7620  177.5920  143.2190 N   0  0  0  0  0  0  0  0  0  0  0  0
  184.7420  178.1590  138.8060 C   0  0  0  0  0  0  0  0  0  0  0  0
  181.8590  179.7640  138.4260 C   0  0  2  0  0  3  0  0  0  0  0  0
  184.0420  178.6660  140.0390 C   0  0  1  0  0  3  0  0  0  0  0  0
  186.0760  177.3640  136.4760 C   0  0  0  0  0  3  0  0  0  0  0  0
  184.4860  178.2510  143.7900 C   0  0  0  0  0  2  0  0  0  0  0  0
  184.6840  177.2900  136.5420 C   0  0  0  0  0  3  0  0  0  0  0  0
  184.1540  178.9960  142.5080 C   0  0  0  0  0  2  0  0  0  0  0  0
  187.3040  178.4880  142.1850 C   0  0  2  0  0  3  0  0  0  0  0  0
  186.8040  177.8210  137.5760 C   0  0  0  0  0  3  0  0  0  0  0  0
  186.8950  178.6280  139.8980 N   0  0  0  0  0  0  0  0  0  0  0  0
  187.8640  177.0900  144.0300 C   0  0  0  0  0  2  0  0  0  0  0  0
  187.6780  177.5270  145.4720 C   0  0  0  0  0  2  0  0  0  0  0  0
  190.5650  176.7310  147.2850 N   0  0  0  0  0  2  0  0  0  0  0  0
  189.9900  177.5060  145.1070 C   0  0  0  0  0  2  0  0  0  0  0  0
  188.9560  177.9310  146.0340 N   0  0  0  0  0  0  0  0  0  0  0  0
  191.0280  176.7600  145.9110 C   0  0  0  0  0  2  0  0  0  0  0  0
  189.1670  177.1230  147.2250 C   0  0  0  0  0  2  0  0  0  0  0  0
  1 18  1  0  0  0  0
  1 27  1  0  0  0  0
  2 14  1  0  0  0  0
  3  7  1  6  0  0  0
  3 19  1  0  0  0  0
  4 15  1  0  0  0  0
  4 18  2  0  0  0  0
  5 11  1  1  0  0  0
  8 16  1  0  0  0  0
  8 12  1  0  0  0  0
  9 27  1  6  0  0  0
  9 13  1  0  0  0  0
  9 25  1  0  0  0  0
 13 24  1  1  0  0  0
 15 12  1  6  0  0  0
 15  5  1  0  0  0  0
 16  3  1  0  0  0  0
 17 28  1  0  0  0  0
 17 10  1  0  0  0  0
 18 20  1  0  0  0  0
 19  5  1  0  0  0  0
 19  6  1  1  0  0  0
 20 11  1  1  0  0  0
 20 13  1  0  0  0  0
 21 23  2  0  0  0  0
 21 26  1  0  0  0  0
 22 10  1  0  0  0  0
 23  4  1  0  0  0  0
 24 22  1  0  0  0  0
 25 14  1  6  0  0  0
 25 17  1  0  0  0  0
 26  1  2  0  0  0  0
 27  2  1  0  0  0  0
 28 29  1  0  0  0  0
 29 32  1  0  0  0  0
 31 33  1  0  0  0  0
 31 32  1  0  0  0  0
 32 34  1  0  0  0  0
 33 30  1  0  0  0  0
 34 30  1  0  0  0  0
M  END
>  <MODEL>
3

>  <REMARK>
 VINA RESULT:      -7.9      1.436      1.802
  Name = 
  3 active torsions:
  status: ('A' for Active; 'I' for Inactive)
    1  A    between atoms: N_17  and  C_28
    2  A    between atoms: C_28  and  C_29
    3  A    between atoms: C_29  and  N_32
                            x       y       z     vdW  Elec       q    Type
                         _______ _______ _______ _____ _____    ______ ____

>  <TORSDO>
F 3

$$$$
=
 OpenBabel11122412243D

 34 40  0  0  1  0  0  0  0  0999 V2000
  185.5580  178.7170  145.2680 C   0  0  0  0  0  0  0  0  0  0  0  0
  183.2880  179.5270  145.0060 O   0  0  0  0  0  0  0  0  0  0  0  0
  191.2590  178.5100  143.6430 C   0  0  1  0  0  3  0  0  0  0  0  0
  187.6630  177.4970  145.3950 C   0  0  0  0  0  0  0  0  0  0  0  0
  189.0970  177.2730  143.3450 N   0  0  2  0  0  0  0  0  0  0  0  0
  189.5130  179.3670  142.2830 O   0  0  0  0  0  1  0  0  0  0  0  0
  191.7670  179.7680  143.9680 O   0  0  0  0  0  1  0  0  0  0  0  0
  190.7740  177.5030  145.7710 O   0  0  0  0  0  0  0  0  0  0  0  0
  184.5620  179.3860  143.0280 C   0  0  1  0  0  3  0  0  0  0  0  0
  183.2660  178.6350  140.3870 C   0  0  0  0  0  2  0  0  0  0  0  0
  187.8440  177.3120  142.5660 C   0  0  0  0  0  2  0  0  0  0  0  0
  189.9830  176.3780  145.5320 C   0  0  0  0  0  2  0  0  0  0  0  0
  185.4880  178.3010  142.4290 C   0  0  2  0  0  3  0  0  0  0  0  0
  182.4370  179.0030  144.0230 C   0  0  0  0  0  2  0  0  0  0  0  0
  188.7580  176.7320  144.6800 C   0  0  1  0  0  3  0  0  0  0  0  0
  191.6810  177.5070  144.7100 C   0  0  0  0  0  2  0  0  0  0  0  0
  182.7750  178.2100  141.6920 N   0  0  0  0  0  0  0  0  0  0  0  0
  186.6750  178.1510  144.6340 C   0  0  0  0  0  0  0  0  0  0  0  0
  189.7400  178.6090  143.4380 C   0  0  2  0  0  3  0  0  0  0  0  0
  186.8410  178.3270  143.1480 C   0  0  1  0  0  3  0  0  0  0  0  0
  186.4050  177.9750  147.4160 C   0  0  0  0  0  3  0  0  0  0  0  0
  184.6020  177.9750  140.0970 C   0  0  0  0  0  2  0  0  0  0  0  0
  187.5070  177.3970  146.7850 C   0  0  0  0  0  3  0  0  0  0  0  0
  185.7030  178.5920  140.9450 C   0  0  0  0  0  2  0  0  0  0  0  0
  183.0810  179.2760  142.6600 C   0  0  2  0  0  3  0  0  0  0  0  0
  185.4300  178.6280  146.6590 C   0  0  0  0  0  3  0  0  0  0  0  0
  184.5240  179.3350  144.4830 N   0  0  0  0  0  0  0  0  0  0  0  0
  181.3280  178.1170  141.5380 C   0  0  0  0  0  2  0  0  0  0  0  0
  180.9300  178.5950  140.1530 C   0  0  0  0  0  2  0  0  0  0  0  0
  179.0930  181.3280  141.3450 N   0  0  0  0  0  2  0  0  0  0  0  0
  179.7440  180.3990  139.2500 C   0  0  0  0  0  2  0  0  0  0  0  0
  179.6770  179.3270  140.2260 N   0  0  0  0  0  0  0  0  0  0  0  0
  179.3500  181.6730  139.9590 C   0  0  0  0  0  2  0  0  0  0  0  0
  179.6530  179.9980  141.5160 C   0  0  0  0  0  2  0  0  0  0  0  0
  1 26  1  0  0  0  0
  3  7  1  1  0  0  0
  3 16  1  0  0  0  0
  4 23  2  0  0  0  0
  5 11  1  6  0  0  0
  5 19  1  0  0  0  0
  5 15  1  0  0  0  0
  9 27  1  1  0  0  0
 10 17  1  0  0  0  0
 12  8  1  0  0  0  0
 13 24  1  6  0  0  0
 13  9  1  0  0  0  0
 13 20  1  0  0  0  0
 14  2  1  0  0  0  0
 15  4  1  0  0  0  0
 15 12  1  1  0  0  0
 16  8  1  0  0  0  0
 17 25  1  0  0  0  0
 18  1  2  0  0  0  0
 18  4  1  0  0  0  0
 19  6  1  6  0  0  0
 19  3  1  0  0  0  0
 20 11  1  6  0  0  0
 20 18  1  0  0  0  0
 22 10  1  0  0  0  0
 22 24  1  0  0  0  0
 23 21  1  0  0  0  0
 25  9  1  0  0  0  0
 25 14  1  1  0  0  0
 26 21  2  0  0  0  0
 27  2  1  0  0  0  0
 27  1  1  0  0  0  0
 28 17  1  0  0  0  0
 29 32  1  0  0  0  0
 29 28  1  0  0  0  0
 30 34  1  0  0  0  0
 31 33  1  0  0  0  0
 31 32  1  0  0  0  0
 32 34  1  0  0  0  0
 33 30  1  0  0  0  0
M  END
>  <MODEL>
4

>  <REMARK>
 VINA RESULT:      -7.8      2.930      9.067
  Name = 
  3 active torsions:
  status: ('A' for Active; 'I' for Inactive)
    1  A    between atoms: N_17  and  C_28
    2  A    between atoms: C_28  and  C_29
    3  A    between atoms: C_29  and  N_32
                            x       y       z     vdW  Elec       q    Type
                         _______ _______ _______ _____ _____    ______ ____

>  <TORSDO>
F 3

$$$$
=
 OpenBabel11122412243D

 34 40  0  0  1  0  0  0  0  0999 V2000
  186.2800  178.6690  141.9870 C   0  0  0  0  0  0  0  0  0  0  0  0
  184.7970  179.3090  140.1810 O   0  0  0  0  0  0  0  0  0  0  0  0
  191.6800  178.1390  144.3840 C   0  0  1  0  0  3  0  0  0  0  0  0
  187.6500  177.5930  143.6920 C   0  0  0  0  0  0  0  0  0  0  0  0
  189.9670  176.8140  143.1180 N   0  0  2  0  0  0  0  0  0  0  0  0
  191.2750  178.5140  142.0750 O   0  0  0  0  0  1  0  0  0  0  0  0
  192.0880  179.4490  144.6340 O   0  0  0  0  0  1  0  0  0  0  0  0
  189.8560  177.7870  145.9090 O   0  0  0  0  0  0  0  0  0  0  0  0
  186.9590  178.6260  139.5390 C   0  0  1  0  0  3  0  0  0  0  0  0
  187.4120  177.1010  136.9530 C   0  0  0  0  0  2  0  0  0  0  0  0
  189.4630  176.5910  141.7490 C   0  0  0  0  0  2  0  0  0  0  0  0
  189.1970  176.6220  145.5130 C   0  0  0  0  0  2  0  0  0  0  0  0
  187.8660  177.4360  139.9370 C   0  0  2  0  0  3  0  0  0  0  0  0
  184.6360  178.4980  139.0480 C   0  0  0  0  0  2  0  0  0  0  0  0
  188.8100  176.6800  144.0300 C   0  0  1  0  0  3  0  0  0  0  0  0
  191.2040  177.5030  145.6850 C   0  0  0  0  0  2  0  0  0  0  0  0
  186.1730  177.0650  137.7200 N   0  0  0  0  0  0  0  0  0  0  0  0
  187.4420  177.9700  142.3520 C   0  0  0  0  0  0  0  0  0  0  0  0
  190.6320  178.1340  143.2610 C   0  0  2  0  0  3  0  0  0  0  0  0
  188.4940  177.7060  141.3070 C   0  0  1  0  0  3  0  0  0  0  0  0
  185.5280  178.6110  144.2930 C   0  0  0  0  0  3  0  0  0  0  0  0
  188.5230  176.4190  137.7320 C   0  0  0  0  0  2  0  0  0  0  0  0
  186.6750  177.9020  144.6520 C   0  0  0  0  0  3  0  0  0  0  0  0
  188.9740  177.2840  138.8970 C   0  0  0  0  0  2  0  0  0  0  0  0
  186.0050  178.3740  138.3700 C   0  0  2  0  0  3  0  0  0  0  0  0
  185.3290  178.9880  142.9630 C   0  0  0  0  0  3  0  0  0  0  0  0
  186.0460  179.0030  140.6090 N   0  0  0  0  0  0  0  0  0  0  0  0
  185.1200  176.8940  136.7280 C   0  0  0  0  0  2  0  0  0  0  0  0
  185.0980  175.4530  136.2490 C   0  0  0  0  0  2  0  0  0  0  0  0
  182.8900  172.8020  136.8440 N   0  0  0  0  0  2  0  0  0  0  0  0
  185.1180  173.4230  137.4140 C   0  0  0  0  0  2  0  0  0  0  0  0
  184.3480  174.6330  137.1850 N   0  0  0  0  0  0  0  0  0  0  0  0
  184.1810  172.2560  137.2190 C   0  0  0  0  0  2  0  0  0  0  0  0
  183.1510  174.1870  136.4910 C   0  0  0  0  0  2  0  0  0  0  0  0
  1 18  2  0  0  0  0
  1 26  1  0  0  0  0
  2 27  1  0  0  0  0
  3  7  1  1  0  0  0
  3 16  1  0  0  0  0
  4 15  1  0  0  0  0
  4 23  2  0  0  0  0
  5 11  1  6  0  0  0
  5 19  1  0  0  0  0
  5 15  1  0  0  0  0
  9 13  1  0  0  0  0
  9 27  1  1  0  0  0
 10 17  1  0  0  0  0
 10 22  1  0  0  0  0
 12  8  1  0  0  0  0
 13 24  1  6  0  0  0
 13 20  1  0  0  0  0
 14  2  1  0  0  0  0
 15 12  1  1  0  0  0
 16  8  1  0  0  0  0
 17 25  1  0  0  0  0
 18  4  1  0  0  0  0
 19  6  1  6  0  0  0
 19  3  1  0  0  0  0
 20 11  1  1  0  0  0
 20 18  1  0  0  0  0
 21 23  1  0  0  0  0
 22 24  1  0  0  0  0
 25 14  1  1  0  0  0
 25  9  1  0  0  0  0
 26 21  2  0  0  0  0
 27  1  1  0  0  0  0
 28 17  1  0  0  0  0
 29 28  1  0  0  0  0
 29 32  1  0  0  0  0
 30 33  1  0  0  0  0
 32 31  1  0  0  0  0
 33 31  1  0  0  0  0
 34 30  1  0  0  0  0
 34 32  1  0  0  0  0
M  END
>  <MODEL>
5

>  <REMARK>
 VINA RESULT:      -7.6      3.366      9.369
  Name = 
  3 active torsions:
  status: ('A' for Active; 'I' for Inactive)
    1  A    between atoms: N_17  and  C_28
    2  A    between atoms: C_28  and  C_29
    3  A    between atoms: C_29  and  N_32
                            x       y       z     vdW  Elec       q    Type
                         _______ _______ _______ _____ _____    ______ ____

>  <TORSDO>
F 3

$$$$
=
 OpenBabel11122412243D

 34 40  0  0  1  0  0  0  0  0999 V2000
  185.4840  178.7170  145.2570 C   0  0  0  0  0  0  0  0  0  0  0  0
  183.2150  179.5270  144.9910 O   0  0  0  0  0  0  0  0  0  0  0  0
  191.1870  178.5110  143.6420 C   0  0  1  0  0  3  0  0  0  0  0  0
  187.5890  177.4970  145.3870 C   0  0  0  0  0  0  0  0  0  0  0  0
  189.0260  177.2740  143.3400 N   0  0  2  0  0  0  0  0  0  0  0  0
  189.4440  179.3680  142.2790 O   0  0  0  0  0  1  0  0  0  0  0  0
  191.6940  179.7690  143.9680 O   0  0  0  0  0  1  0  0  0  0  0  0
  190.6990  177.5030  145.7680 O   0  0  0  0  0  0  0  0  0  0  0  0
  184.4910  179.3870  143.0150 C   0  0  1  0  0  3  0  0  0  0  0  0
  183.2000  178.6370  140.3720 C   0  0  0  0  0  2  0  0  0  0  0  0
  187.7750  177.3130  142.5590 C   0  0  0  0  0  2  0  0  0  0  0  0
  189.9080  176.3780  145.5270 C   0  0  0  0  0  2  0  0  0  0  0  0
  185.4190  178.3020  142.4180 C   0  0  2  0  0  3  0  0  0  0  0  0
  182.3650  179.0030  144.0070 C   0  0  0  0  0  2  0  0  0  0  0  0
  188.6850  176.7320  144.6740 C   0  0  1  0  0  3  0  0  0  0  0  0
  191.6080  177.5070  144.7090 C   0  0  0  0  0  2  0  0  0  0  0  0
  182.7060  178.2110  141.6760 N   0  0  0  0  0  0  0  0  0  0  0  0
  186.6020  178.1510  144.6250 C   0  0  0  0  0  0  0  0  0  0  0  0
  189.6690  178.6100  143.4340 C   0  0  2  0  0  3  0  0  0  0  0  0
  186.7700  178.3280  143.1390 C   0  0  1  0  0  3  0  0  0  0  0  0
  186.3270  177.9740  147.4060 C   0  0  0  0  0  3  0  0  0  0  0  0
  184.5370  177.9770  140.0840 C   0  0  0  0  0  2  0  0  0  0  0  0
  187.4310  177.3970  146.7770 C   0  0  0  0  0  3  0  0  0  0  0  0
  185.6360  178.5930  140.9340 C   0  0  0  0  0  2  0  0  0  0  0  0
  183.0110  179.2760  142.6450 C   0  0  2  0  0  3  0  0  0  0  0  0
  185.3530  178.6270  146.6480 C   0  0  0  0  0  3  0  0  0  0  0  0
  184.4510  179.3350  144.4700 N   0  0  0  0  0  0  0  0  0  0  0  0
  181.2610  178.1170  141.5200 C   0  0  0  0  0  2  0  0  0  0  0  0
  180.8920  178.2970  140.0580 C   0  0  0  0  0  2  0  0  0  0  0  0
  180.1590  174.9710  139.2450 N   0  0  0  0  0  2  0  0  0  0  0  0
  179.5130  176.5900  140.8700 C   0  0  0  0  0  2  0  0  0  0  0  0
  179.9240  177.2880  139.6650 N   0  0  0  0  0  0  0  0  0  0  0  0
  179.6410  175.1110  140.5930 C   0  0  0  0  0  2  0  0  0  0  0  0
  180.6430  176.2930  138.8850 C   0  0  0  0  0  2  0  0  0  0  0  0
  1 26  1  0  0  0  0
  3  7  1  1  0  0  0
  3 16  1  0  0  0  0
  4 23  2  0  0  0  0
  5 11  1  6  0  0  0
  5 19  1  0  0  0  0
  5 15  1  0  0  0  0
  9 27  1  1  0  0  0
 10 17  1  0  0  0  0
 12  8  1  0  0  0  0
 13 24  1  6  0  0  0
 13  9  1  0  0  0  0
 13 20  1  0  0  0  0
 14  2  1  0  0  0  0
 15  4  1  0  0  0  0
 15 12  1  1  0  0  0
 16  8  1  0  0  0  0
 17 25  1  0  0  0  0
 18  1  2  0  0  0  0
 18  4  1  0  0  0  0
 19  6  1  6  0  0  0
 19  3  1  0  0  0  0
 20 11  1  6  0  0  0
 20 18  1  0  0  0  0
 22 10  1  0  0  0  0
 22 24  1  0  0  0  0
 23 21  1  0  0  0  0
 25  9  1  0  0  0  0
 25 14  1  1  0  0  0
 26 21  2  0  0  0  0
 27  2  1  0  0  0  0
 27  1  1  0  0  0  0
 28 17  1  0  0  0  0
 29 28  1  0  0  0  0
 30 33  1  0  0  0  0
 32 29  1  0  0  0  0
 32 31  1  0  0  0  0
 33 31  1  0  0  0  0
 34 30  1  0  0  0  0
 34 32  1  0  0  0  0
M  END
>  <MODEL>
6

>  <REMARK>
 VINA RESULT:      -7.5      2.978      8.981
  Name = 
  3 active torsions:
  status: ('A' for Active; 'I' for Inactive)
    1  A    between atoms: N_17  and  C_28
    2  A    between atoms: C_28  and  C_29
    3  A    between atoms: C_29  and  N_32
                            x       y       z     vdW  Elec       q    Type
                         _______ _______ _______ _____ _____    ______ ____

>  <TORSDO>
F 3

$$$$
=
 OpenBabel11122412243D

 34 40  0  0  1  0  0  0  0  0999 V2000
  185.0340  177.9370  138.3750 C   0  0  0  0  0  0  0  0  0  0  0  0
  187.2040  178.6000  139.2280 O   0  0  0  0  0  0  0  0  0  0  0  0
  179.1430  178.5370  138.0290 C   0  0  1  0  0  3  0  0  0  0  0  0
  182.9180  176.8900  137.7730 C   0  0  0  0  0  0  0  0  0  0  0  0
  180.9050  177.2220  139.2370 N   0  0  2  0  0  0  0  0  0  0  0  0
  180.4890  179.5190  139.7200 O   0  0  0  0  0  1  0  0  0  0  0  0
  178.9480  179.7340  137.3400 O   0  0  0  0  0  1  0  0  0  0  0  0
  180.1100  177.0660  136.3930 O   0  0  0  0  0  0  0  0  0  0  0  0
  185.3770  178.9840  140.6650 C   0  0  1  0  0  3  0  0  0  0  0  0
  185.6720  178.7070  143.6740 C   0  0  0  0  0  2  0  0  0  0  0  0
  181.8480  177.3240  140.3680 C   0  0  0  0  0  2  0  0  0  0  0  0
  180.6180  175.9570  137.0730 C   0  0  0  0  0  2  0  0  0  0  0  0
  184.1640  178.1270  141.1030 C   0  0  2  0  0  3  0  0  0  0  0  0
  187.6260  178.2290  140.5130 C   0  0  0  0  0  2  0  0  0  0  0  0
  181.5580  176.3850  138.2070 C   0  0  1  0  0  3  0  0  0  0  0  0
  178.9310  177.3670  137.0750 C   0  0  0  0  0  2  0  0  0  0  0  0
  186.4740  177.9780  142.7010 N   0  0  0  0  0  0  0  0  0  0  0  0
  183.7060  177.6100  138.6910 C   0  0  0  0  0  0  0  0  0  0  0  0
  180.5220  178.5540  138.7050 C   0  0  2  0  0  3  0  0  0  0  0  0
  183.1180  178.1090  139.9840 C   0  0  1  0  0  3  0  0  0  0  0  0
  184.7940  176.8270  136.2320 C   0  0  0  0  0  3  0  0  0  0  0  0
  184.2300  178.2330  143.6150 C   0  0  0  0  0  2  0  0  0  0  0  0
  183.4790  176.4870  136.5530 C   0  0  0  0  0  3  0  0  0  0  0  0
  183.5460  178.7420  142.3570 C   0  0  0  0  0  2  0  0  0  0  0  0
  186.6390  178.8350  141.5170 C   0  0  2  0  0  3  0  0  0  0  0  0
  185.5710  177.5450  137.1430 C   0  0  0  0  0  3  0  0  0  0  0  0
  185.8530  178.6220  139.3370 N   0  0  0  0  0  0  0  0  0  0  0  0
  187.7730  177.8030  143.3390 C   0  0  0  0  0  2  0  0  0  0  0  0
  188.1050  176.3240  143.4250 C   0  0  0  0  0  2  0  0  0  0  0  0
  191.4030  177.0680  142.5140 N   0  0  0  0  0  2  0  0  0  0  0  0
  189.9950  177.2740  144.4250 C   0  0  0  0  0  2  0  0  0  0  0  0
  189.5320  176.1490  143.6330 N   0  0  0  0  0  0  0  0  0  0  0  0
  191.2030  177.8460  143.7220 C   0  0  0  0  0  2  0  0  0  0  0  0
  190.1720  176.3160  142.3380 C   0  0  0  0  0  2  0  0  0  0  0  0
  1 18  1  0  0  0  0
  1 27  1  0  0  0  0
  2 27  1  0  0  0  0
  2 14  1  0  0  0  0
  3  7  1  6  0  0  0
  3 19  1  0  0  0  0
  4 15  1  0  0  0  0
  4 18  2  0  0  0  0
  5 11  1  1  0  0  0
  8 12  1  0  0  0  0
  8 16  1  0  0  0  0
  9 27  1  6  0  0  0
  9 13  1  0  0  0  0
  9 25  1  0  0  0  0
 13 24  1  1  0  0  0
 15 12  1  6  0  0  0
 15  5  1  0  0  0  0
 16  3  1  0  0  0  0
 17 28  1  0  0  0  0
 17 10  1  0  0  0  0
 18 20  1  0  0  0  0
 19  5  1  0  0  0  0
 19  6  1  1  0  0  0
 20 11  1  1  0  0  0
 20 13  1  0  0  0  0
 21 23  2  0  0  0  0
 21 26  1  0  0  0  0
 22 10  1  0  0  0  0
 23  4  1  0  0  0  0
 24 22  1  0  0  0  0
 25 14  1  6  0  0  0
 25 17  1  0  0  0  0
 26  1  2  0  0  0  0
 28 29  1  0  0  0  0
 29 32  1  0  0  0  0
 30 33  1  0  0  0  0
 32 31  1  0  0  0  0
 33 31  1  0  0  0  0
 34 30  1  0  0  0  0
 34 32  1  0  0  0  0
M  END
>  <MODEL>
7

>  <REMARK>
 VINA RESULT:      -7.2      2.002      2.381
  Name = 
  3 active torsions:
  status: ('A' for Active; 'I' for Inactive)
    1  A    between atoms: N_17  and  C_28
    2  A    between atoms: C_28  and  C_29
    3  A    between atoms: C_29  and  N_32
                            x       y       z     vdW  Elec       q    Type
                         _______ _______ _______ _____ _____    ______ ____

>  <TORSDO>
F 3

$$$$
=
 OpenBabel11122412243D

 34 40  0  0  1  0  0  0  0  0999 V2000
  185.5010  178.6740  144.1100 C   0  0  0  0  0  0  0  0  0  0  0  0
  183.3630  179.4530  143.2750 O   0  0  0  0  0  0  0  0  0  0  0  0
  191.4270  178.4810  143.9420 C   0  0  1  0  0  3  0  0  0  0  0  0
  187.5140  177.4800  144.7870 C   0  0  0  0  0  0  0  0  0  0  0  0
  189.4080  177.2130  143.1600 N   0  0  2  0  0  0  0  0  0  0  0  0
  190.0660  179.2790  142.1690 O   0  0  0  0  0  1  0  0  0  0  0  0
  191.8350  179.7530  144.3430 O   0  0  0  0  0  1  0  0  0  0  0  0
  190.4370  177.5300  145.9150 O   0  0  0  0  0  0  0  0  0  0  0  0
  185.0830  179.2680  141.6750 C   0  0  1  0  0  3  0  0  0  0  0  0
  184.4780  178.4280  138.8210 C   0  0  0  0  0  2  0  0  0  0  0  0
  188.3850  177.2160  142.0970 C   0  0  0  0  0  2  0  0  0  0  0  0
  189.7320  176.3900  145.5240 C   0  0  0  0  0  2  0  0  0  0  0  0
  186.1320  178.1760  141.3550 C   0  0  2  0  0  3  0  0  0  0  0  0
  182.7800  178.8910  142.1300 C   0  0  0  0  0  2  0  0  0  0  0  0
  188.7530  176.7070  144.3870 C   0  0  1  0  0  3  0  0  0  0  0  0
  191.5770  177.5130  145.1100 C   0  0  0  0  0  2  0  0  0  0  0  0
  183.6830  178.0350  139.9780 N   0  0  0  0  0  0  0  0  0  0  0  0
  186.7410  178.1020  143.7880 C   0  0  0  0  0  0  0  0  0  0  0  0
  190.0040  178.5570  143.3680 C   0  0  2  0  0  3  0  0  0  0  0  0
  187.2660  178.2370  142.3830 C   0  0  1  0  0  3  0  0  0  0  0  0
  185.7960  178.0030  146.4230 C   0  0  0  0  0  3  0  0  0  0  0  0
  185.8470  177.7740  138.8890 C   0  0  0  0  0  2  0  0  0  0  0  0
  187.0220  177.4190  146.0990 C   0  0  0  0  0  3  0  0  0  0  0  0
  186.7030  178.4260  139.9620 C   0  0  0  0  0  2  0  0  0  0  0  0
  183.7380  179.1310  140.9580 C   0  0  2  0  0  3  0  0  0  0  0  0
  185.0350  178.6240  145.4300 C   0  0  0  0  0  3  0  0  0  0  0  0
  184.6900  179.2580  143.0780 N   0  0  0  0  0  0  0  0  0  0  0  0
  182.3190  177.9220  139.4770 C   0  0  0  0  0  2  0  0  0  0  0  0
  182.2130  178.6040  138.1240 C   0  0  0  0  0  2  0  0  0  0  0  0
  179.5390  180.1490  139.7730 N   0  0  0  0  0  2  0  0  0  0  0  0
  181.3820  180.7740  138.3980 C   0  0  0  0  0  2  0  0  0  0  0  0
  181.0060  179.4100  138.0710 N   0  0  0  0  0  0  0  0  0  0  0  0
  180.4300  181.2530  139.4690 C   0  0  0  0  0  2  0  0  0  0  0  0
  180.1610  178.9810  139.1740 C   0  0  0  0  0  2  0  0  0  0  0  0
  1 26  1  0  0  0  0
  3  7  1  1  0  0  0
  3 16  1  0  0  0  0
  4 23  2  0  0  0  0
  5 11  1  6  0  0  0
  5 19  1  0  0  0  0
  5 15  1  0  0  0  0
  9 27  1  1  0  0  0
 10 22  1  0  0  0  0
 10 17  1  0  0  0  0
 12  8  1  0  0  0  0
 13 24  1  6  0  0  0
 13  9  1  0  0  0  0
 13 20  1  0  0  0  0
 14  2  1  0  0  0  0
 15  4  1  0  0  0  0
 15 12  1  1  0  0  0
 16  8  1  0  0  0  0
 17 25  1  0  0  0  0
 18  1  2  0  0  0  0
 18  4  1  0  0  0  0
 19  6  1  6  0  0  0
 19  3  1  0  0  0  0
 20 11  1  6  0  0  0
 20 18  1  0  0  0  0
 22 24  1  0  0  0  0
 23 21  1  0  0  0  0
 25  9  1  0  0  0  0
 25 14  1  1  0  0  0
 26 21  2  0  0  0  0
 27  2  1  0  0  0  0
 27  1  1  0  0  0  0
 28 17  1  0  0  0  0
 29 28  1  0  0  0  0
 31 33  1  0  0  0  0
 32 29  1  0  0  0  0
 32 31  1  0  0  0  0
 32 34  1  0  0  0  0
 33 30  1  0  0  0  0
 34 30  1  0  0  0  0
M  END
>  <MODEL>
8

>  <REMARK>
 VINA RESULT:      -7.0      2.629      9.087
  Name = 
  3 active torsions:
  status: ('A' for Active; 'I' for Inactive)
    1  A    between atoms: N_17  and  C_28
    2  A    between atoms: C_28  and  C_29
    3  A    between atoms: C_29  and  N_32
                            x       y       z     vdW  Elec       q    Type
                         _______ _______ _______ _____ _____    ______ ____

>  <TORSDO>
F 3

$$$$
=
 OpenBabel11122412243D

 34 40  0  0  1  0  0  0  0  0999 V2000
  185.5010  178.6360  143.9710 C   0  0  0  0  0  0  0  0  0  0  0  0
  183.3910  179.3910  143.0480 O   0  0  0  0  0  0  0  0  0  0  0  0
  191.4300  178.4720  144.0210 C   0  0  1  0  0  3  0  0  0  0  0  0
  187.4950  177.4620  144.7370 C   0  0  0  0  0  0  0  0  0  0  0  0
  189.4480  177.1830  143.1840 N   0  0  2  0  0  0  0  0  0  0  0  0
  190.1310  179.2390  142.1890 O   0  0  0  0  0  1  0  0  0  0  0  0
  191.8180  179.7510  144.4200 O   0  0  0  0  0  1  0  0  0  0  0  0
  190.3740  177.5420  145.9700 O   0  0  0  0  0  0  0  0  0  0  0  0
  185.1700  179.1950  141.5140 C   0  0  1  0  0  3  0  0  0  0  0  0
  184.6730  178.3130  138.6520 C   0  0  0  0  0  2  0  0  0  0  0  0
  188.4650  177.1660  142.0840 C   0  0  0  0  0  2  0  0  0  0  0  0
  189.6900  176.3930  145.5680 C   0  0  0  0  0  2  0  0  0  0  0  0
  186.2350  178.1040  141.2480 C   0  0  2  0  0  3  0  0  0  0  0  0
  182.8540  178.8110  141.8900 C   0  0  0  0  0  2  0  0  0  0  0  0
  188.7510  176.6890  144.3920 C   0  0  1  0  0  3  0  0  0  0  0  0
  191.5430  177.5200  145.2070 C   0  0  0  0  0  2  0  0  0  0  0  0
  183.8390  177.9320  139.7840 N   0  0  0  0  0  0  0  0  0  0  0  0
  186.7560  178.0660  143.7020 C   0  0  0  0  0  0  0  0  0  0  0  0
  190.0300  178.5330  143.3940 C   0  0  2  0  0  3  0  0  0  0  0  0
  187.3310  178.1850  142.3150 C   0  0  1  0  0  3  0  0  0  0  0  0
  185.7150  177.9970  146.3010 C   0  0  0  0  0  3  0  0  0  0  0  0
  186.0420  177.6670  138.7780 C   0  0  0  0  0  2  0  0  0  0  0  0
  186.9550  177.4150  146.0310 C   0  0  0  0  0  3  0  0  0  0  0  0
  186.8560  178.3380  139.8730 C   0  0  0  0  0  2  0  0  0  0  0  0
  183.8530  179.0410  140.7510 C   0  0  2  0  0  3  0  0  0  0  0  0
  184.9880  178.6000  145.2730 C   0  0  0  0  0  3  0  0  0  0  0  0
  184.7260  179.2020  142.9020 N   0  0  0  0  0  0  0  0  0  0  0  0
  182.4940  177.8040  139.2350 C   0  0  0  0  0  2  0  0  0  0  0  0
  182.1270  176.3360  139.1200 C   0  0  0  0  0  2  0  0  0  0  0  0
  179.1580  175.4770  140.7660 N   0  0  0  0  0  2  0  0  0  0  0  0
  180.1170  177.3830  139.7050 C   0  0  0  0  0  2  0  0  0  0  0  0
  180.6820  176.1890  139.1020 N   0  0  0  0  0  0  0  0  0  0  0  0
  179.1280  176.9270  140.7510 C   0  0  0  0  0  2  0  0  0  0  0  0
  180.3540  175.1130  140.0250 C   0  0  0  0  0  2  0  0  0  0  0  0
  1 26  1  0  0  0  0
  3  7  1  1  0  0  0
  3 16  1  0  0  0  0
  4 23  2  0  0  0  0
  5 11  1  6  0  0  0
  5 19  1  0  0  0  0
  5 15  1  0  0  0  0
  9 27  1  1  0  0  0
 10 22  1  0  0  0  0
 10 17  1  0  0  0  0
 12  8  1  0  0  0  0
 13 24  1  6  0  0  0
 13  9  1  0  0  0  0
 13 20  1  0  0  0  0
 14  2  1  0  0  0  0
 15  4  1  0  0  0  0
 15 12  1  1  0  0  0
 16  8  1  0  0  0  0
 17 25  1  0  0  0  0
 18  1  2  0  0  0  0
 18  4  1  0  0  0  0
 19  6  1  6  0  0  0
 19  3  1  0  0  0  0
 20 11  1  6  0  0  0
 20 18  1  0  0  0  0
 22 24  1  0  0  0  0
 23 21  1  0  0  0  0
 25  9  1  0  0  0  0
 25 14  1  1  0  0  0
 26 21  2  0  0  0  0
 27  2  1  0  0  0  0
 27  1  1  0  0  0  0
 28 17  1  0  0  0  0
 29 28  1  0  0  0  0
 31 33  1  0  0  0  0
 32 29  1  0  0  0  0
 32 31  1  0  0  0  0
 32 34  1  0  0  0  0
 33 30  1  0  0  0  0
 34 30  1  0  0  0  0
M  END
>  <MODEL>
9

>  <REMARK>
 VINA RESULT:      -7.0      2.714      8.981
  Name = 
  3 active torsions:
  status: ('A' for Active; 'I' for Inactive)
    1  A    between atoms: N_17  and  C_28
    2  A    between atoms: C_28  and  C_29
    3  A    between atoms: C_29  and  N_32
                            x       y       z     vdW  Elec       q    Type
                         _______ _______ _______ _____ _____    ______ ____

>  <TORSDO>
F 3

$$$$
