=
 OpenBabel11122410453D

 32 37  0  0  1  0  0  0  0  0999 V2000
  180.4680  179.8850  139.4170 C   0  0  0  0  0  2  0  0  0  0  0  0
  184.6720  178.0570  142.6280 C   0  0  2  0  0  3  0  0  0  0  0  0
  189.3970  178.5540  141.2280 C   0  0  0  0  0  2  0  0  0  0  0  0
  189.6590  177.7280  142.4710 C   0  0  0  0  0  2  0  0  0  0  0  0
  185.0530  178.8680  145.1370 C   0  0  0  0  0  0  0  0  0  0  0  0
  185.9330  178.7840  146.3090 C   0  0  0  0  0  0  0  0  0  0  0  0
  182.6250  178.6010  141.2810 C   0  0  2  0  0  3  0  0  0  0  0  0
  184.8780  178.6110  140.1810 C   0  0  0  0  0  2  0  0  0  0  0  0
  187.6210  178.1760  147.5550 C   0  0  0  0  0  0  0  0  0  0  0  0
  182.8880  179.2370  138.8420 C   0  0  0  0  0  2  0  0  0  0  0  0
  187.9970  179.1350  141.3080 C   0  0  0  0  0  2  0  0  0  0  0  0
  185.5650  178.6790  141.5420 C   0  0  2  0  0  3  0  0  0  0  0  0
  186.9560  178.0170  141.4520 C   0  0  2  0  0  3  0  0  0  0  0  0
  186.9130  177.8080  143.8530 C   0  0  2  0  0  3  0  0  0  0  0  0
  186.7870  179.0380  148.2550 C   0  0  0  0  0  3  0  0  0  0  0  0
  180.6130  178.7780  140.2680 O   0  0  0  0  0  0  0  0  0  0  0  0
  183.5140  179.2920  140.2320 C   0  0  1  0  0  3  0  0  0  0  0  0
  185.7830  179.3820  147.4680 O   0  0  0  0  0  0  0  0  0  0  0  0
  181.3130  179.2310  141.3380 N   0  0  0  0  0  2  0  0  0  0  0  0
  181.7760  180.2770  138.7100 C   0  0  1  0  0  3  0  0  0  0  0  0
  188.6260  176.6080  142.5530 C   0  0  0  0  0  2  0  0  0  0  0  0
  187.2430  177.1150  142.5980 N   0  0  2  0  0  0  0  0  0  0  0  0
  187.5280  177.1980  145.1330 C   0  0  0  0  0  2  0  0  0  0  0  0
  183.2760  178.6780  142.6580 C   0  0  0  0  0  2  0  0  0  0  0  0
  184.0610  179.6430  145.1290 O   0  0  0  0  0  0  0  0  0  0  0  0
  188.8680  177.5460  148.0680 C   0  0  0  0  0  1  0  0  0  0  0  0
  185.3790  177.9210  143.9980 C   0  0  2  0  0  3  0  0  0  0  0  0
  187.0760  178.0250  146.3040 C   0  0  0  0  0  0  0  0  0  0  0  0
  181.5040  180.5330  137.3050 N   0  0  0  0  0  2  0  0  0  0  0  0
  180.5060  181.5880  137.2340 C   0  0  0  0  0  3  0  0  0  0  0  0
  181.1500  182.9140  137.5810 C   0  0  0  0  0  1  0  0  0  0  0  0
  179.9370  181.6620  135.8310 C   0  0  0  0  0  1  0  0  0  0  0  0
  1 16  1  0  0  0  0
  2 24  1  1  0  0  0
  2 27  1  0  0  0  0
  3 11  1  0  0  0  0
  3  4  1  0  0  0  0
  4 21  1  0  0  0  0
  5  6  1  0  0  0  0
  6 18  1  0  0  0  0
  7 19  1  0  0  0  0
  7 24  1  1  0  0  0
  8 17  1  0  0  0  0
  9 26  1  0  0  0  0
  9 15  2  0  0  0  0
 12  8  1  6  0  0  0
 12  2  1  0  0  0  0
 13 11  1  1  0  0  0
 13 12  1  0  0  0  0
 13 22  1  0  0  0  0
 14 27  1  0  0  0  0
 14 23  1  1  0  0  0
 16 19  1  0  0  0  0
 17 10  1  6  0  0  0
 17  7  1  0  0  0  0
 18 15  1  0  0  0  0
 20 29  1  6  0  0  0
 20 10  1  0  0  0  0
 20  1  1  0  0  0  0
 22 21  1  1  0  0  0
 22 14  1  0  0  0  0
 23 28  1  0  0  0  0
 25  5  2  0  0  0  0
 27  5  1  1  0  0  0
 28  6  2  0  0  0  0
 28  9  1  0  0  0  0
 30 29  1  0  0  0  0
 30 31  1  0  0  0  0
 32 30  1  0  0  0  0
M  END
>  <MODEL>
1

>  <REMARK>
 VINA RESULT:      -8.8      0.000      0.000
  Name = 
  2 active torsions:
  status: ('A' for Active; 'I' for Inactive)
    1  A    between atoms: C_20  and  N_29
    2  A    between atoms: N_29  and  C_30
                            x       y       z     vdW  Elec       q    Type
                         _______ _______ _______ _____ _____    ______ ____

>  <TORSDO>
F 2

$$$$
=
 OpenBabel11122410453D

 32 37  0  0  1  0  0  0  0  0999 V2000
  180.1400  179.6830  142.0270 C   0  0  0  0  0  2  0  0  0  0  0  0
  185.1050  177.7720  143.7660 C   0  0  2  0  0  3  0  0  0  0  0  0
  189.2050  178.3910  141.0570 C   0  0  0  0  0  2  0  0  0  0  0  0
  189.8230  177.5150  142.1280 C   0  0  0  0  0  2  0  0  0  0  0  0
  186.2110  178.4780  146.0850 C   0  0  0  0  0  0  0  0  0  0  0  0
  187.3990  178.3540  146.9390 C   0  0  0  0  0  0  0  0  0  0  0  0
  182.7510  178.3470  143.1100 C   0  0  2  0  0  3  0  0  0  0  0  0
  184.5790  178.4350  141.3950 C   0  0  0  0  0  2  0  0  0  0  0  0
  189.3790  177.7150  147.6020 C   0  0  0  0  0  0  0  0  0  0  0  0
  182.2820  179.0920  140.7340 C   0  0  0  0  0  2  0  0  0  0  0  0
  187.8910  178.9490  141.5730 C   0  0  0  0  0  2  0  0  0  0  0  0
  185.6370  178.4530  142.4940 C   0  0  2  0  0  3  0  0  0  0  0  0
  186.9390  177.8130  141.9670 C   0  0  2  0  0  3  0  0  0  0  0  0
  187.6080  177.4990  144.2610 C   0  0  2  0  0  3  0  0  0  0  0  0
  188.7900  178.5340  148.5550 C   0  0  0  0  0  3  0  0  0  0  0  0
  180.5300  178.5420  142.7460 O   0  0  0  0  0  0  0  0  0  0  0  0
  183.2910  179.0950  141.8780 C   0  0  1  0  0  3  0  0  0  0  0  0
  187.5980  178.8990  148.1160 O   0  0  0  0  0  0  0  0  0  0  0  0
  181.5150  178.9570  143.5810 N   0  0  0  0  0  2  0  0  0  0  0  0
  181.1810  180.1230  140.9830 C   0  0  1  0  0  3  0  0  0  0  0  0
  188.8600  176.3790  142.4600 C   0  0  0  0  0  2  0  0  0  0  0  0
  187.5520  176.8660  142.9350 N   0  0  2  0  0  0  0  0  0  0  0  0
  188.5740  176.8420  145.2730 C   0  0  0  0  0  2  0  0  0  0  0  0
  183.7810  178.3730  144.2350 C   0  0  0  0  0  2  0  0  0  0  0  0
  185.2620  179.2400  146.4050 O   0  0  0  0  0  0  0  0  0  0  0  0
  190.7220  177.0790  147.6940 C   0  0  0  0  0  1  0  0  0  0  0  0
  186.1860  177.5860  144.8580 C   0  0  2  0  0  3  0  0  0  0  0  0
  188.4880  177.6110  146.5620 C   0  0  0  0  0  0  0  0  0  0  0  0
  180.5060  180.4360  139.7340 N   0  0  0  0  0  2  0  0  0  0  0  0
  181.5240  180.5720  138.7050 C   0  0  0  0  0  3  0  0  0  0  0  0
  181.0870  179.8260  137.4620 C   0  0  0  0  0  1  0  0  0  0  0  0
  181.7170  182.0370  138.3660 C   0  0  0  0  0  1  0  0  0  0  0  0
  1 16  1  0  0  0  0
  2 24  1  1  0  0  0
  2 27  1  0  0  0  0
  3 11  1  0  0  0  0
  3  4  1  0  0  0  0
  4 21  1  0  0  0  0
  5 25  2  0  0  0  0
  5  6  1  0  0  0  0
  6 18  1  0  0  0  0
  7 19  1  0  0  0  0
  7 24  1  1  0  0  0
  8 17  1  0  0  0  0
  9 26  1  0  0  0  0
  9 15  2  0  0  0  0
 10 20  1  0  0  0  0
 12  8  1  6  0  0  0
 12  2  1  0  0  0  0
 13 11  1  1  0  0  0
 13 12  1  0  0  0  0
 13 22  1  0  0  0  0
 14 27  1  0  0  0  0
 14 23  1  1  0  0  0
 16 19  1  0  0  0  0
 17 10  1  6  0  0  0
 17  7  1  0  0  0  0
 18 15  1  0  0  0  0
 20 29  1  6  0  0  0
 20  1  1  0  0  0  0
 22 21  1  6  0  0  0
 22 14  1  0  0  0  0
 23 28  1  0  0  0  0
 27  5  1  1  0  0  0
 28  6  2  0  0  0  0
 28  9  1  0  0  0  0
 30 29  1  0  0  0  0
 31 30  1  0  0  0  0
 32 30  1  0  0  0  0
M  END
>  <MODEL>
2

>  <REMARK>
 VINA RESULT:      -8.6      1.331      1.785
  Name = 
  2 active torsions:
  status: ('A' for Active; 'I' for Inactive)
    1  A    between atoms: C_20  and  N_29
    2  A    between atoms: N_29  and  C_30
                            x       y       z     vdW  Elec       q    Type
                         _______ _______ _______ _____ _____    ______ ____

>  <TORSDO>
F 2

$$$$
=
 OpenBabel11122410453D

 32 37  0  0  1  0  0  0  0  0999 V2000
  181.1000  178.8870  139.7650 C   0  0  0  0  0  2  0  0  0  0  0  0
  186.6530  178.6010  140.4010 C   0  0  2  0  0  3  0  0  0  0  0  0
  188.6900  176.7530  144.5200 C   0  0  0  0  0  2  0  0  0  0  0  0
  189.9770  177.2200  143.8720 C   0  0  0  0  0  2  0  0  0  0  0  0
  188.2520  177.3030  138.7100 C   0  0  0  0  0  0  0  0  0  0  0  0
  189.6330  176.8850  138.4410 C   0  0  0  0  0  0  0  0  0  0  0  0
  184.2160  179.0250  139.9710 C   0  0  2  0  0  3  0  0  0  0  0  0
  184.9880  178.4240  142.2800 C   0  0  0  0  0  2  0  0  0  0  0  0
  191.7890  176.6600  138.7140 C   0  0  0  0  0  0  0  0  0  0  0  0
  182.5640  178.7510  141.8730 C   0  0  0  0  0  2  0  0  0  0  0  0
  187.6020  176.6830  143.4640 C   0  0  0  0  0  2  0  0  0  0  0  0
  186.3090  177.9000  141.7260 C   0  0  2  0  0  3  0  0  0  0  0  0
  187.4130  178.0500  142.7930 C   0  0  2  0  0  3  0  0  0  0  0  0
  189.0310  177.8580  141.0170 C   0  0  2  0  0  3  0  0  0  0  0  0
  191.3800  176.0330  137.5440 C   0  0  0  0  0  3  0  0  0  0  0  0
  182.1550  179.7190  139.3590 O   0  0  0  0  0  0  0  0  0  0  0  0
  183.8690  178.2540  141.2570 C   0  0  1  0  0  3  0  0  0  0  0  0
  190.0740  176.1910  137.4180 O   0  0  0  0  0  0  0  0  0  0  0  0
  183.1550  178.8820  138.9840 N   0  0  0  0  0  2  0  0  0  0  0  0
  181.3620  178.1930  141.1120 C   0  0  1  0  0  3  0  0  0  0  0  0
  189.7530  178.5970  143.2530 C   0  0  0  0  0  2  0  0  0  0  0  0
  188.6810  178.5950  142.2400 N   0  0  2  0  0  0  0  0  0  0  0  0
  190.4980  177.9990  140.5510 C   0  0  0  0  0  2  0  0  0  0  0  0
  185.5210  178.5010  139.3790 C   0  0  0  0  0  2  0  0  0  0  0  0
  187.3070  176.9280  137.9690 O   0  0  0  0  0  0  0  0  0  0  0  0
  193.1800  176.7300  139.2370 C   0  0  0  0  0  1  0  0  0  0  0  0
  188.0670  178.2560  139.8770 C   0  0  2  0  0  3  0  0  0  0  0  0
  190.6640  177.1950  139.2910 C   0  0  0  0  0  0  0  0  0  0  0  0
  180.1690  178.2840  141.9390 N   0  0  0  0  0  2  0  0  0  0  0  0
  180.4500  179.2200  143.0150 C   0  0  0  0  0  3  0  0  0  0  0  0
  179.6800  180.5030  142.7810 C   0  0  0  0  0  1  0  0  0  0  0  0
  180.0250  178.6190  144.3410 C   0  0  0  0  0  1  0  0  0  0  0  0
  1 20  1  0  0  0  0
  2 24  1  6  0  0  0
  2 12  1  0  0  0  0
  4  3  1  0  0  0  0
  6  5  1  0  0  0  0
  6 28  2  0  0  0  0
  7 24  1  6  0  0  0
  7 17  1  0  0  0  0
  9 26  1  0  0  0  0
  9 28  1  0  0  0  0
 11  3  1  0  0  0  0
 12  8  1  1  0  0  0
 12 13  1  0  0  0  0
 13 11  1  6  0  0  0
 14 23  1  6  0  0  0
 14 22  1  0  0  0  0
 15  9  2  0  0  0  0
 16  1  1  0  0  0  0
 17 10  1  1  0  0  0
 17  8  1  0  0  0  0
 18 15  1  0  0  0  0
 18  6  1  0  0  0  0
 19 16  1  0  0  0  0
 19  7  1  0  0  0  0
 20 10  1  0  0  0  0
 20 29  1  1  0  0  0
 21  4  1  0  0  0  0
 22 13  1  0  0  0  0
 22 21  1  1  0  0  0
 25  5  2  0  0  0  0
 27  5  1  6  0  0  0
 27  2  1  0  0  0  0
 27 14  1  0  0  0  0
 28 23  1  0  0  0  0
 29 30  1  0  0  0  0
 30 32  1  0  0  0  0
 31 30  1  0  0  0  0
M  END
>  <MODEL>
3

>  <REMARK>
 VINA RESULT:      -8.0      3.177      5.857
  Name = 
  2 active torsions:
  status: ('A' for Active; 'I' for Inactive)
    1  A    between atoms: C_20  and  N_29
    2  A    between atoms: N_29  and  C_30
                            x       y       z     vdW  Elec       q    Type
                         _______ _______ _______ _____ _____    ______ ____

>  <TORSDO>
F 2

$$$$
=
 OpenBabel11122410453D

 32 37  0  0  1  0  0  0  0  0999 V2000
  192.3670  176.1130  135.8510 C   0  0  0  0  0  2  0  0  0  0  0  0
  189.5090  176.7150  140.6250 C   0  0  2  0  0  3  0  0  0  0  0  0
  191.6350  178.5780  144.6920 C   0  0  0  0  0  2  0  0  0  0  0  0
  190.3120  178.2050  145.3300 C   0  0  0  0  0  2  0  0  0  0  0  0
  187.2700  178.1480  140.8170 C   0  0  0  0  0  0  0  0  0  0  0  0
  186.2410  178.6550  141.7330 C   0  0  0  0  0  0  0  0  0  0  0  0
  190.6270  176.1570  138.4480 C   0  0  2  0  0  3  0  0  0  0  0  0
  192.0190  176.7440  140.4480 C   0  0  0  0  0  2  0  0  0  0  0  0
  185.1580  179.0010  143.5980 C   0  0  0  0  0  0  0  0  0  0  0  0
  193.1520  176.2830  138.2930 C   0  0  0  0  0  2  0  0  0  0  0  0
  191.4640  178.6090  143.1840 C   0  0  0  0  0  2  0  0  0  0  0  0
  190.8070  177.3610  141.1390 C   0  0  2  0  0  3  0  0  0  0  0  0
  190.9710  177.2510  142.6690 C   0  0  2  0  0  3  0  0  0  0  0  0
  188.5910  177.5830  142.8590 C   0  0  2  0  0  3  0  0  0  0  0  0
  184.5160  179.6320  142.5400 C   0  0  0  0  0  3  0  0  0  0  0  0
  191.3570  175.3560  136.4660 O   0  0  0  0  0  0  0  0  0  0  0  0
  191.9000  176.8730  138.9330 C   0  0  1  0  0  3  0  0  0  0  0  0
  185.2020  179.3990  141.4350 O   0  0  0  0  0  0  0  0  0  0  0  0
  190.4990  176.2600  137.0010 N   0  0  0  0  0  2  0  0  0  0  0  0
  193.3130  176.7870  136.8580 C   0  0  1  0  0  3  0  0  0  0  0  0
  189.8810  176.8330  144.8200 C   0  0  0  0  0  2  0  0  0  0  0  0
  189.7320  176.7970  143.3530 N   0  0  2  0  0  0  0  0  0  0  0  0
  187.3230  177.5420  143.7410 C   0  0  0  0  0  2  0  0  0  0  0  0
  189.3940  176.7730  139.1030 C   0  0  0  0  0  2  0  0  0  0  0  0
  187.2790  178.4840  139.6050 O   0  0  0  0  0  0  0  0  0  0  0  0
  184.7220  179.0020  145.0200 C   0  0  0  0  0  1  0  0  0  0  0  0
  188.2530  177.1560  141.4140 C   0  0  2  0  0  3  0  0  0  0  0  0
  186.2700  178.3850  143.0770 C   0  0  0  0  0  0  0  0  0  0  0  0
  194.6880  176.6050  136.4220 N   0  0  0  0  0  2  0  0  0  0  0  0
  194.8280  175.2300  135.9700 C   0  0  0  0  0  3  0  0  0  0  0  0
  195.4600  175.2130  134.5940 C   0  0  0  0  0  1  0  0  0  0  0  0
  195.7110  174.4610  136.9340 C   0  0  0  0  0  1  0  0  0  0  0  0
  1 16  1  0  0  0  0
  1 20  1  0  0  0  0
  2 24  1  6  0  0  0
  2 12  1  0  0  0  0
  2 27  1  0  0  0  0
  3  4  1  0  0  0  0
  5  6  1  0  0  0  0
  6 28  2  0  0  0  0
  7 17  1  0  0  0  0
  7 24  1  1  0  0  0
  9 26  1  0  0  0  0
 11  3  1  0  0  0  0
 12  8  1  6  0  0  0
 12 13  1  0  0  0  0
 13 11  1  1  0  0  0
 13 22  1  0  0  0  0
 14 22  1  0  0  0  0
 14 23  1  1  0  0  0
 15  9  2  0  0  0  0
 16 19  1  0  0  0  0
 17 10  1  6  0  0  0
 17  8  1  0  0  0  0
 18  6  1  0  0  0  0
 18 15  1  0  0  0  0
 19  7  1  0  0  0  0
 20 29  1  6  0  0  0
 20 10  1  0  0  0  0
 21  4  1  0  0  0  0
 22 21  1  1  0  0  0
 25  5  2  0  0  0  0
 27  5  1  6  0  0  0
 27 14  1  0  0  0  0
 28  9  1  0  0  0  0
 28 23  1  0  0  0  0
 30 29  1  0  0  0  0
 30 32  1  0  0  0  0
 31 30  1  0  0  0  0
M  END
>  <MODEL>
4

>  <REMARK>
 VINA RESULT:      -7.9      4.941      8.550
  Name = 
  2 active torsions:
  status: ('A' for Active; 'I' for Inactive)
    1  A    between atoms: C_20  and  N_29
    2  A    between atoms: N_29  and  C_30
                            x       y       z     vdW  Elec       q    Type
                         _______ _______ _______ _____ _____    ______ ____

>  <TORSDO>
F 2

$$$$
=
 OpenBabel11122410453D

 32 37  0  0  1  0  0  0  0  0999 V2000
  194.5160  175.2150  136.7830 C   0  0  0  0  0  2  0  0  0  0  0  0
  189.9670  177.4490  139.1580 C   0  0  2  0  0  3  0  0  0  0  0  0
  185.4560  176.8030  137.2170 C   0  0  0  0  0  2  0  0  0  0  0  0
  185.0520  177.7790  138.3030 C   0  0  0  0  0  2  0  0  0  0  0  0
  189.2440  176.9590  141.6760 C   0  0  0  0  0  0  0  0  0  0  0  0
  188.2200  177.1940  142.7010 C   0  0  0  0  0  0  0  0  0  0  0  0
  192.1610  176.7320  138.1720 C   0  0  2  0  0  3  0  0  0  0  0  0
  190.0710  176.5950  136.7930 C   0  0  0  0  0  2  0  0  0  0  0  0
  186.3970  177.9600  143.6280 C   0  0  0  0  0  0  0  0  0  0  0  0
  192.2060  175.7980  135.8170 C   0  0  0  0  0  2  0  0  0  0  0  0
  186.8220  176.2300  137.5520 C   0  0  0  0  0  2  0  0  0  0  0  0
  189.2110  176.7000  138.0480 C   0  0  2  0  0  3  0  0  0  0  0  0
  187.8580  177.3530  137.6940 C   0  0  2  0  0  3  0  0  0  0  0  0
  187.5900  177.8590  140.0360 C   0  0  2  0  0  3  0  0  0  0  0  0
  187.1130  177.1880  144.5330 C   0  0  0  0  0  3  0  0  0  0  0  0
  194.2840  176.4200  137.4640 O   0  0  0  0  0  0  0  0  0  0  0  0
  191.4020  175.9190  137.1080 C   0  0  1  0  0  3  0  0  0  0  0  0
  188.2050  176.7440  143.9340 O   0  0  0  0  0  0  0  0  0  0  0  0
  193.4400  176.1070  138.4790 N   0  0  0  0  0  2  0  0  0  0  0  0
  193.3040  174.7440  135.9620 C   0  0  1  0  0  3  0  0  0  0  0  0
  186.0880  178.8960  138.3820 C   0  0  0  0  0  2  0  0  0  0  0  0
  187.4430  178.3920  138.6730 N   0  0  2  0  0  0  0  0  0  0  0  0
  186.8260  178.6280  141.1370 C   0  0  0  0  0  2  0  0  0  0  0  0
  191.3340  176.8300  139.4490 C   0  0  0  0  0  2  0  0  0  0  0  0
  190.2110  176.1850  141.8940 O   0  0  0  0  0  0  0  0  0  0  0  0
  185.1070  178.6550  143.8900 C   0  0  0  0  0  1  0  0  0  0  0  0
  189.0900  177.7580  140.3950 C   0  0  2  0  0  3  0  0  0  0  0  0
  187.1040  177.9510  142.4510 C   0  0  0  0  0  0  0  0  0  0  0  0
  193.7520  174.3130  134.6470 N   0  0  0  0  0  2  0  0  0  0  0  0
  193.6320  172.8650  134.5940 C   0  0  0  0  0  3  0  0  0  0  0  0
  194.9970  172.2390  134.7840 C   0  0  0  0  0  1  0  0  0  0  0  0
  192.7060  172.3870  135.6950 C   0  0  0  0  0  1  0  0  0  0  0  0
  1 16  1  0  0  0  0
  2 24  1  1  0  0  0
  2 27  1  0  0  0  0
  3 11  1  0  0  0  0
  3  4  1  0  0  0  0
  4 21  1  0  0  0  0
  5 25  2  0  0  0  0
  5  6  1  0  0  0  0
  6 18  1  0  0  0  0
  7 19  1  0  0  0  0
  7 24  1  1  0  0  0
  8 17  1  0  0  0  0
  9 26  1  0  0  0  0
  9 15  2  0  0  0  0
 10 20  1  0  0  0  0
 12  8  1  6  0  0  0
 12  2  1  0  0  0  0
 13 11  1  1  0  0  0
 13 12  1  0  0  0  0
 13 22  1  0  0  0  0
 14 27  1  0  0  0  0
 14 23  1  1  0  0  0
 16 19  1  0  0  0  0
 17 10  1  6  0  0  0
 17  7  1  0  0  0  0
 18 15  1  0  0  0  0
 20 29  1  6  0  0  0
 20  1  1  0  0  0  0
 22 21  1  6  0  0  0
 22 14  1  0  0  0  0
 23 28  1  0  0  0  0
 27  5  1  1  0  0  0
 28  6  2  0  0  0  0
 28  9  1  0  0  0  0
 30 29  1  0  0  0  0
 30 31  1  0  0  0  0
 30 32  1  0  0  0  0
M  END
>  <MODEL>
5

>  <REMARK>
 VINA RESULT:      -7.9      5.743      9.191
  Name = 
  2 active torsions:
  status: ('A' for Active; 'I' for Inactive)
    1  A    between atoms: C_20  and  N_29
    2  A    between atoms: N_29  and  C_30
                            x       y       z     vdW  Elec       q    Type
                         _______ _______ _______ _____ _____    ______ ____

>  <TORSDO>
F 2

$$$$
=
 OpenBabel11122410453D

 32 37  0  0  1  0  0  0  0  0999 V2000
  185.2150  178.3750  146.8470 C   0  0  0  0  0  2  0  0  0  0  0  0
  186.0790  178.6230  141.3230 C   0  0  2  0  0  3  0  0  0  0  0  0
  190.1760  176.7530  139.2620 C   0  0  0  0  0  2  0  0  0  0  0  0
  189.6120  177.3870  138.0070 C   0  0  0  0  0  2  0  0  0  0  0  0
  184.3920  177.5980  139.5330 C   0  0  0  0  0  0  0  0  0  0  0  0
  184.1610  177.3410  138.1070 C   0  0  0  0  0  0  0  0  0  0  0  0
  185.5660  178.8190  143.7730 C   0  0  2  0  0  3  0  0  0  0  0  0
  187.8700  178.1650  143.0310 C   0  0  0  0  0  2  0  0  0  0  0  0
  184.5160  177.3230  135.9510 C   0  0  0  0  0  0  0  0  0  0  0  0
  187.3750  178.2650  145.4580 C   0  0  0  0  0  2  0  0  0  0  0  0
  189.0710  176.6350  140.2950 C   0  0  0  0  0  2  0  0  0  0  0  0
  187.3470  177.8130  141.6420 C   0  0  2  0  0  3  0  0  0  0  0  0
  188.4680  178.0120  140.6020 C   0  0  2  0  0  3  0  0  0  0  0  0
  186.7570  178.0930  138.9050 C   0  0  2  0  0  3  0  0  0  0  0  0
  183.2970  176.7270  136.2470 C   0  0  0  0  0  3  0  0  0  0  0  0
  184.9030  179.3330  145.8700 O   0  0  0  0  0  0  0  0  0  0  0  0
  186.7910  177.9420  144.0860 C   0  0  1  0  0  3  0  0  0  0  0  0
  183.1220  176.7570  137.5570 O   0  0  0  0  0  0  0  0  0  0  0  0
  184.5270  178.6270  144.7750 N   0  0  0  0  0  2  0  0  0  0  0  0
  186.5320  177.6330  146.5660 C   0  0  1  0  0  3  0  0  0  0  0  0
  189.0600  178.7680  138.3510 C   0  0  0  0  0  2  0  0  0  0  0  0
  188.0030  178.7160  139.3780 N   0  0  2  0  0  0  0  0  0  0  0  0
  186.3660  178.4110  137.4450 C   0  0  0  0  0  2  0  0  0  0  0  0
  185.0040  178.4670  142.3980 C   0  0  0  0  0  2  0  0  0  0  0  0
  183.5900  177.1730  140.4050 O   0  0  0  0  0  0  0  0  0  0  0  0
  185.1030  177.5030  134.5960 C   0  0  0  0  0  1  0  0  0  0  0  0
  185.5990  178.4570  139.8610 C   0  0  2  0  0  3  0  0  0  0  0  0
  185.0720  177.7040  137.1480 C   0  0  0  0  0  0  0  0  0  0  0  0
  187.3090  177.5510  147.7920 N   0  0  0  0  0  2  0  0  0  0  0  0
  188.7030  177.7820  147.4460 C   0  0  0  0  0  3  0  0  0  0  0  0
  189.3550  178.6280  148.5200 C   0  0  0  0  0  1  0  0  0  0  0  0
  189.4320  176.4570  147.3440 C   0  0  0  0  0  1  0  0  0  0  0  0
  2 12  1  0  0  0  0
  2 24  1  1  0  0  0
  3 11  1  0  0  0  0
  4 21  1  0  0  0  0
  4  3  1  0  0  0  0
  5 25  2  0  0  0  0
  6  5  1  0  0  0  0
  7 24  1  6  0  0  0
  7 17  1  0  0  0  0
  7 19  1  0  0  0  0
  9 15  2  0  0  0  0
  9 28  1  0  0  0  0
 10 20  1  0  0  0  0
 12  8  1  1  0  0  0
 13 11  1  6  0  0  0
 13 12  1  0  0  0  0
 14 23  1  6  0  0  0
 14 22  1  0  0  0  0
 14 27  1  0  0  0  0
 15 18  1  0  0  0  0
 16  1  1  0  0  0  0
 17  8  1  6  0  0  0
 17 10  1  0  0  0  0
 18  6  1  0  0  0  0
 19 16  1  0  0  0  0
 20  1  1  0  0  0  0
 20 29  1  1  0  0  0
 22 21  1  6  0  0  0
 22 13  1  0  0  0  0
 26  9  1  0  0  0  0
 27  5  1  1  0  0  0
 27  2  1  0  0  0  0
 28 23  1  0  0  0  0
 28  6  2  0  0  0  0
 30 29  1  0  0  0  0
 30 31  1  0  0  0  0
 32 30  1  0  0  0  0
M  END
>  <MODEL>
6

>  <REMARK>
 VINA RESULT:      -7.8      3.010      8.272
  Name = 
  2 active torsions:
  status: ('A' for Active; 'I' for Inactive)
    1  A    between atoms: C_20  and  N_29
    2  A    between atoms: N_29  and  C_30
                            x       y       z     vdW  Elec       q    Type
                         _______ _______ _______ _____ _____    ______ ____

>  <TORSDO>
F 2

$$$$
=
 OpenBabel11122410453D

 32 37  0  0  1  0  0  0  0  0999 V2000
  192.6020  175.9240  137.2720 C   0  0  0  0  0  2  0  0  0  0  0  0
  188.1650  178.1880  139.8240 C   0  0  2  0  0  3  0  0  0  0  0  0
  183.5920  177.6830  137.9900 C   0  0  0  0  0  2  0  0  0  0  0  0
  183.2370  178.6390  139.1110 C   0  0  0  0  0  2  0  0  0  0  0  0
  187.4990  177.6490  142.3480 C   0  0  0  0  0  0  0  0  0  0  0  0
  186.5070  177.8780  143.4060 C   0  0  0  0  0  0  0  0  0  0  0  0
  190.3170  177.4520  138.7610 C   0  0  2  0  0  3  0  0  0  0  0  0
  188.1890  177.3930  137.4370 C   0  0  0  0  0  2  0  0  0  0  0  0
  184.7260  178.6560  144.4010 C   0  0  0  0  0  0  0  0  0  0  0  0
  190.2790  176.5780  136.3840 C   0  0  0  0  0  2  0  0  0  0  0  0
  184.9530  177.0750  138.2740 C   0  0  0  0  0  2  0  0  0  0  0  0
  187.3640  177.4830  138.7170 C   0  0  2  0  0  3  0  0  0  0  0  0
  186.0160  178.1720  138.4160 C   0  0  2  0  0  3  0  0  0  0  0  0
  185.8210  178.6240  140.7760 C   0  0  2  0  0  3  0  0  0  0  0  0
  185.4500  177.8470  145.2660 C   0  0  0  0  0  3  0  0  0  0  0  0
  192.4130  177.1160  137.9890 O   0  0  0  0  0  0  0  0  0  0  0  0
  189.5130  176.6820  137.6980 C   0  0  1  0  0  3  0  0  0  0  0  0
  186.5150  177.3970  144.6270 O   0  0  0  0  0  0  0  0  0  0  0  0
  191.5900  176.7950  139.0190 N   0  0  0  0  0  2  0  0  0  0  0  0
  191.3590  175.4990  136.4720 C   0  0  1  0  0  3  0  0  0  0  0  0
  184.2980  179.7330  139.1900 C   0  0  0  0  0  2  0  0  0  0  0  0
  185.6490  179.1940  139.4310 N   0  0  2  0  0  0  0  0  0  0  0  0
  185.1030  179.3790  141.9160 C   0  0  0  0  0  2  0  0  0  0  0  0
  189.5250  177.5350  140.0630 C   0  0  0  0  0  2  0  0  0  0  0  0
  188.4550  176.8500  142.5200 O   0  0  0  0  0  0  0  0  0  0  0  0
  183.4580  179.3700  144.7150 C   0  0  0  0  0  1  0  0  0  0  0  0
  187.3270  178.4830  141.0920 C   0  0  2  0  0  3  0  0  0  0  0  0
  185.4010  178.6640  143.2050 C   0  0  0  0  0  0  0  0  0  0  0  0
  191.7620  175.0930  135.1360 N   0  0  0  0  0  2  0  0  0  0  0  0
  191.4310  173.6850  134.9840 C   0  0  0  0  0  3  0  0  0  0  0  0
  192.6840  172.8520  135.1480 C   0  0  0  0  0  1  0  0  0  0  0  0
  190.4210  173.2800  136.0400 C   0  0  0  0  0  1  0  0  0  0  0  0
  1 16  1  0  0  0  0
  2 24  1  1  0  0  0
  2 27  1  0  0  0  0
  3 11  1  0  0  0  0
  3  4  1  0  0  0  0
  4 21  1  0  0  0  0
  5 25  2  0  0  0  0
  5  6  1  0  0  0  0
  6 18  1  0  0  0  0
  7 19  1  0  0  0  0
  7 24  1  1  0  0  0
  8 17  1  0  0  0  0
  9 26  1  0  0  0  0
  9 15  2  0  0  0  0
 10 20  1  0  0  0  0
 12  8  1  6  0  0  0
 12  2  1  0  0  0  0
 13 11  1  1  0  0  0
 13 12  1  0  0  0  0
 13 22  1  0  0  0  0
 14 27  1  0  0  0  0
 14 23  1  1  0  0  0
 16 19  1  0  0  0  0
 17 10  1  6  0  0  0
 17  7  1  0  0  0  0
 18 15  1  0  0  0  0
 20 29  1  6  0  0  0
 20  1  1  0  0  0  0
 22 21  1  6  0  0  0
 22 14  1  0  0  0  0
 23 28  1  0  0  0  0
 27  5  1  1  0  0  0
 28  6  2  0  0  0  0
 28  9  1  0  0  0  0
 30 29  1  0  0  0  0
 30 31  1  0  0  0  0
 30 32  1  0  0  0  0
M  END
>  <MODEL>
7

>  <REMARK>
 VINA RESULT:      -7.5      4.617      7.852
  Name = 
  2 active torsions:
  status: ('A' for Active; 'I' for Inactive)
    1  A    between atoms: C_20  and  N_29
    2  A    between atoms: N_29  and  C_30
                            x       y       z     vdW  Elec       q    Type
                         _______ _______ _______ _____ _____    ______ ____

>  <TORSDO>
F 2

$$$$
=
 OpenBabel11122410453D

 32 37  0  0  1  0  0  0  0  0999 V2000
  185.9880  178.3790  137.7210 C   0  0  0  0  0  2  0  0  0  0  0  0
  188.5060  178.0590  142.7090 C   0  0  2  0  0  3  0  0  0  0  0  0
  185.9030  177.5070  146.8860 C   0  0  0  0  0  2  0  0  0  0  0  0
  187.2590  177.6890  147.5370 C   0  0  0  0  0  2  0  0  0  0  0  0
  190.3480  176.2270  143.3010 C   0  0  0  0  0  0  0  0  0  0  0  0
  191.2090  175.6840  144.3590 C   0  0  0  0  0  0  0  0  0  0  0  0
  187.6030  178.4350  140.3970 C   0  0  2  0  0  3  0  0  0  0  0  0
  186.0610  178.5550  142.3700 C   0  0  0  0  0  2  0  0  0  0  0  0
  192.1340  175.4600  146.3250 C   0  0  0  0  0  0  0  0  0  0  0  0
  185.1210  178.8460  140.0950 C   0  0  0  0  0  2  0  0  0  0  0  0
  186.1010  177.1580  145.4230 C   0  0  0  0  0  2  0  0  0  0  0  0
  187.0810  177.8250  143.2390 C   0  0  2  0  0  3  0  0  0  0  0  0
  186.9070  178.2520  144.7110 C   0  0  2  0  0  3  0  0  0  0  0  0
  189.1400  177.4420  145.1180 C   0  0  2  0  0  3  0  0  0  0  0  0
  192.6400  174.5170  145.4410 C   0  0  0  0  0  3  0  0  0  0  0  0
  187.1290  178.9940  138.2600 O   0  0  0  0  0  0  0  0  0  0  0  0
  186.1870  178.1230  140.9130 C   0  0  1  0  0  3  0  0  0  0  0  0
  192.0550  174.6860  144.2670 O   0  0  0  0  0  0  0  0  0  0  0  0
  187.7410  178.0380  139.0020 N   0  0  0  0  0  2  0  0  0  0  0  0
  184.8860  178.1310  138.7640 C   0  0  1  0  0  3  0  0  0  0  0  0
  188.0080  178.8110  146.8240 C   0  0  0  0  0  2  0  0  0  0  0  0
  188.1990  178.5390  145.3870 N   0  0  2  0  0  0  0  0  0  0  0  0
  190.3610  177.3640  146.0620 C   0  0  0  0  0  2  0  0  0  0  0  0
  188.6440  177.6940  141.2320 C   0  0  0  0  0  2  0  0  0  0  0  0
  190.2930  175.6810  142.1690 O   0  0  0  0  0  0  0  0  0  0  0  0
  192.5210  175.6280  147.7520 C   0  0  0  0  0  1  0  0  0  0  0  0
  189.6060  177.5050  143.6460 C   0  0  2  0  0  3  0  0  0  0  0  0
  191.2080  176.1990  145.6300 C   0  0  0  0  0  0  0  0  0  0  0  0
  183.6020  178.5300  138.2110 N   0  0  0  0  0  2  0  0  0  0  0  0
  182.8730  179.2350  139.2530 C   0  0  0  0  0  3  0  0  0  0  0  0
  182.3950  180.5690  138.7190 C   0  0  0  0  0  1  0  0  0  0  0  0
  181.6750  178.4130  139.6860 C   0  0  0  0  0  1  0  0  0  0  0  0
  1 16  1  0  0  0  0
  1 20  1  0  0  0  0
  2 24  1  6  0  0  0
  2 12  1  0  0  0  0
  2 27  1  0  0  0  0
  3  4  1  0  0  0  0
  5  6  1  0  0  0  0
  6 28  2  0  0  0  0
  7 17  1  0  0  0  0
  7 24  1  1  0  0  0
  9 26  1  0  0  0  0
 11  3  1  0  0  0  0
 12  8  1  6  0  0  0
 12 13  1  0  0  0  0
 13 22  1  0  0  0  0
 13 11  1  1  0  0  0
 14 22  1  0  0  0  0
 14 23  1  1  0  0  0
 15  9  2  0  0  0  0
 16 19  1  0  0  0  0
 17 10  1  6  0  0  0
 17  8  1  0  0  0  0
 18  6  1  0  0  0  0
 18 15  1  0  0  0  0
 19  7  1  0  0  0  0
 20 29  1  6  0  0  0
 20 10  1  0  0  0  0
 21  4  1  0  0  0  0
 22 21  1  1  0  0  0
 25  5  2  0  0  0  0
 27  5  1  6  0  0  0
 27 14  1  0  0  0  0
 28 23  1  0  0  0  0
 28  9  1  0  0  0  0
 29 30  1  0  0  0  0
 30 32  1  0  0  0  0
 31 30  1  0  0  0  0
M  END
>  <MODEL>
8

>  <REMARK>
 VINA RESULT:      -7.4      3.264      5.093
  Name = 
  2 active torsions:
  status: ('A' for Active; 'I' for Inactive)
    1  A    between atoms: C_20  and  N_29
    2  A    between atoms: N_29  and  C_30
                            x       y       z     vdW  Elec       q    Type
                         _______ _______ _______ _____ _____    ______ ____

>  <TORSDO>
F 2

$$$$
=
 OpenBabel11122410453D

 32 37  0  0  1  0  0  0  0  0999 V2000
  195.8520  174.2190  136.9240 C   0  0  0  0  0  2  0  0  0  0  0  0
  190.9670  176.7280  138.0050 C   0  0  2  0  0  3  0  0  0  0  0  0
  186.7000  174.9470  136.2310 C   0  0  0  0  0  2  0  0  0  0  0  0
  186.1340  176.2180  136.8310 C   0  0  0  0  0  2  0  0  0  0  0  0
  190.0650  177.1660  140.4740 C   0  0  0  0  0  0  0  0  0  0  0  0
  188.9420  177.6710  141.2730 C   0  0  0  0  0  0  0  0  0  0  0  0
  193.2840  175.9100  137.4900 C   0  0  2  0  0  3  0  0  0  0  0  0
  191.3370  175.0510  136.1650 C   0  0  0  0  0  2  0  0  0  0  0  0
  186.9950  178.5480  141.7330 C   0  0  0  0  0  0  0  0  0  0  0  0
  193.6000  174.1580  135.6880 C   0  0  0  0  0  2  0  0  0  0  0  0
  188.0680  174.6830  136.8330 C   0  0  0  0  0  2  0  0  0  0  0  0
  190.3650  175.5410  137.2340 C   0  0  2  0  0  3  0  0  0  0  0  0
  189.0050  175.8720  136.5840 C   0  0  2  0  0  3  0  0  0  0  0  0
  188.5000  177.2040  138.5280 C   0  0  2  0  0  3  0  0  0  0  0  0
  187.6830  178.2540  142.9030 C   0  0  0  0  0  3  0  0  0  0  0  0
  195.4770  175.5640  137.0720 O   0  0  0  0  0  0  0  0  0  0  0  0
  192.6800  174.6820  136.7860 C   0  0  1  0  0  3  0  0  0  0  0  0
  188.8510  177.7260  142.5810 O   0  0  0  0  0  0  0  0  0  0  0  0
  194.5730  175.5800  138.0830 N   0  0  0  0  0  2  0  0  0  0  0  0
  194.7530  173.3530  136.2870 C   0  0  1  0  0  3  0  0  0  0  0  0
  187.0770  177.3780  136.5250 C   0  0  0  0  0  2  0  0  0  0  0  0
  188.4340  177.1590  137.0600 N   0  0  2  0  0  0  0  0  0  0  0  0
  187.5910  178.2540  139.2040 C   0  0  0  0  0  2  0  0  0  0  0  0
  192.3440  176.4050  138.5850 C   0  0  0  0  0  2  0  0  0  0  0  0
  191.0620  176.6330  141.0260 O   0  0  0  0  0  0  0  0  0  0  0  0
  185.6410  179.1580  141.6370 C   0  0  0  0  0  1  0  0  0  0  0  0
  189.9660  177.3960  138.9770 C   0  0  2  0  0  3  0  0  0  0  0  0
  187.8010  178.1610  140.6910 C   0  0  0  0  0  0  0  0  0  0  0  0
  195.3430  172.5010  135.2680 N   0  0  0  0  0  2  0  0  0  0  0  0
  195.8270  171.2980  135.9260 C   0  0  0  0  0  3  0  0  0  0  0  0
  194.6490  170.4800  136.4110 C   0  0  0  0  0  1  0  0  0  0  0  0
  196.6400  170.4710  134.9490 C   0  0  0  0  0  1  0  0  0  0  0  0
  1 16  1  0  0  0  0
  2 24  1  1  0  0  0
  2 27  1  0  0  0  0
  3  4  1  0  0  0  0
  3 11  1  0  0  0  0
  5 25  2  0  0  0  0
  5  6  1  0  0  0  0
  6 18  1  0  0  0  0
  7 19  1  0  0  0  0
  7 24  1  1  0  0  0
  8 17  1  0  0  0  0
  9 15  2  0  0  0  0
 10 20  1  0  0  0  0
 12  8  1  6  0  0  0
 12  2  1  0  0  0  0
 13 11  1  1  0  0  0
 13 22  1  0  0  0  0
 13 12  1  0  0  0  0
 14 27  1  0  0  0  0
 14 23  1  6  0  0  0
 16 19  1  0  0  0  0
 17 10  1  6  0  0  0
 17  7  1  0  0  0  0
 18 15  1  0  0  0  0
 20 29  1  6  0  0  0
 20  1  1  0  0  0  0
 21  4  1  0  0  0  0
 22 21  1  1  0  0  0
 22 14  1  0  0  0  0
 23 28  1  0  0  0  0
 26  9  1  0  0  0  0
 27  5  1  1  0  0  0
 28  6  2  0  0  0  0
 28  9  1  0  0  0  0
 29 30  1  0  0  0  0
 30 31  1  0  0  0  0
 32 30  1  0  0  0  0
M  END
>  <MODEL>
9

>  <REMARK>
 VINA RESULT:      -7.1      6.927     10.713
  Name = 
  2 active torsions:
  status: ('A' for Active; 'I' for Inactive)
    1  A    between atoms: C_20  and  N_29
    2  A    between atoms: N_29  and  C_30
                            x       y       z     vdW  Elec       q    Type
                         _______ _______ _______ _____ _____    ______ ____

>  <TORSDO>
F 2

$$$$
