=
 OpenBabel11122412033D

 34 42  0  0  1  0  0  0  0  0999 V2000
  188.2860  178.0300  138.8320 C   0  0  1  0  0  3  0  0  0  0  0  0
  186.9600  178.6750  140.9940 C   0  0  0  0  0  3  0  0  0  0  0  0
  193.4430  174.5110  136.1620 C   0  0  2  0  0  0  0  0  0  0  0  0
  189.4390  176.7790  137.0470 N   0  0  0  0  0  0  0  0  0  0  0  0
  191.5360  175.5070  137.6110 C   0  0  0  0  0  0  0  0  0  0  0  0
  193.9000  174.8300  137.5760 C   0  0  2  0  0  3  0  0  0  0  0  0
  194.8690  174.2330  136.5800 C   0  0  0  0  0  2  0  0  0  0  0  0
  192.1420  175.6000  134.6010 C   0  0  0  0  0  2  0  0  0  0  0  0
  189.0100  177.6030  141.2110 C   0  0  0  0  0  0  0  0  0  0  0  0
  190.5440  177.2470  143.8340 C   0  0  0  0  0  3  0  0  0  0  0  0
  191.3810  175.8450  138.8590 N   0  0  0  0  0  0  0  0  0  0  0  0
  190.9370  176.1780  135.2690 C   0  0  0  0  0  3  0  0  0  0  0  0
  190.2380  176.8290  140.8100 C   0  0  1  0  0  3  0  0  0  0  0  0
  187.2990  178.4630  142.3980 N   0  0  0  0  0  0  0  0  0  0  0  0
  190.6380  176.1220  136.5790 C   0  0  0  0  0  0  0  0  0  0  0  0
  193.3180  175.7630  135.4380 N   0  0  0  0  0  2  0  0  0  0  0  0
  189.2160  177.3580  143.6960 C   0  0  0  0  0  0  0  0  0  0  0  0
  189.1660  176.8260  138.4900 C   0  0  1  0  0  3  0  0  0  0  0  0
  192.4740  174.3580  137.3310 C   0  0  2  0  0  3  0  0  0  0  0  0
  190.4720  176.9050  139.2890 C   0  0  2  0  0  3  0  0  0  0  0  0
  187.3040  177.8220  136.5620 C   0  0  0  0  0  3  0  0  0  0  0  0
  191.5860  177.4950  142.8200 C   0  0  0  0  0  3  0  0  0  0  0  0
  188.4390  177.2650  136.1250 C   0  0  0  0  0  3  0  0  0  0  0  0
  191.4560  177.3540  141.5010 C   0  0  0  0  0  3  0  0  0  0  0  0
  188.5670  177.8100  142.4390 C   0  0  0  0  0  0  0  0  0  0  0  0
  186.9920  177.9190  138.0300 C   0  0  0  0  0  2  0  0  0  0  0  0
  188.0400  178.0270  140.2680 N   0  0  0  0  0  0  0  0  0  0  0  0
  188.4250  177.0660  144.8530 N   0  0  0  0  0  2  0  0  0  0  0  0
  188.2340  177.9470  145.8680 O   0  0  0  0  0  0  0  0  0  0  0  0
  185.7220  179.4480  146.9530 O   0  0  0  0  0  0  0  0  0  0  0  0
  185.9220  177.6130  145.4790 C   0  0  0  0  0  2  0  0  0  0  0  0
  187.0420  177.5440  146.4780 C   0  0  2  0  0  3  0  0  0  0  0  0
  185.0060  178.6830  146.0240 C   0  0  0  0  0  2  0  0  0  0  0  0
  186.6440  178.5590  147.5240 C   0  0  0  0  0  2  0  0  0  0  0  0
  1 26  1  6  0  0  0
  1 27  1  0  0  0  0
  2 14  2  0  0  0  0
  3  7  1  6  0  0  0
  3 19  1  0  0  0  0
  3  6  1  0  0  0  0
  5 11  2  0  0  0  0
  6  7  1  1  0  0  0
  8 12  1  0  0  0  0
  8 16  1  0  0  0  0
  9 25  2  0  0  0  0
 12 15  2  0  0  0  0
 13  9  1  0  0  0  0
 13 24  1  1  0  0  0
 14 25  1  0  0  0  0
 15  4  1  0  0  0  0
 15  5  1  0  0  0  0
 16  3  1  0  0  0  0
 17 10  2  0  0  0  0
 17 28  1  0  0  0  0
 18  4  1  6  0  0  0
 18  1  1  0  0  0  0
 18 20  1  0  0  0  0
 19  6  1  0  0  0  0
 19  5  1  6  0  0  0
 20 11  1  6  0  0  0
 20 13  1  0  0  0  0
 21 26  1  0  0  0  0
 22 10  1  0  0  0  0
 23 21  2  0  0  0  0
 23  4  1  0  0  0  0
 24 22  2  0  0  0  0
 25 17  1  0  0  0  0
 27  2  1  0  0  0  0
 27  9  1  0  0  0  0
 28 29  1  0  0  0  0
 30 34  1  0  0  0  0
 31 33  1  0  0  0  0
 31 32  1  0  0  0  0
 32 29  1  6  0  0  0
 32 34  1  0  0  0  0
 33 30  1  0  0  0  0
M  END
>  <MODEL>
1

>  <REMARK>
 VINA RESULT:      -9.6      0.000      0.000
  Name = 
  3 active torsions:
  status: ('A' for Active; 'I' for Inactive)
    1  A    between atoms: C_17  and  N_28
    2  A    between atoms: N_28  and  O_29
    3  A    between atoms: O_29  and  C_32
                            x       y       z     vdW  Elec       q    Type
                         _______ _______ _______ _____ _____    ______ ____

>  <TORSDO>
F 3

$$$$
=
 OpenBabel11122412033D

 34 42  0  0  1  0  0  0  0  0999 V2000
  188.2230  178.0330  138.7260 C   0  0  1  0  0  3  0  0  0  0  0  0
  186.8290  178.6700  140.8470 C   0  0  0  0  0  3  0  0  0  0  0  0
  193.4850  174.5530  136.2130 C   0  0  2  0  0  0  0  0  0  0  0  0
  189.4390  176.7900  136.9770 N   0  0  0  0  0  0  0  0  0  0  0  0
  191.5280  175.5350  137.6040 C   0  0  0  0  0  0  0  0  0  0  0  0
  193.8970  174.8770  137.6390 C   0  0  2  0  0  3  0  0  0  0  0  0
  194.9000  174.2870  136.6740 C   0  0  0  0  0  2  0  0  0  0  0  0
  192.2230  175.6310  134.6130 C   0  0  0  0  0  2  0  0  0  0  0  0
  188.8800  177.6140  141.1260 C   0  0  0  0  0  0  0  0  0  0  0  0
  190.3380  177.2720  143.7930 C   0  0  0  0  0  3  0  0  0  0  0  0
  191.3340  175.8730  138.8460 N   0  0  0  0  0  0  0  0  0  0  0  0
  190.9930  176.2000  135.2440 C   0  0  0  0  0  3  0  0  0  0  0  0
  190.1250  176.8490  140.7620 C   0  0  1  0  0  3  0  0  0  0  0  0
  187.1280  178.4610  142.2610 N   0  0  0  0  0  0  0  0  0  0  0  0
  190.6560  176.1420  136.5450 C   0  0  0  0  0  0  0  0  0  0  0  0
  193.3710  175.8040  135.4840 N   0  0  0  0  0  2  0  0  0  0  0  0
  189.0150  177.3720  143.6150 C   0  0  0  0  0  0  0  0  0  0  0  0
  189.1230  176.8360  138.4110 C   0  0  1  0  0  3  0  0  0  0  0  0
  192.4830  174.3940  137.3530 C   0  0  2  0  0  3  0  0  0  0  0  0
  190.4040  176.9250  139.2490 C   0  0  2  0  0  3  0  0  0  0  0  0
  187.3110  177.8160  136.4280 C   0  0  0  0  0  3  0  0  0  0  0  0
  191.4080  177.5270  142.8100 C   0  0  0  0  0  3  0  0  0  0  0  0
  188.4630  177.2680  136.0260 C   0  0  0  0  0  3  0  0  0  0  0  0
  191.3190  177.3850  141.4880 C   0  0  0  0  0  3  0  0  0  0  0  0
  188.3990  177.8180  142.3390 C   0  0  0  0  0  0  0  0  0  0  0  0
  186.9550  177.9110  137.8850 C   0  0  0  0  0  2  0  0  0  0  0  0
  187.9350  178.0300  140.1540 N   0  0  0  0  0  0  0  0  0  0  0  0
  188.1920  177.0740  144.7490 N   0  0  0  0  0  2  0  0  0  0  0  0
  187.8120  178.0060  145.6600 O   0  0  0  0  0  0  0  0  0  0  0  0
  189.7590  177.7120  148.0820 O   0  0  0  0  0  0  0  0  0  0  0  0
  187.4710  178.2940  147.9860 C   0  0  0  0  0  2  0  0  0  0  0  0
  187.7610  177.3210  146.8790 C   0  0  2  0  0  3  0  0  0  0  0  0
  188.7170  178.2660  148.8390 C   0  0  0  0  0  2  0  0  0  0  0  0
  189.1370  176.7980  147.2200 C   0  0  0  0  0  2  0  0  0  0  0  0
  1 26  1  6  0  0  0
  1 27  1  0  0  0  0
  2 14  2  0  0  0  0
  3  7  1  6  0  0  0
  3 19  1  0  0  0  0
  3  6  1  0  0  0  0
  5 11  2  0  0  0  0
  6  7  1  1  0  0  0
  8 12  1  0  0  0  0
  8 16  1  0  0  0  0
  9 25  2  0  0  0  0
 12 15  2  0  0  0  0
 13  9  1  0  0  0  0
 13 24  1  1  0  0  0
 14 25  1  0  0  0  0
 15  4  1  0  0  0  0
 15  5  1  0  0  0  0
 16  3  1  0  0  0  0
 17 10  2  0  0  0  0
 17 28  1  0  0  0  0
 18  4  1  6  0  0  0
 18  1  1  0  0  0  0
 18 20  1  0  0  0  0
 19  5  1  6  0  0  0
 19  6  1  0  0  0  0
 20 11  1  6  0  0  0
 20 13  1  0  0  0  0
 21 26  1  0  0  0  0
 22 10  1  0  0  0  0
 23 21  2  0  0  0  0
 23  4  1  0  0  0  0
 24 22  2  0  0  0  0
 25 17  1  0  0  0  0
 27  2  1  0  0  0  0
 27  9  1  0  0  0  0
 28 29  1  0  0  0  0
 30 33  1  0  0  0  0
 31 33  1  0  0  0  0
 32 29  1  6  0  0  0
 32 34  1  0  0  0  0
 32 31  1  0  0  0  0
 34 30  1  0  0  0  0
M  END
>  <MODEL>
2

>  <REMARK>
 VINA RESULT:      -9.4      0.876      1.356
  Name = 
  3 active torsions:
  status: ('A' for Active; 'I' for Inactive)
    1  A    between atoms: C_17  and  N_28
    2  A    between atoms: N_28  and  O_29
    3  A    between atoms: O_29  and  C_32
                            x       y       z     vdW  Elec       q    Type
                         _______ _______ _______ _____ _____    ______ ____

>  <TORSDO>
F 3

$$$$
=
 OpenBabel11122412033D

 34 42  0  0  1  0  0  0  0  0999 V2000
  190.8320  177.5630  143.4980 C   0  0  1  0  0  3  0  0  0  0  0  0
  192.5150  176.9150  141.6010 C   0  0  0  0  0  3  0  0  0  0  0  0
  184.3430  178.4880  145.2710 C   0  0  2  0  0  0  0  0  0  0  0  0
  188.9380  177.5860  145.0750 N   0  0  0  0  0  0  0  0  0  0  0  0
  186.6030  177.8460  144.1720 C   0  0  0  0  0  0  0  0  0  0  0  0
  184.3760  178.8150  143.7870 C   0  0  2  0  0  3  0  0  0  0  0  0
  183.1380  179.1090  144.6030 C   0  0  0  0  0  2  0  0  0  0  0  0
  185.8350  178.7300  147.0110 C   0  0  0  0  0  2  0  0  0  0  0  0
  190.3020  177.3490  141.0400 C   0  0  0  0  0  0  0  0  0  0  0  0
  189.2350  177.6610  138.1900 C   0  0  0  0  0  3  0  0  0  0  0  0
  187.0910  177.8280  142.9640 N   0  0  0  0  0  0  0  0  0  0  0  0
  187.2000  178.3210  146.5620 C   0  0  0  0  0  3  0  0  0  0  0  0
  188.8270  177.5840  141.2300 C   0  0  1  0  0  3  0  0  0  0  0  0
  192.2940  176.7630  140.1660 N   0  0  0  0  0  0  0  0  0  0  0  0
  187.5510  177.9020  145.3330 C   0  0  0  0  0  0  0  0  0  0  0  0
  185.1540  179.4720  145.9650 N   0  0  0  0  0  2  0  0  0  0  0  0
  190.2930  176.9330  138.5700 C   0  0  0  0  0  0  0  0  0  0  0  0
  189.3510  177.2430  143.7080 C   0  0  1  0  0  3  0  0  0  0  0  0
  185.1210  177.5950  144.3080 C   0  0  2  0  0  3  0  0  0  0  0  0
  188.5120  178.0070  142.6770 C   0  0  2  0  0  3  0  0  0  0  0  0
  191.1630  177.1150  145.9160 C   0  0  0  0  0  3  0  0  0  0  0  0
  188.4810  178.6490  138.9840 C   0  0  0  0  0  3  0  0  0  0  0  0
  189.8930  177.4630  146.1510 C   0  0  0  0  0  3  0  0  0  0  0  0
  188.3270  178.6510  140.3080 C   0  0  0  0  0  3  0  0  0  0  0  0
  190.9210  177.0520  139.9110 C   0  0  0  0  0  0  0  0  0  0  0  0
  191.6410  176.7830  144.5300 C   0  0  0  0  0  2  0  0  0  0  0  0
  191.1920  177.2010  142.1330 N   0  0  0  0  0  0  0  0  0  0  0  0
  190.8460  176.0460  137.5900 N   0  0  0  0  0  2  0  0  0  0  0  0
  191.4070  174.8500  137.9000 O   0  0  0  0  0  0  0  0  0  0  0  0
  194.2070  176.0940  137.3060 O   0  0  0  0  0  0  0  0  0  0  0  0
  193.5130  173.8440  137.4990 C   0  0  0  0  0  2  0  0  0  0  0  0
  192.3810  174.6420  136.9180 C   0  0  2  0  0  3  0  0  0  0  0  0
  194.6910  174.7880  137.4560 C   0  0  0  0  0  2  0  0  0  0  0  0
  193.0270  175.9620  136.5620 C   0  0  0  0  0  2  0  0  0  0  0  0
  1 18  1  0  0  0  0
  1 26  1  1  0  0  0
  2 27  1  0  0  0  0
  3  7  1  1  0  0  0
  3 16  1  0  0  0  0
  4 15  1  0  0  0  0
  4 23  1  0  0  0  0
  5 15  1  0  0  0  0
  6 19  1  0  0  0  0
  6  7  1  6  0  0  0
  6  3  1  0  0  0  0
  9 13  1  0  0  0  0
  9 27  1  0  0  0  0
 10 17  2  0  0  0  0
 10 22  1  0  0  0  0
 11  5  2  0  0  0  0
 12  8  1  0  0  0  0
 13 24  1  6  0  0  0
 13 20  1  0  0  0  0
 14  2  2  0  0  0  0
 15 12  2  0  0  0  0
 16  8  1  0  0  0  0
 17 25  1  0  0  0  0
 18  4  1  1  0  0  0
 19  5  1  1  0  0  0
 19  3  1  0  0  0  0
 20 11  1  1  0  0  0
 20 18  1  0  0  0  0
 21 23  2  0  0  0  0
 22 24  2  0  0  0  0
 25 14  1  0  0  0  0
 25  9  2  0  0  0  0
 26 21  1  0  0  0  0
 27  1  1  0  0  0  0
 28 29  1  0  0  0  0
 28 17  1  0  0  0  0
 30 33  1  0  0  0  0
 32 31  1  0  0  0  0
 32 29  1  1  0  0  0
 33 31  1  0  0  0  0
 34 32  1  0  0  0  0
 34 30  1  0  0  0  0
M  END
>  <MODEL>
3

>  <REMARK>
 VINA RESULT:      -9.2      2.930      9.311
  Name = 
  3 active torsions:
  status: ('A' for Active; 'I' for Inactive)
    1  A    between atoms: C_17  and  N_28
    2  A    between atoms: N_28  and  O_29
    3  A    between atoms: O_29  and  C_32
                            x       y       z     vdW  Elec       q    Type
                         _______ _______ _______ _____ _____    ______ ____

>  <TORSDO>
F 3

$$$$
=
 OpenBabel11122412033D

 34 42  0  0  1  0  0  0  0  0999 V2000
  189.4370  177.8760  143.9120 C   0  0  1  0  0  3  0  0  0  0  0  0
  191.7440  177.2000  142.8790 C   0  0  0  0  0  3  0  0  0  0  0  0
  182.7620  178.6260  142.9180 C   0  0  2  0  0  0  0  0  0  0  0  0
  187.0720  177.9030  144.6090 N   0  0  0  0  0  0  0  0  0  0  0  0
  185.2830  178.0200  142.8430 C   0  0  0  0  0  0  0  0  0  0  0  0
  183.3750  178.8770  141.5500 C   0  0  2  0  0  3  0  0  0  0  0  0
  181.9100  179.1630  141.7900 C   0  0  0  0  0  2  0  0  0  0  0  0
  183.4380  179.0190  145.0860 C   0  0  0  0  0  2  0  0  0  0  0  0
  189.9280  177.5130  141.4640 C   0  0  0  0  0  0  0  0  0  0  0  0
  190.0740  177.6340  138.4110 C   0  0  0  0  0  3  0  0  0  0  0  0
  186.2100  177.9610  141.9300 N   0  0  0  0  0  0  0  0  0  0  0  0
  184.8760  178.6420  145.2400 C   0  0  0  0  0  3  0  0  0  0  0  0
  188.4950  177.6970  141.0410 C   0  0  1  0  0  3  0  0  0  0  0  0
  192.1130  176.9650  141.4860 N   0  0  0  0  0  0  0  0  0  0  0  0
  185.6920  178.1750  144.2780 C   0  0  0  0  0  0  0  0  0  0  0  0
  183.2140  179.6770  143.8120 N   0  0  0  0  0  2  0  0  0  0  0  0
  190.9070  176.9710  139.2230 C   0  0  0  0  0  0  0  0  0  0  0  0
  187.9990  177.5070  143.5410 C   0  0  1  0  0  3  0  0  0  0  0  0
  183.8730  177.7170  142.3990 C   0  0  2  0  0  3  0  0  0  0  0  0
  187.6250  178.1820  142.2160 C   0  0  2  0  0  3  0  0  0  0  0  0
  188.7890  177.5670  146.2880 C   0  0  0  0  0  3  0  0  0  0  0  0
  189.0510  178.6310  138.7780 C   0  0  0  0  0  3  0  0  0  0  0  0
  187.5240  177.8750  145.9800 C   0  0  0  0  0  3  0  0  0  0  0  0
  188.3840  178.6940  139.9310 C   0  0  0  0  0  3  0  0  0  0  0  0
  190.9490  177.1840  140.6920 C   0  0  0  0  0  0  0  0  0  0  0  0
  189.7830  177.1830  145.2280 C   0  0  0  0  0  2  0  0  0  0  0  0
  190.3150  177.4580  142.8270 N   0  0  0  0  0  0  0  0  0  0  0  0
  191.8170  176.0580  138.5990 N   0  0  0  0  0  2  0  0  0  0  0  0
  193.0380  176.4250  138.1320 O   0  0  0  0  0  0  0  0  0  0  0  0
  195.5550  175.6570  136.4550 O   0  0  0  0  0  0  0  0  0  0  0  0
  193.8880  174.3190  137.4600 C   0  0  0  0  0  2  0  0  0  0  0  0
  193.2590  175.6090  137.0170 C   0  0  2  0  0  3  0  0  0  0  0  0
  195.2580  174.3390  136.8250 C   0  0  0  0  0  2  0  0  0  0  0  0
  194.3170  176.2350  136.1390 C   0  0  0  0  0  2  0  0  0  0  0  0
  1 26  1  1  0  0  0
  3  7  1  1  0  0  0
  3 16  1  0  0  0  0
  4 23  1  0  0  0  0
  5 15  1  0  0  0  0
  6  7  1  6  0  0  0
  6 19  1  0  0  0  0
  6  3  1  0  0  0  0
  8 12  1  0  0  0  0
  9 27  1  0  0  0  0
 10 22  1  0  0  0  0
 10 17  2  0  0  0  0
 11  5  2  0  0  0  0
 13 24  1  6  0  0  0
 13  9  1  0  0  0  0
 13 20  1  0  0  0  0
 14  2  2  0  0  0  0
 15  4  1  0  0  0  0
 15 12  2  0  0  0  0
 16  8  1  0  0  0  0
 17 25  1  0  0  0  0
 18  1  1  0  0  0  0
 18  4  1  1  0  0  0
 19  5  1  1  0  0  0
 19  3  1  0  0  0  0
 20 11  1  6  0  0  0
 20 18  1  0  0  0  0
 22 24  2  0  0  0  0
 23 21  2  0  0  0  0
 25  9  2  0  0  0  0
 25 14  1  0  0  0  0
 26 21  1  0  0  0  0
 27  2  1  0  0  0  0
 27  1  1  0  0  0  0
 28 17  1  0  0  0  0
 29 28  1  0  0  0  0
 30 33  1  0  0  0  0
 32 31  1  0  0  0  0
 32 29  1  1  0  0  0
 33 31  1  0  0  0  0
 34 30  1  0  0  0  0
 34 32  1  0  0  0  0
M  END
>  <MODEL>
4

>  <REMARK>
 VINA RESULT:      -9.2      3.317      9.351
  Name = 
  3 active torsions:
  status: ('A' for Active; 'I' for Inactive)
    1  A    between atoms: C_17  and  N_28
    2  A    between atoms: N_28  and  O_29
    3  A    between atoms: O_29  and  C_32
                            x       y       z     vdW  Elec       q    Type
                         _______ _______ _______ _____ _____    ______ ____

>  <TORSDO>
F 3

$$$$
=
 OpenBabel11122412033D

 34 42  0  0  1  0  0  0  0  0999 V2000
  186.5420  178.6980  140.8770 C   0  0  1  0  0  3  0  0  0  0  0  0
  184.4350  178.9060  139.3400 C   0  0  0  0  0  3  0  0  0  0  0  0
  188.9580  177.1960  147.0440 C   0  0  2  0  0  0  0  0  0  0  0  0
  188.2450  177.8810  142.4620 N   0  0  0  0  0  0  0  0  0  0  0  0
  187.5880  177.4870  144.8600 C   0  0  0  0  0  0  0  0  0  0  0  0
  187.5560  177.7200  147.3080 C   0  0  2  0  0  3  0  0  0  0  0  0
  188.5060  177.4760  148.4580 C   0  0  0  0  0  2  0  0  0  0  0  0
  190.5900  177.6680  145.4850 C   0  0  0  0  0  2  0  0  0  0  0  0
  184.1350  178.6660  141.6320 C   0  0  0  0  0  0  0  0  0  0  0  0
  181.4760  179.0060  143.1060 C   0  0  0  0  0  3  0  0  0  0  0  0
  186.3610  177.7980  144.5530 N   0  0  0  0  0  0  0  0  0  0  0  0
  189.9700  177.7940  144.1320 C   0  0  0  0  0  3  0  0  0  0  0  0
  184.4790  178.3770  143.0690 C   0  0  1  0  0  3  0  0  0  0  0  0
  183.0170  178.8910  139.6890 N   0  0  0  0  0  0  0  0  0  0  0  0
  188.6630  177.6880  143.8320 C   0  0  0  0  0  0  0  0  0  0  0  0
  189.7460  178.2850  146.4940 N   0  0  0  0  0  2  0  0  0  0  0  0
  181.6380  178.6180  141.8350 C   0  0  0  0  0  0  0  0  0  0  0  0
  186.8100  177.8850  142.1460 C   0  0  1  0  0  3  0  0  0  0  0  0
  187.7960  176.7500  146.1610 C   0  0  2  0  0  3  0  0  0  0  0  0
  185.9980  178.4690  143.3080 C   0  0  2  0  0  3  0  0  0  0  0  0
  188.8120  178.0500  140.1110 C   0  0  0  0  0  3  0  0  0  0  0  0
  182.4860  179.5740  144.0180 C   0  0  0  0  0  3  0  0  0  0  0  0
  189.2040  177.9290  141.3840 C   0  0  0  0  0  3  0  0  0  0  0  0
  183.7990  179.3400  143.9910 C   0  0  0  0  0  3  0  0  0  0  0  0
  182.9260  178.7480  141.1050 C   0  0  0  0  0  0  0  0  0  0  0  0
  187.3560  178.0890  139.7390 C   0  0  0  0  0  2  0  0  0  0  0  0
  185.1110  178.6660  140.6050 N   0  0  0  0  0  0  0  0  0  0  0  0
  180.4790  178.1060  141.1680 N   0  0  0  0  0  2  0  0  0  0  0  0
  179.6820  177.1410  141.6940 O   0  0  0  0  0  0  0  0  0  0  0  0
  180.8390  175.3590  139.4080 O   0  0  0  0  0  0  0  0  0  0  0  0
  179.0230  175.0170  140.8810 C   0  0  0  0  0  2  0  0  0  0  0  0
  179.1280  176.4870  140.5890 C   0  0  2  0  0  3  0  0  0  0  0  0
  179.9650  174.3750  139.8900 C   0  0  0  0  0  2  0  0  0  0  0  0
  180.0960  176.5480  139.4310 C   0  0  0  0  0  2  0  0  0  0  0  0
  1 26  1  6  0  0  0
  1 18  1  0  0  0  0
  2 14  2  0  0  0  0
  2 27  1  0  0  0  0
  3  6  1  0  0  0  0
  3  7  1  1  0  0  0
  4 15  1  0  0  0  0
  6  7  1  1  0  0  0
  8 16  1  0  0  0  0
  9 13  1  0  0  0  0
 10 22  1  0  0  0  0
 11  5  2  0  0  0  0
 12  8  1  0  0  0  0
 13 20  1  0  0  0  0
 13 24  1  1  0  0  0
 14 25  1  0  0  0  0
 15 12  2  0  0  0  0
 15  5  1  0  0  0  0
 16  3  1  0  0  0  0
 17 10  2  0  0  0  0
 18  4  1  1  0  0  0
 18 20  1  0  0  0  0
 19  5  1  6  0  0  0
 19  3  1  0  0  0  0
 19  6  1  0  0  0  0
 20 11  1  1  0  0  0
 21 23  2  0  0  0  0
 23  4  1  0  0  0  0
 24 22  2  0  0  0  0
 25  9  2  0  0  0  0
 25 17  1  0  0  0  0
 26 21  1  0  0  0  0
 27  1  1  0  0  0  0
 27  9  1  0  0  0  0
 28 29  1  0  0  0  0
 28 17  1  0  0  0  0
 30 34  1  0  0  0  0
 30 33  1  0  0  0  0
 32 31  1  0  0  0  0
 32 29  1  1  0  0  0
 33 31  1  0  0  0  0
 34 32  1  0  0  0  0
M  END
>  <MODEL>
5

>  <REMARK>
 VINA RESULT:      -9.1      4.491      8.326
  Name = 
  3 active torsions:
  status: ('A' for Active; 'I' for Inactive)
    1  A    between atoms: C_17  and  N_28
    2  A    between atoms: N_28  and  O_29
    3  A    between atoms: O_29  and  C_32
                            x       y       z     vdW  Elec       q    Type
                         _______ _______ _______ _____ _____    ______ ____

>  <TORSDO>
F 3

$$$$
=
 OpenBabel11122412033D

 34 42  0  0  1  0  0  0  0  0999 V2000
  185.6590  178.2530  142.9080 C   0  0  1  0  0  3  0  0  0  0  0  0
  185.1010  178.8140  140.4140 C   0  0  0  0  0  3  0  0  0  0  0  0
  190.4980  177.1420  147.5420 C   0  0  2  0  0  0  0  0  0  0  0  0
  186.6080  178.2730  145.1840 N   0  0  0  0  0  0  0  0  0  0  0  0
  189.0630  177.8030  145.4850 C   0  0  0  0  0  0  0  0  0  0  0  0
  191.1190  176.6820  146.2340 C   0  0  2  0  0  3  0  0  0  0  0  0
  191.8120  176.3970  147.5470 C   0  0  0  0  0  2  0  0  0  0  0  0
  188.3580  177.1440  148.4000 C   0  0  0  0  0  2  0  0  0  0  0  0
  187.2740  178.2110  140.9710 C   0  0  0  0  0  0  0  0  0  0  0  0
  189.4960  177.5790  138.9650 C   0  0  0  0  0  3  0  0  0  0  0  0
  189.1870  177.7360  144.1900 N   0  0  0  0  0  0  0  0  0  0  0  0
  187.3950  177.5840  147.3460 C   0  0  0  0  0  3  0  0  0  0  0  0
  188.4700  177.9140  141.8370 C   0  0  1  0  0  3  0  0  0  0  0  0
  185.9680  178.8210  139.2390 N   0  0  0  0  0  0  0  0  0  0  0  0
  187.6870  177.9060  146.0740 C   0  0  0  0  0  0  0  0  0  0  0  0
  189.3720  176.2730  147.8340 N   0  0  0  0  0  2  0  0  0  0  0  0
  188.4530  178.3950  138.7680 C   0  0  0  0  0  0  0  0  0  0  0  0
  186.9010  178.5100  143.7640 C   0  0  1  0  0  3  0  0  0  0  0  0
  190.3330  177.9840  146.2790 C   0  0  2  0  0  3  0  0  0  0  0  0
  188.0460  177.6090  143.2860 C   0  0  2  0  0  3  0  0  0  0  0  0
  184.2990  178.9400  144.8670 C   0  0  0  0  0  3  0  0  0  0  0  0
  189.7080  176.6280  140.0720 C   0  0  0  0  0  3  0  0  0  0  0  0
  185.2810  178.5460  145.6840 C   0  0  0  0  0  3  0  0  0  0  0  0
  189.2370  176.7400  141.3140 C   0  0  0  0  0  3  0  0  0  0  0  0
  187.2720  178.4350  139.6680 C   0  0  0  0  0  0  0  0  0  0  0  0
  184.5420  179.1690  143.4010 C   0  0  0  0  0  2  0  0  0  0  0  0
  186.0000  178.5070  141.5150 N   0  0  0  0  0  0  0  0  0  0  0  0
  188.4950  179.2170  137.5950 N   0  0  0  0  0  2  0  0  0  0  0  0
  187.4850  179.2770  136.6910 O   0  0  0  0  0  0  0  0  0  0  0  0
  185.6330  176.8790  135.9390 O   0  0  0  0  0  0  0  0  0  0  0  0
  186.9240  178.3300  134.5940 C   0  0  0  0  0  2  0  0  0  0  0  0
  187.6380  178.1330  135.9010 C   0  0  2  0  0  3  0  0  0  0  0  0
  185.8210  177.2980  134.6160 C   0  0  0  0  0  2  0  0  0  0  0  0
  186.8980  176.9790  136.5360 C   0  0  0  0  0  2  0  0  0  0  0  0
  1 26  1  1  0  0  0
  1 18  1  0  0  0  0
  2 27  1  0  0  0  0
  3  7  1  1  0  0  0
  3 16  1  0  0  0  0
  4 23  1  0  0  0  0
  4 15  1  0  0  0  0
  5 15  1  0  0  0  0
  6 19  1  0  0  0  0
  6  3  1  0  0  0  0
  6  7  1  1  0  0  0
  9 27  1  0  0  0  0
  9 13  1  0  0  0  0
 10 22  1  0  0  0  0
 11  5  2  0  0  0  0
 12  8  1  0  0  0  0
 13 24  1  6  0  0  0
 13 20  1  0  0  0  0
 14 25  1  0  0  0  0
 14  2  2  0  0  0  0
 15 12  2  0  0  0  0
 16  8  1  0  0  0  0
 17 10  2  0  0  0  0
 17 25  1  0  0  0  0
 18  4  1  1  0  0  0
 19  5  1  6  0  0  0
 19  3  1  0  0  0  0
 20 18  1  0  0  0  0
 20 11  1  1  0  0  0
 21 23  2  0  0  0  0
 22 24  2  0  0  0  0
 25  9  2  0  0  0  0
 26 21  1  0  0  0  0
 27  1  1  0  0  0  0
 28 17  1  0  0  0  0
 29 28  1  0  0  0  0
 30 34  1  0  0  0  0
 31 33  1  0  0  0  0
 31 32  1  0  0  0  0
 32 34  1  0  0  0  0
 32 29  1  1  0  0  0
 33 30  1  0  0  0  0
M  END
>  <MODEL>
6

>  <REMARK>
 VINA RESULT:      -9.1      3.815      8.502
  Name = 
  3 active torsions:
  status: ('A' for Active; 'I' for Inactive)
    1  A    between atoms: C_17  and  N_28
    2  A    between atoms: N_28  and  O_29
    3  A    between atoms: O_29  and  C_32
                            x       y       z     vdW  Elec       q    Type
                         _______ _______ _______ _____ _____    ______ ____

>  <TORSDO>
F 3

$$$$
=
 OpenBabel11122412033D

 34 42  0  0  1  0  0  0  0  0999 V2000
  182.1700  179.0910  143.2520 C   0  0  1  0  0  3  0  0  0  0  0  0
  183.8050  178.9120  145.2880 C   0  0  0  0  0  3  0  0  0  0  0  0
  181.0890  177.7250  136.6890 C   0  0  2  0  0  0  0  0  0  0  0  0
  180.7730  178.5790  141.2860 N   0  0  0  0  0  0  0  0  0  0  0  0
  181.8930  177.8530  139.1520 C   0  0  0  0  0  0  0  0  0  0  0  0
  182.5970  177.8780  136.7970 C   0  0  2  0  0  3  0  0  0  0  0  0
  181.9380  177.7770  135.4400 C   0  0  0  0  0  2  0  0  0  0  0  0
  179.2890  178.6920  137.7550 C   0  0  0  0  0  2  0  0  0  0  0  0
  184.6030  178.4290  143.1600 C   0  0  0  0  0  0  0  0  0  0  0  0
  187.5460  178.0100  142.4330 C   0  0  0  0  0  3  0  0  0  0  0  0
  183.0400  177.8870  139.7670 N   0  0  0  0  0  0  0  0  0  0  0  0
  179.5590  178.7730  139.2230 C   0  0  0  0  0  3  0  0  0  0  0  0
  184.5720  178.1180  141.6870 C   0  0  1  0  0  3  0  0  0  0  0  0
  185.2150  178.5340  145.3250 N   0  0  0  0  0  0  0  0  0  0  0  0
  180.6790  178.3840  139.8570 C   0  0  0  0  0  0  0  0  0  0  0  0
  180.4860  179.0090  136.9970 N   0  0  0  0  0  2  0  0  0  0  0  0
  186.9760  177.7730  143.6220 C   0  0  0  0  0  0  0  0  0  0  0  0
  182.0360  178.2680  141.9690 C   0  0  1  0  0  3  0  0  0  0  0  0
  181.8420  177.0860  137.8530 C   0  0  2  0  0  3  0  0  0  0  0  0
  183.2340  178.5490  141.0550 C   0  0  2  0  0  3  0  0  0  0  0  0
  179.6930  179.0630  143.4030 C   0  0  0  0  0  3  0  0  0  0  0  0
  186.9720  178.7280  141.2800 C   0  0  0  0  0  3  0  0  0  0  0  0
  179.6170  178.9380  142.0730 C   0  0  0  0  0  3  0  0  0  0  0  0
  185.6800  178.8160  140.9640 C   0  0  0  0  0  3  0  0  0  0  0  0
  185.6220  178.2630  143.9850 C   0  0  0  0  0  0  0  0  0  0  0  0
  180.9700  178.7840  144.1440 C   0  0  0  0  0  2  0  0  0  0  0  0
  183.4310  178.7420  143.8930 N   0  0  0  0  0  0  0  0  0  0  0  0
  187.7650  177.0550  144.5780 N   0  0  0  0  0  2  0  0  0  0  0  0
  189.0740  176.7530  144.3880 O   0  0  0  0  0  0  0  0  0  0  0  0
  189.9950  176.5990  147.3660 O   0  0  0  0  0  0  0  0  0  0  0  0
  191.1850  177.1280  145.3950 C   0  0  0  0  0  2  0  0  0  0  0  0
  189.7720  177.6130  145.2420 C   0  0  2  0  0  3  0  0  0  0  0  0
  191.2900  176.7500  146.8530 C   0  0  0  0  0  2  0  0  0  0  0  0
  189.2070  177.5030  146.6390 C   0  0  0  0  0  2  0  0  0  0  0  0
  1 27  1  0  0  0  0
  1 26  1  1  0  0  0
  2 14  2  0  0  0  0
  3  7  1  6  0  0  0
  3  6  1  0  0  0  0
  3 16  1  0  0  0  0
  3 19  1  0  0  0  0
  4 23  1  0  0  0  0
  5 11  2  0  0  0  0
  5 15  1  0  0  0  0
  6  7  1  6  0  0  0
  6 19  1  0  0  0  0
  8 12  1  0  0  0  0
  9 27  1  0  0  0  0
  9 25  2  0  0  0  0
 10 17  2  0  0  0  0
 12 15  2  0  0  0  0
 13 24  1  6  0  0  0
 13  9  1  0  0  0  0
 15  4  1  0  0  0  0
 16  8  1  0  0  0  0
 17 25  1  0  0  0  0
 17 28  1  0  0  0  0
 18  4  1  6  0  0  0
 18  1  1  0  0  0  0
 19  5  1  1  0  0  0
 20 11  1  6  0  0  0
 20 13  1  0  0  0  0
 20 18  1  0  0  0  0
 21 26  1  0  0  0  0
 22 10  1  0  0  0  0
 23 21  2  0  0  0  0
 24 22  2  0  0  0  0
 25 14  1  0  0  0  0
 27  2  1  0  0  0  0
 29 28  1  0  0  0  0
 31 33  1  0  0  0  0
 32 29  1  6  0  0  0
 32 31  1  0  0  0  0
 32 34  1  0  0  0  0
 33 30  1  0  0  0  0
 34 30  1  0  0  0  0
M  END
>  <MODEL>
7

>  <REMARK>
 VINA RESULT:      -8.9      5.393      8.271
  Name = 
  3 active torsions:
  status: ('A' for Active; 'I' for Inactive)
    1  A    between atoms: C_17  and  N_28
    2  A    between atoms: N_28  and  O_29
    3  A    between atoms: O_29  and  C_32
                            x       y       z     vdW  Elec       q    Type
                         _______ _______ _______ _____ _____    ______ ____

>  <TORSDO>
F 3

$$$$
=
 OpenBabel11122412033D

 34 42  0  0  1  0  0  0  0  0999 V2000
  183.2900  178.4900  143.3380 C   0  0  1  0  0  3  0  0  0  0  0  0
  180.9240  179.3160  142.5820 C   0  0  0  0  0  3  0  0  0  0  0  0
  189.7960  177.5480  141.6360 C   0  0  2  0  0  0  0  0  0  0  0  0
  185.7080  178.3300  143.7900 N   0  0  0  0  0  0  0  0  0  0  0  0
  187.3090  178.2530  141.8500 C   0  0  0  0  0  0  0  0  0  0  0  0
  189.0410  177.4050  140.3250 C   0  0  2  0  0  3  0  0  0  0  0  0
  190.5090  177.0500  140.4000 C   0  0  0  0  0  2  0  0  0  0  0  0
  189.3190  177.0490  143.8350 C   0  0  0  0  0  2  0  0  0  0  0  0
  182.5770  179.0210  140.9760 C   0  0  0  0  0  0  0  0  0  0  0  0
  182.1280  179.0930  137.9510 C   0  0  0  0  0  3  0  0  0  0  0  0
  186.3000  178.4040  141.0390 N   0  0  0  0  0  0  0  0  0  0  0  0
  187.9210  177.4700  144.1540 C   0  0  0  0  0  3  0  0  0  0  0  0
  183.9530  178.8080  140.4010 C   0  0  1  0  0  3  0  0  0  0  0  0
  180.4310  179.6500  141.2490 N   0  0  0  0  0  0  0  0  0  0  0  0
  187.0360  178.0260  143.3070 C   0  0  0  0  0  0  0  0  0  0  0  0
  189.3870  176.4620  142.5090 N   0  0  0  0  0  2  0  0  0  0  0  0
  181.4090  179.7370  138.8790 C   0  0  0  0  0  0  0  0  0  0  0  0
  184.6990  178.8260  142.8450 C   0  0  1  0  0  3  0  0  0  0  0  0
  188.6800  178.5290  141.2840 C   0  0  2  0  0  3  0  0  0  0  0  0
  184.9120  178.2200  141.4530 C   0  0  2  0  0  3  0  0  0  0  0  0
  184.1800  178.6280  145.6500 C   0  0  0  0  0  3  0  0  0  0  0  0
  183.1370  178.0380  138.1560 C   0  0  0  0  0  3  0  0  0  0  0  0
  185.3940  178.2910  145.2000 C   0  0  0  0  0  3  0  0  0  0  0  0
  183.9100  177.8780  139.2300 C   0  0  0  0  0  3  0  0  0  0  0  0
  181.5010  179.4350  140.3310 C   0  0  0  0  0  0  0  0  0  0  0  0
  183.1050  179.1130  144.7190 C   0  0  0  0  0  2  0  0  0  0  0  0
  182.3290  179.0070  142.3720 N   0  0  0  0  0  0  0  0  0  0  0  0
  180.4830  180.7210  138.4030 N   0  0  0  0  0  2  0  0  0  0  0  0
  180.6950  182.0570  138.5090 O   0  0  0  0  0  0  0  0  0  0  0  0
  181.0290  184.4170  136.4940 O   0  0  0  0  0  0  0  0  0  0  0  0
  180.3310  182.1830  136.1720 C   0  0  0  0  0  2  0  0  0  0  0  0
  179.8760  182.6320  137.5310 C   0  0  2  0  0  3  0  0  0  0  0  0
  180.8060  183.4520  135.5030 C   0  0  0  0  0  2  0  0  0  0  0  0
  180.0990  184.1260  137.5030 C   0  0  0  0  0  2  0  0  0  0  0  0
  1 26  1  1  0  0  0
  3  7  1  6  0  0  0
  3 16  1  0  0  0  0
  4 23  1  0  0  0  0
  5 15  1  0  0  0  0
  6  7  1  6  0  0  0
  6 19  1  0  0  0  0
  6  3  1  0  0  0  0
  8 12  1  0  0  0  0
  9 27  1  0  0  0  0
 10 22  1  0  0  0  0
 10 17  2  0  0  0  0
 11  5  2  0  0  0  0
 13 24  1  6  0  0  0
 13  9  1  0  0  0  0
 13 20  1  0  0  0  0
 14  2  2  0  0  0  0
 15  4  1  0  0  0  0
 15 12  2  0  0  0  0
 16  8  1  0  0  0  0
 17 25  1  0  0  0  0
 18  1  1  0  0  0  0
 18  4  1  1  0  0  0
 19  3  1  0  0  0  0
 19  5  1  1  0  0  0
 20 11  1  6  0  0  0
 20 18  1  0  0  0  0
 22 24  2  0  0  0  0
 23 21  2  0  0  0  0
 25  9  2  0  0  0  0
 25 14  1  0  0  0  0
 26 21  1  0  0  0  0
 27  2  1  0  0  0  0
 27  1  1  0  0  0  0
 28 29  1  0  0  0  0
 28 17  1  0  0  0  0
 30 34  1  0  0  0  0
 31 32  1  0  0  0  0
 32 29  1  1  0  0  0
 33 31  1  0  0  0  0
 33 30  1  0  0  0  0
 34 32  1  0  0  0  0
M  END
>  <MODEL>
8

>  <REMARK>
 VINA RESULT:      -8.9      5.232      8.839
  Name = 
  3 active torsions:
  status: ('A' for Active; 'I' for Inactive)
    1  A    between atoms: C_17  and  N_28
    2  A    between atoms: N_28  and  O_29
    3  A    between atoms: O_29  and  C_32
                            x       y       z     vdW  Elec       q    Type
                         _______ _______ _______ _____ _____    ______ ____

>  <TORSDO>
F 3

$$$$
=
 OpenBabel11122412033D

 34 42  0  0  1  0  0  0  0  0999 V2000
  190.9150  177.5650  142.8790 C   0  0  1  0  0  3  0  0  0  0  0  0
  192.6800  176.9630  141.0440 C   0  0  0  0  0  3  0  0  0  0  0  0
  184.3550  178.4920  144.3730 C   0  0  2  0  0  0  0  0  0  0  0  0
  188.9480  177.5550  144.3650 N   0  0  0  0  0  0  0  0  0  0  0  0
  186.6600  177.8650  143.3620 C   0  0  0  0  0  0  0  0  0  0  0  0
  184.4620  178.8660  142.9040 C   0  0  2  0  0  3  0  0  0  0  0  0
  183.1880  179.1450  143.6700 C   0  0  0  0  0  2  0  0  0  0  0  0
  185.7660  178.6660  146.1890 C   0  0  0  0  0  2  0  0  0  0  0  0
  190.5000  177.4340  140.3940 C   0  0  0  0  0  0  0  0  0  0  0  0
  189.5720  177.8460  137.5080 C   0  0  0  0  0  2  0  0  0  0  0  0
  187.2050  177.8810  142.1790 N   0  0  0  0  0  0  0  0  0  0  0  0
  187.1480  178.2580  145.7920 C   0  0  0  0  0  3  0  0  0  0  0  0
  189.0190  177.6760  140.5210 C   0  0  1  0  0  3  0  0  0  0  0  0
  192.5270  176.8580  139.5960 N   0  0  0  0  0  0  0  0  0  0  0  0
  187.5530  177.8750  144.5680 C   0  0  0  0  0  0  0  0  0  0  0  0
  185.1400  179.4460  145.1360 N   0  0  0  0  0  2  0  0  0  0  0  0
  190.6050  177.0970  137.9140 C   0  0  0  0  0  0  0  0  0  0  0  0
  189.4230  177.2520  143.0090 C   0  0  1  0  0  3  0  0  0  0  0  0
  185.1720  177.6240  143.4200 C   0  0  2  0  0  3  0  0  0  0  0  0
  188.6390  178.0560  141.9650 C   0  0  2  0  0  3  0  0  0  0  0  0
  191.1270  177.0370  145.2950 C   0  0  0  0  0  3  0  0  0  0  0  0
  188.7890  178.8160  138.2970 C   0  0  0  0  0  3  0  0  0  0  0  0
  189.8500  177.3900  145.4810 C   0  0  0  0  0  3  0  0  0  0  0  0
  188.5720  178.7770  139.6110 C   0  0  0  0  0  3  0  0  0  0  0  0
  191.1690  177.1680  139.2860 C   0  0  0  0  0  0  0  0  0  0  0  0
  191.6680  176.7450  143.9230 C   0  0  0  0  0  2  0  0  0  0  0  0
  191.3360  177.2430  141.5220 N   0  0  0  0  0  0  0  0  0  0  0  0
  191.1970  176.2370  136.9330 N   0  0  0  0  0  0  0  0  0  0  0  0
  190.6060  175.9410  135.7470 O   0  0  0  0  0  0  0  0  0  0  0  0
  189.7910  173.4130  137.3870 O   0  0  0  0  0  0  0  0  0  0  0  0
  189.5170  173.9400  135.1000 C   0  0  0  0  0  2  0  0  0  0  0  0
  190.7950  174.5650  135.5820 C   0  0  2  0  0  3  0  0  0  0  0  0
  189.1050  173.0250  136.2290 C   0  0  0  0  0  2  0  0  0  0  0  0
  191.0160  173.9220  136.9310 C   0  0  0  0  0  2  0  0  0  0  0  0
  1 18  1  0  0  0  0
  1 26  1  1  0  0  0
  2 27  1  0  0  0  0
  3  7  1  1  0  0  0
  3 16  1  0  0  0  0
  4 15  1  0  0  0  0
  4 23  1  0  0  0  0
  5 15  1  0  0  0  0
  6 19  1  0  0  0  0
  6  7  1  6  0  0  0
  6  3  1  0  0  0  0
  9 13  1  0  0  0  0
  9 27  1  0  0  0  0
 10 17  1  0  0  0  0
 10 22  1  0  0  0  0
 11  5  2  0  0  0  0
 12  8  1  0  0  0  0
 13 24  1  6  0  0  0
 13 20  1  0  0  0  0
 14  2  2  0  0  0  0
 15 12  2  0  0  0  0
 16  8  1  0  0  0  0
 17 25  1  0  0  0  0
 18  4  1  1  0  0  0
 19  5  1  1  0  0  0
 19  3  1  0  0  0  0
 20 11  1  6  0  0  0
 20 18  1  0  0  0  0
 21 23  2  0  0  0  0
 22 24  2  0  0  0  0
 25 14  1  0  0  0  0
 25  9  2  0  0  0  0
 26 21  1  0  0  0  0
 27  1  1  0  0  0  0
 28 17  2  0  0  0  0
 29 28  1  0  0  0  0
 31 32  1  0  0  0  0
 31 33  1  0  0  0  0
 32 29  1  1  0  0  0
 32 34  1  0  0  0  0
 33 30  1  0  0  0  0
 34 30  1  0  0  0  0
M  END
>  <MODEL>
9

>  <REMARK>
 VINA RESULT:      -8.8      3.151      8.995
  Name = 
  3 active torsions:
  status: ('A' for Active; 'I' for Inactive)
    1  A    between atoms: C_17  and  N_28
    2  A    between atoms: N_28  and  O_29
    3  A    between atoms: O_29  and  C_32
                            x       y       z     vdW  Elec       q    Type
                         _______ _______ _______ _____ _____    ______ ____

>  <TORSDO>
F 3

$$$$
