=
 OpenBabel11122412073D

 34 40  0  0  1  0  0  0  0  0999 V2000
  185.7060  178.2360  143.4100 C   0  0  0  0  0  0  0  0  0  0  0  0
  188.2560  178.0240  143.1200 C   0  0  0  0  0  2  0  0  0  0  0  0
  179.6010  177.6850  141.3260 C   0  0  1  0  0  3  0  0  0  0  0  0
  183.3180  178.7930  143.5820 C   0  0  0  0  0  0  0  0  0  0  0  0
  182.0200  178.6460  141.4830 C   0  0  0  0  0  0  0  0  0  0  0  0
  180.5370  179.1430  139.6110 C   0  0  0  0  0  2  0  0  0  0  0  0
  179.6590  176.3140  140.6770 C   0  0  0  0  0  1  0  0  0  0  0  0
  179.5580  178.8560  143.3660 C   0  0  0  0  0  2  0  0  0  0  0  0
  186.8710  178.5820  141.2890 C   0  0  2  0  0  3  0  0  0  0  0  0
  187.7960  178.1960  138.2500 C   0  0  0  0  0  2  0  0  0  0  0  0
  183.1290  178.4510  140.7520 C   0  0  0  0  0  3  0  0  0  0  0  0
  180.9340  179.3740  143.7780 C   0  0  0  0  0  2  0  0  0  0  0  0
  185.6210  178.1840  140.5070 C   0  0  1  0  0  3  0  0  0  0  0  0
  189.1350  177.9600  141.8770 C   0  0  0  0  0  2  0  0  0  0  0  0
  182.1200  178.8900  142.9640 C   0  0  0  0  0  0  0  0  0  0  0  0
  179.6570  177.5310  142.7760 N   0  0  0  0  0  2  0  0  0  0  0  0
  188.3050  177.4520  139.4800 C   0  0  2  0  0  3  0  0  0  0  0  0
  184.5310  178.4860  142.7900 C   0  0  2  0  0  3  0  0  0  0  0  0
  180.7110  178.5590  140.7930 C   0  0  0  0  0  0  0  0  0  0  0  0
  184.4340  178.4510  141.3440 N   0  0  0  0  0  0  0  0  0  0  0  0
  184.7420  178.5450  145.6420 C   0  0  0  0  0  3  0  0  0  0  0  0
  186.2800  178.1230  138.1100 C   0  0  0  0  0  2  0  0  0  0  0  0
  183.4720  179.1010  145.0550 C   0  0  0  0  0  3  0  0  0  0  0  0
  185.5660  178.9340  139.1820 C   0  0  0  0  0  2  0  0  0  0  0  0
  188.2650  178.4040  140.6910 C   0  0  1  0  0  3  0  0  0  0  0  0
  185.7750  178.1770  144.8830 C   0  0  0  0  0  3  0  0  0  0  0  0
  186.8720  177.8010  142.5700 C   0  0  2  0  0  3  0  0  0  0  0  0
  189.7190  176.9800  139.1710 C   0  0  0  0  0  2  0  0  0  0  0  0
  189.7250  176.2100  137.9380 N   0  0  0  0  0  2  0  0  0  0  0  0
  192.2360  175.9730  136.0170 O   0  0  0  0  0  0  0  0  0  0  0  0
  192.0990  176.2950  138.3540 C   0  0  0  0  0  2  0  0  0  0  0  0
  190.9500  175.4290  137.9270 C   0  0  2  0  0  3  0  0  0  0  0  0
  192.9930  176.3450  137.1380 C   0  0  0  0  0  2  0  0  0  0  0  0
  191.2930  175.0570  136.5020 C   0  0  0  0  0  2  0  0  0  0  0  0
  1 26  2  0  0  0  0
  3  7  1  6  0  0  0
  3 16  1  0  0  0  0
  4 23  1  0  0  0  0
  5 15  1  0  0  0  0
  6 19  2  0  0  0  0
  8 12  1  0  0  0  0
  9 27  1  0  0  0  0
 10 17  1  0  0  0  0
 11 20  1  0  0  0  0
 11  5  2  0  0  0  0
 13  9  1  0  0  0  0
 13 20  1  0  0  0  0
 14  2  1  0  0  0  0
 15  4  2  0  0  0  0
 15 12  1  0  0  0  0
 16  8  1  0  0  0  0
 17 25  1  0  0  0  0
 18  1  1  0  0  0  0
 18  4  1  0  0  0  0
 19  3  1  0  0  0  0
 19  5  1  0  0  0  0
 20 18  1  0  0  0  0
 22 10  1  0  0  0  0
 22 24  1  0  0  0  0
 23 21  2  0  0  0  0
 24 13  1  0  0  0  0
 25  9  1  0  0  0  0
 25 14  1  0  0  0  0
 26 21  1  0  0  0  0
 27  2  1  0  0  0  0
 27  1  1  0  0  0  0
 28 17  1  0  0  0  0
 29 28  1  0  0  0  0
 30 34  1  0  0  0  0
 30 33  1  0  0  0  0
 32 29  1  0  0  0  0
 32 31  1  0  0  0  0
 33 31  1  0  0  0  0
 34 32  1  0  0  0  0
M  END
>  <MODEL>
1

>  <REMARK>
 VINA RESULT:      -9.3      0.000      0.000
  Name = 
  3 active torsions:
  status: ('A' for Active; 'I' for Inactive)
    1  A    between atoms: C_17  and  C_28
    2  A    between atoms: C_28  and  N_29
    3  A    between atoms: N_29  and  C_32
                            x       y       z     vdW  Elec       q    Type
                         _______ _______ _______ _____ _____    ______ ____

>  <TORSDO>
F 3

$$$$
=
 OpenBabel11122412073D

 34 40  0  0  1  0  0  0  0  0999 V2000
  182.4320  178.7470  143.3480 C   0  0  0  0  0  0  0  0  0  0  0  0
  183.7680  179.0070  145.5330 C   0  0  0  0  0  2  0  0  0  0  0  0
  181.6350  176.5800  137.2980 C   0  0  1  0  0  3  0  0  0  0  0  0
  181.3000  178.8290  141.1670 C   0  0  0  0  0  0  0  0  0  0  0  0
  182.6170  178.0240  139.2350 C   0  0  0  0  0  0  0  0  0  0  0  0
  183.7060  177.8440  137.0600 C   0  0  0  0  0  2  0  0  0  0  0  0
  182.1240  175.1510  137.4570 C   0  0  0  0  0  1  0  0  0  0  0  0
  179.8850  178.0840  137.7560 C   0  0  0  0  0  2  0  0  0  0  0  0
  184.8680  178.9130  143.4440 C   0  0  2  0  0  3  0  0  0  0  0  0
  187.9640  178.1530  143.1610 C   0  0  0  0  0  2  0  0  0  0  0  0
  183.7330  177.9240  139.9740 C   0  0  0  0  0  3  0  0  0  0  0  0
  180.1500  178.9400  138.9920 C   0  0  0  0  0  2  0  0  0  0  0  0
  185.0000  178.1280  142.1410 C   0  0  1  0  0  3  0  0  0  0  0  0
  185.2580  178.8890  145.8320 C   0  0  0  0  0  2  0  0  0  0  0  0
  181.3500  178.5610  139.8430 C   0  0  0  0  0  0  0  0  0  0  0  0
  180.3430  176.7190  137.9610 N   0  0  0  0  0  2  0  0  0  0  0  0
  187.0120  177.7760  144.2900 C   0  0  2  0  0  3  0  0  0  0  0  0
  182.5060  178.6300  142.0020 C   0  0  0  0  0  0  0  0  0  0  0  0
  182.6670  177.5430  137.8340 C   0  0  0  0  0  0  0  0  0  0  0  0
  183.7610  178.3020  141.3560 N   0  0  0  0  0  0  0  0  0  0  0  0
  180.0380  179.2720  143.2980 C   0  0  0  0  0  3  0  0  0  0  0  0
  187.4320  177.7480  141.7900 C   0  0  0  0  0  2  0  0  0  0  0  0
  180.0690  179.4360  141.8020 C   0  0  0  0  0  2  0  0  0  0  0  0
  186.2320  178.5850  141.3710 C   0  0  0  0  0  2  0  0  0  0  0  0
  185.9890  178.9130  144.4810 C   0  0  1  0  0  3  0  0  0  0  0  0
  181.1320  178.9850  144.0050 C   0  0  0  0  0  3  0  0  0  0  0  0
  183.6500  178.4070  144.1570 C   0  0  2  0  0  3  0  0  0  0  0  0
  187.8560  177.5510  145.5380 C   0  0  0  0  0  2  0  0  0  0  0  0
  189.0600  176.8130  145.1940 N   0  0  0  0  0  2  0  0  0  0  0  0
  191.0270  175.9510  147.5260 O   0  0  0  0  0  0  0  0  0  0  0  0
  191.4620  176.8820  145.3990 C   0  0  0  0  0  2  0  0  0  0  0  0
  190.1630  177.4390  145.9020 C   0  0  2  0  0  3  0  0  0  0  0  0
  192.0540  176.1850  146.6010 C   0  0  0  0  0  2  0  0  0  0  0  0
  190.1300  177.0150  147.3530 C   0  0  0  0  0  2  0  0  0  0  0  0
  1 26  1  0  0  0  0
  1 27  1  0  0  0  0
  2 14  1  0  0  0  0
  3  7  1  1  0  0  0
  3 19  1  0  0  0  0
  3 16  1  0  0  0  0
  4 23  1  0  0  0  0
  4 18  1  0  0  0  0
  5 15  1  0  0  0  0
  5 11  2  0  0  0  0
  6 19  2  0  0  0  0
  8 16  1  0  0  0  0
  8 12  1  0  0  0  0
  9 27  1  0  0  0  0
  9 25  1  0  0  0  0
 10 17  1  0  0  0  0
 11 20  1  0  0  0  0
 12 15  1  0  0  0  0
 13  9  1  0  0  0  0
 15  4  2  0  0  0  0
 17 25  1  0  0  0  0
 17 28  1  0  0  0  0
 18  1  2  0  0  0  0
 19  5  1  0  0  0  0
 20 18  1  0  0  0  0
 20 13  1  0  0  0  0
 21 26  2  0  0  0  0
 22 10  1  0  0  0  0
 23 21  1  0  0  0  0
 24 22  1  0  0  0  0
 24 13  1  0  0  0  0
 25 14  1  0  0  0  0
 27  2  1  0  0  0  0
 29 28  1  0  0  0  0
 29 32  1  0  0  0  0
 31 32  1  0  0  0  0
 31 33  1  0  0  0  0
 32 34  1  0  0  0  0
 33 30  1  0  0  0  0
 34 30  1  0  0  0  0
M  END
>  <MODEL>
2

>  <REMARK>
 VINA RESULT:      -9.2      3.640      5.437
  Name = 
  3 active torsions:
  status: ('A' for Active; 'I' for Inactive)
    1  A    between atoms: C_17  and  C_28
    2  A    between atoms: C_28  and  N_29
    3  A    between atoms: N_29  and  C_32
                            x       y       z     vdW  Elec       q    Type
                         _______ _______ _______ _____ _____    ______ ____

>  <TORSDO>
F 3

$$$$
=
 OpenBabel11122412073D

 34 40  0  0  1  0  0  0  0  0999 V2000
  187.1900  177.6050  143.3240 C   0  0  0  0  0  0  0  0  0  0  0  0
  189.6990  177.0480  143.1720 C   0  0  0  0  0  2  0  0  0  0  0  0
  181.2550  178.2080  140.8070 C   0  0  1  0  0  3  0  0  0  0  0  0
  184.8990  178.4910  143.4100 C   0  0  0  0  0  0  0  0  0  0  0  0
  183.7650  178.7730  141.2310 C   0  0  0  0  0  0  0  0  0  0  0  0
  182.5220  179.6890  139.3430 C   0  0  0  0  0  2  0  0  0  0  0  0
  181.1710  176.9240  140.0020 C   0  0  0  0  0  1  0  0  0  0  0  0
  181.2140  179.1400  142.9660 C   0  0  0  0  0  2  0  0  0  0  0  0
  188.5590  178.0050  141.3390 C   0  0  2  0  0  3  0  0  0  0  0  0
  189.6610  177.8220  138.3400 C   0  0  0  0  0  2  0  0  0  0  0  0
  184.8900  178.4960  140.5540 C   0  0  0  0  0  3  0  0  0  0  0  0
  182.6120  179.3980  143.5240 C   0  0  0  0  0  2  0  0  0  0  0  0
  187.3320  177.8880  140.4360 C   0  0  1  0  0  3  0  0  0  0  0  0
  190.6580  176.9910  141.9880 C   0  0  0  0  0  2  0  0  0  0  0  0
  183.7800  178.8340  142.7340 C   0  0  0  0  0  0  0  0  0  0  0  0
  181.1730  177.8880  142.2280 N   0  0  0  0  0  2  0  0  0  0  0  0
  189.9590  176.8800  139.5010 C   0  0  2  0  0  3  0  0  0  0  0  0
  186.1160  178.0950  142.6650 C   0  0  2  0  0  3  0  0  0  0  0  0
  182.5170  178.9590  140.4550 C   0  0  0  0  0  0  0  0  0  0  0  0
  186.1310  178.2350  141.2230 N   0  0  0  0  0  0  0  0  0  0  0  0
  186.1030  177.8080  145.5110 C   0  0  0  0  0  3  0  0  0  0  0  0
  188.1650  177.9930  138.0970 C   0  0  0  0  0  2  0  0  0  0  0  0
  184.9760  178.6080  144.9170 C   0  0  0  0  0  3  0  0  0  0  0  0
  187.4900  178.7790  139.2110 C   0  0  0  0  0  2  0  0  0  0  0  0
  189.9570  177.6880  140.8120 C   0  0  1  0  0  3  0  0  0  0  0  0
  187.1310  177.3740  144.7800 C   0  0  0  0  0  3  0  0  0  0  0  0
  188.3470  177.0960  142.5130 C   0  0  2  0  0  3  0  0  0  0  0  0
  191.3120  176.2380  139.2270 C   0  0  0  0  0  2  0  0  0  0  0  0
  191.1560  175.1310  138.2970 N   0  0  0  0  0  2  0  0  0  0  0  0
  194.3010  175.5280  138.2550 O   0  0  0  0  0  0  0  0  0  0  0  0
  192.9170  174.0060  137.0930 C   0  0  0  0  0  2  0  0  0  0  0  0
  192.1650  175.2940  137.2650 C   0  0  2  0  0  3  0  0  0  0  0  0
  194.3320  174.3500  137.4950 C   0  0  0  0  0  2  0  0  0  0  0  0
  193.2210  176.2630  137.7460 C   0  0  0  0  0  2  0  0  0  0  0  0
  1 26  2  0  0  0  0
  3  7  1  6  0  0  0
  3 16  1  0  0  0  0
  4 23  1  0  0  0  0
  5 15  1  0  0  0  0
  6 19  2  0  0  0  0
  8 12  1  0  0  0  0
  9 27  1  0  0  0  0
 10 17  1  0  0  0  0
 11 20  1  0  0  0  0
 11  5  2  0  0  0  0
 13 20  1  0  0  0  0
 13  9  1  0  0  0  0
 14  2  1  0  0  0  0
 15  4  2  0  0  0  0
 15 12  1  0  0  0  0
 16  8  1  0  0  0  0
 17 25  1  0  0  0  0
 18  1  1  0  0  0  0
 18  4  1  0  0  0  0
 19  3  1  0  0  0  0
 19  5  1  0  0  0  0
 20 18  1  0  0  0  0
 22 10  1  0  0  0  0
 22 24  1  0  0  0  0
 23 21  2  0  0  0  0
 24 13  1  0  0  0  0
 25  9  1  0  0  0  0
 25 14  1  0  0  0  0
 26 21  1  0  0  0  0
 27  2  1  0  0  0  0
 27  1  1  0  0  0  0
 28 17  1  0  0  0  0
 29 28  1  0  0  0  0
 31 32  1  0  0  0  0
 31 33  1  0  0  0  0
 32 34  1  0  0  0  0
 32 29  1  0  0  0  0
 33 30  1  0  0  0  0
 34 30  1  0  0  0  0
M  END
>  <MODEL>
3

>  <REMARK>
 VINA RESULT:      -8.8      1.364      1.884
  Name = 
  3 active torsions:
  status: ('A' for Active; 'I' for Inactive)
    1  A    between atoms: C_17  and  C_28
    2  A    between atoms: C_28  and  N_29
    3  A    between atoms: N_29  and  C_32
                            x       y       z     vdW  Elec       q    Type
                         _______ _______ _______ _____ _____    ______ ____

>  <TORSDO>
F 3

$$$$
=
 OpenBabel11122412073D

 34 40  0  0  1  0  0  0  0  0999 V2000
  184.4520  178.6030  144.0640 C   0  0  0  0  0  0  0  0  0  0  0  0
  182.1980  179.0910  142.9190 C   0  0  0  0  0  2  0  0  0  0  0  0
  190.9220  178.4040  144.2080 C   0  0  1  0  0  3  0  0  0  0  0  0
  186.5560  177.7870  145.0390 C   0  0  0  0  0  0  0  0  0  0  0  0
  188.5020  177.7260  143.5140 C   0  0  0  0  0  0  0  0  0  0  0  0
  190.4680  177.0110  142.2600 C   0  0  0  0  0  2  0  0  0  0  0  0
  191.2480  179.7540  143.5930 C   0  0  0  0  0  1  0  0  0  0  0  0
  190.1300  177.2960  146.1260 C   0  0  0  0  0  2  0  0  0  0  0  0
  184.0510  178.3280  141.6690 C   0  0  2  0  0  3  0  0  0  0  0  0
  184.2720  178.7250  138.5010 C   0  0  0  0  0  2  0  0  0  0  0  0
  187.7400  178.0220  142.4500 C   0  0  0  0  0  3  0  0  0  0  0  0
  188.6450  176.9480  146.0350 C   0  0  0  0  0  2  0  0  0  0  0  0
  185.5300  178.5590  141.3670 C   0  0  1  0  0  3  0  0  0  0  0  0
  181.8100  179.2160  141.4500 C   0  0  0  0  0  2  0  0  0  0  0  0
  187.8730  177.5380  144.8680 C   0  0  0  0  0  0  0  0  0  0  0  0
  190.3910  178.6060  145.5520 N   0  0  0  0  0  2  0  0  0  0  0  0
  183.4630  179.5570  139.4900 C   0  0  2  0  0  3  0  0  0  0  0  0
  185.7310  178.2050  143.8820 C   0  0  2  0  0  3  0  0  0  0  0  0
  189.9680  177.6460  143.3170 C   0  0  0  0  0  0  0  0  0  0  0  0
  186.3200  178.1860  142.5580 N   0  0  0  0  0  0  0  0  0  0  0  0
  184.5530  178.2530  146.4880 C   0  0  0  0  0  3  0  0  0  0  0  0
  185.7430  178.6240  138.8910 C   0  0  0  0  0  2  0  0  0  0  0  0
  185.8730  177.5420  146.3660 C   0  0  0  0  0  3  0  0  0  0  0  0
  185.9480  177.7700  140.1340 C   0  0  0  0  0  2  0  0  0  0  0  0
  182.9760  178.6420  140.6300 C   0  0  1  0  0  3  0  0  0  0  0  0
  183.8910  178.7130  145.4250 C   0  0  0  0  0  3  0  0  0  0  0  0
  183.7020  179.1410  142.8790 C   0  0  2  0  0  3  0  0  0  0  0  0
  182.3050  180.1760  138.7200 C   0  0  0  0  0  2  0  0  0  0  0  0
  182.4290  181.6250  138.7180 N   0  0  0  0  0  2  0  0  0  0  0  0
  181.1820  183.1400  136.2290 O   0  0  0  0  0  0  0  0  0  0  0  0
  180.4310  181.2440  137.4220 C   0  0  0  0  0  2  0  0  0  0  0  0
  181.1230  182.1650  138.3830 C   0  0  2  0  0  3  0  0  0  0  0  0
  180.2760  182.0700  136.1670 C   0  0  0  0  0  2  0  0  0  0  0  0
  181.2980  183.4410  137.5930 C   0  0  0  0  0  2  0  0  0  0  0  0
  1 26  2  0  0  0  0
  3  7  1  6  0  0  0
  3 16  1  0  0  0  0
  4 23  1  0  0  0  0
  5 15  1  0  0  0  0
  6 19  2  0  0  0  0
  9 27  1  0  0  0  0
 10 22  1  0  0  0  0
 10 17  1  0  0  0  0
 11 20  1  0  0  0  0
 11  5  2  0  0  0  0
 12  8  1  0  0  0  0
 13  9  1  0  0  0  0
 13 20  1  0  0  0  0
 14  2  1  0  0  0  0
 15  4  2  0  0  0  0
 15 12  1  0  0  0  0
 16  8  1  0  0  0  0
 17 25  1  0  0  0  0
 18  1  1  0  0  0  0
 18  4  1  0  0  0  0
 19  5  1  0  0  0  0
 19  3  1  0  0  0  0
 20 18  1  0  0  0  0
 22 24  1  0  0  0  0
 23 21  2  0  0  0  0
 24 13  1  0  0  0  0
 25 14  1  0  0  0  0
 25  9  1  0  0  0  0
 26 21  1  0  0  0  0
 27  2  1  0  0  0  0
 27  1  1  0  0  0  0
 28 17  1  0  0  0  0
 29 28  1  0  0  0  0
 30 34  1  0  0  0  0
 31 32  1  0  0  0  0
 32 29  1  0  0  0  0
 33 30  1  0  0  0  0
 33 31  1  0  0  0  0
 34 32  1  0  0  0  0
M  END
>  <MODEL>
4

>  <REMARK>
 VINA RESULT:      -8.8      3.601      7.931
  Name = 
  3 active torsions:
  status: ('A' for Active; 'I' for Inactive)
    1  A    between atoms: C_17  and  C_28
    2  A    between atoms: C_28  and  N_29
    3  A    between atoms: N_29  and  C_32
                            x       y       z     vdW  Elec       q    Type
                         _______ _______ _______ _____ _____    ______ ____

>  <TORSDO>
F 3

$$$$
=
 OpenBabel11122412073D

 34 40  0  0  1  0  0  0  0  0999 V2000
  182.2240  178.7360  141.5900 C   0  0  0  0  0  0  0  0  0  0  0  0
  182.7220  179.1240  144.0860 C   0  0  0  0  0  2  0  0  0  0  0  0
  183.6000  176.3130  135.7450 C   0  0  1  0  0  3  0  0  0  0  0  0
  181.9120  178.6960  139.1520 C   0  0  0  0  0  0  0  0  0  0  0  0
  183.8280  177.8630  137.8300 C   0  0  0  0  0  0  0  0  0  0  0  0
  185.6030  177.6360  136.1720 C   0  0  0  0  0  2  0  0  0  0  0  0
  184.0310  174.9090  136.1290 C   0  0  0  0  0  1  0  0  0  0  0  0
  181.7720  177.7730  135.5020 C   0  0  0  0  0  2  0  0  0  0  0  0
  184.4750  178.9870  142.5090 C   0  0  2  0  0  3  0  0  0  0  0  0
  187.4920  178.3200  143.3420 C   0  0  0  0  0  2  0  0  0  0  0  0
  184.6230  177.8280  138.9110 C   0  0  0  0  0  3  0  0  0  0  0  0
  181.5800  178.6840  136.7120 C   0  0  0  0  0  2  0  0  0  0  0  0
  185.0630  178.1570  141.3690 C   0  0  1  0  0  3  0  0  0  0  0  0
  184.0190  179.0670  144.8840 C   0  0  0  0  0  2  0  0  0  0  0  0
  182.4190  178.3790  137.9400 C   0  0  0  0  0  0  0  0  0  0  0  0
  182.1560  176.4340  135.9160 N   0  0  0  0  0  2  0  0  0  0  0  0
  186.2170  177.9550  144.0930 C   0  0  2  0  0  3  0  0  0  0  0  0
  182.7600  178.5700  140.3590 C   0  0  0  0  0  0  0  0  0  0  0  0
  184.3660  177.3300  136.5560 C   0  0  0  0  0  0  0  0  0  0  0  0
  184.1660  178.2600  140.1990 N   0  0  0  0  0  0  0  0  0  0  0  0
  179.9860  179.1780  140.6960 C   0  0  0  0  0  3  0  0  0  0  0  0
  187.4730  177.8460  141.8930 C   0  0  0  0  0  2  0  0  0  0  0  0
  180.5270  179.2850  139.2960 C   0  0  0  0  0  2  0  0  0  0  0  0
  186.4760  178.6260  141.0480 C   0  0  0  0  0  2  0  0  0  0  0  0
  185.1700  179.0640  143.8670 C   0  0  1  0  0  3  0  0  0  0  0  0
  180.7740  178.9540  141.7490 C   0  0  0  0  0  3  0  0  0  0  0  0
  183.0950  178.4670  142.7830 C   0  0  2  0  0  3  0  0  0  0  0  0
  186.5830  177.8070  145.5630 C   0  0  0  0  0  2  0  0  0  0  0  0
  187.9920  177.4700  145.6900 N   0  0  0  0  0  2  0  0  0  0  0  0
  190.0060  177.9570  148.0890 O   0  0  0  0  0  0  0  0  0  0  0  0
  187.6460  177.8590  148.0450 C   0  0  0  0  0  2  0  0  0  0  0  0
  188.1790  176.9060  147.0150 C   0  0  2  0  0  3  0  0  0  0  0  0
  188.8640  178.2530  148.8470 C   0  0  0  0  0  2  0  0  0  0  0  0
  189.6570  176.8350  147.3250 C   0  0  0  0  0  2  0  0  0  0  0  0
  1 26  1  0  0  0  0
  1 27  1  0  0  0  0
  2 14  1  0  0  0  0
  3 16  1  0  0  0  0
  3  7  1  1  0  0  0
  3 19  1  0  0  0  0
  4 23  1  0  0  0  0
  4 18  1  0  0  0  0
  5 15  1  0  0  0  0
  5 11  2  0  0  0  0
  6 19  2  0  0  0  0
  8 16  1  0  0  0  0
  8 12  1  0  0  0  0
  9 27  1  0  0  0  0
  9 25  1  0  0  0  0
 10 17  1  0  0  0  0
 11 20  1  0  0  0  0
 12 15  1  0  0  0  0
 13  9  1  0  0  0  0
 15  4  2  0  0  0  0
 17 28  1  0  0  0  0
 18  1  2  0  0  0  0
 19  5  1  0  0  0  0
 20 18  1  0  0  0  0
 20 13  1  0  0  0  0
 21 26  2  0  0  0  0
 22 10  1  0  0  0  0
 23 21  1  0  0  0  0
 24 13  1  0  0  0  0
 24 22  1  0  0  0  0
 25 17  1  0  0  0  0
 25 14  1  0  0  0  0
 27  2  1  0  0  0  0
 28 29  1  0  0  0  0
 29 32  1  0  0  0  0
 30 33  1  0  0  0  0
 31 33  1  0  0  0  0
 32 34  1  0  0  0  0
 32 31  1  0  0  0  0
 34 30  1  0  0  0  0
M  END
>  <MODEL>
5

>  <REMARK>
 VINA RESULT:      -8.4      3.665      6.648
  Name = 
  3 active torsions:
  status: ('A' for Active; 'I' for Inactive)
    1  A    between atoms: C_17  and  C_28
    2  A    between atoms: C_28  and  N_29
    3  A    between atoms: N_29  and  C_32
                            x       y       z     vdW  Elec       q    Type
                         _______ _______ _______ _____ _____    ______ ____

>  <TORSDO>
F 3

$$$$
=
 OpenBabel11122412073D

 34 40  0  0  1  0  0  0  0  0999 V2000
  186.2240  178.0390  143.4870 C   0  0  0  0  0  0  0  0  0  0  0  0
  186.7260  177.9200  146.0090 C   0  0  0  0  0  2  0  0  0  0  0  0
  187.6100  176.8740  137.2700 C   0  0  1  0  0  3  0  0  0  0  0  0
  185.9010  178.4900  141.0920 C   0  0  0  0  0  0  0  0  0  0  0  0
  187.8240  177.9720  139.6260 C   0  0  0  0  0  0  0  0  0  0  0  0
  189.5940  178.1140  137.9540 C   0  0  0  0  0  2  0  0  0  0  0  0
  188.0630  175.4280  137.3610 C   0  0  0  0  0  1  0  0  0  0  0  0
  185.7590  178.3250  137.3310 C   0  0  0  0  0  2  0  0  0  0  0  0
  188.4740  178.1330  144.4350 C   0  0  2  0  0  3  0  0  0  0  0  0
  191.5050  177.3590  145.1120 C   0  0  0  0  0  2  0  0  0  0  0  0
  188.6240  177.7310  140.6760 C   0  0  0  0  0  3  0  0  0  0  0  0
  185.5580  178.9680  138.7020 C   0  0  0  0  0  2  0  0  0  0  0  0
  189.0690  177.5620  143.1500 C   0  0  1  0  0  3  0  0  0  0  0  0
  188.0280  177.7220  146.7780 C   0  0  0  0  0  2  0  0  0  0  0  0
  186.4080  178.4330  139.8410 C   0  0  0  0  0  0  0  0  0  0  0  0
  186.1650  176.9350  137.4650 N   0  0  0  0  0  2  0  0  0  0  0  0
  190.2380  176.8290  145.7740 C   0  0  2  0  0  3  0  0  0  0  0  0
  186.7560  178.1340  142.2480 C   0  0  0  0  0  0  0  0  0  0  0  0
  188.3640  177.7170  138.2700 C   0  0  0  0  0  0  0  0  0  0  0  0
  188.1660  177.8850  142.0270 N   0  0  0  0  0  0  0  0  0  0  0  0
  183.9740  178.6180  142.7050 C   0  0  0  0  0  3  0  0  0  0  0  0
  191.4860  177.1880  143.5970 C   0  0  0  0  0  2  0  0  0  0  0  0
  184.5080  179.0160  141.3550 C   0  0  0  0  0  2  0  0  0  0  0  0
  190.4740  178.1070  142.9290 C   0  0  0  0  0  2  0  0  0  0  0  0
  189.1740  177.9440  145.7800 C   0  0  1  0  0  3  0  0  0  0  0  0
  184.7700  178.1970  143.6890 C   0  0  0  0  0  3  0  0  0  0  0  0
  187.1040  177.5470  144.6000 C   0  0  2  0  0  3  0  0  0  0  0  0
  190.6140  176.3910  147.1830 C   0  0  0  0  0  2  0  0  0  0  0  0
  191.9170  176.9300  147.5380 N   0  0  0  0  0  2  0  0  0  0  0  0
  194.4920  176.6980  149.3730 O   0  0  0  0  0  0  0  0  0  0  0  0
  192.4250  177.7830  149.7360 C   0  0  0  0  0  2  0  0  0  0  0  0
  192.1760  176.5510  148.9160 C   0  0  2  0  0  3  0  0  0  0  0  0
  193.8540  177.6320  150.2020 C   0  0  0  0  0  2  0  0  0  0  0  0
  193.4850  175.8000  148.9910 C   0  0  0  0  0  2  0  0  0  0  0  0
  1 26  1  0  0  0  0
  1 27  1  0  0  0  0
  2 14  1  0  0  0  0
  3  7  1  1  0  0  0
  3 16  1  0  0  0  0
  3 19  1  0  0  0  0
  4 23  1  0  0  0  0
  4 18  1  0  0  0  0
  5 15  1  0  0  0  0
  5 11  2  0  0  0  0
  6 19  2  0  0  0  0
  8 16  1  0  0  0  0
  8 12  1  0  0  0  0
  9 27  1  0  0  0  0
  9 25  1  0  0  0  0
 10 17  1  0  0  0  0
 11 20  1  0  0  0  0
 12 15  1  0  0  0  0
 13  9  1  0  0  0  0
 15  4  2  0  0  0  0
 17 25  1  0  0  0  0
 17 28  1  0  0  0  0
 18  1  2  0  0  0  0
 19  5  1  0  0  0  0
 20 18  1  0  0  0  0
 20 13  1  0  0  0  0
 21 26  2  0  0  0  0
 22 10  1  0  0  0  0
 23 21  1  0  0  0  0
 24 13  1  0  0  0  0
 24 22  1  0  0  0  0
 25 14  1  0  0  0  0
 27  2  1  0  0  0  0
 28 29  1  0  0  0  0
 29 32  1  0  0  0  0
 30 33  1  0  0  0  0
 31 33  1  0  0  0  0
 32 34  1  0  0  0  0
 32 31  1  0  0  0  0
 34 30  1  0  0  0  0
M  END
>  <MODEL>
6

>  <REMARK>
 VINA RESULT:      -8.0      4.473      7.481
  Name = 
  3 active torsions:
  status: ('A' for Active; 'I' for Inactive)
    1  A    between atoms: C_17  and  C_28
    2  A    between atoms: C_28  and  N_29
    3  A    between atoms: N_29  and  C_32
                            x       y       z     vdW  Elec       q    Type
                         _______ _______ _______ _____ _____    ______ ____

>  <TORSDO>
F 3

$$$$
=
 OpenBabel11122412073D

 34 40  0  0  1  0  0  0  0  0999 V2000
  185.6830  178.1360  144.7200 C   0  0  0  0  0  0  0  0  0  0  0  0
  187.6810  177.8790  146.3230 C   0  0  0  0  0  2  0  0  0  0  0  0
  182.7380  177.3600  139.0050 C   0  0  1  0  0  3  0  0  0  0  0  0
  183.9120  178.7200  143.1170 C   0  0  0  0  0  0  0  0  0  0  0  0
  184.4370  178.3220  140.7340 C   0  0  0  0  0  0  0  0  0  0  0  0
  184.7290  178.5920  138.3270 C   0  0  0  0  0  2  0  0  0  0  0  0
  183.1100  175.9190  138.7030 C   0  0  0  0  0  1  0  0  0  0  0  0
  181.3910  178.7720  140.3180 C   0  0  0  0  0  2  0  0  0  0  0  0
  188.0200  178.2140  144.0100 C   0  0  2  0  0  3  0  0  0  0  0  0
  190.7610  177.4540  142.5430 C   0  0  0  0  0  2  0  0  0  0  0  0
  185.7180  178.0340  141.0130 C   0  0  0  0  0  3  0  0  0  0  0  0
  182.1300  179.3310  141.5330 C   0  0  0  0  0  2  0  0  0  0  0  0
  187.6400  177.7290  142.6120 C   0  0  1  0  0  3  0  0  0  0  0  0
  189.1680  177.6600  146.0670 C   0  0  0  0  0  2  0  0  0  0  0  0
  183.4990  178.7450  141.8310 C   0  0  0  0  0  0  0  0  0  0  0  0
  181.7550  177.3840  140.0830 N   0  0  0  0  0  2  0  0  0  0  0  0
  190.2000  176.8650  143.8320 C   0  0  2  0  0  3  0  0  0  0  0  0
  185.3000  178.3130  143.4350 C   0  0  2  0  0  3  0  0  0  0  0  0
  183.9780  178.1570  139.3350 C   0  0  0  0  0  0  0  0  0  0  0  0
  186.2350  178.1010  142.3480 N   0  0  0  0  0  0  0  0  0  0  0  0
  183.4690  178.7200  145.5940 C   0  0  0  0  0  3  0  0  0  0  0  0
  189.7720  177.3710  141.3850 C   0  0  0  0  0  2  0  0  0  0  0  0
  183.0230  179.2050  144.2410 C   0  0  0  0  0  3  0  0  0  0  0  0
  188.5900  178.3110  141.5740 C   0  0  0  0  0  2  0  0  0  0  0  0
  189.4140  177.9580  144.5800 C   0  0  1  0  0  3  0  0  0  0  0  0
  184.7000  178.2570  145.8140 C   0  0  0  0  0  3  0  0  0  0  0  0
  187.0600  177.5960  144.9810 C   0  0  2  0  0  3  0  0  0  0  0  0
  191.3800  176.3520  144.6470 C   0  0  0  0  0  2  0  0  0  0  0  0
  191.5800  177.1970  145.8140 N   0  0  0  0  0  2  0  0  0  0  0  0
  193.5020  175.6350  147.7930 O   0  0  0  0  0  0  0  0  0  0  0  0
  191.7330  177.1420  148.2200 C   0  0  0  0  0  2  0  0  0  0  0  0
  191.3990  176.3570  146.9850 C   0  0  2  0  0  3  0  0  0  0  0  0
  192.9270  176.4230  148.8020 C   0  0  0  0  0  2  0  0  0  0  0  0
  192.4310  175.2530  146.9730 C   0  0  0  0  0  2  0  0  0  0  0  0
  1 27  1  0  0  0  0
  1 26  2  0  0  0  0
  3  7  1  1  0  0  0
  3 19  1  0  0  0  0
  3 16  1  0  0  0  0
  4 18  1  0  0  0  0
  4 23  1  0  0  0  0
  5 11  2  0  0  0  0
  5 15  1  0  0  0  0
  6 19  2  0  0  0  0
  8 12  1  0  0  0  0
  9 25  1  0  0  0  0
  9 27  1  0  0  0  0
 10 17  1  0  0  0  0
 11 20  1  0  0  0  0
 12 15  1  0  0  0  0
 13  9  1  0  0  0  0
 14  2  1  0  0  0  0
 15  4  2  0  0  0  0
 16  8  1  0  0  0  0
 17 25  1  0  0  0  0
 17 28  1  0  0  0  0
 18  1  1  0  0  0  0
 19  5  1  0  0  0  0
 20 13  1  0  0  0  0
 20 18  1  0  0  0  0
 21 26  1  0  0  0  0
 22 24  1  0  0  0  0
 22 10  1  0  0  0  0
 23 21  2  0  0  0  0
 24 13  1  0  0  0  0
 25 14  1  0  0  0  0
 27  2  1  0  0  0  0
 28 29  1  0  0  0  0
 29 32  1  0  0  0  0
 30 33  1  0  0  0  0
 31 33  1  0  0  0  0
 32 31  1  0  0  0  0
 34 32  1  0  0  0  0
 34 30  1  0  0  0  0
M  END
>  <MODEL>
7

>  <REMARK>
 VINA RESULT:      -7.9      3.669      5.285
  Name = 
  3 active torsions:
  status: ('A' for Active; 'I' for Inactive)
    1  A    between atoms: C_17  and  C_28
    2  A    between atoms: C_28  and  N_29
    3  A    between atoms: N_29  and  C_32
                            x       y       z     vdW  Elec       q    Type
                         _______ _______ _______ _____ _____    ______ ____

>  <TORSDO>
F 3

$$$$
=
 OpenBabel11122412073D

 34 40  0  0  1  0  0  0  0  0999 V2000
  188.3260  177.6440  138.5350 C   0  0  0  0  0  0  0  0  0  0  0  0
  186.7550  178.4660  140.4010 C   0  0  0  0  0  2  0  0  0  0  0  0
  193.2000  174.0270  136.2780 C   0  0  1  0  0  3  0  0  0  0  0  0
  190.0340  177.1580  136.8340 C   0  0  0  0  0  0  0  0  0  0  0  0
  192.0280  175.9270  137.6250 C   0  0  0  0  0  0  0  0  0  0  0  0
  194.3230  175.2350  138.0720 C   0  0  0  0  0  2  0  0  0  0  0  0
  192.8670  172.6930  136.9220 C   0  0  0  0  0  1  0  0  0  0  0  0
  192.6080  175.5600  134.5950 C   0  0  0  0  0  2  0  0  0  0  0  0
  188.9930  177.8800  140.8740 C   0  0  2  0  0  3  0  0  0  0  0  0
  189.9920  177.1380  143.8230 C   0  0  0  0  0  2  0  0  0  0  0  0
  191.6480  176.0360  138.9080 C   0  0  0  0  0  3  0  0  0  0  0  0
  191.7370  176.7010  135.1160 C   0  0  0  0  0  2  0  0  0  0  0  0
  190.0590  176.7990  140.7080 C   0  0  1  0  0  3  0  0  0  0  0  0
  186.8880  178.4570  141.9190 C   0  0  0  0  0  2  0  0  0  0  0  0
  191.2140  176.5710  136.5360 C   0  0  0  0  0  0  0  0  0  0  0  0
  192.2370  174.2990  135.2160 N   0  0  0  0  0  2  0  0  0  0  0  0
  188.5770  177.0330  143.2650 C   0  0  2  0  0  3  0  0  0  0  0  0
  189.5690  177.1980  138.2400 C   0  0  0  0  0  0  0  0  0  0  0  0
  193.2300  175.1140  137.3240 C   0  0  0  0  0  0  0  0  0  0  0  0
  190.4620  176.7470  139.2880 N   0  0  0  0  0  0  0  0  0  0  0  0
  187.7890  178.0900  136.1860 C   0  0  0  0  0  3  0  0  0  0  0  0
  191.0130  176.3940  142.9680 C   0  0  0  0  0  2  0  0  0  0  0  0
  189.2230  177.8780  135.7800 C   0  0  0  0  0  2  0  0  0  0  0  0
  191.2420  177.0760  141.6260 C   0  0  0  0  0  2  0  0  0  0  0  0
  188.3620  178.1600  142.2360 C   0  0  1  0  0  3  0  0  0  0  0  0
  187.3890  178.0090  137.4550 C   0  0  0  0  0  3  0  0  0  0  0  0
  187.8560  177.5400  139.9570 C   0  0  2  0  0  3  0  0  0  0  0  0
  187.6170  177.1430  144.4420 C   0  0  0  0  0  2  0  0  0  0  0  0
  188.2250  177.9270  145.5050 N   0  0  0  0  0  2  0  0  0  0  0  0
  189.5680  177.9160  148.3770 O   0  0  0  0  0  0  0  0  0  0  0  0
  187.3040  178.0990  147.7270 C   0  0  0  0  0  2  0  0  0  0  0  0
  188.0070  177.2060  146.7470 C   0  0  2  0  0  3  0  0  0  0  0  0
  188.2950  178.2600  148.8550 C   0  0  0  0  0  2  0  0  0  0  0  0
  189.3390  176.9310  147.4050 C   0  0  0  0  0  2  0  0  0  0  0  0
  1 27  1  0  0  0  0
  2 14  1  0  0  0  0
  3  7  1  1  0  0  0
  3 19  1  0  0  0  0
  4 18  1  0  0  0  0
  5 11  2  0  0  0  0
  8 12  1  0  0  0  0
  8 16  1  0  0  0  0
  9 25  1  0  0  0  0
 11 20  1  0  0  0  0
 12 15  1  0  0  0  0
 13  9  1  0  0  0  0
 13 24  1  0  0  0  0
 14 25  1  0  0  0  0
 15  4  2  0  0  0  0
 15  5  1  0  0  0  0
 16  3  1  0  0  0  0
 17 10  1  0  0  0  0
 17 28  1  0  0  0  0
 18  1  2  0  0  0  0
 18 20  1  0  0  0  0
 19  5  1  0  0  0  0
 19  6  2  0  0  0  0
 20 13  1  0  0  0  0
 21 26  2  0  0  0  0
 22 10  1  0  0  0  0
 23 21  1  0  0  0  0
 23  4  1  0  0  0  0
 24 22  1  0  0  0  0
 25 17  1  0  0  0  0
 26  1  1  0  0  0  0
 27  2  1  0  0  0  0
 27  9  1  0  0  0  0
 28 29  1  0  0  0  0
 29 32  1  0  0  0  0
 30 33  1  0  0  0  0
 31 33  1  0  0  0  0
 32 34  1  0  0  0  0
 32 31  1  0  0  0  0
 34 30  1  0  0  0  0
M  END
>  <MODEL>
8

>  <REMARK>
 VINA RESULT:      -7.8      4.539      9.805
  Name = 
  3 active torsions:
  status: ('A' for Active; 'I' for Inactive)
    1  A    between atoms: C_17  and  C_28
    2  A    between atoms: C_28  and  N_29
    3  A    between atoms: N_29  and  C_32
                            x       y       z     vdW  Elec       q    Type
                         _______ _______ _______ _____ _____    ______ ____

>  <TORSDO>
F 3

$$$$
=
 OpenBabel11122412073D

 34 40  0  0  1  0  0  0  0  0999 V2000
  185.5350  178.4670  140.1860 C   0  0  0  0  0  0  0  0  0  0  0  0
  187.2830  178.2060  142.0580 C   0  0  0  0  0  2  0  0  0  0  0  0
  179.8070  180.4130  137.8770 C   0  0  1  0  0  3  0  0  0  0  0  0
  183.7560  178.3720  138.4920 C   0  0  0  0  0  0  0  0  0  0  0  0
  181.4900  178.9870  139.2680 C   0  0  0  0  0  0  0  0  0  0  0  0
  179.0930  178.9870  139.7200 C   0  0  0  0  0  2  0  0  0  0  0  0
  179.7340  181.8060  138.4750 C   0  0  0  0  0  1  0  0  0  0  0  0
  180.8210  179.0670  136.2350 C   0  0  0  0  0  2  0  0  0  0  0  0
  184.9720  178.1220  142.5400 C   0  0  2  0  0  3  0  0  0  0  0  0
  183.8060  178.6340  145.4750 C   0  0  0  0  0  2  0  0  0  0  0  0
  181.8880  179.0370  140.5480 C   0  0  0  0  0  3  0  0  0  0  0  0
  181.9900  178.2510  136.7810 C   0  0  0  0  0  2  0  0  0  0  0  0
  183.6350  178.8360  142.3520 C   0  0  1  0  0  3  0  0  0  0  0  0
  187.1560  178.2250  143.5770 C   0  0  0  0  0  2  0  0  0  0  0  0
  182.4550  178.5760  138.1890 C   0  0  0  0  0  0  0  0  0  0  0  0
  180.8050  180.4020  136.8130 N   0  0  0  0  0  2  0  0  0  0  0  0
  185.1260  179.1320  144.8980 C   0  0  2  0  0  3  0  0  0  0  0  0
  184.2160  178.5170  139.8920 C   0  0  0  0  0  0  0  0  0  0  0  0
  180.1010  179.4000  138.9560 C   0  0  0  0  0  0  0  0  0  0  0  0
  183.2320  178.7200  140.9360 N   0  0  0  0  0  0  0  0  0  0  0  0
  186.1740  178.1220  137.8450 C   0  0  0  0  0  3  0  0  0  0  0  0
  182.6100  179.0150  144.6100 C   0  0  0  0  0  2  0  0  0  0  0  0
  184.7410  177.8890  137.4510 C   0  0  0  0  0  2  0  0  0  0  0  0
  182.5890  178.2530  143.2930 C   0  0  0  0  0  2  0  0  0  0  0  0
  185.6610  178.0850  143.9020 C   0  0  1  0  0  3  0  0  0  0  0  0
  186.5360  178.3580  139.1070 C   0  0  0  0  0  3  0  0  0  0  0  0
  185.9570  178.7510  141.5990 C   0  0  2  0  0  3  0  0  0  0  0  0
  186.0780  179.3480  146.0660 C   0  0  0  0  0  2  0  0  0  0  0  0
  186.5360  178.0660  146.5750 N   0  0  0  0  0  2  0  0  0  0  0  0
  188.6570  176.2630  148.0940 O   0  0  0  0  0  0  0  0  0  0  0  0
  188.9350  177.8850  146.3980 C   0  0  0  0  0  2  0  0  0  0  0  0
  187.7880  178.3050  147.2710 C   0  0  2  0  0  3  0  0  0  0  0  0
  189.5810  176.7520  147.1590 C   0  0  0  0  0  2  0  0  0  0  0  0
  187.8850  177.3750  148.4590 C   0  0  0  0  0  2  0  0  0  0  0  0
  1 27  1  0  0  0  0
  2 14  1  0  0  0  0
  3  7  1  1  0  0  0
  3 19  1  0  0  0  0
  4 18  1  0  0  0  0
  5 11  2  0  0  0  0
  8 12  1  0  0  0  0
  8 16  1  0  0  0  0
  9 25  1  0  0  0  0
 11 20  1  0  0  0  0
 12 15  1  0  0  0  0
 13  9  1  0  0  0  0
 13 24  1  0  0  0  0
 14 25  1  0  0  0  0
 15  4  2  0  0  0  0
 15  5  1  0  0  0  0
 16  3  1  0  0  0  0
 17 10  1  0  0  0  0
 17 28  1  0  0  0  0
 18  1  2  0  0  0  0
 18 20  1  0  0  0  0
 19  5  1  0  0  0  0
 19  6  2  0  0  0  0
 20 13  1  0  0  0  0
 21 26  2  0  0  0  0
 22 10  1  0  0  0  0
 23 21  1  0  0  0  0
 23  4  1  0  0  0  0
 24 22  1  0  0  0  0
 25 17  1  0  0  0  0
 26  1  1  0  0  0  0
 27  2  1  0  0  0  0
 27  9  1  0  0  0  0
 28 29  1  0  0  0  0
 29 32  1  0  0  0  0
 30 34  1  0  0  0  0
 31 33  1  0  0  0  0
 31 32  1  0  0  0  0
 32 34  1  0  0  0  0
 33 30  1  0  0  0  0
M  END
>  <MODEL>
9

>  <REMARK>
 VINA RESULT:      -7.8      3.651      6.528
  Name = 
  3 active torsions:
  status: ('A' for Active; 'I' for Inactive)
    1  A    between atoms: C_17  and  C_28
    2  A    between atoms: C_28  and  N_29
    3  A    between atoms: N_29  and  C_32
                            x       y       z     vdW  Elec       q    Type
                         _______ _______ _______ _____ _____    ______ ____

>  <TORSDO>
F 3

$$$$
