=
 OpenBabel11122411233D

 37 44  0  0  1  0  0  0  0  0999 V2000
  189.6460  176.7990  139.4540 C   0  0  0  0  0  2  0  0  0  0  0  0
  190.4460  177.7990  143.8900 C   0  0  0  0  0  0  0  0  0  0  0  0
  186.4550  178.1380  142.7280 C   0  0  0  0  0  0  0  0  0  0  0  0
  190.2090  176.9600  138.1190 N   0  0  0  0  0  0  0  0  0  0  0  0
  186.0980  178.6440  138.8990 C   0  0  0  0  0  2  0  0  0  0  0  0
  187.9950  177.7770  144.5590 C   0  0  0  0  0  0  0  0  0  0  0  0
  186.5690  178.1640  141.3550 C   0  0  0  0  0  0  0  0  0  0  0  0
  188.1360  176.1560  136.9900 C   0  0  2  0  0  3  0  0  0  0  0  0
  187.7080  177.8780  143.2120 C   0  0  0  0  0  0  0  0  0  0  0  0
  185.5720  178.4800  140.3160 C   0  0  0  0  0  0  0  0  0  0  0  0
  186.9290  177.9170  145.4620 C   0  0  0  0  0  3  0  0  0  0  0  0
  189.6310  175.9360  137.2550 C   0  0  0  0  0  2  0  0  0  0  0  0
  188.6040  177.7380  142.2350 N   0  0  0  0  0  0  0  0  0  0  0  0
  191.7440  177.0930  144.2170 C   0  0  0  0  0  1  0  0  0  0  0  0
  184.0020  178.4700  143.1240 C   0  0  0  0  0  3  0  0  0  0  0  0
  185.6230  178.1690  144.9740 C   0  0  0  0  0  3  0  0  0  0  0  0
  190.0030  177.3820  142.4680 C   0  0  0  0  0  2  0  0  0  0  0  0
  187.7070  177.6160  137.1400 C   0  0  0  0  0  2  0  0  0  0  0  0
  187.4740  178.0280  138.5970 C   0  0  1  0  0  0  0  0  0  0  0  0
  185.3750  178.2820  143.5870 C   0  0  0  0  0  0  0  0  0  0  0  0
  187.9070  177.8810  141.0820 C   0  0  0  0  0  0  0  0  0  0  0  0
  189.3990  177.4330  144.9740 C   0  0  0  0  0  2  0  0  0  0  0  0
  184.2510  178.7000  140.5600 C   0  0  0  0  0  0  0  0  0  0  0  0
  190.7000  179.2970  143.9180 C   0  0  0  0  0  1  0  0  0  0  0  0
  188.4900  178.9370  138.9900 O   0  0  0  0  0  0  0  0  0  0  0  0
  187.3700  175.3240  137.7870 F   0  0  0  0  0  0  0  0  0  0  0  0
  188.4460  177.7270  139.6970 C   0  0  1  0  0  0  0  0  0  0  0  0
  183.5620  178.6330  141.8750 C   0  0  0  0  0  3  0  0  0  0  0  0
  182.8390  178.0280  138.6130 C   0  0  0  0  0  3  0  0  0  0  0  0
  183.3320  179.0410  139.4490 C   0  0  0  0  0  0  0  0  0  0  0  0
  182.9080  180.3640  139.2490 C   0  0  0  0  0  3  0  0  0  0  0  0
  181.6200  181.9520  138.0260 F   0  0  0  0  0  0  0  0  0  0  0  0
  181.5410  179.6590  137.3800 C   0  0  0  0  0  3  0  0  0  0  0  0
  182.0200  180.6720  138.2160 C   0  0  0  0  0  0  0  0  0  0  0  0
  181.9490  178.3370  137.5800 C   0  0  0  0  0  3  0  0  0  0  0  0
  191.8860  175.2270  137.8150 C   0  0  0  0  0  1  0  0  0  0  0  0
  191.6280  176.6660  138.2190 C   0  0  0  0  0  2  0  0  0  0  0  0
  2 24  1  0  0  0  0
  2 14  1  0  0  0  0
  2 22  1  0  0  0  0
  3  9  2  0  0  0  0
  3 20  1  0  0  0  0
  4 37  1  0  0  0  0
  4  1  1  0  0  0  0
  5 10  1  0  0  0  0
  6 22  1  0  0  0  0
  6 11  2  0  0  0  0
  7  3  1  0  0  0  0
  8 18  1  0  0  0  0
  8 12  1  0  0  0  0
  8 26  1  1  0  0  0
  9  6  1  0  0  0  0
 10 23  2  0  0  0  0
 10  7  1  0  0  0  0
 12  4  1  0  0  0  0
 13 17  1  0  0  0  0
 13  9  1  0  0  0  0
 15 20  1  0  0  0  0
 16 11  1  0  0  0  0
 17  2  1  0  0  0  0
 19 18  1  6  0  0  0
 19  5  1  0  0  0  0
 19 25  1  0  0  0  0
 19 27  1  0  0  0  0
 20 16  2  0  0  0  0
 21  7  2  0  0  0  0
 21 13  1  0  0  0  0
 23 28  1  0  0  0  0
 25 27  1  0  0  0  0
 27  1  1  6  0  0  0
 27 21  1  0  0  0  0
 28 15  2  0  0  0  0
 29 30  1  0  0  0  0
 30 23  1  0  0  0  0
 31 30  2  0  0  0  0
 32 34  1  0  0  0  0
 33 35  1  0  0  0  0
 33 34  2  0  0  0  0
 34 31  1  0  0  0  0
 35 29  2  0  0  0  0
 36 37  1  0  0  0  0
M  END
>  <MODEL>
1

>  <REMARK>
 VINA RESULT:     -11.0      0.000      0.000
  Name = 
  2 active torsions:
  status: ('A' for Active; 'I' for Inactive)
    1  A    between atoms: N_4  and  C_37
    2  A    between atoms: C_23  and  C_30
                            x       y       z     vdW  Elec       q    Type
                         _______ _______ _______ _____ _____    ______ ____

>  <TORSDO>
F 2

$$$$
=
 OpenBabel11122411233D

 37 44  0  0  1  0  0  0  0  0999 V2000
  184.4130  178.0690  138.5460 C   0  0  0  0  0  2  0  0  0  0  0  0
  188.5970  178.1260  136.5950 C   0  0  0  0  0  0  0  0  0  0  0  0
  188.6110  177.4480  140.7090 C   0  0  0  0  0  0  0  0  0  0  0  0
  183.1150  178.7320  138.5040 N   0  0  0  0  0  0  0  0  0  0  0  0
  185.3780  178.7560  142.4060 C   0  0  0  0  0  2  0  0  0  0  0  0
  189.7880  177.1520  138.6160 C   0  0  0  0  0  0  0  0  0  0  0  0
  187.3420  177.8520  141.0600 C   0  0  0  0  0  0  0  0  0  0  0  0
  182.3160  177.6160  140.5860 C   0  0  2  0  0  3  0  0  0  0  0  0
  188.6640  177.4910  139.3430 C   0  0  0  0  0  0  0  0  0  0  0  0
  186.7410  178.0820  142.3870 C   0  0  0  0  0  0  0  0  0  0  0  0
  190.9150  176.7120  139.3310 C   0  0  0  0  0  3  0  0  0  0  0  0
  182.1240  177.8270  139.0790 C   0  0  0  0  0  2  0  0  0  0  0  0
  187.5110  177.8950  138.8090 N   0  0  0  0  0  0  0  0  0  0  0  0
  188.3460  177.8150  135.1350 C   0  0  0  0  0  1  0  0  0  0  0  0
  189.6730  176.8650  142.9040 C   0  0  0  0  0  3  0  0  0  0  0  0
  190.8680  176.6460  140.7440 C   0  0  0  0  0  3  0  0  0  0  0  0
  187.2680  177.9600  137.3680 C   0  0  0  0  0  2  0  0  0  0  0  0
  183.0450  178.7740  141.2690 C   0  0  0  0  0  2  0  0  0  0  0  0
  184.5650  178.7110  141.1020 C   0  0  1  0  0  0  0  0  0  0  0  0
  189.7020  177.0180  141.4520 C   0  0  0  0  0  0  0  0  0  0  0  0
  186.6770  178.0910  139.8580 C   0  0  0  0  0  0  0  0  0  0  0  0
  189.7140  177.1840  137.1140 C   0  0  0  0  0  2  0  0  0  0  0  0
  187.3540  177.7990  143.5680 C   0  0  0  0  0  0  0  0  0  0  0  0
  189.0630  179.5690  136.7000 C   0  0  0  0  0  1  0  0  0  0  0  0
  184.9830  179.7680  140.2530 O   0  0  0  0  0  0  0  0  0  0  0  0
  182.9470  176.4110  140.8340 F   0  0  0  0  0  0  0  0  0  0  0  0
  185.2340  178.4710  139.7810 C   0  0  1  0  0  0  0  0  0  0  0  0
  188.6960  177.1860  143.7540 C   0  0  0  0  0  3  0  0  0  0  0  0
  185.3030  178.3820  144.8690 C   0  0  0  0  0  3  0  0  0  0  0  0
  186.6770  178.0940  144.8520 C   0  0  0  0  0  0  0  0  0  0  0  0
  187.3830  178.0420  146.0640 C   0  0  0  0  0  3  0  0  0  0  0  0
  187.4190  178.2500  148.4370 F   0  0  0  0  0  0  0  0  0  0  0  0
  185.3640  178.5920  147.2810 C   0  0  0  0  0  3  0  0  0  0  0  0
  186.7300  178.2950  147.2720 C   0  0  0  0  0  0  0  0  0  0  0  0
  184.6500  178.6340  146.0790 C   0  0  0  0  0  3  0  0  0  0  0  0
  181.2750  179.1270  136.9670 C   0  0  0  0  0  1  0  0  0  0  0  0
  182.7660  178.8930  137.1030 C   0  0  0  0  0  2  0  0  0  0  0  0
  2 24  1  0  0  0  0
  2 22  1  0  0  0  0
  2 17  1  0  0  0  0
  3  7  1  0  0  0  0
  3 20  1  0  0  0  0
  4  1  1  0  0  0  0
  4 12  1  0  0  0  0
  6 11  2  0  0  0  0
  6  9  1  0  0  0  0
  7 10  1  0  0  0  0
  8 26  1  6  0  0  0
  8 18  1  0  0  0  0
  9  3  2  0  0  0  0
 10  5  1  0  0  0  0
 10 23  2  0  0  0  0
 11 16  1  0  0  0  0
 12  8  1  0  0  0  0
 13  9  1  0  0  0  0
 13 21  1  0  0  0  0
 14  2  1  0  0  0  0
 15 28  2  0  0  0  0
 16 20  2  0  0  0  0
 17 13  1  0  0  0  0
 19 18  1  1  0  0  0
 19  5  1  0  0  0  0
 20 15  1  0  0  0  0
 21  7  2  0  0  0  0
 22  6  1  0  0  0  0
 23 28  1  0  0  0  0
 23 30  1  0  0  0  0
 25 19  1  0  0  0  0
 27  1  1  6  0  0  0
 27 21  1  0  0  0  0
 27 25  1  0  0  0  0
 27 19  1  0  0  0  0
 29 35  1  0  0  0  0
 30 29  2  0  0  0  0
 30 31  1  0  0  0  0
 31 34  2  0  0  0  0
 34 33  1  0  0  0  0
 34 32  1  0  0  0  0
 35 33  2  0  0  0  0
 36 37  1  0  0  0  0
 37  4  1  0  0  0  0
M  END
>  <MODEL>
2

>  <REMARK>
 VINA RESULT:      -8.7      2.707      6.882
  Name = 
  2 active torsions:
  status: ('A' for Active; 'I' for Inactive)
    1  A    between atoms: N_4  and  C_37
    2  A    between atoms: C_23  and  C_30
                            x       y       z     vdW  Elec       q    Type
                         _______ _______ _______ _____ _____    ______ ____

>  <TORSDO>
F 2

$$$$
=
 OpenBabel11122411233D

 37 44  0  0  1  0  0  0  0  0999 V2000
  189.7790  176.8530  145.0660 C   0  0  0  0  0  2  0  0  0  0  0  0
  186.1950  178.6510  147.3570 C   0  0  0  0  0  0  0  0  0  0  0  0
  185.6410  178.3430  143.2350 C   0  0  0  0  0  0  0  0  0  0  0  0
  191.2360  176.8570  145.0250 N   0  0  0  0  0  0  0  0  0  0  0  0
  189.0130  178.1700  141.3270 C   0  0  0  0  0  2  0  0  0  0  0  0
  184.5790  178.4620  145.4060 C   0  0  0  0  0  0  0  0  0  0  0  0
  186.9330  178.1560  142.7960 C   0  0  0  0  0  0  0  0  0  0  0  0
  191.3220  175.6500  142.8440 C   0  0  2  0  0  3  0  0  0  0  0  0
  185.6910  178.3080  144.6020 C   0  0  0  0  0  0  0  0  0  0  0  0
  187.4960  178.1830  141.4340 C   0  0  0  0  0  0  0  0  0  0  0  0
  183.3370  178.6280  144.7710 C   0  0  0  0  0  3  0  0  0  0  0  0
  191.6740  175.6450  144.3370 C   0  0  0  0  0  2  0  0  0  0  0  0
  186.9300  178.1120  145.0530 N   0  0  0  0  0  0  0  0  0  0  0  0
  186.3610  178.1590  148.7790 C   0  0  0  0  0  1  0  0  0  0  0  0
  184.3070  178.4560  141.1160 C   0  0  0  0  0  3  0  0  0  0  0  0
  183.2680  178.6470  143.3570 C   0  0  0  0  0  3  0  0  0  0  0  0
  187.2570  177.9590  146.4710 C   0  0  0  0  0  2  0  0  0  0  0  0
  191.1600  177.0560  142.2670 C   0  0  0  0  0  2  0  0  0  0  0  0
  189.7890  177.6730  142.5570 C   0  0  1  0  0  0  0  0  0  0  0  0
  184.4330  178.5020  142.5700 C   0  0  0  0  0  0  0  0  0  0  0  0
  187.7010  177.9850  143.9470 C   0  0  0  0  0  0  0  0  0  0  0  0
  184.7450  178.3520  146.8970 C   0  0  0  0  0  2  0  0  0  0  0  0
  186.7550  178.2890  140.2980 C   0  0  0  0  0  0  0  0  0  0  0  0
  186.4300  180.1520  147.3440 C   0  0  0  0  0  1  0  0  0  0  0  0
  189.9460  178.7430  143.4760 O   0  0  0  0  0  0  0  0  0  0  0  0
  190.1990  174.8780  142.6050 F   0  0  0  0  0  0  0  0  0  0  0  0
  189.1610  177.6680  143.9180 C   0  0  1  0  0  0  0  0  0  0  0  0
  185.2740  178.3610  140.2000 C   0  0  0  0  0  3  0  0  0  0  0  0
  188.7910  178.6190  138.8880 C   0  0  0  0  0  3  0  0  0  0  0  0
  187.4180  178.3370  138.9740 C   0  0  0  0  0  0  0  0  0  0  0  0
  186.7010  178.0560  137.8010 C   0  0  0  0  0  3  0  0  0  0  0  0
  186.6390  177.8110  135.4310 F   0  0  0  0  0  0  0  0  0  0  0  0
  188.7050  178.3690  136.4810 C   0  0  0  0  0  3  0  0  0  0  0  0
  187.3400  178.0770  136.5600 C   0  0  0  0  0  0  0  0  0  0  0  0
  189.4300  178.6390  137.6450 C   0  0  0  0  0  3  0  0  0  0  0  0
  190.5140  176.7530  147.3430 C   0  0  0  0  0  1  0  0  0  0  0  0
  191.6990  176.7450  146.3970 C   0  0  0  0  0  2  0  0  0  0  0  0
  2 14  1  0  0  0  0
  3  9  1  0  0  0  0
  4  1  1  0  0  0  0
  4 37  1  0  0  0  0
  5 10  1  0  0  0  0
  6 22  1  0  0  0  0
  7  3  1  0  0  0  0
  7 21  2  0  0  0  0
  8 26  1  1  0  0  0
  8 12  1  0  0  0  0
  9 13  1  0  0  0  0
  9  6  2  0  0  0  0
 10  7  1  0  0  0  0
 11  6  1  0  0  0  0
 12  4  1  0  0  0  0
 13 17  1  0  0  0  0
 15 20  1  0  0  0  0
 16 11  2  0  0  0  0
 17  2  1  0  0  0  0
 18 19  1  0  0  0  0
 18  8  1  0  0  0  0
 19  5  1  6  0  0  0
 19 25  1  0  0  0  0
 19 27  1  0  0  0  0
 20  3  2  0  0  0  0
 20 16  1  0  0  0  0
 21 13  1  0  0  0  0
 22  2  1  0  0  0  0
 23 10  2  0  0  0  0
 24  2  1  0  0  0  0
 25 27  1  0  0  0  0
 27 21  1  0  0  0  0
 27  1  1  1  0  0  0
 28 23  1  0  0  0  0
 28 15  2  0  0  0  0
 29 30  1  0  0  0  0
 30 23  1  0  0  0  0
 31 30  2  0  0  0  0
 32 34  1  0  0  0  0
 33 34  2  0  0  0  0
 33 35  1  0  0  0  0
 34 31  1  0  0  0  0
 35 29  2  0  0  0  0
 37 36  1  0  0  0  0
M  END
>  <MODEL>
3

>  <REMARK>
 VINA RESULT:      -8.4      2.787      5.222
  Name = 
  2 active torsions:
  status: ('A' for Active; 'I' for Inactive)
    1  A    between atoms: N_4  and  C_37
    2  A    between atoms: C_23  and  C_30
                            x       y       z     vdW  Elec       q    Type
                         _______ _______ _______ _____ _____    ______ ____

>  <TORSDO>
F 2

$$$$
=
 OpenBabel11122411233D

 37 44  0  0  1  0  0  0  0  0999 V2000
  184.6440  178.6140  139.5910 C   0  0  0  0  0  2  0  0  0  0  0  0
  188.3990  178.4100  136.9110 C   0  0  0  0  0  0  0  0  0  0  0  0
  189.0420  177.3170  140.8830 C   0  0  0  0  0  0  0  0  0  0  0  0
  183.4530  179.4170  139.8440 N   0  0  0  0  0  0  0  0  0  0  0  0
  186.3450  178.7920  143.2490 C   0  0  0  0  0  2  0  0  0  0  0  0
  189.7900  177.1100  138.5920 C   0  0  0  0  0  0  0  0  0  0  0  0
  187.9140  177.8210  141.4950 C   0  0  0  0  0  0  0  0  0  0  0  0
  182.8940  178.1880  141.9410 C   0  0  2  0  0  3  0  0  0  0  0  0
  188.8610  177.4930  139.5390 C   0  0  0  0  0  0  0  0  0  0  0  0
  187.5880  177.9780  142.9240 C   0  0  0  0  0  0  0  0  0  0  0  0
  190.9590  176.4780  139.0480 C   0  0  0  0  0  3  0  0  0  0  0  0
  182.4710  178.5720  140.5170 C   0  0  0  0  0  2  0  0  0  0  0  0
  187.6940  178.0740  139.2620 N   0  0  0  0  0  0  0  0  0  0  0  0
  187.8600  178.2800  135.5020 C   0  0  0  0  0  1  0  0  0  0  0  0
  190.3870  176.3990  142.7890 C   0  0  0  0  0  3  0  0  0  0  0  0
  191.1510  176.2730  140.4360 C   0  0  0  0  0  3  0  0  0  0  0  0
  187.2140  178.3130  137.9010 C   0  0  0  0  0  2  0  0  0  0  0  0
  183.8710  179.1830  142.5680 C   0  0  0  0  0  2  0  0  0  0  0  0
  185.3190  178.9700  142.1180 C   0  0  1  0  0  0  0  0  0  0  0  0
  190.1820  176.6960  141.3740 C   0  0  0  0  0  0  0  0  0  0  0  0
  187.0860  178.2530  140.4590 C   0  0  0  0  0  0  0  0  0  0  0  0
  189.4600  177.3030  137.1370 C   0  0  0  0  0  2  0  0  0  0  0  0
  188.3560  177.5090  143.9440 C   0  0  0  0  0  0  0  0  0  0  0  0
  189.0540  179.7740  137.0440 C   0  0  0  0  0  1  0  0  0  0  0  0
  185.7130  180.0570  141.2950 O   0  0  0  0  0  0  0  0  0  0  0  0
  183.4010  176.9010  141.9700 F   0  0  0  0  0  0  0  0  0  0  0  0
  185.7120  178.7950  140.6820 C   0  0  1  0  0  0  0  0  0  0  0  0
  189.6210  176.7370  143.8290 C   0  0  0  0  0  3  0  0  0  0  0  0
  188.9280  177.7610  146.3620 C   0  0  0  0  0  3  0  0  0  0  0  0
  187.9550  177.7450  145.3510 C   0  0  0  0  0  0  0  0  0  0  0  0
  186.6160  178.0010  145.6820 C   0  0  0  0  0  3  0  0  0  0  0  0
  184.9560  178.4900  147.3200 F   0  0  0  0  0  0  0  0  0  0  0  0
  187.2240  178.2530  148.0110 C   0  0  0  0  0  3  0  0  0  0  0  0
  186.2520  178.2490  147.0080 C   0  0  0  0  0  0  0  0  0  0  0  0
  188.5630  178.0110  147.6890 C   0  0  0  0  0  3  0  0  0  0  0  0
  181.9190  180.9120  138.6980 C   0  0  0  0  0  1  0  0  0  0  0  0
  182.8900  179.7570  138.5490 C   0  0  0  0  0  2  0  0  0  0  0  0
  1  4  1  0  0  0  0
  2 24  1  0  0  0  0
  2 22  1  0  0  0  0
  2 17  1  0  0  0  0
  3 20  1  0  0  0  0
  3  7  1  0  0  0  0
  4 12  1  0  0  0  0
  6 11  2  0  0  0  0
  6  9  1  0  0  0  0
  7 10  1  0  0  0  0
  8 26  1  6  0  0  0
  8 18  1  0  0  0  0
  9  3  2  0  0  0  0
 10  5  1  0  0  0  0
 10 23  2  0  0  0  0
 11 16  1  0  0  0  0
 12  8  1  0  0  0  0
 13  9  1  0  0  0  0
 13 21  1  0  0  0  0
 14  2  1  0  0  0  0
 15 28  2  0  0  0  0
 16 20  2  0  0  0  0
 17 13  1  0  0  0  0
 19 18  1  1  0  0  0
 19  5  1  0  0  0  0
 20 15  1  0  0  0  0
 21 27  1  0  0  0  0
 21  7  2  0  0  0  0
 22  6  1  0  0  0  0
 23 30  1  0  0  0  0
 25 19  1  0  0  0  0
 27  1  1  6  0  0  0
 27 25  1  0  0  0  0
 27 19  1  0  0  0  0
 28 23  1  0  0  0  0
 29 35  1  0  0  0  0
 30 31  1  0  0  0  0
 30 29  2  0  0  0  0
 31 34  2  0  0  0  0
 34 32  1  0  0  0  0
 34 33  1  0  0  0  0
 35 33  2  0  0  0  0
 37 36  1  0  0  0  0
 37  4  1  0  0  0  0
M  END
>  <MODEL>
4

>  <REMARK>
 VINA RESULT:      -8.4      2.639      7.220
  Name = 
  2 active torsions:
  status: ('A' for Active; 'I' for Inactive)
    1  A    between atoms: N_4  and  C_37
    2  A    between atoms: C_23  and  C_30
                            x       y       z     vdW  Elec       q    Type
                         _______ _______ _______ _____ _____    ______ ____

>  <TORSDO>
F 2

$$$$
=
 OpenBabel11122411233D

 37 44  0  0  1  0  0  0  0  0999 V2000
  190.7400  176.8480  142.7250 C   0  0  0  0  0  2  0  0  0  0  0  0
  191.1240  176.0550  138.1930 C   0  0  0  0  0  0  0  0  0  0  0  0
  187.6190  178.0130  139.3200 C   0  0  0  0  0  0  0  0  0  0  0  0
  191.0020  176.2420  144.0260 N   0  0  0  0  0  0  0  0  0  0  0  0
  186.7540  177.4050  143.0520 C   0  0  0  0  0  2  0  0  0  0  0  0
  189.2080  177.5910  137.5440 C   0  0  0  0  0  0  0  0  0  0  0  0
  187.5950  177.7770  140.6770 C   0  0  0  0  0  0  0  0  0  0  0  0
  189.7160  177.9860  145.2600 C   0  0  2  0  0  3  0  0  0  0  0  0
  188.8180  177.5340  138.8680 C   0  0  0  0  0  0  0  0  0  0  0  0
  186.5280  178.0000  141.6700 C   0  0  0  0  0  0  0  0  0  0  0  0
  188.3300  178.2050  136.6360 C   0  0  0  0  0  3  0  0  0  0  0  0
  191.0710  177.3100  145.0190 C   0  0  0  0  0  2  0  0  0  0  0  0
  189.5520  177.0120  139.8510 N   0  0  0  0  0  0  0  0  0  0  0  0
  192.6100  175.8890  137.9550 C   0  0  0  0  0  1  0  0  0  0  0  0
  185.4730  179.2370  138.8950 C   0  0  0  0  0  3  0  0  0  0  0  0
  187.0930  178.7210  137.0930 C   0  0  0  0  0  3  0  0  0  0  0  0
  190.9070  176.4960  139.6590 C   0  0  0  0  0  2  0  0  0  0  0  0
  188.5260  177.0880  144.9220 C   0  0  0  0  0  2  0  0  0  0  0  0
  188.2030  177.0530  143.4250 C   0  0  1  0  0  0  0  0  0  0  0  0
  186.7250  178.6280  138.4540 C   0  0  0  0  0  0  0  0  0  0  0  0
  188.8210  177.1840  140.9780 C   0  0  0  0  0  0  0  0  0  0  0  0
  190.5730  177.0830  137.1710 C   0  0  0  0  0  2  0  0  0  0  0  0
  185.3520  178.6290  141.4060 C   0  0  0  0  0  0  0  0  0  0  0  0
  190.4550  174.7100  137.9690 C   0  0  0  0  0  1  0  0  0  0  0  0
  188.5200  175.7690  142.9120 O   0  0  0  0  0  0  0  0  0  0  0  0
  189.6430  179.1900  144.5820 F   0  0  0  0  0  0  0  0  0  0  0  0
  189.2450  176.8390  142.3690 C   0  0  1  0  0  0  0  0  0  0  0  0
  184.9300  179.2320  140.1150 C   0  0  0  0  0  3  0  0  0  0  0  0
  182.9680  178.8180  142.1270 C   0  0  0  0  0  3  0  0  0  0  0  0
  184.3290  178.7780  142.4680 C   0  0  0  0  0  0  0  0  0  0  0  0
  184.7010  178.8320  143.8200 C   0  0  0  0  0  3  0  0  0  0  0  0
  184.0940  179.0020  146.1180 F   0  0  0  0  0  0  0  0  0  0  0  0
  182.3750  178.9950  144.4690 C   0  0  0  0  0  3  0  0  0  0  0  0
  183.7270  178.9450  144.8160 C   0  0  0  0  0  0  0  0  0  0  0  0
  181.9940  178.9300  143.1250 C   0  0  0  0  0  3  0  0  0  0  0  0
  192.4300  174.5030  144.9420 C   0  0  0  0  0  1  0  0  0  0  0  0
  192.3270  175.6520  143.9580 C   0  0  0  0  0  2  0  0  0  0  0  0
  1  4  1  0  0  0  0
  2 17  1  0  0  0  0
  3  7  1  0  0  0  0
  4 12  1  0  0  0  0
  6  9  2  0  0  0  0
  7 21  2  0  0  0  0
  7 10  1  0  0  0  0
  8 26  1  6  0  0  0
  9  3  1  0  0  0  0
  9 13  1  0  0  0  0
 10  5  1  0  0  0  0
 11 16  2  0  0  0  0
 11  6  1  0  0  0  0
 12  8  1  0  0  0  0
 13 21  1  0  0  0  0
 14  2  1  0  0  0  0
 15 28  2  0  0  0  0
 16 20  1  0  0  0  0
 17 13  1  0  0  0  0
 18  8  1  0  0  0  0
 19  5  1  6  0  0  0
 19 18  1  0  0  0  0
 20 15  1  0  0  0  0
 20  3  2  0  0  0  0
 21 27  1  0  0  0  0
 22  6  1  0  0  0  0
 22  2  1  0  0  0  0
 23 10  2  0  0  0  0
 23 30  1  0  0  0  0
 24  2  1  0  0  0  0
 25 19  1  0  0  0  0
 27  1  1  1  0  0  0
 27 25  1  0  0  0  0
 27 19  1  0  0  0  0
 28 23  1  0  0  0  0
 29 30  2  0  0  0  0
 29 35  1  0  0  0  0
 30 31  1  0  0  0  0
 31 34  2  0  0  0  0
 33 34  1  0  0  0  0
 34 32  1  0  0  0  0
 35 33  2  0  0  0  0
 37  4  1  0  0  0  0
 37 36  1  0  0  0  0
M  END
>  <MODEL>
5

>  <REMARK>
 VINA RESULT:      -8.4      2.754      5.798
  Name = 
  2 active torsions:
  status: ('A' for Active; 'I' for Inactive)
    1  A    between atoms: N_4  and  C_37
    2  A    between atoms: C_23  and  C_30
                            x       y       z     vdW  Elec       q    Type
                         _______ _______ _______ _____ _____    ______ ____

>  <TORSDO>
F 2

$$$$
=
 OpenBabel11122411233D

 37 44  0  0  1  0  0  0  0  0999 V2000
  190.4800  177.4760  139.8970 C   0  0  0  0  0  2  0  0  0  0  0  0
  186.5840  177.6000  137.4220 C   0  0  0  0  0  0  0  0  0  0  0  0
  186.0890  178.4380  141.4770 C   0  0  0  0  0  0  0  0  0  0  0  0
  191.7260  176.7330  140.0440 N   0  0  0  0  0  0  0  0  0  0  0  0
  188.9870  177.0010  143.6180 C   0  0  0  0  0  2  0  0  0  0  0  0
  185.2110  178.7230  139.2410 C   0  0  0  0  0  0  0  0  0  0  0  0
  187.2750  177.9700  142.0020 C   0  0  0  0  0  0  0  0  0  0  0  0
  192.3250  177.8780  142.1770 C   0  0  2  0  0  3  0  0  0  0  0  0
  186.2090  178.3450  140.1170 C   0  0  0  0  0  0  0  0  0  0  0  0
  187.6850  177.7550  143.4020 C   0  0  0  0  0  0  0  0  0  0  0  0
  184.0350  179.2590  139.7890 C   0  0  0  0  0  3  0  0  0  0  0  0
  192.6930  177.5970  140.7150 C   0  0  0  0  0  2  0  0  0  0  0  0
  187.3910  177.8500  139.7500 N   0  0  0  0  0  0  0  0  0  0  0  0
  187.0390  177.8380  135.9980 C   0  0  0  0  0  1  0  0  0  0  0  0
  184.7970  179.1700  143.4960 C   0  0  0  0  0  3  0  0  0  0  0  0
  183.9050  179.3770  141.1940 C   0  0  0  0  0  3  0  0  0  0  0  0
  187.8110  177.7140  138.3560 C   0  0  0  0  0  2  0  0  0  0  0  0
  191.4400  176.7950  142.7950 C   0  0  0  0  0  2  0  0  0  0  0  0
  189.9600  176.9450  142.4300 C   0  0  1  0  0  0  0  0  0  0  0  0
  184.9430  178.9630  142.0580 C   0  0  0  0  0  0  0  0  0  0  0  0
  188.0700  177.6440  140.9040 C   0  0  0  0  0  0  0  0  0  0  0  0
  185.4740  178.6280  137.7620 C   0  0  0  0  0  2  0  0  0  0  0  0
  186.9460  178.1220  144.4840 C   0  0  0  0  0  0  0  0  0  0  0  0
  186.0140  176.1940  137.5100 C   0  0  0  0  0  1  0  0  0  0  0  0
  189.5850  175.8830  141.5670 O   0  0  0  0  0  0  0  0  0  0  0  0
  191.7470  179.1290  142.3040 F   0  0  0  0  0  0  0  0  0  0  0  0
  189.4830  177.1730  141.0270 C   0  0  1  0  0  0  0  0  0  0  0  0
  185.6350  178.8230  144.4750 C   0  0  0  0  0  3  0  0  0  0  0  0
  186.6700  178.2290  146.9640 C   0  0  0  0  0  3  0  0  0  0  0  0
  187.4330  177.8360  145.8530 C   0  0  0  0  0  0  0  0  0  0  0  0
  188.6280  177.1290  146.0570 C   0  0  0  0  0  3  0  0  0  0  0  0
  190.2240  176.1630  147.5400 F   0  0  0  0  0  0  0  0  0  0  0  0
  188.3070  177.2440  148.4530 C   0  0  0  0  0  3  0  0  0  0  0  0
  189.0650  176.8390  147.3510 C   0  0  0  0  0  0  0  0  0  0  0  0
  187.1080  177.9380  148.2590 C   0  0  0  0  0  3  0  0  0  0  0  0
  191.1540  175.8890  137.8380 C   0  0  0  0  0  1  0  0  0  0  0  0
  192.2390  176.4970  138.7060 C   0  0  0  0  0  2  0  0  0  0  0  0
  1  4  1  0  0  0  0
  2 24  1  0  0  0  0
  2 22  1  0  0  0  0
  2 17  1  0  0  0  0
  3  7  1  0  0  0  0
  3 20  1  0  0  0  0
  4 12  1  0  0  0  0
  6 11  2  0  0  0  0
  6  9  1  0  0  0  0
  7 10  1  0  0  0  0
  8 26  1  6  0  0  0
  8 18  1  0  0  0  0
  9  3  2  0  0  0  0
 10  5  1  0  0  0  0
 10 23  2  0  0  0  0
 11 16  1  0  0  0  0
 12  8  1  0  0  0  0
 13  9  1  0  0  0  0
 13 21  1  0  0  0  0
 14  2  1  0  0  0  0
 15 28  2  0  0  0  0
 16 20  2  0  0  0  0
 17 13  1  0  0  0  0
 19 18  1  1  0  0  0
 19  5  1  0  0  0  0
 20 15  1  0  0  0  0
 21 27  1  0  0  0  0
 21  7  2  0  0  0  0
 22  6  1  0  0  0  0
 23 30  1  0  0  0  0
 25 19  1  0  0  0  0
 27  1  1  6  0  0  0
 27 25  1  0  0  0  0
 27 19  1  0  0  0  0
 28 23  1  0  0  0  0
 29 35  1  0  0  0  0
 30 31  1  0  0  0  0
 30 29  2  0  0  0  0
 31 34  2  0  0  0  0
 34 32  1  0  0  0  0
 34 33  1  0  0  0  0
 35 33  2  0  0  0  0
 36 37  1  0  0  0  0
 37  4  1  0  0  0  0
M  END
>  <MODEL>
6

>  <REMARK>
 VINA RESULT:      -8.1      2.801      6.647
  Name = 
  2 active torsions:
  status: ('A' for Active; 'I' for Inactive)
    1  A    between atoms: N_4  and  C_37
    2  A    between atoms: C_23  and  C_30
                            x       y       z     vdW  Elec       q    Type
                         _______ _______ _______ _____ _____    ______ ____

>  <TORSDO>
F 2

$$$$
=
 OpenBabel11122411233D

 37 44  0  0  1  0  0  0  0  0999 V2000
  187.0000  178.4550  144.9740 C   0  0  0  0  0  2  0  0  0  0  0  0
  191.0510  176.5860  143.7830 C   0  0  0  0  0  0  0  0  0  0  0  0
  188.7260  177.8760  140.5710 C   0  0  0  0  0  0  0  0  0  0  0  0
  185.8950  178.3030  145.9120 N   0  0  0  0  0  0  0  0  0  0  0  0
  184.9680  178.1090  141.5020 C   0  0  0  0  0  2  0  0  0  0  0  0
  190.9550  177.3850  141.3740 C   0  0  0  0  0  0  0  0  0  0  0  0
  187.4900  178.0160  141.1640 C   0  0  0  0  0  0  0  0  0  0  0  0
  184.4610  179.9550  144.7140 C   0  0  2  0  0  3  0  0  0  0  0  0
  189.6060  177.5950  141.5800 C   0  0  0  0  0  0  0  0  0  0  0  0
  186.1600  178.2370  140.5670 C   0  0  0  0  0  0  0  0  0  0  0  0
  191.4360  177.5030  140.0600 C   0  0  0  0  0  3  0  0  0  0  0  0
  185.2000  179.5840  146.0060 C   0  0  0  0  0  2  0  0  0  0  0  0
  189.0060  177.5490  142.7700 N   0  0  0  0  0  0  0  0  0  0  0  0
  191.9170  176.7230  145.0180 C   0  0  0  0  0  1  0  0  0  0  0  0
  188.2860  178.3900  138.1570 C   0  0  0  0  0  3  0  0  0  0  0  0
  190.5400  177.8110  139.0080 C   0  0  0  0  0  3  0  0  0  0  0  0
  189.7240  177.3410  144.0270 C   0  0  0  0  0  2  0  0  0  0  0  0
  184.0910  178.7410  143.8620 C   0  0  0  0  0  2  0  0  0  0  0  0
  185.2540  178.2280  143.0070 C   0  0  1  0  0  0  0  0  0  0  0  0
  189.1620  178.0030  139.2590 C   0  0  0  0  0  0  0  0  0  0  0  0
  187.7050  177.8380  142.5300 C   0  0  0  0  0  0  0  0  0  0  0  0
  191.8380  177.1370  142.5660 C   0  0  0  0  0  2  0  0  0  0  0  0
  185.9400  178.4710  139.2450 C   0  0  0  0  0  0  0  0  0  0  0  0
  190.7590  175.1100  143.5700 C   0  0  0  0  0  1  0  0  0  0  0  0
  185.6740  176.9670  143.5060 O   0  0  0  0  0  0  0  0  0  0  0  0
  185.1880  180.8780  143.9840 F   0  0  0  0  0  0  0  0  0  0  0  0
  186.6290  177.9930  143.5550 C   0  0  1  0  0  0  0  0  0  0  0  0
  186.9650  178.5840  138.1740 C   0  0  0  0  0  3  0  0  0  0  0  0
  183.9770  177.6620  137.9290 C   0  0  0  0  0  3  0  0  0  0  0  0
  184.5600  178.6510  138.7370 C   0  0  0  0  0  0  0  0  0  0  0  0
  183.8060  179.7800  139.0930 C   0  0  0  0  0  3  0  0  0  0  0  0
  181.7770  181.0230  138.9750 F   0  0  0  0  0  0  0  0  0  0  0  0
  181.9250  178.9450  137.8190 C   0  0  0  0  0  3  0  0  0  0  0  0
  182.4960  179.9280  138.6320 C   0  0  0  0  0  0  0  0  0  0  0  0
  182.6650  177.8110  137.4690 C   0  0  0  0  0  3  0  0  0  0  0  0
  187.8840  177.5030  147.0560 C   0  0  0  0  0  1  0  0  0  0  0  0
  186.4800  178.0510  147.2180 C   0  0  0  0  0  2  0  0  0  0  0  0
  1  4  1  0  0  0  0
  2 17  1  0  0  0  0
  2 14  1  0  0  0  0
  3  7  1  0  0  0  0
  3  9  1  0  0  0  0
  4 12  1  0  0  0  0
  4 37  1  0  0  0  0
  6  9  2  0  0  0  0
  6 22  1  0  0  0  0
  7 21  2  0  0  0  0
  8 26  1  6  0  0  0
  8 12  1  0  0  0  0
  9 13  1  0  0  0  0
 10  7  1  0  0  0  0
 10  5  1  0  0  0  0
 11  6  1  0  0  0  0
 13 17  1  0  0  0  0
 15 28  2  0  0  0  0
 15 20  1  0  0  0  0
 16 20  1  0  0  0  0
 16 11  2  0  0  0  0
 18  8  1  0  0  0  0
 19  5  1  6  0  0  0
 19 25  1  0  0  0  0
 19 27  1  0  0  0  0
 19 18  1  0  0  0  0
 20  3  2  0  0  0  0
 21 13  1  0  0  0  0
 21 27  1  0  0  0  0
 22  2  1  0  0  0  0
 23 10  2  0  0  0  0
 24  2  1  0  0  0  0
 25 27  1  0  0  0  0
 27  1  1  1  0  0  0
 28 23  1  0  0  0  0
 29 30  1  0  0  0  0
 30 31  2  0  0  0  0
 30 23  1  0  0  0  0
 33 34  2  0  0  0  0
 34 32  1  0  0  0  0
 34 31  1  0  0  0  0
 35 33  1  0  0  0  0
 35 29  2  0  0  0  0
 36 37  1  0  0  0  0
M  END
>  <MODEL>
7

>  <REMARK>
 VINA RESULT:      -8.0      2.211      5.328
  Name = 
  2 active torsions:
  status: ('A' for Active; 'I' for Inactive)
    1  A    between atoms: N_4  and  C_37
    2  A    between atoms: C_23  and  C_30
                            x       y       z     vdW  Elec       q    Type
                         _______ _______ _______ _____ _____    ______ ____

>  <TORSDO>
F 2

$$$$
