=
 OpenBabel11122412203D

 34 40  0  0  1  0  0  0  0  0999 V2000
  189.7230  176.9800  141.4170 C   0  0  0  0  0  0  0  0  0  0  0  0
  191.3940  176.4200  139.5290 C   0  0  0  0  0  2  0  0  0  0  0  0
  183.7300  178.4870  143.6690 C   0  0  2  0  0  3  0  0  0  0  0  0
  188.0120  177.5330  143.0580 C   0  0  0  0  0  0  0  0  0  0  0  0
  185.8970  178.4940  142.3110 C   0  0  0  0  0  0  0  0  0  0  0  0
  183.8030  179.0960  141.3260 O   0  0  0  0  0  1  0  0  0  0  0  0
  182.2250  178.6130  143.4770 C   0  0  0  0  0  1  0  0  0  0  0  0
  185.5870  179.2650  145.2370 C   0  0  0  0  0  2  0  0  0  0  0  0
  189.3140  177.4680  139.0900 C   0  0  0  0  0  0  0  0  0  0  0  0
  188.2270  177.8510  136.0620 C   0  0  0  0  0  2  0  0  0  0  0  0
  186.3740  178.4670  141.0350 N   0  0  0  0  0  0  0  0  0  0  0  0
  186.3070  177.9980  144.8140 C   0  0  0  0  0  2  0  0  0  0  0  0
  188.0320  177.9840  139.3640 C   0  0  0  0  0  0  0  0  0  0  0  0
  191.2080  176.4940  138.0070 C   0  0  0  0  0  2  0  0  0  0  0  0
  186.7370  178.0430  143.3700 C   0  0  0  0  0  0  0  0  0  0  0  0
  184.0850  179.1280  145.0110 C   0  0  0  0  0  2  0  0  0  0  0  0
  189.0380  176.8620  136.7640 N   0  0  0  0  0  0  0  0  0  0  0  0
  188.4520  177.5060  141.7300 C   0  0  0  0  0  0  0  0  0  0  0  0
  184.5310  179.1270  142.5220 C   0  0  1  0  0  3  0  0  0  0  0  0
  187.6040  177.9940  140.7080 C   0  0  0  0  0  0  0  0  0  0  0  0
  190.0480  176.5420  143.8720 C   0  0  0  0  0  3  0  0  0  0  0  0
  187.7170  178.9450  137.0110 C   0  0  0  0  0  2  0  0  0  0  0  0
  188.8710  177.0420  144.1000 N   0  0  0  0  0  0  0  0  0  0  0  0
  187.0600  178.3650  138.2650 C   0  0  0  0  0  2  0  0  0  0  0  0
  189.9740  177.3740  137.7710 C   0  0  1  0  0  3  0  0  0  0  0  0
  190.6220  176.4200  142.4860 C   0  0  0  0  0  3  0  0  0  0  0  0
  190.1250  176.9680  140.0780 C   0  0  1  0  0  3  0  0  0  0  0  0
  188.5860  175.5000  136.6900 C   0  0  0  0  0  3  0  0  0  0  0  0
  187.3190  175.1430  136.8770 C   0  0  0  0  0  3  0  0  0  0  0  0
  184.6430  173.1160  136.3720 C   0  0  0  0  0  2  0  0  0  0  0  0
  186.5990  173.3610  135.3340 C   0  0  0  0  0  2  0  0  0  0  0  0
  186.9000  173.7170  136.7740 C   0  0  2  0  0  3  0  0  0  0  0  0
  185.4020  172.6300  135.2970 O   0  0  0  0  0  0  0  0  0  0  0  0
  185.5900  173.5250  137.4760 C   0  0  0  0  0  2  0  0  0  0  0  0
  1 18  1  0  0  0  0
  1 26  2  0  0  0  0
  3  7  1  6  0  0  0
  3 16  1  0  0  0  0
  4 15  2  0  0  0  0
  4 23  1  0  0  0  0
  5 19  1  0  0  0  0
  5 15  1  0  0  0  0
  9 13  2  0  0  0  0
  9 27  1  0  0  0  0
 10 17  1  0  0  0  0
 10 22  1  0  0  0  0
 11  5  2  0  0  0  0
 12  8  1  0  0  0  0
 13 20  1  0  0  0  0
 14  2  1  0  0  0  0
 15 12  1  0  0  0  0
 16  8  1  0  0  0  0
 17 25  1  0  0  0  0
 18  4  1  0  0  0  0
 19  6  1  6  0  0  0
 19  3  1  0  0  0  0
 20 11  1  0  0  0  0
 20 18  2  0  0  0  0
 21 23  2  0  0  0  0
 22 24  1  0  0  0  0
 24 13  1  0  0  0  0
 25 14  1  1  0  0  0
 25  9  1  0  0  0  0
 26 21  1  0  0  0  0
 27  2  1  6  0  0  0
 27  1  1  0  0  0  0
 28 17  1  0  0  0  0
 28 29  2  0  0  0  0
 30 34  1  0  0  0  0
 31 32  1  0  0  0  0
 32 29  1  6  0  0  0
 32 34  1  0  0  0  0
 33 31  1  0  0  0  0
 33 30  1  0  0  0  0
M  END
>  <MODEL>
1

>  <REMARK>
 VINA RESULT:      -9.6      0.000      0.000
  Name = 
  2 active torsions:
  status: ('A' for Active; 'I' for Inactive)
    1  A    between atoms: N_17  and  C_28
    2  A    between atoms: C_29  and  C_32
                            x       y       z     vdW  Elec       q    Type
                         _______ _______ _______ _____ _____    ______ ____

>  <TORSDO>
F 2

$$$$
=
 OpenBabel11122412203D

 34 40  0  0  1  0  0  0  0  0999 V2000
  190.9780  176.7780  137.8560 C   0  0  0  0  0  0  0  0  0  0  0  0
  190.4580  176.3780  135.3580 C   0  0  0  0  0  2  0  0  0  0  0  0
  189.2250  177.5190  144.1520 C   0  0  2  0  0  3  0  0  0  0  0  0
  191.2750  177.1550  140.2430 C   0  0  0  0  0  0  0  0  0  0  0  0
  189.3520  177.7730  141.6100 C   0  0  0  0  0  0  0  0  0  0  0  0
  187.2880  178.0300  142.7900 O   0  0  0  0  0  1  0  0  0  0  0  0
  188.1980  177.4230  145.2710 C   0  0  0  0  0  1  0  0  0  0  0  0
  191.4670  178.6190  143.6260 C   0  0  0  0  0  2  0  0  0  0  0  0
  188.7950  177.1010  136.8840 C   0  0  0  0  0  0  0  0  0  0  0  0
  185.6660  177.1950  136.0450 C   0  0  0  0  0  2  0  0  0  0  0  0
  188.5870  177.7580  140.4820 N   0  0  0  0  0  0  0  0  0  0  0  0
  191.6810  177.4500  142.6830 C   0  0  0  0  0  2  0  0  0  0  0  0
  188.2270  177.4420  138.1270 C   0  0  0  0  0  0  0  0  0  0  0  0
  189.1040  176.3590  134.6340 C   0  0  0  0  0  2  0  0  0  0  0  0
  190.7450  177.4920  141.5020 C   0  0  0  0  0  0  0  0  0  0  0  0
  190.4440  178.2620  144.6990 C   0  0  0  0  0  2  0  0  0  0  0  0
  186.8150  176.3620  135.7060 N   0  0  0  0  0  0  0  0  0  0  0  0
  190.4480  177.1320  139.1140 C   0  0  0  0  0  0  0  0  0  0  0  0
  188.6730  178.2160  142.8960 C   0  0  1  0  0  3  0  0  0  0  0  0
  189.0770  177.4500  139.2530 C   0  0  0  0  0  0  0  0  0  0  0  0
  193.2130  176.4970  138.9750 C   0  0  0  0  0  3  0  0  0  0  0  0
  186.0200  178.2460  137.1060 C   0  0  0  0  0  2  0  0  0  0  0  0
  192.6700  176.8350  140.1060 N   0  0  0  0  0  0  0  0  0  0  0  0
  186.7350  177.6340  138.3130 C   0  0  0  0  0  2  0  0  0  0  0  0
  188.1070  177.0440  135.5760 C   0  0  1  0  0  3  0  0  0  0  0  0
  192.4260  176.3970  137.6960 C   0  0  0  0  0  3  0  0  0  0  0  0
  190.1180  176.7640  136.7540 C   0  0  1  0  0  3  0  0  0  0  0  0
  186.6570  174.9470  135.9050 C   0  0  0  0  0  3  0  0  0  0  0  0
  186.2570  174.4160  137.0570 C   0  0  0  0  0  3  0  0  0  0  0  0
  184.1570  171.8240  136.4270 C   0  0  0  0  0  2  0  0  0  0  0  0
  186.2700  172.2570  135.8690 C   0  0  0  0  0  2  0  0  0  0  0  0
  186.0960  172.9430  137.2070 C   0  0  2  0  0  3  0  0  0  0  0  0
  185.2520  171.3030  135.7220 O   0  0  0  0  0  0  0  0  0  0  0  0
  184.6820  172.6280  137.5930 C   0  0  0  0  0  2  0  0  0  0  0  0
  1 18  1  0  0  0  0
  3 16  1  0  0  0  0
  3  7  1  1  0  0  0
  4 15  2  0  0  0  0
  5 19  1  0  0  0  0
  8 16  1  0  0  0  0
  9 13  2  0  0  0  0
 10 22  1  0  0  0  0
 11  5  2  0  0  0  0
 12  8  1  0  0  0  0
 13 24  1  0  0  0  0
 13 20  1  0  0  0  0
 14  2  1  0  0  0  0
 15  5  1  0  0  0  0
 15 12  1  0  0  0  0
 17 28  1  0  0  0  0
 17 10  1  0  0  0  0
 18 20  2  0  0  0  0
 18  4  1  0  0  0  0
 19  6  1  6  0  0  0
 19  3  1  0  0  0  0
 20 11  1  0  0  0  0
 21 23  2  0  0  0  0
 22 24  1  0  0  0  0
 23  4  1  0  0  0  0
 25 14  1  6  0  0  0
 25 17  1  0  0  0  0
 25  9  1  0  0  0  0
 26  1  2  0  0  0  0
 26 21  1  0  0  0  0
 27  2  1  1  0  0  0
 27  9  1  0  0  0  0
 27  1  1  0  0  0  0
 28 29  2  0  0  0  0
 30 34  1  0  0  0  0
 31 32  1  0  0  0  0
 32 29  1  6  0  0  0
 32 34  1  0  0  0  0
 33 31  1  0  0  0  0
 33 30  1  0  0  0  0
M  END
>  <MODEL>
2

>  <REMARK>
 VINA RESULT:      -8.9      2.431      3.790
  Name = 
  2 active torsions:
  status: ('A' for Active; 'I' for Inactive)
    1  A    between atoms: N_17  and  C_28
    2  A    between atoms: C_29  and  C_32
                            x       y       z     vdW  Elec       q    Type
                         _______ _______ _______ _____ _____    ______ ____

>  <TORSDO>
F 2

$$$$
=
 OpenBabel11122412203D

 34 40  0  0  1  0  0  0  0  0999 V2000
  189.6870  177.3540  138.3140 C   0  0  0  0  0  0  0  0  0  0  0  0
  188.5520  177.3250  135.9940 C   0  0  0  0  0  2  0  0  0  0  0  0
  189.5630  177.2760  144.8900 C   0  0  2  0  0  3  0  0  0  0  0  0
  190.5780  177.3820  140.5800 C   0  0  0  0  0  0  0  0  0  0  0  0
  189.0900  177.8770  142.4490 C   0  0  0  0  0  0  0  0  0  0  0  0
  187.3960  178.0440  144.1280 O   0  0  0  0  0  1  0  0  0  0  0  0
  188.8320  177.0640  146.2080 C   0  0  0  0  0  1  0  0  0  0  0  0
  191.6840  178.3530  143.9650 C   0  0  0  0  0  2  0  0  0  0  0  0
  187.3620  177.8910  137.9640 C   0  0  0  0  0  0  0  0  0  0  0  0
  184.1380  178.2180  137.9490 C   0  0  0  0  0  2  0  0  0  0  0  0
  188.0770  178.0480  141.5540 N   0  0  0  0  0  0  0  0  0  0  0  0
  191.5800  177.3200  142.8600 C   0  0  0  0  0  2  0  0  0  0  0  0
  187.1380  178.0770  139.3430 C   0  0  0  0  0  0  0  0  0  0  0  0
  187.0670  177.4580  135.6340 C   0  0  0  0  0  2  0  0  0  0  0  0
  190.3920  177.5610  141.9640 C   0  0  0  0  0  0  0  0  0  0  0  0
  190.9280  177.8890  145.2050 C   0  0  0  0  0  2  0  0  0  0  0  0
  185.1100  177.3980  137.2320 N   0  0  0  0  0  0  0  0  0  0  0  0
  189.5030  177.5480  139.6990 C   0  0  0  0  0  0  0  0  0  0  0  0
  188.7750  178.1610  143.9090 C   0  0  1  0  0  3  0  0  0  0  0  0
  188.2320  177.8960  140.2140 C   0  0  0  0  0  0  0  0  0  0  0  0
  192.1000  176.8360  138.7980 C   0  0  0  0  0  3  0  0  0  0  0  0
  184.8120  179.0980  139.0120 C   0  0  0  0  0  2  0  0  0  0  0  0
  191.8720  177.0330  140.0620 N   0  0  0  0  0  0  0  0  0  0  0  0
  185.7520  178.2970  139.9160 C   0  0  0  0  0  2  0  0  0  0  0  0
  186.3770  178.0430  136.8720 C   0  0  1  0  0  3  0  0  0  0  0  0
  191.0230  176.9440  137.7530 C   0  0  0  0  0  3  0  0  0  0  0  0
  188.5880  177.5250  137.4680 C   0  0  1  0  0  3  0  0  0  0  0  0
  184.9050  175.9770  137.2850 C   0  0  0  0  0  3  0  0  0  0  0  0
  183.7300  175.4220  137.5710 C   0  0  0  0  0  3  0  0  0  0  0  0
  183.9870  172.6140  135.6800 C   0  0  0  0  0  2  0  0  0  0  0  0
  184.9220  173.2650  137.5940 C   0  0  0  0  0  2  0  0  0  0  0  0
  183.5680  173.9410  137.5990 C   0  0  2  0  0  3  0  0  0  0  0  0
  184.8880  172.2060  136.6750 O   0  0  0  0  0  0  0  0  0  0  0  0
  182.9300  173.4810  136.3230 C   0  0  0  0  0  2  0  0  0  0  0  0
  1 18  1  0  0  0  0
  3 16  1  0  0  0  0
  3  7  1  1  0  0  0
  4 15  2  0  0  0  0
  5 19  1  0  0  0  0
  8 16  1  0  0  0  0
  9 13  2  0  0  0  0
 10 22  1  0  0  0  0
 11  5  2  0  0  0  0
 12  8  1  0  0  0  0
 13 24  1  0  0  0  0
 13 20  1  0  0  0  0
 14  2  1  0  0  0  0
 15  5  1  0  0  0  0
 15 12  1  0  0  0  0
 17 28  1  0  0  0  0
 17 10  1  0  0  0  0
 18 20  2  0  0  0  0
 18  4  1  0  0  0  0
 19  6  1  6  0  0  0
 19  3  1  0  0  0  0
 20 11  1  0  0  0  0
 21 23  2  0  0  0  0
 22 24  1  0  0  0  0
 23  4  1  0  0  0  0
 25 14  1  6  0  0  0
 25 17  1  0  0  0  0
 25  9  1  0  0  0  0
 26  1  2  0  0  0  0
 26 21  1  0  0  0  0
 27  2  1  1  0  0  0
 27  9  1  0  0  0  0
 27  1  1  0  0  0  0
 28 29  2  0  0  0  0
 30 34  1  0  0  0  0
 30 33  1  0  0  0  0
 31 32  1  0  0  0  0
 32 29  1  6  0  0  0
 33 31  1  0  0  0  0
 34 32  1  0  0  0  0
M  END
>  <MODEL>
3

>  <REMARK>
 VINA RESULT:      -8.5      2.410      4.119
  Name = 
  2 active torsions:
  status: ('A' for Active; 'I' for Inactive)
    1  A    between atoms: N_17  and  C_28
    2  A    between atoms: C_29  and  C_32
                            x       y       z     vdW  Elec       q    Type
                         _______ _______ _______ _____ _____    ______ ____

>  <TORSDO>
F 2

$$$$
=
 OpenBabel11122412203D

 34 40  0  0  1  0  0  0  0  0999 V2000
  183.0970  178.8990  142.4940 C   0  0  0  0  0  0  0  0  0  0  0  0
  180.5570  179.2890  142.7550 C   0  0  0  0  0  2  0  0  0  0  0  0
  188.6430  178.6280  138.9700 C   0  0  2  0  0  3  0  0  0  0  0  0
  185.4680  178.5620  142.0570 C   0  0  0  0  0  0  0  0  0  0  0  0
  186.2360  178.2750  139.7590 C   0  0  0  0  0  0  0  0  0  0  0  0
  186.7890  178.3600  137.4350 O   0  0  0  0  0  1  0  0  0  0  0  0
  189.4300  178.9090  137.6980 C   0  0  0  0  0  1  0  0  0  0  0  0
  188.7550  177.1960  141.0800 C   0  0  0  0  0  2  0  0  0  0  0  0
  181.5490  178.8670  140.6450 C   0  0  0  0  0  0  0  0  0  0  0  0
  179.8670  179.2020  137.8950 C   0  0  0  0  0  2  0  0  0  0  0  0
  184.9390  178.3640  139.3500 N   0  0  0  0  0  0  0  0  0  0  0  0
  187.9210  178.2900  141.7180 C   0  0  0  0  0  2  0  0  0  0  0  0
  182.5810  178.6520  139.7100 C   0  0  0  0  0  0  0  0  0  0  0  0
  179.4840  179.4820  141.6750 C   0  0  0  0  0  2  0  0  0  0  0  0
  186.5250  178.3460  141.1530 C   0  0  0  0  0  0  0  0  0  0  0  0
  189.5020  177.7330  139.8640 C   0  0  0  0  0  2  0  0  0  0  0  0
  179.8710  179.8470  139.2040 N   0  0  0  0  0  0  0  0  0  0  0  0
  184.1530  178.6680  141.5890 C   0  0  2  0  0  3  0  0  0  0  0  0
  187.2770  177.9790  138.6910 C   0  0  1  0  0  3  0  0  0  0  0  0
  183.9000  178.5570  140.2020 C   0  0  0  0  0  0  0  0  0  0  0  0
  184.7990  178.8880  144.3460 C   0  0  0  0  0  3  0  0  0  0  0  0
  180.9760  178.1460  137.7800 C   0  0  0  0  0  2  0  0  0  0  0  0
  185.7300  178.6700  143.4660 N   0  0  0  0  0  0  0  0  0  0  0  0
  182.3400  178.6870  138.2140 C   0  0  0  0  0  2  0  0  0  0  0  0
  180.1020  178.9800  140.3650 C   0  0  1  0  0  3  0  0  0  0  0  0
  183.3530  179.0600  143.9700 C   0  0  0  0  0  3  0  0  0  0  0  0
  181.7990  179.0030  141.9870 C   0  0  0  0  0  0  0  0  0  0  0  0
  180.0320  181.2760  139.2100 C   0  0  0  0  0  3  0  0  0  0  0  0
  180.3550  181.9750  138.1260 C   0  0  0  0  0  3  0  0  0  0  0  0
  180.8050  184.7450  136.2170 C   0  0  0  0  0  2  0  0  0  0  0  0
  179.2360  184.1230  137.6700 C   0  0  0  0  0  2  0  0  0  0  0  0
  180.4960  183.4570  138.1820 C   0  0  2  0  0  3  0  0  0  0  0  0
  179.6030  185.1640  136.8060 O   0  0  0  0  0  0  0  0  0  0  0  0
  181.5550  183.8990  137.2180 C   0  0  0  0  0  2  0  0  0  0  0  0
  1 26  2  0  0  0  0
  3  7  1  6  0  0  0
  3 16  1  0  0  0  0
  4 23  1  0  0  0  0
  5 15  1  0  0  0  0
  8 12  1  0  0  0  0
  9 27  2  0  0  0  0
 10 17  1  0  0  0  0
 11  5  2  0  0  0  0
 11 20  1  0  0  0  0
 13 20  2  0  0  0  0
 13  9  1  0  0  0  0
 14  2  1  0  0  0  0
 15 12  1  0  0  0  0
 15  4  2  0  0  0  0
 16  8  1  0  0  0  0
 17 28  1  0  0  0  0
 17 25  1  0  0  0  0
 18 20  1  6  0  0  0
 18  4  1  0  0  0  0
 18  1  1  0  0  0  0
 19  6  1  6  0  0  0
 19  3  1  0  0  0  0
 19  5  1  0  0  0  0
 22 10  1  0  0  0  0
 22 24  1  0  0  0  0
 23 21  2  0  0  0  0
 24 13  1  0  0  0  0
 25  9  1  0  0  0  0
 25 14  1  1  0  0  0
 26 21  1  0  0  0  0
 27  1  1  0  0  0  0
 27  2  1  0  0  0  0
 29 28  2  0  0  0  0
 30 33  1  0  0  0  0
 30 34  1  0  0  0  0
 31 32  1  0  0  0  0
 32 29  1  6  0  0  0
 33 31  1  0  0  0  0
 34 32  1  0  0  0  0
M  END
>  <MODEL>
4

>  <REMARK>
 VINA RESULT:      -8.0      4.434      8.234
  Name = 
  2 active torsions:
  status: ('A' for Active; 'I' for Inactive)
    1  A    between atoms: N_17  and  C_28
    2  A    between atoms: C_29  and  C_32
                            x       y       z     vdW  Elec       q    Type
                         _______ _______ _______ _____ _____    ______ ____

>  <TORSDO>
F 2

$$$$
=
 OpenBabel11122412203D

 34 40  0  0  1  0  0  0  0  0999 V2000
  182.8090  178.7150  143.0230 C   0  0  0  0  0  0  0  0  0  0  0  0
  180.5070  179.0250  141.8920 C   0  0  0  0  0  2  0  0  0  0  0  0
  189.3690  178.2530  142.9090 C   0  0  2  0  0  3  0  0  0  0  0  0
  185.0580  178.4290  143.9100 C   0  0  0  0  0  0  0  0  0  0  0  0
  186.8900  177.8960  142.3890 C   0  0  0  0  0  0  0  0  0  0  0  0
  188.5610  177.7210  140.6890 O   0  0  0  0  0  1  0  0  0  0  0  0
  190.7050  178.4110  142.1970 C   0  0  0  0  0  1  0  0  0  0  0  0
  188.3430  177.0960  144.9390 C   0  0  0  0  0  2  0  0  0  0  0  0
  182.4310  178.3910  140.6630 C   0  0  0  0  0  0  0  0  0  0  0  0
  182.4110  178.3160  137.4230 C   0  0  0  0  0  2  0  0  0  0  0  0
  185.9900  177.8790  141.3650 N   0  0  0  0  0  0  0  0  0  0  0  0
  187.3280  178.2230  144.9150 C   0  0  0  0  0  2  0  0  0  0  0  0
  183.7910  178.1080  140.4250 C   0  0  0  0  0  0  0  0  0  0  0  0
  180.1470  179.0380  140.4010 C   0  0  0  0  0  2  0  0  0  0  0  0
  186.4230  178.1500  143.7120 C   0  0  0  0  0  0  0  0  0  0  0  0
  189.6220  177.5120  144.2220 C   0  0  0  0  0  2  0  0  0  0  0  0
  181.7590  179.1150  138.4550 N   0  0  0  0  0  0  0  0  0  0  0  0
  184.1730  178.4200  142.8250 C   0  0  0  0  0  0  0  0  0  0  0  0
  188.3230  177.5170  142.0540 C   0  0  1  0  0  3  0  0  0  0  0  0
  184.6660  178.1300  141.5310 C   0  0  0  0  0  0  0  0  0  0  0  0
  183.3160  179.0030  145.4690 C   0  0  0  0  0  3  0  0  0  0  0  0
  183.3930  177.3010  138.0280 C   0  0  0  0  0  2  0  0  0  0  0  0
  184.5610  178.7190  145.2270 N   0  0  0  0  0  0  0  0  0  0  0  0
  184.3540  177.9490  139.0270 C   0  0  0  0  0  2  0  0  0  0  0  0
  181.3370  178.4070  139.6690 C   0  0  1  0  0  3  0  0  0  0  0  0
  182.2740  179.0660  144.3860 C   0  0  0  0  0  3  0  0  0  0  0  0
  181.9590  178.7000  141.9130 C   0  0  1  0  0  3  0  0  0  0  0  0
  181.9310  180.5390  138.3610 C   0  0  0  0  0  3  0  0  0  0  0  0
  181.0260  181.3460  137.8160 C   0  0  0  0  0  3  0  0  0  0  0  0
  180.0820  184.1820  136.2070 C   0  0  0  0  0  2  0  0  0  0  0  0
  180.0600  183.5510  138.3430 C   0  0  0  0  0  2  0  0  0  0  0  0
  181.2470  182.8180  137.7560 C   0  0  2  0  0  3  0  0  0  0  0  0
  179.7300  184.6170  137.4930 O   0  0  0  0  0  0  0  0  0  0  0  0
  181.2770  183.2650  136.3260 C   0  0  0  0  0  2  0  0  0  0  0  0
  1 26  2  0  0  0  0
  3  7  1  6  0  0  0
  3 16  1  0  0  0  0
  4 23  1  0  0  0  0
  5 15  1  0  0  0  0
  9 27  1  0  0  0  0
 10 22  1  0  0  0  0
 10 17  1  0  0  0  0
 11 20  1  0  0  0  0
 11  5  2  0  0  0  0
 12  8  1  0  0  0  0
 13  9  2  0  0  0  0
 13 20  1  0  0  0  0
 14  2  1  0  0  0  0
 15  4  2  0  0  0  0
 15 12  1  0  0  0  0
 16  8  1  0  0  0  0
 17 25  1  0  0  0  0
 18  1  1  0  0  0  0
 18  4  1  0  0  0  0
 19  6  1  6  0  0  0
 19  5  1  0  0  0  0
 19  3  1  0  0  0  0
 20 18  2  0  0  0  0
 22 24  1  0  0  0  0
 23 21  2  0  0  0  0
 24 13  1  0  0  0  0
 25 14  1  1  0  0  0
 25  9  1  0  0  0  0
 26 21  1  0  0  0  0
 27  2  1  6  0  0  0
 27  1  1  0  0  0  0
 28 17  1  0  0  0  0
 29 28  2  0  0  0  0
 30 34  1  0  0  0  0
 30 33  1  0  0  0  0
 32 29  1  6  0  0  0
 32 31  1  0  0  0  0
 33 31  1  0  0  0  0
 34 32  1  0  0  0  0
M  END
>  <MODEL>
5

>  <REMARK>
 VINA RESULT:      -7.7      4.085      7.523
  Name = 
  2 active torsions:
  status: ('A' for Active; 'I' for Inactive)
    1  A    between atoms: N_17  and  C_28
    2  A    between atoms: C_29  and  C_32
                            x       y       z     vdW  Elec       q    Type
                         _______ _______ _______ _____ _____    ______ ____

>  <TORSDO>
F 2

$$$$
=
 OpenBabel11122412203D

 34 40  0  0  1  0  0  0  0  0999 V2000
  188.9210  177.5130  140.3680 C   0  0  0  0  0  0  0  0  0  0  0  0
  188.7520  177.5260  137.7910 C   0  0  0  0  0  2  0  0  0  0  0  0
  186.3100  177.6280  146.4040 C   0  0  2  0  0  3  0  0  0  0  0  0
  188.8860  177.5220  142.8030 C   0  0  0  0  0  0  0  0  0  0  0  0
  186.8560  178.2030  143.9730 C   0  0  0  0  0  0  0  0  0  0  0  0
  184.6770  178.5720  144.8840 O   0  0  0  0  0  1  0  0  0  0  0  0
  185.1170  177.5200  147.3440 C   0  0  0  0  0  1  0  0  0  0  0  0
  188.7160  178.4790  146.3640 C   0  0  0  0  0  2  0  0  0  0  0  0
  186.9650  178.2530  139.1670 C   0  0  0  0  0  0  0  0  0  0  0  0
  184.0340  178.8770  137.9330 C   0  0  0  0  0  2  0  0  0  0  0  0
  186.2790  178.4420  142.7610 N   0  0  0  0  0  0  0  0  0  0  0  0
  188.9390  177.4290  145.2920 C   0  0  0  0  0  2  0  0  0  0  0  0
  186.2540  178.4970  140.3590 C   0  0  0  0  0  0  0  0  0  0  0  0
  187.5340  177.7860  136.8950 C   0  0  0  0  0  2  0  0  0  0  0  0
  188.2080  177.7550  144.0140 C   0  0  0  0  0  0  0  0  0  0  0  0
  187.5060  178.1210  147.2200 C   0  0  0  0  0  2  0  0  0  0  0  0
  185.1210  177.9510  137.6310 N   0  0  0  0  0  0  0  0  0  0  0  0
  188.2460  177.7620  141.5810 C   0  0  0  0  0  0  0  0  0  0  0  0
  186.0400  178.5550  145.2060 C   0  0  1  0  0  3  0  0  0  0  0  0
  186.9150  178.2400  141.5790 C   0  0  0  0  0  0  0  0  0  0  0  0
  190.9100  176.7880  141.7260 C   0  0  0  0  0  3  0  0  0  0  0  0
  184.3360  179.7190  139.1810 C   0  0  0  0  0  2  0  0  0  0  0  0
  190.2400  177.0400  142.8110 N   0  0  0  0  0  0  0  0  0  0  0  0
  184.7820  178.8590  140.3660 C   0  0  0  0  0  2  0  0  0  0  0  0
  186.4860  178.4650  137.7850 C   0  0  1  0  0  3  0  0  0  0  0  0
  190.3240  176.9670  140.3520 C   0  0  0  0  0  3  0  0  0  0  0  0
  188.2460  177.7630  139.1700 C   0  0  1  0  0  3  0  0  0  0  0  0
  184.7760  176.5560  137.5880 C   0  0  0  0  0  3  0  0  0  0  0  0
  183.6220  176.0790  138.0460 C   0  0  0  0  0  3  0  0  0  0  0  0
  183.1630  173.5040  135.8810 C   0  0  0  0  0  2  0  0  0  0  0  0
  184.5480  173.8400  137.5930 C   0  0  0  0  0  2  0  0  0  0  0  0
  183.3080  174.6250  137.9650 C   0  0  2  0  0  3  0  0  0  0  0  0
  184.2040  172.9050  136.6060 O   0  0  0  0  0  0  0  0  0  0  0  0
  182.3670  174.3760  136.8240 C   0  0  0  0  0  2  0  0  0  0  0  0
  1 18  1  0  0  0  0
  3 16  1  0  0  0  0
  3  7  1  1  0  0  0
  4 23  1  0  0  0  0
  4 15  2  0  0  0  0
  5 15  1  0  0  0  0
  5 19  1  0  0  0  0
  8 16  1  0  0  0  0
  9 27  1  0  0  0  0
  9 13  2  0  0  0  0
 10 22  1  0  0  0  0
 11  5  2  0  0  0  0
 12  8  1  0  0  0  0
 13 24  1  0  0  0  0
 13 20  1  0  0  0  0
 14  2  1  0  0  0  0
 15 12  1  0  0  0  0
 17 25  1  0  0  0  0
 17 10  1  0  0  0  0
 18  4  1  0  0  0  0
 19  6  1  6  0  0  0
 19  3  1  0  0  0  0
 20 18  2  0  0  0  0
 20 11  1  0  0  0  0
 21 23  2  0  0  0  0
 22 24  1  0  0  0  0
 25 14  1  6  0  0  0
 25  9  1  0  0  0  0
 26  1  2  0  0  0  0
 26 21  1  0  0  0  0
 27  2  1  1  0  0  0
 27  1  1  0  0  0  0
 28 17  1  0  0  0  0
 28 29  2  0  0  0  0
 30 33  1  0  0  0  0
 30 34  1  0  0  0  0
 31 32  1  0  0  0  0
 32 29  1  6  0  0  0
 33 31  1  0  0  0  0
 34 32  1  0  0  0  0
M  END
>  <MODEL>
6

>  <REMARK>
 VINA RESULT:      -7.6      2.041      3.088
  Name = 
  2 active torsions:
  status: ('A' for Active; 'I' for Inactive)
    1  A    between atoms: N_17  and  C_28
    2  A    between atoms: C_29  and  C_32
                            x       y       z     vdW  Elec       q    Type
                         _______ _______ _______ _____ _____    ______ ____

>  <TORSDO>
F 2

$$$$
=
 OpenBabel11122412203D

 34 40  0  0  1  0  0  0  0  0999 V2000
  187.1490  178.1100  142.0800 C   0  0  0  0  0  0  0  0  0  0  0  0
  189.5770  177.7860  141.2600 C   0  0  0  0  0  2  0  0  0  0  0  0
  180.6400  178.3210  141.1580 C   0  0  2  0  0  3  0  0  0  0  0  0
  184.8040  178.3900  142.6680 C   0  0  0  0  0  0  0  0  0  0  0  0
  183.1530  178.7210  140.9020 C   0  0  0  0  0  0  0  0  0  0  0  0
  181.6940  178.6860  139.0090 O   0  0  0  0  0  1  0  0  0  0  0  0
  179.4040  178.0540  140.3130 C   0  0  0  0  0  1  0  0  0  0  0  0
  181.3860  179.6870  143.1810 C   0  0  0  0  0  2  0  0  0  0  0  0
  187.7980  178.2410  139.7610 C   0  0  0  0  0  0  0  0  0  0  0  0
  188.2040  178.0330  136.5530 C   0  0  0  0  0  2  0  0  0  0  0  0
  184.1680  178.6810  139.9930 N   0  0  0  0  0  0  0  0  0  0  0  0
  182.4240  178.6000  143.3790 C   0  0  0  0  0  2  0  0  0  0  0  0
  186.4690  178.4520  139.3410 C   0  0  0  0  0  0  0  0  0  0  0  0
  190.1130  177.6560  139.8280 C   0  0  0  0  0  2  0  0  0  0  0  0
  183.4650  178.6010  142.2880 C   0  0  0  0  0  0  0  0  0  0  0  0
  180.2120  179.1640  142.3600 C   0  0  0  0  0  2  0  0  0  0  0  0
  188.7480  177.3510  137.7220 N   0  0  0  0  0  0  0  0  0  0  0  0
  185.8110  178.3360  141.6990 C   0  0  0  0  0  0  0  0  0  0  0  0
  181.7610  179.0180  140.3680 C   0  0  1  0  0  3  0  0  0  0  0  0
  185.4690  178.4940  140.3350 C   0  0  0  0  0  0  0  0  0  0  0  0
  186.3600  178.0180  144.4660 C   0  0  0  0  0  3  0  0  0  0  0  0
  187.1300  179.0600  136.9430 C   0  0  0  0  0  2  0  0  0  0  0  0
  185.1460  178.2350  144.0560 N   0  0  0  0  0  0  0  0  0  0  0  0
  186.0740  178.4670  137.8780 C   0  0  0  0  0  2  0  0  0  0  0  0
  189.0030  178.1770  138.9070 C   0  0  1  0  0  3  0  0  0  0  0  0
  187.5260  177.8990  143.5230 C   0  0  0  0  0  3  0  0  0  0  0  0
  188.1250  178.0590  141.0810 C   0  0  1  0  0  3  0  0  0  0  0  0
  188.6250  175.9190  137.7390 C   0  0  0  0  0  3  0  0  0  0  0  0
  189.2260  175.1280  136.8550 C   0  0  0  0  0  3  0  0  0  0  0  0
  187.5600  172.4890  135.5190 C   0  0  0  0  0  2  0  0  0  0  0  0
  189.7190  172.9980  135.7170 C   0  0  0  0  0  2  0  0  0  0  0  0
  189.0770  173.6470  136.9250 C   0  0  2  0  0  3  0  0  0  0  0  0
  188.8470  172.0180  135.2220 O   0  0  0  0  0  0  0  0  0  0  0  0
  187.6290  173.2810  136.8040 C   0  0  0  0  0  2  0  0  0  0  0  0
  1 26  2  0  0  0  0
  3  7  1  6  0  0  0
  3 16  1  0  0  0  0
  4 23  1  0  0  0  0
  5 15  1  0  0  0  0
  8 12  1  0  0  0  0
  9 27  1  0  0  0  0
 10 22  1  0  0  0  0
 10 17  1  0  0  0  0
 11 20  1  0  0  0  0
 11  5  2  0  0  0  0
 13  9  2  0  0  0  0
 13 20  1  0  0  0  0
 14  2  1  0  0  0  0
 15  4  2  0  0  0  0
 15 12  1  0  0  0  0
 16  8  1  0  0  0  0
 17 28  1  0  0  0  0
 17 25  1  0  0  0  0
 18  1  1  0  0  0  0
 18  4  1  0  0  0  0
 19  6  1  6  0  0  0
 19  5  1  0  0  0  0
 19  3  1  0  0  0  0
 20 18  2  0  0  0  0
 22 24  1  0  0  0  0
 23 21  2  0  0  0  0
 24 13  1  0  0  0  0
 25  9  1  0  0  0  0
 25 14  1  1  0  0  0
 26 21  1  0  0  0  0
 27  2  1  6  0  0  0
 27  1  1  0  0  0  0
 29 28  2  0  0  0  0
 30 34  1  0  0  0  0
 31 32  1  0  0  0  0
 32 29  1  6  0  0  0
 33 30  1  0  0  0  0
 33 31  1  0  0  0  0
 34 32  1  0  0  0  0
M  END
>  <MODEL>
7

>  <REMARK>
 VINA RESULT:      -7.4      1.880      2.973
  Name = 
  2 active torsions:
  status: ('A' for Active; 'I' for Inactive)
    1  A    between atoms: N_17  and  C_28
    2  A    between atoms: C_29  and  C_32
                            x       y       z     vdW  Elec       q    Type
                         _______ _______ _______ _____ _____    ______ ____

>  <TORSDO>
F 2

$$$$
