=
 OpenBabel11122411263D

 37 42  0  0  1  0  0  0  0  0999 V2000
  193.2290  175.4950  135.7610 C   0  0  0  0  0  0  0  0  0  0  0  0
  190.5330  176.7610  138.6900 C   0  0  0  0  0  0  0  0  0  0  0  0
  189.0050  179.2020  137.5670 C   0  0  0  0  0  1  0  0  0  0  0  0
  192.8280  176.4440  138.0990 C   0  0  0  0  0  0  0  0  0  0  0  0
  189.1900  176.7060  138.0330 C   0  0  1  0  0  3  0  0  0  0  0  0
  191.4800  176.3920  137.8000 C   0  0  0  0  0  0  0  0  0  0  0  0
  188.3680  177.9910  138.2320 C   0  0  1  0  0  3  0  0  0  0  0  0
  193.1980  176.8580  139.3470 N   0  0  0  0  0  0  0  0  0  0  0  0
  190.9640  176.0950  136.5310 N   0  0  0  0  0  0  0  0  0  0  0  0
  193.1160  174.0050  136.0380 C   0  0  0  0  0  1  0  0  0  0  0  0
  189.8700  177.7210  140.9410 C   0  0  0  0  0  2  0  0  0  0  0  0
  192.2630  177.2190  140.2860 C   0  0  0  0  0  3  0  0  0  0  0  0
  191.8430  176.0530  135.3660 C   0  0  0  0  0  2  0  0  0  0  0  0
  190.8870  177.1790  139.9780 C   0  0  0  0  0  0  0  0  0  0  0  0
  189.5330  176.4100  136.5440 C   0  0  1  0  0  3  0  0  0  0  0  0
  193.8300  176.2070  137.0010 C   0  0  0  0  0  2  0  0  0  0  0  0
  188.0830  178.3090  139.7140 C   0  0  2  0  0  3  0  0  0  0  0  0
  194.1740  175.6880  134.5940 C   0  0  0  0  0  1  0  0  0  0  0  0
  188.5700  177.3220  140.5920 O   0  0  0  0  0  0  0  0  0  0  0  0
  188.5730  174.1350  136.7430 C   0  0  0  0  0  3  0  0  0  0  0  0
  187.7410  172.9930  136.2320 C   0  0  2  0  0  3  0  0  0  0  0  0
  185.8330  174.7640  135.9480 C   0  0  2  0  0  3  0  0  0  0  0  0
  186.2340  173.2980  136.1770 C   0  0  0  0  0  2  0  0  0  0  0  0
  186.5130  175.4630  134.7530 C   0  0  1  0  0  3  0  0  0  0  0  0
  186.0920  176.7910  134.6720 O   0  0  0  0  0  1  0  0  0  0  0  0
  188.0490  175.4010  134.6890 C   0  0  0  0  0  2  0  0  0  0  0  0
  185.9690  175.5050  137.1250 O   0  0  0  0  0  1  0  0  0  0  0  0
  188.7170  175.2630  136.0280 C   0  0  0  0  0  0  0  0  0  0  0  0
  187.9650  170.8600  136.1620 O   0  0  0  0  0  1  0  0  0  0  0  0
  187.9610  171.8610  137.0160 O   0  0  0  0  0  0  0  0  0  0  0  0
  185.7230  178.4930  138.8520 C   0  0  0  0  0  3  0  0  0  0  0  0
  186.6200  178.5200  139.9300 C   0  0  0  0  0  0  0  0  0  0  0  0
  186.1430  178.7670  141.2220 C   0  0  0  0  0  3  0  0  0  0  0  0
  184.3200  179.2190  142.6900 F   0  0  0  0  0  0  0  0  0  0  0  0
  183.8870  178.9510  140.3610 C   0  0  0  0  0  3  0  0  0  0  0  0
  184.7780  178.9810  141.4380 C   0  0  0  0  0  0  0  0  0  0  0  0
  184.3590  178.7090  139.0680 C   0  0  0  0  0  3  0  0  0  0  0  0
  1 10  1  0  0  0  0
  1 16  1  0  0  0  0
  2 14  1  0  0  0  0
  4  8  2  0  0  0  0
  5  7  1  0  0  0  0
  5  2  1  1  0  0  0
  6  4  1  0  0  0  0
  6  2  2  0  0  0  0
  7  3  1  1  0  0  0
  7 17  1  0  0  0  0
  8 12  1  0  0  0  0
  9 15  1  0  0  0  0
  9  6  1  0  0  0  0
 13  1  1  0  0  0  0
 13  9  1  0  0  0  0
 14 12  2  0  0  0  0
 14 11  1  0  0  0  0
 15 28  1  1  0  0  0
 15  5  1  0  0  0  0
 16  4  1  0  0  0  0
 17 32  1  6  0  0  0
 17 19  1  0  0  0  0
 18  1  1  0  0  0  0
 19 11  1  0  0  0  0
 21 20  1  0  0  0  0
 21 30  1  1  0  0  0
 22 23  1  0  0  0  0
 22 27  1  1  0  0  0
 23 21  1  0  0  0  0
 24 25  1  1  0  0  0
 24 22  1  0  0  0  0
 26 24  1  0  0  0  0
 26 28  1  0  0  0  0
 28 20  2  0  0  0  0
 29 30  1  0  0  0  0
 31 37  2  0  0  0  0
 31 32  1  0  0  0  0
 32 33  2  0  0  0  0
 33 36  1  0  0  0  0
 35 36  2  0  0  0  0
 36 34  1  0  0  0  0
 37 35  1  0  0  0  0
M  END
>  <MODEL>
1

>  <REMARK>
 VINA RESULT:      -7.4      0.000      0.000
  Name = 
  3 active torsions:
  status: ('A' for Active; 'I' for Inactive)
    1  A    between atoms: C_4  and  O_37
    2  A    between atoms: C_21  and  C_27
    3  A    between atoms: C_23  and  C_30
                            x       y       z     vdW  Elec       q    Type
                         _______ _______ _______ _____ _____    ______ ____

>  <TORSDO>
F 3

$$$$
=
 OpenBabel11122411263D

 37 42  0  0  1  0  0  0  0  0999 V2000
  193.2650  175.6260  135.6920 C   0  0  0  0  0  0  0  0  0  0  0  0
  190.3760  176.7680  138.4860 C   0  0  0  0  0  0  0  0  0  0  0  0
  188.8960  179.2330  137.3510 C   0  0  0  0  0  1  0  0  0  0  0  0
  192.7070  176.4910  138.0310 C   0  0  0  0  0  0  0  0  0  0  0  0
  189.0780  176.7240  137.7450 C   0  0  1  0  0  3  0  0  0  0  0  0
  191.3820  176.4370  137.6460 C   0  0  0  0  0  0  0  0  0  0  0  0
  188.2320  177.9940  137.9340 C   0  0  1  0  0  3  0  0  0  0  0  0
  192.9930  176.8650  139.3130 N   0  0  0  0  0  0  0  0  0  0  0  0
  190.9490  176.1800  136.3370 N   0  0  0  0  0  0  0  0  0  0  0  0
  193.1510  174.1270  135.9110 C   0  0  0  0  0  1  0  0  0  0  0  0
  189.5630  177.6460  140.7220 C   0  0  0  0  0  2  0  0  0  0  0  0
  191.9970  177.1860  140.2020 C   0  0  0  0  0  3  0  0  0  0  0  0
  191.9000  176.1850  135.2290 C   0  0  0  0  0  2  0  0  0  0  0  0
  190.6450  177.1450  139.8070 C   0  0  0  0  0  0  0  0  0  0  0  0
  189.5170  176.4820  136.2700 C   0  0  1  0  0  3  0  0  0  0  0  0
  193.7790  176.3000  136.9910 C   0  0  0  0  0  2  0  0  0  0  0  0
  187.8510  178.2600  139.4050 C   0  0  2  0  0  3  0  0  0  0  0  0
  194.2790  175.8670  134.5940 C   0  0  0  0  0  1  0  0  0  0  0  0
  188.2920  177.2470  140.2780 O   0  0  0  0  0  0  0  0  0  0  0  0
  188.9440  174.0800  136.0710 C   0  0  0  0  0  3  0  0  0  0  0  0
  188.1590  172.9450  135.4760 C   0  0  2  0  0  3  0  0  0  0  0  0
  186.0340  174.3390  136.1060 C   0  0  2  0  0  3  0  0  0  0  0  0
  186.6660  172.9620  135.8430 C   0  0  0  0  0  2  0  0  0  0  0  0
  186.2780  175.4040  135.0180 C   0  0  1  0  0  3  0  0  0  0  0  0
  185.6840  176.6120  135.3880 O   0  0  0  0  0  1  0  0  0  0  0  0
  187.7370  175.6510  134.5960 C   0  0  0  0  0  2  0  0  0  0  0  0
  186.3800  174.8090  137.3760 O   0  0  0  0  0  1  0  0  0  0  0  0
  188.7470  175.3460  135.6660 C   0  0  0  0  0  0  0  0  0  0  0  0
  187.7040  171.0120  136.2890 O   0  0  0  0  0  1  0  0  0  0  0  0
  188.7210  171.7290  135.8620 O   0  0  0  0  0  0  0  0  0  0  0  0
  185.8010  178.8090  140.7630 C   0  0  0  0  0  3  0  0  0  0  0  0
  186.3750  178.4500  139.5350 C   0  0  0  0  0  0  0  0  0  0  0  0
  185.5540  178.2460  138.4200 C   0  0  0  0  0  3  0  0  0  0  0  0
  183.3780  178.2080  137.4470 F   0  0  0  0  0  0  0  0  0  0  0  0
  183.6010  178.7660  139.7540 C   0  0  0  0  0  3  0  0  0  0  0  0
  184.1690  178.4050  138.5290 C   0  0  0  0  0  0  0  0  0  0  0  0
  184.4160  178.9670  140.8720 C   0  0  0  0  0  3  0  0  0  0  0  0
  1 10  1  0  0  0  0
  1 16  1  0  0  0  0
  2 14  1  0  0  0  0
  4  8  2  0  0  0  0
  5  7  1  0  0  0  0
  5  2  1  1  0  0  0
  6  4  1  0  0  0  0
  6  2  2  0  0  0  0
  7  3  1  1  0  0  0
  7 17  1  0  0  0  0
  8 12  1  0  0  0  0
  9  6  1  0  0  0  0
 13  1  1  0  0  0  0
 13  9  1  0  0  0  0
 14 12  2  0  0  0  0
 14 11  1  0  0  0  0
 15 28  1  1  0  0  0
 15  9  1  0  0  0  0
 15  5  1  0  0  0  0
 16  4  1  0  0  0  0
 17 32  1  6  0  0  0
 17 19  1  0  0  0  0
 18  1  1  0  0  0  0
 19 11  1  0  0  0  0
 21 23  1  0  0  0  0
 21 30  1  1  0  0  0
 21 20  1  0  0  0  0
 22 27  1  1  0  0  0
 23 22  1  0  0  0  0
 24 25  1  1  0  0  0
 24 22  1  0  0  0  0
 26 24  1  0  0  0  0
 26 28  1  0  0  0  0
 28 20  2  0  0  0  0
 30 29  1  0  0  0  0
 31 37  1  0  0  0  0
 32 31  2  0  0  0  0
 33 36  2  0  0  0  0
 33 32  1  0  0  0  0
 34 36  1  0  0  0  0
 35 37  2  0  0  0  0
 36 35  1  0  0  0  0
M  END
>  <MODEL>
2

>  <REMARK>
 VINA RESULT:      -6.9      1.018      1.295
  Name = 
  3 active torsions:
  status: ('A' for Active; 'I' for Inactive)
    1  A    between atoms: C_4  and  O_37
    2  A    between atoms: C_21  and  C_27
    3  A    between atoms: C_23  and  C_30
                            x       y       z     vdW  Elec       q    Type
                         _______ _______ _______ _____ _____    ______ ____

>  <TORSDO>
F 3

$$$$
=
 OpenBabel11122411263D

 37 42  0  0  1  0  0  0  0  0999 V2000
  188.3280  177.4570  136.2140 C   0  0  0  0  0  0  0  0  0  0  0  0
  185.9140  178.0090  139.5790 C   0  0  0  0  0  0  0  0  0  0  0  0
  183.7790  180.1270  138.8640 C   0  0  0  0  0  1  0  0  0  0  0  0
  188.1080  178.2010  138.6490 C   0  0  0  0  0  0  0  0  0  0  0  0
  184.5250  177.7050  139.1150 C   0  0  1  0  0  3  0  0  0  0  0  0
  186.7690  177.8830  138.5390 C   0  0  0  0  0  0  0  0  0  0  0  0
  183.5040  178.7830  139.5220 C   0  0  1  0  0  3  0  0  0  0  0  0
  188.5750  178.6280  139.8590 N   0  0  0  0  0  0  0  0  0  0  0  0
  186.1340  177.5410  137.3370 N   0  0  0  0  0  0  0  0  0  0  0  0
  188.5560  175.9660  136.3940 C   0  0  0  0  0  1  0  0  0  0  0  0
  185.4260  178.7140  141.9650 C   0  0  0  0  0  2  0  0  0  0  0  0
  187.7420  178.7470  140.9440 C   0  0  0  0  0  3  0  0  0  0  0  0
  186.8140  177.7320  136.0600 C   0  0  0  0  0  2  0  0  0  0  0  0
  186.3710  178.4360  140.8310 C   0  0  0  0  0  0  0  0  0  0  0  0
  184.6880  177.5520  137.5750 C   0  0  1  0  0  3  0  0  0  0  0  0
  188.9580  178.2240  137.4060 C   0  0  0  0  0  2  0  0  0  0  0  0
  183.3920  178.9710  141.0490 C   0  0  2  0  0  3  0  0  0  0  0  0
  189.0260  177.8920  134.9420 C   0  0  0  0  0  1  0  0  0  0  0  0
  184.1930  178.0690  141.7740 O   0  0  0  0  0  0  0  0  0  0  0  0
  184.4110  175.0900  137.5940 C   0  0  0  0  0  3  0  0  0  0  0  0
  183.7550  173.8220  137.1250 C   0  0  2  0  0  3  0  0  0  0  0  0
  181.4940  174.9960  137.7270 C   0  0  2  0  0  3  0  0  0  0  0  0
  182.2830  173.6890  137.5510 C   0  0  0  0  0  2  0  0  0  0  0  0
  181.5700  175.9870  136.5480 C   0  0  1  0  0  3  0  0  0  0  0  0
  180.8420  177.1400  136.8440 O   0  0  0  0  0  1  0  0  0  0  0  0
  182.9730  176.3720  136.0480 C   0  0  0  0  0  2  0  0  0  0  0  0
  181.8180  175.6120  138.9400 O   0  0  0  0  0  1  0  0  0  0  0  0
  184.0470  176.2830  137.0960 C   0  0  0  0  0  0  0  0  0  0  0  0
  185.6330  173.2160  137.9680 O   0  0  0  0  0  1  0  0  0  0  0  0
  184.4760  172.7200  137.5850 O   0  0  0  0  0  0  0  0  0  0  0  0
  180.9410  178.6730  140.5450 C   0  0  0  0  0  3  0  0  0  0  0  0
  181.9660  178.8640  141.4830 C   0  0  0  0  0  0  0  0  0  0  0  0
  181.6510  178.9770  142.8410 C   0  0  0  0  0  3  0  0  0  0  0  0
  180.0170  179.0030  144.5780 F   0  0  0  0  0  0  0  0  0  0  0  0
  179.3010  178.7010  142.3250 C   0  0  0  0  0  3  0  0  0  0  0  0
  180.3200  178.8940  143.2620 C   0  0  0  0  0  0  0  0  0  0  0  0
  179.6110  178.5920  140.9660 C   0  0  0  0  0  3  0  0  0  0  0  0
  1 10  1  0  0  0  0
  1 16  1  0  0  0  0
  2 14  1  0  0  0  0
  4  8  2  0  0  0  0
  5  7  1  0  0  0  0
  5  2  1  1  0  0  0
  6  4  1  0  0  0  0
  6  2  2  0  0  0  0
  7  3  1  6  0  0  0
  7 17  1  0  0  0  0
  8 12  1  0  0  0  0
  9 15  1  0  0  0  0
  9  6  1  0  0  0  0
 13  1  1  0  0  0  0
 13  9  1  0  0  0  0
 14 12  2  0  0  0  0
 14 11  1  0  0  0  0
 15 28  1  1  0  0  0
 15  5  1  0  0  0  0
 16  4  1  0  0  0  0
 17 32  1  1  0  0  0
 17 19  1  0  0  0  0
 18  1  1  0  0  0  0
 19 11  1  0  0  0  0
 21 23  1  0  0  0  0
 21 30  1  1  0  0  0
 21 20  1  0  0  0  0
 22 27  1  1  0  0  0
 23 22  1  0  0  0  0
 24 25  1  1  0  0  0
 24 22  1  0  0  0  0
 26 24  1  0  0  0  0
 26 28  1  0  0  0  0
 28 20  2  0  0  0  0
 30 29  1  0  0  0  0
 31 37  2  0  0  0  0
 31 32  1  0  0  0  0
 32 33  2  0  0  0  0
 33 36  1  0  0  0  0
 35 36  2  0  0  0  0
 36 34  1  0  0  0  0
 37 35  1  0  0  0  0
M  END
>  <MODEL>
3

>  <REMARK>
 VINA RESULT:      -6.5      3.204      4.907
  Name = 
  3 active torsions:
  status: ('A' for Active; 'I' for Inactive)
    1  A    between atoms: C_4  and  O_37
    2  A    between atoms: C_21  and  C_27
    3  A    between atoms: C_23  and  C_30
                            x       y       z     vdW  Elec       q    Type
                         _______ _______ _______ _____ _____    ______ ____

>  <TORSDO>
F 3

$$$$
=
 OpenBabel11122411263D

 37 42  0  0  1  0  0  0  0  0999 V2000
  183.3370  177.1750  137.4550 C   0  0  0  0  0  0  0  0  0  0  0  0
  186.4890  174.4500  137.1440 C   0  0  0  0  0  0  0  0  0  0  0  0
  188.0880  175.1520  134.5940 C   0  0  0  0  0  1  0  0  0  0  0  0
  184.1180  174.7600  137.1610 C   0  0  0  0  0  0  0  0  0  0  0  0
  187.7270  175.2890  137.1110 C   0  0  1  0  0  3  0  0  0  0  0  0
  185.4060  175.2560  137.2160 C   0  0  0  0  0  0  0  0  0  0  0  0
  188.6850  174.9040  135.9710 C   0  0  1  0  0  3  0  0  0  0  0  0
  183.9490  173.4090  137.0580 N   0  0  0  0  0  0  0  0  0  0  0  0
  185.7280  176.6200  137.2100 N   0  0  0  0  0  0  0  0  0  0  0  0
  183.3420  177.2900  138.9700 C   0  0  0  0  0  1  0  0  0  0  0  0
  187.5180  172.1540  136.8320 C   0  0  0  0  0  2  0  0  0  0  0  0
  185.0250  172.5570  137.0050 C   0  0  0  0  0  3  0  0  0  0  0  0
  184.7100  177.6190  136.9000 C   0  0  0  0  0  2  0  0  0  0  0  0
  186.3400  173.0620  137.0490 C   0  0  0  0  0  0  0  0  0  0  0  0
  187.1720  176.7390  136.9950 C   0  0  1  0  0  3  0  0  0  0  0  0
  182.9670  175.7250  137.0490 C   0  0  0  0  0  2  0  0  0  0  0  0
  189.1840  173.4470  136.0590 C   0  0  2  0  0  3  0  0  0  0  0  0
  182.2750  178.1090  136.9140 C   0  0  0  0  0  1  0  0  0  0  0  0
  188.7200  172.7760  137.2060 O   0  0  0  0  0  0  0  0  0  0  0  0
  187.2950  177.7390  139.2580 C   0  0  0  0  0  3  0  0  0  0  0  0
  187.9400  178.6230  140.2890 C   0  0  2  0  0  3  0  0  0  0  0  0
  190.1430  177.3140  139.7520 C   0  0  2  0  0  3  0  0  0  0  0  0
  189.3150  178.1230  140.7630 C   0  0  0  0  0  2  0  0  0  0  0  0
  190.3150  177.9580  138.3610 C   0  0  1  0  0  3  0  0  0  0  0  0
  191.0530  177.1150  137.5300 O   0  0  0  0  0  1  0  0  0  0  0  0
  189.0340  178.4090  137.6370 C   0  0  0  0  0  2  0  0  0  0  0  0
  189.6680  176.0030  139.6580 O   0  0  0  0  0  1  0  0  0  0  0  0
  187.8040  177.6340  138.0200 C   0  0  0  0  0  0  0  0  0  0  0  0
  185.9370  179.1300  140.8680 O   0  0  0  0  0  1  0  0  0  0  0  0
  187.0910  178.7650  141.3850 O   0  0  0  0  0  0  0  0  0  0  0  0
  191.3340  172.7080  134.9740 C   0  0  0  0  0  3  0  0  0  0  0  0
  190.6760  173.4020  135.9990 C   0  0  0  0  0  0  0  0  0  0  0  0
  191.4240  174.0450  136.9920 C   0  0  0  0  0  3  0  0  0  0  0  0
  193.5420  174.6230  137.9210 F   0  0  0  0  0  0  0  0  0  0  0  0
  193.4740  173.3080  135.9340 C   0  0  0  0  0  3  0  0  0  0  0  0
  192.8210  173.9990  136.9590 C   0  0  0  0  0  0  0  0  0  0  0  0
  192.7310  172.6610  134.9420 C   0  0  0  0  0  3  0  0  0  0  0  0
  1 10  1  0  0  0  0
  2  6  1  0  0  0  0
  4  6  2  0  0  0  0
  5  2  1  6  0  0  0
  7  3  1  6  0  0  0
  7 17  1  0  0  0  0
  7  5  1  0  0  0  0
  8  4  1  0  0  0  0
  9  6  1  0  0  0  0
 11 14  1  0  0  0  0
 11 19  1  0  0  0  0
 12 14  1  0  0  0  0
 12  8  2  0  0  0  0
 13  9  1  0  0  0  0
 13  1  1  0  0  0  0
 14  2  2  0  0  0  0
 15  5  1  0  0  0  0
 15  9  1  0  0  0  0
 15 28  1  1  0  0  0
 16  4  1  0  0  0  0
 16  1  1  0  0  0  0
 17 32  1  1  0  0  0
 17 19  1  0  0  0  0
 18  1  1  0  0  0  0
 20 21  1  0  0  0  0
 21 23  1  0  0  0  0
 21 30  1  1  0  0  0
 22 27  1  6  0  0  0
 22 23  1  0  0  0  0
 24 25  1  6  0  0  0
 24 22  1  0  0  0  0
 26 28  1  0  0  0  0
 26 24  1  0  0  0  0
 28 20  2  0  0  0  0
 29 30  1  0  0  0  0
 31 32  1  0  0  0  0
 32 33  2  0  0  0  0
 35 36  2  0  0  0  0
 36 33  1  0  0  0  0
 36 34  1  0  0  0  0
 37 31  2  0  0  0  0
 37 35  1  0  0  0  0
M  END
>  <MODEL>
4

>  <REMARK>
 VINA RESULT:      -6.2      3.120      7.845
  Name = 
  3 active torsions:
  status: ('A' for Active; 'I' for Inactive)
    1  A    between atoms: C_4  and  O_37
    2  A    between atoms: C_21  and  C_27
    3  A    between atoms: C_23  and  C_30
                            x       y       z     vdW  Elec       q    Type
                         _______ _______ _______ _____ _____    ______ ____

>  <TORSDO>
F 3

$$$$
=
 OpenBabel11122411263D

 37 42  0  0  1  0  0  0  0  0999 V2000
  192.2470  175.5600  136.8490 C   0  0  0  0  0  0  0  0  0  0  0  0
  188.7730  177.0280  138.6470 C   0  0  0  0  0  0  0  0  0  0  0  0
  187.5620  179.1500  136.7530 C   0  0  0  0  0  1  0  0  0  0  0  0
  191.1500  176.8090  138.7890 C   0  0  0  0  0  0  0  0  0  0  0  0
  187.6840  176.7710  137.6550 C   0  0  1  0  0  3  0  0  0  0  0  0
  189.9510  176.6070  138.1340 C   0  0  0  0  0  0  0  0  0  0  0  0
  186.7980  178.0030  137.4000 C   0  0  1  0  0  3  0  0  0  0  0  0
  191.1260  177.4300  140.0060 N   0  0  0  0  0  0  0  0  0  0  0  0
  189.8380  176.0870  136.8370 N   0  0  0  0  0  0  0  0  0  0  0  0
  192.1070  174.1230  137.3220 C   0  0  0  0  0  1  0  0  0  0  0  0
  187.4520  178.2550  140.4290 C   0  0  0  0  0  2  0  0  0  0  0  0
  189.9470  177.8510  140.5690 C   0  0  0  0  0  3  0  0  0  0  0  0
  191.0190  175.9420  135.9920 C   0  0  0  0  0  2  0  0  0  0  0  0
  188.7230  177.6580  139.8960 C   0  0  0  0  0  0  0  0  0  0  0  0
  188.4560  176.2870  136.3930 C   0  0  1  0  0  3  0  0  0  0  0  0
  192.4370  176.4920  138.0740 C   0  0  0  0  0  2  0  0  0  0  0  0
  186.0830  178.5130  138.6680 C   0  0  2  0  0  3  0  0  0  0  0  0
  193.4850  175.6520  135.9820 C   0  0  0  0  0  1  0  0  0  0  0  0
  186.3240  177.7080  139.7960 O   0  0  0  0  0  0  0  0  0  0  0  0
  188.0350  173.8480  136.5050 C   0  0  0  0  0  3  0  0  0  0  0  0
  187.4260  172.5780  135.9810 C   0  0  2  0  0  3  0  0  0  0  0  0
  185.1620  173.8930  135.9750 C   0  0  2  0  0  3  0  0  0  0  0  0
  185.8910  172.5430  136.0670 C   0  0  0  0  0  2  0  0  0  0  0  0
  185.5600  174.7880  134.7840 C   0  0  1  0  0  3  0  0  0  0  0  0
  184.8550  175.9910  134.8310 O   0  0  0  0  0  1  0  0  0  0  0  0
  187.0600  175.0710  134.5940 C   0  0  0  0  0  2  0  0  0  0  0  0
  185.2420  174.5840  137.1880 O   0  0  0  0  0  1  0  0  0  0  0  0
  187.8640  175.0160  135.8620 C   0  0  0  0  0  0  0  0  0  0  0  0
  187.9170  170.4980  135.7910 O   0  0  0  0  0  1  0  0  0  0  0  0
  187.9580  171.4840  136.6620 O   0  0  0  0  0  0  0  0  0  0  0  0
  183.9300  177.6840  137.6550 C   0  0  0  0  0  3  0  0  0  0  0  0
  184.6140  178.6380  138.4230 C   0  0  0  0  0  0  0  0  0  0  0  0
  183.9190  179.7310  138.9500 C   0  0  0  0  0  3  0  0  0  0  0  0
  181.8760  180.9300  139.2280 F   0  0  0  0  0  0  0  0  0  0  0  0
  181.8680  178.9160  137.9530 C   0  0  0  0  0  3  0  0  0  0  0  0
  182.5470  179.8700  138.7160 C   0  0  0  0  0  0  0  0  0  0  0  0
  182.5590  177.8230  137.4210 C   0  0  0  0  0  3  0  0  0  0  0  0
  1 10  1  0  0  0  0
  1 16  1  0  0  0  0
  2 14  1  0  0  0  0
  4  8  2  0  0  0  0
  5  2  1  1  0  0  0
  6  2  2  0  0  0  0
  6  4  1  0  0  0  0
  7  3  1  1  0  0  0
  7  5  1  0  0  0  0
  7 17  1  0  0  0  0
  8 12  1  0  0  0  0
  9  6  1  0  0  0  0
 13  9  1  0  0  0  0
 13  1  1  0  0  0  0
 14 11  1  0  0  0  0
 14 12  2  0  0  0  0
 15 28  1  1  0  0  0
 15  9  1  0  0  0  0
 15  5  1  0  0  0  0
 16  4  1  0  0  0  0
 17 32  1  6  0  0  0
 17 19  1  0  0  0  0
 18  1  1  0  0  0  0
 19 11  1  0  0  0  0
 21 23  1  0  0  0  0
 21 20  1  0  0  0  0
 21 30  1  1  0  0  0
 22 23  1  0  0  0  0
 22 27  1  1  0  0  0
 24 25  1  1  0  0  0
 24 22  1  0  0  0  0
 26 24  1  0  0  0  0
 26 28  1  0  0  0  0
 28 20  2  0  0  0  0
 29 30  1  0  0  0  0
 31 32  1  0  0  0  0
 32 33  2  0  0  0  0
 35 36  2  0  0  0  0
 36 33  1  0  0  0  0
 36 34  1  0  0  0  0
 37 31  2  0  0  0  0
 37 35  1  0  0  0  0
M  END
>  <MODEL>
5

>  <REMARK>
 VINA RESULT:      -6.2      1.523      2.000
  Name = 
  3 active torsions:
  status: ('A' for Active; 'I' for Inactive)
    1  A    between atoms: C_4  and  O_37
    2  A    between atoms: C_21  and  C_27
    3  A    between atoms: C_23  and  C_30
                            x       y       z     vdW  Elec       q    Type
                         _______ _______ _______ _____ _____    ______ ____

>  <TORSDO>
F 3

$$$$
=
 OpenBabel11122411263D

 37 42  0  0  1  0  0  0  0  0999 V2000
  185.9300  178.1290  146.6960 C   0  0  0  0  0  0  0  0  0  0  0  0
  189.2270  177.9920  144.1340 C   0  0  0  0  0  0  0  0  0  0  0  0
  189.0790  175.3380  142.5560 C   0  0  0  0  0  1  0  0  0  0  0  0
  188.4670  178.0490  146.4000 C   0  0  0  0  0  0  0  0  0  0  0  0
  188.6480  177.8400  142.7630 C   0  0  1  0  0  3  0  0  0  0  0  0
  188.2250  178.0170  145.0410 C   0  0  0  0  0  0  0  0  0  0  0  0
  189.3120  176.7150  141.9500 C   0  0  1  0  0  3  0  0  0  0  0  0
  189.7640  178.0850  146.8260 N   0  0  0  0  0  0  0  0  0  0  0  0
  186.9540  177.8670  144.4680 N   0  0  0  0  0  0  0  0  0  0  0  0
  185.6810  179.6250  146.5970 C   0  0  0  0  0  1  0  0  0  0  0  0
  191.6970  177.8760  143.5730 C   0  0  0  0  0  2  0  0  0  0  0  0
  190.8080  178.0830  145.9340 C   0  0  0  0  0  3  0  0  0  0  0  0
  185.8100  177.4920  145.2930 C   0  0  0  0  0  2  0  0  0  0  0  0
  190.5630  178.0370  144.5460 C   0  0  0  0  0  0  0  0  0  0  0  0
  187.1350  177.5990  143.0390 C   0  0  1  0  0  3  0  0  0  0  0  0
  187.3120  177.8780  147.3520 C   0  0  0  0  0  2  0  0  0  0  0  0
  190.8240  176.9300  141.7320 C   0  0  2  0  0  3  0  0  0  0  0  0
  184.8610  177.5310  147.5870 C   0  0  0  0  0  1  0  0  0  0  0  0
  191.2860  178.1510  142.2580 O   0  0  0  0  0  0  0  0  0  0  0  0
  186.2330  178.3750  140.8660 C   0  0  0  0  0  3  0  0  0  0  0  0
  185.3730  179.2800  140.0300 C   0  0  2  0  0  3  0  0  0  0  0  0
  183.4200  178.5790  141.6270 C   0  0  2  0  0  3  0  0  0  0  0  0
  183.8640  179.0700  140.2400 C   0  0  0  0  0  2  0  0  0  0  0  0
  183.9700  179.3770  142.8260 C   0  0  1  0  0  3  0  0  0  0  0  0
  183.5230  178.8140  144.0220 O   0  0  0  0  0  1  0  0  0  0  0  0
  185.4930  179.5850  142.8870 C   0  0  0  0  0  2  0  0  0  0  0  0
  183.6580  177.2080  141.7660 O   0  0  0  0  0  1  0  0  0  0  0  0
  186.2900  178.5120  142.2010 C   0  0  0  0  0  0  0  0  0  0  0  0
  186.9070  178.6260  138.6790 O   0  0  0  0  0  1  0  0  0  0  0  0
  185.6850  179.1140  138.6810 O   0  0  0  0  0  0  0  0  0  0  0  0
  192.4950  176.8310  139.8490 C   0  0  0  0  0  3  0  0  0  0  0  0
  191.1600  176.8300  140.2800 C   0  0  0  0  0  0  0  0  0  0  0  0
  190.1280  176.7560  139.3380 C   0  0  0  0  0  3  0  0  0  0  0  0
  189.4240  176.6050  137.0650 F   0  0  0  0  0  0  0  0  0  0  0  0
  191.7580  176.6760  137.5490 C   0  0  0  0  0  3  0  0  0  0  0  0
  190.4260  176.6780  137.9740 C   0  0  0  0  0  0  0  0  0  0  0  0
  192.7920  176.7540  138.4850 C   0  0  0  0  0  3  0  0  0  0  0  0
  1 16  1  0  0  0  0
  1 18  1  0  0  0  0
  2 14  2  0  0  0  0
  2  6  1  0  0  0  0
  4  8  1  0  0  0  0
  4 16  1  0  0  0  0
  5 15  1  0  0  0  0
  5  2  1  1  0  0  0
  6  4  2  0  0  0  0
  7  3  1  1  0  0  0
  7  5  1  0  0  0  0
  9  6  1  0  0  0  0
  9 13  1  0  0  0  0
 10  1  1  0  0  0  0
 11 14  1  0  0  0  0
 12  8  2  0  0  0  0
 13  1  1  0  0  0  0
 14 12  1  0  0  0  0
 15 28  1  6  0  0  0
 15  9  1  0  0  0  0
 17 32  1  6  0  0  0
 17  7  1  0  0  0  0
 17 19  1  0  0  0  0
 19 11  1  0  0  0  0
 20 28  2  0  0  0  0
 21 30  1  6  0  0  0
 21 23  1  0  0  0  0
 21 20  1  0  0  0  0
 22 27  1  1  0  0  0
 22 24  1  0  0  0  0
 23 22  1  0  0  0  0
 24 26  1  0  0  0  0
 24 25  1  1  0  0  0
 28 26  1  0  0  0  0
 29 30  1  0  0  0  0
 31 32  1  0  0  0  0
 33 32  2  0  0  0  0
 34 36  1  0  0  0  0
 35 36  2  0  0  0  0
 35 37  1  0  0  0  0
 36 33  1  0  0  0  0
 37 31  2  0  0  0  0
M  END
>  <MODEL>
6

>  <REMARK>
 VINA RESULT:      -6.0      4.039      8.294
  Name = 
  3 active torsions:
  status: ('A' for Active; 'I' for Inactive)
    1  A    between atoms: C_4  and  O_37
    2  A    between atoms: C_21  and  C_27
    3  A    between atoms: C_23  and  C_30
                            x       y       z     vdW  Elec       q    Type
                         _______ _______ _______ _____ _____    ______ ____

>  <TORSDO>
F 3

$$$$
=
 OpenBabel11122411263D

 37 42  0  0  1  0  0  0  0  0999 V2000
  183.7960  178.8720  138.8840 C   0  0  0  0  0  0  0  0  0  0  0  0
  187.0410  176.4380  137.8820 C   0  0  0  0  0  0  0  0  0  0  0  0
  189.2870  178.2670  136.8040 C   0  0  0  0  0  1  0  0  0  0  0  0
  184.7600  177.0000  137.4360 C   0  0  0  0  0  0  0  0  0  0  0  0
  188.1840  176.9610  138.6920 C   0  0  1  0  0  3  0  0  0  0  0  0
  185.9430  177.1900  138.1220 C   0  0  0  0  0  0  0  0  0  0  0  0
  189.4590  177.1850  137.8600 C   0  0  1  0  0  3  0  0  0  0  0  0
  184.7030  175.9990  136.5090 N   0  0  0  0  0  0  0  0  0  0  0  0
  186.1770  178.2440  139.0170 N   0  0  0  0  0  0  0  0  0  0  0  0
  183.3420  178.0820  140.1000 C   0  0  0  0  0  1  0  0  0  0  0  0
  188.2390  174.6380  136.5590 C   0  0  0  0  0  2  0  0  0  0  0  0
  185.7910  175.2000  136.2540 C   0  0  0  0  0  3  0  0  0  0  0  0
  185.2450  179.3640  139.1010 C   0  0  0  0  0  2  0  0  0  0  0  0
  187.0040  175.4000  136.9440 C   0  0  0  0  0  0  0  0  0  0  0  0
  187.6110  178.2670  139.3160 C   0  0  1  0  0  3  0  0  0  0  0  0
  183.6440  177.9950  137.6130 C   0  0  0  0  0  2  0  0  0  0  0  0
  189.9870  175.8970  137.1950 C   0  0  2  0  0  3  0  0  0  0  0  0
  182.8950  180.0800  138.7430 C   0  0  0  0  0  1  0  0  0  0  0  0
  189.2390  174.7550  137.5390 O   0  0  0  0  0  0  0  0  0  0  0  0
  186.9600  177.8070  141.6620 C   0  0  0  0  0  3  0  0  0  0  0  0
  187.2170  177.8280  143.1420 C   0  0  2  0  0  3  0  0  0  0  0  0
  189.4710  176.6240  142.5720 C   0  0  2  0  0  3  0  0  0  0  0  0
  188.3500  176.8880  143.5890 C   0  0  0  0  0  2  0  0  0  0  0  0
  190.1050  177.8780  141.9350 C   0  0  1  0  0  3  0  0  0  0  0  0
  191.0810  177.5050  141.0110 O   0  0  0  0  0  1  0  0  0  0  0  0
  189.1450  178.8970  141.2950 C   0  0  0  0  0  2  0  0  0  0  0  0
  189.0560  175.7070  141.6020 O   0  0  0  0  0  1  0  0  0  0  0  0
  187.8590  178.3020  140.7950 C   0  0  0  0  0  0  0  0  0  0  0  0
  185.4390  178.6620  144.0080 O   0  0  0  0  0  1  0  0  0  0  0  0
  186.0470  177.5080  143.8290 O   0  0  0  0  0  0  0  0  0  0  0  0
  192.2040  176.7420  138.0440 C   0  0  0  0  0  3  0  0  0  0  0  0
  191.4290  175.6930  137.5280 C   0  0  0  0  0  0  0  0  0  0  0  0
  192.0170  174.4430  137.3020 C   0  0  0  0  0  3  0  0  0  0  0  0
  193.9360  173.0300  137.3750 F   0  0  0  0  0  0  0  0  0  0  0  0
  194.1380  175.2880  138.1100 C   0  0  0  0  0  3  0  0  0  0  0  0
  193.3700  174.2410  137.5940 C   0  0  0  0  0  0  0  0  0  0  0  0
  193.5560  176.5390  138.3340 C   0  0  0  0  0  3  0  0  0  0  0  0
  1 13  1  0  0  0  0
  1 10  1  0  0  0  0
  2  6  1  0  0  0  0
  4 16  1  0  0  0  0
  4  6  2  0  0  0  0
  5  2  1  6  0  0  0
  5 15  1  0  0  0  0
  6  9  1  0  0  0  0
  7  3  1  6  0  0  0
  7  5  1  0  0  0  0
  8  4  1  0  0  0  0
  9 13  1  0  0  0  0
  9 15  1  0  0  0  0
 11 14  1  0  0  0  0
 11 19  1  0  0  0  0
 12  8  2  0  0  0  0
 12 14  1  0  0  0  0
 14  2  2  0  0  0  0
 15 28  1  1  0  0  0
 16  1  1  0  0  0  0
 17 32  1  1  0  0  0
 17 19  1  0  0  0  0
 17  7  1  0  0  0  0
 18  1  1  0  0  0  0
 20 21  1  0  0  0  0
 21 23  1  0  0  0  0
 21 30  1  1  0  0  0
 22 27  1  6  0  0  0
 22 23  1  0  0  0  0
 24 25  1  6  0  0  0
 24 22  1  0  0  0  0
 26 24  1  0  0  0  0
 28 26  1  0  0  0  0
 28 20  2  0  0  0  0
 30 29  1  0  0  0  0
 31 37  1  0  0  0  0
 32 31  2  0  0  0  0
 33 32  1  0  0  0  0
 33 36  2  0  0  0  0
 34 36  1  0  0  0  0
 35 37  2  0  0  0  0
 36 35  1  0  0  0  0
M  END
>  <MODEL>
7

>  <REMARK>
 VINA RESULT:      -5.4      3.210      7.921
  Name = 
  3 active torsions:
  status: ('A' for Active; 'I' for Inactive)
    1  A    between atoms: C_4  and  O_37
    2  A    between atoms: C_21  and  C_27
    3  A    between atoms: C_23  and  C_30
                            x       y       z     vdW  Elec       q    Type
                         _______ _______ _______ _____ _____    ______ ____

>  <TORSDO>
F 3

$$$$
=
 OpenBabel11122411263D

 37 42  0  0  1  0  0  0  0  0999 V2000
  186.6680  173.0390  136.0080 C   0  0  0  0  0  0  0  0  0  0  0  0
  183.5360  175.8040  136.0710 C   0  0  0  0  0  0  0  0  0  0  0  0
  182.6480  176.1480  139.0110 C   0  0  0  0  0  1  0  0  0  0  0  0
  184.2870  173.6620  135.3190 C   0  0  0  0  0  0  0  0  0  0  0  0
  183.9980  176.8940  136.9850 C   0  0  1  0  0  3  0  0  0  0  0  0
  184.4830  174.8410  136.0110 C   0  0  0  0  0  0  0  0  0  0  0  0
  182.9480  177.2810  138.0400 C   0  0  1  0  0  3  0  0  0  0  0  0
  183.1050  173.4890  134.6570 N   0  0  0  0  0  0  0  0  0  0  0  0
  185.5960  175.1060  136.8220 N   0  0  0  0  0  0  0  0  0  0  0  0
  187.4640  173.6880  134.8880 C   0  0  0  0  0  1  0  0  0  0  0  0
  181.2010  176.6410  135.5490 C   0  0  0  0  0  2  0  0  0  0  0  0
  182.1290  174.4540  134.6760 C   0  0  0  0  0  3  0  0  0  0  0  0
  186.5210  174.0350  137.1800 C   0  0  0  0  0  2  0  0  0  0  0  0
  182.3220  175.6530  135.3920 C   0  0  0  0  0  0  0  0  0  0  0  0
  185.3100  176.3180  137.5940 C   0  0  1  0  0  3  0  0  0  0  0  0
  185.3010  172.5570  135.4560 C   0  0  0  0  0  2  0  0  0  0  0  0
  181.6280  177.7950  137.4280 C   0  0  2  0  0  3  0  0  0  0  0  0
  187.4400  171.8320  136.4970 C   0  0  0  0  0  1  0  0  0  0  0  0
  181.6700  177.8770  136.0240 O   0  0  0  0  0  0  0  0  0  0  0  0
  187.1680  177.6460  138.5530 C   0  0  0  0  0  3  0  0  0  0  0  0
  188.2990  178.6280  138.4370 C   0  0  2  0  0  3  0  0  0  0  0  0
  189.1810  177.0910  136.5090 C   0  0  2  0  0  3  0  0  0  0  0  0
  189.4930  178.1070  137.6190 C   0  0  0  0  0  2  0  0  0  0  0  0
  188.0620  177.4970  135.5290 C   0  0  1  0  0  3  0  0  0  0  0  0
  187.8530  176.4820  134.5940 O   0  0  0  0  0  1  0  0  0  0  0  0
  186.7160  177.9230  136.1410 C   0  0  0  0  0  2  0  0  0  0  0  0
  188.9590  175.8210  137.0480 O   0  0  0  0  0  1  0  0  0  0  0  0
  186.4280  177.3110  137.4830 C   0  0  0  0  0  0  0  0  0  0  0  0
  187.7540  178.6420  140.5130 O   0  0  0  0  0  1  0  0  0  0  0  0
  188.7320  179.0030  139.7090 O   0  0  0  0  0  0  0  0  0  0  0  0
  180.7820  179.2160  139.3290 C   0  0  0  0  0  3  0  0  0  0  0  0
  181.2630  179.1190  138.0150 C   0  0  0  0  0  0  0  0  0  0  0  0
  181.3840  180.2740  137.2350 C   0  0  0  0  0  3  0  0  0  0  0  0
  181.1500  182.6360  137.0070 F   0  0  0  0  0  0  0  0  0  0  0  0
  180.5540  181.6120  139.0760 C   0  0  0  0  0  3  0  0  0  0  0  0
  181.0310  181.5200  137.7650 C   0  0  0  0  0  0  0  0  0  0  0  0
  180.4280  180.4600  139.8580 C   0  0  0  0  0  3  0  0  0  0  0  0
  1 18  1  0  0  0  0
  1 13  1  0  0  0  0
  4 16  1  0  0  0  0
  4  6  2  0  0  0  0
  5  2  1  6  0  0  0
  5 15  1  0  0  0  0
  5  7  1  0  0  0  0
  6  2  1  0  0  0  0
  6  9  1  0  0  0  0
  7  3  1  6  0  0  0
  8 12  2  0  0  0  0
  8  4  1  0  0  0  0
  9 13  1  0  0  0  0
  9 15  1  0  0  0  0
 10  1  1  0  0  0  0
 11 19  1  0  0  0  0
 12 14  1  0  0  0  0
 14 11  1  0  0  0  0
 14  2  2  0  0  0  0
 15 28  1  6  0  0  0
 16  1  1  0  0  0  0
 17 32  1  1  0  0  0
 17  7  1  0  0  0  0
 19 17  1  0  0  0  0
 21 20  1  0  0  0  0
 21 30  1  1  0  0  0
 22 27  1  1  0  0  0
 22 23  1  0  0  0  0
 23 21  1  0  0  0  0
 24 25  1  6  0  0  0
 24 26  1  0  0  0  0
 24 22  1  0  0  0  0
 26 28  1  0  0  0  0
 28 20  2  0  0  0  0
 30 29  1  0  0  0  0
 31 37  1  0  0  0  0
 32 31  2  0  0  0  0
 33 36  2  0  0  0  0
 33 32  1  0  0  0  0
 34 36  1  0  0  0  0
 35 37  2  0  0  0  0
 36 35  1  0  0  0  0
M  END
>  <MODEL>
8

>  <REMARK>
 VINA RESULT:      -5.1      3.470      6.851
  Name = 
  3 active torsions:
  status: ('A' for Active; 'I' for Inactive)
    1  A    between atoms: C_4  and  O_37
    2  A    between atoms: C_21  and  C_27
    3  A    between atoms: C_23  and  C_30
                            x       y       z     vdW  Elec       q    Type
                         _______ _______ _______ _____ _____    ______ ____

>  <TORSDO>
F 3

$$$$
=
 OpenBabel11122411263D

 37 42  0  0  1  0  0  0  0  0999 V2000
  187.8690  177.6250  148.0450 C   0  0  0  0  0  0  0  0  0  0  0  0
  189.7590  177.6990  144.3200 C   0  0  0  0  0  0  0  0  0  0  0  0
  188.7670  175.2490  142.7160 C   0  0  0  0  0  1  0  0  0  0  0  0
  190.0310  177.5140  146.6880 C   0  0  0  0  0  0  0  0  0  0  0  0
  188.6470  177.7210  143.3200 C   0  0  1  0  0  3  0  0  0  0  0  0
  189.2370  177.6450  145.5660 C   0  0  0  0  0  0  0  0  0  0  0  0
  188.8220  176.6800  142.2000 C   0  0  1  0  0  3  0  0  0  0  0  0
  191.3860  177.4660  146.5200 N   0  0  0  0  0  0  0  0  0  0  0  0
  187.8360  177.5950  145.5790 N   0  0  0  0  0  0  0  0  0  0  0  0
  187.7110  179.1280  148.2020 C   0  0  0  0  0  1  0  0  0  0  0  0
  191.7460  177.5840  142.7500 C   0  0  0  0  0  2  0  0  0  0  0  0
  191.9530  177.5410  145.2720 C   0  0  0  0  0  3  0  0  0  0  0  0
  187.1230  177.1580  146.7750 C   0  0  0  0  0  2  0  0  0  0  0  0
  191.1440  177.6620  144.1240 C   0  0  0  0  0  0  0  0  0  0  0  0
  187.3780  177.4890  144.1920 C   0  0  1  0  0  3  0  0  0  0  0  0
  189.3780  177.2640  148.0220 C   0  0  0  0  0  2  0  0  0  0  0  0
  190.1120  176.8800  141.3790 C   0  0  2  0  0  3  0  0  0  0  0  0
  187.2360  176.9560  149.2470 C   0  0  0  0  0  1  0  0  0  0  0  0
  190.8410  178.0190  141.7680 O   0  0  0  0  0  0  0  0  0  0  0  0
  185.6200  178.4640  142.7430 C   0  0  0  0  0  3  0  0  0  0  0  0
  184.5560  179.4820  142.4440 C   0  0  2  0  0  3  0  0  0  0  0  0
  183.5580  178.8380  144.7780 C   0  0  2  0  0  3  0  0  0  0  0  0
  183.3230  179.3780  143.3570 C   0  0  0  0  0  2  0  0  0  0  0  0
  184.6930  179.5170  145.5710 C   0  0  1  0  0  3  0  0  0  0  0  0
  184.8250  178.9180  146.8250 O   0  0  0  0  0  1  0  0  0  0  0  0
  186.0690  179.6020  144.8880 C   0  0  0  0  0  2  0  0  0  0  0  0
  183.6990  177.4480  144.7630 O   0  0  0  0  0  1  0  0  0  0  0  0
  186.3270  178.5140  143.8840 C   0  0  0  0  0  0  0  0  0  0  0  0
  185.2760  179.5000  140.4220 O   0  0  0  0  0  1  0  0  0  0  0  0
  184.1610  179.3750  141.1120 O   0  0  0  0  0  0  0  0  0  0  0  0
  190.6570  176.3640  138.9730 C   0  0  0  0  0  3  0  0  0  0  0  0
  189.7970  176.9400  139.9200 C   0  0  0  0  0  0  0  0  0  0  0  0
  188.6370  177.5960  139.4930 C   0  0  0  0  0  3  0  0  0  0  0  0
  187.2120  178.3090  137.7200 F   0  0  0  0  0  0  0  0  0  0  0  0
  189.1950  177.0970  137.1900 C   0  0  0  0  0  3  0  0  0  0  0  0
  188.3350  177.6740  138.1300 C   0  0  0  0  0  0  0  0  0  0  0  0
  190.3560  176.4440  137.6110 C   0  0  0  0  0  3  0  0  0  0  0  0
  1 10  1  0  0  0  0
  1 18  1  0  0  0  0
  2  6  1  0  0  0  0
  4 16  1  0  0  0  0
  5 15  1  0  0  0  0
  5  2  1  1  0  0  0
  6  9  1  0  0  0  0
  6  4  2  0  0  0  0
  7  3  1  1  0  0  0
  7  5  1  0  0  0  0
  8  4  1  0  0  0  0
  9 13  1  0  0  0  0
 11 14  1  0  0  0  0
 12  8  2  0  0  0  0
 13  1  1  0  0  0  0
 14  2  2  0  0  0  0
 14 12  1  0  0  0  0
 15 28  1  6  0  0  0
 15  9  1  0  0  0  0
 16  1  1  0  0  0  0
 17 32  1  6  0  0  0
 17 19  1  0  0  0  0
 17  7  1  0  0  0  0
 19 11  1  0  0  0  0
 20 28  2  0  0  0  0
 21 30  1  6  0  0  0
 21 20  1  0  0  0  0
 21 23  1  0  0  0  0
 22 27  1  6  0  0  0
 22 24  1  0  0  0  0
 23 22  1  0  0  0  0
 24 25  1  1  0  0  0
 26 24  1  0  0  0  0
 28 26  1  0  0  0  0
 29 30  1  0  0  0  0
 31 32  1  0  0  0  0
 33 32  2  0  0  0  0
 34 36  1  0  0  0  0
 35 37  1  0  0  0  0
 35 36  2  0  0  0  0
 36 33  1  0  0  0  0
 37 31  2  0  0  0  0
M  END
>  <MODEL>
9

>  <REMARK>
 VINA RESULT:      -5.0      4.544      8.692
  Name = 
  3 active torsions:
  status: ('A' for Active; 'I' for Inactive)
    1  A    between atoms: C_4  and  O_37
    2  A    between atoms: C_21  and  C_27
    3  A    between atoms: C_23  and  C_30
                            x       y       z     vdW  Elec       q    Type
                         _______ _______ _______ _____ _____    ______ ____

>  <TORSDO>
F 3

$$$$
