=
 OpenBabel11122411583D

 28 32  0  0  1  0  0  0  0  0999 V2000
  191.6900  174.5220  137.5930 C   0  0  0  0  0  0  0  0  0  0  0  0
  190.2640  175.7510  141.1630 O   0  0  0  0  0  0  0  0  0  0  0  0
  186.4340  176.9780  135.3790 N   0  0  0  0  0  1  0  0  0  0  0  0
  193.8440  176.2770  137.2520 C   0  0  0  0  0  3  0  0  0  0  0  0
  187.9670  178.4620  136.6520 C   0  0  0  0  0  0  0  0  0  0  0  0
  190.6110  173.6500  137.7160 O   0  0  0  0  0  0  0  0  0  0  0  0
  191.6880  177.7180  141.5370 O   0  0  0  0  0  0  0  0  0  0  0  0
  190.4000  177.2320  140.9350 S   0  0  0  0  0  0  0  0  0  0  0  0
  188.0310  178.5160  140.8570 C   0  0  0  0  0  0  0  0  0  0  0  0
  190.4010  177.5990  139.2380 N   0  0  2  0  0  0  0  0  0  0  0  0
  189.5980  174.2530  134.5960 O   0  0  0  0  0  0  0  0  0  0  0  0
  189.4200  176.9170  137.2390 C   0  0  0  0  0  0  0  0  0  0  0  0
  188.1880  178.6880  139.5810 N   0  0  0  0  0  0  0  0  0  0  0  0
  189.0870  178.0460  141.6770 N   0  0  0  0  0  2  0  0  0  0  0  0
  189.3140  174.0710  135.7690 C   0  0  0  0  0  0  0  0  0  0  0  0
  191.5380  175.8770  137.9280 C   0  0  0  0  0  0  0  0  0  0  0  0
  187.6620  177.2510  136.0510 C   0  0  0  0  0  0  0  0  0  0  0  0
  186.6920  178.7390  141.4600 C   0  0  0  0  0  1  0  0  0  0  0  0
  188.2210  174.8590  136.4140 C   0  0  0  0  0  2  0  0  0  0  0  0
  192.6230  176.7510  137.7390 C   0  0  0  0  0  3  0  0  0  0  0  0
  192.9140  174.0510  137.0990 C   0  0  0  0  0  3  0  0  0  0  0  0
  193.9900  174.9260  136.9340 C   0  0  0  0  0  3  0  0  0  0  0  0
  190.0450  173.0390  136.5660 C   0  0  0  0  0  2  0  0  0  0  0  0
  189.0890  178.2120  137.4200 C   0  0  0  0  0  0  0  0  0  0  0  0
  188.5260  176.2870  136.4420 N   0  0  0  0  0  0  0  0  0  0  0  0
  189.4360  178.6410  138.7990 C   0  0  2  0  0  3  0  0  0  0  0  0
  187.0620  179.6410  136.7620 C   0  0  0  0  0  1  0  0  0  0  0  0
  190.2020  176.4030  138.3940 C   0  0  1  0  0  3  0  0  0  0  0  0
  1  6  1  0  0  0  0
  1 16  1  0  0  0  0
  3 17  1  0  0  0  0
  4 20  1  0  0  0  0
  5 27  1  0  0  0  0
  5 24  1  0  0  0  0
  8  2  2  0  0  0  0
  8  7  2  0  0  0  0
  8 14  1  0  0  0  0
  9 18  1  0  0  0  0
  9 14  1  0  0  0  0
 10  8  1  1  0  0  0
 11 15  2  0  0  0  0
 12 24  2  0  0  0  0
 13  9  2  0  0  0  0
 15 19  1  0  0  0  0
 15 23  1  0  0  0  0
 16 28  1  0  0  0  0
 17 25  1  0  0  0  0
 17  5  2  0  0  0  0
 19 25  1  0  0  0  0
 20 16  2  0  0  0  0
 21  1  2  0  0  0  0
 22 21  1  0  0  0  0
 22  4  2  0  0  0  0
 23  6  1  0  0  0  0
 25 12  1  0  0  0  0
 26 24  1  6  0  0  0
 26 10  1  0  0  0  0
 26 13  1  0  0  0  0
 28 12  1  6  0  0  0
 28 10  1  0  0  0  0
M  END
>  <MODEL>
1

>  <REMARK>
 VINA RESULT:      -6.5      0.000      0.000
  Name = 
  0 active torsions:
  status: ('A' for Active; 'I' for Inactive)
                            x       y       z     vdW  Elec       q    Type
                         _______ _______ _______ _____ _____    ______ ____

>  <TORSDO>
F 0

$$$$
=
 OpenBabel11122411583D

 28 32  0  0  1  0  0  0  0  0999 V2000
  180.8340  179.0840  142.4410 C   0  0  0  0  0  0  0  0  0  0  0  0
  180.5450  175.6830  140.2880 O   0  0  0  0  0  0  0  0  0  0  0  0
  186.9040  178.5620  141.2420 N   0  0  0  0  0  1  0  0  0  0  0  0
  179.6180  180.9130  140.7060 C   0  0  0  0  0  3  0  0  0  0  0  0
  185.3430  178.6860  139.3130 C   0  0  0  0  0  0  0  0  0  0  0  0
  181.4680  178.2080  143.3190 O   0  0  0  0  0  0  0  0  0  0  0  0
  179.6350  176.5820  138.1910 O   0  0  0  0  0  0  0  0  0  0  0  0
  180.8950  176.2650  138.9450 S   0  0  0  0  0  0  0  0  0  0  0  0
  183.2160  175.3220  137.9510 C   0  0  0  0  0  0  0  0  0  0  0  0
  181.8220  177.7210  139.1250 N   0  0  2  0  0  0  0  0  0  0  0  0
  184.0040  180.3200  143.8020 O   0  0  0  0  0  0  0  0  0  0  0  0
  183.4720  178.6610  140.4730 C   0  0  0  0  0  0  0  0  0  0  0  0
  183.7580  176.4790  138.1710 N   0  0  0  0  0  0  0  0  0  0  0  0
  181.8160  175.1270  138.0540 N   0  0  0  0  0  2  0  0  0  0  0  0
  183.6170  179.1750  143.6330 C   0  0  0  0  0  0  0  0  0  0  0  0
  181.1150  179.0260  141.0670 C   0  0  0  0  0  0  0  0  0  0  0  0
  185.6090  178.7430  140.6720 C   0  0  0  0  0  0  0  0  0  0  0  0
  184.0890  174.1550  137.6640 C   0  0  0  0  0  1  0  0  0  0  0  0
  184.3970  178.2300  142.7780 C   0  0  0  0  0  2  0  0  0  0  0  0
  180.5090  179.9590  140.2070 C   0  0  0  0  0  3  0  0  0  0  0  0
  179.9450  180.0460  142.9390 C   0  0  0  0  0  3  0  0  0  0  0  0
  179.3350  180.9550  142.0720 C   0  0  0  0  0  3  0  0  0  0  0  0
  182.3670  178.7010  144.3010 C   0  0  0  0  0  2  0  0  0  0  0  0
  183.9650  178.6170  139.2180 C   0  0  0  0  0  0  0  0  0  0  0  0
  184.4650  178.6850  141.3910 N   0  0  0  0  0  0  0  0  0  0  0  0
  183.0930  177.7810  138.3550 C   0  0  2  0  0  3  0  0  0  0  0  0
  186.3230  178.3620  138.2390 C   0  0  0  0  0  1  0  0  0  0  0  0
  182.1250  178.0370  140.5360 C   0  0  1  0  0  3  0  0  0  0  0  0
  1 21  1  0  0  0  0
  1  6  1  0  0  0  0
  4 22  1  0  0  0  0
  5 17  2  0  0  0  0
  6 23  1  0  0  0  0
  7  8  2  0  0  0  0
  8  2  2  0  0  0  0
  9 14  1  0  0  0  0
  9 13  2  0  0  0  0
 10  8  1  1  0  0  0
 10 28  1  0  0  0  0
 12 25  1  0  0  0  0
 14  8  1  0  0  0  0
 15 11  2  0  0  0  0
 15 23  1  0  0  0  0
 16  1  2  0  0  0  0
 17  3  1  0  0  0  0
 17 25  1  0  0  0  0
 18  9  1  0  0  0  0
 19 15  1  0  0  0  0
 20  4  2  0  0  0  0
 20 16  1  0  0  0  0
 22 21  2  0  0  0  0
 24  5  1  0  0  0  0
 24 12  2  0  0  0  0
 25 19  1  0  0  0  0
 26 13  1  1  0  0  0
 26 10  1  0  0  0  0
 26 24  1  0  0  0  0
 27  5  1  0  0  0  0
 28 12  1  6  0  0  0
 28 16  1  0  0  0  0
M  END
>  <MODEL>
2

>  <REMARK>
 VINA RESULT:      -6.4      6.021      9.930
  Name = 
  0 active torsions:
  status: ('A' for Active; 'I' for Inactive)
                            x       y       z     vdW  Elec       q    Type
                         _______ _______ _______ _____ _____    ______ ____

>  <TORSDO>
F 0

$$$$
=
 OpenBabel11122411583D

 28 32  0  0  1  0  0  0  0  0999 V2000
  189.0990  174.9280  136.4380 C   0  0  0  0  0  0  0  0  0  0  0  0
  188.7560  177.0240  139.8690 O   0  0  0  0  0  0  0  0  0  0  0  0
  182.9260  174.4310  136.8850 N   0  0  0  0  0  1  0  0  0  0  0  0
  189.8190  176.9570  134.6490 C   0  0  0  0  0  3  0  0  0  0  0  0
  183.9070  176.7120  136.8090 C   0  0  0  0  0  0  0  0  0  0  0  0
  188.7160  173.8970  137.2930 O   0  0  0  0  0  0  0  0  0  0  0  0
  189.0740  179.3030  139.0110 O   0  0  0  0  0  0  0  0  0  0  0  0
  188.0630  178.2310  139.2990 S   0  0  0  0  0  0  0  0  0  0  0  0
  185.5480  178.5450  140.2210 C   0  0  0  0  0  0  0  0  0  0  0  0
  187.2340  177.8310  137.8270 N   0  0  2  0  0  0  0  0  0  0  0  0
  186.4290  172.7810  135.1380 O   0  0  0  0  0  0  0  0  0  0  0  0
  186.0220  176.1020  136.8460 C   0  0  0  0  0  0  0  0  0  0  0  0
  185.0990  178.2050  139.0530 N   0  0  0  0  0  0  0  0  0  0  0  0
  186.9220  178.8210  140.4340 N   0  0  0  0  0  2  0  0  0  0  0  0
  186.7430  173.0290  136.2910 C   0  0  0  0  0  0  0  0  0  0  0  0
  188.4550  176.1740  136.5090 C   0  0  0  0  0  0  0  0  0  0  0  0
  184.0190  175.3330  136.7310 C   0  0  0  0  0  0  0  0  0  0  0  0
  184.6180  178.5650  141.3780 C   0  0  0  0  0  1  0  0  0  0  0  0
  185.7510  173.6250  137.2340 C   0  0  0  0  0  2  0  0  0  0  0  0
  188.8160  177.1800  135.5960 C   0  0  0  0  0  3  0  0  0  0  0  0
  190.0990  174.7050  135.4820 C   0  0  0  0  0  3  0  0  0  0  0  0
  190.4620  175.7200  134.5940 C   0  0  0  0  0  3  0  0  0  0  0  0
  188.1220  172.7160  136.7750 C   0  0  0  0  0  2  0  0  0  0  0  0
  185.2070  177.1760  136.8990 C   0  0  0  0  0  0  0  0  0  0  0  0
  185.3140  174.9490  136.7970 N   0  0  0  0  0  0  0  0  0  0  0  0
  185.8040  178.2290  137.7590 C   0  0  2  0  0  3  0  0  0  0  0  0
  182.6690  177.4760  137.1320 C   0  0  0  0  0  1  0  0  0  0  0  0
  187.3290  176.3960  137.4900 C   0  0  1  0  0  3  0  0  0  0  0  0
  1 16  1  0  0  0  0
  1  6  1  0  0  0  0
  4 20  1  0  0  0  0
  5 24  1  0  0  0  0
  5 27  1  0  0  0  0
  7  8  2  0  0  0  0
  8  2  2  0  0  0  0
  8 14  1  0  0  0  0
  9 14  1  0  0  0  0
  9 18  1  0  0  0  0
 10  8  1  1  0  0  0
 11 15  2  0  0  0  0
 12 24  2  0  0  0  0
 12 28  1  0  0  0  0
 13  9  2  0  0  0  0
 15 23  1  0  0  0  0
 15 19  1  0  0  0  0
 17 25  1  0  0  0  0
 17  5  2  0  0  0  0
 17  3  1  0  0  0  0
 20 16  2  0  0  0  0
 21  1  2  0  0  0  0
 22  4  2  0  0  0  0
 22 21  1  0  0  0  0
 23  6  1  0  0  0  0
 25 12  1  0  0  0  0
 25 19  1  0  0  0  0
 26 24  1  6  0  0  0
 26 10  1  0  0  0  0
 26 13  1  0  0  0  0
 28 16  1  6  0  0  0
 28 10  1  0  0  0  0
M  END
>  <MODEL>
3

>  <REMARK>
 VINA RESULT:      -6.0      2.738      3.513
  Name = 
  0 active torsions:
  status: ('A' for Active; 'I' for Inactive)
                            x       y       z     vdW  Elec       q    Type
                         _______ _______ _______ _____ _____    ______ ____

>  <TORSDO>
F 0

$$$$
=
 OpenBabel11122411583D

 28 32  0  0  1  0  0  0  0  0999 V2000
  182.5920  177.4470  137.8770 C   0  0  0  0  0  0  0  0  0  0  0  0
  184.0470  173.6930  137.6010 O   0  0  0  0  0  0  0  0  0  0  0  0
  188.5770  179.0400  138.3090 N   0  0  0  0  0  1  0  0  0  0  0  0
  181.6320  177.8340  135.2750 C   0  0  0  0  0  3  0  0  0  0  0  0
  187.8480  177.7920  136.2890 C   0  0  0  0  0  0  0  0  0  0  0  0
  183.0810  177.3000  139.1720 O   0  0  0  0  0  0  0  0  0  0  0  0
  183.7450  173.2930  135.1960 O   0  0  0  0  0  0  0  0  0  0  0  0
  184.6830  173.8230  136.2440 S   0  0  0  0  0  0  0  0  0  0  0  0
  187.3700  173.6130  136.3060 C   0  0  0  0  0  0  0  0  0  0  0  0
  185.0440  175.4820  135.8860 N   0  0  2  0  0  0  0  0  0  0  0  0
  184.5860  180.2750  139.0810 O   0  0  0  0  0  0  0  0  0  0  0  0
  185.7690  177.4390  136.9200 C   0  0  0  0  0  0  0  0  0  0  0  0
  187.4550  174.8810  136.0500 N   0  0  0  0  0  0  0  0  0  0  0  0
  186.1380  172.9180  136.2080 N   0  0  0  0  0  2  0  0  0  0  0  0
  184.6170  179.0990  139.4070 C   0  0  0  0  0  0  0  0  0  0  0  0
  183.3540  177.0030  136.7840 C   0  0  0  0  0  0  0  0  0  0  0  0
  187.5800  178.4520  137.4770 C   0  0  0  0  0  0  0  0  0  0  0  0
  188.5720  172.8890  136.7930 C   0  0  0  0  0  1  0  0  0  0  0  0
  185.8800  178.3120  139.2830 C   0  0  0  0  0  2  0  0  0  0  0  0
  182.8680  177.2160  135.4820 C   0  0  0  0  0  3  0  0  0  0  0  0
  181.3560  178.0720  137.6650 C   0  0  0  0  0  3  0  0  0  0  0  0
  180.8750  178.2600  136.3670 C   0  0  0  0  0  3  0  0  0  0  0  0
  183.3920  178.4420  139.9570 C   0  0  0  0  0  2  0  0  0  0  0  0
  186.6740  177.1380  135.9650 C   0  0  0  0  0  0  0  0  0  0  0  0
  186.3170  178.2040  137.8920 N   0  0  0  0  0  0  0  0  0  0  0  0
  186.4380  175.7640  135.4520 C   0  0  2  0  0  3  0  0  0  0  0  0
  189.1990  177.5230  135.7190 C   0  0  0  0  0  1  0  0  0  0  0  0
  184.7180  176.3920  137.0040 C   0  0  1  0  0  3  0  0  0  0  0  0
  1  6  1  0  0  0  0
  4 20  2  0  0  0  0
  4 22  1  0  0  0  0
  5 17  2  0  0  0  0
  6 23  1  0  0  0  0
  7  8  2  0  0  0  0
  8  2  2  0  0  0  0
  9 18  1  0  0  0  0
 10  8  1  1  0  0  0
 10 28  1  0  0  0  0
 11 15  2  0  0  0  0
 12 28  1  0  0  0  0
 12 25  1  0  0  0  0
 13  9  2  0  0  0  0
 14  8  1  0  0  0  0
 14  9  1  0  0  0  0
 15 23  1  0  0  0  0
 16  1  2  0  0  0  0
 17 25  1  0  0  0  0
 17  3  1  0  0  0  0
 19 15  1  0  0  0  0
 20 16  1  0  0  0  0
 21  1  1  0  0  0  0
 22 21  2  0  0  0  0
 24  5  1  0  0  0  0
 24 12  2  0  0  0  0
 25 19  1  0  0  0  0
 26 10  1  0  0  0  0
 26 24  1  1  0  0  0
 26 13  1  0  0  0  0
 27  5  1  0  0  0  0
 28 16  1  6  0  0  0
M  END
>  <MODEL>
4

>  <REMARK>
 VINA RESULT:      -6.0      4.332      7.762
  Name = 
  0 active torsions:
  status: ('A' for Active; 'I' for Inactive)
                            x       y       z     vdW  Elec       q    Type
                         _______ _______ _______ _____ _____    ______ ____

>  <TORSDO>
F 0

$$$$
=
 OpenBabel11122411583D

 28 32  0  0  1  0  0  0  0  0999 V2000
  188.1050  175.1720  136.5110 C   0  0  0  0  0  0  0  0  0  0  0  0
  188.4470  176.9370  140.1240 O   0  0  0  0  0  0  0  0  0  0  0  0
  182.0090  175.5290  137.6360 N   0  0  0  0  0  1  0  0  0  0  0  0
  188.9410  177.2480  134.8290 C   0  0  0  0  0  3  0  0  0  0  0  0
  183.3180  177.6400  137.6380 C   0  0  0  0  0  0  0  0  0  0  0  0
  187.6580  174.1260  137.3150 O   0  0  0  0  0  0  0  0  0  0  0  0
  189.0230  179.2220  139.4310 O   0  0  0  0  0  0  0  0  0  0  0  0
  187.8930  178.2830  139.7440 S   0  0  0  0  0  0  0  0  0  0  0  0
  185.5660  178.8610  140.9770 C   0  0  0  0  0  0  0  0  0  0  0  0
  186.8650  178.1580  138.3510 N   0  0  2  0  0  0  0  0  0  0  0  0
  185.0150  173.5760  135.3560 O   0  0  0  0  0  0  0  0  0  0  0  0
  185.3050  176.7310  137.3760 C   0  0  0  0  0  0  0  0  0  0  0  0
  184.9510  178.7100  139.8450 N   0  0  0  0  0  0  0  0  0  0  0  0
  186.9800  178.9140  141.0510 N   0  0  0  0  0  2  0  0  0  0  0  0
  185.4810  173.6580  136.4810 C   0  0  0  0  0  0  0  0  0  0  0  0
  187.6720  176.4850  136.7630 C   0  0  0  0  0  0  0  0  0  0  0  0
  183.2070  176.2740  137.4310 C   0  0  0  0  0  0  0  0  0  0  0  0
  184.7740  178.8980  142.2330 C   0  0  0  0  0  1  0  0  0  0  0  0
  184.6960  174.2930  137.5810 C   0  0  0  0  0  2  0  0  0  0  0  0
  188.0880  177.5160  135.9020 C   0  0  0  0  0  3  0  0  0  0  0  0
  188.9550  174.9060  135.4290 C   0  0  0  0  0  3  0  0  0  0  0  0
  189.3760  175.9430  134.5940 C   0  0  0  0  0  3  0  0  0  0  0  0
  186.8380  173.1020  136.7720 C   0  0  0  0  0  2  0  0  0  0  0  0
  184.6760  177.9000  137.6140 C   0  0  0  0  0  0  0  0  0  0  0  0
  184.4270  175.7030  137.3120 N   0  0  0  0  0  0  0  0  0  0  0  0
  185.5140  178.7640  138.4840 C   0  0  2  0  0  3  0  0  0  0  0  0
  182.2530  178.5380  138.1680 C   0  0  0  0  0  1  0  0  0  0  0  0
  186.7010  176.7660  137.8840 C   0  0  1  0  0  3  0  0  0  0  0  0
  1 16  1  0  0  0  0
  1  6  1  0  0  0  0
  4 20  1  0  0  0  0
  5 27  1  0  0  0  0
  7  8  2  0  0  0  0
  8  2  2  0  0  0  0
  8 14  1  0  0  0  0
  9 14  1  0  0  0  0
  9 18  1  0  0  0  0
 10 26  1  0  0  0  0
 10  8  1  1  0  0  0
 11 15  2  0  0  0  0
 12 24  2  0  0  0  0
 12 28  1  0  0  0  0
 13  9  2  0  0  0  0
 15 23  1  0  0  0  0
 15 19  1  0  0  0  0
 17  3  1  0  0  0  0
 17  5  2  0  0  0  0
 20 16  2  0  0  0  0
 21  1  2  0  0  0  0
 22  4  2  0  0  0  0
 22 21  1  0  0  0  0
 23  6  1  0  0  0  0
 24  5  1  0  0  0  0
 25 12  1  0  0  0  0
 25 17  1  0  0  0  0
 25 19  1  0  0  0  0
 26 24  1  6  0  0  0
 26 13  1  0  0  0  0
 28 16  1  6  0  0  0
 28 10  1  0  0  0  0
M  END
>  <MODEL>
5

>  <REMARK>
 VINA RESULT:      -5.6      3.057      4.030
  Name = 
  0 active torsions:
  status: ('A' for Active; 'I' for Inactive)
                            x       y       z     vdW  Elec       q    Type
                         _______ _______ _______ _____ _____    ______ ____

>  <TORSDO>
F 0

$$$$
=
 OpenBabel11122411583D

 28 32  0  0  1  0  0  0  0  0999 V2000
  181.3430  178.6130  137.7900 C   0  0  0  0  0  0  0  0  0  0  0  0
  181.3840  174.5930  137.4410 O   0  0  0  0  0  0  0  0  0  0  0  0
  187.4940  177.9790  138.3480 N   0  0  0  0  0  1  0  0  0  0  0  0
  180.6400  179.3620  135.1850 C   0  0  0  0  0  3  0  0  0  0  0  0
  186.4170  177.1060  136.2860 C   0  0  0  0  0  0  0  0  0  0  0  0
  181.7200  178.2790  139.0880 O   0  0  0  0  0  0  0  0  0  0  0  0
  181.0150  174.3700  135.0220 O   0  0  0  0  0  0  0  0  0  0  0  0
  182.0550  174.5140  136.0960 S   0  0  0  0  0  0  0  0  0  0  0  0
  184.4930  173.3670  136.1920 C   0  0  0  0  0  0  0  0  0  0  0  0
  182.9870  175.9450  135.7860 N   0  0  2  0  0  0  0  0  0  0  0  0
  184.1810  180.5300  139.0930 O   0  0  0  0  0  0  0  0  0  0  0  0
  184.3340  177.5000  136.8780 C   0  0  0  0  0  0  0  0  0  0  0  0
  185.0270  174.5280  135.9690 N   0  0  0  0  0  0  0  0  0  0  0  0
  183.0980  173.1540  136.0590 N   0  0  0  0  0  2  0  0  0  0  0  0
  183.7870  179.4140  139.3900 C   0  0  0  0  0  0  0  0  0  0  0  0
  181.9240  177.9480  136.6970 C   0  0  0  0  0  0  0  0  0  0  0  0
  186.3720  177.7970  137.4870 C   0  0  0  0  0  0  0  0  0  0  0  0
  185.3510  172.2550  136.6770 C   0  0  0  0  0  1  0  0  0  0  0  0
  184.6930  178.2330  139.2640 C   0  0  0  0  0  2  0  0  0  0  0  0
  181.5730  178.3430  135.3940 C   0  0  0  0  0  3  0  0  0  0  0  0
  180.4120  179.6390  137.5760 C   0  0  0  0  0  3  0  0  0  0  0  0
  180.0580  180.0080  136.2770 C   0  0  0  0  0  3  0  0  0  0  0  0
  182.3970  179.2220  139.9050 C   0  0  0  0  0  2  0  0  0  0  0  0
  185.0950  176.9160  135.9290 C   0  0  0  0  0  0  0  0  0  0  0  0
  185.0940  178.0040  137.8780 N   0  0  0  0  0  0  0  0  0  0  0  0
  184.4000  175.7240  135.3790 C   0  0  2  0  0  3  0  0  0  0  0  0
  187.5970  176.3880  135.7300 C   0  0  0  0  0  1  0  0  0  0  0  0
  182.9780  176.8910  136.9210 C   0  0  1  0  0  3  0  0  0  0  0  0
  1  6  1  0  0  0  0
  4 20  2  0  0  0  0
  4 22  1  0  0  0  0
  5 17  2  0  0  0  0
  6 23  1  0  0  0  0
  7  8  2  0  0  0  0
  8  2  2  0  0  0  0
  9 18  1  0  0  0  0
 10  8  1  1  0  0  0
 10 28  1  0  0  0  0
 11 15  2  0  0  0  0
 12 28  1  0  0  0  0
 12 25  1  0  0  0  0
 13  9  2  0  0  0  0
 14  8  1  0  0  0  0
 14  9  1  0  0  0  0
 15 23  1  0  0  0  0
 16  1  2  0  0  0  0
 17 25  1  0  0  0  0
 17  3  1  0  0  0  0
 19 15  1  0  0  0  0
 20 16  1  0  0  0  0
 21  1  1  0  0  0  0
 22 21  2  0  0  0  0
 24  5  1  0  0  0  0
 24 12  2  0  0  0  0
 25 19  1  0  0  0  0
 26 10  1  0  0  0  0
 26 24  1  1  0  0  0
 26 13  1  0  0  0  0
 27  5  1  0  0  0  0
 28 16  1  6  0  0  0
M  END
>  <MODEL>
6

>  <REMARK>
 VINA RESULT:      -5.3      5.440      8.938
  Name = 
  0 active torsions:
  status: ('A' for Active; 'I' for Inactive)
                            x       y       z     vdW  Elec       q    Type
                         _______ _______ _______ _____ _____    ______ ____

>  <TORSDO>
F 0

$$$$
=
 OpenBabel11122411583D

 28 32  0  0  1  0  0  0  0  0999 V2000
  183.7610  176.0130  136.1610 C   0  0  0  0  0  0  0  0  0  0  0  0
  180.5350  178.4250  136.4030 O   0  0  0  0  0  0  0  0  0  0  0  0
  185.8350  179.3880  140.9430 N   0  0  0  0  0  1  0  0  0  0  0  0
  182.6740  173.5870  137.0380 C   0  0  0  0  0  3  0  0  0  0  0  0
  183.6700  178.1990  141.2100 C   0  0  0  0  0  0  0  0  0  0  0  0
  184.3430  177.2080  135.7460 O   0  0  0  0  0  0  0  0  0  0  0  0
  178.9320  176.8900  137.4550 O   0  0  0  0  0  0  0  0  0  0  0  0
  179.9990  177.9140  137.7130 S   0  0  0  0  0  0  0  0  0  0  0  0
  180.0730  179.7550  139.6810 C   0  0  0  0  0  0  0  0  0  0  0  0
  181.2620  177.1840  138.6540 N   0  0  2  0  0  0  0  0  0  0  0  0
  186.9590  176.7920  137.7730 O   0  0  0  0  0  0  0  0  0  0  0  0
  183.5230  177.4320  139.1520 C   0  0  0  0  0  0  0  0  0  0  0  0
  181.0310  179.0860  140.2450 N   0  0  0  0  0  0  0  0  0  0  0  0
  179.3290  179.2180  138.6020 N   0  0  0  0  0  2  0  0  0  0  0  0
  186.1260  177.5380  137.2840 C   0  0  0  0  0  0  0  0  0  0  0  0
  182.8830  176.0040  137.2570 C   0  0  0  0  0  0  0  0  0  0  0  0
  184.8230  178.4880  140.4970 C   0  0  0  0  0  0  0  0  0  0  0  0
  179.8040  181.1480  140.1230 C   0  0  0  0  0  1  0  0  0  0  0  0
  185.4930  178.6100  138.1090 C   0  0  0  0  0  2  0  0  0  0  0  0
  182.3540  174.7770  137.6960 C   0  0  0  0  0  3  0  0  0  0  0  0
  184.0840  174.8170  135.5070 C   0  0  0  0  0  3  0  0  0  0  0  0
  183.5370  173.6070  135.9410 C   0  0  0  0  0  3  0  0  0  0  0  0
  185.7470  177.3970  135.8450 C   0  0  0  0  0  2  0  0  0  0  0  0
  182.8490  177.5370  140.3160 C   0  0  0  0  0  0  0  0  0  0  0  0
  184.7210  178.0570  139.2190 N   0  0  0  0  0  0  0  0  0  0  0  0
  181.3930  177.6710  140.0530 C   0  0  2  0  0  3  0  0  0  0  0  0
  183.2580  178.8170  142.5010 C   0  0  0  0  0  1  0  0  0  0  0  0
  182.5860  177.2800  138.0080 C   0  0  1  0  0  3  0  0  0  0  0  0
  1 16  1  0  0  0  0
  2  8  2  0  0  0  0
  4 20  1  0  0  0  0
  5 27  1  0  0  0  0
  6 23  1  0  0  0  0
  6  1  1  0  0  0  0
  7  8  2  0  0  0  0
  8 14  1  0  0  0  0
  9 18  1  0  0  0  0
  9 13  2  0  0  0  0
 10  8  1  6  0  0  0
 10 26  1  0  0  0  0
 12 25  1  0  0  0  0
 12 24  2  0  0  0  0
 14  9  1  0  0  0  0
 15 11  2  0  0  0  0
 15 19  1  0  0  0  0
 16 20  2  0  0  0  0
 17  3  1  0  0  0  0
 17  5  2  0  0  0  0
 19 25  1  0  0  0  0
 21 22  1  0  0  0  0
 21  1  2  0  0  0  0
 22  4  2  0  0  0  0
 23 15  1  0  0  0  0
 24  5  1  0  0  0  0
 25 17  1  0  0  0  0
 26 13  1  6  0  0  0
 26 24  1  0  0  0  0
 28 16  1  1  0  0  0
 28 10  1  0  0  0  0
 28 12  1  0  0  0  0
M  END
>  <MODEL>
7

>  <REMARK>
 VINA RESULT:      -5.3      5.905      8.285
  Name = 
  0 active torsions:
  status: ('A' for Active; 'I' for Inactive)
                            x       y       z     vdW  Elec       q    Type
                         _______ _______ _______ _____ _____    ______ ____

>  <TORSDO>
F 0

$$$$
=
 OpenBabel11122411583D

 28 32  0  0  1  0  0  0  0  0999 V2000
  185.6260  175.0630  136.2130 C   0  0  0  0  0  0  0  0  0  0  0  0
  181.9960  176.2200  134.8820 O   0  0  0  0  0  0  0  0  0  0  0  0
  184.9300  179.7530  140.2230 N   0  0  0  0  0  1  0  0  0  0  0  0
  184.9930  172.6130  137.4100 C   0  0  0  0  0  3  0  0  0  0  0  0
  183.2090  177.9610  140.2180 C   0  0  0  0  0  0  0  0  0  0  0  0
  185.9730  176.2900  135.6520 O   0  0  0  0  0  0  0  0  0  0  0  0
  180.6010  174.4440  135.8480 O   0  0  0  0  0  0  0  0  0  0  0  0
  181.1970  175.8020  136.0860 S   0  0  0  0  0  0  0  0  0  0  0  0
  180.0890  177.8800  137.3990 C   0  0  0  0  0  0  0  0  0  0  0  0
  182.2010  175.7340  137.5010 N   0  0  2  0  0  0  0  0  0  0  0  0
  187.7340  177.1730  138.3430 O   0  0  0  0  0  0  0  0  0  0  0  0
  183.9960  176.8310  138.5010 C   0  0  0  0  0  0  0  0  0  0  0  0
  180.9340  177.6950  138.3650 N   0  0  0  0  0  0  0  0  0  0  0  0
  179.9380  176.9330  136.3550 N   0  0  0  0  0  2  0  0  0  0  0  0
  186.9550  177.4850  137.4570 C   0  0  0  0  0  0  0  0  0  0  0  0
  184.4590  174.9510  136.9870 C   0  0  0  0  0  0  0  0  0  0  0  0
  184.4160  178.4940  139.7930 C   0  0  0  0  0  0  0  0  0  0  0  0
  179.3220  179.1510  137.3390 C   0  0  0  0  0  1  0  0  0  0  0  0
  185.8130  178.4050  137.7420 C   0  0  0  0  0  2  0  0  0  0  0  0
  184.1600  173.7190  137.5940 C   0  0  0  0  0  3  0  0  0  0  0  0
  186.4630  173.9540  136.0370 C   0  0  0  0  0  3  0  0  0  0  0  0
  186.1450  172.7300  136.6300 C   0  0  0  0  0  3  0  0  0  0  0  0
  187.1500  176.9640  136.0700 C   0  0  0  0  0  2  0  0  0  0  0  0
  182.9580  176.9060  139.3600 C   0  0  0  0  0  0  0  0  0  0  0  0
  184.8830  177.8310  138.7110 N   0  0  0  0  0  0  0  0  0  0  0  0
  181.7050  176.4810  138.6860 C   0  0  2  0  0  3  0  0  0  0  0  0
  182.2260  178.6230  141.1210 C   0  0  0  0  0  1  0  0  0  0  0  0
  183.5910  176.1610  137.2370 C   0  0  1  0  0  3  0  0  0  0  0  0
  1 16  1  0  0  0  0
  2  8  2  0  0  0  0
  4 20  1  0  0  0  0
  5 27  1  0  0  0  0
  6 23  1  0  0  0  0
  6  1  1  0  0  0  0
  7  8  2  0  0  0  0
  8 14  1  0  0  0  0
  9 13  2  0  0  0  0
 10  8  1  6  0  0  0
 10 26  1  0  0  0  0
 12 25  1  0  0  0  0
 12 24  2  0  0  0  0
 14  9  1  0  0  0  0
 15 19  1  0  0  0  0
 15 11  2  0  0  0  0
 16 20  2  0  0  0  0
 17  5  2  0  0  0  0
 17  3  1  0  0  0  0
 18  9  1  0  0  0  0
 19 25  1  0  0  0  0
 21  1  2  0  0  0  0
 21 22  1  0  0  0  0
 22  4  2  0  0  0  0
 23 15  1  0  0  0  0
 24  5  1  0  0  0  0
 25 17  1  0  0  0  0
 26 13  1  6  0  0  0
 26 24  1  0  0  0  0
 28 16  1  1  0  0  0
 28 10  1  0  0  0  0
 28 12  1  0  0  0  0
M  END
>  <MODEL>
8

>  <REMARK>
 VINA RESULT:      -5.1      5.178      7.588
  Name = 
  0 active torsions:
  status: ('A' for Active; 'I' for Inactive)
                            x       y       z     vdW  Elec       q    Type
                         _______ _______ _______ _____ _____    ______ ____

>  <TORSDO>
F 0

$$$$
=
 OpenBabel11122411583D

 28 32  0  0  1  0  0  0  0  0999 V2000
  182.8840  178.4000  140.3280 C   0  0  0  0  0  0  0  0  0  0  0  0
  183.2900  174.9100  138.3430 O   0  0  0  0  0  0  0  0  0  0  0  0
  189.0740  178.6170  139.9010 N   0  0  0  0  0  1  0  0  0  0  0  0
  181.6820  179.9890  138.3620 C   0  0  0  0  0  3  0  0  0  0  0  0
  187.7670  178.4650  137.7940 C   0  0  0  0  0  0  0  0  0  0  0  0
  183.5050  177.6480  141.3220 O   0  0  0  0  0  0  0  0  0  0  0  0
  182.5490  175.6020  136.1060 O   0  0  0  0  0  0  0  0  0  0  0  0
  183.7330  175.4800  137.0230 S   0  0  0  0  0  0  0  0  0  0  0  0
  186.2600  174.8050  136.3690 C   0  0  0  0  0  0  0  0  0  0  0  0
  184.4440  177.0490  137.2340 N   0  0  2  0  0  0  0  0  0  0  0  0
  185.6800  180.0850  141.9920 O   0  0  0  0  0  0  0  0  0  0  0  0
  185.7820  178.2450  138.7180 C   0  0  0  0  0  0  0  0  0  0  0  0
  186.6230  176.0300  136.5900 N   0  0  0  0  0  0  0  0  0  0  0  0
  184.8920  174.4370  136.3120 N   0  0  0  0  0  2  0  0  0  0  0  0
  185.4620  178.8940  141.8400 C   0  0  0  0  0  0  0  0  0  0  0  0
  183.3420  178.3260  139.0030 C   0  0  0  0  0  0  0  0  0  0  0  0
  187.8500  178.6080  139.1700 C   0  0  0  0  0  0  0  0  0  0  0  0
  187.2990  173.7500  136.2530 C   0  0  0  0  0  1  0  0  0  0  0  0
  186.4540  178.0250  141.1390 C   0  0  0  0  0  2  0  0  0  0  0  0
  182.7390  179.1390  138.0270 C   0  0  0  0  0  3  0  0  0  0  0  0
  181.8280  179.2580  140.6610 C   0  0  0  0  0  3  0  0  0  0  0  0
  181.2250  180.0470  139.6790 C   0  0  0  0  0  3  0  0  0  0  0  0
  184.2050  178.2890  142.3780 C   0  0  0  0  0  2  0  0  0  0  0  0
  186.4310  178.2160  137.5360 C   0  0  0  0  0  0  0  0  0  0  0  0
  186.6400  178.4310  139.7470 N   0  0  0  0  0  0  0  0  0  0  0  0
  185.7850  177.2420  136.6210 C   0  0  2  0  0  3  0  0  0  0  0  0
  188.9070  178.2280  136.8650 C   0  0  0  0  0  1  0  0  0  0  0  0
  184.5240  177.4550  138.6520 C   0  0  1  0  0  3  0  0  0  0  0  0
  1 21  1  0  0  0  0
  1  6  1  0  0  0  0
  4 22  1  0  0  0  0
  5 17  2  0  0  0  0
  6 23  1  0  0  0  0
  7  8  2  0  0  0  0
  8  2  2  0  0  0  0
  9 13  2  0  0  0  0
 10  8  1  1  0  0  0
 10 28  1  0  0  0  0
 12 25  1  0  0  0  0
 14  9  1  0  0  0  0
 14  8  1  0  0  0  0
 15 11  2  0  0  0  0
 15 23  1  0  0  0  0
 16  1  2  0  0  0  0
 17 25  1  0  0  0  0
 17  3  1  0  0  0  0
 18  9  1  0  0  0  0
 19 15  1  0  0  0  0
 20  4  2  0  0  0  0
 20 16  1  0  0  0  0
 22 21  2  0  0  0  0
 24  5  1  0  0  0  0
 24 12  2  0  0  0  0
 25 19  1  0  0  0  0
 26 13  1  1  0  0  0
 26 10  1  0  0  0  0
 26 24  1  0  0  0  0
 27  5  1  0  0  0  0
 28 12  1  6  0  0  0
 28 16  1  0  0  0  0
M  END
>  <MODEL>
9

>  <REMARK>
 VINA RESULT:      -4.9      4.127      7.972
  Name = 
  0 active torsions:
  status: ('A' for Active; 'I' for Inactive)
                            x       y       z     vdW  Elec       q    Type
                         _______ _______ _______ _____ _____    ______ ____

>  <TORSDO>
F 0

$$$$
