=
 OpenBabel11122410563D

 31 35  0  0  1  0  0  0  0  0999 V2000
  188.5470  178.1990  139.9850 C   0  0  0  0  0  0  0  0  0  0  0  0
  185.9020  178.7700  142.5940 N   0  0  0  0  0  0  0  0  0  0  0  0
  184.5950  178.7790  141.9670 C   0  0  0  0  0  0  0  0  0  0  0  0
  183.1730  178.6360  139.9980 C   0  0  0  0  0  0  0  0  0  0  0  0
  187.0590  178.2630  141.9010 C   0  0  0  0  0  0  0  0  0  0  0  0
  189.3320  177.2350  140.6250 C   0  0  0  0  0  3  0  0  0  0  0  0
  184.4440  178.7050  140.5730 C   0  0  0  0  0  3  0  0  0  0  0  0
  186.3420  177.3200  144.5030 C   0  0  2  0  0  3  0  0  0  0  0  0
  188.9000  178.6560  138.6850 N   0  0  0  0  0  1  0  0  0  0  0  0
  183.5730  178.8560  144.1590 O   0  0  0  0  0  0  0  0  0  0  0  0
  183.0050  178.5480  138.2590 Cl  0  0  0  0  0  0  0  0  0  0  0  0
  187.5280  176.8710  143.8390 O   0  0  0  0  0  0  0  0  0  0  0  0
  186.0110  178.7490  144.0630 C   0  0  2  0  0  3  0  0  0  0  0  0
  187.4140  178.7150  140.6220 C   0  0  0  0  0  3  0  0  0  0  0  0
  182.0380  178.6210  140.8110 C   0  0  0  0  0  3  0  0  0  0  0  0
  187.8590  177.2980  142.5440 C   0  0  0  0  0  0  0  0  0  0  0  0
  188.9910  176.7870  141.9040 C   0  0  0  0  0  3  0  0  0  0  0  0
  184.7730  179.3330  144.7550 C   0  0  0  0  0  2  0  0  0  0  0  0
  183.4450  178.7810  142.7750 C   0  0  0  0  0  0  0  0  0  0  0  0
  182.1740  178.6910  142.1990 C   0  0  0  0  0  3  0  0  0  0  0  0
  186.5250  177.2150  146.0090 C   0  0  0  0  0  2  0  0  0  0  0  0
  187.4340  178.6600  147.8340 C   0  0  0  0  0  1  0  0  0  0  0  0
  187.6900  178.0920  146.4500 C   0  0  1  0  0  3  0  0  0  0  0  0
  191.3270  176.0650  146.9710 C   0  0  1  0  0  3  0  0  0  0  0  0
  189.1180  176.2190  147.3240 C   0  0  0  0  0  2  0  0  0  0  0  0
  189.9850  178.6260  144.7360 O   0  0  0  0  0  0  0  0  0  0  0  0
  192.6670  175.7790  147.6170 C   0  0  0  0  0  1  0  0  0  0  0  0
  190.3640  176.3080  147.9670 O   0  0  0  0  0  0  0  0  0  0  0  0
  190.0990  177.7790  145.6610 C   0  0  0  0  0  0  0  0  0  0  0  0
  188.9510  177.3500  146.4150 N   0  0  0  0  0  0  0  0  0  0  0  0
  191.4570  177.2740  146.0400 C   0  0  0  0  0  2  0  0  0  0  0  0
  1 14  2  0  0  0  0
  1  6  1  0  0  0  0
  2 13  1  0  0  0  0
  3  2  1  0  0  0  0
  3 19  1  0  0  0  0
  4  7  1  0  0  0  0
  4 15  2  0  0  0  0
  5 16  2  0  0  0  0
  5  2  1  0  0  0  0
  6 17  2  0  0  0  0
  7  3  2  0  0  0  0
  8 21  1  1  0  0  0
  9  1  1  0  0  0  0
 10 18  1  0  0  0  0
 11  4  1  0  0  0  0
 12  8  1  0  0  0  0
 13  8  1  0  0  0  0
 13 18  1  1  0  0  0
 14  5  1  0  0  0  0
 15 20  1  0  0  0  0
 16 12  1  0  0  0  0
 17 16  1  0  0  0  0
 19 10  1  0  0  0  0
 20 19  2  0  0  0  0
 21 23  1  0  0  0  0
 23 22  1  1  0  0  0
 24 27  1  1  0  0  0
 24 28  1  0  0  0  0
 25 28  1  0  0  0  0
 26 29  2  0  0  0  0
 29 31  1  0  0  0  0
 29 30  1  0  0  0  0
 30 23  1  0  0  0  0
 30 25  1  0  0  0  0
 31 24  1  0  0  0  0
M  END
>  <MODEL>
1

>  <REMARK>
 VINA RESULT:      -8.6      0.000      0.000
  Name = 
  3 active torsions:
  status: ('A' for Active; 'I' for Inactive)
    1  A    between atoms: C_5  and  C_16
    2  A    between atoms: C_5  and  N_30
    3  A    between atoms: C_10  and  C_16
                            x       y       z     vdW  Elec       q    Type
                         _______ _______ _______ _____ _____    ______ ____

>  <TORSDO>
F 3

$$$$
=
 OpenBabel11122410563D

 31 35  0  0  1  0  0  0  0  0999 V2000
  188.8730  176.9460  141.7710 C   0  0  0  0  0  0  0  0  0  0  0  0
  186.4670  177.6760  144.5650 N   0  0  0  0  0  0  0  0  0  0  0  0
  187.1930  177.7860  145.8140 C   0  0  0  0  0  0  0  0  0  0  0  0
  189.2620  177.7080  147.0930 C   0  0  0  0  0  0  0  0  0  0  0  0
  187.1520  177.7170  143.2980 C   0  0  0  0  0  0  0  0  0  0  0  0
  188.4220  177.8500  140.8030 C   0  0  0  0  0  3  0  0  0  0  0  0
  188.5700  177.5190  145.8950 C   0  0  0  0  0  3  0  0  0  0  0  0
  184.9480  179.4480  143.8640 C   0  0  2  0  0  3  0  0  0  0  0  0
  189.9780  176.0960  141.4900 N   0  0  0  0  0  1  0  0  0  0  0  0
  185.1600  178.5170  146.9030 O   0  0  0  0  0  0  0  0  0  0  0  0
  190.9760  177.3680  147.1750 Cl  0  0  0  0  0  0  0  0  0  0  0  0
  185.5870  179.4350  142.5830 O   0  0  0  0  0  0  0  0  0  0  0  0
  185.0470  178.0610  144.5060 C   0  0  2  0  0  3  0  0  0  0  0  0
  188.2380  176.8760  143.0150 C   0  0  0  0  0  3  0  0  0  0  0  0
  188.5900  178.1850  148.2210 C   0  0  0  0  0  3  0  0  0  0  0  0
  186.6960  178.6190  142.3170 C   0  0  0  0  0  0  0  0  0  0  0  0
  187.3330  178.6840  141.0750 C   0  0  0  0  0  3  0  0  0  0  0  0
  184.3520  177.9650  145.8700 C   0  0  0  0  0  2  0  0  0  0  0  0
  186.5240  178.2490  146.9610 C   0  0  0  0  0  0  0  0  0  0  0  0
  187.2220  178.4570  148.1540 C   0  0  0  0  0  3  0  0  0  0  0  0
  183.5050  179.9050  143.7140 C   0  0  0  0  0  2  0  0  0  0  0  0
  181.4500  178.5860  144.2390 C   0  0  0  0  0  1  0  0  0  0  0  0
  182.6310  178.7290  143.2980 C   0  0  1  0  0  3  0  0  0  0  0  0
  180.7750  178.9580  139.5410 C   0  0  1  0  0  3  0  0  0  0  0  0
  181.0100  179.7020  141.6440 C   0  0  0  0  0  2  0  0  0  0  0  0
  183.8230  177.5050  140.9380 O   0  0  0  0  0  0  0  0  0  0  0  0
  179.7780  178.5710  138.4690 C   0  0  0  0  0  1  0  0  0  0  0  0
  180.1290  179.0180  140.7890 O   0  0  0  0  0  0  0  0  0  0  0  0
  182.7200  178.1000  140.8240 C   0  0  0  0  0  0  0  0  0  0  0  0
  182.1800  178.8720  141.9130 N   0  0  0  0  0  0  0  0  0  0  0  0
  181.9150  177.9360  139.5720 C   0  0  0  0  0  2  0  0  0  0  0  0
  1 14  1  0  0  0  0
  2  3  1  0  0  0  0
  3  7  2  0  0  0  0
  3 19  1  0  0  0  0
  4 11  1  0  0  0  0
  4 15  2  0  0  0  0
  5  2  1  0  0  0  0
  6 17  1  0  0  0  0
  6  1  2  0  0  0  0
  7  4  1  0  0  0  0
  8 21  1  6  0  0  0
  8 13  1  0  0  0  0
  9  1  1  0  0  0  0
 10 19  1  0  0  0  0
 12  8  1  0  0  0  0
 13  2  1  0  0  0  0
 13 18  1  1  0  0  0
 14  5  2  0  0  0  0
 16 12  1  0  0  0  0
 16  5  1  0  0  0  0
 17 16  2  0  0  0  0
 18 10  1  0  0  0  0
 19 20  2  0  0  0  0
 20 15  1  0  0  0  0
 23 21  1  0  0  0  0
 23 22  1  1  0  0  0
 24 27  1  6  0  0  0
 24 31  1  0  0  0  0
 24 28  1  0  0  0  0
 25 30  1  0  0  0  0
 28 25  1  0  0  0  0
 29 26  2  0  0  0  0
 29 30  1  0  0  0  0
 30 23  1  0  0  0  0
 31 29  1  0  0  0  0
M  END
>  <MODEL>
2

>  <REMARK>
 VINA RESULT:      -8.1      3.145      7.443
  Name = 
  3 active torsions:
  status: ('A' for Active; 'I' for Inactive)
    1  A    between atoms: C_5  and  C_16
    2  A    between atoms: C_5  and  N_30
    3  A    between atoms: C_10  and  C_16
                            x       y       z     vdW  Elec       q    Type
                         _______ _______ _______ _____ _____    ______ ____

>  <TORSDO>
F 3

$$$$
=
 OpenBabel11122410563D

 31 35  0  0  1  0  0  0  0  0999 V2000
  190.0280  176.6840  136.0020 C   0  0  0  0  0  0  0  0  0  0  0  0
  188.6320  178.1420  139.1720 N   0  0  0  0  0  0  0  0  0  0  0  0
  187.1850  178.1830  139.0910 C   0  0  0  0  0  0  0  0  0  0  0  0
  185.1040  177.8030  137.8890 C   0  0  0  0  0  0  0  0  0  0  0  0
  189.4080  177.3520  138.2500 C   0  0  0  0  0  0  0  0  0  0  0  0
  190.9670  175.7880  136.5250 C   0  0  0  0  0  3  0  0  0  0  0  0
  186.5000  177.8300  137.9170 C   0  0  0  0  0  3  0  0  0  0  0  0
  189.7280  177.0950  141.0800 C   0  0  2  0  0  3  0  0  0  0  0  0
  189.8630  176.8000  134.5940 N   0  0  0  0  0  1  0  0  0  0  0  0
  187.1010  178.8640  141.4120 O   0  0  0  0  0  0  0  0  0  0  0  0
  184.2680  177.3630  136.4170 Cl  0  0  0  0  0  0  0  0  0  0  0  0
  190.5460  176.3640  140.1590 O   0  0  0  0  0  0  0  0  0  0  0  0
  189.3040  178.4260  140.4520 C   0  0  2  0  0  3  0  0  0  0  0  0
  189.2520  177.4680  136.8620 C   0  0  0  0  0  3  0  0  0  0  0  0
  184.3760  178.1110  139.0400 C   0  0  0  0  0  3  0  0  0  0  0  0
  190.3610  176.4550  138.7710 C   0  0  0  0  0  0  0  0  0  0  0  0
  191.1350  175.6760  137.9080 C   0  0  0  0  0  3  0  0  0  0  0  0
  188.4540  179.2990  141.3830 C   0  0  0  0  0  2  0  0  0  0  0  0
  186.4410  178.5080  140.2390 C   0  0  0  0  0  0  0  0  0  0  0  0
  185.0440  178.4610  140.2150 C   0  0  0  0  0  3  0  0  0  0  0  0
  190.4810  177.2960  142.3860 C   0  0  0  0  0  2  0  0  0  0  0  0
  191.1120  175.3800  143.8610 C   0  0  0  0  0  1  0  0  0  0  0  0
  189.9850  176.3000  143.4270 C   0  0  1  0  0  3  0  0  0  0  0  0
  188.5950  177.8360  147.0760 C   0  0  1  0  0  3  0  0  0  0  0  0
  190.2830  177.3990  145.6660 C   0  0  0  0  0  2  0  0  0  0  0  0
  187.1750  176.9600  143.8250 O   0  0  0  0  0  0  0  0  0  0  0  0
  188.1360  177.7650  148.5180 C   0  0  0  0  0  1  0  0  0  0  0  0
  189.7260  177.0190  146.8980 O   0  0  0  0  0  0  0  0  0  0  0  0
  187.9820  177.1270  144.7770 C   0  0  0  0  0  0  0  0  0  0  0  0
  189.4000  176.9880  144.5780 N   0  0  0  0  0  0  0  0  0  0  0  0
  187.4560  177.3880  146.1550 C   0  0  0  0  0  2  0  0  0  0  0  0
  1  6  2  0  0  0  0
  1 14  1  0  0  0  0
  2 13  1  0  0  0  0
  3  2  1  0  0  0  0
  3 19  1  0  0  0  0
  4  7  1  0  0  0  0
  4 15  2  0  0  0  0
  5 16  1  0  0  0  0
  5  2  1  0  0  0  0
  6 17  1  0  0  0  0
  7  3  2  0  0  0  0
  8 21  1  1  0  0  0
  9  1  1  0  0  0  0
 11  4  1  0  0  0  0
 12  8  1  0  0  0  0
 13  8  1  0  0  0  0
 13 18  1  1  0  0  0
 14  5  2  0  0  0  0
 15 20  1  0  0  0  0
 16 12  1  0  0  0  0
 17 16  2  0  0  0  0
 18 10  1  0  0  0  0
 19 10  1  0  0  0  0
 20 19  2  0  0  0  0
 21 23  1  0  0  0  0
 23 22  1  1  0  0  0
 23 30  1  0  0  0  0
 24 27  1  1  0  0  0
 25 28  1  0  0  0  0
 26 29  2  0  0  0  0
 28 24  1  0  0  0  0
 29 31  1  0  0  0  0
 30 29  1  0  0  0  0
 30 25  1  0  0  0  0
 31 24  1  0  0  0  0
M  END
>  <MODEL>
3

>  <REMARK>
 VINA RESULT:      -7.9      2.482      4.117
  Name = 
  3 active torsions:
  status: ('A' for Active; 'I' for Inactive)
    1  A    between atoms: C_5  and  C_16
    2  A    between atoms: C_5  and  N_30
    3  A    between atoms: C_10  and  C_16
                            x       y       z     vdW  Elec       q    Type
                         _______ _______ _______ _____ _____    ______ ____

>  <TORSDO>
F 3

$$$$
=
 OpenBabel11122410563D

 31 35  0  0  1  0  0  0  0  0999 V2000
  189.1400  177.7510  137.2840 C   0  0  0  0  0  0  0  0  0  0  0  0
  186.9810  178.5870  140.2440 N   0  0  0  0  0  0  0  0  0  0  0  0
  185.5870  178.3950  139.8980 C   0  0  0  0  0  0  0  0  0  0  0  0
  183.8460  177.8100  138.3010 C   0  0  0  0  0  0  0  0  0  0  0  0
  188.0350  178.0480  139.4230 C   0  0  0  0  0  0  0  0  0  0  0  0
  190.1250  176.9720  137.8980 C   0  0  0  0  0  3  0  0  0  0  0  0
  185.1880  178.0670  138.5920 C   0  0  0  0  0  3  0  0  0  0  0  0
  187.9130  177.5290  142.2320 C   0  0  2  0  0  3  0  0  0  0  0  0
  189.1970  177.9960  135.8840 N   0  0  0  0  0  1  0  0  0  0  0  0
  184.9850  178.7840  142.2090 O   0  0  0  0  0  0  0  0  0  0  0  0
  183.3690  177.4050  136.6680 Cl  0  0  0  0  0  0  0  0  0  0  0  0
  188.9950  177.0540  141.4240 O   0  0  0  0  0  0  0  0  0  0  0  0
  187.3620  178.8320  141.6460 C   0  0  2  0  0  3  0  0  0  0  0  0
  188.0980  178.2910  138.0440 C   0  0  0  0  0  3  0  0  0  0  0  0
  182.8890  177.8590  139.3160 C   0  0  0  0  0  3  0  0  0  0  0  0
  189.0340  177.2690  140.0390 C   0  0  0  0  0  0  0  0  0  0  0  0
  190.0740  176.7330  139.2750 C   0  0  0  0  0  3  0  0  0  0  0  0
  186.2200  179.4410  142.4700 C   0  0  0  0  0  2  0  0  0  0  0  0
  184.6120  178.4590  140.9090 C   0  0  0  0  0  0  0  0  0  0  0  0
  183.2720  178.1810  140.6210 C   0  0  0  0  0  3  0  0  0  0  0  0
  188.3820  177.7040  143.6690 C   0  0  0  0  0  2  0  0  0  0  0  0
  190.3700  179.2070  143.8440 C   0  0  0  0  0  1  0  0  0  0  0  0
  189.9030  177.7690  143.7110 C   0  0  1  0  0  3  0  0  0  0  0  0
  191.6460  175.9450  147.0640 C   0  0  1  0  0  3  0  0  0  0  0  0
  190.1010  177.3040  146.1720 C   0  0  0  0  0  2  0  0  0  0  0  0
  191.6170  175.4270  143.4470 O   0  0  0  0  0  0  0  0  0  0  0  0
  192.6600  175.7870  148.1780 C   0  0  0  0  0  1  0  0  0  0  0  0
  191.2630  177.2950  146.9610 O   0  0  0  0  0  0  0  0  0  0  0  0
  191.4110  175.9070  144.5930 C   0  0  0  0  0  0  0  0  0  0  0  0
  190.4350  176.9450  144.7970 N   0  0  0  0  0  0  0  0  0  0  0  0
  192.2520  175.4530  145.7470 C   0  0  0  0  0  2  0  0  0  0  0  0
  1  6  2  0  0  0  0
  1 14  1  0  0  0  0
  2 13  1  0  0  0  0
  3  2  1  0  0  0  0
  3 19  1  0  0  0  0
  4  7  1  0  0  0  0
  4 15  2  0  0  0  0
  5 16  1  0  0  0  0
  5  2  1  0  0  0  0
  6 17  1  0  0  0  0
  7  3  2  0  0  0  0
  8 21  1  1  0  0  0
  9  1  1  0  0  0  0
 10 18  1  0  0  0  0
 11  4  1  0  0  0  0
 12  8  1  0  0  0  0
 13  8  1  0  0  0  0
 13 18  1  1  0  0  0
 14  5  2  0  0  0  0
 15 20  1  0  0  0  0
 16 12  1  0  0  0  0
 17 16  2  0  0  0  0
 19 10  1  0  0  0  0
 20 19  2  0  0  0  0
 21 23  1  0  0  0  0
 23 22  1  1  0  0  0
 23 30  1  0  0  0  0
 24 27  1  1  0  0  0
 25 28  1  0  0  0  0
 26 29  2  0  0  0  0
 28 24  1  0  0  0  0
 29 30  1  0  0  0  0
 29 31  1  0  0  0  0
 30 25  1  0  0  0  0
 31 24  1  0  0  0  0
M  END
>  <MODEL>
4

>  <REMARK>
 VINA RESULT:      -7.7      1.910      2.613
  Name = 
  3 active torsions:
  status: ('A' for Active; 'I' for Inactive)
    1  A    between atoms: C_5  and  C_16
    2  A    between atoms: C_5  and  N_30
    3  A    between atoms: C_10  and  C_16
                            x       y       z     vdW  Elec       q    Type
                         _______ _______ _______ _____ _____    ______ ____

>  <TORSDO>
F 3

$$$$
=
 OpenBabel11122410563D

 31 35  0  0  1  0  0  0  0  0999 V2000
  189.9040  176.1310  142.6450 C   0  0  0  0  0  0  0  0  0  0  0  0
  186.4990  177.5330  143.3980 N   0  0  0  0  0  0  0  0  0  0  0  0
  186.4470  177.9660  144.7800 C   0  0  0  0  0  0  0  0  0  0  0  0
  187.4720  178.2370  146.9710 C   0  0  0  0  0  0  0  0  0  0  0  0
  187.7550  177.2530  142.7510 C   0  0  0  0  0  0  0  0  0  0  0  0
  190.1710  176.7530  141.4210 C   0  0  0  0  0  3  0  0  0  0  0  0
  187.5140  177.7410  145.6660 C   0  0  0  0  0  3  0  0  0  0  0  0
  185.8510  179.0530  141.6070 C   0  0  2  0  0  3  0  0  0  0  0  0
  190.8600  175.2470  143.2170 N   0  0  0  0  0  1  0  0  0  0  0  0
  184.2690  178.9340  144.3690 O   0  0  0  0  0  0  0  0  0  0  0  0
  188.8090  177.9430  148.0600 Cl  0  0  0  0  0  0  0  0  0  0  0  0
  187.0700  178.7180  140.9350 O   0  0  0  0  0  0  0  0  0  0  0  0
  185.4010  177.8780  142.4800 C   0  0  2  0  0  3  0  0  0  0  0  0
  188.6980  176.3780  143.3080 C   0  0  0  0  0  3  0  0  0  0  0  0
  186.3710  178.9810  147.4010 C   0  0  0  0  0  3  0  0  0  0  0  0
  188.0260  177.8700  141.5130 C   0  0  0  0  0  0  0  0  0  0  0  0
  189.2320  177.6190  140.8540 C   0  0  0  0  0  3  0  0  0  0  0  0
  184.0770  178.1300  143.2120 C   0  0  0  0  0  2  0  0  0  0  0  0
  185.3360  178.7020  145.2300 C   0  0  0  0  0  0  0  0  0  0  0  0
  185.3050  179.2160  146.5300 C   0  0  0  0  0  3  0  0  0  0  0  0
  184.7920  179.4440  140.5870 C   0  0  0  0  0  2  0  0  0  0  0  0
  182.3960  178.7880  140.3210 C   0  0  0  0  0  1  0  0  0  0  0  0
  183.8270  178.2850  140.3740 C   0  0  1  0  0  3  0  0  0  0  0  0
  184.6690  176.6740  136.5920 C   0  0  1  0  0  3  0  0  0  0  0  0
  185.1690  178.0880  138.2590 C   0  0  0  0  0  2  0  0  0  0  0  0
  182.6800  175.7480  139.5140 O   0  0  0  0  0  0  0  0  0  0  0  0
  184.5280  176.5320  135.0910 C   0  0  0  0  0  1  0  0  0  0  0  0
  184.6980  178.0380  136.9370 O   0  0  0  0  0  0  0  0  0  0  0  0
  183.4310  176.3770  138.7230 C   0  0  0  0  0  0  0  0  0  0  0  0
  184.1620  177.5370  139.1620 N   0  0  0  0  0  0  0  0  0  0  0  0
  183.5000  175.9680  137.2840 C   0  0  0  0  0  2  0  0  0  0  0  0
  1  9  1  0  0  0  0
  1 14  1  0  0  0  0
  2  3  1  0  0  0  0
  3 19  2  0  0  0  0
  3  7  1  0  0  0  0
  4 15  1  0  0  0  0
  4 11  1  0  0  0  0
  5 14  2  0  0  0  0
  5  2  1  0  0  0  0
  6  1  2  0  0  0  0
  7  4  2  0  0  0  0
  8 21  1  6  0  0  0
  8 13  1  0  0  0  0
 10 19  1  0  0  0  0
 12 16  1  0  0  0  0
 12  8  1  0  0  0  0
 13 18  1  1  0  0  0
 13  2  1  0  0  0  0
 16  5  1  0  0  0  0
 17  6  1  0  0  0  0
 17 16  2  0  0  0  0
 18 10  1  0  0  0  0
 19 20  1  0  0  0  0
 20 15  2  0  0  0  0
 23 22  1  6  0  0  0
 23 21  1  0  0  0  0
 24 27  1  6  0  0  0
 24 28  1  0  0  0  0
 24 31  1  0  0  0  0
 25 30  1  0  0  0  0
 28 25  1  0  0  0  0
 29 30  1  0  0  0  0
 29 26  2  0  0  0  0
 30 23  1  0  0  0  0
 31 29  1  0  0  0  0
M  END
>  <MODEL>
5

>  <REMARK>
 VINA RESULT:      -7.6      3.430      7.313
  Name = 
  3 active torsions:
  status: ('A' for Active; 'I' for Inactive)
    1  A    between atoms: C_5  and  C_16
    2  A    between atoms: C_5  and  N_30
    3  A    between atoms: C_10  and  C_16
                            x       y       z     vdW  Elec       q    Type
                         _______ _______ _______ _____ _____    ______ ____

>  <TORSDO>
F 3

$$$$
=
 OpenBabel11122410563D

 31 35  0  0  1  0  0  0  0  0999 V2000
  185.1070  178.8140  144.2850 C   0  0  0  0  0  0  0  0  0  0  0  0
  188.8260  178.3360  144.0160 N   0  0  0  0  0  0  0  0  0  0  0  0
  189.3260  177.7250  145.2320 C   0  0  0  0  0  0  0  0  0  0  0  0
  188.9800  176.8370  147.4710 C   0  0  0  0  0  0  0  0  0  0  0  0
  187.4180  178.3460  143.7100 C   0  0  0  0  0  0  0  0  0  0  0  0
  184.6980  178.3420  143.0340 C   0  0  0  0  0  3  0  0  0  0  0  0
  188.4940  177.4980  146.3410 C   0  0  0  0  0  3  0  0  0  0  0  0
  189.3470  177.3610  141.8440 C   0  0  2  0  0  3  0  0  0  0  0  0
  184.1430  179.2910  145.2160 N   0  0  0  0  0  1  0  0  0  0  0  0
  191.4970  177.4910  144.1910 O   0  0  0  0  0  0  0  0  0  0  0  0
  187.9310  176.5660  148.8440 Cl  0  0  0  0  0  0  0  0  0  0  0  0
  187.9550  177.4380  141.5190 O   0  0  0  0  0  0  0  0  0  0  0  0
  189.7070  178.4650  142.8440 C   0  0  2  0  0  3  0  0  0  0  0  0
  186.4640  178.8200  144.6230 C   0  0  0  0  0  3  0  0  0  0  0  0
  190.2990  176.3780  147.4990 C   0  0  0  0  0  3  0  0  0  0  0  0
  187.0010  177.8780  142.4490 C   0  0  0  0  0  0  0  0  0  0  0  0
  185.6440  177.8770  142.1150 C   0  0  0  0  0  3  0  0  0  0  0  0
  191.1930  178.4880  143.2220 C   0  0  0  0  0  2  0  0  0  0  0  0
  190.6570  177.2740  145.2780 C   0  0  0  0  0  0  0  0  0  0  0  0
  191.1360  176.5940  146.4020 C   0  0  0  0  0  3  0  0  0  0  0  0
  190.1770  177.4510  140.5730 C   0  0  0  0  0  2  0  0  0  0  0  0
  189.0560  178.6860  138.7140 C   0  0  0  0  0  1  0  0  0  0  0  0
  189.2710  177.3280  139.3550 C   0  0  1  0  0  3  0  0  0  0  0  0
  191.2000  175.0700  136.3900 C   0  0  1  0  0  3  0  0  0  0  0  0
  191.2630  176.1880  138.3330 C   0  0  0  0  0  2  0  0  0  0  0  0
  187.7640  175.7150  137.4530 O   0  0  0  0  0  0  0  0  0  0  0  0
  191.9060  174.8430  135.0690 C   0  0  0  0  0  1  0  0  0  0  0  0
  191.6990  176.2370  136.9980 O   0  0  0  0  0  0  0  0  0  0  0  0
  189.0200  175.7430  137.3680 C   0  0  0  0  0  0  0  0  0  0  0  0
  189.8160  176.3750  138.3870 N   0  0  0  0  0  0  0  0  0  0  0  0
  189.6930  175.1880  136.1500 C   0  0  0  0  0  2  0  0  0  0  0  0
  1 14  1  0  0  0  0
  1  9  1  0  0  0  0
  2  3  1  0  0  0  0
  3 19  2  0  0  0  0
  3  7  1  0  0  0  0
  4 15  1  0  0  0  0
  4 11  1  0  0  0  0
  5  2  1  0  0  0  0
  5 14  2  0  0  0  0
  6  1  2  0  0  0  0
  7  4  2  0  0  0  0
  8 21  1  6  0  0  0
  8 13  1  0  0  0  0
 10 19  1  0  0  0  0
 12  8  1  0  0  0  0
 12 16  1  0  0  0  0
 13 18  1  1  0  0  0
 13  2  1  0  0  0  0
 16  5  1  0  0  0  0
 17 16  2  0  0  0  0
 17  6  1  0  0  0  0
 18 10  1  0  0  0  0
 19 20  1  0  0  0  0
 20 15  2  0  0  0  0
 23 22  1  6  0  0  0
 23 21  1  0  0  0  0
 24 27  1  6  0  0  0
 24 28  1  0  0  0  0
 25 30  1  0  0  0  0
 28 25  1  0  0  0  0
 29 26  2  0  0  0  0
 29 30  1  0  0  0  0
 30 23  1  0  0  0  0
 31 24  1  0  0  0  0
 31 29  1  0  0  0  0
M  END
>  <MODEL>
6

>  <REMARK>
 VINA RESULT:      -7.6      3.705      7.805
  Name = 
  3 active torsions:
  status: ('A' for Active; 'I' for Inactive)
    1  A    between atoms: C_5  and  C_16
    2  A    between atoms: C_5  and  N_30
    3  A    between atoms: C_10  and  C_16
                            x       y       z     vdW  Elec       q    Type
                         _______ _______ _______ _____ _____    ______ ____

>  <TORSDO>
F 3

$$$$
=
 OpenBabel11122410563D

 31 35  0  0  1  0  0  0  0  0999 V2000
  185.6150  178.7440  139.1560 C   0  0  0  0  0  0  0  0  0  0  0  0
  189.1320  177.8420  140.1270 N   0  0  0  0  0  0  0  0  0  0  0  0
  189.1640  177.4420  141.5200 C   0  0  0  0  0  0  0  0  0  0  0  0
  188.0620  177.0670  143.6570 C   0  0  0  0  0  0  0  0  0  0  0  0
  187.8890  177.9340  139.4050 C   0  0  0  0  0  0  0  0  0  0  0  0
  185.5080  178.0720  137.9340 C   0  0  0  0  0  3  0  0  0  0  0  0
  188.0270  177.5310  142.3400 C   0  0  0  0  0  3  0  0  0  0  0  0
  190.0860  176.3990  138.4100 C   0  0  2  0  0  3  0  0  0  0  0  0
  184.5150  179.4950  139.6530 N   0  0  0  0  0  1  0  0  0  0  0  0
  191.4760  176.7810  141.2510 O   0  0  0  0  0  0  0  0  0  0  0  0
  186.6370  177.1880  144.6640 Cl  0  0  0  0  0  0  0  0  0  0  0  0
  188.8730  176.5510  137.6640 O   0  0  0  0  0  0  0  0  0  0  0  0
  190.3190  177.6400  139.2780 C   0  0  2  0  0  3  0  0  0  0  0  0
  186.8040  178.6790  139.8890 C   0  0  0  0  0  3  0  0  0  0  0  0
  189.2280  176.4900  144.1640 C   0  0  0  0  0  3  0  0  0  0  0  0
  187.7780  177.2660  138.1700 C   0  0  0  0  0  0  0  0  0  0  0  0
  186.5880  177.3360  137.4400 C   0  0  0  0  0  3  0  0  0  0  0  0
  191.6210  177.5860  140.0880 C   0  0  0  0  0  2  0  0  0  0  0  0
  190.3380  176.8760  142.0460 C   0  0  0  0  0  0  0  0  0  0  0  0
  190.3650  176.3920  143.3580 C   0  0  0  0  0  3  0  0  0  0  0  0
  191.2460  176.1440  137.4590 C   0  0  0  0  0  2  0  0  0  0  0  0
  190.7480  173.7330  137.0340 C   0  0  0  0  0  1  0  0  0  0  0  0
  191.7430  174.7140  137.6240 C   0  0  1  0  0  3  0  0  0  0  0  0
  195.4030  173.6100  135.8920 C   0  0  1  0  0  3  0  0  0  0  0  0
  193.1700  173.7790  135.7780 C   0  0  0  0  0  2  0  0  0  0  0  0
  194.2750  175.7420  138.6370 O   0  0  0  0  0  0  0  0  0  0  0  0
  196.5900  172.7060  135.6340 C   0  0  0  0  0  1  0  0  0  0  0  0
  194.2190  172.8510  135.8810 O   0  0  0  0  0  0  0  0  0  0  0  0
  194.2870  174.9380  137.6680 C   0  0  0  0  0  0  0  0  0  0  0  0
  193.0650  174.5440  137.0180 N   0  0  0  0  0  0  0  0  0  0  0  0
  195.5800  174.3140  137.2400 C   0  0  0  0  0  2  0  0  0  0  0  0
  1  9  1  0  0  0  0
  1 14  1  0  0  0  0
  2  3  1  0  0  0  0
  3 19  2  0  0  0  0
  3  7  1  0  0  0  0
  4 15  1  0  0  0  0
  4 11  1  0  0  0  0
  5 14  2  0  0  0  0
  5  2  1  0  0  0  0
  6  1  2  0  0  0  0
  7  4  2  0  0  0  0
  8 21  1  6  0  0  0
  8 13  1  0  0  0  0
 10 19  1  0  0  0  0
 12 16  1  0  0  0  0
 12  8  1  0  0  0  0
 13 18  1  1  0  0  0
 13  2  1  0  0  0  0
 16  5  1  0  0  0  0
 17  6  1  0  0  0  0
 17 16  2  0  0  0  0
 18 10  1  0  0  0  0
 19 20  1  0  0  0  0
 20 15  2  0  0  0  0
 21 23  1  0  0  0  0
 23 22  1  6  0  0  0
 24 27  1  1  0  0  0
 24 31  1  0  0  0  0
 25 28  1  0  0  0  0
 25 30  1  0  0  0  0
 28 24  1  0  0  0  0
 29 26  2  0  0  0  0
 30 23  1  0  0  0  0
 30 29  1  0  0  0  0
 31 29  1  0  0  0  0
M  END
>  <MODEL>
7

>  <REMARK>
 VINA RESULT:      -7.4      5.053      8.231
  Name = 
  3 active torsions:
  status: ('A' for Active; 'I' for Inactive)
    1  A    between atoms: C_5  and  C_16
    2  A    between atoms: C_5  and  N_30
    3  A    between atoms: C_10  and  C_16
                            x       y       z     vdW  Elec       q    Type
                         _______ _______ _______ _____ _____    ______ ____

>  <TORSDO>
F 3

$$$$
=
 OpenBabel11122410563D

 31 35  0  0  1  0  0  0  0  0999 V2000
  183.9210  178.7770  143.0730 C   0  0  0  0  0  0  0  0  0  0  0  0
  183.2750  178.2090  139.4140 N   0  0  0  0  0  0  0  0  0  0  0  0
  182.0840  178.9320  139.0130 C   0  0  0  0  0  0  0  0  0  0  0  0
  180.1860  180.3660  139.5250 C   0  0  0  0  0  0  0  0  0  0  0  0
  183.9350  178.4920  140.6630 C   0  0  0  0  0  0  0  0  0  0  0  0
  185.2940  179.0400  143.0520 C   0  0  0  0  0  3  0  0  0  0  0  0
  181.2840  179.6120  139.9450 C   0  0  0  0  0  3  0  0  0  0  0  0
  185.3600  178.4940  138.1850 C   0  0  2  0  0  3  0  0  0  0  0  0
  183.2130  178.7900  144.3070 N   0  0  0  0  0  1  0  0  0  0  0  0
  182.5410  178.3550  136.7080 O   0  0  0  0  0  0  0  0  0  0  0  0
  179.1990  181.2040  140.7010 Cl  0  0  0  0  0  0  0  0  0  0  0  0
  186.0230  178.7060  139.4360 O   0  0  0  0  0  0  0  0  0  0  0  0
  184.1380  177.5930  138.3920 C   0  0  2  0  0  3  0  0  0  0  0  0
  183.2410  178.5000  141.8820 C   0  0  0  0  0  3  0  0  0  0  0  0
  179.8860  180.4640  138.1650 C   0  0  0  0  0  3  0  0  0  0  0  0
  185.3190  178.7500  140.6480 C   0  0  0  0  0  0  0  0  0  0  0  0
  185.9940  179.0240  141.8410 C   0  0  0  0  0  3  0  0  0  0  0  0
  183.3830  177.2760  137.0950 C   0  0  0  0  0  2  0  0  0  0  0  0
  181.7620  179.0230  137.6480 C   0  0  0  0  0  0  0  0  0  0  0  0
  180.6750  179.7950  137.2260 C   0  0  0  0  0  3  0  0  0  0  0  0
  186.3370  177.9060  137.1780 C   0  0  0  0  0  2  0  0  0  0  0  0
  186.6910  175.4370  137.0290 C   0  0  0  0  0  1  0  0  0  0  0  0
  187.0450  176.7030  137.7880 C   0  0  1  0  0  3  0  0  0  0  0  0
  191.2360  176.7290  137.5730 C   0  0  1  0  0  3  0  0  0  0  0  0
  189.2360  176.8160  136.5630 C   0  0  0  0  0  2  0  0  0  0  0  0
  188.6830  177.2680  140.1310 O   0  0  0  0  0  0  0  0  0  0  0  0
  192.6190  176.1130  137.5300 C   0  0  0  0  0  1  0  0  0  0  0  0
  190.3680  176.0030  136.7380 O   0  0  0  0  0  0  0  0  0  0  0  0
  189.2510  177.0120  139.0370 C   0  0  0  0  0  0  0  0  0  0  0  0
  188.4940  176.9050  137.8180 N   0  0  0  0  0  0  0  0  0  0  0  0
  190.7220  176.7290  139.0160 C   0  0  0  0  0  2  0  0  0  0  0  0
  1  9  1  0  0  0  0
  2  5  1  0  0  0  0
  3  2  1  0  0  0  0
  3  7  1  0  0  0  0
  4  7  2  0  0  0  0
  4 11  1  0  0  0  0
  5 14  1  0  0  0  0
  6  1  1  0  0  0  0
  8 21  1  6  0  0  0
  8 13  1  0  0  0  0
  8 12  1  0  0  0  0
 10 18  1  0  0  0  0
 10 19  1  0  0  0  0
 12 16  1  0  0  0  0
 13 18  1  6  0  0  0
 13  2  1  0  0  0  0
 14  1  2  0  0  0  0
 15  4  1  0  0  0  0
 16  5  2  0  0  0  0
 16 17  1  0  0  0  0
 17  6  2  0  0  0  0
 19  3  2  0  0  0  0
 20 19  1  0  0  0  0
 20 15  2  0  0  0  0
 21 23  1  0  0  0  0
 23 22  1  6  0  0  0
 23 30  1  0  0  0  0
 24 27  1  1  0  0  0
 24 31  1  0  0  0  0
 25 28  1  0  0  0  0
 25 30  1  0  0  0  0
 28 24  1  0  0  0  0
 29 26  2  0  0  0  0
 30 29  1  0  0  0  0
 31 29  1  0  0  0  0
M  END
>  <MODEL>
8

>  <REMARK>
 VINA RESULT:      -7.2      4.324      6.886
  Name = 
  3 active torsions:
  status: ('A' for Active; 'I' for Inactive)
    1  A    between atoms: C_5  and  C_16
    2  A    between atoms: C_5  and  N_30
    3  A    between atoms: C_10  and  C_16
                            x       y       z     vdW  Elec       q    Type
                         _______ _______ _______ _____ _____    ______ ____

>  <TORSDO>
F 3

$$$$
=
 OpenBabel11122410563D

 31 35  0  0  1  0  0  0  0  0999 V2000
  192.9830  175.9100  136.7750 C   0  0  0  0  0  0  0  0  0  0  0  0
  189.3800  176.7330  137.4590 N   0  0  0  0  0  0  0  0  0  0  0  0
  188.5300  175.7160  136.8720 C   0  0  0  0  0  0  0  0  0  0  0  0
  188.2240  173.6730  135.5860 C   0  0  0  0  0  0  0  0  0  0  0  0
  190.7940  176.5160  137.6290 C   0  0  0  0  0  0  0  0  0  0  0  0
  193.5390  176.1270  138.0400 C   0  0  0  0  0  3  0  0  0  0  0  0
  189.0540  174.6850  136.0750 C   0  0  0  0  0  3  0  0  0  0  0  0
  189.1340  177.3360  139.8070 C   0  0  2  0  0  3  0  0  0  0  0  0
  193.8100  175.4890  135.6970 N   0  0  0  0  0  1  0  0  0  0  0  0
  186.6160  176.7270  137.9540 O   0  0  0  0  0  0  0  0  0  0  0  0
  188.8950  172.3980  134.5940 Cl  0  0  0  0  0  0  0  0  0  0  0  0
  190.5500  177.1860  139.9540 O   0  0  0  0  0  0  0  0  0  0  0  0
  188.8010  177.7380  138.3670 C   0  0  2  0  0  3  0  0  0  0  0  0
  191.6140  176.1060  136.5680 C   0  0  0  0  0  3  0  0  0  0  0  0
  186.8640  173.6700  135.9010 C   0  0  0  0  0  3  0  0  0  0  0  0
  191.3600  176.7410  138.8990 C   0  0  0  0  0  0  0  0  0  0  0  0
  192.7290  176.5450  139.1000 C   0  0  0  0  0  3  0  0  0  0  0  0
  187.3040  177.9610  138.1230 C   0  0  0  0  0  2  0  0  0  0  0  0
  187.1560  175.7130  137.1690 C   0  0  0  0  0  0  0  0  0  0  0  0
  186.3300  174.6880  136.6950 C   0  0  0  0  0  3  0  0  0  0  0  0
  188.6180  178.3510  140.8160 C   0  0  0  0  0  2  0  0  0  0  0  0
  189.7410  178.6100  143.0320 C   0  0  0  0  0  1  0  0  0  0  0  0
  188.7490  177.7920  142.2260 C   0  0  1  0  0  3  0  0  0  0  0  0
  184.9830  178.2600  144.0160 C   0  0  1  0  0  3  0  0  0  0  0  0
  186.2800  178.2570  142.1870 C   0  0  0  0  0  2  0  0  0  0  0  0
  188.1970  176.7600  144.8950 O   0  0  0  0  0  0  0  0  0  0  0  0
  183.8900  179.0030  144.7580 C   0  0  0  0  0  1  0  0  0  0  0  0
  185.5450  179.0990  143.0370 O   0  0  0  0  0  0  0  0  0  0  0  0
  187.2860  177.3720  144.2770 C   0  0  0  0  0  0  0  0  0  0  0  0
  187.4480  177.7410  142.8950 N   0  0  0  0  0  0  0  0  0  0  0  0
  186.0520  177.8000  145.0110 C   0  0  0  0  0  2  0  0  0  0  0  0
  1  6  1  0  0  0  0
  2  5  1  0  0  0  0
  2 13  1  0  0  0  0
  3 19  1  0  0  0  0
  3  2  1  0  0  0  0
  4 15  2  0  0  0  0
  4  7  1  0  0  0  0
  5 16  2  0  0  0  0
  6 17  2  0  0  0  0
  7  3  2  0  0  0  0
  8 12  1  0  0  0  0
  8 21  1  1  0  0  0
  9  1  1  0  0  0  0
 10 18  1  0  0  0  0
 11  4  1  0  0  0  0
 13 18  1  1  0  0  0
 13  8  1  0  0  0  0
 14  1  2  0  0  0  0
 14  5  1  0  0  0  0
 15 20  1  0  0  0  0
 16 17  1  0  0  0  0
 16 12  1  0  0  0  0
 19 10  1  0  0  0  0
 20 19  2  0  0  0  0
 21 23  1  0  0  0  0
 23 30  1  0  0  0  0
 23 22  1  1  0  0  0
 24 27  1  1  0  0  0
 24 31  1  0  0  0  0
 25 30  1  0  0  0  0
 25 28  1  0  0  0  0
 28 24  1  0  0  0  0
 29 26  2  0  0  0  0
 29 31  1  0  0  0  0
 30 29  1  0  0  0  0
M  END
>  <MODEL>
9

>  <REMARK>
 VINA RESULT:      -7.1      4.028      6.501
  Name = 
  3 active torsions:
  status: ('A' for Active; 'I' for Inactive)
    1  A    between atoms: C_5  and  C_16
    2  A    between atoms: C_5  and  N_30
    3  A    between atoms: C_10  and  C_16
                            x       y       z     vdW  Elec       q    Type
                         _______ _______ _______ _____ _____    ______ ____

>  <TORSDO>
F 3

$$$$
