=
 OpenBabel11122411023D

 31 35  0  0  1  0  0  0  0  0999 V2000
  186.2860  172.4680  135.6440 C   0  0  0  0  0  0  0  0  0  0  0  0
  186.7120  176.2310  136.0290 C   0  0  2  0  0  3  0  0  0  0  0  0
  185.6660  176.6750  137.0440 C   0  0  0  0  0  0  0  0  0  0  0  0
  183.5970  176.2970  138.2670 C   0  0  0  0  0  0  0  0  0  0  0  0
  186.9870  174.7490  136.0920 C   0  0  0  0  0  0  0  0  0  0  0  0
  187.4320  171.9870  136.2800 C   0  0  0  0  0  3  0  0  0  0  0  0
  184.5620  175.8650  137.3550 C   0  0  0  0  0  3  0  0  0  0  0  0
  188.7330  176.5620  137.4030 N   0  0  0  0  0  0  0  0  0  0  0  0
  185.3640  171.5790  135.1090 O   0  0  0  0  0  1  0  0  0  0  0  0
  186.8170  178.8060  137.3090 O   0  0  0  0  0  0  0  0  0  0  0  0
  182.4920  175.4590  138.5830 N   0  0  0  0  0  1  0  0  0  0  0  0
  189.2250  175.1990  137.1790 C   0  0  0  0  0  2  0  0  0  0  0  0
  188.0320  177.0190  136.1890 C   0  0  2  0  0  3  0  0  0  0  0  0
  186.0650  173.8450  135.5480 C   0  0  0  0  0  3  0  0  0  0  0  0
  183.7160  177.5510  138.8700 C   0  0  0  0  0  3  0  0  0  0  0  0
  188.1430  174.2600  136.7300 C   0  0  0  0  0  0  0  0  0  0  0  0
  188.3640  172.8830  136.8110 C   0  0  0  0  0  3  0  0  0  0  0  0
  187.7030  178.5170  136.2310 C   0  0  0  0  0  2  0  0  0  0  0  0
  185.7570  177.9560  137.6300 C   0  0  0  0  0  0  0  0  0  0  0  0
  184.7950  178.3790  138.5500 C   0  0  0  0  0  3  0  0  0  0  0  0
  189.9270  177.3730  137.6210 C   0  0  0  0  0  2  0  0  0  0  0  0
  191.6210  176.5220  139.0490 O   0  0  0  0  0  0  0  0  0  0  0  0
  190.4910  177.0760  138.9730 C   0  0  0  0  0  0  0  0  0  0  0  0
  188.3350  177.8140  142.5780 N   0  0  0  0  0  0  0  0  0  0  0  0
  190.0400  176.5530  141.3730 C   0  0  0  0  0  2  0  0  0  0  0  0
  188.7210  179.3050  139.3940 O   0  0  0  0  0  0  0  0  0  0  0  0
  187.2520  177.6710  143.5340 C   0  0  0  0  0  1  0  0  0  0  0  0
  188.8220  176.4680  142.2910 C   0  0  0  0  0  2  0  0  0  0  0  0
  188.7570  178.3830  140.2510 C   0  0  0  0  0  0  0  0  0  0  0  0
  189.7300  177.3240  140.1670 N   0  0  0  0  0  0  0  0  0  0  0  0
  187.7480  178.3670  141.3590 C   0  0  0  0  0  2  0  0  0  0  0  0
  1  6  1  0  0  0  0
  2  5  1  1  0  0  0
  2 13  1  0  0  0  0
  2  3  1  0  0  0  0
  3  7  2  0  0  0  0
  3 19  1  0  0  0  0
  4 11  1  0  0  0  0
  4 15  2  0  0  0  0
  5 16  2  0  0  0  0
  6 17  2  0  0  0  0
  7  4  1  0  0  0  0
  8 21  1  0  0  0  0
  9  1  1  0  0  0  0
 10 19  1  0  0  0  0
 12  8  1  0  0  0  0
 13 18  1  1  0  0  0
 13  8  1  0  0  0  0
 14  1  2  0  0  0  0
 14  5  1  0  0  0  0
 16 17  1  0  0  0  0
 16 12  1  0  0  0  0
 18 10  1  0  0  0  0
 19 20  2  0  0  0  0
 20 15  1  0  0  0  0
 21 23  1  0  0  0  0
 23 22  2  0  0  0  0
 23 30  1  0  0  0  0
 24 27  1  0  0  0  0
 25 28  1  0  0  0  0
 26 29  2  0  0  0  0
 28 24  1  0  0  0  0
 29 31  1  0  0  0  0
 30 29  1  0  0  0  0
 30 25  1  0  0  0  0
 31 24  1  0  0  0  0
M  END
>  <MODEL>
1

>  <REMARK>
 VINA RESULT:      -7.0      0.000      0.000
  Name = 
  2 active torsions:
  status: ('A' for Active; 'I' for Inactive)
    1  A    between atoms: C_5  and  C_16
    2  A    between atoms: N_10  and  C_16
                            x       y       z     vdW  Elec       q    Type
                         _______ _______ _______ _____ _____    ______ ____

>  <TORSDO>
F 2

$$$$
=
 OpenBabel11122411023D

 31 35  0  0  1  0  0  0  0  0999 V2000
  186.6440  178.6210  141.7170 C   0  0  0  0  0  0  0  0  0  0  0  0
  183.8270  179.3270  139.2560 C   0  0  2  0  0  3  0  0  0  0  0  0
  183.8980  178.2280  138.2020 C   0  0  0  0  0  0  0  0  0  0  0  0
  185.1170  176.4670  137.0480 C   0  0  0  0  0  0  0  0  0  0  0  0
  184.5560  178.9600  140.5250 C   0  0  0  0  0  0  0  0  0  0  0  0
  185.9360  178.1950  142.8430 C   0  0  0  0  0  3  0  0  0  0  0  0
  185.0570  177.4530  138.0360 C   0  0  0  0  0  3  0  0  0  0  0  0
  181.7400  178.6390  140.3760 N   0  0  0  0  0  0  0  0  0  0  0  0
  188.0310  178.6610  141.7440 O   0  0  0  0  0  1  0  0  0  0  0  0
  181.6630  178.8130  137.4300 O   0  0  0  0  0  0  0  0  0  0  0  0
  186.2920  175.6800  136.9000 N   0  0  0  0  0  1  0  0  0  0  0  0
  182.3480  178.6250  141.7100 C   0  0  0  0  0  2  0  0  0  0  0  0
  182.3660  179.7110  139.5810 C   0  0  2  0  0  3  0  0  0  0  0  0
  185.9560  179.0050  140.5620 C   0  0  0  0  0  3  0  0  0  0  0  0
  184.0240  176.2530  136.2060 C   0  0  0  0  0  3  0  0  0  0  0  0
  183.8450  178.5320  141.6630 C   0  0  0  0  0  0  0  0  0  0  0  0
  184.5390  178.1620  142.8190 C   0  0  0  0  0  3  0  0  0  0  0  0
  181.6250  179.9700  138.2620 C   0  0  0  0  0  2  0  0  0  0  0  0
  182.8130  178.0290  137.3220 C   0  0  0  0  0  0  0  0  0  0  0  0
  182.8740  177.0350  136.3430 C   0  0  0  0  0  3  0  0  0  0  0  0
  180.3300  178.9430  140.5970 C   0  0  0  0  0  2  0  0  0  0  0  0
  179.3090  177.7140  142.3520 O   0  0  0  0  0  0  0  0  0  0  0  0
  179.6360  177.7330  141.1350 C   0  0  0  0  0  0  0  0  0  0  0  0
  178.9320  174.2480  138.7790 N   0  0  0  0  0  0  0  0  0  0  0  0
  179.2750  175.2670  140.9690 C   0  0  0  0  0  2  0  0  0  0  0  0
  178.9940  177.7560  138.3300 O   0  0  0  0  0  0  0  0  0  0  0  0
  179.2840  173.0920  137.9750 C   0  0  0  0  0  1  0  0  0  0  0  0
  179.6830  174.1370  140.0270 C   0  0  0  0  0  2  0  0  0  0  0  0
  179.2510  176.6570  138.8890 C   0  0  0  0  0  0  0  0  0  0  0  0
  179.4290  176.5690  140.3160 N   0  0  0  0  0  0  0  0  0  0  0  0
  179.4080  175.4240  138.0530 C   0  0  0  0  0  2  0  0  0  0  0  0
  1  9  1  0  0  0  0
  1  6  1  0  0  0  0
  2  3  1  6  0  0  0
  2 13  1  0  0  0  0
  2  5  1  0  0  0  0
  4  7  2  0  0  0  0
  5 14  1  0  0  0  0
  5 16  2  0  0  0  0
  7  3  1  0  0  0  0
  8 21  1  0  0  0  0
  8 12  1  0  0  0  0
 10 18  1  0  0  0  0
 11  4  1  0  0  0  0
 13 18  1  6  0  0  0
 13  8  1  0  0  0  0
 14  1  2  0  0  0  0
 15 20  2  0  0  0  0
 15  4  1  0  0  0  0
 16 12  1  0  0  0  0
 16 17  1  0  0  0  0
 17  6  2  0  0  0  0
 19 10  1  0  0  0  0
 19  3  2  0  0  0  0
 20 19  1  0  0  0  0
 21 23  1  0  0  0  0
 23 22  2  0  0  0  0
 24 28  1  0  0  0  0
 26 29  2  0  0  0  0
 27 24  1  0  0  0  0
 28 25  1  0  0  0  0
 29 30  1  0  0  0  0
 30 25  1  0  0  0  0
 30 23  1  0  0  0  0
 31 24  1  0  0  0  0
 31 29  1  0  0  0  0
M  END
>  <MODEL>
2

>  <REMARK>
 VINA RESULT:      -6.8      3.833      8.165
  Name = 
  2 active torsions:
  status: ('A' for Active; 'I' for Inactive)
    1  A    between atoms: C_5  and  C_16
    2  A    between atoms: N_10  and  C_16
                            x       y       z     vdW  Elec       q    Type
                         _______ _______ _______ _____ _____    ______ ____

>  <TORSDO>
F 2

$$$$
=
 OpenBabel11122411023D

 31 35  0  0  1  0  0  0  0  0999 V2000
  179.7930  178.1540  142.3210 C   0  0  0  0  0  0  0  0  0  0  0  0
  182.8660  179.1020  140.2840 C   0  0  2  0  0  3  0  0  0  0  0  0
  184.0700  178.8020  141.1680 C   0  0  0  0  0  0  0  0  0  0  0  0
  185.0510  178.3940  143.3570 C   0  0  0  0  0  0  0  0  0  0  0  0
  181.6200  178.3810  140.7390 C   0  0  0  0  0  0  0  0  0  0  0  0
  179.3570  177.0050  141.6570 C   0  0  0  0  0  3  0  0  0  0  0  0
  183.9330  178.6410  142.5560 C   0  0  0  0  0  3  0  0  0  0  0  0
  183.1690  177.3120  138.6150 N   0  0  0  0  0  0  0  0  0  0  0  0
  179.1090  178.6110  143.4390 O   0  0  0  0  0  1  0  0  0  0  0  0
  185.5400  178.9590  139.2310 O   0  0  0  0  0  0  0  0  0  0  0  0
  184.8950  178.2190  144.7590 N   0  0  0  0  0  1  0  0  0  0  0  0
  181.8050  176.7990  138.7750 C   0  0  0  0  0  2  0  0  0  0  0  0
  183.1510  178.7740  138.8010 C   0  0  2  0  0  3  0  0  0  0  0  0
  180.9200  178.8410  141.8620 C   0  0  0  0  0  3  0  0  0  0  0  0
  186.3210  178.3150  142.7810 C   0  0  0  0  0  3  0  0  0  0  0  0
  181.1760  177.2240  140.0700 C   0  0  0  0  0  0  0  0  0  0  0  0
  180.0410  176.5490  140.5270 C   0  0  0  0  0  3  0  0  0  0  0  0
  184.4800  179.4320  138.4030 C   0  0  0  0  0  2  0  0  0  0  0  0
  185.3620  178.7590  140.6010 C   0  0  0  0  0  0  0  0  0  0  0  0
  186.4750  178.5000  141.4050 C   0  0  0  0  0  3  0  0  0  0  0  0
  183.5430  176.9910  137.2410 C   0  0  0  0  0  2  0  0  0  0  0  0
  184.1630  174.7580  137.7520 O   0  0  0  0  0  0  0  0  0  0  0  0
  184.5150  175.8550  137.2400 C   0  0  0  0  0  0  0  0  0  0  0  0
  188.5080  176.2440  135.7950 N   0  0  0  0  0  0  0  0  0  0  0  0
  186.9050  175.1310  137.2570 C   0  0  0  0  0  2  0  0  0  0  0  0
  185.2910  177.4810  134.9970 O   0  0  0  0  0  0  0  0  0  0  0  0
  189.8620  176.7660  135.7490 C   0  0  0  0  0  1  0  0  0  0  0  0
  188.2770  175.7960  137.1650 C   0  0  0  0  0  2  0  0  0  0  0  0
  186.1870  176.9680  135.7180 C   0  0  0  0  0  0  0  0  0  0  0  0
  185.8590  176.0270  136.7590 N   0  0  0  0  0  0  0  0  0  0  0  0
  187.6160  177.3690  135.5170 C   0  0  0  0  0  2  0  0  0  0  0  0
  1  9  1  0  0  0  0
  2  5  1  1  0  0  0
  2  3  1  0  0  0  0
  3  7  1  0  0  0  0
  4 11  1  0  0  0  0
  5 14  2  0  0  0  0
  6  1  2  0  0  0  0
  7  4  2  0  0  0  0
  8 12  1  0  0  0  0
  8 13  1  0  0  0  0
 10 19  1  0  0  0  0
 12 16  1  0  0  0  0
 13 18  1  1  0  0  0
 13  2  1  0  0  0  0
 14  1  1  0  0  0  0
 15  4  1  0  0  0  0
 16 17  2  0  0  0  0
 16  5  1  0  0  0  0
 17  6  1  0  0  0  0
 18 10  1  0  0  0  0
 19  3  2  0  0  0  0
 19 20  1  0  0  0  0
 20 15  2  0  0  0  0
 21  8  1  0  0  0  0
 23 21  1  0  0  0  0
 23 22  2  0  0  0  0
 24 28  1  0  0  0  0
 26 29  2  0  0  0  0
 27 24  1  0  0  0  0
 28 25  1  0  0  0  0
 29 30  1  0  0  0  0
 30 23  1  0  0  0  0
 30 25  1  0  0  0  0
 31 29  1  0  0  0  0
 31 24  1  0  0  0  0
M  END
>  <MODEL>
3

>  <REMARK>
 VINA RESULT:      -6.7      3.236      7.033
  Name = 
  2 active torsions:
  status: ('A' for Active; 'I' for Inactive)
    1  A    between atoms: C_5  and  C_16
    2  A    between atoms: N_10  and  C_16
                            x       y       z     vdW  Elec       q    Type
                         _______ _______ _______ _____ _____    ______ ____

>  <TORSDO>
F 2

$$$$
=
 OpenBabel11122411023D

 31 35  0  0  1  0  0  0  0  0999 V2000
  188.5480  176.8200  135.8970 C   0  0  0  0  0  0  0  0  0  0  0  0
  185.5860  178.1610  137.8770 C   0  0  2  0  0  3  0  0  0  0  0  0
  184.6140  176.9970  138.0280 C   0  0  0  0  0  0  0  0  0  0  0  0
  183.7810  174.8200  137.3300 C   0  0  0  0  0  0  0  0  0  0  0  0
  186.9820  177.7080  137.5260 C   0  0  0  0  0  0  0  0  0  0  0  0
  189.5440  176.7750  136.8750 C   0  0  0  0  0  3  0  0  0  0  0  0
  184.6960  175.8680  137.1980 C   0  0  0  0  0  3  0  0  0  0  0  0
  186.3380  178.3280  140.2200 N   0  0  0  0  0  0  0  0  0  0  0  0
  188.8250  176.3990  134.6040 O   0  0  0  0  0  1  0  0  0  0  0  0
  183.4230  178.2080  139.7730 O   0  0  0  0  0  0  0  0  0  0  0  0
  183.8860  173.6760  136.4920 N   0  0  0  0  0  1  0  0  0  0  0  0
  187.7600  178.2540  139.8690 C   0  0  0  0  0  2  0  0  0  0  0  0
  185.6220  179.0410  139.1460 C   0  0  2  0  0  3  0  0  0  0  0  0
  187.2720  177.2880  136.2210 C   0  0  0  0  0  3  0  0  0  0  0  0
  182.7650  174.8950  138.2850 C   0  0  0  0  0  3  0  0  0  0  0  0
  187.9900  177.6630  138.5090 C   0  0  0  0  0  0  0  0  0  0  0  0
  189.2680  177.2060  138.1750 C   0  0  0  0  0  3  0  0  0  0  0  0
  184.1800  179.3930  139.5370 C   0  0  0  0  0  2  0  0  0  0  0  0
  183.5610  177.0800  138.9630 C   0  0  0  0  0  0  0  0  0  0  0  0
  182.6550  176.0250  139.0990 C   0  0  0  0  0  3  0  0  0  0  0  0
  186.2850  179.1070  141.4530 C   0  0  0  0  0  2  0  0  0  0  0  0
  184.6100  177.8440  142.5660 O   0  0  0  0  0  0  0  0  0  0  0  0
  185.8090  178.2360  142.5720 C   0  0  0  0  0  0  0  0  0  0  0  0
  188.2710  177.2160  145.9010 N   0  0  0  0  0  0  0  0  0  0  0  0
  186.0460  177.5700  144.9670 C   0  0  0  0  0  2  0  0  0  0  0  0
  188.6410  177.7520  142.4240 O   0  0  0  0  0  0  0  0  0  0  0  0
  189.0810  177.4590  147.0820 C   0  0  0  0  0  1  0  0  0  0  0  0
  186.9900  177.8790  146.1270 C   0  0  0  0  0  2  0  0  0  0  0  0
  188.0940  177.8350  143.5560 C   0  0  0  0  0  0  0  0  0  0  0  0
  186.6620  177.9250  143.6870 N   0  0  0  0  0  0  0  0  0  0  0  0
  188.9470  177.8770  144.7860 C   0  0  0  0  0  2  0  0  0  0  0  0
  1 14  2  0  0  0  0
  1  6  1  0  0  0  0
  2  5  1  1  0  0  0
  2  3  1  0  0  0  0
  2 13  1  0  0  0  0
  3 19  1  0  0  0  0
  4 15  2  0  0  0  0
  5 16  2  0  0  0  0
  6 17  2  0  0  0  0
  7  4  1  0  0  0  0
  7  3  2  0  0  0  0
  8 21  1  0  0  0  0
  9  1  1  0  0  0  0
 11  4  1  0  0  0  0
 12  8  1  0  0  0  0
 13 18  1  1  0  0  0
 13  8  1  0  0  0  0
 14  5  1  0  0  0  0
 15 20  1  0  0  0  0
 16 12  1  0  0  0  0
 17 16  1  0  0  0  0
 18 10  1  0  0  0  0
 19 20  2  0  0  0  0
 19 10  1  0  0  0  0
 21 23  1  0  0  0  0
 22 23  2  0  0  0  0
 23 30  1  0  0  0  0
 24 28  1  0  0  0  0
 24 27  1  0  0  0  0
 25 28  1  0  0  0  0
 26 29  2  0  0  0  0
 29 30  1  0  0  0  0
 29 31  1  0  0  0  0
 30 25  1  0  0  0  0
 31 24  1  0  0  0  0
M  END
>  <MODEL>
4

>  <REMARK>
 VINA RESULT:      -6.6      2.763      4.251
  Name = 
  2 active torsions:
  status: ('A' for Active; 'I' for Inactive)
    1  A    between atoms: C_5  and  C_16
    2  A    between atoms: N_10  and  C_16
                            x       y       z     vdW  Elec       q    Type
                         _______ _______ _______ _____ _____    ______ ____

>  <TORSDO>
F 2

$$$$
=
 OpenBabel11122411023D

 31 35  0  0  1  0  0  0  0  0999 V2000
  190.9600  177.0230  142.0190 C   0  0  0  0  0  0  0  0  0  0  0  0
  190.0880  178.0290  138.4530 C   0  0  2  0  0  3  0  0  0  0  0  0
  190.3940  176.8160  137.5820 C   0  0  0  0  0  0  0  0  0  0  0  0
  191.5200  174.6900  137.2220 C   0  0  0  0  0  0  0  0  0  0  0  0
  189.9440  177.6720  139.9120 C   0  0  0  0  0  0  0  0  0  0  0  0
  189.6950  176.9190  142.6010 C   0  0  0  0  0  3  0  0  0  0  0  0
  191.2260  175.7820  138.0410 C   0  0  0  0  0  3  0  0  0  0  0  0
  187.6260  177.9860  138.3040 N   0  0  0  0  0  0  0  0  0  0  0  0
  192.0940  176.7490  142.7700 O   0  0  0  0  0  1  0  0  0  0  0  0
  189.1080  177.7910  135.7580 O   0  0  0  0  0  0  0  0  0  0  0  0
  192.3520  173.6420  137.7050 N   0  0  0  0  0  1  0  0  0  0  0  0
  187.4420  178.0070  139.7580 C   0  0  0  0  0  2  0  0  0  0  0  0
  188.8250  178.7750  137.9660 C   0  0  2  0  0  3  0  0  0  0  0  0
  191.0840  177.4010  140.6790 C   0  0  0  0  0  3  0  0  0  0  0  0
  190.9960  174.6230  135.9290 C   0  0  0  0  0  3  0  0  0  0  0  0
  188.6700  177.5690  140.5030 C   0  0  0  0  0  0  0  0  0  0  0  0
  188.5530  177.2030  141.8470 C   0  0  0  0  0  3  0  0  0  0  0  0
  188.9570  179.0240  136.4570 C   0  0  0  0  0  2  0  0  0  0  0  0
  189.9010  176.7580  136.2620 C   0  0  0  0  0  0  0  0  0  0  0  0
  190.1890  175.6580  135.4500 C   0  0  0  0  0  3  0  0  0  0  0  0
  186.4380  178.6310  137.7540 C   0  0  0  0  0  2  0  0  0  0  0  0
  185.4800  176.4710  137.5240 O   0  0  0  0  0  0  0  0  0  0  0  0
  185.2830  177.6820  137.8140 C   0  0  0  0  0  0  0  0  0  0  0  0
  181.3080  178.9480  138.6970 N   0  0  0  0  0  0  0  0  0  0  0  0
  182.8140  177.3570  137.6250 C   0  0  0  0  0  2  0  0  0  0  0  0
  184.6070  179.7730  139.6710 O   0  0  0  0  0  0  0  0  0  0  0  0
  180.0690  179.6800  138.5000 C   0  0  0  0  0  1  0  0  0  0  0  0
  181.5790  178.2390  137.4500 C   0  0  0  0  0  2  0  0  0  0  0  0
  183.7040  179.2930  138.9360 C   0  0  0  0  0  0  0  0  0  0  0  0
  183.9530  178.1460  138.1000 N   0  0  0  0  0  0  0  0  0  0  0  0
  182.3560  179.9460  138.9020 C   0  0  0  0  0  2  0  0  0  0  0  0
  1  6  1  0  0  0  0
  1  9  1  0  0  0  0
  2  3  1  6  0  0  0
  2  5  1  0  0  0  0
  3  7  1  0  0  0  0
  4 11  1  0  0  0  0
  4  7  2  0  0  0  0
  5 16  2  0  0  0  0
  5 14  1  0  0  0  0
  8 12  1  0  0  0  0
 10 19  1  0  0  0  0
 10 18  1  0  0  0  0
 12 16  1  0  0  0  0
 13 18  1  6  0  0  0
 13  8  1  0  0  0  0
 13  2  1  0  0  0  0
 14  1  2  0  0  0  0
 15  4  1  0  0  0  0
 16 17  1  0  0  0  0
 17  6  2  0  0  0  0
 19  3  2  0  0  0  0
 20 15  2  0  0  0  0
 20 19  1  0  0  0  0
 21 23  1  0  0  0  0
 21  8  1  0  0  0  0
 22 23  2  0  0  0  0
 23 30  1  0  0  0  0
 24 31  1  0  0  0  0
 25 30  1  0  0  0  0
 27 24  1  0  0  0  0
 28 25  1  0  0  0  0
 28 24  1  0  0  0  0
 29 26  2  0  0  0  0
 30 29  1  0  0  0  0
 31 29  1  0  0  0  0
M  END
>  <MODEL>
5

>  <REMARK>
 VINA RESULT:      -6.6      2.802      6.665
  Name = 
  2 active torsions:
  status: ('A' for Active; 'I' for Inactive)
    1  A    between atoms: C_5  and  C_16
    2  A    between atoms: N_10  and  C_16
                            x       y       z     vdW  Elec       q    Type
                         _______ _______ _______ _____ _____    ______ ____

>  <TORSDO>
F 2

$$$$
=
 OpenBabel11122411023D

 31 35  0  0  1  0  0  0  0  0999 V2000
  190.2860  175.9390  142.8490 C   0  0  0  0  0  0  0  0  0  0  0  0
  186.7900  177.0150  143.9020 C   0  0  2  0  0  3  0  0  0  0  0  0
  186.9420  177.6820  145.2640 C   0  0  0  0  0  0  0  0  0  0  0  0
  188.2030  178.0770  147.3060 C   0  0  0  0  0  0  0  0  0  0  0  0
  188.0940  176.9380  143.1460 C   0  0  0  0  0  0  0  0  0  0  0  0
  190.5590  176.8380  141.8150 C   0  0  0  0  0  3  0  0  0  0  0  0
  188.0890  177.4810  146.0480 C   0  0  0  0  0  3  0  0  0  0  0  0
  186.2490  179.0150  142.5630 N   0  0  0  0  0  0  0  0  0  0  0  0
  191.2370  175.0000  143.2220 O   0  0  0  0  0  1  0  0  0  0  0  0
  184.7110  178.6370  145.0550 O   0  0  0  0  0  0  0  0  0  0  0  0
  189.3770  177.8760  148.0840 N   0  0  0  0  0  1  0  0  0  0  0  0
  187.3060  178.7610  141.5800 C   0  0  0  0  0  2  0  0  0  0  0  0
  185.7210  177.7230  143.0380 C   0  0  2  0  0  3  0  0  0  0  0  0
  189.0560  175.9880  143.5110 C   0  0  0  0  0  3  0  0  0  0  0  0
  187.1660  178.8700  147.8010 C   0  0  0  0  0  3  0  0  0  0  0  0
  188.3710  177.8410  142.1010 C   0  0  0  0  0  0  0  0  0  0  0  0
  189.5990  177.7790  141.4350 C   0  0  0  0  0  3  0  0  0  0  0  0
  184.4450  177.8830  143.8750 C   0  0  0  0  0  2  0  0  0  0  0  0
  185.8840  178.4540  145.7880 C   0  0  0  0  0  0  0  0  0  0  0  0
  186.0080  179.0570  147.0430 C   0  0  0  0  0  3  0  0  0  0  0  0
  185.2100  179.7380  141.8360 C   0  0  0  0  0  2  0  0  0  0  0  0
  185.9480  178.6450  139.8630 O   0  0  0  0  0  0  0  0  0  0  0  0
  184.9600  179.0660  140.5240 C   0  0  0  0  0  0  0  0  0  0  0  0
  181.0680  178.7250  138.8170 N   0  0  0  0  0  0  0  0  0  0  0  0
  183.4850  178.8430  138.5210 C   0  0  0  0  0  2  0  0  0  0  0  0
  182.5450  178.6460  142.0300 O   0  0  0  0  0  0  0  0  0  0  0  0
  179.8110  179.1970  138.2630 C   0  0  0  0  0  1  0  0  0  0  0  0
  182.1320  179.3800  138.0620 C   0  0  0  0  0  2  0  0  0  0  0  0
  182.4610  178.9130  140.8020 C   0  0  0  0  0  0  0  0  0  0  0  0
  183.6360  178.9830  139.9710 N   0  0  0  0  0  0  0  0  0  0  0  0
  181.1190  179.1970  140.2000 C   0  0  0  0  0  2  0  0  0  0  0  0
  1  9  1  0  0  0  0
  1 14  1  0  0  0  0
  2  5  1  6  0  0  0
  2  3  1  0  0  0  0
  3 19  2  0  0  0  0
  3  7  1  0  0  0  0
  4 15  1  0  0  0  0
  4 11  1  0  0  0  0
  5 14  2  0  0  0  0
  6  1  2  0  0  0  0
  7  4  2  0  0  0  0
  8 13  1  0  0  0  0
 10 19  1  0  0  0  0
 12 16  1  0  0  0  0
 12  8  1  0  0  0  0
 13 18  1  1  0  0  0
 13  2  1  0  0  0  0
 16  5  1  0  0  0  0
 17  6  1  0  0  0  0
 17 16  2  0  0  0  0
 18 10  1  0  0  0  0
 19 20  1  0  0  0  0
 20 15  2  0  0  0  0
 21  8  1  0  0  0  0
 22 23  2  0  0  0  0
 23 21  1  0  0  0  0
 24 31  1  0  0  0  0
 25 30  1  0  0  0  0
 27 24  1  0  0  0  0
 28 25  1  0  0  0  0
 28 24  1  0  0  0  0
 29 26  2  0  0  0  0
 30 23  1  0  0  0  0
 30 29  1  0  0  0  0
 31 29  1  0  0  0  0
M  END
>  <MODEL>
6

>  <REMARK>
 VINA RESULT:      -6.4      4.519      8.068
  Name = 
  2 active torsions:
  status: ('A' for Active; 'I' for Inactive)
    1  A    between atoms: C_5  and  C_16
    2  A    between atoms: N_10  and  C_16
                            x       y       z     vdW  Elec       q    Type
                         _______ _______ _______ _____ _____    ______ ____

>  <TORSDO>
F 2

$$$$
=
 OpenBabel11122411023D

 31 35  0  0  1  0  0  0  0  0999 V2000
  184.3890  179.2780  142.7090 C   0  0  0  0  0  0  0  0  0  0  0  0
  187.4970  178.8990  140.5450 C   0  0  2  0  0  3  0  0  0  0  0  0
  188.4130  177.9300  141.2830 C   0  0  0  0  0  0  0  0  0  0  0  0
  189.1010  176.7900  143.3180 C   0  0  0  0  0  0  0  0  0  0  0  0
  186.0660  178.8160  141.0160 C   0  0  0  0  0  0  0  0  0  0  0  0
  183.4330  178.5930  141.9550 C   0  0  0  0  0  3  0  0  0  0  0  0
  188.2370  177.6590  142.6490 C   0  0  0  0  0  3  0  0  0  0  0  0
  186.8540  177.4460  138.6580 N   0  0  0  0  0  0  0  0  0  0  0  0
  184.0360  179.8440  143.9260 O   0  0  0  0  0  1  0  0  0  0  0  0
  189.7380  177.6320  139.2610 O   0  0  0  0  0  0  0  0  0  0  0  0
  188.9030  176.5140  144.6990 N   0  0  0  0  0  1  0  0  0  0  0  0
  185.4170  177.6410  138.8720 C   0  0  0  0  0  2  0  0  0  0  0  0
  187.5600  178.6900  139.0150 C   0  0  2  0  0  3  0  0  0  0  0  0
  185.7000  179.3910  142.2400 C   0  0  0  0  0  3  0  0  0  0  0  0
  190.1590  176.1900  142.6320 C   0  0  0  0  0  3  0  0  0  0  0  0
  185.0990  178.1280  140.2570 C   0  0  0  0  0  0  0  0  0  0  0  0
  183.7860  178.0290  140.7260 C   0  0  0  0  0  3  0  0  0  0  0  0
  189.0340  178.6710  138.5860 C   0  0  0  0  0  2  0  0  0  0  0  0
  189.5070  177.3490  140.6080 C   0  0  0  0  0  0  0  0  0  0  0  0
  190.3620  176.4710  141.2790 C   0  0  0  0  0  3  0  0  0  0  0  0
  187.0000  177.1850  137.2300 C   0  0  0  0  0  2  0  0  0  0  0  0
  186.5870  174.8480  137.2450 O   0  0  0  0  0  0  0  0  0  0  0  0
  187.4220  175.7660  137.0230 C   0  0  0  0  0  0  0  0  0  0  0  0
  191.4020  174.6860  135.9380 N   0  0  0  0  0  0  0  0  0  0  0  0
  189.2890  174.1070  137.0090 C   0  0  0  0  0  2  0  0  0  0  0  0
  189.1100  177.2940  135.2640 O   0  0  0  0  0  0  0  0  0  0  0  0
  192.8430  174.5830  136.0920 C   0  0  0  0  0  1  0  0  0  0  0  0
  190.8100  174.1310  137.1510 C   0  0  0  0  0  2  0  0  0  0  0  0
  189.6070  176.3260  135.8980 C   0  0  0  0  0  0  0  0  0  0  0  0
  188.7770  175.4370  136.6720 N   0  0  0  0  0  0  0  0  0  0  0  0
  191.0890  176.1120  135.8760 C   0  0  0  0  0  2  0  0  0  0  0  0
  1  9  1  0  0  0  0
  2  5  1  1  0  0  0
  2  3  1  0  0  0  0
  3  7  1  0  0  0  0
  4 11  1  0  0  0  0
  5 14  2  0  0  0  0
  6  1  2  0  0  0  0
  7  4  2  0  0  0  0
  8 12  1  0  0  0  0
  8 13  1  0  0  0  0
 10 19  1  0  0  0  0
 12 16  1  0  0  0  0
 13 18  1  1  0  0  0
 13  2  1  0  0  0  0
 14  1  1  0  0  0  0
 15  4  1  0  0  0  0
 16 17  2  0  0  0  0
 16  5  1  0  0  0  0
 17  6  1  0  0  0  0
 18 10  1  0  0  0  0
 19 20  1  0  0  0  0
 19  3  2  0  0  0  0
 20 15  2  0  0  0  0
 21  8  1  0  0  0  0
 23 21  1  0  0  0  0
 23 22  2  0  0  0  0
 24 27  1  0  0  0  0
 24 28  1  0  0  0  0
 25 28  1  0  0  0  0
 26 29  2  0  0  0  0
 29 30  1  0  0  0  0
 30 25  1  0  0  0  0
 30 23  1  0  0  0  0
 31 29  1  0  0  0  0
 31 24  1  0  0  0  0
M  END
>  <MODEL>
7

>  <REMARK>
 VINA RESULT:      -6.3      2.453      6.624
  Name = 
  2 active torsions:
  status: ('A' for Active; 'I' for Inactive)
    1  A    between atoms: C_5  and  C_16
    2  A    between atoms: N_10  and  C_16
                            x       y       z     vdW  Elec       q    Type
                         _______ _______ _______ _____ _____    ______ ____

>  <TORSDO>
F 2

$$$$
=
 OpenBabel11122411023D

 31 35  0  0  1  0  0  0  0  0999 V2000
  182.2950  178.3870  140.6560 C   0  0  0  0  0  0  0  0  0  0  0  0
  185.6760  178.7230  138.9420 C   0  0  2  0  0  3  0  0  0  0  0  0
  186.7220  178.3580  139.9890 C   0  0  0  0  0  0  0  0  0  0  0  0
  187.3870  178.0460  142.3080 C   0  0  0  0  0  0  0  0  0  0  0  0
  184.3000  178.2180  139.2980 C   0  0  0  0  0  0  0  0  0  0  0  0
  181.7780  177.2440  140.0410 C   0  0  0  0  0  3  0  0  0  0  0  0
  186.4110  178.3550  141.3570 C   0  0  0  0  0  3  0  0  0  0  0  0
  185.9080  176.7520  137.4770 N   0  0  0  0  0  0  0  0  0  0  0  0
  181.5620  179.0370  141.6390 O   0  0  0  0  0  1  0  0  0  0  0  0
  188.4040  178.1320  138.2410 O   0  0  0  0  0  0  0  0  0  0  0  0
  187.0540  178.0320  143.6900 N   0  0  0  0  0  1  0  0  0  0  0  0
  184.4770  176.4380  137.5100 C   0  0  0  0  0  2  0  0  0  0  0  0
  186.0760  178.2150  137.5370 C   0  0  2  0  0  3  0  0  0  0  0  0
  183.5510  178.8740  140.2840 C   0  0  0  0  0  3  0  0  0  0  0  0
  188.6890  177.7470  141.9020 C   0  0  0  0  0  3  0  0  0  0  0  0
  183.7740  177.0680  138.6780 C   0  0  0  0  0  0  0  0  0  0  0  0
  182.5120  176.5940  139.0460 C   0  0  0  0  0  3  0  0  0  0  0  0
  187.5190  178.6530  137.2530 C   0  0  0  0  0  2  0  0  0  0  0  0
  188.0490  178.0920  139.5910 C   0  0  0  0  0  0  0  0  0  0  0  0
  189.0190  177.7720  140.5440 C   0  0  0  0  0  3  0  0  0  0  0  0
  186.3840  176.2510  136.1910 C   0  0  0  0  0  2  0  0  0  0  0  0
  186.6860  173.9600  136.7310 O   0  0  0  0  0  0  0  0  0  0  0  0
  187.2410  175.0460  136.4110 C   0  0  0  0  0  0  0  0  0  0  0  0
  191.4990  175.1870  136.2300 N   0  0  0  0  0  0  0  0  0  0  0  0
  189.4690  174.1430  137.0880 C   0  0  0  0  0  2  0  0  0  0  0  0
  188.7470  176.6910  134.5940 O   0  0  0  0  0  0  0  0  0  0  0  0
  192.8340  175.6060  136.6150 C   0  0  0  0  0  1  0  0  0  0  0  0
  190.8440  174.7060  137.4430 C   0  0  0  0  0  2  0  0  0  0  0  0
  189.3550  176.0850  135.5160 C   0  0  0  0  0  0  0  0  0  0  0  0
  188.6750  175.1330  136.3570 N   0  0  0  0  0  0  0  0  0  0  0  0
  190.8000  176.3850  135.7670 C   0  0  0  0  0  2  0  0  0  0  0  0
  1  9  1  0  0  0  0
  2  5  1  1  0  0  0
  2  3  1  0  0  0  0
  3  7  1  0  0  0  0
  4 11  1  0  0  0  0
  5 14  2  0  0  0  0
  6  1  2  0  0  0  0
  7  4  2  0  0  0  0
  8 12  1  0  0  0  0
  8 13  1  0  0  0  0
 10 19  1  0  0  0  0
 12 16  1  0  0  0  0
 13 18  1  1  0  0  0
 13  2  1  0  0  0  0
 14  1  1  0  0  0  0
 15  4  1  0  0  0  0
 16 17  2  0  0  0  0
 16  5  1  0  0  0  0
 17  6  1  0  0  0  0
 18 10  1  0  0  0  0
 19  3  2  0  0  0  0
 19 20  1  0  0  0  0
 20 15  2  0  0  0  0
 21 23  1  0  0  0  0
 21  8  1  0  0  0  0
 23 22  2  0  0  0  0
 24 27  1  0  0  0  0
 24 28  1  0  0  0  0
 25 28  1  0  0  0  0
 26 29  2  0  0  0  0
 29 31  1  0  0  0  0
 29 30  1  0  0  0  0
 30 23  1  0  0  0  0
 30 25  1  0  0  0  0
 31 24  1  0  0  0  0
M  END
>  <MODEL>
8

>  <REMARK>
 VINA RESULT:      -6.2      2.234      5.882
  Name = 
  2 active torsions:
  status: ('A' for Active; 'I' for Inactive)
    1  A    between atoms: C_5  and  C_16
    2  A    between atoms: N_10  and  C_16
                            x       y       z     vdW  Elec       q    Type
                         _______ _______ _______ _____ _____    ______ ____

>  <TORSDO>
F 2

$$$$
=
 OpenBabel11122411023D

 31 35  0  0  1  0  0  0  0  0999 V2000
  192.1850  176.6520  138.3100 C   0  0  0  0  0  0  0  0  0  0  0  0
  189.1970  177.0980  135.9950 C   0  0  2  0  0  3  0  0  0  0  0  0
  188.7570  175.6950  135.5940 C   0  0  0  0  0  0  0  0  0  0  0  0
  189.2050  173.3170  135.3490 C   0  0  0  0  0  0  0  0  0  0  0  0
  190.0560  177.1030  137.2360 C   0  0  0  0  0  0  0  0  0  0  0  0
  191.6440  177.0160  139.5450 C   0  0  0  0  0  3  0  0  0  0  0  0
  189.6120  174.5920  135.7460 C   0  0  0  0  0  3  0  0  0  0  0  0
  187.2870  177.6940  137.4370 N   0  0  0  0  0  0  0  0  0  0  0  0
  193.5080  176.2410  138.2270 O   0  0  0  0  0  1  0  0  0  0  0  0
  186.6410  176.5840  134.7790 O   0  0  0  0  0  0  0  0  0  0  0  0
  190.0760  172.2060  135.5230 N   0  0  0  0  0  1  0  0  0  0  0  0
  188.1360  178.0630  138.5730 C   0  0  0  0  0  2  0  0  0  0  0  0
  187.9880  178.0410  136.1880 C   0  0  2  0  0  3  0  0  0  0  0  0
  191.3940  176.6970  137.1590 C   0  0  0  0  0  3  0  0  0  0  0  0
  187.9420  173.1300  134.7840 C   0  0  0  0  0  3  0  0  0  0  0  0
  189.5130  177.4720  138.4820 C   0  0  0  0  0  0  0  0  0  0  0  0
  190.3130  177.4370  139.6280 C   0  0  0  0  0  3  0  0  0  0  0  0
  187.0800  177.9280  134.9550 C   0  0  0  0  0  2  0  0  0  0  0  0
  187.4980  175.5030  134.9870 C   0  0  0  0  0  0  0  0  0  0  0  0
  187.0910  174.2220  134.6020 C   0  0  0  0  0  3  0  0  0  0  0  0
  186.0830  178.5080  137.5740 C   0  0  0  0  0  2  0  0  0  0  0  0
  185.0300  176.3830  137.6510 O   0  0  0  0  0  0  0  0  0  0  0  0
  184.9100  177.6230  137.8470 C   0  0  0  0  0  0  0  0  0  0  0  0
  181.1080  179.1430  139.0390 N   0  0  0  0  0  0  0  0  0  0  0  0
  182.4250  177.3960  137.9610 C   0  0  0  0  0  2  0  0  0  0  0  0
  184.5240  179.8980  139.5650 O   0  0  0  0  0  0  0  0  0  0  0  0
  179.8820  179.9110  138.9120 C   0  0  0  0  0  1  0  0  0  0  0  0
  181.2110  178.3150  137.8410 C   0  0  0  0  0  2  0  0  0  0  0  0
  183.5260  179.3970  138.9810 C   0  0  0  0  0  0  0  0  0  0  0  0
  183.6380  178.1710  138.2320 N   0  0  0  0  0  0  0  0  0  0  0  0
  182.2080  180.1060  139.0350 C   0  0  0  0  0  2  0  0  0  0  0  0
  1  6  1  0  0  0  0
  2  3  1  1  0  0  0
  2 13  1  0  0  0  0
  2  5  1  0  0  0  0
  3  7  1  0  0  0  0
  4 11  1  0  0  0  0
  4  7  2  0  0  0  0
  5 16  2  0  0  0  0
  6 17  2  0  0  0  0
  8 21  1  0  0  0  0
  8 12  1  0  0  0  0
  9  1  1  0  0  0  0
 10 18  1  0  0  0  0
 10 19  1  0  0  0  0
 13 18  1  6  0  0  0
 13  8  1  0  0  0  0
 14  5  1  0  0  0  0
 14  1  2  0  0  0  0
 15  4  1  0  0  0  0
 16 12  1  0  0  0  0
 16 17  1  0  0  0  0
 19  3  2  0  0  0  0
 20 15  2  0  0  0  0
 20 19  1  0  0  0  0
 21 23  1  0  0  0  0
 22 23  2  0  0  0  0
 23 30  1  0  0  0  0
 25 30  1  0  0  0  0
 27 24  1  0  0  0  0
 28 25  1  0  0  0  0
 28 24  1  0  0  0  0
 29 31  1  0  0  0  0
 29 26  2  0  0  0  0
 30 29  1  0  0  0  0
 31 24  1  0  0  0  0
M  END
>  <MODEL>
9

>  <REMARK>
 VINA RESULT:      -6.1      2.534      6.088
  Name = 
  2 active torsions:
  status: ('A' for Active; 'I' for Inactive)
    1  A    between atoms: C_5  and  C_16
    2  A    between atoms: N_10  and  C_16
                            x       y       z     vdW  Elec       q    Type
                         _______ _______ _______ _____ _____    ______ ____

>  <TORSDO>
F 2

$$$$
