=
 OpenBabel11122411423D

 37 43  0  0  1  0  0  0  0  0999 V2000
  190.3830  178.5460  144.0630 C   0  0  0  0  0  0  0  0  0  0  0  0
  186.6620  177.5890  144.3450 N   0  0  1  0  0  0  0  0  0  0  0  0
  184.7070  177.5650  141.7010 O   0  0  0  0  0  0  0  0  0  0  0  0
  189.0360  177.0750  145.2160 C   0  0  2  0  0  3  0  0  0  0  0  0
  186.4420  178.4010  143.1340 C   0  0  2  0  0  3  0  0  0  0  0  0
  187.9920  176.9870  144.0880 C   0  0  2  0  0  3  0  0  0  0  0  0
  184.9720  178.5060  142.7080 C   0  0  2  0  0  3  0  0  0  0  0  0
  188.3300  176.8070  146.5210 C   0  0  0  0  0  2  0  0  0  0  0  0
  188.4890  177.4950  142.7440 C   0  0  2  0  0  3  0  0  0  0  0  0
  191.2540  177.5000  143.7880 F   0  0  0  0  0  0  0  0  0  0  0  0
  185.1690  178.7350  145.9740 C   0  0  0  0  0  2  0  0  0  0  0  0
  187.2820  177.8790  146.7870 C   0  0  0  0  0  2  0  0  0  0  0  0
  189.3920  178.7340  142.9230 C   0  0  0  0  0  2  0  0  0  0  0  0
  185.1370  179.5210  140.3720 O   0  0  0  0  0  0  0  0  0  0  0  0
  184.7300  178.1670  140.4110 C   0  0  1  0  0  3  0  0  0  0  0  0
  186.6120  178.4760  145.5340 C   0  0  1  0  0  3  0  0  0  0  0  0
  187.2420  177.8150  142.0540 N   0  0  2  0  0  0  0  0  0  0  0  0
  189.6820  178.3300  145.2670 O   0  0  0  0  0  0  0  0  0  0  0  0
  183.9490  178.4390  143.8380 C   0  0  1  0  0  3  0  0  0  0  0  0
  191.1240  179.7050  144.1870 F   0  0  0  0  0  0  0  0  0  0  0  0
  186.1030  178.5860  139.9450 C   0  0  2  0  0  3  0  0  0  0  0  0
  187.3250  178.7190  140.8870 C   0  0  2  0  0  3  0  0  0  0  0  0
  184.3120  179.4280  144.9330 C   0  0  0  0  0  2  0  0  0  0  0  0
  181.4860  178.6300  144.2160 C   0  0  0  0  0  3  0  0  0  0  0  0
  182.5660  178.7130  143.3300 C   0  0  0  0  0  0  0  0  0  0  0  0
  182.3350  179.0400  141.9840 C   0  0  0  0  0  3  0  0  0  0  0  0
  180.7940  179.6290  140.1090 C   0  0  0  0  0  1  0  0  0  0  0  0
  179.9600  179.1990  142.4230 C   0  0  0  0  0  3  0  0  0  0  0  0
  181.0340  179.2830  141.5340 C   0  0  0  0  0  0  0  0  0  0  0  0
  180.1850  178.8730  143.7650 C   0  0  0  0  0  3  0  0  0  0  0  0
  188.5700  178.4310  140.0320 C   0  0  0  0  0  2  0  0  0  0  0  0
  188.2590  177.6650  138.7400 C   0  0  1  0  0  3  0  0  0  0  0  0
  188.8720  179.6490  137.6170 O   0  0  0  0  0  0  0  0  0  0  0  0
  188.4540  178.5060  137.5190 C   0  0  0  0  0  3  0  0  0  0  0  0
  189.0600  176.4540  138.6440 N   0  0  0  0  0  2  0  0  0  0  0  0
  190.3050  176.6960  139.3540 C   0  0  0  0  0  2  0  0  0  0  0  0
  191.3200  176.9490  138.4490 F   0  0  0  0  0  0  0  0  0  0  0  0
  1 20  1  0  0  0  0
  1 18  1  0  0  0  0
  2 16  1  0  0  0  0
  3  7  1  0  0  0  0
  4 18  1  0  0  0  0
  4  8  1  0  0  0  0
  5  2  1  0  0  0  0
  6  2  1  0  0  0  0
  6  4  1  0  0  0  0
  7  5  1  0  0  0  0
  7 19  1  0  0  0  0
  8 12  1  0  0  0  0
  9 13  1  0  0  0  0
  9  6  1  0  0  0  0
 10  1  1  0  0  0  0
 13  1  1  0  0  0  0
 14 15  1  0  0  0  0
 15  3  1  0  0  0  0
 16 11  1  0  0  0  0
 16 12  1  0  0  0  0
 17  9  1  0  0  0  0
 17  5  1  0  0  0  0
 19 23  1  0  0  0  0
 21 14  1  0  0  0  0
 21 15  1  0  0  0  0
 21 22  1  0  0  0  0
 22 17  1  0  0  0  0
 23 11  1  0  0  0  0
 25 19  1  0  0  0  0
 25 24  2  0  0  0  0
 26 25  1  0  0  0  0
 27 29  1  0  0  0  0
 28 30  2  0  0  0  0
 29 26  2  0  0  0  0
 29 28  1  0  0  0  0
 30 24  1  0  0  0  0
 31 22  1  0  0  0  0
 32 31  1  0  0  0  0
 34 33  2  0  0  0  0
 34 32  1  0  0  0  0
 35 32  1  0  0  0  0
 35 36  1  0  0  0  0
 37 36  1  0  0  0  0
M  END
>  <MODEL>
1

>  <REMARK>
 VINA RESULT:      -9.8      0.000      0.000
  Name = 
  6 active torsions:
  status: ('A' for Active; 'I' for Inactive)
    1  A    between atoms: C_1  and  CA_4
    2  A    between atoms: C_1  and  C_27
    3  A    between atoms: CA_4  and  N_12
    4  A    between atoms: CA_4  and  C_37
    5  A    between atoms: C_8  and  N_12
    6  A    between atoms: C_23  and  C_30
                            x       y       z     vdW  Elec       q    Type
                         _______ _______ _______ _____ _____    ______ ____

>  <TORSDO>
F 6

$$$$
=
 OpenBabel11122411423D

 37 43  0  0  1  0  0  0  0  0999 V2000
  185.8750  178.9710  145.7180 C   0  0  0  0  0  0  0  0  0  0  0  0
  187.2100  177.3710  142.4780 N   0  0  1  0  0  0  0  0  0  0  0  0
  190.0760  175.7600  142.4310 O   0  0  0  0  0  0  0  0  0  0  0  0
  185.0870  177.8560  143.8610 C   0  0  2  0  0  3  0  0  0  0  0  0
  188.5590  177.5110  143.0560 C   0  0  2  0  0  3  0  0  0  0  0  0
  186.3850  177.0510  143.6670 C   0  0  2  0  0  3  0  0  0  0  0  0
  189.6920  177.0740  142.1200 C   0  0  2  0  0  3  0  0  0  0  0  0
  184.4320  178.0110  142.5120 C   0  0  0  0  0  2  0  0  0  0  0  0
  187.2950  177.0410  144.8840 C   0  0  2  0  0  3  0  0  0  0  0  0
  185.0930  178.1470  146.5170 F   0  0  0  0  0  0  0  0  0  0  0  0
  187.4360  178.7100  140.3920 C   0  0  0  0  0  2  0  0  0  0  0  0
  185.3280  178.8110  141.5760 C   0  0  0  0  0  2  0  0  0  0  0  0
  187.2860  178.4130  145.5900 C   0  0  0  0  0  2  0  0  0  0  0  0
  191.7120  177.0040  143.6780 O   0  0  0  0  0  0  0  0  0  0  0  0
  191.2480  175.7420  143.2400 C   0  0  1  0  0  3  0  0  0  0  0  0
  186.8420  178.6400  141.8000 C   0  0  1  0  0  3  0  0  0  0  0  0
  188.5950  176.7300  144.2960 N   0  0  2  0  0  0  0  0  0  0  0  0
  185.3120  179.1290  144.4350 O   0  0  0  0  0  0  0  0  0  0  0  0
  189.4250  177.2520  140.6280 C   0  0  1  0  0  3  0  0  0  0  0  0
  185.9530  180.2110  146.3200 F   0  0  0  0  0  0  0  0  0  0  0  0
  191.0380  176.2350  144.6510 C   0  0  2  0  0  3  0  0  0  0  0  0
  189.7950  177.0420  145.1010 C   0  0  2  0  0  3  0  0  0  0  0  0
  188.9510  178.6680  140.3480 C   0  0  0  0  0  2  0  0  0  0  0  0
  191.8770  177.4990  140.2100 C   0  0  0  0  0  3  0  0  0  0  0  0
  190.6500  176.9470  139.8210 C   0  0  0  0  0  0  0  0  0  0  0  0
  190.5880  176.1300  138.6810 C   0  0  0  0  0  3  0  0  0  0  0  0
  191.6750  175.0030  136.7350 C   0  0  0  0  0  1  0  0  0  0  0  0
  192.9670  176.4210  138.3350 C   0  0  0  0  0  3  0  0  0  0  0  0
  191.7460  175.8680  137.9410 C   0  0  0  0  0  0  0  0  0  0  0  0
  193.0330  177.2360  139.4700 C   0  0  0  0  0  3  0  0  0  0  0  0
  189.5820  176.7230  146.5890 C   0  0  0  0  0  2  0  0  0  0  0  0
  190.2230  177.7480  147.5310 C   0  0  1  0  0  3  0  0  0  0  0  0
  188.2300  177.6000  148.7870 O   0  0  0  0  0  0  0  0  0  0  0  0
  189.3000  178.1650  148.6320 C   0  0  0  0  0  3  0  0  0  0  0  0
  191.4670  177.2390  148.0910 N   0  0  0  0  0  2  0  0  0  0  0  0
  191.5730  175.8380  147.7160 C   0  0  0  0  0  2  0  0  0  0  0  0
  192.8760  175.5460  147.3580 F   0  0  0  0  0  0  0  0  0  0  0  0
  1 20  1  0  0  0  0
  1 10  1  0  0  0  0
  2  5  1  0  0  0  0
  2  6  1  0  0  0  0
  3 15  1  0  0  0  0
  4 18  1  0  0  0  0
  5 17  1  0  0  0  0
  6  4  1  0  0  0  0
  6  9  1  0  0  0  0
  7  3  1  0  0  0  0
  7  5  1  0  0  0  0
  8  4  1  0  0  0  0
  9 13  1  0  0  0  0
 11 16  1  0  0  0  0
 12 16  1  0  0  0  0
 12  8  1  0  0  0  0
 13  1  1  0  0  0  0
 14 21  1  0  0  0  0
 15 14  1  0  0  0  0
 15 21  1  0  0  0  0
 16  2  1  0  0  0  0
 17  9  1  0  0  0  0
 17 22  1  0  0  0  0
 18  1  1  0  0  0  0
 19  7  1  0  0  0  0
 21 22  1  0  0  0  0
 22 31  1  0  0  0  0
 23 11  1  0  0  0  0
 23 19  1  0  0  0  0
 25 24  1  0  0  0  0
 25 19  1  0  0  0  0
 26 25  2  0  0  0  0
 27 29  1  0  0  0  0
 28 30  1  0  0  0  0
 29 28  2  0  0  0  0
 29 26  1  0  0  0  0
 30 24  2  0  0  0  0
 31 32  1  0  0  0  0
 32 35  1  0  0  0  0
 32 34  1  0  0  0  0
 34 33  2  0  0  0  0
 36 35  1  0  0  0  0
 37 36  1  0  0  0  0
M  END
>  <MODEL>
2

>  <REMARK>
 VINA RESULT:      -9.4      3.156      7.758
  Name = 
  6 active torsions:
  status: ('A' for Active; 'I' for Inactive)
    1  A    between atoms: C_1  and  CA_4
    2  A    between atoms: C_1  and  C_27
    3  A    between atoms: CA_4  and  N_12
    4  A    between atoms: CA_4  and  C_37
    5  A    between atoms: C_8  and  N_12
    6  A    between atoms: C_23  and  C_30
                            x       y       z     vdW  Elec       q    Type
                         _______ _______ _______ _____ _____    ______ ____

>  <TORSDO>
F 6

$$$$
=
 OpenBabel11122411423D

 37 43  0  0  1  0  0  0  0  0999 V2000
  190.4920  176.5170  138.4130 C   0  0  0  0  0  0  0  0  0  0  0  0
  187.1520  178.3540  137.8550 N   0  0  1  0  0  0  0  0  0  0  0  0
  185.4630  179.6200  140.3760 O   0  0  0  0  0  0  0  0  0  0  0  0
  189.5100  177.9410  136.8920 C   0  0  2  0  0  3  0  0  0  0  0  0
  186.8080  177.9880  139.2410 C   0  0  2  0  0  3  0  0  0  0  0  0
  188.6080  178.6110  137.9450 C   0  0  2  0  0  3  0  0  0  0  0  0
  185.3970  178.4090  139.6690 C   0  0  2  0  0  3  0  0  0  0  0  0
  188.8120  178.0350  135.5580 C   0  0  0  0  0  2  0  0  0  0  0  0
  189.0440  178.3630  139.3800 C   0  0  2  0  0  3  0  0  0  0  0  0
  191.6270  177.3170  138.3950 F   0  0  0  0  0  0  0  0  0  0  0  0
  185.2960  177.2740  136.5950 C   0  0  0  0  0  2  0  0  0  0  0  0
  187.4990  177.2640  135.5910 C   0  0  0  0  0  2  0  0  0  0  0  0
  189.5690  176.9220  139.5550 C   0  0  0  0  0  2  0  0  0  0  0  0
  185.4470  178.0490  142.1960 O   0  0  0  0  0  0  0  0  0  0  0  0
  185.4160  179.4010  141.7830 C   0  0  1  0  0  3  0  0  0  0  0  0
  186.7830  177.2320  136.9550 C   0  0  1  0  0  3  0  0  0  0  0  0
  187.8090  178.5960  140.1230 N   0  0  2  0  0  0  0  0  0  0  0  0
  189.7920  176.5890  137.1920 O   0  0  0  0  0  0  0  0  0  0  0  0
  184.3520  178.4530  138.5580 C   0  0  1  0  0  3  0  0  0  0  0  0
  190.8860  175.2100  138.6190 F   0  0  0  0  0  0  0  0  0  0  0  0
  186.6560  178.7600  142.3550 C   0  0  2  0  0  3  0  0  0  0  0  0
  187.7290  178.0490  141.4940 C   0  0  2  0  0  3  0  0  0  0  0  0
  184.3610  177.1480  137.7810 C   0  0  0  0  0  2  0  0  0  0  0  0
  182.3830  177.7500  139.9270 C   0  0  0  0  0  3  0  0  0  0  0  0
  182.9860  178.7170  139.1130 C   0  0  0  0  0  0  0  0  0  0  0  0
  182.2980  179.9070  138.8250 C   0  0  0  0  0  3  0  0  0  0  0  0
  180.2950  181.3840  139.0400 C   0  0  0  0  0  1  0  0  0  0  0  0
  180.4240  179.1550  140.1600 C   0  0  0  0  0  3  0  0  0  0  0  0
  181.0200  180.1230  139.3490 C   0  0  0  0  0  0  0  0  0  0  0  0
  181.1050  177.9680  140.4500 C   0  0  0  0  0  3  0  0  0  0  0  0
  189.0620  178.1990  142.2450 C   0  0  0  0  0  2  0  0  0  0  0  0
  189.2190  177.2160  143.4110 C   0  0  1  0  0  3  0  0  0  0  0  0
  190.2930  175.1980  142.8200 O   0  0  0  0  0  0  0  0  0  0  0  0
  190.4150  176.3330  143.2540 C   0  0  0  0  0  3  0  0  0  0  0  0
  189.2840  177.9190  144.6840 N   0  0  0  0  0  2  0  0  0  0  0  0
  188.1620  177.4670  145.4910 C   0  0  0  0  0  2  0  0  0  0  0  0
  187.3070  176.7020  144.7190 F   0  0  0  0  0  0  0  0  0  0  0  0
  1 20  1  0  0  0  0
  1 13  1  0  0  0  0
  2  6  1  0  0  0  0
  2  5  1  0  0  0  0
  3 15  1  0  0  0  0
  4 18  1  0  0  0  0
  4  6  1  0  0  0  0
  5  7  1  0  0  0  0
  5 17  1  0  0  0  0
  6  9  1  0  0  0  0
  7  3  1  0  0  0  0
  8 12  1  0  0  0  0
  8  4  1  0  0  0  0
  9 13  1  0  0  0  0
  9 17  1  0  0  0  0
 10  1  1  0  0  0  0
 11 16  1  0  0  0  0
 11 23  1  0  0  0  0
 12 16  1  0  0  0  0
 14 21  1  0  0  0  0
 15 14  1  0  0  0  0
 15 21  1  0  0  0  0
 16  2  1  0  0  0  0
 17 22  1  0  0  0  0
 18  1  1  0  0  0  0
 19 25  1  0  0  0  0
 19  7  1  0  0  0  0
 22 31  1  0  0  0  0
 22 21  1  0  0  0  0
 23 19  1  0  0  0  0
 24 30  1  0  0  0  0
 25 24  2  0  0  0  0
 26 25  1  0  0  0  0
 26 29  2  0  0  0  0
 27 29  1  0  0  0  0
 28 30  2  0  0  0  0
 29 28  1  0  0  0  0
 31 32  1  0  0  0  0
 32 35  1  0  0  0  0
 33 34  2  0  0  0  0
 34 32  1  0  0  0  0
 35 36  1  0  0  0  0
 37 36  1  0  0  0  0
M  END
>  <MODEL>
3

>  <REMARK>
 VINA RESULT:      -9.2      2.287      5.808
  Name = 
  6 active torsions:
  status: ('A' for Active; 'I' for Inactive)
    1  A    between atoms: C_1  and  CA_4
    2  A    between atoms: C_1  and  C_27
    3  A    between atoms: CA_4  and  N_12
    4  A    between atoms: CA_4  and  C_37
    5  A    between atoms: C_8  and  N_12
    6  A    between atoms: C_23  and  C_30
                            x       y       z     vdW  Elec       q    Type
                         _______ _______ _______ _____ _____    ______ ____

>  <TORSDO>
F 6

$$$$
=
 OpenBabel11122411423D

 37 43  0  0  1  0  0  0  0  0999 V2000
  185.8800  179.1010  146.2810 C   0  0  0  0  0  0  0  0  0  0  0  0
  186.8170  177.5230  142.8930 N   0  0  1  0  0  0  0  0  0  0  0  0
  189.6120  175.8320  142.5190 O   0  0  0  0  0  0  0  0  0  0  0  0
  184.8680  178.0440  144.5020 C   0  0  2  0  0  3  0  0  0  0  0  0
  188.2230  177.6140  143.3280 C   0  0  2  0  0  3  0  0  0  0  0  0
  186.1130  177.2050  144.1580 C   0  0  2  0  0  3  0  0  0  0  0  0
  189.2370  177.1620  142.2700 C   0  0  2  0  0  3  0  0  0  0  0  0
  184.0790  178.2420  143.2320 C   0  0  0  0  0  2  0  0  0  0  0  0
  187.1450  177.1470  145.2720 C   0  0  2  0  0  3  0  0  0  0  0  0
  185.1630  178.2850  147.1460 F   0  0  0  0  0  0  0  0  0  0  0  0
  186.8620  178.8930  140.8160 C   0  0  0  0  0  2  0  0  0  0  0  0
  184.8940  179.0320  142.2180 C   0  0  0  0  0  2  0  0  0  0  0  0
  187.2530  178.5060  145.9960 C   0  0  0  0  0  2  0  0  0  0  0  0
  191.4070  177.0050  143.6040 O   0  0  0  0  0  0  0  0  0  0  0  0
  190.8620  175.7650  143.1990 C   0  0  1  0  0  3  0  0  0  0  0  0
  186.4180  178.8140  142.2780 C   0  0  1  0  0  3  0  0  0  0  0  0
  188.3660  176.8100  144.5450 N   0  0  2  0  0  0  0  0  0  0  0  0
  185.1910  179.2980  145.0670 O   0  0  0  0  0  0  0  0  0  0  0  0
  188.8200  177.3750  140.8180 C   0  0  1  0  0  3  0  0  0  0  0  0
  186.0590  180.3270  146.8900 F   0  0  0  0  0  0  0  0  0  0  0  0
  190.8170  176.2390  144.6310 C   0  0  2  0  0  3  0  0  0  0  0  0
  189.6530  177.0730  145.2220 C   0  0  2  0  0  3  0  0  0  0  0  0
  188.3620  178.8090  140.6110 C   0  0  0  0  0  2  0  0  0  0  0  0
  189.6480  176.4890  138.6320 C   0  0  0  0  0  3  0  0  0  0  0  0
  189.9430  177.0500  139.8810 C   0  0  0  0  0  0  0  0  0  0  0  0
  191.2810  177.2860  140.2360 C   0  0  0  0  0  3  0  0  0  0  0  0
  193.7250  177.2160  139.7260 C   0  0  0  0  0  1  0  0  0  0  0  0
  192.0100  176.4060  138.1010 C   0  0  0  0  0  3  0  0  0  0  0  0
  192.3110  176.9650  139.3460 C   0  0  0  0  0  0  0  0  0  0  0  0
  190.6780  176.1690  137.7440 C   0  0  0  0  0  3  0  0  0  0  0  0
  189.5890  176.7320  146.7200 C   0  0  0  0  0  2  0  0  0  0  0  0
  190.3210  177.7450  147.6080 C   0  0  1  0  0  3  0  0  0  0  0  0
  188.3130  177.8560  148.8440 O   0  0  0  0  0  0  0  0  0  0  0  0
  189.4590  178.2560  148.7180 C   0  0  0  0  0  3  0  0  0  0  0  0
  191.5460  177.1750  148.1510 N   0  0  0  0  0  2  0  0  0  0  0  0
  191.6220  175.7940  147.7020 C   0  0  0  0  0  2  0  0  0  0  0  0
  192.8060  175.5850  147.0200 F   0  0  0  0  0  0  0  0  0  0  0  0
  1 20  1  0  0  0  0
  1 10  1  0  0  0  0
  2  5  1  0  0  0  0
  2  6  1  0  0  0  0
  3 15  1  0  0  0  0
  4 18  1  0  0  0  0
  5 17  1  0  0  0  0
  6  4  1  0  0  0  0
  6  9  1  0  0  0  0
  7  3  1  0  0  0  0
  7  5  1  0  0  0  0
  8  4  1  0  0  0  0
  9 13  1  0  0  0  0
 11 16  1  0  0  0  0
 12 16  1  0  0  0  0
 12  8  1  0  0  0  0
 13  1  1  0  0  0  0
 14 21  1  0  0  0  0
 15 14  1  0  0  0  0
 15 21  1  0  0  0  0
 16  2  1  0  0  0  0
 17 22  1  0  0  0  0
 17  9  1  0  0  0  0
 18  1  1  0  0  0  0
 19  7  1  0  0  0  0
 21 22  1  0  0  0  0
 22 31  1  0  0  0  0
 23 11  1  0  0  0  0
 23 19  1  0  0  0  0
 24 25  1  0  0  0  0
 25 26  2  0  0  0  0
 25 19  1  0  0  0  0
 28 29  2  0  0  0  0
 29 27  1  0  0  0  0
 29 26  1  0  0  0  0
 30 28  1  0  0  0  0
 30 24  2  0  0  0  0
 31 32  1  0  0  0  0
 32 35  1  0  0  0  0
 32 34  1  0  0  0  0
 34 33  2  0  0  0  0
 36 35  1  0  0  0  0
 37 36  1  0  0  0  0
M  END
>  <MODEL>
4

>  <REMARK>
 VINA RESULT:      -8.8      3.081      7.563
  Name = 
  6 active torsions:
  status: ('A' for Active; 'I' for Inactive)
    1  A    between atoms: C_1  and  CA_4
    2  A    between atoms: C_1  and  C_27
    3  A    between atoms: CA_4  and  N_12
    4  A    between atoms: CA_4  and  C_37
    5  A    between atoms: C_8  and  N_12
    6  A    between atoms: C_23  and  C_30
                            x       y       z     vdW  Elec       q    Type
                         _______ _______ _______ _____ _____    ______ ____

>  <TORSDO>
F 6

$$$$
=
 OpenBabel11122411423D

 37 43  0  0  1  0  0  0  0  0999 V2000
  186.6470  177.3550  138.1510 C   0  0  0  0  0  0  0  0  0  0  0  0
  187.1860  178.5350  141.7780 N   0  0  1  0  0  0  0  0  0  0  0  0
  190.1770  178.5250  143.1440 O   0  0  0  0  0  0  0  0  0  0  0  0
  185.8630  178.9610  139.6050 C   0  0  2  0  0  3  0  0  0  0  0  0
  188.3820  177.6720  141.7990 C   0  0  2  0  0  3  0  0  0  0  0  0
  187.1860  179.0460  140.3870 C   0  0  2  0  0  3  0  0  0  0  0  0
  189.0990  177.6260  143.1540 C   0  0  2  0  0  3  0  0  0  0  0  0
  184.7450  179.3380  140.5430 C   0  0  0  0  0  2  0  0  0  0  0  0
  188.3740  178.4380  139.6600 C   0  0  2  0  0  3  0  0  0  0  0  0
  186.7780  178.3340  137.1740 F   0  0  0  0  0  0  0  0  0  0  0  0
  185.8570  177.5660  143.6470 C   0  0  0  0  0  2  0  0  0  0  0  0
  184.6590  178.3440  141.6930 C   0  0  0  0  0  2  0  0  0  0  0  0
  187.9600  177.1620  138.8970 C   0  0  0  0  0  2  0  0  0  0  0  0
  191.3050  176.4780  142.5810 O   0  0  0  0  0  0  0  0  0  0  0  0
  191.4080  177.8520  142.8960 C   0  0  1  0  0  3  0  0  0  0  0  0
  185.9970  177.7180  142.1310 C   0  0  1  0  0  3  0  0  0  0  0  0
  189.2950  178.1520  140.7570 N   0  0  2  0  0  0  0  0  0  0  0  0
  185.6250  177.6750  139.0680 O   0  0  0  0  0  0  0  0  0  0  0  0
  188.2100  177.8130  144.3800 C   0  0  1  0  0  3  0  0  0  0  0  0
  186.3240  176.1640  137.5290 F   0  0  0  0  0  0  0  0  0  0  0  0
  191.5610  177.3320  141.4880 C   0  0  2  0  0  3  0  0  0  0  0  0
  190.3800  177.1820  140.4970 C   0  0  2  0  0  3  0  0  0  0  0  0
  187.0240  176.8660  144.3160 C   0  0  0  0  0  2  0  0  0  0  0  0
  188.5100  178.1450  146.8390 C   0  0  0  0  0  3  0  0  0  0  0  0
  188.9840  177.5900  145.6440 C   0  0  0  0  0  0  0  0  0  0  0  0
  190.1740  176.8470  145.6490 C   0  0  0  0  0  3  0  0  0  0  0  0
  192.1420  175.8740  146.8420 C   0  0  0  0  0  1  0  0  0  0  0  0
  190.4030  177.2170  148.0310 C   0  0  0  0  0  3  0  0  0  0  0  0
  190.8810  176.6610  146.8420 C   0  0  0  0  0  0  0  0  0  0  0  0
  189.2170  177.9590  148.0300 C   0  0  0  0  0  3  0  0  0  0  0  0
  190.9690  177.3520  139.0870 C   0  0  0  0  0  2  0  0  0  0  0  0
  191.8900  176.2000  138.6680 C   0  0  1  0  0  3  0  0  0  0  0  0
  190.6100  174.3850  137.8690 O   0  0  0  0  0  0  0  0  0  0  0  0
  191.2910  175.3570  137.5880 C   0  0  0  0  0  3  0  0  0  0  0  0
  193.1920  176.6980  138.2470 N   0  0  0  0  0  2  0  0  0  0  0  0
  193.4240  176.2240  136.8920 C   0  0  0  0  0  2  0  0  0  0  0  0
  194.6400  175.5680  136.8260 F   0  0  0  0  0  0  0  0  0  0  0  0
  1 13  1  0  0  0  0
  1 18  1  0  0  0  0
  2  5  1  0  0  0  0
  2 16  1  0  0  0  0
  3  7  1  0  0  0  0
  4  6  1  0  0  0  0
  4  8  1  0  0  0  0
  5  7  1  0  0  0  0
  6  2  1  0  0  0  0
  7 19  1  0  0  0  0
  8 12  1  0  0  0  0
  9  6  1  0  0  0  0
  9 17  1  0  0  0  0
 10  1  1  0  0  0  0
 11 23  1  0  0  0  0
 12 16  1  0  0  0  0
 13  9  1  0  0  0  0
 14 15  1  0  0  0  0
 15  3  1  0  0  0  0
 16 11  1  0  0  0  0
 17  5  1  0  0  0  0
 18  4  1  0  0  0  0
 19 25  1  0  0  0  0
 20  1  1  0  0  0  0
 21 14  1  0  0  0  0
 21 15  1  0  0  0  0
 22 17  1  0  0  0  0
 22 21  1  0  0  0  0
 23 19  1  0  0  0  0
 24 30  1  0  0  0  0
 25 26  1  0  0  0  0
 25 24  2  0  0  0  0
 26 29  2  0  0  0  0
 27 29  1  0  0  0  0
 29 28  1  0  0  0  0
 30 28  2  0  0  0  0
 31 22  1  0  0  0  0
 32 31  1  0  0  0  0
 34 33  2  0  0  0  0
 34 32  1  0  0  0  0
 35 32  1  0  0  0  0
 36 35  1  0  0  0  0
 37 36  1  0  0  0  0
M  END
>  <MODEL>
5

>  <REMARK>
 VINA RESULT:      -8.4      3.075      6.525
  Name = 
  6 active torsions:
  status: ('A' for Active; 'I' for Inactive)
    1  A    between atoms: C_1  and  CA_4
    2  A    between atoms: C_1  and  C_27
    3  A    between atoms: CA_4  and  N_12
    4  A    between atoms: CA_4  and  C_37
    5  A    between atoms: C_8  and  N_12
    6  A    between atoms: C_23  and  C_30
                            x       y       z     vdW  Elec       q    Type
                         _______ _______ _______ _____ _____    ______ ____

>  <TORSDO>
F 6

$$$$
=
 OpenBabel11122411423D

 37 43  0  0  1  0  0  0  0  0999 V2000
  189.1470  178.6490  137.4190 C   0  0  0  0  0  0  0  0  0  0  0  0
  189.3630  177.0600  140.9220 N   0  0  1  0  0  0  0  0  0  0  0  0
  186.7960  177.1130  142.9760 O   0  0  0  0  0  0  0  0  0  0  0  0
  190.0860  176.8190  138.4570 C   0  0  2  0  0  3  0  0  0  0  0  0
  188.3000  177.9970  141.3280 C   0  0  2  0  0  3  0  0  0  0  0  0
  188.9830  176.7310  139.5280 C   0  0  2  0  0  3  0  0  0  0  0  0
  187.9320  177.9220  142.8150 C   0  0  2  0  0  3  0  0  0  0  0  0
  191.3490  176.2450  139.0450 C   0  0  0  0  0  2  0  0  0  0  0  0
  187.7240  177.5110  139.1850 C   0  0  2  0  0  3  0  0  0  0  0  0
  188.6900  177.8140  136.4080 F   0  0  0  0  0  0  0  0  0  0  0  0
  191.1870  177.6850  142.4960 C   0  0  0  0  0  2  0  0  0  0  0  0
  191.8050  177.0760  140.2370 C   0  0  0  0  0  2  0  0  0  0  0  0
  188.0740  178.8400  138.4830 C   0  0  0  0  0  2  0  0  0  0  0  0
  185.7810  179.2910  142.9290 O   0  0  0  0  0  0  0  0  0  0  0  0
  185.6160  177.8990  143.1120 C   0  0  1  0  0  3  0  0  0  0  0  0
  190.6780  177.7360  141.0540 C   0  0  1  0  0  3  0  0  0  0  0  0
  187.1230  177.7210  140.4990 N   0  0  2  0  0  0  0  0  0  0  0  0
  190.3180  178.1420  138.0170 O   0  0  0  0  0  0  0  0  0  0  0  0
  189.0620  177.5170  143.7580 C   0  0  1  0  0  3  0  0  0  0  0  0
  189.4320  179.8820  136.8670 F   0  0  0  0  0  0  0  0  0  0  0  0
  185.1890  178.6040  141.8480 C   0  0  2  0  0  3  0  0  0  0  0  0
  186.1110  178.7920  140.6180 C   0  0  2  0  0  3  0  0  0  0  0  0
  190.2890  178.3760  143.5030 C   0  0  0  0  0  2  0  0  0  0  0  0
  189.5450  177.2980  146.2000 C   0  0  0  0  0  3  0  0  0  0  0  0
  188.6360  177.6330  145.1890 C   0  0  0  0  0  0  0  0  0  0  0  0
  187.3430  178.0600  145.5340 C   0  0  0  0  0  3  0  0  0  0  0  0
  185.6000  178.6020  147.2380 C   0  0  0  0  0  1  0  0  0  0  0  0
  187.8810  177.8160  147.8820 C   0  0  0  0  0  3  0  0  0  0  0  0
  186.9690  178.1510  146.8780 C   0  0  0  0  0  0  0  0  0  0  0  0
  189.1700  177.3900  147.5430 C   0  0  0  0  0  3  0  0  0  0  0  0
  185.1910  178.8460  139.3870 C   0  0  0  0  0  2  0  0  0  0  0  0
  183.7460  178.4310  139.6870 C   0  0  1  0  0  3  0  0  0  0  0  0
  183.1480  180.5770  138.9070 O   0  0  0  0  0  0  0  0  0  0  0  0
  182.7640  179.5070  139.3520 C   0  0  0  0  0  3  0  0  0  0  0  0
  183.3980  177.2030  138.9860 N   0  0  0  0  0  2  0  0  0  0  0  0
  184.1700  177.1700  137.7540 C   0  0  0  0  0  2  0  0  0  0  0  0
  183.3800  177.5780  136.6940 F   0  0  0  0  0  0  0  0  0  0  0  0
  1 18  1  0  0  0  0
  1 13  1  0  0  0  0
  2 16  1  0  0  0  0
  2  5  1  0  0  0  0
  3 15  1  0  0  0  0
  4  8  1  0  0  0  0
  4  6  1  0  0  0  0
  5  7  1  0  0  0  0
  6  2  1  0  0  0  0
  7  3  1  0  0  0  0
  7 19  1  0  0  0  0
  8 12  1  0  0  0  0
  9  6  1  0  0  0  0
  9 17  1  0  0  0  0
 10  1  1  0  0  0  0
 11 23  1  0  0  0  0
 12 16  1  0  0  0  0
 13  9  1  0  0  0  0
 14 15  1  0  0  0  0
 16 11  1  0  0  0  0
 17 22  1  0  0  0  0
 17  5  1  0  0  0  0
 18  4  1  0  0  0  0
 19 25  1  0  0  0  0
 20  1  1  0  0  0  0
 21 14  1  0  0  0  0
 21 15  1  0  0  0  0
 22 21  1  0  0  0  0
 23 19  1  0  0  0  0
 24 30  1  0  0  0  0
 25 26  1  0  0  0  0
 25 24  2  0  0  0  0
 26 29  2  0  0  0  0
 29 27  1  0  0  0  0
 29 28  1  0  0  0  0
 30 28  2  0  0  0  0
 31 32  1  0  0  0  0
 31 22  1  0  0  0  0
 33 34  2  0  0  0  0
 34 32  1  0  0  0  0
 35 32  1  0  0  0  0
 36 35  1  0  0  0  0
 37 36  1  0  0  0  0
M  END
>  <MODEL>
6

>  <REMARK>
 VINA RESULT:      -8.3      2.851      6.139
  Name = 
  6 active torsions:
  status: ('A' for Active; 'I' for Inactive)
    1  A    between atoms: C_1  and  CA_4
    2  A    between atoms: C_1  and  C_27
    3  A    between atoms: CA_4  and  N_12
    4  A    between atoms: CA_4  and  C_37
    5  A    between atoms: C_8  and  N_12
    6  A    between atoms: C_23  and  C_30
                            x       y       z     vdW  Elec       q    Type
                         _______ _______ _______ _____ _____    ______ ____

>  <TORSDO>
F 6

$$$$
=
 OpenBabel11122411423D

 37 43  0  0  1  0  0  0  0  0999 V2000
  189.1760  178.4550  137.1750 C   0  0  0  0  0  0  0  0  0  0  0  0
  190.2010  176.7020  140.4490 N   0  0  1  0  0  0  0  0  0  0  0  0
  188.1580  176.5730  143.0220 O   0  0  0  0  0  0  0  0  0  0  0  0
  190.3590  176.6060  137.8760 C   0  0  2  0  0  3  0  0  0  0  0  0
  189.2370  177.5850  141.1320 C   0  0  2  0  0  3  0  0  0  0  0  0
  189.5260  176.4310  139.1580 C   0  0  2  0  0  3  0  0  0  0  0  0
  189.2120  177.4250  142.6570 C   0  0  2  0  0  3  0  0  0  0  0  0
  191.7330  176.0440  138.1370 C   0  0  0  0  0  2  0  0  0  0  0  0
  188.2070  177.1870  139.1470 C   0  0  2  0  0  3  0  0  0  0  0  0
  188.5210  177.6570  136.2460 F   0  0  0  0  0  0  0  0  0  0  0  0
  192.3180  177.3060  141.6120 C   0  0  0  0  0  2  0  0  0  0  0  0
  192.4270  176.8290  139.2410 C   0  0  0  0  0  2  0  0  0  0  0  0
  188.3650  178.5600  138.4590 C   0  0  0  0  0  2  0  0  0  0  0  0
  187.1140  178.7180  143.3220 O   0  0  0  0  0  0  0  0  0  0  0  0
  187.0230  177.3140  143.4600 C   0  0  1  0  0  3  0  0  0  0  0  0
  191.4990  177.4130  140.3240 C   0  0  1  0  0  3  0  0  0  0  0  0
  187.9110  177.3130  140.5710 N   0  0  2  0  0  0  0  0  0  0  0  0
  190.4610  177.9550  137.4690 O   0  0  0  0  0  0  0  0  0  0  0  0
  190.5320  177.0090  143.3020 C   0  0  1  0  0  3  0  0  0  0  0  0
  189.3070  179.7220  136.6420 F   0  0  0  0  0  0  0  0  0  0  0  0
  186.3100  178.0660  142.3630 C   0  0  2  0  0  3  0  0  0  0  0  0
  186.9300  178.3440  140.9720 C   0  0  2  0  0  3  0  0  0  0  0  0
  191.6540  177.9180  142.8290 C   0  0  0  0  0  2  0  0  0  0  0  0
  189.3640  177.7160  145.3950 C   0  0  0  0  0  3  0  0  0  0  0  0
  190.4340  177.0410  144.7970 C   0  0  0  0  0  0  0  0  0  0  0  0
  191.3990  176.4180  145.6040 C   0  0  0  0  0  3  0  0  0  0  0  0
  192.3130  175.8100  147.8480 C   0  0  0  0  0  1  0  0  0  0  0  0
  190.2180  177.1460  147.5890 C   0  0  0  0  0  3  0  0  0  0  0  0
  191.2890  176.4710  146.9980 C   0  0  0  0  0  0  0  0  0  0  0  0
  189.2550  177.7680  146.7880 C   0  0  0  0  0  3  0  0  0  0  0  0
  185.7580  178.4300  139.9800 C   0  0  0  0  0  2  0  0  0  0  0  0
  184.4300  178.8270  140.6380 C   0  0  1  0  0  3  0  0  0  0  0  0
  184.1700  180.4490  138.9430 O   0  0  0  0  0  0  0  0  0  0  0  0
  183.6240  179.7490  139.7800 C   0  0  0  0  0  3  0  0  0  0  0  0
  183.6440  177.6500  140.9800 N   0  0  0  0  0  2  0  0  0  0  0  0
  182.9080  177.2560  139.7910 C   0  0  0  0  0  2  0  0  0  0  0  0
  183.1910  175.9390  139.4780 F   0  0  0  0  0  0  0  0  0  0  0  0
  1 18  1  0  0  0  0
  1 13  1  0  0  0  0
  2  5  1  0  0  0  0
  3 15  1  0  0  0  0
  4  8  1  0  0  0  0
  4  6  1  0  0  0  0
  5  7  1  0  0  0  0
  6  2  1  0  0  0  0
  7  3  1  0  0  0  0
  7 19  1  0  0  0  0
  8 12  1  0  0  0  0
  9  6  1  0  0  0  0
  9 17  1  0  0  0  0
 10  1  1  0  0  0  0
 11 23  1  0  0  0  0
 12 16  1  0  0  0  0
 13  9  1  0  0  0  0
 14 15  1  0  0  0  0
 16  2  1  0  0  0  0
 16 11  1  0  0  0  0
 17 22  1  0  0  0  0
 17  5  1  0  0  0  0
 18  4  1  0  0  0  0
 19 25  1  0  0  0  0
 20  1  1  0  0  0  0
 21 14  1  0  0  0  0
 21 15  1  0  0  0  0
 22 21  1  0  0  0  0
 23 19  1  0  0  0  0
 24 30  1  0  0  0  0
 25 24  2  0  0  0  0
 25 26  1  0  0  0  0
 26 29  2  0  0  0  0
 29 28  1  0  0  0  0
 29 27  1  0  0  0  0
 30 28  2  0  0  0  0
 31 32  1  0  0  0  0
 31 22  1  0  0  0  0
 32 35  1  0  0  0  0
 33 34  2  0  0  0  0
 34 32  1  0  0  0  0
 36 35  1  0  0  0  0
 37 36  1  0  0  0  0
M  END
>  <MODEL>
7

>  <REMARK>
 VINA RESULT:      -8.2      3.061      7.196
  Name = 
  6 active torsions:
  status: ('A' for Active; 'I' for Inactive)
    1  A    between atoms: C_1  and  CA_4
    2  A    between atoms: C_1  and  C_27
    3  A    between atoms: CA_4  and  N_12
    4  A    between atoms: CA_4  and  C_37
    5  A    between atoms: C_8  and  N_12
    6  A    between atoms: C_23  and  C_30
                            x       y       z     vdW  Elec       q    Type
                         _______ _______ _______ _____ _____    ______ ____

>  <TORSDO>
F 6

$$$$
=
 OpenBabel11122411423D

 37 43  0  0  1  0  0  0  0  0999 V2000
  190.6080  176.4170  138.2550 C   0  0  0  0  0  0  0  0  0  0  0  0
  187.6640  178.5960  139.4490 N   0  0  1  0  0  0  0  0  0  0  0  0
  186.8530  178.7660  142.6320 O   0  0  0  0  0  0  0  0  0  0  0  0
  189.6240  178.4450  137.7780 C   0  0  2  0  0  3  0  0  0  0  0  0
  187.5630  177.6890  140.6080 C   0  0  2  0  0  3  0  0  0  0  0  0
  189.1270  178.6590  139.2200 C   0  0  2  0  0  3  0  0  0  0  0  0
  186.3930  178.0000  141.5480 C   0  0  2  0  0  3  0  0  0  0  0  0
  188.6860  179.1760  136.8520 C   0  0  0  0  0  2  0  0  0  0  0  0
  189.8050  177.7680  140.2470 C   0  0  2  0  0  3  0  0  0  0  0  0
  191.8490  177.0400  138.2400 F   0  0  0  0  0  0  0  0  0  0  0  0
  185.4010  178.3470  138.4420 C   0  0  0  0  0  2  0  0  0  0  0  0
  187.2850  178.5880  136.9420 C   0  0  0  0  0  2  0  0  0  0  0  0
  190.0550  176.3570  139.6730 C   0  0  0  0  0  2  0  0  0  0  0  0
  186.9190  176.5630  143.5910 O   0  0  0  0  0  0  0  0  0  0  0  0
  187.0700  177.9550  143.7830 C   0  0  1  0  0  3  0  0  0  0  0  0
  186.8910  178.0210  138.3190 C   0  0  1  0  0  3  0  0  0  0  0  0
  188.8340  177.7570  141.3370 N   0  0  2  0  0  0  0  0  0  0  0  0
  189.6880  177.0800  137.4180 O   0  0  0  0  0  0  0  0  0  0  0  0
  185.1620  178.6200  140.8930 C   0  0  1  0  0  3  0  0  0  0  0  0
  190.7670  175.1230  137.7990 F   0  0  0  0  0  0  0  0  0  0  0  0
  188.2500  177.0220  143.6740 C   0  0  2  0  0  3  0  0  0  0  0  0
  188.9450  176.6720  142.3350 C   0  0  2  0  0  3  0  0  0  0  0  0
  184.7400  177.7950  139.6890 C   0  0  0  0  0  2  0  0  0  0  0  0
  182.7170  178.7720  141.3860 C   0  0  0  0  0  3  0  0  0  0  0  0
  184.0310  178.7310  141.8690 C   0  0  0  0  0  0  0  0  0  0  0  0
  184.2640  178.8050  143.2510 C   0  0  0  0  0  3  0  0  0  0  0  0
  183.4410  178.9950  145.6020 C   0  0  0  0  0  1  0  0  0  0  0  0
  181.8810  178.9570  143.6520 C   0  0  0  0  0  3  0  0  0  0  0  0
  183.1900  178.9170  144.1390 C   0  0  0  0  0  0  0  0  0  0  0  0
  181.6440  178.8840  142.2750 C   0  0  0  0  0  3  0  0  0  0  0  0
  190.4120  176.3590  142.6730 C   0  0  0  0  0  2  0  0  0  0  0  0
  190.8880  177.0050  143.9800 C   0  0  1  0  0  3  0  0  0  0  0  0
  192.0500  174.9900  144.3790 O   0  0  0  0  0  0  0  0  0  0  0  0
  191.6660  176.0550  144.8330 C   0  0  0  0  0  3  0  0  0  0  0  0
  191.6790  178.1990  143.7150 N   0  0  0  0  0  2  0  0  0  0  0  0
  190.8330  179.3510  143.9830 C   0  0  0  0  0  2  0  0  0  0  0  0
  190.0760  179.1240  145.1170 F   0  0  0  0  0  0  0  0  0  0  0  0
  1 13  1  0  0  0  0
  2  5  1  0  0  0  0
  3 15  1  0  0  0  0
  4  6  1  0  0  0  0
  5 17  1  0  0  0  0
  5  7  1  0  0  0  0
  6  2  1  0  0  0  0
  6  9  1  0  0  0  0
  7  3  1  0  0  0  0
  8 12  1  0  0  0  0
  8  4  1  0  0  0  0
  9 17  1  0  0  0  0
 10  1  1  0  0  0  0
 11 23  1  0  0  0  0
 12 16  1  0  0  0  0
 13  9  1  0  0  0  0
 14 21  1  0  0  0  0
 14 15  1  0  0  0  0
 16 11  1  0  0  0  0
 16  2  1  0  0  0  0
 17 22  1  0  0  0  0
 18  4  1  0  0  0  0
 18  1  1  0  0  0  0
 19  7  1  0  0  0  0
 19 25  1  0  0  0  0
 20  1  1  0  0  0  0
 21 15  1  0  0  0  0
 22 31  1  0  0  0  0
 22 21  1  0  0  0  0
 23 19  1  0  0  0  0
 24 25  2  0  0  0  0
 24 30  1  0  0  0  0
 25 26  1  0  0  0  0
 26 29  2  0  0  0  0
 28 29  1  0  0  0  0
 29 27  1  0  0  0  0
 30 28  2  0  0  0  0
 31 32  1  0  0  0  0
 32 34  1  0  0  0  0
 33 34  2  0  0  0  0
 35 32  1  0  0  0  0
 35 36  1  0  0  0  0
 36 37  1  0  0  0  0
M  END
>  <MODEL>
8

>  <REMARK>
 VINA RESULT:      -8.1      1.860      5.594
  Name = 
  6 active torsions:
  status: ('A' for Active; 'I' for Inactive)
    1  A    between atoms: C_1  and  CA_4
    2  A    between atoms: C_1  and  C_27
    3  A    between atoms: CA_4  and  N_12
    4  A    between atoms: CA_4  and  C_37
    5  A    between atoms: C_8  and  N_12
    6  A    between atoms: C_23  and  C_30
                            x       y       z     vdW  Elec       q    Type
                         _______ _______ _______ _____ _____    ______ ____

>  <TORSDO>
F 6

$$$$
=
 OpenBabel11122411423D

 37 43  0  0  1  0  0  0  0  0999 V2000
  183.7240  178.2490  140.8130 C   0  0  0  0  0  0  0  0  0  0  0  0
  186.1840  178.7570  143.7340 N   0  0  1  0  0  0  0  0  0  0  0  0
  189.4270  178.4270  143.3040 O   0  0  0  0  0  0  0  0  0  0  0  0
  183.9900  179.5940  142.6650 C   0  0  2  0  0  3  0  0  0  0  0  0
  187.1110  177.8730  143.0050 C   0  0  2  0  0  3  0  0  0  0  0  0
  185.5270  179.5050  142.6360 C   0  0  2  0  0  3  0  0  0  0  0  0
  188.4120  177.5700  143.7580 C   0  0  2  0  0  3  0  0  0  0  0  0
  183.5670  179.8300  144.0920 C   0  0  0  0  0  2  0  0  0  0  0  0
  186.0930  179.0030  141.3170 C   0  0  2  0  0  3  0  0  0  0  0  0
  183.4460  179.3810  140.0580 F   0  0  0  0  0  0  0  0  0  0  0  0
  185.9040  177.5100  145.8700 C   0  0  0  0  0  2  0  0  0  0  0  0
  183.9710  178.6520  144.9670 C   0  0  0  0  0  2  0  0  0  0  0  0
  185.2010  177.8930  140.7220 C   0  0  0  0  0  2  0  0  0  0  0  0
  189.8610  176.4820  141.9600 O   0  0  0  0  0  0  0  0  0  0  0  0
  190.2680  177.7760  142.3560 C   0  0  1  0  0  3  0  0  0  0  0  0
  185.2610  177.9230  144.5450 C   0  0  1  0  0  3  0  0  0  0  0  0
  187.4060  178.5040  141.7150 N   0  0  2  0  0  0  0  0  0  0  0  0
  183.3640  178.4300  142.1640 O   0  0  0  0  0  0  0  0  0  0  0  0
  188.3100  177.5620  145.2800 C   0  0  1  0  0  3  0  0  0  0  0  0
  182.9930  177.1960  140.3000 F   0  0  0  0  0  0  0  0  0  0  0  0
  189.6130  177.5080  141.0240 C   0  0  2  0  0  3  0  0  0  0  0  0
  188.0830  177.5670  140.7930 C   0  0  2  0  0  3  0  0  0  0  0  0
  187.1600  176.6730  145.7220 C   0  0  0  0  0  2  0  0  0  0  0  0
  189.9820  177.6350  147.1370 C   0  0  0  0  0  3  0  0  0  0  0  0
  189.5920  177.0990  145.9040 C   0  0  0  0  0  0  0  0  0  0  0  0
  190.4090  176.1490  145.2710 C   0  0  0  0  0  3  0  0  0  0  0  0
  192.4680  174.7360  145.1970 C   0  0  0  0  0  1  0  0  0  0  0  0
  191.9890  176.2800  147.1020 C   0  0  0  0  0  3  0  0  0  0  0  0
  191.6050  175.7410  145.8710 C   0  0  0  0  0  0  0  0  0  0  0  0
  191.1770  177.2260  147.7350 C   0  0  0  0  0  3  0  0  0  0  0  0
  187.8770  177.9670  139.3230 C   0  0  0  0  0  2  0  0  0  0  0  0
  188.5570  177.0150  138.3310 C   0  0  1  0  0  3  0  0  0  0  0  0
  186.4110  176.5450  137.4680 O   0  0  0  0  0  0  0  0  0  0  0  0
  187.5720  176.1820  137.5750 C   0  0  0  0  0  3  0  0  0  0  0  0
  189.4070  177.7460  137.4030 N   0  0  0  0  0  2  0  0  0  0  0  0
  189.0520  179.1530  137.5010 C   0  0  0  0  0  2  0  0  0  0  0  0
  188.1400  179.4770  136.5140 F   0  0  0  0  0  0  0  0  0  0  0  0
  1 18  1  0  0  0  0
  2 16  1  0  0  0  0
  3  7  1  0  0  0  0
  4  8  1  0  0  0  0
  5  2  1  0  0  0  0
  5  7  1  0  0  0  0
  6  4  1  0  0  0  0
  6  2  1  0  0  0  0
  7 19  1  0  0  0  0
  8 12  1  0  0  0  0
  9 17  1  0  0  0  0
  9  6  1  0  0  0  0
 10  1  1  0  0  0  0
 13  1  1  0  0  0  0
 13  9  1  0  0  0  0
 14 15  1  0  0  0  0
 15  3  1  0  0  0  0
 16 12  1  0  0  0  0
 16 11  1  0  0  0  0
 17  5  1  0  0  0  0
 18  4  1  0  0  0  0
 19 23  1  0  0  0  0
 19 25  1  0  0  0  0
 20  1  1  0  0  0  0
 21 14  1  0  0  0  0
 21 15  1  0  0  0  0
 22 21  1  0  0  0  0
 22 17  1  0  0  0  0
 23 11  1  0  0  0  0
 24 30  1  0  0  0  0
 25 24  2  0  0  0  0
 26 29  2  0  0  0  0
 26 25  1  0  0  0  0
 27 29  1  0  0  0  0
 28 30  2  0  0  0  0
 29 28  1  0  0  0  0
 31 22  1  0  0  0  0
 32 31  1  0  0  0  0
 33 34  2  0  0  0  0
 34 32  1  0  0  0  0
 35 36  1  0  0  0  0
 35 32  1  0  0  0  0
 37 36  1  0  0  0  0
M  END
>  <MODEL>
9

>  <REMARK>
 VINA RESULT:      -7.8      2.809      6.382
  Name = 
  6 active torsions:
  status: ('A' for Active; 'I' for Inactive)
    1  A    between atoms: C_1  and  CA_4
    2  A    between atoms: C_1  and  C_27
    3  A    between atoms: CA_4  and  N_12
    4  A    between atoms: CA_4  and  C_37
    5  A    between atoms: C_8  and  N_12
    6  A    between atoms: C_23  and  C_30
                            x       y       z     vdW  Elec       q    Type
                         _______ _______ _______ _____ _____    ______ ____

>  <TORSDO>
F 6

$$$$
