=
 OpenBabel11122410223D

 30 35  0  0  1  0  0  0  0  0999 V2000
  189.3690  177.4400  143.5380 C   0  0  1  0  0  3  0  0  0  0  0  0
  191.3090  176.5540  144.9350 C   0  0  0  0  0  0  0  0  0  0  0  0
  186.9910  177.9420  147.1360 C   0  0  0  0  0  2  0  0  0  0  0  0
  188.0810  178.2900  143.6290 C   0  0  1  0  0  3  0  0  0  0  0  0
  190.2440  178.0210  142.6010 O   0  0  0  0  0  0  0  0  0  0  0  0
  187.8210  178.4060  139.9930 O   0  0  0  0  0  0  0  0  0  0  0  0
  185.0270  177.9010  142.6190 C   0  0  1  0  0  3  0  0  0  0  0  0
  188.2850  178.2000  141.1470 C   0  0  0  0  0  0  0  0  0  0  0  0
  184.7530  177.8960  144.1110 C   0  0  2  0  0  3  0  0  0  0  0  0
  185.7580  178.2910  146.3850 C   0  0  0  0  0  0  0  0  0  0  0  0
  189.7280  177.7780  141.3010 C   0  0  2  0  0  3  0  0  0  0  0  0
  187.4420  178.3350  142.3090 N   0  0  0  0  0  0  0  0  0  0  0  0
  191.8670  176.2010  146.1680 C   0  0  0  0  0  3  0  0  0  0  0  0
  183.6080  178.8710  144.2700 C   0  0  0  0  0  2  0  0  0  0  0  0
  183.6900  178.2610  142.0030 C   0  0  0  0  0  2  0  0  0  0  0  0
  192.0090  176.2960  143.8020 F   0  0  0  0  0  0  0  0  0  0  0  0
  187.9920  178.0380  146.0090 C   0  0  2  0  0  3  0  0  0  0  0  0
  191.1620  176.4260  147.3520 C   0  0  0  0  0  3  0  0  0  0  0  0
  190.0370  177.1530  144.8790 C   0  0  0  0  0  0  0  0  0  0  0  0
  187.2340  177.6840  144.7440 C   0  0  1  0  0  3  0  0  0  0  0  0
  184.6680  178.5540  146.9580 O   0  0  0  0  0  0  0  0  0  0  0  0
  185.9010  178.2380  144.9600 N   0  0  0  0  0  0  0  0  0  0  0  0
  182.8370  178.8480  143.0350 N   0  0  0  0  0  2  0  0  0  0  0  0
  185.9860  180.3060  142.6610 C   0  0  0  0  0  1  0  0  0  0  0  0
  189.8880  176.9960  147.3120 C   0  0  0  0  0  3  0  0  0  0  0  0
  189.3090  177.3290  146.0830 C   0  0  0  0  0  0  0  0  0  0  0  0
  186.1010  178.8800  142.1290 C   0  0  2  0  0  3  0  0  0  0  0  0
  189.9290  176.3270  140.8700 C   0  0  0  0  0  2  0  0  0  0  0  0
  191.5200  177.0540  139.5280 C   0  0  0  0  0  1  0  0  0  0  0  0
  190.3600  176.2830  139.5440 O   0  0  0  0  0  0  0  0  0  0  0  0
  1  5  1  6  0  0  0
  1  4  1  0  0  0  0
  1 19  1  0  0  0  0
  2 13  1  0  0  0  0
  4 12  1  6  0  0  0
  4 20  1  0  0  0  0
  6  8  2  0  0  0  0
  7 15  1  6  0  0  0
  7  9  1  0  0  0  0
  8 11  1  0  0  0  0
  8 12  1  0  0  0  0
  9 14  1  6  0  0  0
  9 22  1  0  0  0  0
 10 21  2  0  0  0  0
 10  3  1  0  0  0  0
 11 28  1  1  0  0  0
 11  5  1  0  0  0  0
 13 18  2  0  0  0  0
 15 23  1  0  0  0  0
 16  2  1  0  0  0  0
 17 26  1  0  0  0  0
 17  3  1  1  0  0  0
 19  2  2  0  0  0  0
 19 26  1  0  0  0  0
 20 22  1  1  0  0  0
 20 17  1  0  0  0  0
 22 10  1  0  0  0  0
 23 14  1  0  0  0  0
 25 18  1  0  0  0  0
 26 25  2  0  0  0  0
 27 12  1  0  0  0  0
 27  7  1  0  0  0  0
 27 24  1  1  0  0  0
 29 30  1  0  0  0  0
 30 28  1  0  0  0  0
M  END
>  <MODEL>
1

>  <REMARK>
 VINA RESULT:      -9.2      0.000      0.000
  Name = 
  2 active torsions:
  status: ('A' for Active; 'I' for Inactive)
    1  A    between atoms: C_11  and  C_28
    2  A    between atoms: C_28  and  O_30
                            x       y       z     vdW  Elec       q    Type
                         _______ _______ _______ _____ _____    ______ ____

>  <TORSDO>
F 2

$$$$
=
 OpenBabel11122410223D

 30 35  0  0  1  0  0  0  0  0999 V2000
  187.3370  178.1310  140.5790 C   0  0  1  0  0  3  0  0  0  0  0  0
  185.0100  178.8000  139.7760 C   0  0  0  0  0  0  0  0  0  0  0  0
  185.8810  177.9290  144.6650 C   0  0  0  0  0  2  0  0  0  0  0  0
  188.0770  177.4340  141.7430 C   0  0  1  0  0  3  0  0  0  0  0  0
  187.6080  177.4470  139.3790 O   0  0  0  0  0  0  0  0  0  0  0  0
  191.1620  177.3220  139.7980 O   0  0  0  0  0  0  0  0  0  0  0  0
  190.6720  178.1620  143.5420 C   0  0  1  0  0  3  0  0  0  0  0  0
  189.9470  177.4820  140.0950 C   0  0  0  0  0  0  0  0  0  0  0  0
  189.6340  178.2090  144.6480 C   0  0  2  0  0  3  0  0  0  0  0  0
  187.2360  177.7180  145.2350 C   0  0  0  0  0  0  0  0  0  0  0  0
  188.9430  177.7380  138.9950 C   0  0  2  0  0  3  0  0  0  0  0  0
  189.5200  177.4530  141.4720 N   0  0  0  0  0  0  0  0  0  0  0  0
  183.6680  179.0960  140.0300 C   0  0  0  0  0  3  0  0  0  0  0  0
  190.2430  177.3720  145.7500 C   0  0  0  0  0  2  0  0  0  0  0  0
  191.9800  177.9520  144.2770 C   0  0  0  0  0  2  0  0  0  0  0  0
  185.4920  178.9690  138.5190 F   0  0  0  0  0  0  0  0  0  0  0  0
  186.2010  177.7120  143.2050 C   0  0  2  0  0  3  0  0  0  0  0  0
  183.1460  178.9610  141.3180 C   0  0  0  0  0  3  0  0  0  0  0  0
  185.8450  178.3490  140.8150 C   0  0  0  0  0  0  0  0  0  0  0  0
  187.6440  178.1410  143.0240 C   0  0  1  0  0  3  0  0  0  0  0  0
  187.4360  177.5850  146.4720 O   0  0  0  0  0  0  0  0  0  0  0  0
  188.2940  177.7440  144.2690 N   0  0  0  0  0  0  0  0  0  0  0  0
  191.6920  177.4740  145.6290 N   0  0  0  0  0  2  0  0  0  0  0  0
  190.2200  175.6630  143.0320 C   0  0  0  0  0  1  0  0  0  0  0  0
  183.9680  178.5400  142.3650 C   0  0  0  0  0  3  0  0  0  0  0  0
  185.3190  178.2660  142.1290 C   0  0  0  0  0  0  0  0  0  0  0  0
  190.4910  177.0640  142.4880 C   0  0  2  0  0  3  0  0  0  0  0  0
  189.0810  179.1530  138.4390 C   0  0  0  0  0  2  0  0  0  0  0  0
  189.0910  178.2470  136.4290 C   0  0  0  0  0  1  0  0  0  0  0  0
  188.4660  179.2330  137.1890 O   0  0  0  0  0  0  0  0  0  0  0  0
  1  5  1  6  0  0  0
  1 19  1  0  0  0  0
  1  4  1  0  0  0  0
  2 13  2  0  0  0  0
  2 19  1  0  0  0  0
  3 10  1  0  0  0  0
  4 12  1  6  0  0  0
  4 20  1  0  0  0  0
  6  8  2  0  0  0  0
  7 15  1  1  0  0  0
  7  9  1  0  0  0  0
  8 12  1  0  0  0  0
  9 14  1  1  0  0  0
 10 21  2  0  0  0  0
 11 28  1  1  0  0  0
 11  5  1  0  0  0  0
 11  8  1  0  0  0  0
 12 27  1  0  0  0  0
 13 18  1  0  0  0  0
 15 23  1  0  0  0  0
 16  2  1  0  0  0  0
 17  3  1  1  0  0  0
 18 25  2  0  0  0  0
 19 26  2  0  0  0  0
 20 17  1  0  0  0  0
 20 22  1  1  0  0  0
 22  9  1  0  0  0  0
 22 10  1  0  0  0  0
 23 14  1  0  0  0  0
 26 25  1  0  0  0  0
 26 17  1  0  0  0  0
 27 24  1  1  0  0  0
 27  7  1  0  0  0  0
 29 30  1  0  0  0  0
 30 28  1  0  0  0  0
M  END
>  <MODEL>
2

>  <REMARK>
 VINA RESULT:      -9.1      2.629      5.721
  Name = 
  2 active torsions:
  status: ('A' for Active; 'I' for Inactive)
    1  A    between atoms: C_11  and  C_28
    2  A    between atoms: C_28  and  O_30
                            x       y       z     vdW  Elec       q    Type
                         _______ _______ _______ _____ _____    ______ ____

>  <TORSDO>
F 2

$$$$
=
 OpenBabel11122410223D

 30 35  0  0  1  0  0  0  0  0999 V2000
  186.4550  178.3290  142.5610 C   0  0  1  0  0  3  0  0  0  0  0  0
  187.1260  178.1670  145.0170 C   0  0  0  0  0  0  0  0  0  0  0  0
  182.2980  178.8130  143.7150 C   0  0  0  0  0  2  0  0  0  0  0  0
  185.3390  178.8490  141.6280 C   0  0  1  0  0  3  0  0  0  0  0  0
  187.6740  178.9460  142.2190 O   0  0  0  0  0  0  0  0  0  0  0  0
  187.4500  178.3200  138.7000 O   0  0  0  0  0  0  0  0  0  0  0  0
  183.6790  177.5850  139.1500 C   0  0  1  0  0  3  0  0  0  0  0  0
  187.0860  178.4170  139.9030 C   0  0  0  0  0  0  0  0  0  0  0  0
  182.5180  177.7520  140.1120 C   0  0  2  0  0  3  0  0  0  0  0  0
  181.8040  178.7330  142.3170 C   0  0  0  0  0  0  0  0  0  0  0  0
  188.1280  178.3830  140.9980 C   0  0  2  0  0  3  0  0  0  0  0  0
  185.6880  178.5290  140.2390 N   0  0  0  0  0  0  0  0  0  0  0  0
  186.7960  178.1580  146.3760 C   0  0  0  0  0  3  0  0  0  0  0  0
  181.4570  178.4370  139.2800 C   0  0  0  0  0  2  0  0  0  0  0  0
  183.0180  177.5120  137.7880 C   0  0  0  0  0  2  0  0  0  0  0  0
  188.4060  177.9060  144.6510 F   0  0  0  0  0  0  0  0  0  0  0  0
  183.7750  178.9650  143.4370 C   0  0  2  0  0  3  0  0  0  0  0  0
  185.4820  178.3940  146.7860 C   0  0  0  0  0  3  0  0  0  0  0  0
  186.1360  178.4270  144.0500 C   0  0  0  0  0  0  0  0  0  0  0  0
  184.0310  178.2430  142.1290 C   0  0  1  0  0  3  0  0  0  0  0  0
  180.5810  178.8150  142.0260 O   0  0  0  0  0  0  0  0  0  0  0  0
  182.8270  178.4890  141.3430 N   0  0  0  0  0  0  0  0  0  0  0  0
  181.6560  178.0340  137.8940 N   0  0  0  0  0  2  0  0  0  0  0  0
  184.1810  180.1250  139.0940 C   0  0  0  0  0  1  0  0  0  0  0  0
  184.4850  178.6280  145.8380 C   0  0  0  0  0  3  0  0  0  0  0  0
  184.7970  178.6130  144.4750 C   0  0  0  0  0  0  0  0  0  0  0  0
  184.7300  178.7010  139.1530 C   0  0  2  0  0  3  0  0  0  0  0  0
  188.6810  176.9730  141.1910 C   0  0  0  0  0  2  0  0  0  0  0  0
  190.1790  176.0160  142.4950 C   0  0  0  0  0  1  0  0  0  0  0  0
  190.0240  177.0370  141.5600 O   0  0  0  0  0  0  0  0  0  0  0  0
  1  5  1  1  0  0  0
  1 19  1  0  0  0  0
  2 13  1  0  0  0  0
  4 12  1  6  0  0  0
  4 20  1  0  0  0  0
  4  1  1  0  0  0  0
  6  8  2  0  0  0  0
  7 15  1  6  0  0  0
  7 27  1  0  0  0  0
  7  9  1  0  0  0  0
  8 12  1  0  0  0  0
  8 11  1  0  0  0  0
  9 14  1  6  0  0  0
  9 22  1  0  0  0  0
 10  3  1  0  0  0  0
 11 28  1  1  0  0  0
 11  5  1  0  0  0  0
 13 18  2  0  0  0  0
 15 23  1  0  0  0  0
 16  2  1  0  0  0  0
 17  3  1  1  0  0  0
 17 26  1  0  0  0  0
 19 26  1  0  0  0  0
 19  2  2  0  0  0  0
 20 22  1  6  0  0  0
 20 17  1  0  0  0  0
 21 10  2  0  0  0  0
 22 10  1  0  0  0  0
 23 14  1  0  0  0  0
 25 18  1  0  0  0  0
 26 25  2  0  0  0  0
 27 24  1  1  0  0  0
 27 12  1  0  0  0  0
 28 30  1  0  0  0  0
 30 29  1  0  0  0  0
M  END
>  <MODEL>
3

>  <REMARK>
 VINA RESULT:      -9.0      2.543      4.297
  Name = 
  2 active torsions:
  status: ('A' for Active; 'I' for Inactive)
    1  A    between atoms: C_11  and  C_28
    2  A    between atoms: C_28  and  O_30
                            x       y       z     vdW  Elec       q    Type
                         _______ _______ _______ _____ _____    ______ ____

>  <TORSDO>
F 2

$$$$
=
 OpenBabel11122410223D

 30 35  0  0  1  0  0  0  0  0999 V2000
  188.1860  177.8190  142.4690 C   0  0  1  0  0  3  0  0  0  0  0  0
  187.0830  177.9370  144.7650 C   0  0  0  0  0  0  0  0  0  0  0  0
  184.4460  178.9870  140.5980 C   0  0  0  0  0  2  0  0  0  0  0  0
  188.0520  178.3320  141.0170 C   0  0  1  0  0  3  0  0  0  0  0  0
  189.4300  178.2200  142.9910 O   0  0  0  0  0  0  0  0  0  0  0  0
  191.3940  177.1150  140.2090 O   0  0  0  0  0  0  0  0  0  0  0  0
  188.1600  176.9340  138.0960 C   0  0  1  0  0  3  0  0  0  0  0  0
  190.3730  177.4340  140.8750 C   0  0  0  0  0  0  0  0  0  0  0  0
  186.7120  177.3860  138.0560 C   0  0  2  0  0  3  0  0  0  0  0  0
  184.9570  178.7640  139.2220 C   0  0  0  0  0  0  0  0  0  0  0  0
  190.4420  177.4300  142.3840 C   0  0  2  0  0  3  0  0  0  0  0  0
  189.1390  177.7690  140.2080 N   0  0  0  0  0  0  0  0  0  0  0  0
  185.9670  178.1710  145.5740 C   0  0  0  0  0  3  0  0  0  0  0  0
  186.5850  178.0690  136.7120 C   0  0  0  0  0  2  0  0  0  0  0  0
  188.5250  176.7450  136.6370 C   0  0  0  0  0  2  0  0  0  0  0  0
  188.2200  177.4670  145.3370 F   0  0  0  0  0  0  0  0  0  0  0  0
  185.7520  178.9090  141.3530 C   0  0  2  0  0  3  0  0  0  0  0  0
  184.7720  178.6280  145.0150 C   0  0  0  0  0  3  0  0  0  0  0  0
  187.0150  178.1750  143.3800 C   0  0  0  0  0  0  0  0  0  0  0  0
  186.6420  177.9760  140.5550 C   0  0  1  0  0  3  0  0  0  0  0  0
  184.2490  178.9550  138.1980 O   0  0  0  0  0  0  0  0  0  0  0  0
  186.2950  178.2530  139.1650 N   0  0  0  0  0  0  0  0  0  0  0  0
  187.5430  177.4440  135.8090 N   0  0  0  0  0  2  0  0  0  0  0  0
  189.0550  179.3550  138.3090 C   0  0  0  0  0  1  0  0  0  0  0  0
  184.6810  178.8430  143.6390 C   0  0  0  0  0  3  0  0  0  0  0  0
  185.7820  178.5880  142.8160 C   0  0  0  0  0  0  0  0  0  0  0  0
  189.1530  177.8980  138.7550 C   0  0  2  0  0  3  0  0  0  0  0  0
  190.4590  176.0060  142.9340 C   0  0  0  0  0  2  0  0  0  0  0  0
  191.5100  176.3780  144.8370 C   0  0  0  0  0  1  0  0  0  0  0  0
  191.6650  175.7680  143.5940 O   0  0  0  0  0  0  0  0  0  0  0  0
  1  5  1  1  0  0  0
  1 19  1  0  0  0  0
  2 16  1  0  0  0  0
  2 13  1  0  0  0  0
  4 12  1  6  0  0  0
  4  1  1  0  0  0  0
  6  8  2  0  0  0  0
  7 15  1  6  0  0  0
  7 27  1  0  0  0  0
  8 11  1  0  0  0  0
  9 14  1  6  0  0  0
  9  7  1  0  0  0  0
  9 22  1  0  0  0  0
 10  3  1  0  0  0  0
 11 28  1  1  0  0  0
 11  5  1  0  0  0  0
 12  8  1  0  0  0  0
 17  3  1  6  0  0  0
 17 26  1  0  0  0  0
 18 13  2  0  0  0  0
 19  2  2  0  0  0  0
 20 22  1  6  0  0  0
 20  4  1  0  0  0  0
 20 17  1  0  0  0  0
 21 10  2  0  0  0  0
 22 10  1  0  0  0  0
 23 15  1  0  0  0  0
 23 14  1  0  0  0  0
 25 18  1  0  0  0  0
 26 19  1  0  0  0  0
 26 25  2  0  0  0  0
 27 24  1  1  0  0  0
 27 12  1  0  0  0  0
 28 30  1  0  0  0  0
 30 29  1  0  0  0  0
M  END
>  <MODEL>
4

>  <REMARK>
 VINA RESULT:      -8.6      2.690      5.413
  Name = 
  2 active torsions:
  status: ('A' for Active; 'I' for Inactive)
    1  A    between atoms: C_11  and  C_28
    2  A    between atoms: C_28  and  O_30
                            x       y       z     vdW  Elec       q    Type
                         _______ _______ _______ _____ _____    ______ ____

>  <TORSDO>
F 2

$$$$
=
 OpenBabel11122410223D

 30 35  0  0  1  0  0  0  0  0999 V2000
  186.9050  178.0170  140.2060 C   0  0  1  0  0  3  0  0  0  0  0  0
  188.7080  177.1570  138.6210 C   0  0  0  0  0  0  0  0  0  0  0  0
  189.6360  177.6010  143.5560 C   0  0  0  0  0  2  0  0  0  0  0  0
  186.7030  178.6710  141.5920 C   0  0  1  0  0  3  0  0  0  0  0  0
  186.3610  178.8530  139.2130 O   0  0  0  0  0  0  0  0  0  0  0  0
  183.2050  179.3670  140.8250 O   0  0  0  0  0  0  0  0  0  0  0  0
  184.7660  178.0780  144.1210 C   0  0  1  0  0  3  0  0  0  0  0  0
  184.4110  179.0290  140.6800 C   0  0  0  0  0  0  0  0  0  0  0  0
  186.0900  177.7860  144.8020 C   0  0  2  0  0  3  0  0  0  0  0  0
  188.5930  177.9140  144.5660 C   0  0  0  0  0  0  0  0  0  0  0  0
  184.9460  178.7710  139.2900 C   0  0  2  0  0  3  0  0  0  0  0  0
  185.2670  178.8580  141.8280 N   0  0  0  0  0  0  0  0  0  0  0  0
  189.9980  176.6730  138.3840 C   0  0  0  0  0  3  0  0  0  0  0  0
  186.0110  178.5690  146.0930 C   0  0  0  0  0  2  0  0  0  0  0  0
  183.8200  178.3670  145.2690 C   0  0  0  0  0  2  0  0  0  0  0  0
  187.8210  177.1840  137.5950 F   0  0  0  0  0  0  0  0  0  0  0  0
  188.8900  178.0100  142.3080 C   0  0  2  0  0  3  0  0  0  0  0  0
  190.9290  176.6050  139.4230 C   0  0  0  0  0  3  0  0  0  0  0  0
  188.3400  177.5930  139.9070 C   0  0  0  0  0  0  0  0  0  0  0  0
  187.4210  177.7830  142.6040 C   0  0  1  0  0  3  0  0  0  0  0  0
  188.8320  177.9380  145.8020 O   0  0  0  0  0  0  0  0  0  0  0  0
  187.2850  178.1210  144.0170 N   0  0  0  0  0  0  0  0  0  0  0  0
  184.6050  178.6590  146.4670 N   0  0  0  0  0  2  0  0  0  0  0  0
  185.3980  180.5430  143.6370 C   0  0  0  0  0  1  0  0  0  0  0  0
  190.5710  177.0090  140.7110 C   0  0  0  0  0  3  0  0  0  0  0  0
  189.2750  177.4700  140.9650 C   0  0  0  0  0  0  0  0  0  0  0  0
  184.7540  179.2530  143.1350 C   0  0  2  0  0  3  0  0  0  0  0  0
  184.4200  177.4510  138.7320 C   0  0  0  0  0  2  0  0  0  0  0  0
  184.7020  176.0020  137.0930 C   0  0  0  0  0  1  0  0  0  0  0  0
  184.7010  177.3690  137.3680 O   0  0  0  0  0  0  0  0  0  0  0  0
  1  5  1  6  0  0  0
  1  4  1  0  0  0  0
  2 19  1  0  0  0  0
  3 10  1  0  0  0  0
  4 12  1  1  0  0  0
  4 20  1  0  0  0  0
  5 11  1  0  0  0  0
  7  9  1  0  0  0  0
  7 15  1  1  0  0  0
  8  6  2  0  0  0  0
  8 12  1  0  0  0  0
  9 14  1  1  0  0  0
 10 21  2  0  0  0  0
 11 28  1  1  0  0  0
 11  8  1  0  0  0  0
 12 27  1  0  0  0  0
 13  2  2  0  0  0  0
 13 18  1  0  0  0  0
 14 23  1  0  0  0  0
 15 23  1  0  0  0  0
 16  2  1  0  0  0  0
 17 20  1  0  0  0  0
 17  3  1  1  0  0  0
 18 25  2  0  0  0  0
 19  1  1  0  0  0  0
 19 26  2  0  0  0  0
 20 22  1  1  0  0  0
 22 10  1  0  0  0  0
 22  9  1  0  0  0  0
 25 26  1  0  0  0  0
 26 17  1  0  0  0  0
 27 24  1  1  0  0  0
 27  7  1  0  0  0  0
 29 30  1  0  0  0  0
 30 28  1  0  0  0  0
M  END
>  <MODEL>
5

>  <REMARK>
 VINA RESULT:      -7.2      2.637      4.816
  Name = 
  2 active torsions:
  status: ('A' for Active; 'I' for Inactive)
    1  A    between atoms: C_11  and  C_28
    2  A    between atoms: C_28  and  O_30
                            x       y       z     vdW  Elec       q    Type
                         _______ _______ _______ _____ _____    ______ ____

>  <TORSDO>
F 2

$$$$
=
 OpenBabel11122410223D

 30 35  0  0  1  0  0  0  0  0999 V2000
  185.8240  178.4140  141.0690 C   0  0  1  0  0  3  0  0  0  0  0  0
  184.2960  178.8060  143.0720 C   0  0  0  0  0  0  0  0  0  0  0  0
  182.3610  178.1660  138.4610 C   0  0  0  0  0  2  0  0  0  0  0  0
  185.8750  178.5190  139.5280 C   0  0  1  0  0  3  0  0  0  0  0  0
  186.8390  179.2160  141.6230 O   0  0  0  0  0  0  0  0  0  0  0  0
  189.4840  177.9880  139.5450 O   0  0  0  0  0  0  0  0  0  0  0  0
  186.8190  176.5350  137.1470 C   0  0  1  0  0  3  0  0  0  0  0  0
  188.3100  178.2000  139.9530 C   0  0  0  0  0  0  0  0  0  0  0  0
  185.3470  176.6010  136.7880 C   0  0  2  0  0  3  0  0  0  0  0  0
  183.1630  177.7520  137.2810 C   0  0  0  0  0  0  0  0  0  0  0  0
  188.0850  178.5720  141.4000 C   0  0  2  0  0  3  0  0  0  0  0  0
  187.1870  178.0590  139.0590 N   0  0  0  0  0  0  0  0  0  0  0  0
  183.0210  178.9490  143.6280 C   0  0  0  0  0  3  0  0  0  0  0  0
  185.3500  176.8940  135.3040 C   0  0  0  0  0  2  0  0  0  0  0  0
  187.4900  176.0980  135.8590 C   0  0  0  0  0  2  0  0  0  0  0  0
  185.3700  178.7740  143.9000 F   0  0  0  0  0  0  0  0  0  0  0  0
  183.4860  178.5870  139.3770 C   0  0  2  0  0  3  0  0  0  0  0  0
  181.8900  178.9580  142.8080 C   0  0  0  0  0  3  0  0  0  0  0  0
  184.4520  178.6830  141.6790 C   0  0  0  0  0  0  0  0  0  0  0  0
  184.6790  177.7340  138.9950 C   0  0  1  0  0  3  0  0  0  0  0  0
  182.6430  177.5180  136.1580 O   0  0  0  0  0  0  0  0  0  0  0  0
  184.5610  177.5800  137.5490 N   0  0  0  0  0  0  0  0  0  0  0  0
  186.5690  176.3220  134.7460 N   0  0  0  0  0  2  0  0  0  0  0  0
  187.1610  179.0790  136.8040 C   0  0  0  0  0  1  0  0  0  0  0  0
  182.0260  178.8110  141.4270 C   0  0  0  0  0  3  0  0  0  0  0  0
  183.2940  178.6410  140.8620 C   0  0  0  0  0  0  0  0  0  0  0  0
  187.4570  177.8380  137.6420 C   0  0  2  0  0  3  0  0  0  0  0  0
  188.2760  177.3670  142.3180 C   0  0  0  0  0  2  0  0  0  0  0  0
  188.2390  177.1320  144.5100 C   0  0  0  0  0  1  0  0  0  0  0  0
  188.9400  177.7580  143.4810 O   0  0  0  0  0  0  0  0  0  0  0  0
  1  5  1  1  0  0  0
  1 19  1  0  0  0  0
  2 13  1  0  0  0  0
  2 16  1  0  0  0  0
  4 12  1  6  0  0  0
  4  1  1  0  0  0  0
  6  8  2  0  0  0  0
  7 15  1  6  0  0  0
  7 27  1  0  0  0  0
  8 11  1  0  0  0  0
  9 14  1  6  0  0  0
  9  7  1  0  0  0  0
  9 22  1  0  0  0  0
 10 22  1  0  0  0  0
 10  3  1  0  0  0  0
 11  5  1  0  0  0  0
 11 28  1  1  0  0  0
 12  8  1  0  0  0  0
 17  3  1  6  0  0  0
 17 26  1  0  0  0  0
 18 13  2  0  0  0  0
 19  2  2  0  0  0  0
 20 22  1  6  0  0  0
 20 17  1  0  0  0  0
 20  4  1  0  0  0  0
 21 10  2  0  0  0  0
 23 14  1  0  0  0  0
 23 15  1  0  0  0  0
 25 18  1  0  0  0  0
 26 25  2  0  0  0  0
 26 19  1  0  0  0  0
 27 24  1  6  0  0  0
 27 12  1  0  0  0  0
 28 30  1  0  0  0  0
 30 29  1  0  0  0  0
M  END
>  <MODEL>
6

>  <REMARK>
 VINA RESULT:      -7.2      3.862      7.097
  Name = 
  2 active torsions:
  status: ('A' for Active; 'I' for Inactive)
    1  A    between atoms: C_11  and  C_28
    2  A    between atoms: C_28  and  O_30
                            x       y       z     vdW  Elec       q    Type
                         _______ _______ _______ _____ _____    ______ ____

>  <TORSDO>
F 2

$$$$
=
 OpenBabel11122410223D

 30 35  0  0  1  0  0  0  0  0999 V2000
  186.0170  178.3920  140.2820 C   0  0  1  0  0  3  0  0  0  0  0  0
  187.3610  177.9110  138.1680 C   0  0  0  0  0  0  0  0  0  0  0  0
  189.6410  178.1290  142.6600 C   0  0  0  0  0  2  0  0  0  0  0  0
  186.1570  178.9100  141.7310 C   0  0  1  0  0  3  0  0  0  0  0  0
  185.1130  179.2110  139.5800 O   0  0  0  0  0  0  0  0  0  0  0  0
  182.5330  179.1580  142.0620 O   0  0  0  0  0  0  0  0  0  0  0  0
  185.1310  177.8720  144.6230 C   0  0  1  0  0  3  0  0  0  0  0  0
  183.6730  179.0040  141.5470 C   0  0  0  0  0  0  0  0  0  0  0  0
  186.6200  177.7220  144.8670 C   0  0  2  0  0  3  0  0  0  0  0  0
  188.9120  178.2200  143.9500 C   0  0  0  0  0  0  0  0  0  0  0  0
  183.8020  178.9240  140.0430 C   0  0  2  0  0  3  0  0  0  0  0  0
  184.8420  178.8750  142.3810 N   0  0  0  0  0  0  0  0  0  0  0  0
  188.5710  177.6320  137.5260 C   0  0  0  0  0  3  0  0  0  0  0  0
  186.8350  178.3920  146.2060 C   0  0  0  0  0  2  0  0  0  0  0  0
  184.5370  177.9420  146.0160 C   0  0  0  0  0  2  0  0  0  0  0  0
  186.2140  177.8840  137.4440 F   0  0  0  0  0  0  0  0  0  0  0  0
  188.5190  178.5170  141.7250 C   0  0  2  0  0  3  0  0  0  0  0  0
  189.7670  177.6230  138.2470 C   0  0  0  0  0  3  0  0  0  0  0  0
  187.3400  178.1970  139.5460 C   0  0  0  0  0  0  0  0  0  0  0  0
  187.2380  178.0630  142.3970 C   0  0  1  0  0  3  0  0  0  0  0  0
  189.5000  178.1890  145.0630 O   0  0  0  0  0  0  0  0  0  0  0  0
  187.4850  178.2780  143.8190 N   0  0  0  0  0  0  0  0  0  0  0  0
  185.6010  178.2560  146.9680 N   0  0  0  0  0  2  0  0  0  0  0  0
  185.3050  180.4290  144.2520 C   0  0  0  0  0  1  0  0  0  0  0  0
  189.7600  177.8790  139.6190 C   0  0  0  0  0  3  0  0  0  0  0  0
  188.5520  178.1330  140.2770 C   0  0  0  0  0  0  0  0  0  0  0  0
  184.6950  179.1000  143.8150 C   0  0  2  0  0  3  0  0  0  0  0  0
  183.2910  177.5860  139.5150 C   0  0  0  0  0  2  0  0  0  0  0  0
  181.8060  178.6390  138.2710 C   0  0  0  0  0  1  0  0  0  0  0  0
  182.8610  177.7310  138.1960 O   0  0  0  0  0  0  0  0  0  0  0  0
  1 19  1  6  0  0  0
  1  4  1  0  0  0  0
  2 19  1  0  0  0  0
  3 10  1  0  0  0  0
  4 12  1  1  0  0  0
  4 20  1  0  0  0  0
  5 11  1  0  0  0  0
  5  1  1  0  0  0  0
  7  9  1  0  0  0  0
  7 15  1  1  0  0  0
  8  6  2  0  0  0  0
  8 12  1  0  0  0  0
  9 14  1  1  0  0  0
 10 21  2  0  0  0  0
 11 28  1  1  0  0  0
 11  8  1  0  0  0  0
 12 27  1  0  0  0  0
 13  2  2  0  0  0  0
 13 18  1  0  0  0  0
 14 23  1  0  0  0  0
 15 23  1  0  0  0  0
 16  2  1  0  0  0  0
 17 20  1  0  0  0  0
 17  3  1  1  0  0  0
 18 25  2  0  0  0  0
 19 26  2  0  0  0  0
 20 22  1  1  0  0  0
 22 10  1  0  0  0  0
 22  9  1  0  0  0  0
 25 26  1  0  0  0  0
 26 17  1  0  0  0  0
 27 24  1  1  0  0  0
 27  7  1  0  0  0  0
 30 29  1  0  0  0  0
 30 28  1  0  0  0  0
M  END
>  <MODEL>
7

>  <REMARK>
 VINA RESULT:      -6.6      2.926      5.738
  Name = 
  2 active torsions:
  status: ('A' for Active; 'I' for Inactive)
    1  A    between atoms: C_11  and  C_28
    2  A    between atoms: C_28  and  O_30
                            x       y       z     vdW  Elec       q    Type
                         _______ _______ _______ _____ _____    ______ ____

>  <TORSDO>
F 2

$$$$
=
 OpenBabel11122410223D

 30 35  0  0  1  0  0  0  0  0999 V2000
  187.6220  177.9700  142.5690 C   0  0  1  0  0  3  0  0  0  0  0  0
  188.4170  177.8330  144.9880 C   0  0  0  0  0  0  0  0  0  0  0  0
  191.5620  176.7720  141.1930 C   0  0  0  0  0  2  0  0  0  0  0  0
  187.9380  177.4610  141.1450 C   0  0  1  0  0  3  0  0  0  0  0  0
  186.3170  177.5790  142.9240 O   0  0  0  0  0  0  0  0  0  0  0  0
  184.7400  178.7120  139.9150 O   0  0  0  0  0  0  0  0  0  0  0  0
  188.2230  178.8690  138.2410 C   0  0  1  0  0  3  0  0  0  0  0  0
  185.6640  178.3820  140.7070 C   0  0  0  0  0  0  0  0  0  0  0  0
  189.6600  178.4030  138.3860 C   0  0  2  0  0  3  0  0  0  0  0  0
  191.2360  177.0040  139.7630 C   0  0  0  0  0  0  0  0  0  0  0  0
  185.4000  178.3810  142.1950 C   0  0  2  0  0  3  0  0  0  0  0  0
  186.9710  178.0370  140.2040 N   0  0  0  0  0  0  0  0  0  0  0  0
  189.4170  177.5860  145.9340 C   0  0  0  0  0  3  0  0  0  0  0  0
  189.9530  177.7230  137.0670 C   0  0  0  0  0  2  0  0  0  0  0  0
  188.0520  179.0670  136.7480 C   0  0  0  0  0  2  0  0  0  0  0  0
  187.2200  178.3130  145.4100 F   0  0  0  0  0  0  0  0  0  0  0  0
  190.1700  176.8600  141.7730 C   0  0  2  0  0  3  0  0  0  0  0  0
  190.6700  177.1190  145.5320 C   0  0  0  0  0  3  0  0  0  0  0  0
  188.6620  177.6000  143.6220 C   0  0  0  0  0  0  0  0  0  0  0  0
  189.4000  177.8050  140.8710 C   0  0  1  0  0  3  0  0  0  0  0  0
  192.0680  176.8100  138.8390 O   0  0  0  0  0  0  0  0  0  0  0  0
  189.9210  177.5290  139.5360 N   0  0  0  0  0  0  0  0  0  0  0  0
  189.1260  178.3610  136.0510 N   0  0  0  0  0  2  0  0  0  0  0  0
  187.2850  176.4560  138.3240 C   0  0  0  0  0  1  0  0  0  0  0  0
  190.9370  176.9080  144.1790 C   0  0  0  0  0  3  0  0  0  0  0  0
  189.9540  177.1760  143.2210 C   0  0  0  0  0  0  0  0  0  0  0  0
  187.1440  177.9130  138.7610 C   0  0  2  0  0  3  0  0  0  0  0  0
  185.3240  179.8030  142.7440 C   0  0  0  0  0  2  0  0  0  0  0  0
  183.4940  179.4360  143.9180 C   0  0  0  0  0  1  0  0  0  0  0  0
  184.8380  179.7810  144.0510 O   0  0  0  0  0  0  0  0  0  0  0  0
  1  5  1  1  0  0  0
  1 19  1  0  0  0  0
  2 16  1  0  0  0  0
  2 13  1  0  0  0  0
  4 12  1  6  0  0  0
  4  1  1  0  0  0  0
  6  8  2  0  0  0  0
  7 15  1  6  0  0  0
  7  9  1  0  0  0  0
  7 27  1  0  0  0  0
  8 11  1  0  0  0  0
  9 14  1  6  0  0  0
  9 22  1  0  0  0  0
 10  3  1  0  0  0  0
 11 28  1  1  0  0  0
 11  5  1  0  0  0  0
 12  8  1  0  0  0  0
 17  3  1  6  0  0  0
 17 26  1  0  0  0  0
 18 13  2  0  0  0  0
 19  2  2  0  0  0  0
 20 22  1  6  0  0  0
 20  4  1  0  0  0  0
 20 17  1  0  0  0  0
 21 10  2  0  0  0  0
 22 10  1  0  0  0  0
 23 15  1  0  0  0  0
 23 14  1  0  0  0  0
 25 18  1  0  0  0  0
 26 19  1  0  0  0  0
 26 25  2  0  0  0  0
 27 24  1  1  0  0  0
 27 12  1  0  0  0  0
 28 30  1  0  0  0  0
 29 30  1  0  0  0  0
M  END
>  <MODEL>
8

>  <REMARK>
 VINA RESULT:      -6.6      2.608      5.900
  Name = 
  2 active torsions:
  status: ('A' for Active; 'I' for Inactive)
    1  A    between atoms: C_11  and  C_28
    2  A    between atoms: C_28  and  O_30
                            x       y       z     vdW  Elec       q    Type
                         _______ _______ _______ _____ _____    ______ ____

>  <TORSDO>
F 2

$$$$
=
 OpenBabel11122410223D

 30 35  0  0  1  0  0  0  0  0999 V2000
  183.9080  178.5550  140.9030 C   0  0  1  0  0  3  0  0  0  0  0  0
  183.2150  179.0260  143.3120 C   0  0  0  0  0  0  0  0  0  0  0  0
  188.0150  177.9720  142.1860 C   0  0  0  0  0  2  0  0  0  0  0  0
  185.0060  177.8730  140.0550 C   0  0  1  0  0  3  0  0  0  0  0  0
  182.6610  177.9720  140.6060 O   0  0  0  0  0  0  0  0  0  0  0  0
  182.9690  178.1900  137.0450 O   0  0  0  0  0  0  0  0  0  0  0  0
  186.7690  178.7600  137.4860 C   0  0  1  0  0  3  0  0  0  0  0  0
  183.3100  178.2070  138.2590 C   0  0  0  0  0  0  0  0  0  0  0  0
  187.9060  178.6370  138.4840 C   0  0  2  0  0  3  0  0  0  0  0  0
  188.5320  177.8680  140.7980 C   0  0  0  0  0  0  0  0  0  0  0  0
  182.2570  178.4210  139.3220 C   0  0  2  0  0  3  0  0  0  0  0  0
  184.6940  178.0560  138.6330 N   0  0  0  0  0  0  0  0  0  0  0  0
  183.5250  179.1680  144.6680 C   0  0  0  0  0  3  0  0  0  0  0  0
  188.9370  177.8050  137.7550 C   0  0  0  0  0  2  0  0  0  0  0  0
  187.4520  178.6440  136.1380 C   0  0  0  0  0  2  0  0  0  0  0  0
  181.9570  179.3150  142.8940 F   0  0  0  0  0  0  0  0  0  0  0  0
  186.5360  177.8730  141.8970 C   0  0  2  0  0  3  0  0  0  0  0  0
  184.8180  178.9060  145.1270 C   0  0  0  0  0  3  0  0  0  0  0  0
  184.2010  178.6050  142.4000 C   0  0  0  0  0  0  0  0  0  0  0  0
  186.3390  178.4570  140.5130 C   0  0  1  0  0  3  0  0  0  0  0  0
  189.7520  177.6870  140.5420 O   0  0  0  0  0  0  0  0  0  0  0  0
  187.5380  178.0590  139.7830 N   0  0  0  0  0  0  0  0  0  0  0  0
  188.7800  178.0620  136.3290 N   0  0  0  0  0  2  0  0  0  0  0  0
  186.1230  176.2610  137.7010 C   0  0  0  0  0  1  0  0  0  0  0  0
  185.8130  178.5130  144.2310 C   0  0  0  0  0  3  0  0  0  0  0  0
  185.5210  178.3940  142.8690 C   0  0  0  0  0  0  0  0  0  0  0  0
  185.6570  177.7110  137.5920 C   0  0  2  0  0  3  0  0  0  0  0  0
  181.7840  179.8720  139.3470 C   0  0  0  0  0  2  0  0  0  0  0  0
  180.0530  181.1710  139.7730 C   0  0  0  0  0  1  0  0  0  0  0  0
  180.6750  179.9940  140.1850 O   0  0  0  0  0  0  0  0  0  0  0  0
  1  5  1  1  0  0  0
  1 19  1  0  0  0  0
  2 13  1  0  0  0  0
  4 12  1  6  0  0  0
  4 20  1  0  0  0  0
  4  1  1  0  0  0  0
  6  8  2  0  0  0  0
  7 15  1  6  0  0  0
  7 27  1  0  0  0  0
  7  9  1  0  0  0  0
  8 12  1  0  0  0  0
  8 11  1  0  0  0  0
  9 14  1  6  0  0  0
  9 22  1  0  0  0  0
 10  3  1  0  0  0  0
 11 28  1  1  0  0  0
 11  5  1  0  0  0  0
 13 18  2  0  0  0  0
 15 23  1  0  0  0  0
 16  2  1  0  0  0  0
 17  3  1  1  0  0  0
 17 26  1  0  0  0  0
 19 26  1  0  0  0  0
 19  2  2  0  0  0  0
 20 22  1  6  0  0  0
 20 17  1  0  0  0  0
 21 10  2  0  0  0  0
 22 10  1  0  0  0  0
 23 14  1  0  0  0  0
 25 18  1  0  0  0  0
 26 25  2  0  0  0  0
 27 24  1  1  0  0  0
 27 12  1  0  0  0  0
 28 30  1  0  0  0  0
 29 30  1  0  0  0  0
M  END
>  <MODEL>
9

>  <REMARK>
 VINA RESULT:      -6.5      3.977      7.205
  Name = 
  2 active torsions:
  status: ('A' for Active; 'I' for Inactive)
    1  A    between atoms: C_11  and  C_28
    2  A    between atoms: C_28  and  O_30
                            x       y       z     vdW  Elec       q    Type
                         _______ _______ _______ _____ _____    ______ ____

>  <TORSDO>
F 2

$$$$
