=
 OpenBabel11122411353D

 37 43  0  0  1  0  0  0  0  0999 V2000
  185.0580  178.9340  144.8340 C   0  0  1  0  0  0  0  0  0  0  0  0
  182.2670  178.6250  141.7160 C   0  0  0  0  0  0  0  0  0  0  0  0
  183.7660  179.6990  138.1930 C   0  0  0  0  0  2  0  0  0  0  0  0
  182.5990  178.6740  144.1070 C   0  0  0  0  0  0  0  0  0  0  0  0
  183.1340  178.6640  140.4980 C   0  0  1  0  0  3  0  0  0  0  0  0
  183.0750  178.5430  142.8080 C   0  0  0  0  0  0  0  0  0  0  0  0
  182.7350  179.6890  139.3680 C   0  0  2  0  0  3  0  0  0  0  0  0
  181.2100  178.7450  144.2950 C   0  0  0  0  0  3  0  0  0  0  0  0
  184.4830  178.4640  142.4230 C   0  0  2  0  0  3  0  0  0  0  0  0
  185.6420  177.5500  145.0640 C   0  0  0  0  0  1  0  0  0  0  0  0
  179.9500  178.6100  140.7120 C   0  0  0  0  0  2  0  0  0  0  0  0
  180.3490  178.7020  143.1780 C   0  0  0  0  0  3  0  0  0  0  0  0
  185.2860  179.3580  143.3650 C   0  0  0  0  0  2  0  0  0  0  0  0
  185.8680  178.4440  137.6230 C   0  0  1  0  0  3  0  0  0  0  0  0
  184.5260  178.4660  138.2120 N   0  0  1  0  0  0  0  0  0  0  0  0
  180.8750  178.6480  141.8730 C   0  0  0  0  0  0  0  0  0  0  0  0
  184.5020  178.9300  141.0350 N   0  0  1  0  0  0  0  0  0  0  0  0
  183.5620  178.9190  145.2400 C   0  0  0  0  0  2  0  0  0  0  0  0
  181.3160  179.4330  138.8010 C   0  0  1  0  0  3  0  0  0  0  0  0
  185.7280  179.8320  145.6610 O   0  0  0  0  0  1  0  0  0  0  0  0
  185.6840  178.9290  138.9940 C   0  0  1  0  0  3  0  0  0  0  0  0
  185.5030  178.1690  140.2850 C   0  0  0  0  0  2  0  0  0  0  0  0
  180.2180  179.7830  139.7960 C   0  0  0  0  0  2  0  0  0  0  0  0
  180.8480  179.4460  136.3410 C   0  0  0  0  0  3  0  0  0  0  0  0
  181.0410  180.1730  137.5220 C   0  0  0  0  0  0  0  0  0  0  0  0
  180.9740  181.5750  137.4910 C   0  0  0  0  0  3  0  0  0  0  0  0
  180.6510  183.7240  136.2610 C   0  0  0  0  0  1  0  0  0  0  0  0
  180.5290  181.5090  135.1130 C   0  0  0  0  0  3  0  0  0  0  0  0
  180.7190  182.2400  136.2880 C   0  0  0  0  0  0  0  0  0  0  0  0
  180.5920  180.1120  135.1390 C   0  0  0  0  0  3  0  0  0  0  0  0
  186.4020  177.0470  137.6020 C   0  0  0  0  0  0  0  0  0  0  0  0
  185.5520  175.9710  137.1960 N   0  0  0  0  0  2  0  0  0  0  0  0
  187.5860  176.8210  137.9720 O   0  0  0  0  0  0  0  0  0  0  0  0
  186.8000  174.4140  135.9980 F   0  0  0  0  0  0  0  0  0  0  0  0
  186.0170  174.5940  137.1260 C   0  0  2  0  0  3  0  0  0  0  0  0
  185.0030  172.6140  138.0170 O   0  0  0  0  0  1  0  0  0  0  0  0
  184.8300  173.6450  137.0920 C   0  0  0  0  0  2  0  0  0  0  0  0
  1 10  1  1  0  0  0
  1 18  1  0  0  0  0
  1 20  1  0  0  0  0
  2 16  2  0  0  0  0
  2  6  1  0  0  0  0
  4  8  1  0  0  0  0
  4 18  1  0  0  0  0
  5 17  1  0  0  0  0
  5  2  1  1  0  0  0
  6  4  2  0  0  0  0
  7  3  1  6  0  0  0
  7  5  1  0  0  0  0
  9  6  1  0  0  0  0
  9 13  1  1  0  0  0
 11 16  1  0  0  0  0
 12  8  2  0  0  0  0
 13  1  1  0  0  0  0
 14 31  1  1  0  0  0
 14 15  1  0  0  0  0
 14 21  1  0  0  0  0
 15  3  1  6  0  0  0
 15 21  1  0  0  0  0
 16 12  1  0  0  0  0
 17 22  1  6  0  0  0
 17  9  1  0  0  0  0
 19 25  1  6  0  0  0
 19  7  1  0  0  0  0
 19 23  1  0  0  0  0
 21 22  1  1  0  0  0
 23 11  1  0  0  0  0
 24 25  1  0  0  0  0
 26 25  2  0  0  0  0
 27 29  1  0  0  0  0
 28 30  1  0  0  0  0
 28 29  2  0  0  0  0
 29 26  1  0  0  0  0
 30 24  2  0  0  0  0
 31 33  2  0  0  0  0
 32 31  1  0  0  0  0
 35 34  1  6  0  0  0
 35 32  1  0  0  0  0
 37 35  1  0  0  0  0
 37 36  1  0  0  0  0
M  END
>  <MODEL>
1

>  <REMARK>
 VINA RESULT:      -7.0      0.000      0.000
  Name = 
  4 active torsions:
  status: ('A' for Active; 'I' for Inactive)
    1  A    between atoms: C_4  and  N_12
    2  A    between atoms: C_4  and  C_37
    3  A    between atoms: C_8  and  C_18
    4  A    between atoms: C_23  and  C_30
                            x       y       z     vdW  Elec       q    Type
                         _______ _______ _______ _____ _____    ______ ____

>  <TORSDO>
F 4

$$$$
=
 OpenBabel11122411353D

 37 43  0  0  1  0  0  0  0  0999 V2000
  191.0420  178.2570  143.9460 C   0  0  1  0  0  0  0  0  0  0  0  0
  186.9440  177.8240  143.1530 C   0  0  0  0  0  0  0  0  0  0  0  0
  185.9890  178.7700  139.4110 C   0  0  0  0  0  2  0  0  0  0  0  0
  188.6490  177.9630  144.8570 C   0  0  0  0  0  0  0  0  0  0  0  0
  186.9000  177.8200  141.6580 C   0  0  1  0  0  3  0  0  0  0  0  0
  188.2490  177.7850  143.5390 C   0  0  0  0  0  0  0  0  0  0  0  0
  185.8760  178.8010  140.9690 C   0  0  2  0  0  3  0  0  0  0  0  0
  187.6520  178.0370  145.8430 C   0  0  0  0  0  3  0  0  0  0  0  0
  189.1420  177.6960  142.3840 C   0  0  2  0  0  3  0  0  0  0  0  0
  191.6810  176.8840  143.8150 C   0  0  0  0  0  1  0  0  0  0  0  0
  184.4910  177.7640  143.7510 C   0  0  0  0  0  2  0  0  0  0  0  0
  186.2940  177.9500  145.4730 C   0  0  0  0  0  3  0  0  0  0  0  0
  190.3280  178.6270  142.6250 C   0  0  0  0  0  2  0  0  0  0  0  0
  187.3530  177.5010  137.7230 C   0  0  1  0  0  3  0  0  0  0  0  0
  186.6370  177.5400  139.0020 N   0  0  1  0  0  0  0  0  0  0  0  0
  185.9280  177.8480  144.1180 C   0  0  0  0  0  0  0  0  0  0  0  0
  188.3090  178.1100  141.2540 N   0  0  1  0  0  0  0  0  0  0  0  0
  190.0930  178.2530  145.1720 C   0  0  0  0  0  2  0  0  0  0  0  0
  184.4080  178.5200  141.3810 C   0  0  1  0  0  3  0  0  0  0  0  0
  192.0520  179.1870  144.1760 O   0  0  0  0  0  1  0  0  0  0  0  0
  188.0200  178.0360  138.9130 C   0  0  1  0  0  3  0  0  0  0  0  0
  188.6740  177.3240  140.0720 C   0  0  0  0  0  2  0  0  0  0  0  0
  184.1240  178.9030  142.8270 C   0  0  0  0  0  2  0  0  0  0  0  0
  183.8470  180.0250  139.4600 C   0  0  0  0  0  3  0  0  0  0  0  0
  183.3990  179.2110  140.5070 C   0  0  0  0  0  0  0  0  0  0  0  0
  182.0200  179.0530  140.7210 C   0  0  0  0  0  3  0  0  0  0  0  0
  179.6440  179.5390  140.1270 C   0  0  0  0  0  1  0  0  0  0  0  0
  181.5560  180.5210  138.8530 C   0  0  0  0  0  3  0  0  0  0  0  0
  181.1020  179.7080  139.8950 C   0  0  0  0  0  0  0  0  0  0  0  0
  182.9280  180.6790  138.6350 C   0  0  0  0  0  3  0  0  0  0  0  0
  187.8010  176.1060  137.4240 C   0  0  0  0  0  0  0  0  0  0  0  0
  186.8270  175.0790  137.2190 N   0  0  0  0  0  2  0  0  0  0  0  0
  189.0320  175.8350  137.3850 O   0  0  0  0  0  0  0  0  0  0  0  0
  187.7230  173.6470  135.6180 F   0  0  0  0  0  0  0  0  0  0  0  0
  187.1950  173.7080  136.8960 C   0  0  2  0  0  3  0  0  0  0  0  0
  185.3250  173.0020  138.2170 O   0  0  0  0  0  1  0  0  0  0  0  0
  185.9770  172.8050  136.9990 C   0  0  0  0  0  2  0  0  0  0  0  0
  1 10  1  6  0  0  0
  1 20  1  0  0  0  0
  1 18  1  0  0  0  0
  2  6  2  0  0  0  0
  2 16  1  0  0  0  0
  4 18  1  0  0  0  0
  4  8  2  0  0  0  0
  5  2  1  1  0  0  0
  6  4  1  0  0  0  0
  7  3  1  6  0  0  0
  7 19  1  0  0  0  0
  7  5  1  0  0  0  0
  9 13  1  1  0  0  0
  9  6  1  0  0  0  0
 11 16  1  0  0  0  0
 12  8  1  0  0  0  0
 13  1  1  0  0  0  0
 14 31  1  1  0  0  0
 14 21  1  0  0  0  0
 14 15  1  0  0  0  0
 15  3  1  6  0  0  0
 16 12  2  0  0  0  0
 17 22  1  6  0  0  0
 17  5  1  0  0  0  0
 17  9  1  0  0  0  0
 19 25  1  6  0  0  0
 19 23  1  0  0  0  0
 21 15  1  0  0  0  0
 21 22  1  1  0  0  0
 23 11  1  0  0  0  0
 24 25  1  0  0  0  0
 25 26  2  0  0  0  0
 28 29  2  0  0  0  0
 29 27  1  0  0  0  0
 29 26  1  0  0  0  0
 30 28  1  0  0  0  0
 30 24  2  0  0  0  0
 32 31  1  0  0  0  0
 33 31  2  0  0  0  0
 35 34  1  6  0  0  0
 35 37  1  0  0  0  0
 35 32  1  0  0  0  0
 37 36  1  0  0  0  0
M  END
>  <MODEL>
2

>  <REMARK>
 VINA RESULT:      -6.8      2.733      4.418
  Name = 
  4 active torsions:
  status: ('A' for Active; 'I' for Inactive)
    1  A    between atoms: C_4  and  N_12
    2  A    between atoms: C_4  and  C_37
    3  A    between atoms: C_8  and  C_18
    4  A    between atoms: C_23  and  C_30
                            x       y       z     vdW  Elec       q    Type
                         _______ _______ _______ _____ _____    ______ ____

>  <TORSDO>
F 4

$$$$
=
 OpenBabel11122411353D

 37 43  0  0  1  0  0  0  0  0999 V2000
  185.0650  176.7690  136.2050 C   0  0  1  0  0  0  0  0  0  0  0  0
  188.5410  174.4330  136.4640 C   0  0  0  0  0  0  0  0  0  0  0  0
  191.5860  176.3780  138.1230 C   0  0  0  0  0  2  0  0  0  0  0  0
  186.3510  174.6590  135.4720 C   0  0  0  0  0  0  0  0  0  0  0  0
  189.3680  175.1880  137.4550 C   0  0  1  0  0  3  0  0  0  0  0  0
  187.3050  175.0010  136.4230 C   0  0  0  0  0  0  0  0  0  0  0  0
  190.8570  175.5090  137.0480 C   0  0  2  0  0  3  0  0  0  0  0  0
  186.6300  173.5790  134.6200 C   0  0  0  0  0  3  0  0  0  0  0  0
  187.1920  176.0980  137.3830 C   0  0  2  0  0  3  0  0  0  0  0  0
  184.1830  176.4100  137.3890 C   0  0  0  0  0  1  0  0  0  0  0  0
  190.1180  172.5900  135.7600 C   0  0  0  0  0  2  0  0  0  0  0  0
  187.8570  172.8940  134.7360 C   0  0  0  0  0  3  0  0  0  0  0  0
  186.4460  177.2480  136.7100 C   0  0  0  0  0  2  0  0  0  0  0  0
  190.9990  177.3390  140.3710 C   0  0  1  0  0  3  0  0  0  0  0  0
  190.8920  176.2560  139.3890 N   0  0  1  0  0  0  0  0  0  0  0  0
  188.8290  173.3220  135.6600 C   0  0  0  0  0  0  0  0  0  0  0  0
  188.5790  176.4300  137.7130 N   0  0  1  0  0  0  0  0  0  0  0  0
  185.1520  175.5460  135.2560 C   0  0  0  0  0  2  0  0  0  0  0  0
  191.6900  174.2320  136.7700 C   0  0  1  0  0  3  0  0  0  0  0  0
  184.4620  177.8170  135.5140 O   0  0  0  0  0  1  0  0  0  0  0  0
  190.0230  177.4400  139.2820 C   0  0  1  0  0  3  0  0  0  0  0  0
  188.6630  176.8050  139.1270 C   0  0  0  0  0  2  0  0  0  0  0  0
  191.2710  173.5290  135.4880 C   0  0  0  0  0  2  0  0  0  0  0  0
  193.7060  175.0910  135.5580 C   0  0  0  0  0  3  0  0  0  0  0  0
  193.1710  174.4880  136.7020 C   0  0  0  0  0  0  0  0  0  0  0  0
  194.0210  174.1330  137.7620 C   0  0  0  0  0  3  0  0  0  0  0  0
  196.2900  174.0010  138.7960 C   0  0  0  0  0  1  0  0  0  0  0  0
  195.9230  174.9800  136.5270 C   0  0  0  0  0  3  0  0  0  0  0  0
  195.3940  174.3790  137.6730 C   0  0  0  0  0  0  0  0  0  0  0  0
  195.0800  175.3370  135.4710 C   0  0  0  0  0  3  0  0  0  0  0  0
  190.3490  176.9390  141.6570 C   0  0  0  0  0  0  0  0  0  0  0  0
  189.5710  177.8940  142.3840 N   0  0  0  0  0  2  0  0  0  0  0  0
  190.5160  175.7740  142.1100 O   0  0  0  0  0  0  0  0  0  0  0  0
  187.6160  178.1050  143.6270 F   0  0  0  0  0  0  0  0  0  0  0  0
  188.8890  177.5610  143.6260 C   0  0  2  0  0  3  0  0  0  0  0  0
  190.4930  177.0840  145.3400 O   0  0  0  0  0  1  0  0  0  0  0  0
  189.6810  178.0880  144.8110 C   0  0  0  0  0  2  0  0  0  0  0  0
  1 13  1  0  0  0  0
  1 10  1  1  0  0  0
  4  6  2  0  0  0  0
  5  2  1  6  0  0  0
  5 17  1  0  0  0  0
  6  2  1  0  0  0  0
  6  9  1  0  0  0  0
  7  5  1  0  0  0  0
  7  3  1  1  0  0  0
  8 12  2  0  0  0  0
  8  4  1  0  0  0  0
  9 13  1  6  0  0  0
  9 17  1  0  0  0  0
 12 16  1  0  0  0  0
 14 31  1  1  0  0  0
 15  3  1  6  0  0  0
 15 14  1  0  0  0  0
 16 11  1  0  0  0  0
 16  2  2  0  0  0  0
 17 22  1  1  0  0  0
 18  4  1  0  0  0  0
 18  1  1  0  0  0  0
 19 25  1  6  0  0  0
 19  7  1  0  0  0  0
 20  1  1  0  0  0  0
 21 22  1  1  0  0  0
 21 15  1  0  0  0  0
 21 14  1  0  0  0  0
 23 11  1  0  0  0  0
 23 19  1  0  0  0  0
 24 25  1  0  0  0  0
 25 26  2  0  0  0  0
 28 29  2  0  0  0  0
 29 26  1  0  0  0  0
 29 27  1  0  0  0  0
 30 24  2  0  0  0  0
 30 28  1  0  0  0  0
 31 33  2  0  0  0  0
 31 32  1  0  0  0  0
 32 35  1  0  0  0  0
 35 34  1  6  0  0  0
 35 37  1  0  0  0  0
 37 36  1  0  0  0  0
M  END
>  <MODEL>
3

>  <REMARK>
 VINA RESULT:      -6.8      5.422     10.631
  Name = 
  4 active torsions:
  status: ('A' for Active; 'I' for Inactive)
    1  A    between atoms: C_4  and  N_12
    2  A    between atoms: C_4  and  C_37
    3  A    between atoms: C_8  and  C_18
    4  A    between atoms: C_23  and  C_30
                            x       y       z     vdW  Elec       q    Type
                         _______ _______ _______ _____ _____    ______ ____

>  <TORSDO>
F 4

$$$$
=
 OpenBabel11122411353D

 37 43  0  0  1  0  0  0  0  0999 V2000
  182.6030  179.8870  138.8050 C   0  0  1  0  0  0  0  0  0  0  0  0
  185.2090  176.8890  137.4560 C   0  0  0  0  0  0  0  0  0  0  0  0
  188.9910  177.5530  138.4920 C   0  0  0  0  0  2  0  0  0  0  0  0
  183.0090  177.8640  137.2600 C   0  0  0  0  0  0  0  0  0  0  0  0
  186.4310  177.1200  138.2890 C   0  0  1  0  0  3  0  0  0  0  0  0
  184.2180  177.6960  137.9240 C   0  0  0  0  0  0  0  0  0  0  0  0
  187.8070  177.2190  137.5260 C   0  0  2  0  0  3  0  0  0  0  0  0
  182.7520  177.0510  136.1460 C   0  0  0  0  0  3  0  0  0  0  0  0
  184.6600  178.4560  139.0920 C   0  0  2  0  0  3  0  0  0  0  0  0
  181.9610  179.3920  140.0910 C   0  0  0  0  0  1  0  0  0  0  0  0
  185.9700  175.0430  135.9090 C   0  0  0  0  0  2  0  0  0  0  0  0
  183.7190  176.1160  135.7230 C   0  0  0  0  0  3  0  0  0  0  0  0
  184.1410  179.8860  138.9550 C   0  0  0  0  0  2  0  0  0  0  0  0
  189.2580  177.9080  140.9660 C   0  0  1  0  0  3  0  0  0  0  0  0
  188.6120  177.2130  139.8490 N   0  0  1  0  0  0  0  0  0  0  0  0
  184.9640  176.0310  136.3760 C   0  0  0  0  0  0  0  0  0  0  0  0
  186.1200  178.3690  139.0460 N   0  0  1  0  0  0  0  0  0  0  0  0
  182.1030  179.0110  137.6270 C   0  0  0  0  0  2  0  0  0  0  0  0
  188.1440  175.9340  136.7290 C   0  0  1  0  0  3  0  0  0  0  0  0
  182.1830  181.1970  138.5850 O   0  0  0  0  0  1  0  0  0  0  0  0
  188.1240  178.5330  140.2810 C   0  0  1  0  0  3  0  0  0  0  0  0
  186.6420  178.2810  140.4120 C   0  0  0  0  0  2  0  0  0  0  0  0
  187.2470  175.7490  135.5130 C   0  0  0  0  0  2  0  0  0  0  0  0
  189.9220  176.4610  135.0460 C   0  0  0  0  0  3  0  0  0  0  0  0
  189.5740  175.8740  136.2680 C   0  0  0  0  0  0  0  0  0  0  0  0
  190.5620  175.2420  137.0410 C   0  0  0  0  0  3  0  0  0  0  0  0
  192.9260  174.5260  137.4090 C   0  0  0  0  0  1  0  0  0  0  0  0
  192.2250  175.7830  135.3670 C   0  0  0  0  0  3  0  0  0  0  0  0
  191.8840  175.1970  136.5900 C   0  0  0  0  0  0  0  0  0  0  0  0
  191.2460  176.4160  134.5960 C   0  0  0  0  0  3  0  0  0  0  0  0
  188.8450  177.2940  142.2660 C   0  0  0  0  0  0  0  0  0  0  0  0
  188.7410  178.1130  143.4340 N   0  0  0  0  0  2  0  0  0  0  0  0
  188.6210  176.0550  142.3330 O   0  0  0  0  0  0  0  0  0  0  0  0
  187.3170  178.3800  145.2540 F   0  0  0  0  0  0  0  0  0  0  0  0
  188.3180  177.5850  144.7220 C   0  0  2  0  0  3  0  0  0  0  0  0
  189.0590  177.3550  146.9890 O   0  0  0  0  0  1  0  0  0  0  0  0
  189.5000  177.5280  145.6750 C   0  0  0  0  0  2  0  0  0  0  0  0
  1 13  1  0  0  0  0
  1 10  1  1  0  0  0
  2  6  1  0  0  0  0
  4 18  1  0  0  0  0
  4  6  2  0  0  0  0
  5  2  1  6  0  0  0
  5 17  1  0  0  0  0
  6  9  1  0  0  0  0
  7  5  1  0  0  0  0
  7  3  1  1  0  0  0
  8  4  1  0  0  0  0
  9 13  1  6  0  0  0
 11 16  1  0  0  0  0
 12  8  2  0  0  0  0
 12 16  1  0  0  0  0
 14 31  1  1  0  0  0
 15  3  1  6  0  0  0
 15 21  1  0  0  0  0
 15 14  1  0  0  0  0
 16  2  2  0  0  0  0
 17  9  1  0  0  0  0
 17 22  1  1  0  0  0
 18  1  1  0  0  0  0
 19 25  1  6  0  0  0
 19  7  1  0  0  0  0
 20  1  1  0  0  0  0
 21 22  1  1  0  0  0
 21 14  1  0  0  0  0
 23 11  1  0  0  0  0
 23 19  1  0  0  0  0
 24 25  1  0  0  0  0
 25 26  2  0  0  0  0
 28 29  2  0  0  0  0
 29 26  1  0  0  0  0
 29 27  1  0  0  0  0
 30 24  2  0  0  0  0
 30 28  1  0  0  0  0
 31 33  2  0  0  0  0
 31 32  1  0  0  0  0
 32 35  1  0  0  0  0
 35 34  1  1  0  0  0
 35 37  1  0  0  0  0
 37 36  1  0  0  0  0
M  END
>  <MODEL>
4

>  <REMARK>
 VINA RESULT:      -6.7      3.912      8.121
  Name = 
  4 active torsions:
  status: ('A' for Active; 'I' for Inactive)
    1  A    between atoms: C_4  and  N_12
    2  A    between atoms: C_4  and  C_37
    3  A    between atoms: C_8  and  C_18
    4  A    between atoms: C_23  and  C_30
                            x       y       z     vdW  Elec       q    Type
                         _______ _______ _______ _____ _____    ______ ____

>  <TORSDO>
F 4

$$$$
=
 OpenBabel11122411353D

 37 43  0  0  1  0  0  0  0  0999 V2000
  179.6870  179.3180  142.4210 C   0  0  1  0  0  0  0  0  0  0  0  0
  182.0440  177.1500  139.7110 C   0  0  0  0  0  0  0  0  0  0  0  0
  185.7690  178.5190  139.4670 C   0  0  0  0  0  2  0  0  0  0  0  0
  179.8060  177.6250  140.4810 C   0  0  0  0  0  0  0  0  0  0  0  0
  183.4330  177.5520  140.0920 C   0  0  1  0  0  3  0  0  0  0  0  0
  181.1860  177.6570  140.6370 C   0  0  0  0  0  0  0  0  0  0  0  0
  184.3810  178.0420  138.9310 C   0  0  2  0  0  3  0  0  0  0  0  0
  179.2830  176.9070  139.3950 C   0  0  0  0  0  3  0  0  0  0  0  0
  181.9060  178.3600  141.6990 C   0  0  2  0  0  3  0  0  0  0  0  0
  179.6730  178.5510  143.7320 C   0  0  0  0  0  1  0  0  0  0  0  0
  182.4540  175.7080  137.6780 C   0  0  0  0  0  2  0  0  0  0  0  0
  180.1570  176.2650  138.4940 C   0  0  0  0  0  3  0  0  0  0  0  0
  181.1450  179.6430  142.0220 C   0  0  0  0  0  2  0  0  0  0  0  0
  186.8930  178.6430  141.7120 C   0  0  1  0  0  3  0  0  0  0  0  0
  185.9960  177.9530  140.7810 N   0  0  1  0  0  0  0  0  0  0  0  0
  181.5520  176.3870  138.6430 C   0  0  0  0  0  0  0  0  0  0  0  0
  183.2320  178.6070  141.1300 N   0  0  1  0  0  0  0  0  0  0  0  0
  178.9310  178.4920  141.3490 C   0  0  0  0  0  2  0  0  0  0  0  0
  184.5970  176.9630  137.8400 C   0  0  1  0  0  3  0  0  0  0  0  0
  179.0050  180.5170  142.6110 O   0  0  0  0  0  1  0  0  0  0  0  0
  185.4970  179.0730  141.5960 C   0  0  1  0  0  3  0  0  0  0  0  0
  184.2400  178.4830  142.1870 C   0  0  0  0  0  2  0  0  0  0  0  0
  183.3490  176.7210  137.0020 C   0  0  0  0  0  2  0  0  0  0  0  0
  185.4550  177.5830  135.5700 C   0  0  0  0  0  3  0  0  0  0  0  0
  185.7340  177.2760  136.9070 C   0  0  0  0  0  0  0  0  0  0  0  0
  187.0650  177.2660  137.3520 C   0  0  0  0  0  3  0  0  0  0  0  0
  189.5130  177.5450  136.9410 C   0  0  0  0  0  1  0  0  0  0  0  0
  187.8200  177.8620  135.1310 C   0  0  0  0  0  3  0  0  0  0  0  0
  188.1050  177.5580  136.4650 C   0  0  0  0  0  0  0  0  0  0  0  0
  186.4960  177.8750  134.6830 C   0  0  0  0  0  3  0  0  0  0  0  0
  187.1120  177.8100  142.9350 C   0  0  0  0  0  0  0  0  0  0  0  0
  186.6270  178.2680  144.2000 N   0  0  0  0  0  2  0  0  0  0  0  0
  187.7500  176.7250  142.8510 O   0  0  0  0  0  0  0  0  0  0  0  0
  185.7130  177.7290  146.2710 F   0  0  0  0  0  0  0  0  0  0  0  0
  186.7810  177.4930  145.4220 C   0  0  2  0  0  3  0  0  0  0  0  0
  188.9970  176.8090  146.0230 O   0  0  0  0  0  1  0  0  0  0  0  0
  188.0850  177.8620  146.1110 C   0  0  0  0  0  2  0  0  0  0  0  0
  1 20  1  0  0  0  0
  1 10  1  1  0  0  0
  2  6  1  0  0  0  0
  4  6  2  0  0  0  0
  4 18  1  0  0  0  0
  5  2  1  6  0  0  0
  5 17  1  0  0  0  0
  6  9  1  0  0  0  0
  7  3  1  1  0  0  0
  7  5  1  0  0  0  0
  8  4  1  0  0  0  0
  9 13  1  6  0  0  0
 11 16  1  0  0  0  0
 12 16  1  0  0  0  0
 12  8  2  0  0  0  0
 13  1  1  0  0  0  0
 14 31  1  1  0  0  0
 15  3  1  6  0  0  0
 15 21  1  0  0  0  0
 15 14  1  0  0  0  0
 16  2  2  0  0  0  0
 17  9  1  0  0  0  0
 17 22  1  1  0  0  0
 18  1  1  0  0  0  0
 19 25  1  6  0  0  0
 19  7  1  0  0  0  0
 21 14  1  0  0  0  0
 21 22  1  1  0  0  0
 23 11  1  0  0  0  0
 23 19  1  0  0  0  0
 24 25  1  0  0  0  0
 25 26  2  0  0  0  0
 28 29  2  0  0  0  0
 29 27  1  0  0  0  0
 29 26  1  0  0  0  0
 30 28  1  0  0  0  0
 30 24  2  0  0  0  0
 31 32  1  0  0  0  0
 32 35  1  0  0  0  0
 33 31  2  0  0  0  0
 35 37  1  0  0  0  0
 35 34  1  1  0  0  0
 36 37  1  0  0  0  0
M  END
>  <MODEL>
5

>  <REMARK>
 VINA RESULT:      -6.4      3.725      6.042
  Name = 
  4 active torsions:
  status: ('A' for Active; 'I' for Inactive)
    1  A    between atoms: C_4  and  N_12
    2  A    between atoms: C_4  and  C_37
    3  A    between atoms: C_8  and  C_18
    4  A    between atoms: C_23  and  C_30
                            x       y       z     vdW  Elec       q    Type
                         _______ _______ _______ _____ _____    ______ ____

>  <TORSDO>
F 4

$$$$
=
 OpenBabel11122411353D

 37 43  0  0  1  0  0  0  0  0999 V2000
  184.7510  178.9930  138.9430 C   0  0  1  0  0  0  0  0  0  0  0  0
  187.5610  176.1230  137.7310 C   0  0  0  0  0  0  0  0  0  0  0  0
  191.2290  176.9020  139.0550 C   0  0  0  0  0  2  0  0  0  0  0  0
  185.3450  177.0210  137.3930 C   0  0  0  0  0  0  0  0  0  0  0  0
  188.7090  176.3810  138.6560 C   0  0  1  0  0  3  0  0  0  0  0  0
  186.5090  176.8830  138.1410 C   0  0  0  0  0  0  0  0  0  0  0  0
  190.1330  176.5470  137.9990 C   0  0  2  0  0  3  0  0  0  0  0  0
  185.2010  176.2250  136.2470 C   0  0  0  0  0  3  0  0  0  0  0  0
  186.8350  177.6330  139.3530 C   0  0  2  0  0  3  0  0  0  0  0  0
  184.0370  178.4470  140.1680 C   0  0  0  0  0  1  0  0  0  0  0  0
  188.5020  174.3420  136.2080 C   0  0  0  0  0  2  0  0  0  0  0  0
  186.2310  175.3350  135.8790 C   0  0  0  0  0  3  0  0  0  0  0  0
  186.2730  179.0450  139.2060 C   0  0  0  0  0  2  0  0  0  0  0  0
  191.3020  177.2120  141.5490 C   0  0  1  0  0  3  0  0  0  0  0  0
  190.7660  176.5190  140.3740 N   0  0  1  0  0  0  0  0  0  0  0  0
  187.4280  175.2820  136.6190 C   0  0  0  0  0  0  0  0  0  0  0  0
  188.2970  177.6010  139.4130 N   0  0  1  0  0  0  0  0  0  0  0  0
  184.3720  178.1260  137.7150 C   0  0  0  0  0  2  0  0  0  0  0  0
  190.5750  175.2930  137.2030 C   0  0  1  0  0  3  0  0  0  0  0  0
  184.2980  180.2910  138.7190 O   0  0  0  0  0  1  0  0  0  0  0  0
  190.1980  177.8100  140.7940 C   0  0  1  0  0  3  0  0  0  0  0  0
  188.7210  177.5010  140.8120 C   0  0  0  0  0  2  0  0  0  0  0  0
  189.7760  175.1030  135.9220 C   0  0  0  0  0  2  0  0  0  0  0  0
  192.4650  176.0170  135.7280 C   0  0  0  0  0  3  0  0  0  0  0  0
  192.0360  175.2960  136.8480 C   0  0  0  0  0  0  0  0  0  0  0  0
  192.9740  174.5900  137.6190 C   0  0  0  0  0  3  0  0  0  0  0  0
  195.3160  173.8570  138.0840 C   0  0  0  0  0  1  0  0  0  0  0  0
  194.7480  175.3270  136.1450 C   0  0  0  0  0  3  0  0  0  0  0  0
  194.3270  174.6060  137.2660 C   0  0  0  0  0  0  0  0  0  0  0  0
  193.8180  176.0330  135.3770 C   0  0  0  0  0  3  0  0  0  0  0  0
  190.8190  176.5550  142.8020 C   0  0  0  0  0  0  0  0  0  0  0  0
  190.6940  177.3230  144.0020 N   0  0  0  0  0  2  0  0  0  0  0  0
  190.5550  175.3210  142.8040 O   0  0  0  0  0  0  0  0  0  0  0  0
  189.1180  177.4790  145.7060 F   0  0  0  0  0  0  0  0  0  0  0  0
  190.2030  176.7520  145.2470 C   0  0  2  0  0  3  0  0  0  0  0  0
  190.7720  176.5850  147.5680 O   0  0  0  0  0  1  0  0  0  0  0  0
  191.3080  176.7530  146.2910 C   0  0  0  0  0  2  0  0  0  0  0  0
  1 13  1  0  0  0  0
  1 10  1  1  0  0  0
  2  6  1  0  0  0  0
  4 18  1  0  0  0  0
  4  6  2  0  0  0  0
  5  2  1  6  0  0  0
  5 17  1  0  0  0  0
  6  9  1  0  0  0  0
  7  5  1  0  0  0  0
  7  3  1  1  0  0  0
  8  4  1  0  0  0  0
  9 13  1  6  0  0  0
  9 17  1  0  0  0  0
 11 16  1  0  0  0  0
 12  8  2  0  0  0  0
 12 16  1  0  0  0  0
 14 31  1  1  0  0  0
 15  3  1  6  0  0  0
 15 21  1  0  0  0  0
 15 14  1  0  0  0  0
 16  2  2  0  0  0  0
 17 22  1  1  0  0  0
 18  1  1  0  0  0  0
 19 25  1  6  0  0  0
 19  7  1  0  0  0  0
 20  1  1  0  0  0  0
 21 22  1  1  0  0  0
 21 14  1  0  0  0  0
 23 11  1  0  0  0  0
 23 19  1  0  0  0  0
 24 25  1  0  0  0  0
 25 26  2  0  0  0  0
 28 29  2  0  0  0  0
 29 26  1  0  0  0  0
 29 27  1  0  0  0  0
 30 24  2  0  0  0  0
 30 28  1  0  0  0  0
 31 33  2  0  0  0  0
 31 32  1  0  0  0  0
 32 35  1  0  0  0  0
 35 34  1  1  0  0  0
 35 37  1  0  0  0  0
 37 36  1  0  0  0  0
M  END
>  <MODEL>
6

>  <REMARK>
 VINA RESULT:      -6.3      5.186      9.567
  Name = 
  4 active torsions:
  status: ('A' for Active; 'I' for Inactive)
    1  A    between atoms: C_4  and  N_12
    2  A    between atoms: C_4  and  C_37
    3  A    between atoms: C_8  and  C_18
    4  A    between atoms: C_23  and  C_30
                            x       y       z     vdW  Elec       q    Type
                         _______ _______ _______ _____ _____    ______ ____

>  <TORSDO>
F 4

$$$$
=
 OpenBabel11122411353D

 37 43  0  0  1  0  0  0  0  0999 V2000
  190.0490  178.2380  143.4530 C   0  0  1  0  0  0  0  0  0  0  0  0
  186.0550  177.9400  142.2050 C   0  0  0  0  0  0  0  0  0  0  0  0
  185.5680  178.8370  138.3620 C   0  0  0  0  0  2  0  0  0  0  0  0
  187.5590  178.0540  144.0900 C   0  0  0  0  0  0  0  0  0  0  0  0
  186.1800  177.9040  140.7150 C   0  0  1  0  0  3  0  0  0  0  0  0
  187.3040  177.8610  142.7380 C   0  0  0  0  0  0  0  0  0  0  0  0
  185.2800  178.9060  139.8970 C   0  0  2  0  0  3  0  0  0  0  0  0
  186.4610  178.1860  144.9540 C   0  0  0  0  0  3  0  0  0  0  0  0
  188.3180  177.7140  141.6950 C   0  0  2  0  0  3  0  0  0  0  0  0
  190.6450  176.8410  143.4210 C   0  0  0  0  0  1  0  0  0  0  0  0
  183.5490  177.9840  142.5200 C   0  0  0  0  0  2  0  0  0  0  0  0
  185.1510  178.1410  144.4330 C   0  0  0  0  0  3  0  0  0  0  0  0
  189.5050  178.6050  142.0530 C   0  0  0  0  0  2  0  0  0  0  0  0
  187.0640  177.4810  136.8640 C   0  0  1  0  0  3  0  0  0  0  0  0
  186.2100  177.5750  138.0520 N   0  0  1  0  0  0  0  0  0  0  0  0
  184.9370  178.0220  143.0470 C   0  0  0  0  0  0  0  0  0  0  0  0
  187.6360  178.1320  140.4690 N   0  0  1  0  0  0  0  0  0  0  0  0
  188.9680  178.2970  144.5630 C   0  0  0  0  0  2  0  0  0  0  0  0
  183.7650  178.6890  140.1430 C   0  0  1  0  0  3  0  0  0  0  0  0
  191.0630  179.1360  143.7800 O   0  0  0  0  0  1  0  0  0  0  0  0
  187.6120  178.0180  138.1130 C   0  0  1  0  0  3  0  0  0  0  0  0
  188.1010  177.3070  139.3520 C   0  0  0  0  0  2  0  0  0  0  0  0
  183.3340  179.1140  141.5390 C   0  0  0  0  0  2  0  0  0  0  0  0
  182.6900  180.7760  139.2730 C   0  0  0  0  0  3  0  0  0  0  0  0
  182.8890  179.3970  139.1470 C   0  0  0  0  0  0  0  0  0  0  0  0
  182.2720  178.7000  138.0960 C   0  0  0  0  0  3  0  0  0  0  0  0
  180.8080  178.6390  136.0740 C   0  0  0  0  0  1  0  0  0  0  0  0
  181.2630  180.7580  137.3160 C   0  0  0  0  0  3  0  0  0  0  0  0
  181.4600  179.3800  137.1830 C   0  0  0  0  0  0  0  0  0  0  0  0
  181.8780  181.4560  138.3590 C   0  0  0  0  0  3  0  0  0  0  0  0
  187.4880  176.0640  136.6430 C   0  0  0  0  0  0  0  0  0  0  0  0
  188.8090  175.7850  136.1720 N   0  0  0  0  0  2  0  0  0  0  0  0
  186.6690  175.1250  136.8390 O   0  0  0  0  0  0  0  0  0  0  0  0
  189.2930  173.7350  137.1610 F   0  0  0  0  0  0  0  0  0  0  0  0
  189.2930  174.4290  135.9630 C   0  0  2  0  0  3  0  0  0  0  0  0
  191.1130  175.7790  135.1850 O   0  0  0  0  0  1  0  0  0  0  0  0
  190.6970  174.4610  135.3810 C   0  0  0  0  0  2  0  0  0  0  0  0
  1 10  1  6  0  0  0
  1 20  1  0  0  0  0
  1 18  1  0  0  0  0
  2  6  2  0  0  0  0
  2 16  1  0  0  0  0
  4 18  1  0  0  0  0
  4  8  2  0  0  0  0
  5  2  1  1  0  0  0
  6  4  1  0  0  0  0
  7  3  1  6  0  0  0
  7 19  1  0  0  0  0
  7  5  1  0  0  0  0
  9 13  1  1  0  0  0
  9  6  1  0  0  0  0
 11 16  1  0  0  0  0
 12  8  1  0  0  0  0
 13  1  1  0  0  0  0
 14 31  1  1  0  0  0
 14 15  1  0  0  0  0
 14 21  1  0  0  0  0
 15 21  1  0  0  0  0
 15  3  1  6  0  0  0
 16 12  2  0  0  0  0
 17 22  1  6  0  0  0
 17  5  1  0  0  0  0
 17  9  1  0  0  0  0
 19 25  1  6  0  0  0
 19 23  1  0  0  0  0
 21 22  1  1  0  0  0
 23 11  1  0  0  0  0
 25 24  1  0  0  0  0
 26 25  2  0  0  0  0
 27 29  1  0  0  0  0
 28 30  1  0  0  0  0
 29 28  2  0  0  0  0
 29 26  1  0  0  0  0
 30 24  2  0  0  0  0
 31 33  2  0  0  0  0
 32 31  1  0  0  0  0
 35 32  1  0  0  0  0
 35 34  1  1  0  0  0
 36 37  1  0  0  0  0
 37 35  1  0  0  0  0
M  END
>  <MODEL>
7

>  <REMARK>
 VINA RESULT:      -6.2      2.668      4.006
  Name = 
  4 active torsions:
  status: ('A' for Active; 'I' for Inactive)
    1  A    between atoms: C_4  and  N_12
    2  A    between atoms: C_4  and  C_37
    3  A    between atoms: C_8  and  C_18
    4  A    between atoms: C_23  and  C_30
                            x       y       z     vdW  Elec       q    Type
                         _______ _______ _______ _____ _____    ______ ____

>  <TORSDO>
F 4

$$$$
=
 OpenBabel11122411353D

 37 43  0  0  1  0  0  0  0  0999 V2000
  181.3850  177.3590  139.9280 C   0  0  1  0  0  0  0  0  0  0  0  0
  183.9940  178.8220  142.8700 C   0  0  0  0  0  0  0  0  0  0  0  0
  187.6330  177.2360  142.6310 C   0  0  0  0  0  2  0  0  0  0  0  0
  181.6980  178.6280  142.1490 C   0  0  0  0  0  0  0  0  0  0  0  0
  185.3370  178.4290  142.3390 C   0  0  1  0  0  3  0  0  0  0  0  0
  183.0650  178.5540  141.9120 C   0  0  0  0  0  0  0  0  0  0  0  0
  186.3030  177.6710  143.3280 C   0  0  2  0  0  3  0  0  0  0  0  0
  181.2710  179.1440  143.3820 C   0  0  0  0  0  3  0  0  0  0  0  0
  183.6900  178.0370  140.6960 C   0  0  2  0  0  3  0  0  0  0  0  0
  181.3610  178.3700  138.7930 C   0  0  0  0  0  1  0  0  0  0  0  0
  184.5860  179.8110  145.1170 C   0  0  0  0  0  2  0  0  0  0  0  0
  182.2240  179.5480  144.3400 C   0  0  0  0  0  3  0  0  0  0  0  0
  182.8360  176.8850  140.1730 C   0  0  0  0  0  2  0  0  0  0  0  0
  188.6440  177.4980  140.3450 C   0  0  1  0  0  3  0  0  0  0  0  0
  187.8350  178.0380  141.4410 N   0  0  1  0  0  0  0  0  0  0  0  0
  183.6000  179.3840  144.0910 C   0  0  0  0  0  0  0  0  0  0  0  0
  185.0220  177.6130  141.1290 N   0  0  1  0  0  0  0  0  0  0  0  0
  180.7320  177.9970  141.1810 C   0  0  0  0  0  2  0  0  0  0  0  0
  186.6360  178.5010  144.5940 C   0  0  1  0  0  3  0  0  0  0  0  0
  180.6210  176.2590  139.5470 O   0  0  0  0  0  1  0  0  0  0  0  0
  187.2310  177.1280  140.4540 C   0  0  1  0  0  3  0  0  0  0  0  0
  185.9870  177.8880  140.0610 C   0  0  0  0  0  2  0  0  0  0  0  0
  185.4450  178.6380  145.5310 C   0  0  0  0  0  2  0  0  0  0  0  0
  187.5740  177.5030  146.6900 C   0  0  0  0  0  3  0  0  0  0  0  0
  187.7920  177.9500  145.3820 C   0  0  0  0  0  0  0  0  0  0  0  0
  189.0810  177.8760  144.8300 C   0  0  0  0  0  3  0  0  0  0  0  0
  191.5020  177.2880  144.9970 C   0  0  0  0  0  1  0  0  0  0  0  0
  189.9160  176.9190  146.8910 C   0  0  0  0  0  3  0  0  0  0  0  0
  190.1390  177.3620  145.5840 C   0  0  0  0  0  0  0  0  0  0  0  0
  188.6330  176.9880  147.4440 C   0  0  0  0  0  3  0  0  0  0  0  0
  188.8600  178.5430  139.2970 C   0  0  0  0  0  0  0  0  0  0  0  0
  188.8790  178.1690  137.9170 N   0  0  0  0  0  2  0  0  0  0  0  0
  189.0550  179.7420  139.6360 O   0  0  0  0  0  0  0  0  0  0  0  0
  187.9310  179.9410  136.7450 F   0  0  0  0  0  0  0  0  0  0  0  0
  189.0550  179.1390  136.8480 C   0  0  2  0  0  3  0  0  0  0  0  0
  189.7720  177.1280  135.7610 O   0  0  0  0  0  1  0  0  0  0  0  0
  189.3050  178.4230  135.5300 C   0  0  0  0  0  2  0  0  0  0  0  0
  1 10  1  6  0  0  0
  1 13  1  0  0  0  0
  1 18  1  0  0  0  0
  2 16  1  0  0  0  0
  4  8  2  0  0  0  0
  5  2  1  1  0  0  0
  5  7  1  0  0  0  0
  6  4  1  0  0  0  0
  6  2  2  0  0  0  0
  7  3  1  6  0  0  0
  7 19  1  0  0  0  0
  8 12  1  0  0  0  0
  9 13  1  1  0  0  0
  9 17  1  0  0  0  0
  9  6  1  0  0  0  0
 11 23  1  0  0  0  0
 14 31  1  6  0  0  0
 14 21  1  0  0  0  0
 14 15  1  0  0  0  0
 15  3  1  1  0  0  0
 16 12  2  0  0  0  0
 16 11  1  0  0  0  0
 17 22  1  6  0  0  0
 17  5  1  0  0  0  0
 18  4  1  0  0  0  0
 19 25  1  1  0  0  0
 19 23  1  0  0  0  0
 20  1  1  0  0  0  0
 21 22  1  6  0  0  0
 21 15  1  0  0  0  0
 24 30  1  0  0  0  0
 25 24  2  0  0  0  0
 26 25  1  0  0  0  0
 26 29  2  0  0  0  0
 27 29  1  0  0  0  0
 28 30  2  0  0  0  0
 29 28  1  0  0  0  0
 31 33  2  0  0  0  0
 32 31  1  0  0  0  0
 35 34  1  6  0  0  0
 35 32  1  0  0  0  0
 37 36  1  0  0  0  0
 37 35  1  0  0  0  0
M  END
>  <MODEL>
8

>  <REMARK>
 VINA RESULT:      -5.6      3.139      7.458
  Name = 
  4 active torsions:
  status: ('A' for Active; 'I' for Inactive)
    1  A    between atoms: C_4  and  N_12
    2  A    between atoms: C_4  and  C_37
    3  A    between atoms: C_8  and  C_18
    4  A    between atoms: C_23  and  C_30
                            x       y       z     vdW  Elec       q    Type
                         _______ _______ _______ _____ _____    ______ ____

>  <TORSDO>
F 4

$$$$
=
 OpenBabel11122411353D

 37 43  0  0  1  0  0  0  0  0999 V2000
  186.0530  178.0220  145.2120 C   0  0  1  0  0  0  0  0  0  0  0  0
  187.9590  178.2590  141.4820 C   0  0  0  0  0  0  0  0  0  0  0  0
  185.5200  177.4410  138.4490 C   0  0  0  0  0  2  0  0  0  0  0  0
  188.2540  178.1350  143.8750 C   0  0  0  0  0  0  0  0  0  0  0  0
  186.8060  178.3330  140.5310 C   0  0  1  0  0  3  0  0  0  0  0  0
  187.4700  178.3540  142.7480 C   0  0  0  0  0  0  0  0  0  0  0  0
  186.8170  177.3290  139.3150 C   0  0  2  0  0  3  0  0  0  0  0  0
  189.6340  177.9580  143.6920 C   0  0  0  0  0  3  0  0  0  0  0  0
  186.0210  178.5480  142.7450 C   0  0  2  0  0  3  0  0  0  0  0  0
  185.6600  179.4330  145.6160 C   0  0  0  0  0  1  0  0  0  0  0  0
  189.9320  178.1510  139.9080 C   0  0  0  0  0  2  0  0  0  0  0  0
  190.1770  177.9850  142.3910 C   0  0  0  0  0  3  0  0  0  0  0  0
  185.4200  177.6760  143.8450 C   0  0  0  0  0  2  0  0  0  0  0  0
  183.4490  178.8650  138.4740 C   0  0  1  0  0  3  0  0  0  0  0  0
  184.8910  178.7240  138.6920 N   0  0  1  0  0  0  0  0  0  0  0  0
  189.3380  178.1310  141.2700 C   0  0  0  0  0  0  0  0  0  0  0  0
  185.6070  178.1430  141.4010 N   0  0  1  0  0  0  0  0  0  0  0  0
  187.6000  177.9130  145.2140 C   0  0  0  0  0  2  0  0  0  0  0  0
  188.0580  177.5070  138.4030 C   0  0  1  0  0  3  0  0  0  0  0  0
  185.5510  177.1400  146.1660 O   0  0  0  0  0  1  0  0  0  0  0  0
  183.9420  178.3120  139.7380 C   0  0  1  0  0  3  0  0  0  0  0  0
  184.5100  179.0040  140.9540 C   0  0  0  0  0  2  0  0  0  0  0  0
  189.3440  177.0390  139.0700 C   0  0  0  0  0  2  0  0  0  0  0  0
  187.7940  177.5630  135.9130 C   0  0  0  0  0  3  0  0  0  0  0  0
  187.9330  176.8020  137.0800 C   0  0  0  0  0  0  0  0  0  0  0  0
  187.9550  175.4010  136.9970 C   0  0  0  0  0  3  0  0  0  0  0  0
  187.8560  173.2860  135.6710 C   0  0  0  0  0  1  0  0  0  0  0  0
  187.6930  175.5340  134.5940 C   0  0  0  0  0  3  0  0  0  0  0  0
  187.8350  174.7700  135.7550 C   0  0  0  0  0  0  0  0  0  0  0  0
  187.6740  176.9300  134.6720 C   0  0  0  0  0  3  0  0  0  0  0  0
  183.0410  180.2960  138.6230 C   0  0  0  0  0  0  0  0  0  0  0  0
  181.6530  180.6410  138.6180 N   0  0  0  0  0  2  0  0  0  0  0  0
  183.9210  181.1940  138.7180 O   0  0  0  0  0  0  0  0  0  0  0  0
  180.0540  182.0310  139.5800 F   0  0  0  0  0  0  0  0  0  0  0  0
  181.1880  182.0100  138.7860 C   0  0  2  0  0  3  0  0  0  0  0  0
  181.5350  183.8550  137.2970 O   0  0  0  0  0  1  0  0  0  0  0  0
  180.8850  182.6260  137.4300 C   0  0  0  0  0  2  0  0  0  0  0  0
  1 18  1  0  0  0  0
  1 10  1  1  0  0  0
  1 20  1  0  0  0  0
  2  6  1  0  0  0  0
  4 18  1  0  0  0  0
  5 17  1  0  0  0  0
  5  2  1  1  0  0  0
  6  4  2  0  0  0  0
  7  3  1  6  0  0  0
  7  5  1  0  0  0  0
  8  4  1  0  0  0  0
  9  6  1  0  0  0  0
  9 13  1  1  0  0  0
 11 16  1  0  0  0  0
 12  8  2  0  0  0  0
 13  1  1  0  0  0  0
 14 31  1  1  0  0  0
 14 15  1  0  0  0  0
 14 21  1  0  0  0  0
 15  3  1  6  0  0  0
 15 21  1  0  0  0  0
 16  2  2  0  0  0  0
 16 12  1  0  0  0  0
 17 22  1  6  0  0  0
 17  9  1  0  0  0  0
 19 25  1  6  0  0  0
 19 23  1  0  0  0  0
 19  7  1  0  0  0  0
 21 22  1  1  0  0  0
 23 11  1  0  0  0  0
 24 25  1  0  0  0  0
 26 25  2  0  0  0  0
 27 29  1  0  0  0  0
 28 30  1  0  0  0  0
 28 29  2  0  0  0  0
 29 26  1  0  0  0  0
 30 24  2  0  0  0  0
 31 33  2  0  0  0  0
 32 31  1  0  0  0  0
 32 35  1  0  0  0  0
 35 34  1  1  0  0  0
 36 37  1  0  0  0  0
 37 35  1  0  0  0  0
M  END
>  <MODEL>
9

>  <REMARK>
 VINA RESULT:      -5.5      3.462      6.984
  Name = 
  4 active torsions:
  status: ('A' for Active; 'I' for Inactive)
    1  A    between atoms: C_4  and  N_12
    2  A    between atoms: C_4  and  C_37
    3  A    between atoms: C_8  and  C_18
    4  A    between atoms: C_23  and  C_30
                            x       y       z     vdW  Elec       q    Type
                         _______ _______ _______ _____ _____    ______ ____

>  <TORSDO>
F 4

$$$$
