=
 OpenBabel11122411163D

 31 35  0  0  1  0  0  0  0  0999 V2000
  190.1560  176.2060  142.8160 C   0  0  0  0  0  0  0  0  0  0  0  0
  186.6690  177.1180  144.0480 C   0  0  2  0  0  3  0  0  0  0  0  0
  186.8850  177.7780  145.3970 C   0  0  0  0  0  0  0  0  0  0  0  0
  188.1510  178.0230  147.4590 C   0  0  0  0  0  0  0  0  0  0  0  0
  187.9150  177.0760  143.1860 C   0  0  0  0  0  0  0  0  0  0  0  0
  190.2730  176.9820  141.6620 C   0  0  0  0  0  3  0  0  0  0  0  0
  188.0010  177.4650  146.1860 C   0  0  0  0  0  3  0  0  0  0  0  0
  185.8380  178.9800  142.5000 C   0  0  2  0  0  3  0  0  0  0  0  0
  191.1810  175.4120  143.2060 F   0  0  0  0  0  0  0  0  0  0  0  0
  184.6890  178.9670  145.1050 C   0  0  0  0  0  2  0  0  0  0  0  0
  189.2690  177.7170  148.2230 O   0  0  0  0  0  1  0  0  0  0  0  0
  186.8790  178.6230  141.4460 C   0  0  0  0  0  2  0  0  0  0  0  0
  185.4580  177.7270  143.3060 C   0  0  2  0  0  3  0  0  0  0  0  0
  188.9820  176.2500  143.5690 C   0  0  0  0  0  3  0  0  0  0  0  0
  187.1750  178.8850  147.9630 C   0  0  0  0  0  3  0  0  0  0  0  0
  188.0350  177.8520  142.0080 C   0  0  0  0  0  0  0  0  0  0  0  0
  189.2110  177.7920  141.2540 C   0  0  0  0  0  3  0  0  0  0  0  0
  184.3680  177.9400  144.1890 O   0  0  0  0  0  0  0  0  0  0  0  0
  185.8870  178.6160  145.9310 C   0  0  0  0  0  0  0  0  0  0  0  0
  186.0440  179.1830  147.1990 C   0  0  0  0  0  3  0  0  0  0  0  0
  183.9680  177.4970  140.9380 O   0  0  0  0  0  0  0  0  0  0  0  0
  183.7550  178.7310  141.0890 C   0  0  0  0  0  0  0  0  0  0  0  0
  184.6580  179.5330  141.8510 N   0  0  0  0  0  2  0  0  0  0  0  0
  181.2220  178.1080  138.1860 N   0  0  0  0  0  0  0  0  0  0  0  0
  181.3100  178.4940  140.6020 C   0  0  0  0  0  2  0  0  0  0  0  0
  183.3260  180.8060  138.7430 O   0  0  0  0  0  0  0  0  0  0  0  0
  181.0840  177.1340  137.2570 O   0  0  0  0  0  1  0  0  0  0  0  0
  181.2410  177.4460  139.4900 C   0  0  0  0  0  2  0  0  0  0  0  0
  182.8200  179.7340  139.0280 C   0  0  0  0  0  0  0  0  0  0  0  0
  182.5570  179.3770  140.4650 C   0  0  2  0  0  3  0  0  0  0  0  0
  182.5270  178.7270  137.9550 C   0  0  0  0  0  2  0  0  0  0  0  0
  1  9  1  0  0  0  0
  1 14  1  0  0  0  0
  2  5  1  6  0  0  0
  2  3  1  0  0  0  0
  3 19  2  0  0  0  0
  3  7  1  0  0  0  0
  4 15  1  0  0  0  0
  4 11  1  0  0  0  0
  5 14  2  0  0  0  0
  6  1  2  0  0  0  0
  7  4  2  0  0  0  0
  8 23  1  6  0  0  0
  8 13  1  0  0  0  0
 10 19  1  0  0  0  0
 12 16  1  0  0  0  0
 12  8  1  0  0  0  0
 13  2  1  0  0  0  0
 13 18  1  1  0  0  0
 16  5  1  0  0  0  0
 17  6  1  0  0  0  0
 17 16  2  0  0  0  0
 18 10  1  0  0  0  0
 19 20  1  0  0  0  0
 20 15  2  0  0  0  0
 21 22  2  0  0  0  0
 22 23  1  0  0  0  0
 24 28  1  0  0  0  0
 26 29  2  0  0  0  0
 27 24  1  0  0  0  0
 28 25  1  0  0  0  0
 29 30  1  0  0  0  0
 30 25  1  0  0  0  0
 30 22  1  6  0  0  0
 31 24  1  0  0  0  0
 31 29  1  0  0  0  0
M  END
>  <MODEL>
1

>  <REMARK>
 VINA RESULT:      -9.8      0.000      0.000
  Name = 
  2 active torsions:
  status: ('A' for Active; 'I' for Inactive)
    1  A    between atoms: C_5  and  C_30
    2  A    between atoms: C_10  and  N_16
                            x       y       z     vdW  Elec       q    Type
                         _______ _______ _______ _____ _____    ______ ____

>  <TORSDO>
F 2

$$$$
=
 OpenBabel11122411163D

 31 35  0  0  1  0  0  0  0  0999 V2000
  191.2150  176.7160  144.3020 C   0  0  0  0  0  0  0  0  0  0  0  0
  187.4440  177.0620  143.8990 C   0  0  2  0  0  3  0  0  0  0  0  0
  186.9750  177.7780  145.1520 C   0  0  0  0  0  0  0  0  0  0  0  0
  187.2060  178.2750  147.5220 C   0  0  0  0  0  0  0  0  0  0  0  0
  188.9290  177.2080  143.6350 C   0  0  0  0  0  0  0  0  0  0  0  0
  191.6970  177.4740  143.2340 C   0  0  0  0  0  3  0  0  0  0  0  0
  187.6870  177.6720  146.3560 C   0  0  0  0  0  3  0  0  0  0  0  0
  187.0880  178.7240  141.9860 C   0  0  2  0  0  3  0  0  0  0  0  0
  192.0830  176.1120  145.1490 F   0  0  0  0  0  0  0  0  0  0  0  0
  184.9630  178.5780  143.8750 C   0  0  0  0  0  2  0  0  0  0  0  0
  187.9290  178.1760  148.7020 O   0  0  0  0  0  1  0  0  0  0  0  0
  188.5150  178.5230  141.4910 C   0  0  0  0  0  2  0  0  0  0  0  0
  186.5850  177.4440  142.6730 C   0  0  2  0  0  3  0  0  0  0  0  0
  189.8400  176.5790  144.4960 C   0  0  0  0  0  3  0  0  0  0  0  0
  185.9970  178.9740  147.4990 C   0  0  0  0  0  3  0  0  0  0  0  0
  189.4220  177.9670  142.5470 C   0  0  0  0  0  0  0  0  0  0  0  0
  190.8030  178.0870  142.3530 C   0  0  0  0  0  3  0  0  0  0  0  0
  185.2070  177.4920  143.0050 O   0  0  0  0  0  0  0  0  0  0  0  0
  185.7380  178.4490  145.1490 C   0  0  0  0  0  0  0  0  0  0  0  0
  185.2640  179.0630  146.3130 C   0  0  0  0  0  3  0  0  0  0  0  0
  187.2960  177.6220  139.3630 O   0  0  0  0  0  0  0  0  0  0  0  0
  186.3790  178.4610  139.5730 C   0  0  0  0  0  0  0  0  0  0  0  0
  186.2260  179.0590  140.8620 N   0  0  0  0  0  2  0  0  0  0  0  0
  183.0060  177.2930  137.9940 N   0  0  0  0  0  0  0  0  0  0  0  0
  184.0640  179.2450  139.0250 C   0  0  0  0  0  2  0  0  0  0  0  0
  186.1140  177.7080  136.5140 O   0  0  0  0  0  0  0  0  0  0  0  0
  182.1580  176.2700  138.2480 O   0  0  0  0  0  1  0  0  0  0  0  0
  183.1800  178.0180  139.2520 C   0  0  0  0  0  2  0  0  0  0  0  0
  185.3270  177.7620  137.4440 C   0  0  0  0  0  0  0  0  0  0  0  0
  185.4410  178.8520  138.4740 C   0  0  2  0  0  3  0  0  0  0  0  0
  184.2860  176.6940  137.6160 C   0  0  0  0  0  2  0  0  0  0  0  0
  1 14  1  0  0  0  0
  1  9  1  0  0  0  0
  2  5  1  6  0  0  0
  2  3  1  0  0  0  0
  3  7  1  0  0  0  0
  4 11  1  0  0  0  0
  5 14  2  0  0  0  0
  6  1  2  0  0  0  0
  7  4  2  0  0  0  0
  8 23  1  6  0  0  0
  8 13  1  0  0  0  0
 10 19  1  0  0  0  0
 12  8  1  0  0  0  0
 12 16  1  0  0  0  0
 13 18  1  1  0  0  0
 13  2  1  0  0  0  0
 15  4  1  0  0  0  0
 16  5  1  0  0  0  0
 17 16  2  0  0  0  0
 17  6  1  0  0  0  0
 18 10  1  0  0  0  0
 19  3  2  0  0  0  0
 19 20  1  0  0  0  0
 20 15  2  0  0  0  0
 21 22  2  0  0  0  0
 22 23  1  0  0  0  0
 24 27  1  0  0  0  0
 24 28  1  0  0  0  0
 25 28  1  0  0  0  0
 26 29  2  0  0  0  0
 29 31  1  0  0  0  0
 29 30  1  0  0  0  0
 30 25  1  0  0  0  0
 30 22  1  1  0  0  0
 31 24  1  0  0  0  0
M  END
>  <MODEL>
2

>  <REMARK>
 VINA RESULT:      -9.6      1.883      2.152
  Name = 
  2 active torsions:
  status: ('A' for Active; 'I' for Inactive)
    1  A    between atoms: C_5  and  C_30
    2  A    between atoms: C_10  and  N_16
                            x       y       z     vdW  Elec       q    Type
                         _______ _______ _______ _____ _____    ______ ____

>  <TORSDO>
F 2

$$$$
=
 OpenBabel11122411163D

 31 35  0  0  1  0  0  0  0  0999 V2000
  190.1800  176.9260  146.2420 C   0  0  0  0  0  0  0  0  0  0  0  0
  187.6090  177.1720  143.4440 C   0  0  2  0  0  3  0  0  0  0  0  0
  186.4800  178.0110  144.0140 C   0  0  0  0  0  0  0  0  0  0  0  0
  185.1420  178.7620  145.9010 C   0  0  0  0  0  0  0  0  0  0  0  0
  188.9130  177.3110  144.2020 C   0  0  0  0  0  0  0  0  0  0  0  0
  191.2850  177.5720  145.6860 C   0  0  0  0  0  3  0  0  0  0  0  0
  186.2300  178.0450  145.3940 C   0  0  0  0  0  3  0  0  0  0  0  0
  188.6830  178.6150  141.6230 C   0  0  2  0  0  3  0  0  0  0  0  0
  190.2500  176.4290  147.5000 F   0  0  0  0  0  0  0  0  0  0  0  0
  185.8370  178.6420  141.6670 C   0  0  0  0  0  2  0  0  0  0  0  0
  184.9150  178.8010  147.2700 O   0  0  0  0  0  1  0  0  0  0  0  0
  190.0730  178.3830  142.2020 C   0  0  0  0  0  2  0  0  0  0  0  0
  187.7800  177.4080  141.9260 C   0  0  2  0  0  3  0  0  0  0  0  0
  189.0050  176.7910  145.5020 C   0  0  0  0  0  3  0  0  0  0  0  0
  184.2840  179.4380  145.0310 C   0  0  0  0  0  3  0  0  0  0  0  0
  190.0400  177.9560  143.6390 C   0  0  0  0  0  0  0  0  0  0  0  0
  191.2170  178.0750  144.3840 C   0  0  0  0  0  3  0  0  0  0  0  0
  186.5230  177.4720  141.2710 O   0  0  0  0  0  0  0  0  0  0  0  0
  185.5850  178.6610  143.1430 C   0  0  0  0  0  0  0  0  0  0  0  0
  184.5050  179.3880  143.6520 C   0  0  0  0  0  3  0  0  0  0  0  0
  189.8830  176.7950  139.7850 O   0  0  0  0  0  0  0  0  0  0  0  0
  189.3890  177.8570  139.3170 C   0  0  0  0  0  0  0  0  0  0  0  0
  188.7820  178.8150  140.1850 N   0  0  0  0  0  2  0  0  0  0  0  0
  187.7170  176.6360  136.0090 N   0  0  0  0  0  0  0  0  0  0  0  0
  188.0930  178.6610  137.3310 C   0  0  0  0  0  2  0  0  0  0  0  0
  191.0670  176.7020  136.8990 O   0  0  0  0  0  0  0  0  0  0  0  0
  186.7860  175.6970  135.7210 O   0  0  0  0  0  1  0  0  0  0  0  0
  187.1280  177.5180  137.0140 C   0  0  0  0  0  2  0  0  0  0  0  0
  189.8800  176.9190  137.0790 C   0  0  0  0  0  0  0  0  0  0  0  0
  189.4380  178.1340  137.8470 C   0  0  2  0  0  3  0  0  0  0  0  0
  188.8520  175.9330  136.6060 C   0  0  0  0  0  2  0  0  0  0  0  0
  1  9  1  0  0  0  0
  2  3  1  1  0  0  0
  2  5  1  0  0  0  0
  3  7  1  0  0  0  0
  4 11  1  0  0  0  0
  5 14  1  0  0  0  0
  6  1  1  0  0  0  0
  7  4  2  0  0  0  0
  8 23  1  6  0  0  0
  8 13  1  0  0  0  0
  8 12  1  0  0  0  0
 10 19  1  0  0  0  0
 12 16  1  0  0  0  0
 13 18  1  1  0  0  0
 13  2  1  0  0  0  0
 14  1  2  0  0  0  0
 15  4  1  0  0  0  0
 16  5  2  0  0  0  0
 16 17  1  0  0  0  0
 17  6  2  0  0  0  0
 18 10  1  0  0  0  0
 19 20  1  0  0  0  0
 19  3  2  0  0  0  0
 20 15  2  0  0  0  0
 22 21  2  0  0  0  0
 22 23  1  0  0  0  0
 24 31  1  0  0  0  0
 24 28  1  0  0  0  0
 25 30  1  0  0  0  0
 26 29  2  0  0  0  0
 27 24  1  0  0  0  0
 28 25  1  0  0  0  0
 29 30  1  0  0  0  0
 30 22  1  1  0  0  0
 31 29  1  0  0  0  0
M  END
>  <MODEL>
3

>  <REMARK>
 VINA RESULT:      -9.6      3.527      4.869
  Name = 
  2 active torsions:
  status: ('A' for Active; 'I' for Inactive)
    1  A    between atoms: C_5  and  C_30
    2  A    between atoms: C_10  and  N_16
                            x       y       z     vdW  Elec       q    Type
                         _______ _______ _______ _____ _____    ______ ____

>  <TORSDO>
F 2

$$$$
=
 OpenBabel11122411163D

 31 35  0  0  1  0  0  0  0  0999 V2000
  189.0470  177.6450  144.3320 C   0  0  0  0  0  0  0  0  0  0  0  0
  187.0910  178.9550  141.3380 C   0  0  2  0  0  3  0  0  0  0  0  0
  187.5620  178.1220  140.1610 C   0  0  0  0  0  0  0  0  0  0  0  0
  189.2920  176.8460  139.0230 C   0  0  0  0  0  0  0  0  0  0  0  0
  187.3940  178.3310  142.6850 C   0  0  0  0  0  0  0  0  0  0  0  0
  188.0340  177.1430  145.1490 C   0  0  0  0  0  3  0  0  0  0  0  0
  188.8420  177.5490  140.1450 C   0  0  0  0  0  3  0  0  0  0  0  0
  184.6560  178.2720  141.7320 C   0  0  2  0  0  3  0  0  0  0  0  0
  190.3410  177.5550  144.7230 F   0  0  0  0  0  0  0  0  0  0  0  0
  185.3880  178.6290  139.0040 C   0  0  0  0  0  2  0  0  0  0  0  0
  190.5550  176.2700  139.0270 O   0  0  0  0  0  1  0  0  0  0  0  0
  184.9180  178.0440  143.2160 C   0  0  0  0  0  2  0  0  0  0  0  0
  185.6060  179.3550  141.1930 C   0  0  2  0  0  3  0  0  0  0  0  0
  188.7280  178.2400  143.1110 C   0  0  0  0  0  3  0  0  0  0  0  0
  188.4720  176.7250  137.9000 C   0  0  0  0  0  3  0  0  0  0  0  0
  186.3700  177.8300  143.5230 C   0  0  0  0  0  0  0  0  0  0  0  0
  186.7000  177.2460  144.7510 C   0  0  0  0  0  3  0  0  0  0  0  0
  185.3070  179.7490  139.8630 O   0  0  0  0  0  0  0  0  0  0  0  0
  186.7600  178.0290  139.0070 C   0  0  0  0  0  0  0  0  0  0  0  0
  187.2060  177.3150  137.8910 C   0  0  0  0  0  3  0  0  0  0  0  0
  182.7080  176.8360  140.2230 O   0  0  0  0  0  0  0  0  0  0  0  0
  182.3440  177.9080  140.7770 C   0  0  0  0  0  0  0  0  0  0  0  0
  183.2730  178.6810  141.5390 N   0  0  0  0  0  2  0  0  0  0  0  0
  179.2340  178.6680  143.0090 N   0  0  0  0  0  0  0  0  0  0  0  0
  180.7240  179.7220  141.3780 C   0  0  0  0  0  2  0  0  0  0  0  0
  179.5490  176.5010  140.3210 O   0  0  0  0  0  0  0  0  0  0  0  0
  178.9870  178.5720  144.3360 O   0  0  0  0  0  1  0  0  0  0  0  0
  180.4290  179.4960  142.8620 C   0  0  0  0  0  2  0  0  0  0  0  0
  179.9530  177.3510  141.0970 C   0  0  0  0  0  0  0  0  0  0  0  0
  180.9340  178.3940  140.6390 C   0  0  2  0  0  3  0  0  0  0  0  0
  179.5360  177.3170  142.5390 C   0  0  0  0  0  2  0  0  0  0  0  0
  1  9  1  0  0  0  0
  1  6  1  0  0  0  0
  2  3  1  6  0  0  0
  2  5  1  0  0  0  0
  4 11  1  0  0  0  0
  4  7  2  0  0  0  0
  5 14  1  0  0  0  0
  5 16  2  0  0  0  0
  7  3  1  0  0  0  0
  8 23  1  1  0  0  0
  8 12  1  0  0  0  0
 10 19  1  0  0  0  0
 10 18  1  0  0  0  0
 12 16  1  0  0  0  0
 13 18  1  6  0  0  0
 13  2  1  0  0  0  0
 13  8  1  0  0  0  0
 14  1  2  0  0  0  0
 15  4  1  0  0  0  0
 16 17  1  0  0  0  0
 17  6  2  0  0  0  0
 19  3  2  0  0  0  0
 20 15  2  0  0  0  0
 20 19  1  0  0  0  0
 21 22  2  0  0  0  0
 22 23  1  0  0  0  0
 24 27  1  0  0  0  0
 25 28  1  0  0  0  0
 26 29  2  0  0  0  0
 28 24  1  0  0  0  0
 29 31  1  0  0  0  0
 30 22  1  1  0  0  0
 30 29  1  0  0  0  0
 30 25  1  0  0  0  0
 31 24  1  0  0  0  0
M  END
>  <MODEL>
4

>  <REMARK>
 VINA RESULT:      -9.0      2.751      5.157
  Name = 
  2 active torsions:
  status: ('A' for Active; 'I' for Inactive)
    1  A    between atoms: C_5  and  C_30
    2  A    between atoms: C_10  and  N_16
                            x       y       z     vdW  Elec       q    Type
                         _______ _______ _______ _____ _____    ______ ____

>  <TORSDO>
F 2

$$$$
=
 OpenBabel11122411163D

 31 35  0  0  1  0  0  0  0  0999 V2000
  189.1220  177.7010  143.8340 C   0  0  0  0  0  0  0  0  0  0  0  0
  186.8660  179.0030  141.0560 C   0  0  2  0  0  3  0  0  0  0  0  0
  187.2730  178.2270  139.8170 C   0  0  0  0  0  0  0  0  0  0  0  0
  188.9580  177.0680  138.5000 C   0  0  0  0  0  0  0  0  0  0  0  0
  187.3080  178.3540  142.3520 C   0  0  0  0  0  0  0  0  0  0  0  0
  188.2050  177.1280  144.7150 C   0  0  0  0  0  3  0  0  0  0  0  0
  188.5720  177.7160  139.6770 C   0  0  0  0  0  3  0  0  0  0  0  0
  184.5060  178.1940  141.6260 C   0  0  2  0  0  3  0  0  0  0  0  0
  190.4470  177.6610  144.1150 F   0  0  0  0  0  0  0  0  0  0  0  0
  184.9900  178.6640  138.8600 C   0  0  0  0  0  2  0  0  0  0  0  0
  190.2410  176.5530  138.3810 O   0  0  0  0  0  1  0  0  0  0  0  0
  184.9010  177.9350  143.0750 C   0  0  0  0  0  2  0  0  0  0  0  0
  185.3570  179.3350  141.0460 C   0  0  2  0  0  3  0  0  0  0  0  0
  188.6750  178.3150  142.6630 C   0  0  0  0  0  3  0  0  0  0  0  0
  188.0530  176.9400  137.4440 C   0  0  0  0  0  3  0  0  0  0  0  0
  186.3810  177.7820  143.2550 C   0  0  0  0  0  0  0  0  0  0  0  0
  186.8380  177.1790  144.4310 C   0  0  0  0  0  3  0  0  0  0  0  0
  184.9310  179.7530  139.7590 O   0  0  0  0  0  0  0  0  0  0  0  0
  186.3830  178.1300  138.7310 C   0  0  0  0  0  0  0  0  0  0  0  0
  186.7660  177.4700  137.5590 C   0  0  0  0  0  3  0  0  0  0  0  0
  182.5090  176.7260  140.2140 O   0  0  0  0  0  0  0  0  0  0  0  0
  182.1420  177.7560  140.8420 C   0  0  0  0  0  0  0  0  0  0  0  0
  183.0940  178.5420  141.5610 N   0  0  0  0  0  2  0  0  0  0  0  0
  179.7260  180.0330  138.7910 N   0  0  0  0  0  0  0  0  0  0  0  0
  179.9940  177.7230  139.5550 C   0  0  0  0  0  2  0  0  0  0  0  0
  180.5230  180.1280  142.1640 O   0  0  0  0  0  0  0  0  0  0  0  0
  179.8840  180.8350  137.7120 O   0  0  0  0  0  1  0  0  0  0  0  0
  180.2190  178.7110  138.4090 C   0  0  0  0  0  2  0  0  0  0  0  0
  180.5740  179.6620  141.0380 C   0  0  0  0  0  0  0  0  0  0  0  0
  180.7060  178.1770  140.8360 C   0  0  2  0  0  3  0  0  0  0  0  0
  180.5880  180.5710  139.8440 C   0  0  0  0  0  2  0  0  0  0  0  0
  1  9  1  0  0  0  0
  1  6  1  0  0  0  0
  2  3  1  6  0  0  0
  2  5  1  0  0  0  0
  4  7  2  0  0  0  0
  5 14  1  0  0  0  0
  5 16  2  0  0  0  0
  7  3  1  0  0  0  0
  8 23  1  1  0  0  0
  8 12  1  0  0  0  0
 10 18  1  0  0  0  0
 11  4  1  0  0  0  0
 12 16  1  0  0  0  0
 13 18  1  6  0  0  0
 13  2  1  0  0  0  0
 13  8  1  0  0  0  0
 14  1  2  0  0  0  0
 15 20  2  0  0  0  0
 15  4  1  0  0  0  0
 16 17  1  0  0  0  0
 17  6  2  0  0  0  0
 19 10  1  0  0  0  0
 19  3  2  0  0  0  0
 20 19  1  0  0  0  0
 21 22  2  0  0  0  0
 22 23  1  0  0  0  0
 24 31  1  0  0  0  0
 25 30  1  0  0  0  0
 27 24  1  0  0  0  0
 28 24  1  0  0  0  0
 28 25  1  0  0  0  0
 29 26  2  0  0  0  0
 30 22  1  6  0  0  0
 30 29  1  0  0  0  0
 31 29  1  0  0  0  0
M  END
>  <MODEL>
5

>  <REMARK>
 VINA RESULT:      -9.0      2.773      4.915
  Name = 
  2 active torsions:
  status: ('A' for Active; 'I' for Inactive)
    1  A    between atoms: C_5  and  C_30
    2  A    between atoms: C_10  and  N_16
                            x       y       z     vdW  Elec       q    Type
                         _______ _______ _______ _____ _____    ______ ____

>  <TORSDO>
F 2

$$$$
=
 OpenBabel11122411163D

 31 35  0  0  1  0  0  0  0  0999 V2000
  186.9180  178.2160  146.8670 C   0  0  0  0  0  0  0  0  0  0  0  0
  189.8050  177.9860  144.3940 C   0  0  2  0  0  3  0  0  0  0  0  0
  190.6790  176.8580  144.9080 C   0  0  0  0  0  0  0  0  0  0  0  0
  191.5750  175.5380  146.7440 C   0  0  0  0  0  0  0  0  0  0  0  0
  188.3960  177.9670  144.9520 C   0  0  0  0  0  0  0  0  0  0  0  0
  185.8180  177.9040  146.0660 C   0  0  0  0  0  3  0  0  0  0  0  0
  190.7100  176.5300  146.2710 C   0  0  0  0  0  3  0  0  0  0  0  0
  188.7930  177.1270  142.2050 C   0  0  2  0  0  3  0  0  0  0  0  0
  186.7430  178.4830  148.1830 F   0  0  0  0  0  0  0  0  0  0  0  0
  191.5560  176.5470  142.5720 C   0  0  0  0  0  2  0  0  0  0  0  0
  191.5830  175.2110  148.0930 O   0  0  0  0  0  1  0  0  0  0  0  0
  187.3900  177.5140  142.6550 C   0  0  0  0  0  2  0  0  0  0  0  0
  189.8280  178.0640  142.8500 C   0  0  2  0  0  3  0  0  0  0  0  0
  188.1970  178.2530  146.3110 C   0  0  0  0  0  3  0  0  0  0  0  0
  192.4300  174.8780  145.8600 C   0  0  0  0  0  3  0  0  0  0  0  0
  187.2770  177.6620  144.1420 C   0  0  0  0  0  0  0  0  0  0  0  0
  185.9970  177.6400  144.7060 C   0  0  0  0  0  3  0  0  0  0  0  0
  191.1410  177.8790  142.3460 O   0  0  0  0  0  0  0  0  0  0  0  0
  191.5750  176.2160  144.0320 C   0  0  0  0  0  0  0  0  0  0  0  0
  192.4300  175.2150  144.5040 C   0  0  0  0  0  3  0  0  0  0  0  0
  187.3930  179.0030  140.5760 O   0  0  0  0  0  0  0  0  0  0  0  0
  188.1580  178.1830  139.9980 C   0  0  0  0  0  0  0  0  0  0  0  0
  188.8800  177.2110  140.7550 N   0  0  0  0  0  2  0  0  0  0  0  0
  187.2700  176.0080  136.8820 N   0  0  0  0  0  0  0  0  0  0  0  0
  186.9520  178.2530  137.8040 C   0  0  0  0  0  2  0  0  0  0  0  0
  190.3570  177.1390  137.9810 O   0  0  0  0  0  0  0  0  0  0  0  0
  186.6520  174.8150  136.7170 O   0  0  0  0  0  1  0  0  0  0  0  0
  186.3570  176.8520  137.6490 C   0  0  0  0  0  2  0  0  0  0  0  0
  189.1420  177.0500  138.0290 C   0  0  0  0  0  0  0  0  0  0  0  0
  188.3140  178.2100  138.5090 C   0  0  2  0  0  3  0  0  0  0  0  0
  188.4650  175.7550  137.6860 C   0  0  0  0  0  2  0  0  0  0  0  0
  1  9  1  0  0  0  0
  2  3  1  6  0  0  0
  2  5  1  0  0  0  0
  3  7  1  0  0  0  0
  4 11  1  0  0  0  0
  5 14  2  0  0  0  0
  6  1  2  0  0  0  0
  7  4  2  0  0  0  0
  8 23  1  6  0  0  0
  8 12  1  0  0  0  0
  8 13  1  0  0  0  0
 10 19  1  0  0  0  0
 12 16  1  0  0  0  0
 13 18  1  6  0  0  0
 13  2  1  0  0  0  0
 14  1  1  0  0  0  0
 15  4  1  0  0  0  0
 16 17  2  0  0  0  0
 16  5  1  0  0  0  0
 17  6  1  0  0  0  0
 18 10  1  0  0  0  0
 19 20  1  0  0  0  0
 19  3  2  0  0  0  0
 20 15  2  0  0  0  0
 22 21  2  0  0  0  0
 22 23  1  0  0  0  0
 24 28  1  0  0  0  0
 24 31  1  0  0  0  0
 25 30  1  0  0  0  0
 26 29  2  0  0  0  0
 27 24  1  0  0  0  0
 28 25  1  0  0  0  0
 29 30  1  0  0  0  0
 30 22  1  1  0  0  0
 31 29  1  0  0  0  0
M  END
>  <MODEL>
6

>  <REMARK>
 VINA RESULT:      -8.7      3.656      5.485
  Name = 
  2 active torsions:
  status: ('A' for Active; 'I' for Inactive)
    1  A    between atoms: C_5  and  C_30
    2  A    between atoms: C_10  and  N_16
                            x       y       z     vdW  Elec       q    Type
                         _______ _______ _______ _____ _____    ______ ____

>  <TORSDO>
F 2

$$$$
=
 OpenBabel11122411163D

 31 35  0  0  1  0  0  0  0  0999 V2000
  184.6900  178.8550  139.4640 C   0  0  0  0  0  0  0  0  0  0  0  0
  188.4370  178.2860  139.8370 C   0  0  2  0  0  3  0  0  0  0  0  0
  188.6010  177.5730  141.1670 C   0  0  0  0  0  0  0  0  0  0  0  0
  187.8680  177.1450  143.4460 C   0  0  0  0  0  0  0  0  0  0  0  0
  187.0300  178.2180  139.2790 C   0  0  0  0  0  0  0  0  0  0  0  0
  184.3890  178.1010  138.3290 C   0  0  0  0  0  3  0  0  0  0  0  0
  187.6680  177.7470  142.2000 C   0  0  0  0  0  3  0  0  0  0  0  0
  189.0710  176.5630  138.0540 C   0  0  2  0  0  3  0  0  0  0  0  0
  183.7080  179.5260  140.1120 F   0  0  0  0  0  0  0  0  0  0  0  0
  190.7770  176.6310  140.3320 C   0  0  0  0  0  2  0  0  0  0  0  0
  186.9290  177.3110  144.4540 O   0  0  0  0  0  1  0  0  0  0  0  0
  187.7870  176.8340  137.2790 C   0  0  0  0  0  2  0  0  0  0  0  0
  189.5010  177.8280  138.8140 C   0  0  2  0  0  3  0  0  0  0  0  0
  186.0040  178.9170  139.9320 C   0  0  0  0  0  3  0  0  0  0  0  0
  189.0120  176.3780  143.6760 C   0  0  0  0  0  3  0  0  0  0  0  0
  186.7210  177.4640  138.1230 C   0  0  0  0  0  0  0  0  0  0  0  0
  185.4040  177.4180  137.6550 C   0  0  0  0  0  3  0  0  0  0  0  0
  190.7790  177.7100  139.4180 O   0  0  0  0  0  0  0  0  0  0  0  0
  189.7710  176.8330  141.4220 C   0  0  0  0  0  0  0  0  0  0  0  0
  189.9630  176.2210  142.6640 C   0  0  0  0  0  3  0  0  0  0  0  0
  189.9060  173.8740  137.5940 O   0  0  0  0  0  0  0  0  0  0  0  0
  190.4840  174.7860  136.9400 C   0  0  0  0  0  0  0  0  0  0  0  0
  190.1200  176.1540  137.1310 N   0  0  0  0  0  2  0  0  0  0  0  0
  194.3770  174.8630  136.6780 N   0  0  0  0  0  0  0  0  0  0  0  0
  192.4750  173.3340  136.4930 C   0  0  0  0  0  2  0  0  0  0  0  0
  191.9950  176.3870  134.6720 O   0  0  0  0  0  0  0  0  0  0  0  0
  195.3640  175.2550  137.5160 O   0  0  0  0  0  1  0  0  0  0  0  0
  193.5670  173.8890  137.4080 C   0  0  0  0  0  2  0  0  0  0  0  0
  192.3600  175.6710  135.5900 C   0  0  0  0  0  0  0  0  0  0  0  0
  191.5660  174.4500  135.9620 C   0  0  2  0  0  3  0  0  0  0  0  0
  193.5600  176.0460  136.4090 C   0  0  0  0  0  2  0  0  0  0  0  0
  1 14  1  0  0  0  0
  1  9  1  0  0  0  0
  2  5  1  6  0  0  0
  2  3  1  0  0  0  0
  3 19  2  0  0  0  0
  3  7  1  0  0  0  0
  4 15  1  0  0  0  0
  4 11  1  0  0  0  0
  5 14  2  0  0  0  0
  6  1  2  0  0  0  0
  7  4  2  0  0  0  0
  8 23  1  6  0  0  0
  8 13  1  0  0  0  0
 10 19  1  0  0  0  0
 12  8  1  0  0  0  0
 12 16  1  0  0  0  0
 13 18  1  1  0  0  0
 13  2  1  0  0  0  0
 16  5  1  0  0  0  0
 17 16  2  0  0  0  0
 17  6  1  0  0  0  0
 18 10  1  0  0  0  0
 19 20  1  0  0  0  0
 20 15  2  0  0  0  0
 22 23  1  0  0  0  0
 22 21  2  0  0  0  0
 24 28  1  0  0  0  0
 24 27  1  0  0  0  0
 25 28  1  0  0  0  0
 26 29  2  0  0  0  0
 29 30  1  0  0  0  0
 29 31  1  0  0  0  0
 30 25  1  0  0  0  0
 30 22  1  1  0  0  0
 31 24  1  0  0  0  0
M  END
>  <MODEL>
7

>  <REMARK>
 VINA RESULT:      -8.5      5.593      8.266
  Name = 
  2 active torsions:
  status: ('A' for Active; 'I' for Inactive)
    1  A    between atoms: C_5  and  C_30
    2  A    between atoms: C_10  and  N_16
                            x       y       z     vdW  Elec       q    Type
                         _______ _______ _______ _____ _____    ______ ____

>  <TORSDO>
F 2

$$$$
=
 OpenBabel11122411163D

 31 35  0  0  1  0  0  0  0  0999 V2000
  184.6900  178.8930  144.8640 C   0  0  0  0  0  0  0  0  0  0  0  0
  188.4190  178.6410  144.1370 C   0  0  2  0  0  3  0  0  0  0  0  0
  188.9840  177.7800  145.2510 C   0  0  0  0  0  0  0  0  0  0  0  0
  188.9360  176.9910  147.5510 C   0  0  0  0  0  0  0  0  0  0  0  0
  186.9190  178.5120  143.9690 C   0  0  0  0  0  0  0  0  0  0  0  0
  184.1290  178.2680  143.7490 C   0  0  0  0  0  3  0  0  0  0  0  0
  188.3660  177.7280  146.5090 C   0  0  0  0  0  3  0  0  0  0  0  0
  188.6300  177.2330  142.0100 C   0  0  2  0  0  3  0  0  0  0  0  0
  183.8890  179.3780  145.8430 F   0  0  0  0  0  0  0  0  0  0  0  0
  190.8940  177.1670  143.7350 C   0  0  0  0  0  2  0  0  0  0  0  0
  188.3060  176.9340  148.7860 O   0  0  0  0  0  1  0  0  0  0  0  0
  187.1690  177.4790  141.6540 C   0  0  0  0  0  2  0  0  0  0  0  0
  189.1820  178.4240  142.8100 C   0  0  2  0  0  3  0  0  0  0  0  0
  186.0750  179.0190  144.9690 C   0  0  0  0  0  3  0  0  0  0  0  0
  190.1410  176.3130  147.3500 C   0  0  0  0  0  3  0  0  0  0  0  0
  186.3450  177.8890  142.8360 C   0  0  0  0  0  0  0  0  0  0  0  0
  184.9540  177.7790  142.7340 C   0  0  0  0  0  3  0  0  0  0  0  0
  190.5820  178.3500  143.0280 O   0  0  0  0  0  0  0  0  0  0  0  0
  190.2190  177.1280  145.0710 C   0  0  0  0  0  0  0  0  0  0  0  0
  190.7810  176.3810  146.1100 C   0  0  0  0  0  3  0  0  0  0  0  0
  188.2460  178.6780  139.5810 O   0  0  0  0  0  0  0  0  0  0  0  0
  189.1660  177.8150  139.6080 C   0  0  0  0  0  0  0  0  0  0  0  0
  189.4040  177.0500  140.7900 N   0  0  0  0  0  2  0  0  0  0  0  0
  188.9350  176.0960  136.1120 N   0  0  0  0  0  0  0  0  0  0  0  0
  189.4310  178.2540  137.1570 C   0  0  0  0  0  2  0  0  0  0  0  0
  191.1470  175.5180  138.7180 O   0  0  0  0  0  0  0  0  0  0  0  0
  187.9620  175.4120  135.4670 O   0  0  0  0  0  1  0  0  0  0  0  0
  188.3600  177.3850  136.4950 C   0  0  0  0  0  2  0  0  0  0  0  0
  190.2270  176.1020  138.1700 C   0  0  0  0  0  0  0  0  0  0  0  0
  190.0160  177.5730  138.4000 C   0  0  2  0  0  3  0  0  0  0  0  0
  189.2460  175.3420  137.3250 C   0  0  0  0  0  2  0  0  0  0  0  0
  1 14  1  0  0  0  0
  1  9  1  0  0  0  0
  2  5  1  6  0  0  0
  2  3  1  0  0  0  0
  3  7  1  0  0  0  0
  4 11  1  0  0  0  0
  5 14  2  0  0  0  0
  6  1  2  0  0  0  0
  7  4  2  0  0  0  0
  8 23  1  6  0  0  0
  8 13  1  0  0  0  0
 10 19  1  0  0  0  0
 12  8  1  0  0  0  0
 12 16  1  0  0  0  0
 13 18  1  1  0  0  0
 13  2  1  0  0  0  0
 15  4  1  0  0  0  0
 16  5  1  0  0  0  0
 17 16  2  0  0  0  0
 17  6  1  0  0  0  0
 18 10  1  0  0  0  0
 19  3  2  0  0  0  0
 19 20  1  0  0  0  0
 20 15  2  0  0  0  0
 21 22  2  0  0  0  0
 22 23  1  0  0  0  0
 24 28  1  0  0  0  0
 24 31  1  0  0  0  0
 25 30  1  0  0  0  0
 27 24  1  0  0  0  0
 28 25  1  0  0  0  0
 29 30  1  0  0  0  0
 29 26  2  0  0  0  0
 30 22  1  1  0  0  0
 31 29  1  0  0  0  0
M  END
>  <MODEL>
8

>  <REMARK>
 VINA RESULT:      -8.2      3.861      5.738
  Name = 
  2 active torsions:
  status: ('A' for Active; 'I' for Inactive)
    1  A    between atoms: C_5  and  C_30
    2  A    between atoms: C_10  and  N_16
                            x       y       z     vdW  Elec       q    Type
                         _______ _______ _______ _____ _____    ______ ____

>  <TORSDO>
F 2

$$$$
=
 OpenBabel11122411163D

 31 35  0  0  1  0  0  0  0  0999 V2000
  185.6730  178.1850  138.3850 C   0  0  0  0  0  0  0  0  0  0  0  0
  189.1970  178.1420  139.8260 C   0  0  2  0  0  3  0  0  0  0  0  0
  189.0600  177.4970  141.1930 C   0  0  0  0  0  0  0  0  0  0  0  0
  187.7650  177.0380  143.2000 C   0  0  0  0  0  0  0  0  0  0  0  0
  188.0270  177.8670  138.9040 C   0  0  0  0  0  0  0  0  0  0  0  0
  185.8030  177.3640  137.2640 C   0  0  0  0  0  3  0  0  0  0  0  0
  187.8570  177.5720  141.9110 C   0  0  0  0  0  3  0  0  0  0  0  0
  190.5190  176.4700  138.4100 C   0  0  2  0  0  3  0  0  0  0  0  0
  184.4720  178.7350  138.6860 F   0  0  0  0  0  0  0  0  0  0  0  0
  191.4820  176.8360  141.0640 C   0  0  0  0  0  2  0  0  0  0  0  0
  186.5640  177.1050  143.8930 O   0  0  0  0  0  1  0  0  0  0  0  0
  189.4880  176.5420  137.2900 C   0  0  0  0  0  2  0  0  0  0  0  0
  190.5570  177.8040  139.1740 C   0  0  2  0  0  3  0  0  0  0  0  0
  186.7800  178.4390  139.1960 C   0  0  0  0  0  3  0  0  0  0  0  0
  188.8800  176.4410  143.7900 C   0  0  0  0  0  3  0  0  0  0  0  0
  188.1560  177.0450  137.7590 C   0  0  0  0  0  0  0  0  0  0  0  0
  187.0430  176.8070  136.9460 C   0  0  0  0  0  3  0  0  0  0  0  0
  191.6130  177.8780  140.1180 O   0  0  0  0  0  0  0  0  0  0  0  0
  190.1890  176.9300  141.8130 C   0  0  0  0  0  0  0  0  0  0  0  0
  190.0920  176.3860  143.0980 C   0  0  0  0  0  3  0  0  0  0  0  0
  191.4320  173.8940  137.5940 O   0  0  0  0  0  0  0  0  0  0  0  0
  192.2220  174.8670  137.4480 C   0  0  0  0  0  0  0  0  0  0  0  0
  191.8300  176.1820  137.8460 N   0  0  0  0  0  2  0  0  0  0  0  0
  194.9300  172.0720  137.1590 N   0  0  0  0  0  0  0  0  0  0  0  0
  193.5700  173.5710  135.7830 C   0  0  0  0  0  2  0  0  0  0  0  0
  195.1720  175.2530  138.5160 O   0  0  0  0  0  0  0  0  0  0  0  0
  195.0110  170.7960  137.6030 O   0  0  0  0  0  1  0  0  0  0  0  0
  193.6900  172.1730  136.3920 C   0  0  0  0  0  2  0  0  0  0  0  0
  194.5930  174.3490  137.9370 C   0  0  0  0  0  0  0  0  0  0  0  0
  193.5840  174.6580  136.8650 C   0  0  2  0  0  3  0  0  0  0  0  0
  194.8200  172.9230  138.3440 C   0  0  0  0  0  2  0  0  0  0  0  0
  1  9  1  0  0  0  0
  1 14  1  0  0  0  0
  2  5  1  6  0  0  0
  2  3  1  0  0  0  0
  3 19  2  0  0  0  0
  3  7  1  0  0  0  0
  4 15  1  0  0  0  0
  4 11  1  0  0  0  0
  5 14  2  0  0  0  0
  6  1  2  0  0  0  0
  7  4  2  0  0  0  0
  8 23  1  6  0  0  0
  8 13  1  0  0  0  0
 10 19  1  0  0  0  0
 12 16  1  0  0  0  0
 12  8  1  0  0  0  0
 13  2  1  0  0  0  0
 13 18  1  1  0  0  0
 16  5  1  0  0  0  0
 17  6  1  0  0  0  0
 17 16  2  0  0  0  0
 18 10  1  0  0  0  0
 19 20  1  0  0  0  0
 20 15  2  0  0  0  0
 22 21  2  0  0  0  0
 22 23  1  0  0  0  0
 24 27  1  0  0  0  0
 24 31  1  0  0  0  0
 25 28  1  0  0  0  0
 25 30  1  0  0  0  0
 28 24  1  0  0  0  0
 29 31  1  0  0  0  0
 29 26  2  0  0  0  0
 30 22  1  1  0  0  0
 30 29  1  0  0  0  0
M  END
>  <MODEL>
9

>  <REMARK>
 VINA RESULT:      -8.0      6.172      8.999
  Name = 
  2 active torsions:
  status: ('A' for Active; 'I' for Inactive)
    1  A    between atoms: C_5  and  C_30
    2  A    between atoms: C_10  and  N_16
                            x       y       z     vdW  Elec       q    Type
                         _______ _______ _______ _____ _____    ______ ____

>  <TORSDO>
F 2

$$$$
