=
 OpenBabel11122411473D

 37 44  0  0  1  0  0  0  0  0999 V2000
  185.7520  179.2160  145.4890 C   0  0  1  0  0  0  0  0  0  0  0  0
  187.0320  177.3880  142.4740 C   0  0  1  0  0  3  0  0  0  0  0  0
  189.7970  175.6080  142.7470 O   0  0  0  0  0  0  0  0  0  0  0  0
  184.8400  178.1130  143.6790 C   0  0  2  0  0  3  0  0  0  0  0  0
  188.3810  177.4810  143.1860 C   0  0  2  0  0  3  0  0  0  0  0  0
  186.0540  177.1790  143.6360 C   0  0  2  0  0  3  0  0  0  0  0  0
  189.5720  176.9460  142.3890 C   0  0  2  0  0  3  0  0  0  0  0  0
  184.2810  178.2680  142.2750 C   0  0  0  0  0  2  0  0  0  0  0  0
  186.9020  177.2700  144.9010 C   0  0  2  0  0  3  0  0  0  0  0  0
  184.9370  178.4840  146.3650 O   0  0  0  0  0  1  0  0  0  0  0  0
  187.5450  178.6280  140.3260 C   0  0  0  0  0  2  0  0  0  0  0  0
  185.2920  178.8830  141.2990 C   0  0  0  0  0  2  0  0  0  0  0  0
  187.0220  178.6150  145.3420 O   0  0  0  0  0  0  0  0  0  0  0  0
  191.5300  176.7340  144.2500 C   0  0  0  0  0  2  0  0  0  0  0  0
  190.8620  175.4820  143.6850 C   0  0  1  0  0  3  0  0  0  0  0  0
  186.7740  178.6600  141.6450 C   0  0  1  0  0  3  0  0  0  0  0  0
  188.2090  176.7710  144.4570 N   0  0  2  0  0  0  0  0  0  0  0  0
  185.1420  179.3780  144.2260 O   0  0  0  0  0  0  0  0  0  0  0  0
  189.4770  177.1310  140.8630 C   0  0  1  0  0  3  0  0  0  0  0  0
  185.9390  180.4720  146.0330 F   0  0  0  0  0  0  0  0  0  0  0  0
  190.5020  176.0030  145.0960 C   0  0  2  0  0  3  0  0  0  0  0  0
  189.3520  177.0090  145.3650 C   0  0  2  0  0  3  0  0  0  0  0  0
  189.0560  178.5540  140.5060 C   0  0  0  0  0  2  0  0  0  0  0  0
  191.9300  177.6780  140.5960 C   0  0  0  0  0  2  0  0  0  0  0  0
  190.7800  176.7870  140.1330 C   0  0  2  0  0  3  0  0  0  0  0  0
  190.6280  176.8110  138.6060 C   0  0  0  0  0  2  0  0  0  0  0  0
  191.9790  176.3780  136.6890 O   0  0  0  0  0  0  0  0  0  0  0  0
  193.1680  177.0130  138.5850 N   0  0  0  0  0  2  0  0  0  0  0  0
  191.9500  176.6870  137.9080 C   0  0  0  0  0  0  0  0  0  0  0  0
  193.2360  177.1280  140.0390 C   0  0  0  0  0  2  0  0  0  0  0  0
  188.9650  176.8090  146.8510 C   0  0  1  0  0  3  0  0  0  0  0  0
  190.1070  176.7660  147.8130 N   0  0  0  0  0  0  0  0  0  0  0  0
  189.2800  177.9720  147.6770 C   0  0  2  0  0  3  0  0  0  0  0  0
  188.3080  178.0440  148.8360 C   0  0  0  0  0  2  0  0  0  0  0  0
  187.2430  178.8560  148.4940 F   0  0  0  0  0  0  0  0  0  0  0  0
  192.3860  176.3330  147.7940 F   0  0  0  0  0  0  0  0  0  0  0  0
  191.4000  177.1280  147.2410 C   0  0  0  0  0  2  0  0  0  0  0  0
  1 20  1  1  0  0  0
  1 10  1  0  0  0  0
  2  5  1  0  0  0  0
  2  6  1  0  0  0  0
  3 15  1  0  0  0  0
  4 18  1  0  0  0  0
  5 17  1  0  0  0  0
  6  4  1  0  0  0  0
  6  9  1  0  0  0  0
  7  3  1  0  0  0  0
  7  5  1  0  0  0  0
  8  4  1  0  0  0  0
  9 13  1  0  0  0  0
 11 23  1  0  0  0  0
 11 16  1  0  0  0  0
 12 16  1  0  0  0  0
 12  8  1  0  0  0  0
 13  1  1  0  0  0  0
 14 21  1  0  0  0  0
 15 14  1  0  0  0  0
 15 21  1  0  0  0  0
 16  2  1  0  0  0  0
 17  9  1  0  0  0  0
 17 22  1  0  0  0  0
 18  1  1  0  0  0  0
 19  7  1  0  0  0  0
 21 22  1  0  0  0  0
 22 31  1  0  0  0  0
 23 19  1  0  0  0  0
 25 24  1  0  0  0  0
 25 19  1  0  0  0  0
 26 25  1  0  0  0  0
 27 29  2  0  0  0  0
 28 30  1  0  0  0  0
 29 28  1  0  0  0  0
 29 26  1  0  0  0  0
 30 24  1  0  0  0  0
 31 33  1  0  0  0  0
 31 32  1  0  0  0  0
 33 32  1  0  0  0  0
 33 34  1  0  0  0  0
 35 34  1  0  0  0  0
 37 36  1  0  0  0  0
 37 32  1  0  0  0  0
M  END
>  <MODEL>
1

>  <REMARK>
 VINA RESULT:      -9.3      0.000      0.000
  Name = 
  4 active torsions:
  status: ('A' for Active; 'I' for Inactive)
    1  A    between atoms: C_1  and  C_27
    2  A    between atoms: N_4  and  C_37
    3  A    between atoms: C_8  and  C_12
    4  A    between atoms: C_23  and  C_30
                            x       y       z     vdW  Elec       q    Type
                         _______ _______ _______ _____ _____    ______ ____

>  <TORSDO>
F 4

$$$$
=
 OpenBabel11122411473D

 37 44  0  0  1  0  0  0  0  0999 V2000
  189.7660  176.3650  137.7580 C   0  0  1  0  0  0  0  0  0  0  0  0
  186.5550  178.2830  137.4740 C   0  0  1  0  0  3  0  0  0  0  0  0
  185.2390  179.5950  140.2000 O   0  0  0  0  0  0  0  0  0  0  0  0
  188.7790  177.7710  136.2180 C   0  0  2  0  0  3  0  0  0  0  0  0
  186.3900  177.9190  138.9490 C   0  0  2  0  0  3  0  0  0  0  0  0
  188.0660  178.5150  137.3530 C   0  0  2  0  0  3  0  0  0  0  0  0
  185.0650  178.3500  139.5790 C   0  0  2  0  0  3  0  0  0  0  0  0
  187.9270  177.8460  134.9620 C   0  0  0  0  0  2  0  0  0  0  0  0
  188.6400  178.1690  138.7240 C   0  0  2  0  0  3  0  0  0  0  0  0
  190.9500  177.1160  137.7080 O   0  0  0  0  0  1  0  0  0  0  0  0
  184.4850  177.2080  136.4880 C   0  0  0  0  0  2  0  0  0  0  0  0
  186.5510  177.1920  135.1390 C   0  0  0  0  0  2  0  0  0  0  0  0
  188.9360  176.7830  138.8210 O   0  0  0  0  0  0  0  0  0  0  0  0
  185.5130  178.0760  142.2370 C   0  0  0  0  0  2  0  0  0  0  0  0
  185.4220  179.4650  141.6070 C   0  0  1  0  0  3  0  0  0  0  0  0
  186.0100  177.1550  136.5790 C   0  0  1  0  0  3  0  0  0  0  0  0
  187.5420  178.5110  139.6350 N   0  0  2  0  0  0  0  0  0  0  0  0
  189.0600  176.4260  136.5360 O   0  0  0  0  0  0  0  0  0  0  0  0
  183.8530  178.3380  138.6280 C   0  0  1  0  0  3  0  0  0  0  0  0
  190.1100  175.0460  137.9830 F   0  0  0  0  0  0  0  0  0  0  0  0
  186.7910  178.8610  141.9960 C   0  0  2  0  0  3  0  0  0  0  0  0
  187.6550  178.0140  141.0240 C   0  0  2  0  0  3  0  0  0  0  0  0
  183.7900  177.0390  137.8320 C   0  0  0  0  0  2  0  0  0  0  0  0
  181.5200  177.4520  139.0290 C   0  0  0  0  0  2  0  0  0  0  0  0
  182.5200  178.5580  139.3520 C   0  0  2  0  0  3  0  0  0  0  0  0
  181.9260  179.9490  139.0900 C   0  0  0  0  0  2  0  0  0  0  0  0
  180.0230  181.2150  139.7730 O   0  0  0  0  0  0  0  0  0  0  0  0
  179.7350  178.9080  139.8690 N   0  0  0  0  0  2  0  0  0  0  0  0
  180.5300  180.0730  139.6240 C   0  0  0  0  0  0  0  0  0  0  0  0
  180.3250  177.5760  139.9630 C   0  0  0  0  0  2  0  0  0  0  0  0
  189.1040  178.1160  141.5620 C   0  0  1  0  0  3  0  0  0  0  0  0
  189.4080  177.2710  142.7550 N   0  0  0  0  0  0  0  0  0  0  0  0
  189.8490  176.8680  141.4140 C   0  0  2  0  0  3  0  0  0  0  0  0
  191.3230  177.1770  141.2590 C   0  0  0  0  0  2  0  0  0  0  0  0
  191.9380  177.1200  142.4950 F   0  0  0  0  0  0  0  0  0  0  0  0
  187.8520  176.6390  144.3560 F   0  0  0  0  0  0  0  0  0  0  0  0
  188.3610  176.3190  143.1120 C   0  0  0  0  0  2  0  0  0  0  0  0
  1 10  1  6  0  0  0
  1 20  1  0  0  0  0
  1 13  1  0  0  0  0
  2  5  1  0  0  0  0
  3 15  1  0  0  0  0
  4 18  1  0  0  0  0
  4  6  1  0  0  0  0
  5  7  1  0  0  0  0
  5 17  1  0  0  0  0
  6  2  1  0  0  0  0
  6  9  1  0  0  0  0
  7  3  1  0  0  0  0
  8 12  1  0  0  0  0
  8  4  1  0  0  0  0
  9 13  1  0  0  0  0
  9 17  1  0  0  0  0
 11 16  1  0  0  0  0
 11 23  1  0  0  0  0
 12 16  1  0  0  0  0
 15 21  1  0  0  0  0
 15 14  1  0  0  0  0
 16  2  1  0  0  0  0
 17 22  1  0  0  0  0
 18  1  1  0  0  0  0
 19 25  1  0  0  0  0
 19  7  1  0  0  0  0
 21 14  1  0  0  0  0
 22 31  1  0  0  0  0
 22 21  1  0  0  0  0
 23 19  1  0  0  0  0
 24 25  1  0  0  0  0
 24 30  1  0  0  0  0
 26 25  1  0  0  0  0
 26 29  1  0  0  0  0
 28 30  1  0  0  0  0
 29 27  2  0  0  0  0
 29 28  1  0  0  0  0
 31 32  1  0  0  0  0
 32 37  1  0  0  0  0
 33 31  1  0  0  0  0
 33 32  1  0  0  0  0
 34 33  1  0  0  0  0
 34 35  1  0  0  0  0
 37 36  1  0  0  0  0
M  END
>  <MODEL>
2

>  <REMARK>
 VINA RESULT:      -9.0      4.147      7.986
  Name = 
  4 active torsions:
  status: ('A' for Active; 'I' for Inactive)
    1  A    between atoms: C_1  and  C_27
    2  A    between atoms: N_4  and  C_37
    3  A    between atoms: C_8  and  C_12
    4  A    between atoms: C_23  and  C_30
                            x       y       z     vdW  Elec       q    Type
                         _______ _______ _______ _____ _____    ______ ____

>  <TORSDO>
F 4

$$$$
=
 OpenBabel11122411473D

 37 44  0  0  1  0  0  0  0  0999 V2000
  188.2340  176.0070  136.7970 C   0  0  1  0  0  0  0  0  0  0  0  0
  185.2940  178.1440  137.7230 C   0  0  1  0  0  3  0  0  0  0  0  0
  185.3080  179.6960  140.6340 O   0  0  0  0  0  0  0  0  0  0  0  0
  186.7580  177.4000  135.7010 C   0  0  2  0  0  3  0  0  0  0  0  0
  185.7480  177.8730  139.1560 C   0  0  2  0  0  3  0  0  0  0  0  0
  186.6230  178.2540  136.9660 C   0  0  2  0  0  3  0  0  0  0  0  0
  184.8320  178.4360  140.2440 C   0  0  2  0  0  3  0  0  0  0  0  0
  185.4610  177.4710  134.9110 C   0  0  0  0  0  2  0  0  0  0  0  0
  187.7040  177.9400  137.9960 C   0  0  2  0  0  3  0  0  0  0  0  0
  189.3210  176.6630  136.1980 O   0  0  0  0  0  1  0  0  0  0  0  0
  182.9540  177.1770  137.7770 C   0  0  0  0  0  2  0  0  0  0  0  0
  184.2590  176.9330  135.6970 C   0  0  0  0  0  2  0  0  0  0  0  0
  187.9490  176.5430  138.0720 O   0  0  0  0  0  0  0  0  0  0  0  0
  186.3430  178.2710  142.4870 C   0  0  0  0  0  2  0  0  0  0  0  0
  186.0590  179.6270  141.8430 C   0  0  1  0  0  3  0  0  0  0  0  0
  184.3720  177.0140  137.2290 C   0  0  1  0  0  3  0  0  0  0  0  0
  187.1070  178.4120  139.2510 N   0  0  2  0  0  0  0  0  0  0  0  0
  187.0840  176.0560  135.9800 O   0  0  0  0  0  0  0  0  0  0  0  0
  183.3330  178.4650  139.8880 C   0  0  1  0  0  3  0  0  0  0  0  0
  188.5800  174.6800  136.9640 F   0  0  0  0  0  0  0  0  0  0  0  0
  187.4360  178.9440  141.6730 C   0  0  2  0  0  3  0  0  0  0  0  0
  187.7710  177.9840  140.5020 C   0  0  2  0  0  3  0  0  0  0  0  0
  182.8810  177.1330  139.2970 C   0  0  0  0  0  2  0  0  0  0  0  0
  183.0720  178.3910  142.4010 C   0  0  0  0  0  2  0  0  0  0  0  0
  182.4400  178.8230  141.0810 C   0  0  2  0  0  3  0  0  0  0  0  0
  181.0120  178.2790  140.9360 C   0  0  0  0  0  2  0  0  0  0  0  0
  178.9620  178.3490  142.1530 O   0  0  0  0  0  0  0  0  0  0  0  0
  180.8700  178.6210  143.4560 N   0  0  0  0  0  2  0  0  0  0  0  0
  180.2160  178.4480  142.1950 C   0  0  0  0  0  0  0  0  0  0  0  0
  182.2780  178.9960  143.5510 C   0  0  0  0  0  2  0  0  0  0  0  0
  189.3140  178.0040  140.3780 C   0  0  1  0  0  3  0  0  0  0  0  0
  190.0600  177.4040  141.5240 N   0  0  0  0  0  0  0  0  0  0  0  0
  189.8890  176.6660  140.2660 C   0  0  2  0  0  3  0  0  0  0  0  0
  191.1740  176.7340  139.4680 C   0  0  0  0  0  2  0  0  0  0  0  0
  190.9770  177.5110  138.3430 F   0  0  0  0  0  0  0  0  0  0  0  0
  189.8480  175.5240  142.8670 F   0  0  0  0  0  0  0  0  0  0  0  0
  189.2260  176.7000  142.4930 C   0  0  0  0  0  2  0  0  0  0  0  0
  1 10  1  6  0  0  0
  1 20  1  0  0  0  0
  1 13  1  0  0  0  0
  2  5  1  0  0  0  0
  3 15  1  0  0  0  0
  4 18  1  0  0  0  0
  4  6  1  0  0  0  0
  5 17  1  0  0  0  0
  5  7  1  0  0  0  0
  6  2  1  0  0  0  0
  6  9  1  0  0  0  0
  7  3  1  0  0  0  0
  8 12  1  0  0  0  0
  8  4  1  0  0  0  0
  9 13  1  0  0  0  0
  9 17  1  0  0  0  0
 11 23  1  0  0  0  0
 12 16  1  0  0  0  0
 15 14  1  0  0  0  0
 16  2  1  0  0  0  0
 16 11  1  0  0  0  0
 17 22  1  0  0  0  0
 18  1  1  0  0  0  0
 19  7  1  0  0  0  0
 19 25  1  0  0  0  0
 21 15  1  0  0  0  0
 21 14  1  0  0  0  0
 22 21  1  0  0  0  0
 23 19  1  0  0  0  0
 24 30  1  0  0  0  0
 25 24  1  0  0  0  0
 26 25  1  0  0  0  0
 26 29  1  0  0  0  0
 27 29  2  0  0  0  0
 28 30  1  0  0  0  0
 29 28  1  0  0  0  0
 31 22  1  0  0  0  0
 31 32  1  0  0  0  0
 32 37  1  0  0  0  0
 33 31  1  0  0  0  0
 33 32  1  0  0  0  0
 34 33  1  0  0  0  0
 35 34  1  0  0  0  0
 37 36  1  0  0  0  0
M  END
>  <MODEL>
3

>  <REMARK>
 VINA RESULT:      -7.7      4.358      8.234
  Name = 
  4 active torsions:
  status: ('A' for Active; 'I' for Inactive)
    1  A    between atoms: C_1  and  C_27
    2  A    between atoms: N_4  and  C_37
    3  A    between atoms: C_8  and  C_12
    4  A    between atoms: C_23  and  C_30
                            x       y       z     vdW  Elec       q    Type
                         _______ _______ _______ _____ _____    ______ ____

>  <TORSDO>
F 4

$$$$
=
 OpenBabel11122411473D

 37 44  0  0  1  0  0  0  0  0999 V2000
  190.3200  175.9880  138.3730 C   0  0  1  0  0  0  0  0  0  0  0  0
  187.8930  178.6150  139.5020 C   0  0  1  0  0  3  0  0  0  0  0  0
  187.3300  178.9780  142.7330 O   0  0  0  0  0  0  0  0  0  0  0  0
  189.7060  178.1080  137.7020 C   0  0  2  0  0  3  0  0  0  0  0  0
  187.7550  177.7310  140.7410 C   0  0  2  0  0  3  0  0  0  0  0  0
  189.3800  178.4740  139.1540 C   0  0  2  0  0  3  0  0  0  0  0  0
  186.7050  178.1930  141.7530 C   0  0  2  0  0  3  0  0  0  0  0  0
  188.8120  178.9140  136.7720 C   0  0  0  0  0  2  0  0  0  0  0  0
  189.9340  177.4560  140.1470 C   0  0  2  0  0  3  0  0  0  0  0  0
  191.6740  176.3560  138.3480 O   0  0  0  0  0  1  0  0  0  0  0  0
  185.5050  178.6240  138.6590 C   0  0  0  0  0  2  0  0  0  0  0  0
  187.3210  178.6280  136.9890 C   0  0  0  0  0  2  0  0  0  0  0  0
  189.7720  176.1300  139.6670 O   0  0  0  0  0  0  0  0  0  0  0  0
  187.2820  176.7400  143.9660 C   0  0  0  0  0  2  0  0  0  0  0  0
  187.5880  178.2360  143.9210 C   0  0  1  0  0  3  0  0  0  0  0  0
  186.9320  178.1430  138.3960 C   0  0  1  0  0  3  0  0  0  0  0  0
  189.0940  177.6650  141.3330 N   0  0  2  0  0  0  0  0  0  0  0  0
  189.5630  176.7300  137.4390 O   0  0  0  0  0  0  0  0  0  0  0  0
  185.4730  178.8910  141.1460 C   0  0  1  0  0  3  0  0  0  0  0  0
  190.2370  174.6540  138.0220 F   0  0  0  0  0  0  0  0  0  0  0  0
  188.7180  177.1920  143.7600 C   0  0  2  0  0  3  0  0  0  0  0  0
  189.1670  176.6290  142.3860 C   0  0  2  0  0  3  0  0  0  0  0  0
  184.9190  178.1020  139.9640 C   0  0  0  0  0  2  0  0  0  0  0  0
  184.5300  178.2520  143.4020 C   0  0  0  0  0  2  0  0  0  0  0  0
  184.3560  179.1310  142.1680 C   0  0  2  0  0  3  0  0  0  0  0  0
  182.9550  178.9780  141.5600 C   0  0  0  0  0  2  0  0  0  0  0  0
  180.6880  179.2020  142.2670 O   0  0  0  0  0  0  0  0  0  0  0  0
  182.1870  178.7010  143.9730 N   0  0  0  0  0  2  0  0  0  0  0  0
  181.8820  179.0020  142.6080 C   0  0  0  0  0  0  0  0  0  0  0  0
  183.5570  178.7120  144.4790 C   0  0  0  0  0  2  0  0  0  0  0  0
  190.6130  176.1190  142.6000 C   0  0  1  0  0  3  0  0  0  0  0  0
  191.6130  177.1590  142.9870 N   0  0  0  0  0  0  0  0  0  0  0  0
  191.0540  176.2410  143.9870 C   0  0  2  0  0  3  0  0  0  0  0  0
  192.0680  175.1580  144.2920 C   0  0  0  0  0  2  0  0  0  0  0  0
  192.4030  175.2040  145.6310 F   0  0  0  0  0  0  0  0  0  0  0  0
  191.7670  179.0430  144.3330 F   0  0  0  0  0  0  0  0  0  0  0  0
  191.0420  178.4630  143.3100 C   0  0  0  0  0  2  0  0  0  0  0  0
  1 20  1  6  0  0  0
  1 13  1  0  0  0  0
  2  5  1  0  0  0  0
  3 15  1  0  0  0  0
  4  6  1  0  0  0  0
  5 17  1  0  0  0  0
  5  7  1  0  0  0  0
  6  2  1  0  0  0  0
  6  9  1  0  0  0  0
  7  3  1  0  0  0  0
  8 12  1  0  0  0  0
  8  4  1  0  0  0  0
  9 17  1  0  0  0  0
 10  1  1  0  0  0  0
 11 23  1  0  0  0  0
 12 16  1  0  0  0  0
 13  9  1  0  0  0  0
 15 14  1  0  0  0  0
 16 11  1  0  0  0  0
 16  2  1  0  0  0  0
 17 22  1  0  0  0  0
 18  4  1  0  0  0  0
 18  1  1  0  0  0  0
 19  7  1  0  0  0  0
 19 25  1  0  0  0  0
 21 15  1  0  0  0  0
 21 14  1  0  0  0  0
 22 31  1  0  0  0  0
 22 21  1  0  0  0  0
 23 19  1  0  0  0  0
 24 30  1  0  0  0  0
 25 24  1  0  0  0  0
 26 25  1  0  0  0  0
 26 29  1  0  0  0  0
 27 29  2  0  0  0  0
 28 30  1  0  0  0  0
 29 28  1  0  0  0  0
 31 32  1  0  0  0  0
 31 33  1  0  0  0  0
 32 37  1  0  0  0  0
 32 33  1  0  0  0  0
 33 34  1  0  0  0  0
 34 35  1  0  0  0  0
 37 36  1  0  0  0  0
M  END
>  <MODEL>
4

>  <REMARK>
 VINA RESULT:      -7.4      2.913      6.852
  Name = 
  4 active torsions:
  status: ('A' for Active; 'I' for Inactive)
    1  A    between atoms: C_1  and  C_27
    2  A    between atoms: N_4  and  C_37
    3  A    between atoms: C_8  and  C_12
    4  A    between atoms: C_23  and  C_30
                            x       y       z     vdW  Elec       q    Type
                         _______ _______ _______ _____ _____    ______ ____

>  <TORSDO>
F 4

$$$$
=
 OpenBabel11122411473D

 37 44  0  0  1  0  0  0  0  0999 V2000
  190.2770  176.7560  139.6570 C   0  0  1  0  0  0  0  0  0  0  0  0
  187.3410  177.9930  137.6780 C   0  0  1  0  0  3  0  0  0  0  0  0
  184.7950  179.3440  139.2830 O   0  0  0  0  0  0  0  0  0  0  0  0
  189.9350  177.7630  137.6100 C   0  0  2  0  0  3  0  0  0  0  0  0
  186.5730  177.7780  138.9810 C   0  0  2  0  0  3  0  0  0  0  0  0
  188.7060  178.4870  138.1710 C   0  0  2  0  0  3  0  0  0  0  0  0
  185.0660  178.0250  138.8930 C   0  0  2  0  0  3  0  0  0  0  0  0
  189.7390  177.5300  136.1210 C   0  0  0  0  0  2  0  0  0  0  0  0
  188.6360  178.4170  139.6940 C   0  0  2  0  0  3  0  0  0  0  0  0
  191.2610  177.7040  139.9770 O   0  0  0  0  0  1  0  0  0  0  0  0
  186.0790  176.4420  136.1240 C   0  0  0  0  0  2  0  0  0  0  0  0
  188.5170  176.6550  135.8150 C   0  0  0  0  0  2  0  0  0  0  0  0
  189.0150  177.1320  140.1660 O   0  0  0  0  0  0  0  0  0  0  0  0
  184.2950  178.1520  141.4870 C   0  0  0  0  0  2  0  0  0  0  0  0
  184.3380  179.4150  140.6300 C   0  0  1  0  0  3  0  0  0  0  0  0
  187.3930  176.6860  136.8650 C   0  0  1  0  0  3  0  0  0  0  0  0
  187.2140  178.6520  139.9680 N   0  0  2  0  0  0  0  0  0  0  0  0
  190.1960  176.5410  138.2640 O   0  0  0  0  0  0  0  0  0  0  0  0
  184.4230  177.6760  137.5370 C   0  0  1  0  0  3  0  0  0  0  0  0
  190.6330  175.5600  140.2510 F   0  0  0  0  0  0  0  0  0  0  0  0
  185.4450  179.1290  141.6710 C   0  0  2  0  0  3  0  0  0  0  0  0
  186.7450  178.3510  141.3380 C   0  0  2  0  0  3  0  0  0  0  0  0
  184.8760  176.3030  137.0490 C   0  0  0  0  0  2  0  0  0  0  0  0
  182.3220  176.7310  138.5760 C   0  0  0  0  0  2  0  0  0  0  0  0
  182.8910  177.7250  137.5680 C   0  0  2  0  0  3  0  0  0  0  0  0
  182.2640  177.5410  136.1790 C   0  0  0  0  0  2  0  0  0  0  0  0
  180.0840  177.5290  135.2120 O   0  0  0  0  0  0  0  0  0  0  0  0
  180.1460  176.9510  137.4650 N   0  0  0  0  0  2  0  0  0  0  0  0
  180.7760  177.3760  136.2520 C   0  0  0  0  0  0  0  0  0  0  0  0
  180.8340  177.0030  138.7520 C   0  0  0  0  0  2  0  0  0  0  0  0
  187.7730  178.7840  142.4120 C   0  0  1  0  0  3  0  0  0  0  0  0
  187.5470  178.2280  143.7810 N   0  0  0  0  0  0  0  0  0  0  0  0
  188.5820  177.6700  142.9010 C   0  0  2  0  0  3  0  0  0  0  0  0
  189.9380  178.1840  143.3350 C   0  0  0  0  0  2  0  0  0  0  0  0
  190.2770  177.6190  144.5500 F   0  0  0  0  0  0  0  0  0  0  0  0
  185.4620  177.6550  144.6220 F   0  0  0  0  0  0  0  0  0  0  0  0
  186.5180  177.1960  143.8570 C   0  0  0  0  0  2  0  0  0  0  0  0
  1 10  1  1  0  0  0
  1 13  1  0  0  0  0
  1 20  1  0  0  0  0
  2  6  1  0  0  0  0
  2  5  1  0  0  0  0
  3 15  1  0  0  0  0
  4  6  1  0  0  0  0
  4 18  1  0  0  0  0
  5 17  1  0  0  0  0
  6  9  1  0  0  0  0
  7  5  1  0  0  0  0
  7  3  1  0  0  0  0
  8  4  1  0  0  0  0
  9 17  1  0  0  0  0
  9 13  1  0  0  0  0
 11 16  1  0  0  0  0
 11 23  1  0  0  0  0
 12  8  1  0  0  0  0
 12 16  1  0  0  0  0
 14 21  1  0  0  0  0
 15 14  1  0  0  0  0
 15 21  1  0  0  0  0
 16  2  1  0  0  0  0
 17 22  1  0  0  0  0
 18  1  1  0  0  0  0
 19 25  1  0  0  0  0
 19  7  1  0  0  0  0
 22 21  1  0  0  0  0
 22 31  1  0  0  0  0
 23 19  1  0  0  0  0
 24 30  1  0  0  0  0
 25 24  1  0  0  0  0
 26 29  1  0  0  0  0
 26 25  1  0  0  0  0
 27 29  2  0  0  0  0
 28 30  1  0  0  0  0
 29 28  1  0  0  0  0
 31 33  1  0  0  0  0
 31 32  1  0  0  0  0
 32 37  1  0  0  0  0
 33 34  1  0  0  0  0
 33 32  1  0  0  0  0
 34 35  1  0  0  0  0
 37 36  1  0  0  0  0
M  END
>  <MODEL>
5

>  <REMARK>
 VINA RESULT:      -7.0      4.274      7.567
  Name = 
  4 active torsions:
  status: ('A' for Active; 'I' for Inactive)
    1  A    between atoms: C_1  and  C_27
    2  A    between atoms: N_4  and  C_37
    3  A    between atoms: C_8  and  C_12
    4  A    between atoms: C_23  and  C_30
                            x       y       z     vdW  Elec       q    Type
                         _______ _______ _______ _____ _____    ______ ____

>  <TORSDO>
F 4

$$$$
=
 OpenBabel11122411473D

 37 44  0  0  1  0  0  0  0  0999 V2000
  188.6180  178.7680  137.3770 C   0  0  1  0  0  0  0  0  0  0  0  0
  188.9840  177.1250  140.7290 C   0  0  1  0  0  3  0  0  0  0  0  0
  186.5260  177.3980  142.9120 O   0  0  0  0  0  0  0  0  0  0  0  0
  189.5690  176.8370  138.2070 C   0  0  2  0  0  3  0  0  0  0  0  0
  187.9730  178.1780  141.1800 C   0  0  2  0  0  3  0  0  0  0  0  0
  188.5070  176.7880  139.3110 C   0  0  2  0  0  3  0  0  0  0  0  0
  187.6660  178.1810  142.6780 C   0  0  2  0  0  3  0  0  0  0  0  0
  190.8490  176.1950  138.7170 C   0  0  0  0  0  2  0  0  0  0  0  0
  187.3430  177.7360  139.0390 C   0  0  2  0  0  3  0  0  0  0  0  0
  187.9470  178.0310  136.3880 O   0  0  0  0  0  1  0  0  0  0  0  0
  190.9440  177.6760  142.2350 C   0  0  0  0  0  2  0  0  0  0  0  0
  191.4290  176.9200  139.9380 C   0  0  0  0  0  2  0  0  0  0  0  0
  187.8010  178.9720  138.5110 O   0  0  0  0  0  0  0  0  0  0  0  0
  185.4350  179.7080  142.8600 C   0  0  0  0  0  2  0  0  0  0  0  0
  185.3560  178.1960  143.0630 C   0  0  1  0  0  3  0  0  0  0  0  0
  190.4150  177.6900  140.8020 C   0  0  1  0  0  3  0  0  0  0  0  0
  186.7710  177.9440  140.3750 N   0  0  2  0  0  0  0  0  0  0  0  0
  189.8290  178.1480  137.7550 O   0  0  0  0  0  0  0  0  0  0  0  0
  188.8420  177.7830  143.5890 C   0  0  1  0  0  3  0  0  0  0  0  0
  188.9240  180.0070  136.8470 F   0  0  0  0  0  0  0  0  0  0  0  0
  184.8790  178.8420  141.7410 C   0  0  2  0  0  3  0  0  0  0  0  0
  185.8040  179.0550  140.5140 C   0  0  2  0  0  3  0  0  0  0  0  0
  190.1180  178.5220  143.1960 C   0  0  0  0  0  2  0  0  0  0  0  0
  189.4220  177.1230  145.9590 C   0  0  0  0  0  2  0  0  0  0  0  0
  188.5550  178.0170  145.0770 C   0  0  2  0  0  3  0  0  0  0  0  0
  187.0660  177.8770  145.4220 C   0  0  0  0  0  2  0  0  0  0  0  0
  185.6680  178.1040  147.3410 O   0  0  0  0  0  0  0  0  0  0  0  0
  187.8840  177.5770  147.8160 N   0  0  0  0  0  2  0  0  0  0  0  0
  186.8290  177.8940  146.9020 C   0  0  0  0  0  0  0  0  0  0  0  0
  189.2860  177.5760  147.4070 C   0  0  0  0  0  2  0  0  0  0  0  0
  184.8570  179.1580  139.2940 C   0  0  1  0  0  3  0  0  0  0  0  0
  183.8710  178.0450  139.1480 N   0  0  0  0  0  0  0  0  0  0  0  0
  183.4610  179.3510  139.6790 C   0  0  2  0  0  3  0  0  0  0  0  0
  182.7420  180.1280  138.5960 C   0  0  0  0  0  2  0  0  0  0  0  0
  183.0390  181.4720  138.7180 F   0  0  0  0  0  0  0  0  0  0  0  0
  182.6400  176.3960  140.2190 F   0  0  0  0  0  0  0  0  0  0  0  0
  183.8050  177.1360  140.2870 C   0  0  0  0  0  2  0  0  0  0  0  0
  1 10  1  6  0  0  0
  1 18  1  0  0  0  0
  1 13  1  0  0  0  0
  2 16  1  0  0  0  0
  2  5  1  0  0  0  0
  3 15  1  0  0  0  0
  4  8  1  0  0  0  0
  4  6  1  0  0  0  0
  5  7  1  0  0  0  0
  6  2  1  0  0  0  0
  7  3  1  0  0  0  0
  7 19  1  0  0  0  0
  8 12  1  0  0  0  0
  9  6  1  0  0  0  0
  9 17  1  0  0  0  0
 11 23  1  0  0  0  0
 12 16  1  0  0  0  0
 13  9  1  0  0  0  0
 14 15  1  0  0  0  0
 16 11  1  0  0  0  0
 17 22  1  0  0  0  0
 17  5  1  0  0  0  0
 18  4  1  0  0  0  0
 19 25  1  0  0  0  0
 20  1  1  0  0  0  0
 21 14  1  0  0  0  0
 21 15  1  0  0  0  0
 22 21  1  0  0  0  0
 23 19  1  0  0  0  0
 24 30  1  0  0  0  0
 25 26  1  0  0  0  0
 25 24  1  0  0  0  0
 26 29  1  0  0  0  0
 29 27  2  0  0  0  0
 29 28  1  0  0  0  0
 30 28  1  0  0  0  0
 31 33  1  0  0  0  0
 31 22  1  0  0  0  0
 32 31  1  0  0  0  0
 32 33  1  0  0  0  0
 32 37  1  0  0  0  0
 34 35  1  0  0  0  0
 34 33  1  0  0  0  0
 36 37  1  0  0  0  0
M  END
>  <MODEL>
6

>  <REMARK>
 VINA RESULT:      -6.8      3.498      7.834
  Name = 
  4 active torsions:
  status: ('A' for Active; 'I' for Inactive)
    1  A    between atoms: C_1  and  C_27
    2  A    between atoms: N_4  and  C_37
    3  A    between atoms: C_8  and  C_12
    4  A    between atoms: C_23  and  C_30
                            x       y       z     vdW  Elec       q    Type
                         _______ _______ _______ _____ _____    ______ ____

>  <TORSDO>
F 4

$$$$
=
 OpenBabel11122411473D

 37 44  0  0  1  0  0  0  0  0999 V2000
  190.2750  176.3940  142.0120 C   0  0  1  0  0  0  0  0  0  0  0  0
  187.9590  178.2740  139.7380 C   0  0  1  0  0  3  0  0  0  0  0  0
  185.3060  179.7480  141.0320 O   0  0  0  0  0  0  0  0  0  0  0  0
  190.4700  177.6960  140.1170 C   0  0  2  0  0  3  0  0  0  0  0  0
  186.9220  178.0020  140.8270 C   0  0  2  0  0  3  0  0  0  0  0  0
  189.2410  178.5050  140.5460 C   0  0  2  0  0  3  0  0  0  0  0  0
  185.5020  178.4650  140.5000 C   0  0  2  0  0  3  0  0  0  0  0  0
  190.5560  177.6870  138.6000 C   0  0  0  0  0  2  0  0  0  0  0  0
  188.8560  178.2490  142.0000 C   0  0  2  0  0  3  0  0  0  0  0  0
  191.2720  177.1470  142.6500 O   0  0  0  0  0  1  0  0  0  0  0  0
  186.8740  177.1290  137.7560 C   0  0  0  0  0  2  0  0  0  0  0  0
  189.3330  177.0390  137.9410 C   0  0  0  0  0  2  0  0  0  0  0  0
  188.9850  176.8740  142.3290 O   0  0  0  0  0  0  0  0  0  0  0  0
  184.2390  178.3600  142.8950 C   0  0  0  0  0  2  0  0  0  0  0  0
  184.5950  179.7060  142.2660 C   0  0  1  0  0  3  0  0  0  0  0  0
  188.0290  177.0900  138.7560 C   0  0  1  0  0  3  0  0  0  0  0  0
  187.4420  178.6420  142.0380 N   0  0  2  0  0  0  0  0  0  0  0  0
  190.4550  176.3750  140.6110 O   0  0  0  0  0  0  0  0  0  0  0  0
  185.1130  178.3880  139.0110 C   0  0  1  0  0  3  0  0  0  0  0  0
  190.3670  175.0930  142.4690 F   0  0  0  0  0  0  0  0  0  0  0  0
  185.4280  179.1360  143.4370 C   0  0  2  0  0  3  0  0  0  0  0  0
  186.6740  178.2340  143.2350 C   0  0  2  0  0  3  0  0  0  0  0  0
  185.5010  177.0400  138.4100 C   0  0  0  0  0  2  0  0  0  0  0  0
  183.2920  180.1330  138.8490 C   0  0  0  0  0  2  0  0  0  0  0  0
  183.6220  178.6450  138.7660 C   0  0  2  0  0  3  0  0  0  0  0  0
  182.7180  177.8150  139.6870 C   0  0  0  0  0  2  0  0  0  0  0  0
  180.3830  177.4660  140.0250 O   0  0  0  0  0  0  0  0  0  0  0  0
  180.9280  179.5280  139.0940 N   0  0  0  0  0  2  0  0  0  0  0  0
  181.2810  178.2310  139.5880 C   0  0  0  0  0  0  0  0  0  0  0  0
  181.8720  180.3530  138.3460 C   0  0  0  0  0  2  0  0  0  0  0  0
  187.5040  178.3770  144.5350 C   0  0  1  0  0  3  0  0  0  0  0  0
  186.7700  178.0820  145.8020 N   0  0  0  0  0  0  0  0  0  0  0  0
  187.6970  177.1020  145.2230 C   0  0  2  0  0  3  0  0  0  0  0  0
  189.0030  177.1370  145.9890 C   0  0  0  0  0  2  0  0  0  0  0  0
  188.7430  177.0880  147.3450 F   0  0  0  0  0  0  0  0  0  0  0  0
  184.5490  178.1190  146.4730 F   0  0  0  0  0  0  0  0  0  0  0  0
  185.4440  177.5030  145.6180 C   0  0  0  0  0  2  0  0  0  0  0  0
  1 13  1  0  0  0  0
  1 20  1  1  0  0  0
  1 10  1  0  0  0  0
  2  6  1  0  0  0  0
  2  5  1  0  0  0  0
  3 15  1  0  0  0  0
  4  6  1  0  0  0  0
  4 18  1  0  0  0  0
  5 17  1  0  0  0  0
  6  9  1  0  0  0  0
  7  5  1  0  0  0  0
  7  3  1  0  0  0  0
  8  4  1  0  0  0  0
  9 17  1  0  0  0  0
  9 13  1  0  0  0  0
 11 23  1  0  0  0  0
 11 16  1  0  0  0  0
 12  8  1  0  0  0  0
 12 16  1  0  0  0  0
 14 21  1  0  0  0  0
 15 14  1  0  0  0  0
 15 21  1  0  0  0  0
 16  2  1  0  0  0  0
 17 22  1  0  0  0  0
 18  1  1  0  0  0  0
 19  7  1  0  0  0  0
 22 21  1  0  0  0  0
 22 31  1  0  0  0  0
 23 19  1  0  0  0  0
 25 24  1  0  0  0  0
 25 19  1  0  0  0  0
 25 26  1  0  0  0  0
 28 29  1  0  0  0  0
 29 26  1  0  0  0  0
 29 27  2  0  0  0  0
 30 24  1  0  0  0  0
 30 28  1  0  0  0  0
 31 33  1  0  0  0  0
 31 32  1  0  0  0  0
 33 32  1  0  0  0  0
 33 34  1  0  0  0  0
 34 35  1  0  0  0  0
 37 32  1  0  0  0  0
 37 36  1  0  0  0  0
M  END
>  <MODEL>
7

>  <REMARK>
 VINA RESULT:      -6.8      3.031      6.651
  Name = 
  4 active torsions:
  status: ('A' for Active; 'I' for Inactive)
    1  A    between atoms: C_1  and  C_27
    2  A    between atoms: N_4  and  C_37
    3  A    between atoms: C_8  and  C_12
    4  A    between atoms: C_23  and  C_30
                            x       y       z     vdW  Elec       q    Type
                         _______ _______ _______ _____ _____    ______ ____

>  <TORSDO>
F 4

$$$$
=
 OpenBabel11122411473D

 37 44  0  0  1  0  0  0  0  0999 V2000
  188.5610  178.6720  137.9560 C   0  0  1  0  0  0  0  0  0  0  0  0
  190.3360  176.7350  140.6330 C   0  0  1  0  0  3  0  0  0  0  0  0
  188.8010  176.2200  143.5080 O   0  0  0  0  0  0  0  0  0  0  0  0
  190.0240  176.8910  138.0520 C   0  0  2  0  0  3  0  0  0  0  0  0
  189.4040  177.4920  141.5780 C   0  0  2  0  0  3  0  0  0  0  0  0
  189.4430  176.4860  139.4110 C   0  0  2  0  0  3  0  0  0  0  0  0
  189.6510  177.2450  143.0670 C   0  0  2  0  0  3  0  0  0  0  0  0
  191.4830  176.4690  137.9870 C   0  0  0  0  0  2  0  0  0  0  0  0
  188.1290  177.2000  139.7160 C   0  0  2  0  0  3  0  0  0  0  0  0
  187.7030  177.9420  137.1190 O   0  0  0  0  0  1  0  0  0  0  0  0
  192.5950  177.4870  141.4950 C   0  0  0  0  0  2  0  0  0  0  0  0
  192.3420  177.1400  139.0660 C   0  0  0  0  0  2  0  0  0  0  0  0
  188.1780  178.5600  139.3110 O   0  0  0  0  0  0  0  0  0  0  0  0
  187.4270  178.2430  144.2490 C   0  0  0  0  0  2  0  0  0  0  0  0
  187.6540  176.7340  144.1780 C   0  0  1  0  0  3  0  0  0  0  0  0
  191.5970  177.5700  140.3420 C   0  0  1  0  0  3  0  0  0  0  0  0
  188.0440  177.1170  141.1790 N   0  0  2  0  0  0  0  0  0  0  0  0
  189.9060  178.2730  137.7950 O   0  0  0  0  0  0  0  0  0  0  0  0
  191.1200  176.9880  143.4540 C   0  0  1  0  0  3  0  0  0  0  0  0
  188.4680  180.0040  137.5990 F   0  0  0  0  0  0  0  0  0  0  0  0
  186.6470  177.4280  143.2310 C   0  0  2  0  0  3  0  0  0  0  0  0
  187.0340  177.9780  141.8330 C   0  0  2  0  0  3  0  0  0  0  0  0
  192.0460  178.0170  142.8130 C   0  0  0  0  0  2  0  0  0  0  0  0
  191.7970  175.5930  145.4500 C   0  0  0  0  0  2  0  0  0  0  0  0
  191.3480  176.9700  144.9700 C   0  0  2  0  0  3  0  0  0  0  0  0
  190.1300  177.4730  145.7570 C   0  0  0  0  0  2  0  0  0  0  0  0
  189.5400  177.8720  148.0330 O   0  0  0  0  0  0  0  0  0  0  0  0
  191.1950  176.2660  147.7310 N   0  0  0  0  0  2  0  0  0  0  0  0
  190.2840  177.2500  147.2320 C   0  0  0  0  0  0  0  0  0  0  0  0
  192.2530  175.7000  146.8990 C   0  0  0  0  0  2  0  0  0  0  0  0
  185.7120  178.0350  141.0300 C   0  0  1  0  0  3  0  0  0  0  0  0
  184.6150  178.8360  141.6530 N   0  0  0  0  0  0  0  0  0  0  0  0
  185.4060  179.3770  140.5410 C   0  0  2  0  0  3  0  0  0  0  0  0
  184.6040  179.2770  139.2610 C   0  0  0  0  0  2  0  0  0  0  0  0
  184.9930  178.1520  138.5600 F   0  0  0  0  0  0  0  0  0  0  0  0
  184.0360  179.5300  143.7890 F   0  0  0  0  0  0  0  0  0  0  0  0
  185.0160  179.6160  142.8190 C   0  0  0  0  0  2  0  0  0  0  0  0
  1 10  1  6  0  0  0
  1 13  1  0  0  0  0
  2  5  1  0  0  0  0
  3 15  1  0  0  0  0
  4  6  1  0  0  0  0
  5  7  1  0  0  0  0
  6  9  1  0  0  0  0
  6  2  1  0  0  0  0
  7 19  1  0  0  0  0
  7  3  1  0  0  0  0
  8  4  1  0  0  0  0
  8 12  1  0  0  0  0
  9 17  1  0  0  0  0
 11 23  1  0  0  0  0
 12 16  1  0  0  0  0
 13  9  1  0  0  0  0
 15 14  1  0  0  0  0
 16  2  1  0  0  0  0
 16 11  1  0  0  0  0
 17  5  1  0  0  0  0
 17 22  1  0  0  0  0
 18  1  1  0  0  0  0
 18  4  1  0  0  0  0
 19 25  1  0  0  0  0
 20  1  1  0  0  0  0
 21 15  1  0  0  0  0
 21 14  1  0  0  0  0
 22 21  1  0  0  0  0
 23 19  1  0  0  0  0
 24 30  1  0  0  0  0
 25 24  1  0  0  0  0
 25 26  1  0  0  0  0
 26 29  1  0  0  0  0
 29 28  1  0  0  0  0
 29 27  2  0  0  0  0
 30 28  1  0  0  0  0
 31 32  1  0  0  0  0
 31 22  1  0  0  0  0
 32 37  1  0  0  0  0
 33 31  1  0  0  0  0
 33 32  1  0  0  0  0
 34 33  1  0  0  0  0
 35 34  1  0  0  0  0
 37 36  1  0  0  0  0
M  END
>  <MODEL>
8

>  <REMARK>
 VINA RESULT:      -6.7      2.845      6.970
  Name = 
  4 active torsions:
  status: ('A' for Active; 'I' for Inactive)
    1  A    between atoms: C_1  and  C_27
    2  A    between atoms: N_4  and  C_37
    3  A    between atoms: C_8  and  C_12
    4  A    between atoms: C_23  and  C_30
                            x       y       z     vdW  Elec       q    Type
                         _______ _______ _______ _____ _____    ______ ____

>  <TORSDO>
F 4

$$$$
=
 OpenBabel11122411473D

 37 44  0  0  1  0  0  0  0  0999 V2000
  189.8300  178.5060  143.1930 C   0  0  1  0  0  0  0  0  0  0  0  0
  186.2430  177.5510  143.7320 C   0  0  1  0  0  3  0  0  0  0  0  0
  184.1810  177.5900  141.1570 O   0  0  0  0  0  0  0  0  0  0  0  0
  188.6690  177.0080  144.5080 C   0  0  2  0  0  3  0  0  0  0  0  0
  185.9940  178.3980  142.4850 C   0  0  2  0  0  3  0  0  0  0  0  0
  187.5910  176.8900  143.4250 C   0  0  2  0  0  3  0  0  0  0  0  0
  184.5240  178.5690  142.1010 C   0  0  2  0  0  3  0  0  0  0  0  0
  188.0350  176.7710  145.8690 C   0  0  0  0  0  2  0  0  0  0  0  0
  188.0400  177.4850  142.0930 C   0  0  2  0  0  3  0  0  0  0  0  0
  190.6910  177.4850  142.7630 O   0  0  0  0  0  1  0  0  0  0  0  0
  184.8160  178.7770  145.4280 C   0  0  0  0  0  2  0  0  0  0  0  0
  186.9440  177.7970  146.2000 C   0  0  0  0  0  2  0  0  0  0  0  0
  188.7610  178.6920  142.2880 O   0  0  0  0  0  0  0  0  0  0  0  0
  184.6420  179.5440  139.5760 C   0  0  0  0  0  2  0  0  0  0  0  0
  184.1880  178.1080  139.8300 C   0  0  1  0  0  3  0  0  0  0  0  0
  186.2400  178.4380  144.9910 C   0  0  1  0  0  3  0  0  0  0  0  0
  186.7690  177.7650  141.4140 N   0  0  2  0  0  0  0  0  0  0  0  0
  189.3310  178.2530  144.4890 O   0  0  0  0  0  0  0  0  0  0  0  0
  183.5370  178.6070  143.2840 C   0  0  1  0  0  3  0  0  0  0  0  0
  190.5550  179.6810  143.2390 F   0  0  0  0  0  0  0  0  0  0  0  0
  185.6080  178.4050  139.2940 C   0  0  2  0  0  3  0  0  0  0  0  0
  186.8360  178.6280  140.2150 C   0  0  2  0  0  3  0  0  0  0  0  0
  184.0260  179.5500  144.3790 C   0  0  0  0  0  2  0  0  0  0  0  0
  181.1060  178.6920  143.9690 C   0  0  0  0  0  2  0  0  0  0  0  0
  182.1160  179.0030  142.8680 C   0  0  2  0  0  3  0  0  0  0  0  0
  181.6970  178.3830  141.5270 C   0  0  0  0  0  2  0  0  0  0  0  0
  179.8110  178.4390  140.0680 O   0  0  0  0  0  0  0  0  0  0  0  0
  179.3220  178.8890  142.2970 N   0  0  0  0  0  2  0  0  0  0  0  0
  180.2410  178.6000  141.2390 C   0  0  0  0  0  0  0  0  0  0  0  0
  179.7720  179.3360  143.6120 C   0  0  0  0  0  2  0  0  0  0  0  0
  188.0730  178.3120  139.3390 C   0  0  1  0  0  3  0  0  0  0  0  0
  187.9320  177.1390  138.4240 N   0  0  0  0  0  0  0  0  0  0  0  0
  187.8210  178.5120  137.9140 C   0  0  2  0  0  3  0  0  0  0  0  0
  189.1130  178.8930  137.2220 C   0  0  0  0  0  2  0  0  0  0  0  0
  190.0360  177.8780  137.3790 F   0  0  0  0  0  0  0  0  0  0  0  0
  186.4500  175.8730  137.1650 F   0  0  0  0  0  0  0  0  0  0  0  0
  186.5810  176.5930  138.3370 C   0  0  0  0  0  2  0  0  0  0  0  0
  1 10  1  6  0  0  0
  1 20  1  0  0  0  0
  1 18  1  0  0  0  0
  2 16  1  0  0  0  0
  3  7  1  0  0  0  0
  4  8  1  0  0  0  0
  5  2  1  0  0  0  0
  6  2  1  0  0  0  0
  6  4  1  0  0  0  0
  7  5  1  0  0  0  0
  7 19  1  0  0  0  0
  8 12  1  0  0  0  0
  9 13  1  0  0  0  0
  9  6  1  0  0  0  0
 13  1  1  0  0  0  0
 14 15  1  0  0  0  0
 15  3  1  0  0  0  0
 16 11  1  0  0  0  0
 16 12  1  0  0  0  0
 17  9  1  0  0  0  0
 17  5  1  0  0  0  0
 18  4  1  0  0  0  0
 19 23  1  0  0  0  0
 21 14  1  0  0  0  0
 21 15  1  0  0  0  0
 21 22  1  0  0  0  0
 22 17  1  0  0  0  0
 23 11  1  0  0  0  0
 25 19  1  0  0  0  0
 25 24  1  0  0  0  0
 26 25  1  0  0  0  0
 27 29  2  0  0  0  0
 28 30  1  0  0  0  0
 29 26  1  0  0  0  0
 29 28  1  0  0  0  0
 30 24  1  0  0  0  0
 31 22  1  0  0  0  0
 32 31  1  0  0  0  0
 33 32  1  0  0  0  0
 33 31  1  0  0  0  0
 34 35  1  0  0  0  0
 34 33  1  0  0  0  0
 36 37  1  0  0  0  0
 37 32  1  0  0  0  0
M  END
>  <MODEL>
9

>  <REMARK>
 VINA RESULT:      -6.6      3.894      8.182
  Name = 
  4 active torsions:
  status: ('A' for Active; 'I' for Inactive)
    1  A    between atoms: C_1  and  C_27
    2  A    between atoms: N_4  and  C_37
    3  A    between atoms: C_8  and  C_12
    4  A    between atoms: C_23  and  C_30
                            x       y       z     vdW  Elec       q    Type
                         _______ _______ _______ _____ _____    ______ ____

>  <TORSDO>
F 4

$$$$
