=
 OpenBabel11122412183D

 34 40  0  0  1  0  0  0  0  0999 V2000
  184.0750  178.6260  144.2380 C   0  0  0  0  0  0  0  0  0  0  0  0
  181.5460  179.0090  143.6000 C   0  0  0  0  0  2  0  0  0  0  0  0
  190.5250  177.7370  142.8610 C   0  0  2  0  0  3  0  0  0  0  0  0
  186.4480  178.1910  144.6550 C   0  0  0  0  0  0  0  0  0  0  0  0
  187.9230  177.8040  142.7520 C   0  0  0  0  0  0  0  0  0  0  0  0
  189.2560  177.0350  140.9510 O   0  0  0  0  0  0  0  0  0  0  0  0
  191.7150  177.8790  141.9260 C   0  0  0  0  0  1  0  0  0  0  0  0
  189.6300  176.4220  144.8600 C   0  0  0  0  0  2  0  0  0  0  0  0
  183.1780  178.6290  141.9740 C   0  0  0  0  0  0  0  0  0  0  0  0
  182.6500  178.8340  138.7760 C   0  0  0  0  0  2  0  0  0  0  0  0
  186.8500  177.9520  141.9240 N   0  0  0  0  0  0  0  0  0  0  0  0
  188.8720  177.7140  145.1410 C   0  0  0  0  0  2  0  0  0  0  0  0
  184.5020  178.3760  141.4440 N   0  0  0  0  0  0  0  0  0  0  0  0
  180.8890  179.1830  142.2310 C   0  0  0  0  0  2  0  0  0  0  0  0
  187.7380  177.9050  144.1610 C   0  0  0  0  0  0  0  0  0  0  0  0
  190.7990  176.6470  143.8960 C   0  0  0  0  0  2  0  0  0  0  0  0
  182.0430  179.5940  139.9660 C   0  0  2  0  0  3  0  0  0  0  0  0
  185.3700  178.3440  143.7560 C   0  0  0  0  0  0  0  0  0  0  0  0
  189.2340  177.5050  142.1230 C   0  0  0  0  0  0  0  0  0  0  0  0
  185.5960  178.2150  142.3750 C   0  0  0  0  0  0  0  0  0  0  0  0
  184.9200  178.6060  146.5090 C   0  0  0  0  0  3  0  0  0  0  0  0
  183.7760  177.8680  139.1410 C   0  0  0  0  0  2  0  0  0  0  0  0
  186.2050  178.3250  146.0340 C   0  0  0  0  0  3  0  0  0  0  0  0
  184.8130  178.5410  140.0220 C   0  0  0  0  0  2  0  0  0  0  0  0
  181.9050  178.6820  141.1950 C   0  0  1  0  0  3  0  0  0  0  0  0
  183.8580  178.7550  145.6140 C   0  0  0  0  0  3  0  0  0  0  0  0
  182.9700  178.7610  143.2710 C   0  0  0  0  0  0  0  0  0  0  0  0
  180.7070  180.1810  139.5240 C   0  0  0  0  0  2  0  0  0  0  0  0
  180.8530  181.5420  139.2410 O   0  0  0  0  0  0  0  0  0  0  0  0
  180.1490  184.0660  137.6000 O   0  0  0  0  0  0  0  0  0  0  0  0
  180.8040  181.9000  136.9040 C   0  0  0  0  0  2  0  0  0  0  0  0
  179.9970  181.7780  138.1640 C   0  0  2  0  0  3  0  0  0  0  0  0
  180.6440  183.3490  136.5010 C   0  0  0  0  0  2  0  0  0  0  0  0
  179.3710  183.1450  138.3140 C   0  0  0  0  0  2  0  0  0  0  0  0
  1 26  1  0  0  0  0
  3  7  1  6  0  0  0
  3 16  1  0  0  0  0
  4 23  2  0  0  0  0
  5 15  2  0  0  0  0
  6 19  2  0  0  0  0
  8 12  1  0  0  0  0
  9 27  2  0  0  0  0
 10 22  1  0  0  0  0
 10 17  1  0  0  0  0
 11 20  2  0  0  0  0
 11  5  1  0  0  0  0
 13  9  1  0  0  0  0
 13 20  1  0  0  0  0
 14  2  1  0  0  0  0
 15  4  1  0  0  0  0
 15 12  1  0  0  0  0
 16  8  1  0  0  0  0
 17 28  1  6  0  0  0
 17 25  1  0  0  0  0
 18  1  2  0  0  0  0
 18  4  1  0  0  0  0
 19  5  1  0  0  0  0
 19  3  1  0  0  0  0
 20 18  1  0  0  0  0
 22 24  1  0  0  0  0
 23 21  1  0  0  0  0
 24 13  1  0  0  0  0
 25  9  1  0  0  0  0
 25 14  1  1  0  0  0
 26 21  2  0  0  0  0
 27  2  1  0  0  0  0
 27  1  1  0  0  0  0
 29 28  1  0  0  0  0
 30 34  1  0  0  0  0
 31 32  1  0  0  0  0
 32 34  1  0  0  0  0
 32 29  1  1  0  0  0
 33 31  1  0  0  0  0
 33 30  1  0  0  0  0
M  END
>  <MODEL>
1

>  <REMARK>
 VINA RESULT:     -10.3      0.000      0.000
  Name = 
  3 active torsions:
  status: ('A' for Active; 'I' for Inactive)
    1  A    between atoms: C_17  and  C_28
    2  A    between atoms: C_28  and  O_29
    3  A    between atoms: O_29  and  C_32
                            x       y       z     vdW  Elec       q    Type
                         _______ _______ _______ _____ _____    ______ ____

>  <TORSDO>
F 3

$$$$
=
 OpenBabel11122412183D

 34 40  0  0  1  0  0  0  0  0999 V2000
  188.8960  177.5190  143.5000 C   0  0  0  0  0  0  0  0  0  0  0  0
  191.4170  177.1810  142.8080 C   0  0  0  0  0  2  0  0  0  0  0  0
  182.4230  178.4380  142.2590 C   0  0  2  0  0  3  0  0  0  0  0  0
  186.5270  177.9200  143.9710 C   0  0  0  0  0  0  0  0  0  0  0  0
  185.0240  178.3920  142.1100 C   0  0  0  0  0  0  0  0  0  0  0  0
  183.6610  179.2390  140.3680 O   0  0  0  0  0  0  0  0  0  0  0  0
  181.2200  178.3360  141.3350 C   0  0  0  0  0  1  0  0  0  0  0  0
  183.3410  179.6610  144.3070 C   0  0  0  0  0  2  0  0  0  0  0  0
  189.7600  177.6310  141.2260 C   0  0  0  0  0  0  0  0  0  0  0  0
  190.2430  177.5830  138.0150 C   0  0  0  0  0  2  0  0  0  0  0  0
  186.0850  178.2900  141.2610 N   0  0  0  0  0  0  0  0  0  0  0  0
  184.1090  178.3600  144.5140 C   0  0  0  0  0  2  0  0  0  0  0  0
  188.4280  177.9010  140.7280 N   0  0  0  0  0  0  0  0  0  0  0  0
  192.0560  177.0770  141.4230 C   0  0  0  0  0  2  0  0  0  0  0  0
  185.2290  178.2230  143.5100 C   0  0  0  0  0  0  0  0  0  0  0  0
  182.1590  179.4760  143.3490 C   0  0  0  0  0  2  0  0  0  0  0  0
  190.8710  176.7700  139.1580 C   0  0  2  0  0  3  0  0  0  0  0  0
  187.5930  177.8170  143.0510 C   0  0  0  0  0  0  0  0  0  0  0  0
  183.7020  178.7130  141.5150 C   0  0  0  0  0  0  0  0  0  0  0  0
  187.3470  178.0110  141.6810 C   0  0  0  0  0  0  0  0  0  0  0  0
  188.0840  177.4240  145.7810 C   0  0  0  0  0  3  0  0  0  0  0  0
  189.1180  178.5250  138.4420 C   0  0  0  0  0  2  0  0  0  0  0  0
  186.7910  177.7210  145.3380 C   0  0  0  0  0  3  0  0  0  0  0  0
  188.0970  177.8050  139.3040 C   0  0  0  0  0  2  0  0  0  0  0  0
  191.0230  177.6230  140.4270 C   0  0  1  0  0  3  0  0  0  0  0  0
  189.1340  177.3240  144.8650 C   0  0  0  0  0  3  0  0  0  0  0  0
  189.9880  177.4370  142.5120 C   0  0  0  0  0  0  0  0  0  0  0  0
  192.2030  176.2120  138.6680 C   0  0  0  0  0  2  0  0  0  0  0  0
  192.5080  176.7360  137.4090 O   0  0  0  0  0  0  0  0  0  0  0  0
  195.3160  175.8940  136.4270 O   0  0  0  0  0  0  0  0  0  0  0  0
  193.6570  174.6770  137.5980 C   0  0  0  0  0  2  0  0  0  0  0  0
  192.9800  175.6470  136.6730 C   0  0  2  0  0  3  0  0  0  0  0  0
  195.1140  174.7410  137.1990 C   0  0  0  0  0  2  0  0  0  0  0  0
  194.0980  176.1060  135.7670 C   0  0  0  0  0  2  0  0  0  0  0  0
  1 26  1  0  0  0  0
  3  7  1  6  0  0  0
  3 16  1  0  0  0  0
  4 23  2  0  0  0  0
  5 15  2  0  0  0  0
  6 19  2  0  0  0  0
  8 12  1  0  0  0  0
  9 27  2  0  0  0  0
 10 22  1  0  0  0  0
 10 17  1  0  0  0  0
 11 20  2  0  0  0  0
 11  5  1  0  0  0  0
 13  9  1  0  0  0  0
 13 20  1  0  0  0  0
 14  2  1  0  0  0  0
 15  4  1  0  0  0  0
 15 12  1  0  0  0  0
 16  8  1  0  0  0  0
 17 28  1  6  0  0  0
 17 25  1  0  0  0  0
 18  1  2  0  0  0  0
 18  4  1  0  0  0  0
 19  5  1  0  0  0  0
 19  3  1  0  0  0  0
 20 18  1  0  0  0  0
 22 24  1  0  0  0  0
 23 21  1  0  0  0  0
 24 13  1  0  0  0  0
 25  9  1  0  0  0  0
 25 14  1  1  0  0  0
 26 21  2  0  0  0  0
 27  2  1  0  0  0  0
 27  1  1  0  0  0  0
 29 28  1  0  0  0  0
 30 33  1  0  0  0  0
 32 29  1  1  0  0  0
 32 31  1  0  0  0  0
 33 31  1  0  0  0  0
 34 30  1  0  0  0  0
 34 32  1  0  0  0  0
M  END
>  <MODEL>
2

>  <REMARK>
 VINA RESULT:     -10.2      3.165      8.923
  Name = 
  3 active torsions:
  status: ('A' for Active; 'I' for Inactive)
    1  A    between atoms: C_17  and  C_28
    2  A    between atoms: C_28  and  O_29
    3  A    between atoms: O_29  and  C_32
                            x       y       z     vdW  Elec       q    Type
                         _______ _______ _______ _____ _____    ______ ____

>  <TORSDO>
F 3

$$$$
=
 OpenBabel11122412183D

 34 40  0  0  1  0  0  0  0  0999 V2000
  188.9400  177.5310  143.4880 C   0  0  0  0  0  0  0  0  0  0  0  0
  191.4580  177.2210  142.7720 C   0  0  0  0  0  2  0  0  0  0  0  0
  182.4510  178.4200  142.3090 C   0  0  2  0  0  3  0  0  0  0  0  0
  186.5720  177.9080  143.9830 C   0  0  0  0  0  0  0  0  0  0  0  0
  185.0510  178.3940  142.1400 C   0  0  0  0  0  0  0  0  0  0  0  0
  183.6680  179.2560  140.4200 O   0  0  0  0  0  0  0  0  0  0  0  0
  181.2420  178.3220  141.3930 C   0  0  0  0  0  1  0  0  0  0  0  0
  183.3760  179.6210  144.3670 C   0  0  0  0  0  2  0  0  0  0  0  0
  189.7860  177.6800  141.2090 C   0  0  0  0  0  0  0  0  0  0  0  0
  190.2450  177.6810  137.9940 C   0  0  0  0  0  2  0  0  0  0  0  0
  186.1060  178.3120  141.2810 N   0  0  0  0  0  0  0  0  0  0  0  0
  184.1550  178.3230  144.5500 C   0  0  0  0  0  2  0  0  0  0  0  0
  188.4480  177.9480  140.7250 N   0  0  0  0  0  0  0  0  0  0  0  0
  192.0870  177.1400  141.3810 C   0  0  0  0  0  2  0  0  0  0  0  0
  185.2680  178.2080  143.5360 C   0  0  0  0  0  0  0  0  0  0  0  0
  182.1880  179.4410  143.4160 C   0  0  0  0  0  2  0  0  0  0  0  0
  190.8870  176.8570  139.1210 C   0  0  2  0  0  3  0  0  0  0  0  0
  187.6310  177.8250  143.0530 C   0  0  0  0  0  0  0  0  0  0  0  0
  183.7230  178.7150  141.5600 C   0  0  0  0  0  0  0  0  0  0  0  0
  187.3740  178.0370  141.6880 C   0  0  0  0  0  0  0  0  0  0  0  0
  188.1460  177.3980  145.7730 C   0  0  0  0  0  3  0  0  0  0  0  0
  189.1160  178.6080  138.4430 C   0  0  0  0  0  2  0  0  0  0  0  0
  186.8470  177.6920  145.3450 C   0  0  0  0  0  3  0  0  0  0  0  0
  188.1060  177.8690  139.3020 C   0  0  0  0  0  2  0  0  0  0  0  0
  191.0420  177.6920  140.4010 C   0  0  1  0  0  3  0  0  0  0  0  0
  189.1900  177.3190  144.8480 C   0  0  0  0  0  3  0  0  0  0  0  0
  190.0240  177.4700  142.4910 C   0  0  0  0  0  0  0  0  0  0  0  0
  192.2190  176.3150  138.6140 C   0  0  0  0  0  2  0  0  0  0  0  0
  192.0570  175.7630  137.3400 O   0  0  0  0  0  0  0  0  0  0  0  0
  191.1750  173.3750  135.5860 O   0  0  0  0  0  0  0  0  0  0  0  0
  193.1550  173.7300  136.8350 C   0  0  0  0  0  2  0  0  0  0  0  0
  192.0090  174.3830  137.5520 C   0  0  2  0  0  3  0  0  0  0  0  0
  192.4940  172.9230  135.7400 C   0  0  0  0  0  2  0  0  0  0  0  0
  190.7920  173.8160  136.8600 C   0  0  0  0  0  2  0  0  0  0  0  0
  1 26  1  0  0  0  0
  3  7  1  6  0  0  0
  3 16  1  0  0  0  0
  4 23  2  0  0  0  0
  5 15  2  0  0  0  0
  6 19  2  0  0  0  0
  8 12  1  0  0  0  0
  9 27  2  0  0  0  0
 10 22  1  0  0  0  0
 10 17  1  0  0  0  0
 11 20  2  0  0  0  0
 11  5  1  0  0  0  0
 13  9  1  0  0  0  0
 13 20  1  0  0  0  0
 14  2  1  0  0  0  0
 15  4  1  0  0  0  0
 15 12  1  0  0  0  0
 16  8  1  0  0  0  0
 17 28  1  6  0  0  0
 17 25  1  0  0  0  0
 18  1  2  0  0  0  0
 18  4  1  0  0  0  0
 19  5  1  0  0  0  0
 19  3  1  0  0  0  0
 20 18  1  0  0  0  0
 22 24  1  0  0  0  0
 23 21  1  0  0  0  0
 24 13  1  0  0  0  0
 25  9  1  0  0  0  0
 25 14  1  1  0  0  0
 26 21  2  0  0  0  0
 27  2  1  0  0  0  0
 27  1  1  0  0  0  0
 29 28  1  0  0  0  0
 30 33  1  0  0  0  0
 30 34  1  0  0  0  0
 31 32  1  0  0  0  0
 32 29  1  6  0  0  0
 33 31  1  0  0  0  0
 34 32  1  0  0  0  0
M  END
>  <MODEL>
3

>  <REMARK>
 VINA RESULT:      -9.9      3.224      8.666
  Name = 
  3 active torsions:
  status: ('A' for Active; 'I' for Inactive)
    1  A    between atoms: C_17  and  C_28
    2  A    between atoms: C_28  and  O_29
    3  A    between atoms: O_29  and  C_32
                            x       y       z     vdW  Elec       q    Type
                         _______ _______ _______ _____ _____    ______ ____

>  <TORSDO>
F 3

$$$$
=
 OpenBabel11122412183D

 34 40  0  0  1  0  0  0  0  0999 V2000
  190.2560  177.2580  143.0980 C   0  0  0  0  0  0  0  0  0  0  0  0
  192.4190  176.9530  141.6220 C   0  0  0  0  0  2  0  0  0  0  0  0
  183.7530  178.3110  144.0370 C   0  0  2  0  0  3  0  0  0  0  0  0
  188.1700  177.6410  144.3220 C   0  0  0  0  0  0  0  0  0  0  0  0
  186.1710  178.2560  143.0690 C   0  0  0  0  0  0  0  0  0  0  0  0
  184.3530  179.2370  141.9080 O   0  0  0  0  0  0  0  0  0  0  0  0
  182.3170  178.2840  143.5370 C   0  0  0  0  0  1  0  0  0  0  0  0
  185.3050  179.3750  145.7640 C   0  0  0  0  0  2  0  0  0  0  0  0
  190.3620  177.5280  140.6800 C   0  0  0  0  0  0  0  0  0  0  0  0
  189.8050  177.7080  137.4860 C   0  0  0  0  0  2  0  0  0  0  0  0
  186.9060  178.2080  141.9220 N   0  0  0  0  0  0  0  0  0  0  0  0
  186.0610  178.0580  145.6310 C   0  0  0  0  0  2  0  0  0  0  0  0
  188.9490  177.8430  140.6490 N   0  0  0  0  0  0  0  0  0  0  0  0
  192.5850  176.9440  140.1030 C   0  0  0  0  0  2  0  0  0  0  0  0
  186.8030  177.9860  144.3170 C   0  0  0  0  0  0  0  0  0  0  0  0
  183.8770  179.2690  145.2210 C   0  0  0  0  0  2  0  0  0  0  0  0
  190.7370  176.8110  138.3150 C   0  0  2  0  0  3  0  0  0  0  0  0
  188.8880  177.5970  143.1060 C   0  0  0  0  0  0  0  0  0  0  0  0
  184.7400  178.6290  142.9460 C   0  0  0  0  0  0  0  0  0  0  0  0
  188.2280  177.8910  141.9010 C   0  0  0  0  0  0  0  0  0  0  0  0
  190.2030  177.0050  145.5070 C   0  0  0  0  0  3  0  0  0  0  0  0
  188.9010  178.6250  138.3090 C   0  0  0  0  0  2  0  0  0  0  0  0
  188.8460  177.3420  145.5180 C   0  0  0  0  0  3  0  0  0  0  0  0
  188.1820  177.8510  139.4000 C   0  0  0  0  0  2  0  0  0  0  0  0
  191.3070  177.5680  139.5240 C   0  0  1  0  0  3  0  0  0  0  0  0
  190.9070  176.9640  144.3010 C   0  0  0  0  0  3  0  0  0  0  0  0
  190.9770  177.2400  141.8120 C   0  0  0  0  0  0  0  0  0  0  0  0
  191.8300  176.2800  137.3920 C   0  0  0  0  0  2  0  0  0  0  0  0
  191.8740  174.8850  137.4580 O   0  0  0  0  0  0  0  0  0  0  0  0
  194.8920  175.2610  138.0150 O   0  0  0  0  0  0  0  0  0  0  0  0
  193.6580  173.3320  137.4120 C   0  0  0  0  0  2  0  0  0  0  0  0
  193.0310  174.5300  136.7600 C   0  0  2  0  0  3  0  0  0  0  0  0
  194.9560  173.8600  137.9830 C   0  0  0  0  0  2  0  0  0  0  0  0
  194.0710  175.6110  136.9360 C   0  0  0  0  0  2  0  0  0  0  0  0
  1 18  2  0  0  0  0
  1 26  1  0  0  0  0
  2 27  1  0  0  0  0
  3  7  1  6  0  0  0
  3 16  1  0  0  0  0
  4 23  2  0  0  0  0
  5 15  2  0  0  0  0
  6 19  2  0  0  0  0
  9 27  2  0  0  0  0
 10 22  1  0  0  0  0
 10 17  1  0  0  0  0
 11  5  1  0  0  0  0
 12  8  1  0  0  0  0
 13  9  1  0  0  0  0
 13 20  1  0  0  0  0
 14  2  1  0  0  0  0
 15  4  1  0  0  0  0
 15 12  1  0  0  0  0
 16  8  1  0  0  0  0
 17 28  1  6  0  0  0
 17 25  1  0  0  0  0
 18  4  1  0  0  0  0
 19  5  1  0  0  0  0
 19  3  1  0  0  0  0
 20 11  2  0  0  0  0
 20 18  1  0  0  0  0
 21 23  1  0  0  0  0
 22 24  1  0  0  0  0
 24 13  1  0  0  0  0
 25 14  1  1  0  0  0
 25  9  1  0  0  0  0
 26 21  2  0  0  0  0
 27  1  1  0  0  0  0
 28 29  1  0  0  0  0
 31 33  1  0  0  0  0
 32 34  1  0  0  0  0
 32 31  1  0  0  0  0
 32 29  1  1  0  0  0
 33 30  1  0  0  0  0
 34 30  1  0  0  0  0
M  END
>  <MODEL>
4

>  <REMARK>
 VINA RESULT:      -9.7      3.701      9.041
  Name = 
  3 active torsions:
  status: ('A' for Active; 'I' for Inactive)
    1  A    between atoms: C_17  and  C_28
    2  A    between atoms: C_28  and  O_29
    3  A    between atoms: O_29  and  C_32
                            x       y       z     vdW  Elec       q    Type
                         _______ _______ _______ _____ _____    ______ ____

>  <TORSDO>
F 3

$$$$
=
 OpenBabel11122412183D

 34 40  0  0  1  0  0  0  0  0999 V2000
  187.0170  178.2550  140.4290 C   0  0  0  0  0  0  0  0  0  0  0  0
  184.8410  178.9300  139.1030 C   0  0  0  0  0  2  0  0  0  0  0  0
  190.4290  176.6650  145.9180 C   0  0  2  0  0  3  0  0  0  0  0  0
  188.9570  177.7040  141.8190 C   0  0  0  0  0  0  0  0  0  0  0  0
  188.6800  177.6220  144.2400 C   0  0  0  0  0  0  0  0  0  0  0  0
  188.5080  177.9380  146.5820 O   0  0  0  0  0  0  0  0  0  0  0  0
  190.4810  176.1390  147.3430 C   0  0  0  0  0  1  0  0  0  0  0  0
  191.6890  178.0800  144.2040 C   0  0  0  0  0  2  0  0  0  0  0  0
  184.8570  178.7600  141.4320 C   0  0  0  0  0  0  0  0  0  0  0  0
  182.2090  179.0030  143.2960 C   0  0  0  0  0  2  0  0  0  0  0  0
  187.3700  177.9610  144.0760 N   0  0  0  0  0  0  0  0  0  0  0  0
  190.9890  177.1670  143.2030 C   0  0  0  0  0  2  0  0  0  0  0  0
  185.4060  178.5160  142.7490 N   0  0  0  0  0  0  0  0  0  0  0  0
  183.4060  179.1210  139.5930 C   0  0  0  0  0  2  0  0  0  0  0  0
  189.5200  177.5010  143.0960 C   0  0  0  0  0  0  0  0  0  0  0  0
  191.6800  177.4880  145.6160 C   0  0  0  0  0  2  0  0  0  0  0  0
  182.4150  178.4560  141.8750 C   0  0  2  0  0  3  0  0  0  0  0  0
  187.5920  178.0450  141.7000 C   0  0  0  0  0  0  0  0  0  0  0  0
  189.1660  177.4320  145.6300 C   0  0  0  0  0  0  0  0  0  0  0  0
  186.8060  178.1730  142.8580 C   0  0  0  0  0  0  0  0  0  0  0  0
  189.1550  177.7840  139.3900 C   0  0  0  0  0  3  0  0  0  0  0  0
  183.4910  179.4280  144.0100 C   0  0  0  0  0  2  0  0  0  0  0  0
  189.7280  177.5770  140.6500 C   0  0  0  0  0  3  0  0  0  0  0  0
  184.5510  178.3450  143.9270 C   0  0  0  0  0  2  0  0  0  0  0  0
  183.4840  179.2610  141.1200 C   0  0  1  0  0  3  0  0  0  0  0  0
  187.8050  178.1230  139.2800 C   0  0  0  0  0  3  0  0  0  0  0  0
  185.5940  178.6280  140.3440 C   0  0  0  0  0  0  0  0  0  0  0  0
  181.0670  178.4660  141.1610 C   0  0  0  0  0  2  0  0  0  0  0  0
  180.2500  179.4650  141.6960 O   0  0  0  0  0  0  0  0  0  0  0  0
  180.0550  181.6280  139.4960 O   0  0  0  0  0  0  0  0  0  0  0  0
  179.8510  179.2730  139.3730 C   0  0  0  0  0  2  0  0  0  0  0  0
  179.3130  179.7360  140.6960 C   0  0  2  0  0  3  0  0  0  0  0  0
  180.0730  180.5520  138.5970 C   0  0  0  0  0  2  0  0  0  0  0  0
  179.1880  181.2310  140.5220 C   0  0  0  0  0  2  0  0  0  0  0  0
  1 18  1  0  0  0  0
  2 14  1  0  0  0  0
  2 27  1  0  0  0  0
  3  7  1  1  0  0  0
  4 15  1  0  0  0  0
  5 19  1  0  0  0  0
  8 16  1  0  0  0  0
  9 13  1  0  0  0  0
 10 22  1  0  0  0  0
 11  5  1  0  0  0  0
 12  8  1  0  0  0  0
 13 20  1  0  0  0  0
 13 24  1  0  0  0  0
 15 12  1  0  0  0  0
 15  5  2  0  0  0  0
 16  3  1  0  0  0  0
 17 28  1  6  0  0  0
 17 10  1  0  0  0  0
 18  4  2  0  0  0  0
 18 20  1  0  0  0  0
 19  3  1  0  0  0  0
 19  6  2  0  0  0  0
 20 11  2  0  0  0  0
 21 23  2  0  0  0  0
 23  4  1  0  0  0  0
 24 22  1  0  0  0  0
 25 14  1  6  0  0  0
 25  9  1  0  0  0  0
 25 17  1  0  0  0  0
 26 21  1  0  0  0  0
 26  1  2  0  0  0  0
 27  1  1  0  0  0  0
 27  9  2  0  0  0  0
 28 29  1  0  0  0  0
 30 34  1  0  0  0  0
 31 32  1  0  0  0  0
 32 29  1  1  0  0  0
 33 31  1  0  0  0  0
 33 30  1  0  0  0  0
 34 32  1  0  0  0  0
M  END
>  <MODEL>
5

>  <REMARK>
 VINA RESULT:      -9.2      1.876      4.008
  Name = 
  3 active torsions:
  status: ('A' for Active; 'I' for Inactive)
    1  A    between atoms: C_17  and  C_28
    2  A    between atoms: C_28  and  O_29
    3  A    between atoms: O_29  and  C_32
                            x       y       z     vdW  Elec       q    Type
                         _______ _______ _______ _____ _____    ______ ____

>  <TORSDO>
F 3

$$$$
=
 OpenBabel11122412183D

 34 40  0  0  1  0  0  0  0  0999 V2000
  187.0280  178.2570  140.4060 C   0  0  0  0  0  0  0  0  0  0  0  0
  184.8580  178.9270  139.0690 C   0  0  0  0  0  2  0  0  0  0  0  0
  190.4160  176.6800  145.9130 C   0  0  2  0  0  3  0  0  0  0  0  0
  188.9620  177.7100  141.8060 C   0  0  0  0  0  0  0  0  0  0  0  0
  188.6740  177.6320  144.2260 C   0  0  0  0  0  0  0  0  0  0  0  0
  188.4910  177.9510  146.5660 O   0  0  0  0  0  0  0  0  0  0  0  0
  190.4630  176.1570  147.3400 C   0  0  0  0  0  1  0  0  0  0  0  0
  191.6820  178.0940  144.2030 C   0  0  0  0  0  2  0  0  0  0  0  0
  184.8630  178.7610  141.3980 C   0  0  0  0  0  0  0  0  0  0  0  0
  182.2050  179.0030  143.2500 C   0  0  0  0  0  2  0  0  0  0  0  0
  187.3640  177.9690  144.0550 N   0  0  0  0  0  0  0  0  0  0  0  0
  190.9890  177.1780  143.2000 C   0  0  0  0  0  2  0  0  0  0  0  0
  185.4060  178.5200  142.7180 N   0  0  0  0  0  0  0  0  0  0  0  0
  183.4200  179.1170  139.5520 C   0  0  0  0  0  2  0  0  0  0  0  0
  189.5190  177.5100  143.0860 C   0  0  0  0  0  0  0  0  0  0  0  0
  191.6680  177.5040  145.6160 C   0  0  0  0  0  2  0  0  0  0  0  0
  182.4190  178.4550  141.8300 C   0  0  2  0  0  3  0  0  0  0  0  0
  187.5970  178.0500  141.6800 C   0  0  0  0  0  0  0  0  0  0  0  0
  189.1540  177.4450  145.6180 C   0  0  0  0  0  0  0  0  0  0  0  0
  186.8050  178.1790  142.8340 C   0  0  0  0  0  0  0  0  0  0  0  0
  189.1720  177.7870  139.3780 C   0  0  0  0  0  3  0  0  0  0  0  0
  183.4830  179.4310  143.9690 C   0  0  0  0  0  2  0  0  0  0  0  0
  189.7390  177.5830  140.6410 C   0  0  0  0  0  3  0  0  0  0  0  0
  184.5460  178.3490  143.8930 C   0  0  0  0  0  2  0  0  0  0  0  0
  183.4910  179.2600  141.0790 C   0  0  1  0  0  3  0  0  0  0  0  0
  187.8210  178.1240  139.2610 C   0  0  0  0  0  3  0  0  0  0  0  0
  185.6050  178.6280  140.3140 C   0  0  0  0  0  0  0  0  0  0  0  0
  181.0740  178.4610  141.1100 C   0  0  0  0  0  2  0  0  0  0  0  0
  180.2210  177.5150  141.6830 O   0  0  0  0  0  0  0  0  0  0  0  0
  181.0150  175.6590  139.3410 O   0  0  0  0  0  0  0  0  0  0  0  0
  179.2240  175.5250  140.8820 C   0  0  0  0  0  2  0  0  0  0  0  0
  179.5150  176.9720  140.6070 C   0  0  2  0  0  3  0  0  0  0  0  0
  180.0560  174.7790  139.8640 C   0  0  0  0  0  2  0  0  0  0  0  0
  180.4150  176.9240  139.3940 C   0  0  0  0  0  2  0  0  0  0  0  0
  1 18  1  0  0  0  0
  2 14  1  0  0  0  0
  2 27  1  0  0  0  0
  3  7  1  1  0  0  0
  4 15  1  0  0  0  0
  5 19  1  0  0  0  0
  8 16  1  0  0  0  0
  9 13  1  0  0  0  0
 10 22  1  0  0  0  0
 11  5  1  0  0  0  0
 12  8  1  0  0  0  0
 13 20  1  0  0  0  0
 13 24  1  0  0  0  0
 15 12  1  0  0  0  0
 15  5  2  0  0  0  0
 16  3  1  0  0  0  0
 17 28  1  6  0  0  0
 17 10  1  0  0  0  0
 18  4  2  0  0  0  0
 18 20  1  0  0  0  0
 19  3  1  0  0  0  0
 19  6  2  0  0  0  0
 20 11  2  0  0  0  0
 21 23  2  0  0  0  0
 23  4  1  0  0  0  0
 24 22  1  0  0  0  0
 25 14  1  6  0  0  0
 25  9  1  0  0  0  0
 25 17  1  0  0  0  0
 26 21  1  0  0  0  0
 26  1  2  0  0  0  0
 27  1  1  0  0  0  0
 27  9  2  0  0  0  0
 28 29  1  0  0  0  0
 30 34  1  0  0  0  0
 30 33  1  0  0  0  0
 32 31  1  0  0  0  0
 32 29  1  1  0  0  0
 33 31  1  0  0  0  0
 34 32  1  0  0  0  0
M  END
>  <MODEL>
6

>  <REMARK>
 VINA RESULT:      -9.1      2.866      4.825
  Name = 
  3 active torsions:
  status: ('A' for Active; 'I' for Inactive)
    1  A    between atoms: C_17  and  C_28
    2  A    between atoms: C_28  and  O_29
    3  A    between atoms: O_29  and  C_32
                            x       y       z     vdW  Elec       q    Type
                         _______ _______ _______ _____ _____    ______ ____

>  <TORSDO>
F 3

$$$$
=
 OpenBabel11122412183D

 34 40  0  0  1  0  0  0  0  0999 V2000
  188.6180  177.4960  138.4280 C   0  0  0  0  0  0  0  0  0  0  0  0
  186.9580  178.5000  140.2130 C   0  0  0  0  0  2  0  0  0  0  0  0
  194.2610  174.5410  136.5010 C   0  0  2  0  0  3  0  0  0  0  0  0
  190.3040  176.5980  136.8960 C   0  0  0  0  0  0  0  0  0  0  0  0
  192.4600  175.9040  137.8000 C   0  0  0  0  0  0  0  0  0  0  0  0
  194.6680  175.6140  138.6060 O   0  0  0  0  0  0  0  0  0  0  0  0
  195.4710  173.6700  136.7950 C   0  0  0  0  0  1  0  0  0  0  0  0
  193.3600  176.3390  134.9250 C   0  0  0  0  0  2  0  0  0  0  0  0
  189.0860  177.7430  140.8050 C   0  0  0  0  0  0  0  0  0  0  0  0
  190.1560  177.5180  143.8630 C   0  0  0  0  0  2  0  0  0  0  0  0
  192.0330  176.2810  139.0380 N   0  0  0  0  0  0  0  0  0  0  0  0
  192.0130  175.7150  135.2740 C   0  0  0  0  0  2  0  0  0  0  0  0
  190.4000  177.1680  140.6110 N   0  0  0  0  0  0  0  0  0  0  0  0
  187.0690  178.5680  141.7360 C   0  0  0  0  0  2  0  0  0  0  0  0
  191.5950  176.0740  136.6800 C   0  0  0  0  0  0  0  0  0  0  0  0
  194.5250  175.4060  135.2690 C   0  0  0  0  0  2  0  0  0  0  0  0
  188.7570  177.3500  143.2520 C   0  0  2  0  0  3  0  0  0  0  0  0
  189.9050  176.9670  138.2000 C   0  0  0  0  0  0  0  0  0  0  0  0
  193.8380  175.3640  137.6890 C   0  0  0  0  0  0  0  0  0  0  0  0
  190.7990  176.8000  139.2710 C   0  0  0  0  0  0  0  0  0  0  0  0
  188.1200  177.2930  136.0660 C   0  0  0  0  0  3  0  0  0  0  0  0
  191.2750  177.7400  142.8470 C   0  0  0  0  0  2  0  0  0  0  0  0
  189.3960  176.7690  135.8360 C   0  0  0  0  0  3  0  0  0  0  0  0
  191.2200  176.7070  141.7350 C   0  0  0  0  0  2  0  0  0  0  0  0
  188.5450  178.3140  142.0750 C   0  0  1  0  0  3  0  0  0  0  0  0
  187.7320  177.6570  137.3580 C   0  0  0  0  0  3  0  0  0  0  0  0
  188.2430  177.8870  139.8000 C   0  0  0  0  0  0  0  0  0  0  0  0
  187.7270  177.5490  144.3610 C   0  0  0  0  0  2  0  0  0  0  0  0
  188.3310  178.1420  145.4730 O   0  0  0  0  0  0  0  0  0  0  0  0
  189.4360  177.7850  148.3380 O   0  0  0  0  0  0  0  0  0  0  0  0
  187.2330  178.1770  147.5670 C   0  0  0  0  0  2  0  0  0  0  0  0
  187.9560  177.3390  146.5530 C   0  0  2  0  0  3  0  0  0  0  0  0
  188.1660  178.2050  148.7580 C   0  0  0  0  0  2  0  0  0  0  0  0
  189.1940  176.8870  147.2910 C   0  0  0  0  0  2  0  0  0  0  0  0
  1 27  1  0  0  0  0
  2 14  1  0  0  0  0
  3  7  1  1  0  0  0
  3 19  1  0  0  0  0
  4 18  1  0  0  0  0
  5 11  2  0  0  0  0
  8 16  1  0  0  0  0
  8 12  1  0  0  0  0
  9 25  1  0  0  0  0
 11 20  1  0  0  0  0
 12 15  1  0  0  0  0
 13  9  1  0  0  0  0
 13 24  1  0  0  0  0
 15  4  2  0  0  0  0
 15  5  1  0  0  0  0
 16  3  1  0  0  0  0
 17 10  1  0  0  0  0
 17 28  1  1  0  0  0
 18  1  1  0  0  0  0
 18 20  2  0  0  0  0
 19  5  1  0  0  0  0
 19  6  2  0  0  0  0
 20 13  1  0  0  0  0
 21 26  1  0  0  0  0
 22 10  1  0  0  0  0
 23 21  2  0  0  0  0
 23  4  1  0  0  0  0
 24 22  1  0  0  0  0
 25 14  1  6  0  0  0
 25 17  1  0  0  0  0
 26  1  2  0  0  0  0
 27  2  1  0  0  0  0
 27  9  2  0  0  0  0
 28 29  1  0  0  0  0
 30 33  1  0  0  0  0
 31 33  1  0  0  0  0
 32 29  1  6  0  0  0
 32 34  1  0  0  0  0
 32 31  1  0  0  0  0
 34 30  1  0  0  0  0
M  END
>  <MODEL>
7

>  <REMARK>
 VINA RESULT:      -9.1      5.225      9.279
  Name = 
  3 active torsions:
  status: ('A' for Active; 'I' for Inactive)
    1  A    between atoms: C_17  and  C_28
    2  A    between atoms: C_28  and  O_29
    3  A    between atoms: O_29  and  C_32
                            x       y       z     vdW  Elec       q    Type
                         _______ _______ _______ _____ _____    ______ ____

>  <TORSDO>
F 3

$$$$
=
 OpenBabel11122412183D

 34 40  0  0  1  0  0  0  0  0999 V2000
  185.5920  178.4920  141.9610 C   0  0  0  0  0  0  0  0  0  0  0  0
  185.3750  178.4370  139.3350 C   0  0  0  0  0  2  0  0  0  0  0  0
  188.9500  178.1480  147.6970 C   0  0  2  0  0  3  0  0  0  0  0  0
  185.9530  178.4350  144.3820 C   0  0  0  0  0  0  0  0  0  0  0  0
  188.1730  177.8760  145.2250 C   0  0  0  0  0  0  0  0  0  0  0  0
  190.1960  176.9490  146.0360 O   0  0  0  0  0  0  0  0  0  0  0  0
  190.2450  178.2530  148.4860 C   0  0  0  0  0  1  0  0  0  0  0  0
  186.6040  177.1350  147.7260 C   0  0  0  0  0  2  0  0  0  0  0  0
  187.3910  177.9570  140.4100 C   0  0  0  0  0  0  0  0  0  0  0  0
  190.2130  177.4890  138.8720 C   0  0  0  0  0  2  0  0  0  0  0  0
  188.5970  177.7340  143.9370 N   0  0  0  0  0  0  0  0  0  0  0  0
  186.2620  178.3560  146.8790 C   0  0  0  0  0  2  0  0  0  0  0  0
  188.3010  177.7720  141.5210 N   0  0  0  0  0  0  0  0  0  0  0  0
  186.4480  178.2690  138.2590 C   0  0  0  0  0  2  0  0  0  0  0  0
  186.8130  178.2190  145.4790 C   0  0  0  0  0  0  0  0  0  0  0  0
  187.9310  177.3140  148.4710 C   0  0  0  0  0  2  0  0  0  0  0  0
  189.0040  178.3800  138.5470 C   0  0  2  0  0  3  0  0  0  0  0  0
  186.4430  178.2830  143.0660 C   0  0  0  0  0  0  0  0  0  0  0  0
  189.1630  177.6250  146.3010 C   0  0  0  0  0  0  0  0  0  0  0  0
  187.7860  177.9240  142.8630 C   0  0  0  0  0  0  0  0  0  0  0  0
  183.7660  179.0040  143.4690 C   0  0  0  0  0  3  0  0  0  0  0  0
  190.1240  176.7530  140.2080 C   0  0  0  0  0  2  0  0  0  0  0  0
  184.6070  178.7970  144.5670 C   0  0  0  0  0  3  0  0  0  0  0  0
  189.7520  177.7010  141.3340 C   0  0  0  0  0  2  0  0  0  0  0  0
  187.6890  177.7070  138.9680 C   0  0  1  0  0  3  0  0  0  0  0  0
  184.2560  178.8520  142.1700 C   0  0  0  0  0  3  0  0  0  0  0  0
  186.1330  178.3060  140.6020 C   0  0  0  0  0  0  0  0  0  0  0  0
  189.0410  178.7080  137.0580 C   0  0  0  0  0  2  0  0  0  0  0  0
  189.8060  177.7560  136.3780 O   0  0  0  0  0  0  0  0  0  0  0  0
  188.1890  175.5620  134.9190 O   0  0  0  0  0  0  0  0  0  0  0  0
  187.7440  177.8670  135.2240 C   0  0  0  0  0  2  0  0  0  0  0  0
  189.2290  177.6730  135.1090 C   0  0  2  0  0  3  0  0  0  0  0  0
  187.1660  176.5190  134.8550 C   0  0  0  0  0  2  0  0  0  0  0  0
  189.3590  176.2590  134.5940 C   0  0  0  0  0  2  0  0  0  0  0  0
  1 26  2  0  0  0  0
  1 18  1  0  0  0  0
  2 27  1  0  0  0  0
  3 16  1  0  0  0  0
  3  7  1  1  0  0  0
  4 23  1  0  0  0  0
  4 15  1  0  0  0  0
  5 15  2  0  0  0  0
  5 19  1  0  0  0  0
  6 19  2  0  0  0  0
  8 16  1  0  0  0  0
  9 27  2  0  0  0  0
  9 13  1  0  0  0  0
 10 22  1  0  0  0  0
 11  5  1  0  0  0  0
 12  8  1  0  0  0  0
 13 20  1  0  0  0  0
 14  2  1  0  0  0  0
 15 12  1  0  0  0  0
 17 28  1  6  0  0  0
 17 10  1  0  0  0  0
 17 25  1  0  0  0  0
 18  4  2  0  0  0  0
 19  3  1  0  0  0  0
 20 18  1  0  0  0  0
 20 11  2  0  0  0  0
 21 23  2  0  0  0  0
 22 24  1  0  0  0  0
 24 13  1  0  0  0  0
 25 14  1  6  0  0  0
 25  9  1  0  0  0  0
 26 21  1  0  0  0  0
 27  1  1  0  0  0  0
 29 28  1  0  0  0  0
 32 31  1  0  0  0  0
 32 29  1  1  0  0  0
 33 30  1  0  0  0  0
 33 31  1  0  0  0  0
 34 30  1  0  0  0  0
 34 32  1  0  0  0  0
M  END
>  <MODEL>
8

>  <REMARK>
 VINA RESULT:      -9.1      4.070      6.280
  Name = 
  3 active torsions:
  status: ('A' for Active; 'I' for Inactive)
    1  A    between atoms: C_17  and  C_28
    2  A    between atoms: C_28  and  O_29
    3  A    between atoms: O_29  and  C_32
                            x       y       z     vdW  Elec       q    Type
                         _______ _______ _______ _____ _____    ______ ____

>  <TORSDO>
F 3

$$$$
=
 OpenBabel11122412183D

 34 40  0  0  1  0  0  0  0  0999 V2000
  183.9760  178.6370  143.9410 C   0  0  0  0  0  0  0  0  0  0  0  0
  181.6760  178.9080  142.6810 C   0  0  0  0  0  2  0  0  0  0  0  0
  190.6000  178.0840  144.2500 C   0  0  2  0  0  3  0  0  0  0  0  0
  186.1840  178.3100  144.9480 C   0  0  0  0  0  0  0  0  0  0  0  0
  188.1120  178.0270  143.4820 C   0  0  0  0  0  0  0  0  0  0  0  0
  189.8970  177.3540  142.0770 O   0  0  0  0  0  0  0  0  0  0  0  0
  191.9800  178.2990  143.6500 C   0  0  0  0  0  1  0  0  0  0  0  0
  189.2940  176.6930  145.9490 C   0  0  0  0  0  2  0  0  0  0  0  0
  183.6850  178.6350  141.5230 C   0  0  0  0  0  0  0  0  0  0  0  0
  183.9780  178.8680  138.2970 C   0  0  0  0  0  2  0  0  0  0  0  0
  187.2790  178.1370  142.4080 N   0  0  0  0  0  0  0  0  0  0  0  0
  188.4240  177.9430  146.0330 C   0  0  0  0  0  2  0  0  0  0  0  0
  185.1110  178.4550  141.3470 N   0  0  0  0  0  0  0  0  0  0  0  0
  181.3810  179.0740  141.1900 C   0  0  0  0  0  2  0  0  0  0  0  0
  187.5700  178.0950  144.7970 C   0  0  0  0  0  0  0  0  0  0  0  0
  190.6570  176.9910  145.3160 C   0  0  0  0  0  2  0  0  0  0  0  0
  183.0510  179.5770  139.2960 C   0  0  2  0  0  3  0  0  0  0  0  0
  185.3630  178.4260  143.8040 C   0  0  0  0  0  0  0  0  0  0  0  0
  189.5530  177.8020  143.2070 C   0  0  0  0  0  0  0  0  0  0  0  0
  185.9390  178.3320  142.5250 C   0  0  0  0  0  0  0  0  0  0  0  0
  184.2150  178.6200  146.3520 C   0  0  0  0  0  3  0  0  0  0  0  0
  185.0220  177.9510  138.9330 C   0  0  0  0  0  2  0  0  0  0  0  0
  185.5910  178.4090  146.2190 C   0  0  0  0  0  3  0  0  0  0  0  0
  185.7660  178.6580  140.0520 C   0  0  0  0  0  2  0  0  0  0  0  0
  182.6510  178.6390  140.4450 C   0  0  1  0  0  3  0  0  0  0  0  0
  183.4090  178.7330  145.2160 C   0  0  0  0  0  3  0  0  0  0  0  0
  183.1480  178.7350  142.7250 C   0  0  0  0  0  0  0  0  0  0  0  0
  181.8430  180.1070  138.5300 C   0  0  0  0  0  2  0  0  0  0  0  0
  181.8960  179.6820  137.2000 O   0  0  0  0  0  0  0  0  0  0  0  0
  179.2440  179.0000  135.7640 O   0  0  0  0  0  0  0  0  0  0  0  0
  181.3030  177.8350  135.8480 C   0  0  0  0  0  2  0  0  0  0  0  0
  181.0940  178.5390  137.1570 C   0  0  2  0  0  3  0  0  0  0  0  0
  179.9800  177.9900  135.1300 C   0  0  0  0  0  2  0  0  0  0  0  0
  179.6420  178.9510  137.1070 C   0  0  0  0  0  2  0  0  0  0  0  0
  1 26  1  0  0  0  0
  2 27  1  0  0  0  0
  3  7  1  6  0  0  0
  3 16  1  0  0  0  0
  4 23  2  0  0  0  0
  5 15  2  0  0  0  0
  6 19  2  0  0  0  0
  8 12  1  0  0  0  0
  9 27  2  0  0  0  0
 10 22  1  0  0  0  0
 10 17  1  0  0  0  0
 11 20  2  0  0  0  0
 11  5  1  0  0  0  0
 13  9  1  0  0  0  0
 13 20  1  0  0  0  0
 14  2  1  0  0  0  0
 15  4  1  0  0  0  0
 15 12  1  0  0  0  0
 16  8  1  0  0  0  0
 17 28  1  6  0  0  0
 17 25  1  0  0  0  0
 18  1  2  0  0  0  0
 18  4  1  0  0  0  0
 19  5  1  0  0  0  0
 19  3  1  0  0  0  0
 20 18  1  0  0  0  0
 22 24  1  0  0  0  0
 23 21  1  0  0  0  0
 24 13  1  0  0  0  0
 25 14  1  1  0  0  0
 25  9  1  0  0  0  0
 26 21  2  0  0  0  0
 27  1  1  0  0  0  0
 29 28  1  0  0  0  0
 30 34  1  0  0  0  0
 31 32  1  0  0  0  0
 32 29  1  6  0  0  0
 33 30  1  0  0  0  0
 33 31  1  0  0  0  0
 34 32  1  0  0  0  0
M  END
>  <MODEL>
9

>  <REMARK>
 VINA RESULT:      -9.0      1.730      2.089
  Name = 
  3 active torsions:
  status: ('A' for Active; 'I' for Inactive)
    1  A    between atoms: C_17  and  C_28
    2  A    between atoms: C_28  and  O_29
    3  A    between atoms: O_29  and  C_32
                            x       y       z     vdW  Elec       q    Type
                         _______ _______ _______ _____ _____    ______ ____

>  <TORSDO>
F 3

$$$$
