=
 OpenBabel11122410473D

 32 38  0  0  1  0  0  0  0  0999 V2000
  190.1790  177.4630  137.2930 C   0  0  1  0  0  3  0  0  0  0  0  0
  188.6730  177.6530  142.1590 C   0  0  0  0  0  0  0  0  0  0  0  0
  183.9720  178.9030  142.2570 C   0  0  0  0  0  3  0  0  0  0  0  0
  183.9950  178.8610  143.6500 C   0  0  0  0  0  3  0  0  0  0  0  0
  189.9000  177.2970  144.2200 C   0  0  0  0  0  0  0  0  0  0  0  0
  189.8860  177.2750  145.6060 C   0  0  0  0  0  0  0  0  0  0  0  0
  189.6980  177.0960  140.0240 N   0  0  1  0  0  0  0  0  0  0  0  0
  187.4750  178.0490  139.9630 C   0  0  0  0  0  2  0  0  0  0  0  0
  189.0820  177.4500  147.6400 C   0  0  0  0  0  0  0  0  0  0  0  0
  188.9400  178.1730  137.8880 C   0  0  2  0  0  3  0  0  0  0  0  0
  185.1310  178.6180  141.5340 C   0  0  0  0  0  3  0  0  0  0  0  0
  187.4870  178.0040  141.4750 C   0  0  0  0  0  0  0  0  0  0  0  0
  186.3260  178.2860  142.1960 C   0  0  0  0  0  0  0  0  0  0  0  0
  187.5560  177.9140  144.2660 C   0  0  0  0  0  0  0  0  0  0  0  0
  190.3910  177.1040  147.7000 N   0  0  0  0  0  0  0  0  0  0  0  0
  190.9670  176.6510  138.1490 O   0  0  0  0  0  0  0  0  0  0  0  0
  188.8940  178.1510  139.4250 C   0  0  2  0  0  3  0  0  0  0  0  0
  190.8830  176.9980  146.4660 N   0  0  0  0  0  0  0  0  0  0  0  0
  191.0180  177.2050  139.4360 C   0  0  0  0  0  2  0  0  0  0  0  0
  188.7950  176.8230  137.2170 C   0  0  1  0  0  3  0  0  0  0  0  0
  185.1760  178.5340  144.3170 C   0  0  0  0  0  3  0  0  0  0  0  0
  186.3550  178.2430  143.6020 C   0  0  0  0  0  0  0  0  0  0  0  0
  187.5430  177.8910  145.6820 C   0  0  0  0  0  3  0  0  0  0  0  0
  189.8030  177.3680  141.3750 O   0  0  0  0  0  0  0  0  0  0  0  0
  191.4480  176.9040  143.4560 Cl  0  0  0  0  0  0  0  0  0  0  0  0
  188.2140  177.6560  148.8310 C   0  0  0  0  0  1  0  0  0  0  0  0
  188.7230  177.6200  143.5410 N   0  0  0  0  0  0  0  0  0  0  0  0
  188.7130  177.5710  146.3250 C   0  0  0  0  0  0  0  0  0  0  0  0
  188.2280  177.0180  135.8240 C   0  0  0  0  0  2  0  0  0  0  0  0
  186.9620  177.8530  135.8820 C   0  0  2  0  0  3  0  0  0  0  0  0
  185.8470  177.0310  136.4920 C   0  0  0  0  0  1  0  0  0  0  0  0
  186.5930  178.2470  134.5950 O   0  0  0  0  0  1  0  0  0  0  0  0
  1 10  1  0  0  0  0
  1 16  1  1  0  0  0
  2 27  1  0  0  0  0
  3  4  1  0  0  0  0
  4 21  2  0  0  0  0
  5  6  2  0  0  0  0
  6 28  1  0  0  0  0
  6 18  1  0  0  0  0
  7 19  1  6  0  0  0
  7 24  1  0  0  0  0
  8 12  1  0  0  0  0
  9 15  1  0  0  0  0
  9 26  1  0  0  0  0
 10 17  1  0  0  0  0
 11 13  1  0  0  0  0
 11  3  2  0  0  0  0
 12  2  2  0  0  0  0
 12 13  1  0  0  0  0
 13 22  2  0  0  0  0
 14 23  2  0  0  0  0
 16 19  1  0  0  0  0
 17  8  1  0  0  0  0
 17  7  1  0  0  0  0
 18 15  2  0  0  0  0
 20  1  1  0  0  0  0
 20 10  1  0  0  0  0
 22 14  1  0  0  0  0
 22 21  1  0  0  0  0
 23 28  1  0  0  0  0
 24  2  1  0  0  0  0
 25  5  1  0  0  0  0
 27  5  1  0  0  0  0
 27 14  1  0  0  0  0
 28  9  2  0  0  0  0
 29 30  1  0  0  0  0
 29 20  1  0  0  0  0
 30 31  1  0  0  0  0
 32 30  1  0  0  0  0
M  END
>  <MODEL>
1

>  <REMARK>
 VINA RESULT:     -11.0      0.000      0.000
  Name = 
  2 active torsions:
  status: ('A' for Active; 'I' for Inactive)
    1  A    between atoms: C_20  and  C_29
    2  A    between atoms: C_29  and  C_30
                            x       y       z     vdW  Elec       q    Type
                         _______ _______ _______ _____ _____    ______ ____

>  <TORSDO>
F 2

$$$$
=
 OpenBabel11122410473D

 32 38  0  0  1  0  0  0  0  0999 V2000
  185.0260  178.7890  137.8130 C   0  0  1  0  0  3  0  0  0  0  0  0
  187.1540  177.9390  142.3660 C   0  0  0  0  0  0  0  0  0  0  0  0
  183.8100  178.7810  145.7980 C   0  0  0  0  0  3  0  0  0  0  0  0
  184.7500  178.4780  146.7810 C   0  0  0  0  0  3  0  0  0  0  0  0
  189.4120  177.2970  142.9720 C   0  0  0  0  0  0  0  0  0  0  0  0
  190.3220  177.0120  143.9790 C   0  0  0  0  0  0  0  0  0  0  0  0
  186.4590  177.8770  140.0350 N   0  0  1  0  0  0  0  0  0  0  0  0
  184.8300  178.6490  141.6500 C   0  0  0  0  0  2  0  0  0  0  0  0
  191.0880  176.7360  146.0160 C   0  0  0  0  0  0  0  0  0  0  0  0
  184.5490  179.2760  139.2010 C   0  0  2  0  0  3  0  0  0  0  0  0
  184.1720  178.7280  144.4510 C   0  0  0  0  0  3  0  0  0  0  0  0
  185.8410  178.3200  142.7270 C   0  0  0  0  0  0  0  0  0  0  0  0
  185.4770  178.3700  144.0720 C   0  0  0  0  0  0  0  0  0  0  0  0
  187.7430  177.7100  144.6800 C   0  0  0  0  0  0  0  0  0  0  0  0
  192.0780  176.4880  145.1240 N   0  0  0  0  0  0  0  0  0  0  0  0
  186.1250  177.8930  137.7520 O   0  0  0  0  0  0  0  0  0  0  0  0
  185.5360  178.9610  140.3380 C   0  0  2  0  0  3  0  0  0  0  0  0
  191.6160  176.6550  143.8860 N   0  0  0  0  0  0  0  0  0  0  0  0
  187.0570  178.1960  138.7550 C   0  0  0  0  0  2  0  0  0  0  0  0
  183.9020  178.0700  138.5540 C   0  0  1  0  0  3  0  0  0  0  0  0
  186.0490  178.1230  146.4170 C   0  0  0  0  0  3  0  0  0  0  0  0
  186.4300  178.0650  145.0610 C   0  0  0  0  0  0  0  0  0  0  0  0
  188.6730  177.4190  145.7080 C   0  0  0  0  0  3  0  0  0  0  0  0
  187.4540  177.8960  140.9940 O   0  0  0  0  0  0  0  0  0  0  0  0
  190.0280  177.1760  141.3170 Cl  0  0  0  0  0  0  0  0  0  0  0  0
  191.2490  176.6460  147.4930 C   0  0  0  0  0  1  0  0  0  0  0  0
  188.1080  177.6500  143.3260 N   0  0  0  0  0  0  0  0  0  0  0  0
  189.9480  177.0750  145.3350 C   0  0  0  0  0  0  0  0  0  0  0  0
  182.5680  178.4790  137.9610 C   0  0  0  0  0  2  0  0  0  0  0  0
  182.0450  179.7270  138.6500 C   0  0  2  0  0  3  0  0  0  0  0  0
  180.9470  179.3410  139.6180 C   0  0  0  0  0  1  0  0  0  0  0  0
  181.5340  180.6150  137.7030 O   0  0  0  0  0  1  0  0  0  0  0  0
  1 16  1  1  0  0  0
  1 20  1  0  0  0  0
  1 10  1  0  0  0  0
  2 12  2  0  0  0  0
  2 27  1  0  0  0  0
  3  4  1  0  0  0  0
  5 27  1  0  0  0  0
  5  6  2  0  0  0  0
  6 28  1  0  0  0  0
  7 19  1  6  0  0  0
  7 17  1  0  0  0  0
  7 24  1  0  0  0  0
  8 12  1  0  0  0  0
  9 26  1  0  0  0  0
 10 17  1  0  0  0  0
 11  3  2  0  0  0  0
 12 13  1  0  0  0  0
 13 11  1  0  0  0  0
 13 22  2  0  0  0  0
 14 22  1  0  0  0  0
 14 23  2  0  0  0  0
 15  9  1  0  0  0  0
 16 19  1  0  0  0  0
 17  8  1  0  0  0  0
 18  6  1  0  0  0  0
 18 15  2  0  0  0  0
 20 10  1  0  0  0  0
 21  4  2  0  0  0  0
 22 21  1  0  0  0  0
 24  2  1  0  0  0  0
 25  5  1  0  0  0  0
 27 14  1  0  0  0  0
 28 23  1  0  0  0  0
 28  9  2  0  0  0  0
 29 20  1  0  0  0  0
 29 30  1  0  0  0  0
 30 31  1  0  0  0  0
 32 30  1  0  0  0  0
M  END
>  <MODEL>
2

>  <REMARK>
 VINA RESULT:     -10.1      2.410      3.615
  Name = 
  2 active torsions:
  status: ('A' for Active; 'I' for Inactive)
    1  A    between atoms: C_20  and  C_29
    2  A    between atoms: C_29  and  C_30
                            x       y       z     vdW  Elec       q    Type
                         _______ _______ _______ _____ _____    ______ ____

>  <TORSDO>
F 2

$$$$
=
 OpenBabel11122410473D

 32 38  0  0  1  0  0  0  0  0999 V2000
  180.7840  179.0430  141.7980 C   0  0  1  0  0  3  0  0  0  0  0  0
  185.4870  178.2880  143.6110 C   0  0  0  0  0  0  0  0  0  0  0  0
  188.5460  177.9710  139.8410 C   0  0  0  0  0  3  0  0  0  0  0  0
  189.6040  177.7600  140.7230 C   0  0  0  0  0  3  0  0  0  0  0  0
  186.2950  178.0290  145.8820 C   0  0  0  0  0  0  0  0  0  0  0  0
  187.3710  177.8080  146.7280 C   0  0  0  0  0  0  0  0  0  0  0  0
  183.1970  179.0060  143.2110 N   0  0  1  0  0  0  0  0  0  0  0  0
  184.5560  178.5260  141.2670 C   0  0  0  0  0  2  0  0  0  0  0  0
  189.4470  177.4340  147.3310 C   0  0  0  0  0  0  0  0  0  0  0  0
  182.0220  178.4920  141.0530 C   0  0  2  0  0  3  0  0  0  0  0  0
  187.2540  178.1500  140.3360 C   0  0  0  0  0  3  0  0  0  0  0  0
  185.7130  178.2990  142.2150 C   0  0  0  0  0  0  0  0  0  0  0  0
  187.0050  178.1230  141.7190 C   0  0  0  0  0  0  0  0  0  0  0  0
  187.8180  177.8780  144.0030 C   0  0  0  0  0  0  0  0  0  0  0  0
  188.6620  177.5050  148.4340 N   0  0  0  0  0  0  0  0  0  0  0  0
  180.9510  179.5240  143.1220 O   0  0  0  0  0  0  0  0  0  0  0  0
  183.2350  178.2490  141.9680 C   0  0  2  0  0  3  0  0  0  0  0  0
  187.4010  177.7310  148.0710 N   0  0  0  0  0  0  0  0  0  0  0  0
  181.9010  178.7510  143.8050 C   0  0  0  0  0  2  0  0  0  0  0  0
  181.6170  179.9410  140.8870 C   0  0  1  0  0  3  0  0  0  0  0  0
  189.3680  177.7300  142.0980 C   0  0  0  0  0  3  0  0  0  0  0  0
  188.0690  177.9100  142.6140 C   0  0  0  0  0  0  0  0  0  0  0  0
  188.9160  177.6520  144.8680 C   0  0  0  0  0  3  0  0  0  0  0  0
  184.1660  178.4840  144.0470 O   0  0  0  0  0  0  0  0  0  0  0  0
  184.7240  178.2460  146.6700 Cl  0  0  0  0  0  0  0  0  0  0  0  0
  190.9150  177.1910  147.3600 C   0  0  0  0  0  1  0  0  0  0  0  0
  186.5200  178.0650  144.5040 N   0  0  0  0  0  0  0  0  0  0  0  0
  188.6690  177.6210  146.2170 C   0  0  0  0  0  0  0  0  0  0  0  0
  180.9040  180.1100  139.5600 C   0  0  0  0  0  2  0  0  0  0  0  0
  181.6260  181.1320  138.7000 C   0  0  2  0  0  3  0  0  0  0  0  0
  181.1200  181.0360  137.2760 C   0  0  0  0  0  1  0  0  0  0  0  0
  182.9990  180.8850  138.7190 O   0  0  0  0  0  1  0  0  0  0  0  0
  1 16  1  1  0  0  0
  2 24  1  0  0  0  0
  2 27  1  0  0  0  0
  3 11  2  0  0  0  0
  3  4  1  0  0  0  0
  4 21  2  0  0  0  0
  5 25  1  0  0  0  0
  5  6  2  0  0  0  0
  6 18  1  0  0  0  0
  7 19  1  1  0  0  0
  7 24  1  0  0  0  0
  8 17  1  0  0  0  0
  8 12  1  0  0  0  0
  9 26  1  0  0  0  0
  9 15  1  0  0  0  0
 10  1  1  0  0  0  0
 10 17  1  0  0  0  0
 11 13  1  0  0  0  0
 12  2  2  0  0  0  0
 13 12  1  0  0  0  0
 13 22  2  0  0  0  0
 14 27  1  0  0  0  0
 14 23  2  0  0  0  0
 16 19  1  0  0  0  0
 17  7  1  0  0  0  0
 18 15  2  0  0  0  0
 20 10  1  0  0  0  0
 20  1  1  0  0  0  0
 21 22  1  0  0  0  0
 22 14  1  0  0  0  0
 23 28  1  0  0  0  0
 27  5  1  0  0  0  0
 28  6  1  0  0  0  0
 28  9  2  0  0  0  0
 29 20  1  0  0  0  0
 30 32  1  0  0  0  0
 30 29  1  0  0  0  0
 31 30  1  0  0  0  0
M  END
>  <MODEL>
3

>  <REMARK>
 VINA RESULT:      -9.9      3.512      5.770
  Name = 
  2 active torsions:
  status: ('A' for Active; 'I' for Inactive)
    1  A    between atoms: C_20  and  C_29
    2  A    between atoms: C_29  and  C_30
                            x       y       z     vdW  Elec       q    Type
                         _______ _______ _______ _____ _____    ______ ____

>  <TORSDO>
F 2

$$$$
=
 OpenBabel11122410473D

 32 38  0  0  1  0  0  0  0  0999 V2000
  190.8150  177.1020  140.7670 C   0  0  1  0  0  3  0  0  0  0  0  0
  185.9020  178.4000  141.1650 C   0  0  0  0  0  0  0  0  0  0  0  0
  184.7330  178.5350  145.8860 C   0  0  0  0  0  3  0  0  0  0  0  0
  183.4250  178.8730  145.5470 C   0  0  0  0  0  3  0  0  0  0  0  0
  184.2320  178.8490  139.4650 C   0  0  0  0  0  0  0  0  0  0  0  0
  182.9180  179.1770  139.1670 C   0  0  0  0  0  0  0  0  0  0  0  0
  188.2420  178.1750  140.5380 N   0  0  1  0  0  0  0  0  0  0  0  0
  187.6950  177.8760  142.8760 C   0  0  0  0  0  2  0  0  0  0  0  0
  180.8120  179.6790  139.5200 C   0  0  0  0  0  0  0  0  0  0  0  0
  189.8640  176.9050  141.9710 C   0  0  2  0  0  3  0  0  0  0  0  0
  185.6790  178.3270  144.8810 C   0  0  0  0  0  3  0  0  0  0  0  0
  186.2710  178.2460  142.5200 C   0  0  0  0  0  0  0  0  0  0  0  0
  185.3280  178.4570  143.5260 C   0  0  0  0  0  0  0  0  0  0  0  0
  183.6530  178.9220  141.8180 C   0  0  0  0  0  0  0  0  0  0  0  0
  181.0530  179.6580  138.1870 N   0  0  0  0  0  0  0  0  0  0  0  0
  190.3430  177.8350  139.6470 O   0  0  0  0  0  0  0  0  0  0  0  0
  188.4020  177.2750  141.6700 C   0  0  2  0  0  3  0  0  0  0  0  0
  182.3320  179.3530  137.9690 N   0  0  0  0  0  0  0  0  0  0  0  0
  188.9790  177.5840  139.4390 C   0  0  0  0  0  2  0  0  0  0  0  0
  190.8410  178.0630  141.9530 C   0  0  1  0  0  3  0  0  0  0  0  0
  183.0640  179.0030  144.2050 C   0  0  0  0  0  3  0  0  0  0  0  0
  184.0070  178.7960  143.1790 C   0  0  0  0  0  0  0  0  0  0  0  0
  182.3120  179.2570  141.5120 C   0  0  0  0  0  3  0  0  0  0  0  0
  186.9010  178.1870  140.2010 O   0  0  0  0  0  0  0  0  0  0  0  0
  185.3070  178.6280  138.0760 Cl  0  0  0  0  0  0  0  0  0  0  0  0
  179.4870  179.9830  140.1280 C   0  0  0  0  0  1  0  0  0  0  0  0
  184.6050  178.7200  140.8050 N   0  0  0  0  0  0  0  0  0  0  0  0
  181.9700  179.3780  140.1890 C   0  0  0  0  0  0  0  0  0  0  0  0
  192.0230  177.7310  142.8420 C   0  0  0  0  0  2  0  0  0  0  0  0
  191.8380  178.3450  144.2180 C   0  0  2  0  0  3  0  0  0  0  0  0
  191.3080  177.2940  145.1690 C   0  0  0  0  0  1  0  0  0  0  0  0
  190.9310  179.4030  144.1480 O   0  0  0  0  0  1  0  0  0  0  0  0
  1 16  1  6  0  0  0
  1 20  1  0  0  0  0
  1 10  1  0  0  0  0
  2 12  2  0  0  0  0
  4  3  1  0  0  0  0
  5 27  1  0  0  0  0
  6  5  2  0  0  0  0
  6 28  1  0  0  0  0
  7 19  1  6  0  0  0
  7 17  1  0  0  0  0
  9 26  1  0  0  0  0
  9 28  2  0  0  0  0
 11  3  2  0  0  0  0
 12  8  1  0  0  0  0
 12 13  1  0  0  0  0
 13 11  1  0  0  0  0
 14 22  1  0  0  0  0
 15  9  1  0  0  0  0
 17 10  1  0  0  0  0
 17  8  1  0  0  0  0
 18 15  2  0  0  0  0
 18  6  1  0  0  0  0
 19 16  1  0  0  0  0
 20 10  1  0  0  0  0
 20 29  1  0  0  0  0
 21  4  2  0  0  0  0
 22 13  2  0  0  0  0
 22 21  1  0  0  0  0
 23 14  2  0  0  0  0
 24  7  1  0  0  0  0
 24  2  1  0  0  0  0
 25  5  1  0  0  0  0
 27  2  1  0  0  0  0
 27 14  1  0  0  0  0
 28 23  1  0  0  0  0
 29 30  1  0  0  0  0
 30 31  1  0  0  0  0
 32 30  1  0  0  0  0
M  END
>  <MODEL>
4

>  <REMARK>
 VINA RESULT:      -9.4      3.451      6.980
  Name = 
  2 active torsions:
  status: ('A' for Active; 'I' for Inactive)
    1  A    between atoms: C_20  and  C_29
    2  A    between atoms: C_29  and  C_30
                            x       y       z     vdW  Elec       q    Type
                         _______ _______ _______ _____ _____    ______ ____

>  <TORSDO>
F 2

$$$$
=
 OpenBabel11122410473D

 32 38  0  0  1  0  0  0  0  0999 V2000
  190.6670  176.7530  146.3260 C   0  0  1  0  0  3  0  0  0  0  0  0
  188.5590  177.6630  141.7760 C   0  0  0  0  0  0  0  0  0  0  0  0
  183.8820  178.8160  142.4600 C   0  0  0  0  0  3  0  0  0  0  0  0
  183.7180  178.9450  141.0830 C   0  0  0  0  0  3  0  0  0  0  0  0
  189.4880  177.5420  139.5400 C   0  0  0  0  0  0  0  0  0  0  0  0
  189.2820  177.6710  138.1740 C   0  0  0  0  0  0  0  0  0  0  0  0
  190.0270  177.5050  143.7100 N   0  0  1  0  0  0  0  0  0  0  0  0
  187.6570  177.7250  144.1420 C   0  0  0  0  0  2  0  0  0  0  0  0
  188.2050  178.0510  136.3010 C   0  0  0  0  0  0  0  0  0  0  0  0
  189.1670  176.7650  145.9490 C   0  0  2  0  0  3  0  0  0  0  0  0
  185.1270  178.4600  142.9800 C   0  0  0  0  0  3  0  0  0  0  0  0
  187.4660  177.8710  142.6480 C   0  0  0  0  0  0  0  0  0  0  0  0
  186.2220  178.2300  142.1290 C   0  0  0  0  0  0  0  0  0  0  0  0
  187.1590  178.1220  139.8820 C   0  0  0  0  0  0  0  0  0  0  0  0
  189.4930  177.7350  136.0240 N   0  0  0  0  0  0  0  0  0  0  0  0
  191.6130  177.1520  145.3480 O   0  0  0  0  0  0  0  0  0  0  0  0
  188.9120  176.9200  144.4400 C   0  0  2  0  0  3  0  0  0  0  0  0
  190.1500  177.5020  137.1600 N   0  0  0  0  0  0  0  0  0  0  0  0
  191.2010  176.7380  144.0730 C   0  0  0  0  0  2  0  0  0  0  0  0
  189.7920  177.9670  146.6250 C   0  0  1  0  0  3  0  0  0  0  0  0
  184.7970  178.7180  140.2280 C   0  0  0  0  0  3  0  0  0  0  0  0
  186.0610  178.3580  140.7380 C   0  0  0  0  0  0  0  0  0  0  0  0
  186.9510  178.2530  138.4880 C   0  0  0  0  0  3  0  0  0  0  0  0
  189.7880  177.3160  142.3610 O   0  0  0  0  0  0  0  0  0  0  0  0
  191.1260  177.0930  140.0360 Cl  0  0  0  0  0  0  0  0  0  0  0  0
  187.1800  178.3720  135.2700 C   0  0  0  0  0  1  0  0  0  0  0  0
  188.4150  177.7700  140.4040 N   0  0  0  0  0  0  0  0  0  0  0  0
  188.0200  178.0240  137.6600 C   0  0  0  0  0  0  0  0  0  0  0  0
  189.4130  177.9650  148.0930 C   0  0  0  0  0  2  0  0  0  0  0  0
  187.9310  177.6800  148.2560 C   0  0  2  0  0  3  0  0  0  0  0  0
  187.1350  178.8470  147.7120 C   0  0  0  0  0  1  0  0  0  0  0  0
  187.6260  177.5030  149.6060 O   0  0  0  0  0  1  0  0  0  0  0  0
  1 16  1  6  0  0  0
  1 20  1  0  0  0  0
  2 24  1  0  0  0  0
  2 12  2  0  0  0  0
  3 11  1  0  0  0  0
  4  3  2  0  0  0  0
  5 25  1  0  0  0  0
  5 27  1  0  0  0  0
  6  5  2  0  0  0  0
  7 19  1  1  0  0  0
  7 17  1  0  0  0  0
  8 17  1  0  0  0  0
  9 28  2  0  0  0  0
 10  1  1  0  0  0  0
 10 20  1  0  0  0  0
 12  8  1  0  0  0  0
 13 12  1  0  0  0  0
 13 11  2  0  0  0  0
 14 27  1  0  0  0  0
 14 22  1  0  0  0  0
 15  9  1  0  0  0  0
 15 18  2  0  0  0  0
 17 10  1  0  0  0  0
 18  6  1  0  0  0  0
 19 16  1  0  0  0  0
 20 29  1  0  0  0  0
 21 22  2  0  0  0  0
 21  4  1  0  0  0  0
 22 13  1  0  0  0  0
 23 14  2  0  0  0  0
 24  7  1  0  0  0  0
 26  9  1  0  0  0  0
 27  2  1  0  0  0  0
 28  6  1  0  0  0  0
 28 23  1  0  0  0  0
 29 30  1  0  0  0  0
 30 32  1  0  0  0  0
 31 30  1  0  0  0  0
M  END
>  <MODEL>
5

>  <REMARK>
 VINA RESULT:      -9.4      2.248      7.626
  Name = 
  2 active torsions:
  status: ('A' for Active; 'I' for Inactive)
    1  A    between atoms: C_20  and  C_29
    2  A    between atoms: C_29  and  C_30
                            x       y       z     vdW  Elec       q    Type
                         _______ _______ _______ _____ _____    ______ ____

>  <TORSDO>
F 2

$$$$
=
 OpenBabel11122410473D

 32 38  0  0  1  0  0  0  0  0999 V2000
  188.5310  177.8200  147.9220 C   0  0  1  0  0  3  0  0  0  0  0  0
  186.3170  178.2390  143.3500 C   0  0  0  0  0  0  0  0  0  0  0  0
  189.7690  177.8770  139.9410 C   0  0  0  0  0  3  0  0  0  0  0  0
  188.8040  178.0560  138.9520 C   0  0  0  0  0  3  0  0  0  0  0  0
  184.0040  178.6210  142.7310 C   0  0  0  0  0  0  0  0  0  0  0  0
  183.0740  178.8050  141.7190 C   0  0  0  0  0  0  0  0  0  0  0  0
  186.8880  177.7330  145.6610 N   0  0  1  0  0  0  0  0  0  0  0  0
  188.7160  177.8840  144.0830 C   0  0  0  0  0  2  0  0  0  0  0  0
  182.2960  179.0110  139.6790 C   0  0  0  0  0  0  0  0  0  0  0  0
  189.1880  178.1660  146.5650 C   0  0  2  0  0  3  0  0  0  0  0  0
  189.3950  177.8830  141.2850 C   0  0  0  0  0  3  0  0  0  0  0  0
  187.6770  178.0740  142.9990 C   0  0  0  0  0  0  0  0  0  0  0  0
  188.0510  178.0650  141.6560 C   0  0  0  0  0  0  0  0  0  0  0  0
  185.7240  178.4340  141.0340 C   0  0  0  0  0  0  0  0  0  0  0  0
  181.2770  179.1270  140.5640 N   0  0  0  0  0  0  0  0  0  0  0  0
  187.1620  177.4510  147.9340 O   0  0  0  0  0  0  0  0  0  0  0  0
  188.1780  178.3630  145.4220 C   0  0  2  0  0  3  0  0  0  0  0  0
  181.7460  179.0030  141.8050 N   0  0  0  0  0  0  0  0  0  0  0  0
  186.4520  178.1790  146.9690 C   0  0  0  0  0  2  0  0  0  0  0  0
  189.2750  176.7590  147.1170 C   0  0  1  0  0  3  0  0  0  0  0  0
  187.4670  178.2390  139.3080 C   0  0  0  0  0  3  0  0  0  0  0  0
  187.0730  178.2470  140.6610 C   0  0  0  0  0  0  0  0  0  0  0  0
  184.7740  178.6230  140.0010 C   0  0  0  0  0  3  0  0  0  0  0  0
  186.0030  178.2260  144.7190 O   0  0  0  0  0  0  0  0  0  0  0  0
  183.3650  178.6470  144.3820 Cl  0  0  0  0  0  0  0  0  0  0  0  0
  182.1370  179.0990  138.2010 C   0  0  0  0  0  1  0  0  0  0  0  0
  185.3450  178.4330  142.3860 N   0  0  0  0  0  0  0  0  0  0  0  0
  183.4640  178.8050  140.3660 C   0  0  0  0  0  0  0  0  0  0  0  0
  190.6500  176.5430  147.7190 C   0  0  0  0  0  2  0  0  0  0  0  0
  191.6160  176.0390  146.6620 C   0  0  2  0  0  3  0  0  0  0  0  0
  192.8060  175.3930  147.3370 C   0  0  0  0  0  1  0  0  0  0  0  0
  192.0550  177.1030  145.8730 O   0  0  0  0  0  1  0  0  0  0  0  0
  1 16  1  6  0  0  0
  2 24  1  0  0  0  0
  3 11  1  0  0  0  0
  4 21  1  0  0  0  0
  4  3  2  0  0  0  0
  5 25  1  0  0  0  0
  6 18  1  0  0  0  0
  6  5  2  0  0  0  0
  7 19  1  1  0  0  0
  8 17  1  0  0  0  0
  9 28  2  0  0  0  0
  9 15  1  0  0  0  0
 10 20  1  0  0  0  0
 10  1  1  0  0  0  0
 11 13  2  0  0  0  0
 12  2  2  0  0  0  0
 12  8  1  0  0  0  0
 13 12  1  0  0  0  0
 14 27  1  0  0  0  0
 15 18  2  0  0  0  0
 17  7  1  0  0  0  0
 17 10  1  0  0  0  0
 19 16  1  0  0  0  0
 20 29  1  0  0  0  0
 20  1  1  0  0  0  0
 21 22  2  0  0  0  0
 22 14  1  0  0  0  0
 22 13  1  0  0  0  0
 23 28  1  0  0  0  0
 23 14  2  0  0  0  0
 24  7  1  0  0  0  0
 26  9  1  0  0  0  0
 27  5  1  0  0  0  0
 27  2  1  0  0  0  0
 28  6  1  0  0  0  0
 30 31  1  0  0  0  0
 30 29  1  0  0  0  0
 32 30  1  0  0  0  0
M  END
>  <MODEL>
6

>  <REMARK>
 VINA RESULT:      -9.1      3.493      8.271
  Name = 
  2 active torsions:
  status: ('A' for Active; 'I' for Inactive)
    1  A    between atoms: C_20  and  C_29
    2  A    between atoms: C_29  and  C_30
                            x       y       z     vdW  Elec       q    Type
                         _______ _______ _______ _____ _____    ______ ____

>  <TORSDO>
F 2

$$$$
=
 OpenBabel11122410473D

 32 38  0  0  1  0  0  0  0  0999 V2000
  190.7040  176.6290  137.3900 C   0  0  1  0  0  3  0  0  0  0  0  0
  188.7250  177.3580  142.0310 C   0  0  0  0  0  0  0  0  0  0  0  0
  192.0550  176.0660  145.3330 C   0  0  0  0  0  3  0  0  0  0  0  0
  191.1580  176.3780  146.3530 C   0  0  0  0  0  3  0  0  0  0  0  0
  186.5330  178.1290  142.7220 C   0  0  0  0  0  0  0  0  0  0  0  0
  185.6640  178.4190  143.7640 C   0  0  0  0  0  0  0  0  0  0  0  0
  189.3830  177.5100  139.6930 N   0  0  1  0  0  0  0  0  0  0  0  0
  190.9760  176.5220  141.2230 C   0  0  0  0  0  2  0  0  0  0  0  0
  184.9560  178.6280  145.8300 C   0  0  0  0  0  0  0  0  0  0  0  0
  191.1660  176.0250  138.7370 C   0  0  2  0  0  3  0  0  0  0  0  0
  191.6750  176.2260  144.0000 C   0  0  0  0  0  3  0  0  0  0  0  0
  190.0110  176.8600  142.3390 C   0  0  0  0  0  0  0  0  0  0  0  0
  190.3940  176.7020  143.6710 C   0  0  0  0  0  0  0  0  0  0  0  0
  188.1950  177.4910  144.3670 C   0  0  0  0  0  0  0  0  0  0  0  0
  183.9730  179.0030  144.9760 N   0  0  0  0  0  0  0  0  0  0  0  0
  189.6750  177.6060  137.4060 O   0  0  0  0  0  0  0  0  0  0  0  0
  190.2260  176.3440  139.9120 C   0  0  2  0  0  3  0  0  0  0  0  0
  184.4000  178.8770  143.7200 N   0  0  0  0  0  0  0  0  0  0  0  0
  188.7400  177.3130  138.4090 C   0  0  0  0  0  2  0  0  0  0  0  0
  191.8910  177.2170  138.1470 C   0  0  1  0  0  3  0  0  0  0  0  0
  189.8820  176.8490  146.0380 C   0  0  0  0  0  3  0  0  0  0  0  0
  189.4830  177.0170  144.6970 C   0  0  0  0  0  0  0  0  0  0  0  0
  187.3070  177.7870  145.4290 C   0  0  0  0  0  3  0  0  0  0  0  0
  188.4050  177.5070  140.6710 O   0  0  0  0  0  0  0  0  0  0  0  0
  185.8990  178.3950  141.0910 Cl  0  0  0  0  0  0  0  0  0  0  0  0
  184.8290  178.6400  147.3130 C   0  0  0  0  0  1  0  0  0  0  0  0
  187.8120  177.6590  143.0260 N   0  0  0  0  0  0  0  0  0  0  0  0
  186.0560  178.2470  145.1050 C   0  0  0  0  0  0  0  0  0  0  0  0
  193.1800  176.7460  137.5020 C   0  0  0  0  0  2  0  0  0  0  0  0
  193.2820  175.2330  137.5690 C   0  0  2  0  0  3  0  0  0  0  0  0
  194.5850  174.8470  138.2350 C   0  0  0  0  0  1  0  0  0  0  0  0
  193.2450  174.6960  136.2810 O   0  0  0  0  0  1  0  0  0  0  0  0
  1 16  1  1  0  0  0
  1 20  1  0  0  0  0
  1 10  1  0  0  0  0
  2 12  2  0  0  0  0
  2 27  1  0  0  0  0
  3  4  1  0  0  0  0
  5 27  1  0  0  0  0
  5  6  2  0  0  0  0
  6 28  1  0  0  0  0
  7 19  1  6  0  0  0
  7 17  1  0  0  0  0
  7 24  1  0  0  0  0
  8 12  1  0  0  0  0
  9 26  1  0  0  0  0
 10 17  1  0  0  0  0
 11  3  2  0  0  0  0
 12 13  1  0  0  0  0
 13 11  1  0  0  0  0
 13 22  2  0  0  0  0
 14 22  1  0  0  0  0
 14 23  2  0  0  0  0
 15  9  1  0  0  0  0
 16 19  1  0  0  0  0
 17  8  1  0  0  0  0
 18  6  1  0  0  0  0
 18 15  2  0  0  0  0
 20 10  1  0  0  0  0
 21  4  2  0  0  0  0
 22 21  1  0  0  0  0
 24  2  1  0  0  0  0
 25  5  1  0  0  0  0
 27 14  1  0  0  0  0
 28 23  1  0  0  0  0
 28  9  2  0  0  0  0
 29 30  1  0  0  0  0
 29 20  1  0  0  0  0
 30 31  1  0  0  0  0
 32 30  1  0  0  0  0
M  END
>  <MODEL>
7

>  <REMARK>
 VINA RESULT:      -9.1      2.436      4.927
  Name = 
  2 active torsions:
  status: ('A' for Active; 'I' for Inactive)
    1  A    between atoms: C_20  and  C_29
    2  A    between atoms: C_29  and  C_30
                            x       y       z     vdW  Elec       q    Type
                         _______ _______ _______ _____ _____    ______ ____

>  <TORSDO>
F 2

$$$$
=
 OpenBabel11122410473D

 32 38  0  0  1  0  0  0  0  0999 V2000
  189.5450  177.7530  146.2700 C   0  0  1  0  0  3  0  0  0  0  0  0
  185.6710  178.3530  143.0130 C   0  0  0  0  0  0  0  0  0  0  0  0
  187.4510  178.2530  138.4860 C   0  0  0  0  0  3  0  0  0  0  0  0
  186.1680  178.4580  137.9820 C   0  0  0  0  0  3  0  0  0  0  0  0
  183.3050  178.7090  143.4030 C   0  0  0  0  0  0  0  0  0  0  0  0
  182.0450  178.9230  142.8650 C   0  0  0  0  0  0  0  0  0  0  0  0
  187.1280  177.7420  144.8630 N   0  0  1  0  0  0  0  0  0  0  0  0
  188.1620  178.0190  142.6930 C   0  0  0  0  0  2  0  0  0  0  0  0
  180.5080  179.2150  141.3270 C   0  0  0  0  0  0  0  0  0  0  0  0
  189.5970  178.1840  144.7860 C   0  0  2  0  0  3  0  0  0  0  0  0
  187.6520  178.1790  139.8650 C   0  0  0  0  0  3  0  0  0  0  0  0
  186.7730  178.2390  142.1350 C   0  0  0  0  0  0  0  0  0  0  0  0
  186.5730  178.3090  140.7560 C   0  0  0  0  0  0  0  0  0  0  0  0
  184.1920  178.6530  141.1480 C   0  0  0  0  0  0  0  0  0  0  0  0
  179.9330  179.2600  142.5540 N   0  0  0  0  0  0  0  0  0  0  0  0
  188.2980  177.3490  146.8130 O   0  0  0  0  0  0  0  0  0  0  0  0
  188.2110  178.4150  144.1610 C   0  0  2  0  0  3  0  0  0  0  0  0
  180.8650  179.0830  143.4900 N   0  0  0  0  0  0  0  0  0  0  0  0
  187.2570  178.1080  146.2590 C   0  0  0  0  0  2  0  0  0  0  0  0
  189.9020  176.7520  145.1740 C   0  0  1  0  0  3  0  0  0  0  0  0
  185.0890  178.5900  138.8580 C   0  0  0  0  0  3  0  0  0  0  0  0
  185.2760  178.5180  140.2530 C   0  0  0  0  0  0  0  0  0  0  0  0
  182.9050  178.8710  140.5990 C   0  0  0  0  0  3  0  0  0  0  0  0
  185.9380  178.2610  144.3890 O   0  0  0  0  0  0  0  0  0  0  0  0
  183.3880  178.6340  145.1700 Cl  0  0  0  0  0  0  0  0  0  0  0  0
  179.7650  179.3750  140.0470 C   0  0  0  0  0  1  0  0  0  0  0  0
  184.3920  178.5730  142.5360 N   0  0  0  0  0  0  0  0  0  0  0  0
  181.8550  179.0020  141.4720 C   0  0  0  0  0  0  0  0  0  0  0  0
  191.4030  176.5400  145.1570 C   0  0  0  0  0  2  0  0  0  0  0  0
  191.7970  175.6520  143.9900 C   0  0  2  0  0  3  0  0  0  0  0  0
  190.5550  175.2590  143.2180 C   0  0  0  0  0  1  0  0  0  0  0  0
  192.4310  174.5010  144.4610 O   0  0  0  0  0  1  0  0  0  0  0  0
  1 16  1  6  0  0  0
  2 24  1  0  0  0  0
  3 11  1  0  0  0  0
  4  3  2  0  0  0  0
  4 21  1  0  0  0  0
  5 25  1  0  0  0  0
  6  5  2  0  0  0  0
  6 18  1  0  0  0  0
  7 19  1  1  0  0  0
  8 17  1  0  0  0  0
  9 28  2  0  0  0  0
  9 15  1  0  0  0  0
 10 20  1  0  0  0  0
 10  1  1  0  0  0  0
 11 13  2  0  0  0  0
 12  8  1  0  0  0  0
 12  2  2  0  0  0  0
 13 12  1  0  0  0  0
 14 27  1  0  0  0  0
 15 18  2  0  0  0  0
 17 10  1  0  0  0  0
 17  7  1  0  0  0  0
 19 16  1  0  0  0  0
 20  1  1  0  0  0  0
 21 22  2  0  0  0  0
 22 13  1  0  0  0  0
 22 14  1  0  0  0  0
 23 14  2  0  0  0  0
 23 28  1  0  0  0  0
 24  7  1  0  0  0  0
 26  9  1  0  0  0  0
 27  2  1  0  0  0  0
 27  5  1  0  0  0  0
 28  6  1  0  0  0  0
 29 20  1  0  0  0  0
 30 32  1  0  0  0  0
 30 29  1  0  0  0  0
 31 30  1  0  0  0  0
M  END
>  <MODEL>
8

>  <REMARK>
 VINA RESULT:      -9.0      3.578      7.571
  Name = 
  2 active torsions:
  status: ('A' for Active; 'I' for Inactive)
    1  A    between atoms: C_20  and  C_29
    2  A    between atoms: C_29  and  C_30
                            x       y       z     vdW  Elec       q    Type
                         _______ _______ _______ _____ _____    ______ ____

>  <TORSDO>
F 2

$$$$
=
 OpenBabel11122410473D

 32 38  0  0  1  0  0  0  0  0999 V2000
  180.7670  179.4000  140.2380 C   0  0  1  0  0  3  0  0  0  0  0  0
  185.4290  178.4190  142.0480 C   0  0  0  0  0  0  0  0  0  0  0  0
  185.1960  178.3310  146.9070 C   0  0  0  0  0  3  0  0  0  0  0  0
  186.5650  178.0790  146.9630 C   0  0  0  0  0  3  0  0  0  0  0  0
  187.5420  178.0880  140.9060 C   0  0  0  0  0  0  0  0  0  0  0  0
  188.9050  177.8470  141.0030 C   0  0  0  0  0  0  0  0  0  0  0  0
  183.3590  178.4970  140.7720 N   0  0  1  0  0  0  0  0  0  0  0  0
  183.1900  178.8160  143.1640 C   0  0  0  0  0  2  0  0  0  0  0  0
  190.8480  177.4810  141.9530 C   0  0  0  0  0  0  0  0  0  0  0  0
  181.3160  179.6500  141.6610 C   0  0  2  0  0  3  0  0  0  0  0  0
  184.5680  178.4830  145.6700 C   0  0  0  0  0  3  0  0  0  0  0  0
  184.6760  178.5400  143.2380 C   0  0  0  0  0  0  0  0  0  0  0  0
  185.3020  178.3850  144.4750 C   0  0  0  0  0  0  0  0  0  0  0  0
  187.4230  178.0390  143.3270 C   0  0  0  0  0  0  0  0  0  0  0  0
  190.9990  177.4930  140.6070 N   0  0  0  0  0  0  0  0  0  0  0  0
  181.5860  178.7060  139.3100 O   0  0  0  0  0  0  0  0  0  0  0  0
  182.8230  179.3780  141.7990 C   0  0  2  0  0  3  0  0  0  0  0  0
  189.8210  177.7170  140.0260 N   0  0  0  0  0  0  0  0  0  0  0  0
  182.9330  179.0460  139.5000 C   0  0  0  0  0  2  0  0  0  0  0  0
  180.4620  178.4330  141.3780 C   0  0  1  0  0  3  0  0  0  0  0  0
  187.3040  177.9810  145.7840 C   0  0  0  0  0  3  0  0  0  0  0  0
  186.6850  178.1330  144.5260 C   0  0  0  0  0  0  0  0  0  0  0  0
  188.8140  177.7930  143.4240 C   0  0  0  0  0  3  0  0  0  0  0  0
  184.7380  178.5730  140.8350 O   0  0  0  0  0  0  0  0  0  0  0  0
  186.9010  178.2490  139.2640 Cl  0  0  0  0  0  0  0  0  0  0  0  0
  191.9570  177.2580  142.9200 C   0  0  0  0  0  1  0  0  0  0  0  0
  186.7930  178.1850  142.0800 N   0  0  0  0  0  0  0  0  0  0  0  0
  189.5290  177.7020  142.2570 C   0  0  0  0  0  0  0  0  0  0  0  0
  179.0550  178.6820  141.8850 C   0  0  0  0  0  2  0  0  0  0  0  0
  178.9800  178.4310  143.3800 C   0  0  2  0  0  3  0  0  0  0  0  0
  179.1710  179.7390  144.1180 C   0  0  0  0  0  1  0  0  0  0  0  0
  179.9800  177.5360  143.7630 O   0  0  0  0  0  1  0  0  0  0  0  0
  1 16  1  6  0  0  0
  1 20  1  0  0  0  0
  1 10  1  0  0  0  0
  2 27  1  0  0  0  0
  2 12  2  0  0  0  0
  3  4  1  0  0  0  0
  5  6  2  0  0  0  0
  5 27  1  0  0  0  0
  6 28  1  0  0  0  0
  7 19  1  6  0  0  0
  7 24  1  0  0  0  0
  7 17  1  0  0  0  0
  8 12  1  0  0  0  0
  9 28  2  0  0  0  0
  9 26  1  0  0  0  0
 10 17  1  0  0  0  0
 11  3  2  0  0  0  0
 12 13  1  0  0  0  0
 13 22  2  0  0  0  0
 13 11  1  0  0  0  0
 14 23  2  0  0  0  0
 14 22  1  0  0  0  0
 15  9  1  0  0  0  0
 16 19  1  0  0  0  0
 17  8  1  0  0  0  0
 18 15  2  0  0  0  0
 18  6  1  0  0  0  0
 20 10  1  0  0  0  0
 20 29  1  0  0  0  0
 21  4  2  0  0  0  0
 22 21  1  0  0  0  0
 24  2  1  0  0  0  0
 25  5  1  0  0  0  0
 27 14  1  0  0  0  0
 28 23  1  0  0  0  0
 29 30  1  0  0  0  0
 30 32  1  0  0  0  0
 30 31  1  0  0  0  0
M  END
>  <MODEL>
9

>  <REMARK>
 VINA RESULT:      -9.0      3.597      6.703
  Name = 
  2 active torsions:
  status: ('A' for Active; 'I' for Inactive)
    1  A    between atoms: C_20  and  C_29
    2  A    between atoms: C_29  and  C_30
                            x       y       z     vdW  Elec       q    Type
                         _______ _______ _______ _____ _____    ______ ____

>  <TORSDO>
F 2

$$$$
