=
 OpenBabel11122410363D

 32 37  0  0  1  0  0  0  0  0999 V2000
  191.7730  175.4370  137.9620 C   0  0  0  0  0  2  0  0  0  0  0  0
  188.9510  177.7420  141.9550 C   0  0  1  0  0  3  0  0  0  0  0  0
  191.8210  176.4540  145.8110 C   0  0  0  0  0  3  0  0  0  0  0  0
  190.7240  176.5210  146.6660 C   0  0  0  0  0  3  0  0  0  0  0  0
  186.4940  178.0770  142.3630 C   0  0  0  0  0  0  0  0  0  0  0  0
  185.5960  178.5980  143.3840 C   0  0  0  0  0  0  0  0  0  0  0  0
  190.0100  177.5440  139.6790 C   0  0  1  0  0  3  0  0  0  0  0  0
  191.4450  177.5970  141.7280 C   0  0  0  0  0  2  0  0  0  0  0  0
  184.7670  178.9080  145.3830 N   0  0  0  0  0  0  0  0  0  0  0  0
  192.5670  177.3000  139.5250 C   0  0  0  0  0  2  0  0  0  0  0  0
  191.6590  176.7140  144.4500 C   0  0  0  0  0  3  0  0  0  0  0  0
  190.2450  177.3330  142.5250 N   0  0  0  0  0  0  0  0  0  0  0  0
  190.3960  177.0440  143.9250 C   0  0  0  0  0  0  0  0  0  0  0  0
  187.9830  177.4190  144.2600 N   0  0  0  0  0  0  0  0  0  0  0  0
  183.9470  179.5080  144.5330 N   0  0  0  0  0  0  0  0  0  0  0  0
  190.2440  175.6100  138.0010 C   0  0  0  0  0  2  0  0  0  0  0  0
  191.2980  177.0120  140.3300 C   0  0  2  0  0  3  0  0  0  0  0  0
  184.4290  179.3350  143.2770 C   0  0  0  0  0  3  0  0  0  0  0  0
  189.7770  177.0510  138.2450 C   0  0  0  0  0  2  0  0  0  0  0  0
  192.5530  176.7510  138.0920 C   0  0  1  0  0  3  0  0  0  0  0  0
  189.4650  176.8420  146.1550 C   0  0  0  0  0  3  0  0  0  0  0  0
  189.2860  177.0990  144.7830 C   0  0  0  0  0  0  0  0  0  0  0  0
  186.8610  177.4720  145.2180 C   0  0  0  0  0  2  0  0  0  0  0  0
  188.8150  177.1620  140.5430 C   0  0  0  0  0  2  0  0  0  0  0  0
  186.2040  178.2160  141.1440 O   0  0  0  0  0  0  0  0  0  0  0  0
  184.5500  178.8470  146.8180 C   0  0  0  0  0  1  0  0  0  0  0  0
  187.7350  177.3050  142.7980 C   0  0  2  0  0  3  0  0  0  0  0  0
  185.7830  178.3590  144.7030 C   0  0  0  0  0  0  0  0  0  0  0  0
  193.9220  176.5710  137.6340 N   0  0  0  0  0  2  0  0  0  0  0  0
  194.2440  176.3540  136.2600 C   0  0  0  0  0  0  0  0  0  0  0  0
  193.2440  176.3350  135.2940 O   0  0  0  0  0  0  0  0  0  0  0  0
  195.4420  176.1840  135.9200 O   0  0  0  0  0  1  0  0  0  0  0  0
  1 16  1  0  0  0  0
  1 20  1  0  0  0  0
  2 24  1  6  0  0  0
  2 12  1  0  0  0  0
  2 27  1  0  0  0  0
  3  4  1  0  0  0  0
  5  6  1  0  0  0  0
  6 28  2  0  0  0  0
  7 19  1  6  0  0  0
  7 17  1  0  0  0  0
  7 24  1  0  0  0  0
  8 12  1  0  0  0  0
  9 26  1  0  0  0  0
 11  3  2  0  0  0  0
 12 13  1  0  0  0  0
 13 11  1  0  0  0  0
 13 22  2  0  0  0  0
 14 22  1  0  0  0  0
 14 23  1  0  0  0  0
 15  9  1  0  0  0  0
 16 19  1  0  0  0  0
 17 10  1  6  0  0  0
 17  8  1  0  0  0  0
 18  6  1  0  0  0  0
 18 15  2  0  0  0  0
 20 29  1  1  0  0  0
 20 10  1  0  0  0  0
 21  4  2  0  0  0  0
 22 21  1  0  0  0  0
 25  5  2  0  0  0  0
 27  5  1  6  0  0  0
 27 14  1  0  0  0  0
 28 23  1  0  0  0  0
 28  9  1  0  0  0  0
 30 29  1  0  0  0  0
 31 30  2  0  0  0  0
 32 30  1  0  0  0  0
M  END
>  <MODEL>
1

>  <REMARK>
 VINA RESULT:     -10.2      0.000      0.000
  Name = 
  1 active torsions:
  status: ('A' for Active; 'I' for Inactive)
    1  A    between atoms: C_20  and  N_29
                            x       y       z     vdW  Elec       q    Type
                         _______ _______ _______ _____ _____    ______ ____

>  <TORSDO>
F 1

$$$$
=
 OpenBabel11122410363D

 32 37  0  0  1  0  0  0  0  0999 V2000
  189.1730  178.3840  147.5680 C   0  0  0  0  0  2  0  0  0  0  0  0
  186.0440  177.8200  143.1970 C   0  0  1  0  0  3  0  0  0  0  0  0
  189.5650  177.8700  139.6800 C   0  0  0  0  0  3  0  0  0  0  0  0
  188.6470  178.3520  138.7500 C   0  0  0  0  0  3  0  0  0  0  0  0
  183.7520  178.6560  142.5940 C   0  0  0  0  0  0  0  0  0  0  0  0
  182.8250  178.6530  141.4700 C   0  0  0  0  0  0  0  0  0  0  0  0
  186.8410  177.3980  145.5470 C   0  0  1  0  0  3  0  0  0  0  0  0
  188.3020  176.8090  143.6040 C   0  0  0  0  0  2  0  0  0  0  0  0
  182.1540  178.8570  139.4000 N   0  0  0  0  0  0  0  0  0  0  0  0
  189.2080  176.4490  145.8960 C   0  0  0  0  0  2  0  0  0  0  0  0
  189.1660  177.6410  140.9970 C   0  0  0  0  0  3  0  0  0  0  0  0
  187.4350  177.6280  142.7550 N   0  0  0  0  0  0  0  0  0  0  0  0
  187.8420  177.8920  141.4020 C   0  0  0  0  0  0  0  0  0  0  0  0
  185.5640  178.6680  140.8710 N   0  0  0  0  0  0  0  0  0  0  0  0
  181.0710  178.6490  140.1330 N   0  0  0  0  0  0  0  0  0  0  0  0
  187.7400  178.9240  147.4100 C   0  0  0  0  0  2  0  0  0  0  0  0
  188.2900  177.3220  145.0370 C   0  0  2  0  0  3  0  0  0  0  0  0
  181.4480  178.5200  141.4280 C   0  0  0  0  0  3  0  0  0  0  0  0
  186.7070  177.8660  147.0020 C   0  0  0  0  0  2  0  0  0  0  0  0
  189.2930  176.8680  147.3690 C   0  0  1  0  0  3  0  0  0  0  0  0
  187.3320  178.6100  139.1420 C   0  0  0  0  0  3  0  0  0  0  0  0
  186.9180  178.3900  140.4690 C   0  0  0  0  0  0  0  0  0  0  0  0
  184.6400  179.1790  139.8390 C   0  0  0  0  0  2  0  0  0  0  0  0
  186.0370  178.3240  144.6440 C   0  0  0  0  0  2  0  0  0  0  0  0
  183.3070  178.6000  143.7720 O   0  0  0  0  0  0  0  0  0  0  0  0
  182.1360  179.0860  137.9650 C   0  0  0  0  0  1  0  0  0  0  0  0
  185.2440  178.8040  142.3170 C   0  0  2  0  0  3  0  0  0  0  0  0
  183.2330  178.8500  140.1950 C   0  0  0  0  0  0  0  0  0  0  0  0
  190.5440  176.3850  147.9330 N   0  0  0  0  0  2  0  0  0  0  0  0
  191.7900  176.5150  147.2480 C   0  0  0  0  0  0  0  0  0  0  0  0
  191.8530  177.1430  146.0090 O   0  0  0  0  0  0  0  0  0  0  0  0
  192.8400  176.0630  147.7710 O   0  0  0  0  0  1  0  0  0  0  0  0
  2 24  1  1  0  0  0
  3 11  1  0  0  0  0
  4 21  1  0  0  0  0
  4  3  2  0  0  0  0
  5 25  2  0  0  0  0
  6  5  1  0  0  0  0
  7 24  1  6  0  0  0
  7 19  1  0  0  0  0
  9 15  1  0  0  0  0
  9 28  1  0  0  0  0
 10 20  1  0  0  0  0
 11 13  2  0  0  0  0
 12  2  1  0  0  0  0
 12  8  1  0  0  0  0
 13 12  1  0  0  0  0
 14 27  1  0  0  0  0
 15 18  2  0  0  0  0
 16  1  1  0  0  0  0
 17  8  1  6  0  0  0
 17  7  1  0  0  0  0
 17 10  1  0  0  0  0
 18  6  1  0  0  0  0
 19 16  1  0  0  0  0
 20  1  1  0  0  0  0
 20 29  1  6  0  0  0
 21 22  2  0  0  0  0
 22 14  1  0  0  0  0
 22 13  1  0  0  0  0
 23 28  1  0  0  0  0
 23 14  1  0  0  0  0
 26  9  1  0  0  0  0
 27  5  1  6  0  0  0
 27  2  1  0  0  0  0
 28  6  2  0  0  0  0
 30 32  1  0  0  0  0
 30 29  1  0  0  0  0
 31 30  2  0  0  0  0
M  END
>  <MODEL>
2

>  <REMARK>
 VINA RESULT:      -9.2      3.885      7.108
  Name = 
  1 active torsions:
  status: ('A' for Active; 'I' for Inactive)
    1  A    between atoms: C_20  and  N_29
                            x       y       z     vdW  Elec       q    Type
                         _______ _______ _______ _____ _____    ______ ____

>  <TORSDO>
F 1

$$$$
=
 OpenBabel11122410363D

 32 37  0  0  1  0  0  0  0  0999 V2000
  189.3260  175.9530  138.3190 C   0  0  0  0  0  2  0  0  0  0  0  0
  185.0650  178.7940  140.0450 C   0  0  1  0  0  3  0  0  0  0  0  0
  185.6900  178.2730  144.9550 C   0  0  0  0  0  3  0  0  0  0  0  0
  184.3230  178.4440  145.1600 C   0  0  0  0  0  3  0  0  0  0  0  0
  182.7290  179.1070  139.1730 C   0  0  0  0  0  0  0  0  0  0  0  0
  181.4800  179.7600  139.5410 C   0  0  0  0  0  0  0  0  0  0  0  0
  187.0660  178.2540  138.6170 C   0  0  1  0  0  3  0  0  0  0  0  0
  187.3560  178.7010  141.0610 C   0  0  0  0  0  2  0  0  0  0  0  0
  179.8180  180.3710  140.8220 N   0  0  0  0  0  0  0  0  0  0  0  0
  189.3740  178.0780  139.7420 C   0  0  0  0  0  2  0  0  0  0  0  0
  186.2070  178.2950  143.6590 C   0  0  0  0  0  3  0  0  0  0  0  0
  185.9100  178.5330  141.2220 N   0  0  0  0  0  0  0  0  0  0  0  0
  185.3630  178.4870  142.5500 C   0  0  0  0  0  0  0  0  0  0  0  0
  183.1030  178.8280  141.6290 N   0  0  0  0  0  0  0  0  0  0  0  0
  179.5310  180.7910  139.5990 N   0  0  0  0  0  0  0  0  0  0  0  0
  187.9730  176.0760  137.5960 C   0  0  0  0  0  2  0  0  0  0  0  0
  187.8620  177.8850  139.8800 C   0  0  2  0  0  3  0  0  0  0  0  0
  180.5420  180.4270  138.7720 C   0  0  0  0  0  3  0  0  0  0  0  0
  187.5180  177.5200  137.3470 C   0  0  0  0  0  2  0  0  0  0  0  0
  190.0150  177.2970  138.5880 C   0  0  1  0  0  3  0  0  0  0  0  0
  183.4750  178.6300  144.0660 C   0  0  0  0  0  3  0  0  0  0  0  0
  183.9830  178.6470  142.7530 C   0  0  0  0  0  0  0  0  0  0  0  0
  181.6640  179.0020  141.9120 C   0  0  0  0  0  2  0  0  0  0  0  0
  185.5870  177.9810  138.8560 C   0  0  0  0  0  2  0  0  0  0  0  0
  183.0600  179.0280  137.9590 O   0  0  0  0  0  0  0  0  0  0  0  0
  178.9430  180.5440  141.9690 C   0  0  0  0  0  1  0  0  0  0  0  0
  183.5740  178.4630  140.2660 C   0  0  2  0  0  3  0  0  0  0  0  0
  181.0060  179.7520  140.8080 C   0  0  0  0  0  0  0  0  0  0  0  0
  191.4270  177.0900  138.8740 N   0  0  0  0  0  2  0  0  0  0  0  0
  192.3430  176.6170  137.8860 C   0  0  0  0  0  0  0  0  0  0  0  0
  191.9150  176.3610  136.5890 O   0  0  0  0  0  0  0  0  0  0  0  0
  193.5490  176.4360  138.1910 O   0  0  0  0  0  1  0  0  0  0  0  0
  1 20  1  0  0  0  0
  2 24  1  6  0  0  0
  2 27  1  0  0  0  0
  2 12  1  0  0  0  0
  3  4  1  0  0  0  0
  5  6  1  0  0  0  0
  6 28  2  0  0  0  0
  7 19  1  6  0  0  0
  7 24  1  0  0  0  0
  7 17  1  0  0  0  0
  8 12  1  0  0  0  0
  9 26  1  0  0  0  0
 11  3  2  0  0  0  0
 12 13  1  0  0  0  0
 13 22  2  0  0  0  0
 13 11  1  0  0  0  0
 14 23  1  0  0  0  0
 14 22  1  0  0  0  0
 15  9  1  0  0  0  0
 16  1  1  0  0  0  0
 17 10  1  6  0  0  0
 17  8  1  0  0  0  0
 18  6  1  0  0  0  0
 18 15  2  0  0  0  0
 19 16  1  0  0  0  0
 20 29  1  1  0  0  0
 20 10  1  0  0  0  0
 21  4  2  0  0  0  0
 22 21  1  0  0  0  0
 25  5  2  0  0  0  0
 27  5  1  6  0  0  0
 27 14  1  0  0  0  0
 28  9  1  0  0  0  0
 28 23  1  0  0  0  0
 30 32  1  0  0  0  0
 30 29  1  0  0  0  0
 31 30  2  0  0  0  0
M  END
>  <MODEL>
3

>  <REMARK>
 VINA RESULT:      -8.3      3.288      4.978
  Name = 
  1 active torsions:
  status: ('A' for Active; 'I' for Inactive)
    1  A    between atoms: C_20  and  N_29
                            x       y       z     vdW  Elec       q    Type
                         _______ _______ _______ _____ _____    ______ ____

>  <TORSDO>
F 1

$$$$
=
 OpenBabel11122410363D

 32 37  0  0  1  0  0  0  0  0999 V2000
  192.7820  174.6310  136.9660 C   0  0  0  0  0  2  0  0  0  0  0  0
  189.4440  177.5840  140.0250 C   0  0  1  0  0  3  0  0  0  0  0  0
  191.6810  177.0110  144.4330 C   0  0  0  0  0  3  0  0  0  0  0  0
  190.4690  177.2200  145.0890 C   0  0  0  0  0  3  0  0  0  0  0  0
  186.9610  177.9700  139.9940 C   0  0  0  0  0  0  0  0  0  0  0  0
  185.9310  178.6560  140.7620 C   0  0  0  0  0  0  0  0  0  0  0  0
  190.8260  176.9950  138.0040 C   0  0  1  0  0  3  0  0  0  0  0  0
  191.9400  177.4170  140.2040 C   0  0  0  0  0  2  0  0  0  0  0  0
  184.8200  179.3070  142.5280 N   0  0  0  0  0  0  0  0  0  0  0  0
  193.3720  176.7440  138.2810 C   0  0  0  0  0  2  0  0  0  0  0  0
  191.7280  177.0270  143.0390 C   0  0  0  0  0  3  0  0  0  0  0  0
  190.6300  177.2900  140.8460 N   0  0  0  0  0  0  0  0  0  0  0  0
  190.5640  177.2510  142.2810 C   0  0  0  0  0  0  0  0  0  0  0  0
  188.1370  177.6640  142.1790 N   0  0  0  0  0  0  0  0  0  0  0  0
  184.1490  179.7440  141.4730 N   0  0  0  0  0  0  0  0  0  0  0  0
  191.2680  174.7990  136.7440 C   0  0  0  0  0  2  0  0  0  0  0  0
  191.9910  176.5950  138.9240 C   0  0  2  0  0  3  0  0  0  0  0  0
  184.8080  179.3550  140.3540 C   0  0  0  0  0  3  0  0  0  0  0  0
  190.7990  176.2570  136.6590 C   0  0  0  0  0  2  0  0  0  0  0  0
  193.5610  175.9530  136.9800 C   0  0  1  0  0  3  0  0  0  0  0  0
  189.3070  177.4390  144.3470 C   0  0  0  0  0  3  0  0  0  0  0  0
  189.3400  177.4490  142.9400 C   0  0  0  0  0  0  0  0  0  0  0  0
  186.8850  177.8780  142.9330 C   0  0  0  0  0  2  0  0  0  0  0  0
  189.5080  176.7630  138.7320 C   0  0  0  0  0  2  0  0  0  0  0  0
  186.8590  177.8900  138.7400 O   0  0  0  0  0  0  0  0  0  0  0  0
  184.3910  179.4970  143.9030 C   0  0  0  0  0  1  0  0  0  0  0  0
  188.1070  177.2940  140.7390 C   0  0  2  0  0  3  0  0  0  0  0  0
  185.9140  178.6540  142.1150 C   0  0  0  0  0  0  0  0  0  0  0  0
  194.9790  175.7030  136.7720 N   0  0  0  0  0  2  0  0  0  0  0  0
  195.7970  176.5670  135.9840 C   0  0  0  0  0  0  0  0  0  0  0  0
  195.2630  177.7100  135.4000 O   0  0  0  0  0  0  0  0  0  0  0  0
  197.0140  176.2950  135.8190 O   0  0  0  0  0  1  0  0  0  0  0  0
  1 20  1  0  0  0  0
  2 24  1  6  0  0  0
  2 27  1  0  0  0  0
  2 12  1  0  0  0  0
  3  4  1  0  0  0  0
  5  6  1  0  0  0  0
  6 28  2  0  0  0  0
  7 19  1  6  0  0  0
  7 24  1  0  0  0  0
  7 17  1  0  0  0  0
  8 12  1  0  0  0  0
  9 26  1  0  0  0  0
 11  3  2  0  0  0  0
 12 13  1  0  0  0  0
 13 22  2  0  0  0  0
 13 11  1  0  0  0  0
 14 23  1  0  0  0  0
 14 22  1  0  0  0  0
 15  9  1  0  0  0  0
 16  1  1  0  0  0  0
 17 10  1  6  0  0  0
 17  8  1  0  0  0  0
 18  6  1  0  0  0  0
 18 15  2  0  0  0  0
 19 16  1  0  0  0  0
 20 29  1  1  0  0  0
 20 10  1  0  0  0  0
 21  4  2  0  0  0  0
 22 21  1  0  0  0  0
 25  5  2  0  0  0  0
 27  5  1  6  0  0  0
 27 14  1  0  0  0  0
 28  9  1  0  0  0  0
 28 23  1  0  0  0  0
 30 29  1  0  0  0  0
 31 30  2  0  0  0  0
 32 30  1  0  0  0  0
M  END
>  <MODEL>
4

>  <REMARK>
 VINA RESULT:      -8.3      1.588      2.106
  Name = 
  1 active torsions:
  status: ('A' for Active; 'I' for Inactive)
    1  A    between atoms: C_20  and  N_29
                            x       y       z     vdW  Elec       q    Type
                         _______ _______ _______ _____ _____    ______ ____

>  <TORSDO>
F 1

$$$$
=
 OpenBabel11122410363D

 32 37  0  0  1  0  0  0  0  0999 V2000
  190.5030  178.2560  147.8980 C   0  0  0  0  0  2  0  0  0  0  0  0
  186.2910  177.8100  144.5390 C   0  0  1  0  0  3  0  0  0  0  0  0
  188.7240  177.8410  140.1970 C   0  0  0  0  0  3  0  0  0  0  0  0
  187.5980  178.3530  139.5560 C   0  0  0  0  0  3  0  0  0  0  0  0
  183.9410  178.6970  144.5890 C   0  0  0  0  0  0  0  0  0  0  0  0
  182.7430  178.7260  143.7600 C   0  0  0  0  0  0  0  0  0  0  0  0
  187.6880  177.3420  146.5800 C   0  0  1  0  0  3  0  0  0  0  0  0
  188.5530  176.7510  144.3080 C   0  0  0  0  0  2  0  0  0  0  0  0
  181.5390  178.9710  141.9520 N   0  0  0  0  0  0  0  0  0  0  0  0
  190.0400  176.3430  146.2640 C   0  0  0  0  0  2  0  0  0  0  0  0
  188.6930  177.6020  141.5710 C   0  0  0  0  0  3  0  0  0  0  0  0
  187.5060  177.5980  143.7340 N   0  0  0  0  0  0  0  0  0  0  0  0
  187.5340  177.8720  142.3230 C   0  0  0  0  0  0  0  0  0  0  0  0
  185.2150  178.6980  142.4380 N   0  0  0  0  0  0  0  0  0  0  0  0
  180.6920  178.7740  142.9510 N   0  0  0  0  0  0  0  0  0  0  0  0
  189.0930  178.8260  148.1400 C   0  0  0  0  0  2  0  0  0  0  0  0
  188.9420  177.2450  145.6940 C   0  0  2  0  0  3  0  0  0  0  0  0
  181.4040  178.6200  144.0940 C   0  0  0  0  0  3  0  0  0  0  0  0
  187.9650  177.7930  148.0210 C   0  0  0  0  0  2  0  0  0  0  0  0
  190.5320  176.7410  147.6620 C   0  0  1  0  0  3  0  0  0  0  0  0
  186.4450  178.6300  140.2930 C   0  0  0  0  0  3  0  0  0  0  0  0
  186.4030  178.4000  141.6810 C   0  0  0  0  0  0  0  0  0  0  0  0
  184.0570  179.2400  141.7010 C   0  0  0  0  0  2  0  0  0  0  0  0
  186.6900  178.2950  145.9370 C   0  0  0  0  0  2  0  0  0  0  0  0
  183.8320  178.6330  145.8430 O   0  0  0  0  0  0  0  0  0  0  0  0
  181.1370  179.2190  140.5790 C   0  0  0  0  0  1  0  0  0  0  0  0
  185.3040  178.8210  143.9180 C   0  0  2  0  0  3  0  0  0  0  0  0
  182.7930  178.9330  142.4240 C   0  0  0  0  0  0  0  0  0  0  0  0
  191.8780  176.2270  147.8610 N   0  0  0  0  0  2  0  0  0  0  0  0
  192.7830  176.8040  148.8020 C   0  0  0  0  0  0  0  0  0  0  0  0
  192.3910  177.8780  149.5930 O   0  0  0  0  0  1  0  0  0  0  0  0
  193.9430  176.3340  148.9210 O   0  0  0  0  0  0  0  0  0  0  0  0
  1 16  1  0  0  0  0
  2 24  1  1  0  0  0
  3 11  1  0  0  0  0
  4  3  2  0  0  0  0
  4 21  1  0  0  0  0
  5 25  2  0  0  0  0
  6 18  1  0  0  0  0
  6  5  1  0  0  0  0
  7 24  1  6  0  0  0
  7 19  1  0  0  0  0
  9 28  1  0  0  0  0
  9 15  1  0  0  0  0
 10 20  1  0  0  0  0
 11 13  2  0  0  0  0
 12  8  1  0  0  0  0
 12  2  1  0  0  0  0
 13 12  1  0  0  0  0
 14 27  1  0  0  0  0
 15 18  2  0  0  0  0
 17  8  1  6  0  0  0
 17 10  1  0  0  0  0
 17  7  1  0  0  0  0
 19 16  1  0  0  0  0
 20 29  1  6  0  0  0
 20  1  1  0  0  0  0
 21 22  2  0  0  0  0
 22 13  1  0  0  0  0
 22 14  1  0  0  0  0
 23 28  1  0  0  0  0
 23 14  1  0  0  0  0
 26  9  1  0  0  0  0
 27  2  1  0  0  0  0
 27  5  1  1  0  0  0
 28  6  2  0  0  0  0
 29 30  1  0  0  0  0
 30 32  2  0  0  0  0
 30 31  1  0  0  0  0
M  END
>  <MODEL>
5

>  <REMARK>
 VINA RESULT:      -8.0      4.523      7.258
  Name = 
  1 active torsions:
  status: ('A' for Active; 'I' for Inactive)
    1  A    between atoms: C_20  and  N_29
                            x       y       z     vdW  Elec       q    Type
                         _______ _______ _______ _____ _____    ______ ____

>  <TORSDO>
F 1

$$$$
=
 OpenBabel11122410363D

 32 37  0  0  1  0  0  0  0  0999 V2000
  190.2410  178.2160  146.0240 C   0  0  0  0  0  2  0  0  0  0  0  0
  186.5180  177.7040  142.1390 C   0  0  1  0  0  3  0  0  0  0  0  0
  189.4420  178.2510  138.1500 C   0  0  0  0  0  3  0  0  0  0  0  0
  188.3620  178.7220  137.4070 C   0  0  0  0  0  3  0  0  0  0  0  0
  184.1110  178.4010  141.9510 C   0  0  0  0  0  0  0  0  0  0  0  0
  183.0230  178.4010  140.9820 C   0  0  0  0  0  0  0  0  0  0  0  0
  187.6940  177.1900  144.3050 C   0  0  1  0  0  3  0  0  0  0  0  0
  188.8730  176.8420  142.1260 C   0  0  0  0  0  2  0  0  0  0  0  0
  182.0290  178.6890  139.0570 N   0  0  0  0  0  0  0  0  0  0  0  0
  190.1430  176.4020  144.2220 C   0  0  0  0  0  2  0  0  0  0  0  0
  189.2670  177.9060  139.4900 C   0  0  0  0  0  3  0  0  0  0  0  0
  187.8330  177.6470  141.4820 N   0  0  0  0  0  0  0  0  0  0  0  0
  188.0080  178.0290  140.1060 C   0  0  0  0  0  0  0  0  0  0  0  0
  185.6290  178.6630  139.9830 N   0  0  0  0  0  0  0  0  0  0  0  0
  181.0870  178.3520  139.9260 N   0  0  0  0  0  0  0  0  0  0  0  0
  188.7690  178.6550  146.1230 C   0  0  0  0  0  2  0  0  0  0  0  0
  189.0480  177.2580  143.5790 C   0  0  2  0  0  3  0  0  0  0  0  0
  181.6680  178.1670  141.1370 C   0  0  0  0  0  3  0  0  0  0  0  0
  187.7560  177.5500  145.7950 C   0  0  0  0  0  2  0  0  0  0  0  0
  190.4280  176.7290  145.6940 C   0  0  1  0  0  3  0  0  0  0  0  0
  187.1090  178.8520  138.0100 C   0  0  0  0  0  3  0  0  0  0  0  0
  186.9200  178.5160  139.3630 C   0  0  0  0  0  0  0  0  0  0  0  0
  184.5260  179.1690  139.1430 C   0  0  0  0  0  2  0  0  0  0  0  0
  186.7020  178.1100  143.6050 C   0  0  0  0  0  2  0  0  0  0  0  0
  183.8580  178.2340  143.1750 O   0  0  0  0  0  0  0  0  0  0  0  0
  181.7740  179.0090  137.6630 C   0  0  0  0  0  1  0  0  0  0  0  0
  185.5290  178.6800  141.4670 C   0  0  2  0  0  3  0  0  0  0  0  0
  183.2150  178.7120  139.6790 C   0  0  0  0  0  0  0  0  0  0  0  0
  191.7800  176.3070  146.0260 N   0  0  0  0  0  2  0  0  0  0  0  0
  192.0780  175.5680  147.2110 C   0  0  0  0  0  0  0  0  0  0  0  0
  191.0650  175.1990  148.0880 O   0  0  0  0  0  1  0  0  0  0  0  0
  193.2670  175.2450  147.4610 O   0  0  0  0  0  0  0  0  0  0  0  0
  1 16  1  0  0  0  0
  2 24  1  1  0  0  0
  3 11  1  0  0  0  0
  4 21  1  0  0  0  0
  4  3  2  0  0  0  0
  5 25  2  0  0  0  0
  6 18  1  0  0  0  0
  6  5  1  0  0  0  0
  7 24  1  6  0  0  0
  7 19  1  0  0  0  0
  9 28  1  0  0  0  0
  9 15  1  0  0  0  0
 10 20  1  0  0  0  0
 11 13  2  0  0  0  0
 12  8  1  0  0  0  0
 12  2  1  0  0  0  0
 13 12  1  0  0  0  0
 14 27  1  0  0  0  0
 15 18  2  0  0  0  0
 17  8  1  6  0  0  0
 17 10  1  0  0  0  0
 17  7  1  0  0  0  0
 19 16  1  0  0  0  0
 20  1  1  0  0  0  0
 20 29  1  6  0  0  0
 21 22  2  0  0  0  0
 22 14  1  0  0  0  0
 22 13  1  0  0  0  0
 23 28  1  0  0  0  0
 23 14  1  0  0  0  0
 26  9  1  0  0  0  0
 27  5  1  6  0  0  0
 27  2  1  0  0  0  0
 28  6  2  0  0  0  0
 29 30  1  0  0  0  0
 30 32  2  0  0  0  0
 30 31  1  0  0  0  0
M  END
>  <MODEL>
6

>  <REMARK>
 VINA RESULT:      -7.8      4.106      6.945
  Name = 
  1 active torsions:
  status: ('A' for Active; 'I' for Inactive)
    1  A    between atoms: C_20  and  N_29
                            x       y       z     vdW  Elec       q    Type
                         _______ _______ _______ _____ _____    ______ ____

>  <TORSDO>
F 1

$$$$
=
 OpenBabel11122410363D

 32 37  0  0  1  0  0  0  0  0999 V2000
  188.9530  178.9270  147.9860 C   0  0  0  0  0  2  0  0  0  0  0  0
  185.2110  178.0960  144.1740 C   0  0  1  0  0  3  0  0  0  0  0  0
  188.1280  178.2370  140.1450 C   0  0  0  0  0  3  0  0  0  0  0  0
  187.0510  178.6480  139.3640 C   0  0  0  0  0  3  0  0  0  0  0  0
  182.8110  178.7990  143.9280 C   0  0  0  0  0  0  0  0  0  0  0  0
  181.7210  178.7210  142.9650 C   0  0  0  0  0  0  0  0  0  0  0  0
  186.3890  177.7740  146.3760 C   0  0  1  0  0  3  0  0  0  0  0  0
  187.5570  177.2110  144.2360 C   0  0  0  0  0  2  0  0  0  0  0  0
  180.7230  178.8400  141.0240 N   0  0  0  0  0  0  0  0  0  0  0  0
  188.8290  176.9550  146.3620 C   0  0  0  0  0  2  0  0  0  0  0  0
  187.9540  178.0200  141.5120 C   0  0  0  0  0  3  0  0  0  0  0  0
  186.5240  177.9640  143.5220 N   0  0  0  0  0  0  0  0  0  0  0  0
  186.6980  178.2140  142.1170 C   0  0  0  0  0  0  0  0  0  0  0  0
  184.3270  178.8600  141.9400 N   0  0  0  0  0  0  0  0  0  0  0  0
  179.7810  178.5950  141.9220 N   0  0  0  0  0  0  0  0  0  0  0  0
  187.4850  179.3900  148.0470 C   0  0  0  0  0  2  0  0  0  0  0  0
  187.7420  177.7580  145.6440 C   0  0  2  0  0  3  0  0  0  0  0  0
  180.3630  178.5180  143.1440 C   0  0  0  0  0  3  0  0  0  0  0  0
  186.4600  178.2710  147.8260 C   0  0  0  0  0  2  0  0  0  0  0  0
  189.1220  177.4140  147.7960 C   0  0  1  0  0  3  0  0  0  0  0  0
  185.8020  178.8490  139.9550 C   0  0  0  0  0  3  0  0  0  0  0  0
  185.6140  178.6420  141.3340 C   0  0  0  0  0  0  0  0  0  0  0  0
  183.2260  179.2980  141.0590 C   0  0  0  0  0  2  0  0  0  0  0  0
  185.4050  178.6350  145.5960 C   0  0  0  0  0  2  0  0  0  0  0  0
  182.5610  178.7500  145.1620 O   0  0  0  0  0  0  0  0  0  0  0  0
  180.4680  179.0310  139.6070 C   0  0  0  0  0  1  0  0  0  0  0  0
  184.2310  179.0160  143.4160 C   0  0  2  0  0  3  0  0  0  0  0  0
  181.9120  178.9070  141.6390 C   0  0  0  0  0  0  0  0  0  0  0  0
  190.4710  177.0100  148.1630 N   0  0  0  0  0  2  0  0  0  0  0  0
  191.4740  176.7280  147.1870 C   0  0  0  0  0  0  0  0  0  0  0  0
  191.1990  176.8600  145.8310 O   0  0  0  0  0  0  0  0  0  0  0  0
  192.6190  176.3630  147.5580 O   0  0  0  0  0  1  0  0  0  0  0  0
  1 16  1  0  0  0  0
  2 24  1  1  0  0  0
  3 11  1  0  0  0  0
  4 21  1  0  0  0  0
  4  3  2  0  0  0  0
  5 25  2  0  0  0  0
  6 18  1  0  0  0  0
  6  5  1  0  0  0  0
  7 24  1  6  0  0  0
  7 19  1  0  0  0  0
  9 28  1  0  0  0  0
  9 15  1  0  0  0  0
 10 20  1  0  0  0  0
 11 13  2  0  0  0  0
 12  2  1  0  0  0  0
 12  8  1  0  0  0  0
 13 12  1  0  0  0  0
 14 27  1  0  0  0  0
 15 18  2  0  0  0  0
 17  8  1  6  0  0  0
 17 10  1  0  0  0  0
 17  7  1  0  0  0  0
 19 16  1  0  0  0  0
 20  1  1  0  0  0  0
 20 29  1  6  0  0  0
 21 22  2  0  0  0  0
 22 14  1  0  0  0  0
 22 13  1  0  0  0  0
 23 28  1  0  0  0  0
 23 14  1  0  0  0  0
 26  9  1  0  0  0  0
 27  5  1  1  0  0  0
 27  2  1  0  0  0  0
 28  6  2  0  0  0  0
 30 32  1  0  0  0  0
 30 29  1  0  0  0  0
 31 30  2  0  0  0  0
M  END
>  <MODEL>
7

>  <REMARK>
 VINA RESULT:      -7.5      4.328      7.432
  Name = 
  1 active torsions:
  status: ('A' for Active; 'I' for Inactive)
    1  A    between atoms: C_20  and  N_29
                            x       y       z     vdW  Elec       q    Type
                         _______ _______ _______ _____ _____    ______ ____

>  <TORSDO>
F 1

$$$$
