=
 OpenBabel11122412143D

 34 42  0  0  1  0  0  0  0  0999 V2000
  187.6870  178.1340  140.9980 C   0  0  0  0  0  0  0  0  0  0  0  0
  185.8700  178.4760  139.2620 C   0  0  0  0  0  2  0  0  0  0  0  0
  189.3690  176.2980  147.0590 C   0  0  2  0  0  3  0  0  0  0  0  0
  189.1530  177.3890  142.8000 C   0  0  0  0  0  0  0  0  0  0  0  0
  188.2320  177.2890  145.1640 C   0  0  1  0  0  3  0  0  0  0  0  0
  187.9500  178.3620  147.5280 C   0  0  0  0  0  2  0  0  0  0  0  0
  188.1540  176.8870  147.7460 C   0  0  1  0  0  3  0  0  0  0  0  0
  191.6580  177.1710  145.7930 S   0  0  0  0  0  0  0  0  0  0  0  0
  185.4470  179.1720  141.5480 C   0  0  2  0  0  3  0  0  0  0  0  0
  182.4900  178.3160  142.6450 C   0  0  0  0  0  2  0  0  0  0  0  0
  187.3030  178.4210  144.7060 C   0  0  0  0  0  2  0  0  0  0  0  0
  190.5540  176.3170  144.5730 C   0  0  0  0  0  2  0  0  0  0  0  0
  185.5040  178.3600  142.8650 C   0  0  1  0  0  3  0  0  0  0  0  0
  184.4420  178.9860  139.3300 C   0  0  0  0  0  2  0  0  0  0  0  0
  189.3610  177.1140  144.2050 N   0  0  0  0  0  0  0  0  0  0  0  0
  190.7950  176.6890  147.3660 C   0  0  0  0  0  2  0  0  0  0  0  0
  183.1670  178.0070  141.2990 C   0  0  2  0  0  3  0  0  0  0  0  0
  187.9250  177.9160  142.3630 C   0  0  0  0  0  0  0  0  0  0  0  0
  188.8040  177.5930  146.5430 C   0  0  2  0  0  0  0  0  0  0  0  0
  186.9000  178.2200  143.3180 N   0  0  0  0  0  0  0  0  0  0  0  0
  189.9140  177.3280  140.4870 C   0  0  0  0  0  3  0  0  0  0  0  0
  183.2100  179.3660  143.4940 C   0  0  0  0  0  2  0  0  0  0  0  0
  190.1470  177.1050  141.8470 C   0  0  0  0  0  3  0  0  0  0  0  0
  184.5890  178.9140  143.9720 C   0  0  0  0  0  2  0  0  0  0  0  0
  184.0940  179.1440  140.8110 C   0  0  1  0  0  3  0  0  0  0  0  0
  188.6840  177.8350  140.0620 C   0  0  0  0  0  3  0  0  0  0  0  0
  186.4140  178.6520  140.5920 N   0  0  0  0  0  0  0  0  0  0  0  0
  182.1780  177.7210  140.3540 O   0  0  0  0  0  0  0  0  0  0  0  0
  180.9890  178.1750  140.9300 C   0  0  0  0  0  2  0  0  0  0  0  0
  180.9840  180.9940  139.0640 N   0  0  0  0  0  0  0  0  0  0  0  0
  180.7670  178.7650  138.5130 C   0  0  0  0  0  2  0  0  0  0  0  0
  180.1910  178.9720  139.9150 C   0  0  2  0  0  3  0  0  0  0  0  0
  181.2180  180.1370  138.1340 C   0  0  0  0  0  3  0  0  0  0  0  0
  180.3740  180.3890  140.1600 N   0  0  0  0  0  2  0  0  0  0  0  0
  1 18  1  0  0  0  0
  2 14  1  0  0  0  0
  2 27  1  0  0  0  0
  3 16  1  1  0  0  0
  3  7  1  0  0  0  0
  4 15  1  0  0  0  0
  5 11  1  6  0  0  0
  5 19  1  0  0  0  0
  7  6  1  1  0  0  0
  8 16  1  0  0  0  0
  9 27  1  6  0  0  0
  9 13  1  0  0  0  0
 10 22  1  0  0  0  0
 12  8  1  0  0  0  0
 13 20  1  0  0  0  0
 13 24  1  1  0  0  0
 15 12  1  0  0  0  0
 15  5  1  0  0  0  0
 17 28  1  6  0  0  0
 17 10  1  0  0  0  0
 18  4  2  0  0  0  0
 18 20  1  0  0  0  0
 19  3  1  0  0  0  0
 19  6  1  1  0  0  0
 19  7  1  0  0  0  0
 20 11  1  0  0  0  0
 21 23  2  0  0  0  0
 22 24  1  0  0  0  0
 23  4  1  0  0  0  0
 25 14  1  6  0  0  0
 25 17  1  0  0  0  0
 25  9  1  0  0  0  0
 26 21  1  0  0  0  0
 26  1  2  0  0  0  0
 27  1  1  0  0  0  0
 28 29  1  0  0  0  0
 30 34  1  0  0  0  0
 31 32  1  0  0  0  0
 32 34  1  0  0  0  0
 32 29  1  1  0  0  0
 33 31  1  0  0  0  0
 33 30  2  0  0  0  0
M  END
>  <MODEL>
1

>  <REMARK>
 VINA RESULT:      -8.7      0.000      0.000
  Name = 
  3 active torsions:
  status: ('A' for Active; 'I' for Inactive)
    1  A    between atoms: C_17  and  O_28
    2  A    between atoms: O_28  and  C_29
    3  A    between atoms: C_29  and  C_32
                            x       y       z     vdW  Elec       q    Type
                         _______ _______ _______ _____ _____    ______ ____

>  <TORSDO>
F 3

$$$$
=
 OpenBabel11122412143D

 34 42  0  0  1  0  0  0  0  0999 V2000
  187.7840  178.1140  140.9100 C   0  0  0  0  0  0  0  0  0  0  0  0
  186.0180  178.4080  139.1130 C   0  0  0  0  0  2  0  0  0  0  0  0
  189.3090  176.3390  147.0300 C   0  0  2  0  0  3  0  0  0  0  0  0
  189.2080  177.4100  142.7620 C   0  0  0  0  0  0  0  0  0  0  0  0
  188.2120  177.2970  145.0940 C   0  0  1  0  0  3  0  0  0  0  0  0
  187.8280  178.3720  147.4440 C   0  0  0  0  0  2  0  0  0  0  0  0
  188.0590  176.9020  147.6750 C   0  0  1  0  0  3  0  0  0  0  0  0
  191.6180  177.2600  145.8360 S   0  0  0  0  0  0  0  0  0  0  0  0
  185.5050  179.1020  141.3810 C   0  0  2  0  0  3  0  0  0  0  0  0
  182.5330  178.1830  142.3850 C   0  0  0  0  0  2  0  0  0  0  0  0
  187.2730  178.4060  144.6010 C   0  0  0  0  0  2  0  0  0  0  0  0
  190.5730  176.3770  144.5840 C   0  0  0  0  0  2  0  0  0  0  0  0
  185.5370  178.2960  142.7030 C   0  0  1  0  0  3  0  0  0  0  0  0
  184.5780  178.8850  139.1330 C   0  0  0  0  0  2  0  0  0  0  0  0
  189.3760  177.1440  144.1740 N   0  0  0  0  0  0  0  0  0  0  0  0
  190.7150  176.7650  147.3810 C   0  0  0  0  0  2  0  0  0  0  0  0
  183.2610  177.8850  141.0630 C   0  0  2  0  0  3  0  0  0  0  0  0
  187.9830  177.9060  142.2830 C   0  0  0  0  0  0  0  0  0  0  0  0
  188.7320  177.6190  146.4900 C   0  0  2  0  0  0  0  0  0  0  0  0
  186.9210  178.1900  143.2020 N   0  0  0  0  0  0  0  0  0  0  0  0
  190.0440  177.3580  140.4750 C   0  0  0  0  0  3  0  0  0  0  0  0
  183.2010  179.2520  143.2520 C   0  0  0  0  0  2  0  0  0  0  0  0
  190.2380  177.1450  141.8420 C   0  0  0  0  0  3  0  0  0  0  0  0
  184.5740  178.8340  143.7770 C   0  0  0  0  0  2  0  0  0  0  0  0
  184.1770  179.0400  140.6000 C   0  0  1  0  0  3  0  0  0  0  0  0
  188.8180  177.8350  140.0080 C   0  0  0  0  0  3  0  0  0  0  0  0
  186.5140  178.6010  140.4600 N   0  0  0  0  0  0  0  0  0  0  0  0
  182.3100  177.5720  140.0870 O   0  0  0  0  0  0  0  0  0  0  0  0
  181.0760  177.7860  140.7080 C   0  0  0  0  0  2  0  0  0  0  0  0
  180.4000  174.9320  139.0270 N   0  0  0  0  0  0  0  0  0  0  0  0
  179.4240  175.9180  140.8690 C   0  0  0  0  0  2  0  0  0  0  0  0
  179.9880  177.0230  139.9740 C   0  0  2  0  0  3  0  0  0  0  0  0
  179.7730  174.6750  140.1210 C   0  0  0  0  0  3  0  0  0  0  0  0
  180.5710  176.3030  138.8590 N   0  0  0  0  0  2  0  0  0  0  0  0
  1 18  1  0  0  0  0
  2 14  1  0  0  0  0
  2 27  1  0  0  0  0
  3 16  1  1  0  0  0
  3  7  1  0  0  0  0
  4 15  1  0  0  0  0
  5 11  1  6  0  0  0
  5 19  1  0  0  0  0
  7  6  1  1  0  0  0
  8 16  1  0  0  0  0
  9 27  1  6  0  0  0
  9 13  1  0  0  0  0
 10 22  1  0  0  0  0
 12  8  1  0  0  0  0
 13 20  1  0  0  0  0
 13 24  1  1  0  0  0
 15 12  1  0  0  0  0
 15  5  1  0  0  0  0
 17 28  1  6  0  0  0
 17 10  1  0  0  0  0
 18  4  2  0  0  0  0
 18 20  1  0  0  0  0
 19  3  1  0  0  0  0
 19  6  1  1  0  0  0
 19  7  1  0  0  0  0
 20 11  1  0  0  0  0
 21 23  2  0  0  0  0
 22 24  1  0  0  0  0
 23  4  1  0  0  0  0
 25 14  1  6  0  0  0
 25 17  1  0  0  0  0
 25  9  1  0  0  0  0
 26 21  1  0  0  0  0
 26  1  2  0  0  0  0
 27  1  1  0  0  0  0
 28 29  1  0  0  0  0
 30 33  2  0  0  0  0
 32 29  1  1  0  0  0
 32 31  1  0  0  0  0
 33 31  1  0  0  0  0
 34 30  1  0  0  0  0
 34 32  1  0  0  0  0
M  END
>  <MODEL>
2

>  <REMARK>
 VINA RESULT:      -8.4      1.493      1.813
  Name = 
  3 active torsions:
  status: ('A' for Active; 'I' for Inactive)
    1  A    between atoms: C_17  and  O_28
    2  A    between atoms: O_28  and  C_29
    3  A    between atoms: C_29  and  C_32
                            x       y       z     vdW  Elec       q    Type
                         _______ _______ _______ _____ _____    ______ ____

>  <TORSDO>
F 3

$$$$
=
 OpenBabel11122412143D

 34 42  0  0  1  0  0  0  0  0999 V2000
  182.2450  178.8600  143.4650 C   0  0  0  0  0  0  0  0  0  0  0  0
  183.8050  178.9820  145.4610 C   0  0  0  0  0  2  0  0  0  0  0  0
  181.0780  176.6930  137.3920 C   0  0  2  0  0  3  0  0  0  0  0  0
  180.9250  178.2580  141.5040 C   0  0  0  0  0  0  0  0  0  0  0  0
  182.1340  177.6240  139.3640 C   0  0  1  0  0  3  0  0  0  0  0  0
  183.0390  178.2720  137.0000 C   0  0  0  0  0  2  0  0  0  0  0  0
  182.4930  176.8740  136.8840 C   0  0  1  0  0  3  0  0  0  0  0  0
  178.9310  178.2530  138.1420 S   0  0  0  0  0  0  0  0  0  0  0  0
  184.7340  179.2440  143.2350 C   0  0  2  0  0  3  0  0  0  0  0  0
  187.4980  177.5620  142.7690 C   0  0  0  0  0  2  0  0  0  0  0  0
  183.2450  178.5490  139.8760 C   0  0  0  0  0  2  0  0  0  0  0  0
  179.5780  177.3280  139.6130 C   0  0  0  0  0  2  0  0  0  0  0  0
  184.6670  178.3020  142.0080 C   0  0  1  0  0  3  0  0  0  0  0  0
  185.3090  179.1190  145.6050 C   0  0  0  0  0  2  0  0  0  0  0  0
  180.8670  177.8560  140.1160 N   0  0  0  0  0  0  0  0  0  0  0  0
  179.8650  177.3720  136.8000 C   0  0  0  0  0  2  0  0  0  0  0  0
  186.5690  177.6080  143.9940 C   0  0  2  0  0  3  0  0  0  0  0  0
  182.1670  178.5260  142.1040 C   0  0  0  0  0  0  0  0  0  0  0  0
  181.8750  177.8700  137.8820 C   0  0  2  0  0  0  0  0  0  0  0  0
  183.3670  178.4430  141.3260 N   0  0  0  0  0  0  0  0  0  0  0  0
  179.8350  178.6910  143.6390 C   0  0  0  0  0  3  0  0  0  0  0  0
  187.2120  178.6320  141.7130 C   0  0  0  0  0  2  0  0  0  0  0  0
  179.7590  178.3510  142.2850 C   0  0  0  0  0  3  0  0  0  0  0  0
  185.8510  178.4670  141.0380 C   0  0  0  0  0  2  0  0  0  0  0  0
  185.9060  178.9890  144.2030 C   0  0  1  0  0  3  0  0  0  0  0  0
  181.0750  178.9380  144.2300 C   0  0  0  0  0  3  0  0  0  0  0  0
  183.5330  179.1050  144.0440 N   0  0  0  0  0  0  0  0  0  0  0  0
  187.2940  177.2210  145.1240 O   0  0  0  0  0  0  0  0  0  0  0  0
  188.6110  177.0840  144.6740 C   0  0  0  0  0  2  0  0  0  0  0  0
  190.6420  176.4860  147.3090 N   0  0  0  0  0  0  0  0  0  0  0  0
  191.0130  177.4570  145.2510 C   0  0  0  0  0  2  0  0  0  0  0  0
  189.5650  177.7340  145.6590 C   0  0  2  0  0  3  0  0  0  0  0  0
  191.5370  176.6640  146.4020 C   0  0  0  0  0  3  0  0  0  0  0  0
  189.4390  177.0890  146.9510 N   0  0  0  0  0  2  0  0  0  0  0  0
  1 27  1  0  0  0  0
  1 26  1  0  0  0  0
  2 14  1  0  0  0  0
  3 16  1  6  0  0  0
  3 19  1  0  0  0  0
  4 18  1  0  0  0  0
  4 23  2  0  0  0  0
  5 11  1  1  0  0  0
  5 15  1  0  0  0  0
  7  6  1  6  0  0  0
  7  3  1  0  0  0  0
  7 19  1  0  0  0  0
  8 12  1  0  0  0  0
  9 27  1  1  0  0  0
  9 25  1  0  0  0  0
 10 17  1  0  0  0  0
 11 20  1  0  0  0  0
 12 15  1  0  0  0  0
 13 24  1  6  0  0  0
 13  9  1  0  0  0  0
 15  4  1  0  0  0  0
 16  8  1  0  0  0  0
 17 25  1  0  0  0  0
 17 28  1  1  0  0  0
 18  1  2  0  0  0  0
 19  6  1  6  0  0  0
 19  5  1  0  0  0  0
 20 13  1  0  0  0  0
 20 18  1  0  0  0  0
 21 26  2  0  0  0  0
 22 10  1  0  0  0  0
 23 21  1  0  0  0  0
 24 22  1  0  0  0  0
 25 14  1  1  0  0  0
 27  2  1  0  0  0  0
 29 28  1  0  0  0  0
 31 32  1  0  0  0  0
 31 33  1  0  0  0  0
 32 29  1  6  0  0  0
 32 34  1  0  0  0  0
 33 30  2  0  0  0  0
 34 30  1  0  0  0  0
M  END
>  <MODEL>
3

>  <REMARK>
 VINA RESULT:      -8.3      3.416      9.281
  Name = 
  3 active torsions:
  status: ('A' for Active; 'I' for Inactive)
    1  A    between atoms: C_17  and  O_28
    2  A    between atoms: O_28  and  C_29
    3  A    between atoms: C_29  and  C_32
                            x       y       z     vdW  Elec       q    Type
                         _______ _______ _______ _____ _____    ______ ____

>  <TORSDO>
F 3

$$$$
=
 OpenBabel11122412143D

 34 42  0  0  1  0  0  0  0  0999 V2000
  189.9050  177.4520  141.5170 C   0  0  0  0  0  0  0  0  0  0  0  0
  190.7760  176.9260  139.1930 C   0  0  0  0  0  2  0  0  0  0  0  0
  184.8200  177.8890  145.6270 C   0  0  2  0  0  3  0  0  0  0  0  0
  188.7450  177.5610  143.6600 C   0  0  0  0  0  0  0  0  0  0  0  0
  186.2520  178.0380  143.6780 C   0  0  1  0  0  3  0  0  0  0  0  0
  184.2730  179.7220  143.9430 C   0  0  0  0  0  2  0  0  0  0  0  0
  183.8430  178.4430  144.6120 C   0  0  1  0  0  3  0  0  0  0  0  0
  187.0680  178.7090  147.0000 S   0  0  0  0  0  0  0  0  0  0  0  0
  188.7280  178.2080  139.4110 C   0  0  2  0  0  3  0  0  0  0  0  0
  186.3610  177.2400  137.3760 C   0  0  0  0  0  2  0  0  0  0  0  0
  186.5230  178.7970  142.3730 C   0  0  0  0  0  2  0  0  0  0  0  0
  187.5130  177.3440  145.8260 C   0  0  0  0  0  2  0  0  0  0  0  0
  187.4070  177.8640  140.1420 C   0  0  1  0  0  3  0  0  0  0  0  0
  190.2430  177.1790  137.7960 C   0  0  0  0  0  2  0  0  0  0  0  0
  187.5250  177.7720  144.4080 N   0  0  0  0  0  0  0  0  0  0  0  0
  185.2170  178.5940  146.9030 C   0  0  0  0  0  2  0  0  0  0  0  0
  187.7640  176.6520  137.6040 C   0  0  2  0  0  3  0  0  0  0  0  0
  188.7450  177.7090  142.2630 C   0  0  0  0  0  0  0  0  0  0  0  0
  185.3280  178.8450  144.5830 C   0  0  2  0  0  0  0  0  0  0  0  0
  187.5460  178.1120  141.5890 N   0  0  0  0  0  0  0  0  0  0  0  0
  191.0930  176.9220  143.5600 C   0  0  0  0  0  3  0  0  0  0  0  0
  186.1300  178.6070  138.0230 C   0  0  0  0  0  2  0  0  0  0  0  0
  189.9350  177.1710  144.3010 C   0  0  0  0  0  3  0  0  0  0  0  0
  186.1720  178.5680  139.5490 C   0  0  0  0  0  2  0  0  0  0  0  0
  188.8220  177.7230  137.9510 C   0  0  1  0  0  3  0  0  0  0  0  0
  191.0770  177.0550  142.1700 C   0  0  0  0  0  3  0  0  0  0  0  0
  189.8570  177.5930  140.0910 N   0  0  0  0  0  0  0  0  0  0  0  0
  188.1360  175.9230  136.4700 O   0  0  0  0  0  0  0  0  0  0  0  0
  187.7970  174.6000  136.7680 C   0  0  0  0  0  2  0  0  0  0  0  0
  190.6260  174.4470  134.9230 N   0  0  0  0  0  0  0  0  0  0  0  0
  190.0400  173.5130  136.9480 C   0  0  0  0  0  2  0  0  0  0  0  0
  188.7750  173.6520  136.0990 C   0  0  2  0  0  3  0  0  0  0  0  0
  191.1020  174.0610  136.0540 C   0  0  0  0  0  3  0  0  0  0  0  0
  189.2500  174.2410  134.8620 N   0  0  0  0  0  2  0  0  0  0  0  0
  1 26  2  0  0  0  0
  1 18  1  0  0  0  0
  2 27  1  0  0  0  0
  3 16  1  1  0  0  0
  4 23  1  0  0  0  0
  4 15  1  0  0  0  0
  5 11  1  6  0  0  0
  5 15  1  0  0  0  0
  5 19  1  0  0  0  0
  7  6  1  1  0  0  0
  7  3  1  0  0  0  0
  9 27  1  1  0  0  0
  9 13  1  0  0  0  0
 10 17  1  0  0  0  0
 10 22  1  0  0  0  0
 12  8  1  0  0  0  0
 13 24  1  6  0  0  0
 13 20  1  0  0  0  0
 14  2  1  0  0  0  0
 15 12  1  0  0  0  0
 16  8  1  0  0  0  0
 17 28  1  6  0  0  0
 17 25  1  0  0  0  0
 18  4  2  0  0  0  0
 19  6  1  1  0  0  0
 19  7  1  0  0  0  0
 19  3  1  0  0  0  0
 20 18  1  0  0  0  0
 20 11  1  0  0  0  0
 21 23  2  0  0  0  0
 22 24  1  0  0  0  0
 25 14  1  1  0  0  0
 25  9  1  0  0  0  0
 26 21  1  0  0  0  0
 27  1  1  0  0  0  0
 28 29  1  0  0  0  0
 30 33  2  0  0  0  0
 32 29  1  1  0  0  0
 32 31  1  0  0  0  0
 33 31  1  0  0  0  0
 34 30  1  0  0  0  0
 34 32  1  0  0  0  0
M  END
>  <MODEL>
4

>  <REMARK>
 VINA RESULT:      -8.1      3.403      6.205
  Name = 
  3 active torsions:
  status: ('A' for Active; 'I' for Inactive)
    1  A    between atoms: C_17  and  O_28
    2  A    between atoms: O_28  and  C_29
    3  A    between atoms: C_29  and  C_32
                            x       y       z     vdW  Elec       q    Type
                         _______ _______ _______ _____ _____    ______ ____

>  <TORSDO>
F 3

$$$$
=
 OpenBabel11122412143D

 34 42  0  0  1  0  0  0  0  0999 V2000
  189.9730  177.3970  141.7370 C   0  0  0  0  0  0  0  0  0  0  0  0
  190.9140  176.8550  139.4450 C   0  0  0  0  0  2  0  0  0  0  0  0
  184.7590  177.9320  145.6700 C   0  0  2  0  0  3  0  0  0  0  0  0
  188.7420  177.5280  143.8400 C   0  0  0  0  0  0  0  0  0  0  0  0
  186.2600  178.0540  143.7720 C   0  0  1  0  0  3  0  0  0  0  0  0
  184.3060  179.7770  143.9710 C   0  0  0  0  0  2  0  0  0  0  0  0
  183.8290  178.5060  144.6220 C   0  0  1  0  0  3  0  0  0  0  0  0
  186.9740  178.7060  147.1200 S   0  0  0  0  0  0  0  0  0  0  0  0
  188.8850  178.1780  139.5930 C   0  0  2  0  0  3  0  0  0  0  0  0
  186.5710  177.2570  137.4760 C   0  0  0  0  0  2  0  0  0  0  0  0
  186.5910  178.8080  142.4770 C   0  0  0  0  0  2  0  0  0  0  0  0
  187.4320  177.3340  145.9610 C   0  0  0  0  0  2  0  0  0  0  0  0
  187.5330  177.8590  140.2770 C   0  0  1  0  0  3  0  0  0  0  0  0
  190.4340  177.1190  138.0300 C   0  0  0  0  0  2  0  0  0  0  0  0
  187.5010  177.7620  144.5450 N   0  0  0  0  0  0  0  0  0  0  0  0
  185.1250  178.6290  146.9600 C   0  0  0  0  0  2  0  0  0  0  0  0
  187.9530  176.6410  137.7510 C   0  0  2  0  0  3  0  0  0  0  0  0
  188.7930  177.6770  142.4430 C   0  0  0  0  0  0  0  0  0  0  0  0
  185.3220  178.8780  144.6450 C   0  0  2  0  0  0  0  0  0  0  0  0
  187.6270  178.1030  141.7280 N   0  0  0  0  0  0  0  0  0  0  0  0
  191.0800  176.8420  143.8200 C   0  0  0  0  0  3  0  0  0  0  0  0
  186.3450  178.6280  138.1160 C   0  0  0  0  0  2  0  0  0  0  0  0
  189.9010  177.1140  144.5200 C   0  0  0  0  0  3  0  0  0  0  0  0
  186.3330  178.5870  139.6440 C   0  0  0  0  0  2  0  0  0  0  0  0
  189.0200  177.6910  138.1360 C   0  0  1  0  0  3  0  0  0  0  0  0
  191.1140  176.9760  142.4300 C   0  0  0  0  0  3  0  0  0  0  0  0
  189.9780  177.5400  140.3110 N   0  0  0  0  0  0  0  0  0  0  0  0
  188.3500  175.9060  136.6310 O   0  0  0  0  0  0  0  0  0  0  0  0
  187.1690  175.6720  135.9200 C   0  0  0  0  0  2  0  0  0  0  0  0
  187.5780  172.5670  137.1930 N   0  0  0  0  0  0  0  0  0  0  0  0
  185.7630  173.6340  136.2500 C   0  0  0  0  0  2  0  0  0  0  0  0
  187.0350  174.1930  135.6100 C   0  0  2  0  0  3  0  0  0  0  0  0
  186.2930  172.6280  137.2180 C   0  0  0  0  0  3  0  0  0  0  0  0
  188.1030  173.4630  136.2650 N   0  0  0  0  0  2  0  0  0  0  0  0
  1 26  2  0  0  0  0
  1 18  1  0  0  0  0
  2 27  1  0  0  0  0
  3 16  1  1  0  0  0
  4 23  1  0  0  0  0
  4 15  1  0  0  0  0
  5 11  1  6  0  0  0
  5 15  1  0  0  0  0
  5 19  1  0  0  0  0
  7  6  1  1  0  0  0
  7 19  1  0  0  0  0
  7  3  1  0  0  0  0
  9 13  1  0  0  0  0
  9 27  1  1  0  0  0
 10 17  1  0  0  0  0
 10 22  1  0  0  0  0
 12  8  1  0  0  0  0
 13 24  1  6  0  0  0
 13 20  1  0  0  0  0
 14  2  1  0  0  0  0
 15 12  1  0  0  0  0
 16  8  1  0  0  0  0
 17 28  1  6  0  0  0
 17 25  1  0  0  0  0
 18  4  2  0  0  0  0
 19  6  1  1  0  0  0
 19  3  1  0  0  0  0
 20 18  1  0  0  0  0
 20 11  1  0  0  0  0
 21 23  2  0  0  0  0
 22 24  1  0  0  0  0
 25 14  1  1  0  0  0
 25  9  1  0  0  0  0
 26 21  1  0  0  0  0
 27  1  1  0  0  0  0
 29 28  1  0  0  0  0
 30 33  2  0  0  0  0
 31 33  1  0  0  0  0
 32 29  1  1  0  0  0
 32 31  1  0  0  0  0
 32 34  1  0  0  0  0
 34 30  1  0  0  0  0
M  END
>  <MODEL>
5

>  <REMARK>
 VINA RESULT:      -8.1      3.403      5.733
  Name = 
  3 active torsions:
  status: ('A' for Active; 'I' for Inactive)
    1  A    between atoms: C_17  and  O_28
    2  A    between atoms: O_28  and  C_29
    3  A    between atoms: C_29  and  C_32
                            x       y       z     vdW  Elec       q    Type
                         _______ _______ _______ _____ _____    ______ ____

>  <TORSDO>
F 3

$$$$
=
 OpenBabel11122412143D

 34 42  0  0  1  0  0  0  0  0999 V2000
  190.8000  177.5100  142.7810 C   0  0  0  0  0  0  0  0  0  0  0  0
  192.5650  176.7850  141.1100 C   0  0  0  0  0  2  0  0  0  0  0  0
  184.4700  177.9170  144.4230 C   0  0  2  0  0  3  0  0  0  0  0  0
  188.8660  177.7700  144.2450 C   0  0  0  0  0  0  0  0  0  0  0  0
  186.5600  177.9670  143.2000 C   0  0  1  0  0  3  0  0  0  0  0  0
  184.5650  179.4430  142.3840 C   0  0  0  0  0  2  0  0  0  0  0  0
  183.9630  178.2230  143.0290 C   0  0  1  0  0  3  0  0  0  0  0  0
  185.9230  179.1520  146.4160 S   0  0  0  0  0  0  0  0  0  0  0  0
  190.5450  177.8510  140.2890 C   0  0  2  0  0  3  0  0  0  0  0  0
  189.2590  176.3690  137.6740 C   0  0  0  0  0  2  0  0  0  0  0  0
  187.3020  178.5740  142.0020 C   0  0  0  0  0  2  0  0  0  0  0  0
  186.8720  177.7030  145.7530 C   0  0  0  0  0  2  0  0  0  0  0  0
  189.0600  177.4620  140.4860 C   0  0  1  0  0  3  0  0  0  0  0  0
  192.6340  176.7930  139.5940 C   0  0  0  0  0  2  0  0  0  0  0  0
  187.4380  177.9410  144.4060 N   0  0  0  0  0  0  0  0  0  0  0  0
  184.2790  178.8220  145.6170 C   0  0  0  0  0  2  0  0  0  0  0  0
  190.4750  175.9740  138.5300 C   0  0  2  0  0  3  0  0  0  0  0  0
  189.4260  177.7330  142.9560 C   0  0  0  0  0  0  0  0  0  0  0  0
  185.3110  178.7780  143.5220 C   0  0  2  0  0  0  0  0  0  0  0  0
  188.5870  177.9100  141.8080 N   0  0  0  0  0  0  0  0  0  0  0  0
  191.0800  177.3870  145.1840 C   0  0  0  0  0  3  0  0  0  0  0  0
  188.7200  177.7750  137.9450 C   0  0  0  0  0  2  0  0  0  0  0  0
  189.7100  177.6010  145.3570 C   0  0  0  0  0  3  0  0  0  0  0  0
  188.1390  177.9410  139.3480 C   0  0  0  0  0  2  0  0  0  0  0  0
  191.2480  177.1920  139.0850 C   0  0  1  0  0  3  0  0  0  0  0  0
  191.6240  177.3340  143.8990 C   0  0  0  0  0  3  0  0  0  0  0  0
  191.3290  177.4580  141.4500 N   0  0  0  0  0  0  0  0  0  0  0  0
  191.3100  175.1500  137.7710 O   0  0  0  0  0  0  0  0  0  0  0  0
  191.4780  175.8270  136.5600 C   0  0  0  0  0  2  0  0  0  0  0  0
  194.8460  175.7450  136.8480 N   0  0  0  0  0  0  0  0  0  0  0  0
  193.2720  174.0870  136.5420 C   0  0  0  0  0  2  0  0  0  0  0  0
  192.7560  175.3680  135.8820 C   0  0  2  0  0  3  0  0  0  0  0  0
  194.5920  174.5080  137.0960 C   0  0  0  0  0  3  0  0  0  0  0  0
  193.8080  176.3340  136.1290 N   0  0  0  0  0  2  0  0  0  0  0  0
  1 18  2  0  0  0  0
  1 26  1  0  0  0  0
  2 27  1  0  0  0  0
  3 16  1  1  0  0  0
  4 15  1  0  0  0  0
  4 23  2  0  0  0  0
  5 11  1  6  0  0  0
  5 19  1  0  0  0  0
  5 15  1  0  0  0  0
  7  6  1  1  0  0  0
  7 19  1  0  0  0  0
  7  3  1  0  0  0  0
  9 13  1  0  0  0  0
  9 27  1  1  0  0  0
 10 22  1  0  0  0  0
 10 17  1  0  0  0  0
 12  8  1  0  0  0  0
 13 24  1  6  0  0  0
 13 20  1  0  0  0  0
 14  2  1  0  0  0  0
 15 12  1  0  0  0  0
 16  8  1  0  0  0  0
 17 28  1  6  0  0  0
 17 25  1  0  0  0  0
 18  4  1  0  0  0  0
 19  6  1  1  0  0  0
 19  3  1  0  0  0  0
 20 11  1  0  0  0  0
 20 18  1  0  0  0  0
 21 23  1  0  0  0  0
 22 24  1  0  0  0  0
 25 14  1  1  0  0  0
 25  9  1  0  0  0  0
 26 21  2  0  0  0  0
 27  1  1  0  0  0  0
 29 28  1  0  0  0  0
 30 33  2  0  0  0  0
 31 33  1  0  0  0  0
 32 34  1  0  0  0  0
 32 31  1  0  0  0  0
 32 29  1  1  0  0  0
 34 30  1  0  0  0  0
M  END
>  <MODEL>
6

>  <REMARK>
 VINA RESULT:      -8.1      3.879      7.835
  Name = 
  3 active torsions:
  status: ('A' for Active; 'I' for Inactive)
    1  A    between atoms: C_17  and  O_28
    2  A    between atoms: O_28  and  C_29
    3  A    between atoms: C_29  and  C_32
                            x       y       z     vdW  Elec       q    Type
                         _______ _______ _______ _____ _____    ______ ____

>  <TORSDO>
F 3

$$$$
=
 OpenBabel11122412143D

 34 42  0  0  1  0  0  0  0  0999 V2000
  188.2290  177.8780  142.6670 C   0  0  0  0  0  0  0  0  0  0  0  0
  190.6160  177.1880  142.1550 C   0  0  0  0  0  2  0  0  0  0  0  0
  181.9620  178.1950  140.7800 C   0  0  2  0  0  3  0  0  0  0  0  0
  185.8120  178.1020  142.9120 C   0  0  0  0  0  0  0  0  0  0  0  0
  184.3830  178.2810  140.8220 C   0  0  1  0  0  3  0  0  0  0  0  0
  183.0810  179.7400  139.0900 C   0  0  0  0  0  2  0  0  0  0  0  0
  182.2500  178.5070  139.3270 C   0  0  1  0  0  3  0  0  0  0  0  0
  182.1500  179.4280  143.2400 S   0  0  0  0  0  0  0  0  0  0  0  0
  189.3020  178.2380  140.4060 C   0  0  2  0  0  3  0  0  0  0  0  0
  189.5840  176.7650  137.5010 C   0  0  0  0  0  2  0  0  0  0  0  0
  185.6300  178.9080  140.1850 C   0  0  0  0  0  2  0  0  0  0  0  0
  183.3270  177.9970  143.1650 C   0  0  0  0  0  2  0  0  0  0  0  0
  187.9360  177.8300  139.8020 C   0  0  1  0  0  3  0  0  0  0  0  0
  191.4630  177.2110  140.8960 C   0  0  0  0  0  2  0  0  0  0  0  0
  184.5070  178.2540  142.3080 N   0  0  0  0  0  0  0  0  0  0  0  0
  181.1650  179.0870  141.7030 C   0  0  0  0  0  2  0  0  0  0  0  0
  190.1840  176.3770  138.8640 C   0  0  2  0  0  3  0  0  0  0  0  0
  186.9610  178.0830  142.1030 C   0  0  0  0  0  0  0  0  0  0  0  0
  183.1370  179.0740  140.4500 C   0  0  2  0  0  0  0  0  0  0  0  0
  186.8380  178.2600  140.6860 N   0  0  0  0  0  0  0  0  0  0  0  0
  187.2210  177.7350  144.8650 C   0  0  0  0  0  3  0  0  0  0  0  0
  188.9620  178.1620  137.4550 C   0  0  0  0  0  2  0  0  0  0  0  0
  185.9580  177.9320  144.3010 C   0  0  0  0  0  3  0  0  0  0  0  0
  187.7340  178.3090  138.3520 C   0  0  0  0  0  2  0  0  0  0  0  0
  190.5380  177.5990  139.7420 C   0  0  1  0  0  3  0  0  0  0  0  0
  188.3540  177.7010  144.0500 C   0  0  0  0  0  3  0  0  0  0  0  0
  189.3740  177.8440  141.8050 N   0  0  0  0  0  0  0  0  0  0  0  0
  191.3040  175.5700  138.6480 O   0  0  0  0  0  0  0  0  0  0  0  0
  191.4950  175.5850  137.2640 C   0  0  0  0  0  2  0  0  0  0  0  0
  194.5950  175.5980  138.6130 N   0  0  0  0  0  0  0  0  0  0  0  0
  193.6530  174.3800  136.8960 C   0  0  0  0  0  2  0  0  0  0  0  0
  192.9700  175.7480  136.9460 C   0  0  2  0  0  3  0  0  0  0  0  0
  194.6420  174.4620  138.0110 C   0  0  0  0  0  3  0  0  0  0  0  0
  193.6290  176.4250  138.0460 N   0  0  0  0  0  2  0  0  0  0  0  0
  1 26  1  0  0  0  0
  3 16  1  1  0  0  0
  4 23  2  0  0  0  0
  5 11  1  6  0  0  0
  5 15  1  0  0  0  0
  7  6  1  1  0  0  0
  7 19  1  0  0  0  0
  7  3  1  0  0  0  0
  9 27  1  1  0  0  0
 10 17  1  0  0  0  0
 11 20  1  0  0  0  0
 12  8  1  0  0  0  0
 13 24  1  6  0  0  0
 13  9  1  0  0  0  0
 13 20  1  0  0  0  0
 14  2  1  0  0  0  0
 15  4  1  0  0  0  0
 15 12  1  0  0  0  0
 16  8  1  0  0  0  0
 17 28  1  6  0  0  0
 17 25  1  0  0  0  0
 18  1  2  0  0  0  0
 18  4  1  0  0  0  0
 19  6  1  1  0  0  0
 19  3  1  0  0  0  0
 19  5  1  0  0  0  0
 20 18  1  0  0  0  0
 22 10  1  0  0  0  0
 22 24  1  0  0  0  0
 23 21  1  0  0  0  0
 25  9  1  0  0  0  0
 25 14  1  1  0  0  0
 26 21  2  0  0  0  0
 27  2  1  0  0  0  0
 27  1  1  0  0  0  0
 29 28  1  0  0  0  0
 31 32  1  0  0  0  0
 31 33  1  0  0  0  0
 32 29  1  1  0  0  0
 32 34  1  0  0  0  0
 33 30  2  0  0  0  0
 34 30  1  0  0  0  0
M  END
>  <MODEL>
7

>  <REMARK>
 VINA RESULT:      -8.0      3.766      8.542
  Name = 
  3 active torsions:
  status: ('A' for Active; 'I' for Inactive)
    1  A    between atoms: C_17  and  O_28
    2  A    between atoms: O_28  and  C_29
    3  A    between atoms: C_29  and  C_32
                            x       y       z     vdW  Elec       q    Type
                         _______ _______ _______ _____ _____    ______ ____

>  <TORSDO>
F 3

$$$$
=
 OpenBabel11122412143D

 34 42  0  0  1  0  0  0  0  0999 V2000
  186.2900  178.4260  140.2030 C   0  0  0  0  0  0  0  0  0  0  0  0
  184.5900  178.4390  138.3200 C   0  0  0  0  0  2  0  0  0  0  0  0
  187.7230  177.0560  146.4480 C   0  0  2  0  0  3  0  0  0  0  0  0
  187.6980  177.9660  142.1410 C   0  0  0  0  0  0  0  0  0  0  0  0
  186.6120  177.8060  144.4300 C   0  0  1  0  0  3  0  0  0  0  0  0
  185.9850  178.9010  146.7180 C   0  0  0  0  0  2  0  0  0  0  0  0
  186.3840  177.4790  147.0150 C   0  0  1  0  0  3  0  0  0  0  0  0
  189.9560  178.2170  145.3220 S   0  0  0  0  0  0  0  0  0  0  0  0
  183.8870  179.1380  140.5350 C   0  0  2  0  0  3  0  0  0  0  0  0
  181.0050  177.8900  141.4420 C   0  0  0  0  0  2  0  0  0  0  0  0
  185.5690  178.7720  143.8540 C   0  0  0  0  0  2  0  0  0  0  0  0
  189.0900  177.1700  144.0600 C   0  0  0  0  0  2  0  0  0  0  0  0
  183.9540  178.3860  141.8870 C   0  0  1  0  0  3  0  0  0  0  0  0
  183.1030  178.7340  138.2580 C   0  0  0  0  0  2  0  0  0  0  0  0
  187.8290  177.7690  143.5680 N   0  0  0  0  0  0  0  0  0  0  0  0
  189.0480  177.6640  146.8440 C   0  0  0  0  0  2  0  0  0  0  0  0
  181.8270  177.6410  140.1660 C   0  0  2  0  0  3  0  0  0  0  0  0
  186.4460  178.2900  141.5900 C   0  0  0  0  0  0  0  0  0  0  0  0
  187.0200  178.2350  145.8340 C   0  0  2  0  0  0  0  0  0  0  0  0
  185.3140  178.4690  142.4500 N   0  0  0  0  0  0  0  0  0  0  0  0
  188.6440  177.9440  139.8970 C   0  0  0  0  0  3  0  0  0  0  0  0
  181.4940  179.0610  142.2960 C   0  0  0  0  0  2  0  0  0  0  0  0
  188.7960  177.8010  141.2790 C   0  0  0  0  0  3  0  0  0  0  0  0
  182.8800  178.8340  142.8970 C   0  0  0  0  0  2  0  0  0  0  0  0
  182.6160  178.8860  139.7000 C   0  0  1  0  0  3  0  0  0  0  0  0
  187.3930  178.2490  139.3590 C   0  0  0  0  0  3  0  0  0  0  0  0
  184.9930  178.7370  139.6790 N   0  0  0  0  0  0  0  0  0  0  0  0
  180.9710  177.1820  139.1620 O   0  0  0  0  0  0  0  0  0  0  0  0
  180.8500  175.8090  139.3940 C   0  0  0  0  0  2  0  0  0  0  0  0
  181.4670  176.1470  136.0870 N   0  0  0  0  0  0  0  0  0  0  0  0
  182.4740  174.8850  137.7350 C   0  0  0  0  0  2  0  0  0  0  0  0
  180.9940  175.0470  138.0900 C   0  0  2  0  0  3  0  0  0  0  0  0
  182.5920  175.6390  136.4510 C   0  0  0  0  0  3  0  0  0  0  0  0
  180.4620  175.8450  137.0020 N   0  0  0  0  0  2  0  0  0  0  0  0
  1 18  1  0  0  0  0
  2 27  1  0  0  0  0
  3 16  1  1  0  0  0
  3  7  1  0  0  0  0
  4 15  1  0  0  0  0
  5 11  1  6  0  0  0
  5 19  1  0  0  0  0
  7  6  1  1  0  0  0
  8 16  1  0  0  0  0
  9 27  1  6  0  0  0
  9 13  1  0  0  0  0
 10 22  1  0  0  0  0
 12  8  1  0  0  0  0
 13 20  1  0  0  0  0
 13 24  1  1  0  0  0
 14  2  1  0  0  0  0
 15 12  1  0  0  0  0
 15  5  1  0  0  0  0
 17 28  1  6  0  0  0
 17 10  1  0  0  0  0
 18  4  2  0  0  0  0
 18 20  1  0  0  0  0
 19  3  1  0  0  0  0
 19  6  1  1  0  0  0
 19  7  1  0  0  0  0
 20 11  1  0  0  0  0
 21 23  2  0  0  0  0
 22 24  1  0  0  0  0
 23  4  1  0  0  0  0
 25 14  1  6  0  0  0
 25 17  1  0  0  0  0
 25  9  1  0  0  0  0
 26 21  1  0  0  0  0
 26  1  2  0  0  0  0
 27  1  1  0  0  0  0
 28 29  1  0  0  0  0
 30 33  2  0  0  0  0
 30 34  1  0  0  0  0
 31 32  1  0  0  0  0
 32 29  1  1  0  0  0
 33 31  1  0  0  0  0
 34 32  1  0  0  0  0
M  END
>  <MODEL>
8

>  <REMARK>
 VINA RESULT:      -8.0      2.240      2.597
  Name = 
  3 active torsions:
  status: ('A' for Active; 'I' for Inactive)
    1  A    between atoms: C_17  and  O_28
    2  A    between atoms: O_28  and  C_29
    3  A    between atoms: C_29  and  C_32
                            x       y       z     vdW  Elec       q    Type
                         _______ _______ _______ _____ _____    ______ ____

>  <TORSDO>
F 3

$$$$
=
 OpenBabel11122412143D

 34 42  0  0  1  0  0  0  0  0999 V2000
  188.6330  177.6160  140.0410 C   0  0  0  0  0  0  0  0  0  0  0  0
  188.1530  177.4450  137.5560 C   0  0  0  0  0  2  0  0  0  0  0  0
  186.4170  177.3810  146.2030 C   0  0  2  0  0  3  0  0  0  0  0  0
  188.7470  177.3960  142.4680 C   0  0  0  0  0  0  0  0  0  0  0  0
  186.6520  177.8320  143.8350 C   0  0  1  0  0  3  0  0  0  0  0  0
  185.2010  179.4320  145.3030 C   0  0  0  0  0  2  0  0  0  0  0  0
  185.0950  178.0640  145.9230 C   0  0  1  0  0  3  0  0  0  0  0  0
  189.0970  178.0220  146.3110 S   0  0  0  0  0  0  0  0  0  0  0  0
  186.5940  178.6550  138.9670 C   0  0  2  0  0  3  0  0  0  0  0  0
  183.4610  177.9620  138.3420 C   0  0  0  0  0  2  0  0  0  0  0  0
  186.2630  178.7760  142.6900 C   0  0  0  0  0  2  0  0  0  0  0  0
  188.7890  176.8490  144.9080 C   0  0  0  0  0  2  0  0  0  0  0  0
  185.8160  178.1910  140.2230 C   0  0  1  0  0  3  0  0  0  0  0  0
  186.9960  177.8930  136.6830 C   0  0  0  0  0  2  0  0  0  0  0  0
  188.0990  177.4790  143.7590 N   0  0  0  0  0  0  0  0  0  0  0  0
  187.4560  177.8980  147.1710 C   0  0  0  0  0  2  0  0  0  0  0  0
  184.7410  177.3660  137.7320 C   0  0  2  0  0  3  0  0  0  0  0  0
  188.0390  177.7460  141.3060 C   0  0  0  0  0  0  0  0  0  0  0  0
  186.3770  178.4860  145.1830 C   0  0  2  0  0  0  0  0  0  0  0  0
  186.6930  178.2270  141.4080 N   0  0  0  0  0  0  0  0  0  0  0  0
  190.6650  176.8100  141.0860 C   0  0  0  0  0  3  0  0  0  0  0  0
  183.6830  179.2170  139.1880 C   0  0  0  0  0  2  0  0  0  0  0  0
  190.0690  176.9330  142.3440 C   0  0  0  0  0  3  0  0  0  0  0  0
  184.5000  178.9560  140.4530 C   0  0  0  0  0  2  0  0  0  0  0  0
  185.8940  178.3900  137.6200 C   0  0  1  0  0  3  0  0  0  0  0  0
  189.9460  177.1430  139.9360 C   0  0  0  0  0  3  0  0  0  0  0  0
  187.8700  177.9630  138.8790 N   0  0  0  0  0  0  0  0  0  0  0  0
  184.4320  176.8150  136.4850 O   0  0  0  0  0  0  0  0  0  0  0  0
  183.5930  175.7340  136.7690 C   0  0  0  0  0  2  0  0  0  0  0  0
  186.5730  174.2530  136.1740 N   0  0  0  0  0  0  0  0  0  0  0  0
  184.8120  173.7010  137.5570 C   0  0  0  0  0  2  0  0  0  0  0  0
  184.2530  174.4380  136.3380 C   0  0  2  0  0  3  0  0  0  0  0  0
  186.2790  173.6760  137.2860 C   0  0  0  0  0  3  0  0  0  0  0  0
  185.4290  174.7350  135.5430 N   0  0  0  0  0  2  0  0  0  0  0  0
  1 18  1  0  0  0  0
  2 27  1  0  0  0  0
  3 16  1  1  0  0  0
  4 15  1  0  0  0  0
  5 11  1  6  0  0  0
  5 19  1  0  0  0  0
  7  6  1  1  0  0  0
  7  3  1  0  0  0  0
  8 16  1  0  0  0  0
  9 27  1  6  0  0  0
  9 13  1  0  0  0  0
 10 22  1  0  0  0  0
 12  8  1  0  0  0  0
 13 24  1  1  0  0  0
 13 20  1  0  0  0  0
 14  2  1  0  0  0  0
 15  5  1  0  0  0  0
 15 12  1  0  0  0  0
 17 28  1  6  0  0  0
 17 10  1  0  0  0  0
 18 20  1  0  0  0  0
 18  4  2  0  0  0  0
 19  6  1  1  0  0  0
 19  7  1  0  0  0  0
 19  3  1  0  0  0  0
 20 11  1  0  0  0  0
 21 23  2  0  0  0  0
 22 24  1  0  0  0  0
 23  4  1  0  0  0  0
 25 14  1  6  0  0  0
 25 17  1  0  0  0  0
 25  9  1  0  0  0  0
 26  1  2  0  0  0  0
 26 21  1  0  0  0  0
 27  1  1  0  0  0  0
 28 29  1  0  0  0  0
 30 33  2  0  0  0  0
 32 29  1  1  0  0  0
 32 31  1  0  0  0  0
 33 31  1  0  0  0  0
 34 30  1  0  0  0  0
 34 32  1  0  0  0  0
M  END
>  <MODEL>
9

>  <REMARK>
 VINA RESULT:      -8.0      2.781      4.180
  Name = 
  3 active torsions:
  status: ('A' for Active; 'I' for Inactive)
    1  A    between atoms: C_17  and  O_28
    2  A    between atoms: O_28  and  C_29
    3  A    between atoms: C_29  and  C_32
                            x       y       z     vdW  Elec       q    Type
                         _______ _______ _______ _____ _____    ______ ____

>  <TORSDO>
F 3

$$$$
