=
 OpenBabel11122411073D

 31 35  0  0  0  0  0  0  0  0999 V2000
  184.6970  178.7100  144.6900 C   0  0  0  0  0  0  0  0  0  0  0  0
  188.2420  177.5970  144.0800 C   0  0  0  0  0  0  0  0  0  0  0  0
  188.8680  177.4610  145.3580 C   0  0  0  0  0  0  0  0  0  0  0  0
  187.6920  177.5390  138.8420 O   0  0  0  0  0  0  0  0  0  0  0  0
  188.8690  177.1900  139.1280 C   0  0  0  0  0  0  0  0  0  0  0  0
  188.8420  177.5750  147.8000 C   0  0  0  0  0  0  0  0  0  0  0  0
  186.8890  178.0030  143.8760 C   0  0  0  0  0  0  0  0  0  0  0  0
  184.2250  178.7970  143.3820 C   0  0  0  0  0  3  0  0  0  0  0  0
  188.1990  177.7180  146.5680 C   0  0  0  0  0  3  0  0  0  0  0  0
  188.4800  177.4190  141.6460 C   0  0  0  0  0  0  0  0  0  0  0  0
  183.8570  179.0130  145.7520 O   0  0  0  0  0  1  0  0  0  0  0  0
  190.9280  176.7830  144.2650 C   0  0  0  0  0  3  0  0  0  0  0  0
  188.1370  177.8430  149.0050 N   0  0  0  0  0  1  0  0  0  0  0  0
  187.1890  177.8080  141.4970 N   0  0  0  0  0  0  0  0  0  0  0  0
  189.0310  177.3060  142.9300 C   0  0  0  0  0  0  0  0  0  0  0  0
  189.2880  177.1220  140.4990 N   0  0  0  0  0  2  0  0  0  0  0  0
  186.0150  178.3170  144.9320 C   0  0  0  0  0  3  0  0  0  0  0  0
  190.1760  177.1690  147.8480 C   0  0  0  0  0  3  0  0  0  0  0  0
  186.3910  178.0980  142.5520 C   0  0  0  0  0  0  0  0  0  0  0  0
  185.0710  178.4920  142.3150 C   0  0  0  0  0  3  0  0  0  0  0  0
  190.3270  176.9150  143.0600 N   0  0  0  0  0  0  0  0  0  0  0  0
  190.2230  177.0490  145.4300 C   0  0  0  0  0  0  0  0  0  0  0  0
  190.8650  176.9060  146.6640 C   0  0  0  0  0  3  0  0  0  0  0  0
  191.7340  176.2000  136.0850 C   0  0  0  0  0  0  0  0  0  0  0  0
  191.1820  176.6700  138.3910 C   0  0  0  0  0  3  0  0  0  0  0  0
  188.1190  176.8620  136.3090 O   0  0  0  0  0  1  0  0  0  0  0  0
  192.6720  175.8790  135.1140 O   0  0  0  0  0  1  0  0  0  0  0  0
  192.1280  176.3480  137.4160 C   0  0  0  0  0  3  0  0  0  0  0  0
  189.4420  176.6980  136.7030 C   0  0  0  0  0  0  0  0  0  0  0  0
  189.8310  176.8500  138.0540 C   0  0  0  0  0  0  0  0  0  0  0  0
  190.3940  176.3750  135.7320 C   0  0  0  0  0  3  0  0  0  0  0  0
  1 17  1  0  0  0  0
  1 11  1  0  0  0  0
  2  3  1  0  0  0  0
  3 22  2  0  0  0  0
  3  9  1  0  0  0  0
  4  5  2  0  0  0  0
  5 16  1  0  0  0  0
  6 18  1  0  0  0  0
  6 13  1  0  0  0  0
  7  2  1  0  0  0  0
  7 17  2  0  0  0  0
  8  1  2  0  0  0  0
  9  6  2  0  0  0  0
 10 15  1  0  0  0  0
 12 22  1  0  0  0  0
 14 10  2  0  0  0  0
 14 19  1  0  0  0  0
 15 21  1  0  0  0  0
 15  2  2  0  0  0  0
 16 10  1  0  0  0  0
 19  7  1  0  0  0  0
 20 19  2  0  0  0  0
 20  8  1  0  0  0  0
 21 12  2  0  0  0  0
 22 23  1  0  0  0  0
 23 18  2  0  0  0  0
 24 28  1  0  0  0  0
 26 29  1  0  0  0  0
 27 24  1  0  0  0  0
 28 25  2  0  0  0  0
 29 30  2  0  0  0  0
 30 25  1  0  0  0  0
 30  5  1  0  0  0  0
 31 24  2  0  0  0  0
 31 29  1  0  0  0  0
M  END
>  <MODEL>
1

>  <REMARK>
 VINA RESULT:     -11.6      0.000      0.000
  Name = 
  1 active torsions:
  status: ('A' for Active; 'I' for Inactive)
    1  A    between atoms: C_5  and  C_30
                            x       y       z     vdW  Elec       q    Type
                         _______ _______ _______ _____ _____    ______ ____

>  <TORSDO>
F 1

$$$$
=
 OpenBabel11122411073D

 31 35  0  0  0  0  0  0  0  0999 V2000
  185.5110  178.6850  144.0550 C   0  0  0  0  0  0  0  0  0  0  0  0
  189.0280  177.3410  144.0090 C   0  0  0  0  0  0  0  0  0  0  0  0
  189.4740  177.2790  145.3660 C   0  0  0  0  0  0  0  0  0  0  0  0
  189.1540  176.8760  138.7650 O   0  0  0  0  0  0  0  0  0  0  0  0
  190.2600  176.4900  139.2300 C   0  0  0  0  0  0  0  0  0  0  0  0
  189.1410  177.5980  147.7670 C   0  0  0  0  0  0  0  0  0  0  0  0
  187.7400  177.7990  143.5960 C   0  0  0  0  0  0  0  0  0  0  0  0
  185.2170  178.6880  142.6930 C   0  0  0  0  0  3  0  0  0  0  0  0
  188.6730  177.6710  146.4540 C   0  0  0  0  0  3  0  0  0  0  0  0
  189.5650  176.9490  141.6500 C   0  0  0  0  0  0  0  0  0  0  0  0
  184.5610  179.1190  144.9700 O   0  0  0  0  0  1  0  0  0  0  0  0
  191.6110  176.4060  144.6120 C   0  0  0  0  0  3  0  0  0  0  0  0
  188.3050  178.0020  148.8430 N   0  0  0  0  0  1  0  0  0  0  0  0
  188.3310  177.3910  141.3010 N   0  0  0  0  0  0  0  0  0  0  0  0
  189.9380  176.9140  143.0000 C   0  0  0  0  0  0  0  0  0  0  0  0
  190.4940  176.5150  140.6460 N   0  0  0  0  0  2  0  0  0  0  0  0
  186.7590  178.2450  144.5000 C   0  0  0  0  0  3  0  0  0  0  0  0
  190.4290  177.1280  148.0230 C   0  0  0  0  0  3  0  0  0  0  0  0
  187.4240  177.8090  142.2150 C   0  0  0  0  0  0  0  0  0  0  0  0
  186.1720  178.2510  141.7750 C   0  0  0  0  0  3  0  0  0  0  0  0
  191.1790  176.4680  143.3310 N   0  0  0  0  0  0  0  0  0  0  0  0
  190.7800  176.8040  145.6490 C   0  0  0  0  0  0  0  0  0  0  0  0
  191.2480  176.7310  146.9650 C   0  0  0  0  0  3  0  0  0  0  0  0
  193.4180  175.1840  136.6290 C   0  0  0  0  0  0  0  0  0  0  0  0
  192.5180  176.7530  138.2320 C   0  0  0  0  0  3  0  0  0  0  0  0
  190.0470  174.0630  137.5940 O   0  0  0  0  0  1  0  0  0  0  0  0
  194.4480  174.7750  135.7930 O   0  0  0  0  0  1  0  0  0  0  0  0
  193.5560  176.3440  137.3920 C   0  0  0  0  0  3  0  0  0  0  0  0
  191.1990  174.8380  137.5450 C   0  0  0  0  0  0  0  0  0  0  0  0
  191.3290  176.0120  138.3230 C   0  0  0  0  0  0  0  0  0  0  0  0
  192.2420  174.4340  136.7070 C   0  0  0  0  0  3  0  0  0  0  0  0
  1 17  1  0  0  0  0
  1 11  1  0  0  0  0
  2  3  1  0  0  0  0
  3 22  2  0  0  0  0
  3  9  1  0  0  0  0
  4  5  2  0  0  0  0
  5 16  1  0  0  0  0
  6 18  1  0  0  0  0
  6 13  1  0  0  0  0
  7  2  1  0  0  0  0
  7 17  2  0  0  0  0
  8  1  2  0  0  0  0
  9  6  2  0  0  0  0
 10 15  1  0  0  0  0
 12 22  1  0  0  0  0
 14 10  2  0  0  0  0
 14 19  1  0  0  0  0
 15 21  1  0  0  0  0
 15  2  2  0  0  0  0
 16 10  1  0  0  0  0
 19  7  1  0  0  0  0
 20 19  2  0  0  0  0
 20  8  1  0  0  0  0
 21 12  2  0  0  0  0
 22 23  1  0  0  0  0
 23 18  2  0  0  0  0
 24 31  2  0  0  0  0
 24 28  1  0  0  0  0
 25 30  1  0  0  0  0
 27 24  1  0  0  0  0
 28 25  2  0  0  0  0
 29 26  1  0  0  0  0
 29 30  2  0  0  0  0
 30  5  1  0  0  0  0
 31 29  1  0  0  0  0
M  END
>  <MODEL>
2

>  <REMARK>
 VINA RESULT:     -11.5      1.294      1.473
  Name = 
  1 active torsions:
  status: ('A' for Active; 'I' for Inactive)
    1  A    between atoms: C_5  and  C_30
                            x       y       z     vdW  Elec       q    Type
                         _______ _______ _______ _____ _____    ______ ____

>  <TORSDO>
F 1

$$$$
=
 OpenBabel11122411073D

 31 35  0  0  0  0  0  0  0  0999 V2000
  190.7790  177.2980  141.7770 C   0  0  0  0  0  0  0  0  0  0  0  0
  187.4280  178.0530  143.3220 C   0  0  0  0  0  0  0  0  0  0  0  0
  187.5660  177.8830  144.7350 C   0  0  0  0  0  0  0  0  0  0  0  0
  185.1420  179.1040  138.6950 O   0  0  0  0  0  0  0  0  0  0  0  0
  184.2860  179.2480  139.6100 C   0  0  0  0  0  0  0  0  0  0  0  0
  188.8740  177.3420  146.7290 C   0  0  0  0  0  0  0  0  0  0  0  0
  188.4770  177.8600  142.3730 C   0  0  0  0  0  0  0  0  0  0  0  0
  190.4940  177.5030  140.4290 C   0  0  0  0  0  3  0  0  0  0  0  0
  188.7750  177.5010  145.3440 C   0  0  0  0  0  3  0  0  0  0  0  0
  185.9450  178.6280  141.4570 C   0  0  0  0  0  0  0  0  0  0  0  0
  192.0560  176.9190  142.1670 O   0  0  0  0  0  1  0  0  0  0  0  0
  185.2300  178.4820  145.0240 C   0  0  0  0  0  3  0  0  0  0  0  0
  190.1100  176.9550  147.3130 N   0  0  0  0  0  1  0  0  0  0  0  0
  186.9690  178.4340  140.5890 N   0  0  0  0  0  0  0  0  0  0  0  0
  186.1490  178.4430  142.8300 C   0  0  0  0  0  0  0  0  0  0  0  0
  184.6490  179.0200  140.9790 N   0  0  0  0  0  2  0  0  0  0  0  0
  189.7800  177.4760  142.7370 C   0  0  0  0  0  3  0  0  0  0  0  0
  187.7590  177.5650  147.5370 C   0  0  0  0  0  3  0  0  0  0  0  0
  188.2060  178.0630  140.9970 C   0  0  0  0  0  0  0  0  0  0  0  0
  189.2090  177.8840  140.0400 C   0  0  0  0  0  3  0  0  0  0  0  0
  185.1100  178.6410  143.6850 N   0  0  0  0  0  0  0  0  0  0  0  0
  186.4460  178.1040  145.5760 C   0  0  0  0  0  0  0  0  0  0  0  0
  186.5470  177.9450  146.9610 C   0  0  0  0  0  3  0  0  0  0  0  0
  180.3010  180.5080  138.6210 C   0  0  0  0  0  0  0  0  0  0  0  0
  182.6800  180.9190  138.7190 C   0  0  0  0  0  3  0  0  0  0  0  0
  181.9400  177.5440  140.0640 O   0  0  0  0  0  1  0  0  0  0  0  0
  179.0200  180.9290  138.2950 O   0  0  0  0  0  1  0  0  0  0  0  0
  181.3920  181.3460  138.3900 C   0  0  0  0  0  3  0  0  0  0  0  0
  181.7860  178.8090  139.5110 C   0  0  0  0  0  0  0  0  0  0  0  0
  182.8990  179.6510  139.2810 C   0  0  0  0  0  0  0  0  0  0  0  0
  180.5000  179.2430  139.1790 C   0  0  0  0  0  3  0  0  0  0  0  0
  1 11  1  0  0  0  0
  1 17  1  0  0  0  0
  2  3  1  0  0  0  0
  3  9  2  0  0  0  0
  3 22  1  0  0  0  0
  4  5  2  0  0  0  0
  5 16  1  0  0  0  0
  6 13  1  0  0  0  0
  6 18  2  0  0  0  0
  7 17  2  0  0  0  0
  7  2  1  0  0  0  0
  8  1  2  0  0  0  0
  9  6  1  0  0  0  0
 10 15  1  0  0  0  0
 12 22  1  0  0  0  0
 14 19  1  0  0  0  0
 14 10  2  0  0  0  0
 15  2  2  0  0  0  0
 15 21  1  0  0  0  0
 16 10  1  0  0  0  0
 19  7  1  0  0  0  0
 20  8  1  0  0  0  0
 20 19  2  0  0  0  0
 21 12  2  0  0  0  0
 22 23  2  0  0  0  0
 23 18  1  0  0  0  0
 24 31  1  0  0  0  0
 25 30  2  0  0  0  0
 27 24  1  0  0  0  0
 28 24  2  0  0  0  0
 28 25  1  0  0  0  0
 29 26  1  0  0  0  0
 30 29  1  0  0  0  0
 30  5  1  0  0  0  0
 31 29  2  0  0  0  0
M  END
>  <MODEL>
3

>  <REMARK>
 VINA RESULT:     -11.2      3.506      6.584
  Name = 
  1 active torsions:
  status: ('A' for Active; 'I' for Inactive)
    1  A    between atoms: C_5  and  C_30
                            x       y       z     vdW  Elec       q    Type
                         _______ _______ _______ _____ _____    ______ ____

>  <TORSDO>
F 1

$$$$
=
 OpenBabel11122411073D

 31 35  0  0  0  0  0  0  0  0999 V2000
  186.9960  178.2020  147.7390 C   0  0  0  0  0  0  0  0  0  0  0  0
  187.6310  177.6700  144.0650 C   0  0  0  0  0  0  0  0  0  0  0  0
  188.9980  177.2760  143.9250 C   0  0  0  0  0  0  0  0  0  0  0  0
  182.7030  178.9110  142.6790 O   0  0  0  0  0  0  0  0  0  0  0  0
  183.3560  178.6280  141.6390 C   0  0  0  0  0  0  0  0  0  0  0  0
  191.2010  176.7510  144.8470 C   0  0  0  0  0  0  0  0  0  0  0  0
  186.9930  177.9690  145.3070 C   0  0  0  0  0  0  0  0  0  0  0  0
  185.6530  178.5740  147.7180 C   0  0  0  0  0  3  0  0  0  0  0  0
  189.8700  177.1380  145.0200 C   0  0  0  0  0  3  0  0  0  0  0  0
  185.5060  178.1550  142.9420 C   0  0  0  0  0  0  0  0  0  0  0  0
  187.6770  178.1280  148.9460 O   0  0  0  0  0  1  0  0  0  0  0  0
  188.6970  177.1290  141.5200 C   0  0  0  0  0  3  0  0  0  0  0  0
  192.0560  176.6220  145.9750 N   0  0  0  0  0  1  0  0  0  0  0  0
  184.9390  178.4280  144.1430 N   0  0  0  0  0  0  0  0  0  0  0  0
  186.8530  177.7730  142.8760 C   0  0  0  0  0  0  0  0  0  0  0  0
  184.7380  178.2530  141.7340 N   0  0  0  0  0  2  0  0  0  0  0  0
  187.6560  177.9030  146.5460 C   0  0  0  0  0  3  0  0  0  0  0  0
  191.6900  176.4920  143.5670 C   0  0  0  0  0  3  0  0  0  0  0  0
  185.6280  178.3490  145.3060 C   0  0  0  0  0  0  0  0  0  0  0  0
  184.9710  178.6470  146.5040 C   0  0  0  0  0  3  0  0  0  0  0  0
  187.4050  177.5030  141.6630 N   0  0  0  0  0  0  0  0  0  0  0  0
  189.5170  177.0070  142.6340 C   0  0  0  0  0  0  0  0  0  0  0  0
  190.8490  176.6200  142.4610 C   0  0  0  0  0  3  0  0  0  0  0  0
  181.3930  178.7230  137.8200 C   0  0  0  0  0  0  0  0  0  0  0  0
  181.5040  177.9800  140.1170 C   0  0  0  0  0  3  0  0  0  0  0  0
  184.4300  180.1280  139.3550 O   0  0  0  0  0  1  0  0  0  0  0  0
  180.7460  178.7450  136.5920 O   0  0  0  0  0  1  0  0  0  0  0  0
  180.8510  177.9990  138.8820 C   0  0  0  0  0  3  0  0  0  0  0  0
  183.2450  179.4130  139.2250 C   0  0  0  0  0  0  0  0  0  0  0  0
  182.7050  178.6820  140.3090 C   0  0  0  0  0  0  0  0  0  0  0  0
  182.5860  179.4280  137.9930 C   0  0  0  0  0  3  0  0  0  0  0  0
  1 11  1  0  0  0  0
  2  7  1  0  0  0  0
  3  2  1  0  0  0  0
  3  9  1  0  0  0  0
  5 16  1  0  0  0  0
  5  4  2  0  0  0  0
  6  9  2  0  0  0  0
  6 13  1  0  0  0  0
  7 17  1  0  0  0  0
  8  1  1  0  0  0  0
 10 14  2  0  0  0  0
 12 21  2  0  0  0  0
 12 22  1  0  0  0  0
 14 19  1  0  0  0  0
 15 10  1  0  0  0  0
 15  2  2  0  0  0  0
 16 10  1  0  0  0  0
 17  1  2  0  0  0  0
 18  6  1  0  0  0  0
 19  7  2  0  0  0  0
 19 20  1  0  0  0  0
 20  8  2  0  0  0  0
 21 15  1  0  0  0  0
 22  3  2  0  0  0  0
 23 22  1  0  0  0  0
 23 18  2  0  0  0  0
 24 31  2  0  0  0  0
 24 28  1  0  0  0  0
 25 30  1  0  0  0  0
 27 24  1  0  0  0  0
 28 25  2  0  0  0  0
 29 26  1  0  0  0  0
 29 30  2  0  0  0  0
 30  5  1  0  0  0  0
 31 29  1  0  0  0  0
M  END
>  <MODEL>
4

>  <REMARK>
 VINA RESULT:     -10.9      3.568      5.865
  Name = 
  1 active torsions:
  status: ('A' for Active; 'I' for Inactive)
    1  A    between atoms: C_5  and  C_30
                            x       y       z     vdW  Elec       q    Type
                         _______ _______ _______ _____ _____    ______ ____

>  <TORSDO>
F 1

$$$$
=
 OpenBabel11122411073D

 31 35  0  0  0  0  0  0  0  0999 V2000
  186.7430  178.2010  147.3490 C   0  0  0  0  0  0  0  0  0  0  0  0
  187.5470  177.8730  143.6850 C   0  0  0  0  0  0  0  0  0  0  0  0
  188.9440  177.5830  143.5830 C   0  0  0  0  0  0  0  0  0  0  0  0
  182.5970  178.8190  142.1560 O   0  0  0  0  0  0  0  0  0  0  0  0
  183.3060  178.6280  141.1320 C   0  0  0  0  0  0  0  0  0  0  0  0
  191.1440  177.1770  144.5690 C   0  0  0  0  0  0  0  0  0  0  0  0
  186.8450  178.0720  144.9120 C   0  0  0  0  0  0  0  0  0  0  0  0
  185.3780  178.4780  147.2900 C   0  0  0  0  0  3  0  0  0  0  0  0
  189.7830  177.4600  144.7060 C   0  0  0  0  0  3  0  0  0  0  0  0
  185.4360  178.2530  142.4990 C   0  0  0  0  0  0  0  0  0  0  0  0
  187.3820  178.1240  148.5780 O   0  0  0  0  0  1  0  0  0  0  0  0
  188.7430  177.5170  141.1640 C   0  0  0  0  0  3  0  0  0  0  0  0
  191.9640  177.0600  145.7240 N   0  0  0  0  0  1  0  0  0  0  0  0
  184.8070  178.4340  143.6860 N   0  0  0  0  0  0  0  0  0  0  0  0
  186.8080  177.9710  142.4710 C   0  0  0  0  0  0  0  0  0  0  0  0
  184.7070  178.3480  141.2660 N   0  0  0  0  0  2  0  0  0  0  0  0
  187.4660  178.0010  146.1720 C   0  0  0  0  0  3  0  0  0  0  0  0
  191.6970  177.0070  143.3000 C   0  0  0  0  0  3  0  0  0  0  0  0
  185.4570  178.3540  144.8720 C   0  0  0  0  0  0  0  0  0  0  0  0
  184.7370  178.5540  146.0540 C   0  0  0  0  0  3  0  0  0  0  0  0
  187.4220  177.7920  141.2710 N   0  0  0  0  0  0  0  0  0  0  0  0
  189.5270  177.4070  142.3030 C   0  0  0  0  0  0  0  0  0  0  0  0
  190.8900  177.1220  142.1690 C   0  0  0  0  0  3  0  0  0  0  0  0
  181.5550  178.9190  137.2200 C   0  0  0  0  0  0  0  0  0  0  0  0
  182.4080  179.9510  139.2320 C   0  0  0  0  0  3  0  0  0  0  0  0
  182.6800  176.2630  139.5080 O   0  0  0  0  0  1  0  0  0  0  0  0
  180.9900  179.0300  135.9580 O   0  0  0  0  0  1  0  0  0  0  0  0
  181.8390  180.0660  137.9620 C   0  0  0  0  0  3  0  0  0  0  0  0
  182.4110  177.5350  139.0200 C   0  0  0  0  0  0  0  0  0  0  0  0
  182.7020  178.6920  139.7800 C   0  0  0  0  0  0  0  0  0  0  0  0
  181.8420  177.6580  137.7490 C   0  0  0  0  0  3  0  0  0  0  0  0
  1 11  1  0  0  0  0
  2  7  1  0  0  0  0
  3  2  1  0  0  0  0
  3  9  1  0  0  0  0
  5 16  1  0  0  0  0
  5  4  2  0  0  0  0
  6  9  2  0  0  0  0
  6 13  1  0  0  0  0
  7 17  1  0  0  0  0
  8  1  1  0  0  0  0
 10 14  2  0  0  0  0
 12 21  2  0  0  0  0
 12 22  1  0  0  0  0
 14 19  1  0  0  0  0
 15 10  1  0  0  0  0
 15  2  2  0  0  0  0
 16 10  1  0  0  0  0
 17  1  2  0  0  0  0
 18  6  1  0  0  0  0
 19  7  2  0  0  0  0
 19 20  1  0  0  0  0
 20  8  2  0  0  0  0
 21 15  1  0  0  0  0
 22  3  2  0  0  0  0
 23 22  1  0  0  0  0
 23 18  2  0  0  0  0
 24 31  2  0  0  0  0
 24 28  1  0  0  0  0
 25 30  1  0  0  0  0
 27 24  1  0  0  0  0
 28 25  2  0  0  0  0
 29 26  1  0  0  0  0
 29 30  2  0  0  0  0
 30  5  1  0  0  0  0
 31 29  1  0  0  0  0
M  END
>  <MODEL>
5

>  <REMARK>
 VINA RESULT:     -10.7      3.663      5.772
  Name = 
  1 active torsions:
  status: ('A' for Active; 'I' for Inactive)
    1  A    between atoms: C_5  and  C_30
                            x       y       z     vdW  Elec       q    Type
                         _______ _______ _______ _____ _____    ______ ____

>  <TORSDO>
F 1

$$$$
=
 OpenBabel11122411073D

 31 35  0  0  0  0  0  0  0  0999 V2000
  191.5040  177.3350  141.3960 C   0  0  0  0  0  0  0  0  0  0  0  0
  188.5150  177.6260  143.6670 C   0  0  0  0  0  0  0  0  0  0  0  0
  188.9740  177.3990  145.0020 C   0  0  0  0  0  0  0  0  0  0  0  0
  185.1790  178.6510  139.7220 O   0  0  0  0  0  0  0  0  0  0  0  0
  184.5350  178.6510  140.8050 C   0  0  0  0  0  0  0  0  0  0  0  0
  190.7330  176.9070  146.6270 C   0  0  0  0  0  0  0  0  0  0  0  0
  189.3440  177.6020  142.5060 C   0  0  0  0  0  0  0  0  0  0  0  0
  190.9120  177.5760  140.1570 C   0  0  0  0  0  3  0  0  0  0  0  0
  190.3190  177.1250  145.3110 C   0  0  0  0  0  3  0  0  0  0  0  0
  186.6100  178.1260  142.2070 C   0  0  0  0  0  0  0  0  0  0  0  0
  192.8660  177.0830  141.4770 O   0  0  0  0  0  1  0  0  0  0  0  0
  186.7110  177.7150  145.8230 C   0  0  0  0  0  3  0  0  0  0  0  0
  192.0990  176.6320  146.9060 N   0  0  0  0  0  1  0  0  0  0  0  0
  187.4340  178.0950  141.1300 N   0  0  0  0  0  0  0  0  0  0  0  0
  187.1270  177.8940  143.4880 C   0  0  0  0  0  0  0  0  0  0  0  0
  185.2090  178.3940  142.0450 N   0  0  0  0  0  2  0  0  0  0  0  0
  190.7270  177.3490  142.5560 C   0  0  0  0  0  3  0  0  0  0  0  0
  189.8060  176.9600  147.6680 C   0  0  0  0  0  3  0  0  0  0  0  0
  188.7600  177.8450  141.2370 C   0  0  0  0  0  0  0  0  0  0  0  0
  189.5430  177.8300  140.0790 C   0  0  0  0  0  3  0  0  0  0  0  0
  186.2860  177.9290  144.5570 N   0  0  0  0  0  0  0  0  0  0  0  0
  188.0490  177.4480  146.0750 C   0  0  0  0  0  0  0  0  0  0  0  0
  188.4650  177.2310  147.3920 C   0  0  0  0  0  3  0  0  0  0  0  0
  180.3060  179.3910  140.9190 C   0  0  0  0  0  0  0  0  0  0  0  0
  182.3820  178.8430  142.0270 C   0  0  0  0  0  3  0  0  0  0  0  0
  182.9880  179.3100  138.3990 O   0  0  0  0  0  1  0  0  0  0  0  0
  178.9400  179.6280  140.9730 O   0  0  0  0  0  1  0  0  0  0  0  0
  181.0070  179.0800  142.0850 C   0  0  0  0  0  3  0  0  0  0  0  0
  182.3560  179.2270  139.6330 C   0  0  0  0  0  0  0  0  0  0  0  0
  183.0760  178.9110  140.8090 C   0  0  0  0  0  0  0  0  0  0  0  0
  180.9800  179.4640  139.6980 C   0  0  0  0  0  3  0  0  0  0  0  0
  1 11  1  0  0  0  0
  1 17  1  0  0  0  0
  2  3  1  0  0  0  0
  3  9  2  0  0  0  0
  3 22  1  0  0  0  0
  4  5  2  0  0  0  0
  5 30  1  0  0  0  0
  5 16  1  0  0  0  0
  6 13  1  0  0  0  0
  6 18  2  0  0  0  0
  7 17  2  0  0  0  0
  7  2  1  0  0  0  0
  8  1  2  0  0  0  0
  9  6  1  0  0  0  0
 10 15  1  0  0  0  0
 12 22  1  0  0  0  0
 14 19  1  0  0  0  0
 14 10  2  0  0  0  0
 15  2  2  0  0  0  0
 15 21  1  0  0  0  0
 16 10  1  0  0  0  0
 19  7  1  0  0  0  0
 20  8  1  0  0  0  0
 20 19  2  0  0  0  0
 21 12  2  0  0  0  0
 22 23  2  0  0  0  0
 23 18  1  0  0  0  0
 24 27  1  0  0  0  0
 24 28  1  0  0  0  0
 25 28  2  0  0  0  0
 26 29  1  0  0  0  0
 29 31  1  0  0  0  0
 29 30  2  0  0  0  0
 30 25  1  0  0  0  0
 31 24  2  0  0  0  0
M  END
>  <MODEL>
6

>  <REMARK>
 VINA RESULT:     -10.6      2.882      6.622
  Name = 
  1 active torsions:
  status: ('A' for Active; 'I' for Inactive)
    1  A    between atoms: C_5  and  C_30
                            x       y       z     vdW  Elec       q    Type
                         _______ _______ _______ _____ _____    ______ ____

>  <TORSDO>
F 1

$$$$
=
 OpenBabel11122411073D

 31 35  0  0  0  0  0  0  0  0999 V2000
  191.6810  176.0090  146.0260 C   0  0  0  0  0  0  0  0  0  0  0  0
  188.5200  177.4020  144.5260 C   0  0  0  0  0  0  0  0  0  0  0  0
  187.6970  177.8430  145.6090 C   0  0  0  0  0  0  0  0  0  0  0  0
  190.0310  176.4360  139.5740 O   0  0  0  0  0  0  0  0  0  0  0  0
  188.8890  176.9680  139.5510 C   0  0  0  0  0  0  0  0  0  0  0  0
  187.2540  178.1740  147.9900 C   0  0  0  0  0  0  0  0  0  0  0  0
  189.8100  176.8080  144.6740 C   0  0  0  0  0  0  0  0  0  0  0  0
  192.3680  175.6280  144.8750 C   0  0  0  0  0  3  0  0  0  0  0  0
  188.0840  177.7340  146.9570 C   0  0  0  0  0  3  0  0  0  0  0  0
  188.7670  177.1590  142.0990 C   0  0  0  0  0  0  0  0  0  0  0  0
  192.2540  175.8080  147.2740 O   0  0  0  0  0  1  0  0  0  0  0  0
  186.0020  178.5480  144.0190 C   0  0  0  0  0  3  0  0  0  0  0  0
  187.6750  178.0500  149.3420 N   0  0  0  0  0  1  0  0  0  0  0  0
  189.9880  176.6000  142.2840 N   0  0  0  0  0  0  0  0  0  0  0  0
  188.0120  177.5690  143.2060 C   0  0  0  0  0  0  0  0  0  0  0  0
  188.2390  177.3350  140.7760 N   0  0  0  0  0  2  0  0  0  0  0  0
  190.4160  176.5920  145.9240 C   0  0  0  0  0  3  0  0  0  0  0  0
  186.0120  178.7370  147.6950 C   0  0  0  0  0  3  0  0  0  0  0  0
  190.5240  176.4150  143.5150 C   0  0  0  0  0  0  0  0  0  0  0  0
  191.7900  175.8310  143.6220 C   0  0  0  0  0  3  0  0  0  0  0  0
  186.7890  178.1270  143.0010 N   0  0  0  0  0  0  0  0  0  0  0  0
  186.4310  178.4180  145.3320 C   0  0  0  0  0  0  0  0  0  0  0  0
  185.6010  178.8580  146.3680 C   0  0  0  0  0  3  0  0  0  0  0  0
  186.8680  177.5950  135.8130 C   0  0  0  0  0  0  0  0  0  0  0  0
  187.4410  176.1860  137.6910 C   0  0  0  0  0  3  0  0  0  0  0  0
  189.0300  179.5130  138.0930 O   0  0  0  0  0  1  0  0  0  0  0  0
  186.2080  177.7810  134.6060 O   0  0  0  0  0  1  0  0  0  0  0  0
  186.7770  176.3710  136.4770 C   0  0  0  0  0  3  0  0  0  0  0  0
  188.2910  178.4550  137.5790 C   0  0  0  0  0  0  0  0  0  0  0  0
  188.2050  177.2180  138.2600 C   0  0  0  0  0  0  0  0  0  0  0  0
  187.6220  178.6320  136.3640 C   0  0  0  0  0  3  0  0  0  0  0  0
  1 11  1  0  0  0  0
  2  7  1  0  0  0  0
  2  3  1  0  0  0  0
  3  9  1  0  0  0  0
  5  4  2  0  0  0  0
  5 16  1  0  0  0  0
  6 13  1  0  0  0  0
  7 17  2  0  0  0  0
  8  1  2  0  0  0  0
  9  6  2  0  0  0  0
 10 14  2  0  0  0  0
 10 15  1  0  0  0  0
 12 22  1  0  0  0  0
 14 19  1  0  0  0  0
 15  2  2  0  0  0  0
 16 10  1  0  0  0  0
 17  1  1  0  0  0  0
 18  6  1  0  0  0  0
 19 20  2  0  0  0  0
 19  7  1  0  0  0  0
 20  8  1  0  0  0  0
 21 15  1  0  0  0  0
 21 12  2  0  0  0  0
 22  3  2  0  0  0  0
 22 23  1  0  0  0  0
 23 18  2  0  0  0  0
 24 31  2  0  0  0  0
 24 28  1  0  0  0  0
 25 30  1  0  0  0  0
 27 24  1  0  0  0  0
 28 25  2  0  0  0  0
 29 26  1  0  0  0  0
 29 30  2  0  0  0  0
 30  5  1  0  0  0  0
 31 29  1  0  0  0  0
M  END
>  <MODEL>
7

>  <REMARK>
 VINA RESULT:     -10.4      2.609      4.438
  Name = 
  1 active torsions:
  status: ('A' for Active; 'I' for Inactive)
    1  A    between atoms: C_5  and  C_30
                            x       y       z     vdW  Elec       q    Type
                         _______ _______ _______ _____ _____    ______ ____

>  <TORSDO>
F 1

$$$$
=
 OpenBabel11122411073D

 31 35  0  0  0  0  0  0  0  0999 V2000
  183.6440  179.0770  139.2470 C   0  0  0  0  0  0  0  0  0  0  0  0
  187.2660  178.1000  139.5680 C   0  0  0  0  0  0  0  0  0  0  0  0
  187.7950  177.9970  138.2440 C   0  0  0  0  0  0  0  0  0  0  0  0
  187.1290  177.9860  144.8320 O   0  0  0  0  0  0  0  0  0  0  0  0
  188.2940  177.6870  144.4520 C   0  0  0  0  0  0  0  0  0  0  0  0
  187.5740  178.1250  135.8130 C   0  0  0  0  0  0  0  0  0  0  0  0
  185.9180  178.4510  139.8810 C   0  0  0  0  0  0  0  0  0  0  0  0
  183.2720  179.1380  140.5890 C   0  0  0  0  0  3  0  0  0  0  0  0
  187.0240  178.2360  137.0920 C   0  0  0  0  0  3  0  0  0  0  0  0
  187.7000  177.9160  141.9740 C   0  0  0  0  0  0  0  0  0  0  0  0
  182.7130  179.3550  138.2560 O   0  0  0  0  0  1  0  0  0  0  0  0
  189.9590  177.3920  139.1670 C   0  0  0  0  0  3  0  0  0  0  0  0
  186.7670  178.3730  134.6690 N   0  0  0  0  0  1  0  0  0  0  0  0
  186.4110  178.2530  142.2270 N   0  0  0  0  0  0  0  0  0  0  0  0
  188.1530  177.8320  140.6510 C   0  0  0  0  0  0  0  0  0  0  0  0
  188.6060  177.6420  143.0530 N   0  0  0  0  0  2  0  0  0  0  0  0
  184.9530  178.7370  138.8990 C   0  0  0  0  0  3  0  0  0  0  0  0
  188.9140  177.7710  135.6580 C   0  0  0  0  0  3  0  0  0  0  0  0
  185.5220  178.5180  141.2400 C   0  0  0  0  0  0  0  0  0  0  0  0
  184.2100  178.8590  141.5830 C   0  0  0  0  0  3  0  0  0  0  0  0
  189.4480  177.4920  140.4160 N   0  0  0  0  0  0  0  0  0  0  0  0
  189.1550  177.6390  138.0630 C   0  0  0  0  0  0  0  0  0  0  0  0
  189.7040  177.5280  136.7820 C   0  0  0  0  0  3  0  0  0  0  0  0
  191.4180  176.7650  147.2520 C   0  0  0  0  0  0  0  0  0  0  0  0
  190.6150  176.9850  144.9830 C   0  0  0  0  0  3  0  0  0  0  0  0
  187.8980  177.8390  147.3570 O   0  0  0  0  0  1  0  0  0  0  0  0
  192.4380  176.4650  148.1430 O   0  0  0  0  0  1  0  0  0  0  0  0
  191.6440  176.6810  145.8770 C   0  0  0  0  0  3  0  0  0  0  0  0
  189.1300  177.4580  146.8400 C   0  0  0  0  0  0  0  0  0  0  0  0
  189.3490  177.3760  145.4450 C   0  0  0  0  0  0  0  0  0  0  0  0
  190.1640  177.1530  147.7300 C   0  0  0  0  0  3  0  0  0  0  0  0
  1  8  1  0  0  0  0
  2  7  1  0  0  0  0
  2 15  1  0  0  0  0
  3  2  2  0  0  0  0
  5  4  2  0  0  0  0
  5 30  1  0  0  0  0
  6  9  2  0  0  0  0
  7 19  2  0  0  0  0
  8 20  2  0  0  0  0
  9  3  1  0  0  0  0
 10 14  2  0  0  0  0
 10 16  1  0  0  0  0
 11  1  1  0  0  0  0
 12 21  1  0  0  0  0
 13  6  1  0  0  0  0
 15 10  1  0  0  0  0
 16  5  1  0  0  0  0
 17  1  2  0  0  0  0
 17  7  1  0  0  0  0
 18  6  1  0  0  0  0
 18 23  2  0  0  0  0
 19 20  1  0  0  0  0
 19 14  1  0  0  0  0
 21 15  2  0  0  0  0
 22  3  1  0  0  0  0
 22 12  2  0  0  0  0
 23 22  1  0  0  0  0
 24 31  1  0  0  0  0
 24 27  1  0  0  0  0
 25 30  2  0  0  0  0
 25 28  1  0  0  0  0
 28 24  2  0  0  0  0
 29 26  1  0  0  0  0
 29 31  2  0  0  0  0
 30 29  1  0  0  0  0
M  END
>  <MODEL>
8

>  <REMARK>
 VINA RESULT:     -10.2      3.099      7.899
  Name = 
  1 active torsions:
  status: ('A' for Active; 'I' for Inactive)
    1  A    between atoms: C_5  and  C_30
                            x       y       z     vdW  Elec       q    Type
                         _______ _______ _______ _____ _____    ______ ____

>  <TORSDO>
F 1

$$$$
=
 OpenBabel11122411073D

 31 35  0  0  0  0  0  0  0  0999 V2000
  188.4120  177.6230  147.0510 C   0  0  0  0  0  0  0  0  0  0  0  0
  187.2830  177.9030  143.4690 C   0  0  0  0  0  0  0  0  0  0  0  0
  185.9040  178.2800  143.4890 C   0  0  0  0  0  0  0  0  0  0  0  0
  191.9970  176.5990  141.5160 O   0  0  0  0  0  0  0  0  0  0  0  0
  191.2070  176.8080  140.5570 C   0  0  0  0  0  0  0  0  0  0  0  0
  183.8370  178.8530  144.6630 C   0  0  0  0  0  0  0  0  0  0  0  0
  188.0860  177.6920  144.6310 C   0  0  0  0  0  0  0  0  0  0  0  0
  189.7450  177.2580  146.8740 C   0  0  0  0  0  3  0  0  0  0  0  0
  185.1850  178.4860  144.6800 C   0  0  0  0  0  3  0  0  0  0  0  0
  189.2440  177.3560  142.1040 C   0  0  0  0  0  0  0  0  0  0  0  0
  187.8980  177.7740  148.3310 O   0  0  0  0  0  1  0  0  0  0  0  0
  185.8770  178.2660  141.0610 C   0  0  0  0  0  3  0  0  0  0  0  0
  183.1400  179.0530  145.8850 N   0  0  0  0  0  1  0  0  0  0  0  0
  189.9710  177.1660  143.2330 N   0  0  0  0  0  0  0  0  0  0  0  0
  187.8960  177.7250  142.1960 C   0  0  0  0  0  0  0  0  0  0  0  0
  189.8450  177.1800  140.8120 N   0  0  0  0  0  2  0  0  0  0  0  0
  187.5940  177.8370  145.9400 C   0  0  0  0  0  3  0  0  0  0  0  0
  183.1770  179.0230  143.4460 C   0  0  0  0  0  3  0  0  0  0  0  0
  189.4440  177.3200  144.4710 C   0  0  0  0  0  0  0  0  0  0  0  0
  190.2600  177.1070  145.5860 C   0  0  0  0  0  3  0  0  0  0  0  0
  187.1820  177.9100  141.0530 N   0  0  0  0  0  0  0  0  0  0  0  0
  185.2130  178.4580  142.2640 C   0  0  0  0  0  0  0  0  0  0  0  0
  183.8640  178.8260  142.2480 C   0  0  0  0  0  3  0  0  0  0  0  0
  192.4620  176.3900  136.4700 C   0  0  0  0  0  0  0  0  0  0  0  0
  190.7240  176.4440  138.1490 C   0  0  0  0  0  3  0  0  0  0  0  0
  194.0260  176.9720  139.7520 O   0  0  0  0  0  1  0  0  0  0  0  0
  192.8510  176.2540  135.1460 O   0  0  0  0  0  1  0  0  0  0  0  0
  191.1120  176.3060  136.8150 C   0  0  0  0  0  3  0  0  0  0  0  0
  193.0400  176.7520  138.7980 C   0  0  0  0  0  0  0  0  0  0  0  0
  191.6740  176.6680  139.1580 C   0  0  0  0  0  0  0  0  0  0  0  0
  193.4210  176.6130  137.4610 C   0  0  0  0  0  3  0  0  0  0  0  0
  1 11  1  0  0  0  0
  2  3  1  0  0  0  0
  2  7  1  0  0  0  0
  3  9  1  0  0  0  0
  5 16  1  0  0  0  0
  5  4  2  0  0  0  0
  6  9  2  0  0  0  0
  6 13  1  0  0  0  0
  7 17  1  0  0  0  0
  8  1  1  0  0  0  0
 10 15  1  0  0  0  0
 10 14  2  0  0  0  0
 12 22  1  0  0  0  0
 14 19  1  0  0  0  0
 15  2  2  0  0  0  0
 16 10  1  0  0  0  0
 17  1  2  0  0  0  0
 18  6  1  0  0  0  0
 19  7  2  0  0  0  0
 19 20  1  0  0  0  0
 20  8  2  0  0  0  0
 21 12  2  0  0  0  0
 21 15  1  0  0  0  0
 22  3  2  0  0  0  0
 23 22  1  0  0  0  0
 23 18  2  0  0  0  0
 24 28  2  0  0  0  0
 24 31  1  0  0  0  0
 25 30  2  0  0  0  0
 27 24  1  0  0  0  0
 28 25  1  0  0  0  0
 29 30  1  0  0  0  0
 29 26  1  0  0  0  0
 30  5  1  0  0  0  0
 31 29  2  0  0  0  0
M  END
>  <MODEL>
9

>  <REMARK>
 VINA RESULT:     -10.1      2.107      4.456
  Name = 
  1 active torsions:
  status: ('A' for Active; 'I' for Inactive)
    1  A    between atoms: C_5  and  C_30
                            x       y       z     vdW  Elec       q    Type
                         _______ _______ _______ _____ _____    ______ ____

>  <TORSDO>
F 1

$$$$
