=
 OpenBabel11122411223D

 37 44  0  0  1  0  0  0  0  0999 V2000
  187.3870  177.8360  140.0340 O   0  0  0  0  0  0  0  0  0  0  0  0
  190.1470  177.0510  143.3110 C   0  0  0  0  0  0  0  0  0  0  0  0
  186.0460  177.4830  144.4980 C   0  0  1  0  0  3  0  0  0  0  0  0
  187.7020  178.6050  138.9010 C   0  0  2  0  0  3  0  0  0  0  0  0
  183.7130  178.1260  141.6890 O   0  0  0  0  0  0  0  0  0  0  0  0
  188.4710  177.3040  145.1440 C   0  0  2  0  0  3  0  0  0  0  0  0
  185.6220  178.1860  143.2860 N   0  0  0  0  0  0  0  0  0  0  0  0
  185.3370  177.8930  138.2950 C   0  0  0  0  0  0  0  0  0  0  0  0
  187.4950  177.2340  144.2460 C   0  0  2  0  0  3  0  0  0  0  0  0
  184.2070  178.3700  142.9900 C   0  0  0  0  0  0  0  0  0  0  0  0
  188.1310  177.6560  146.5340 C   0  0  0  0  0  3  0  0  0  0  0  0
  186.6600  178.4130  137.7940 C   0  0  0  0  0  2  0  0  0  0  0  0
  187.8080  177.6070  142.9150 C   0  0  0  0  0  0  0  0  0  0  0  0
  190.3190  175.5660  143.0520 C   0  0  0  0  0  1  0  0  0  0  0  0
  184.7840  178.9620  146.0460 C   0  0  0  0  0  3  0  0  0  0  0  0
  186.9150  178.1490  146.8140 C   0  0  0  0  0  3  0  0  0  0  0  0
  189.1200  177.5670  142.4450 O   0  0  0  0  0  0  0  0  0  0  0  0
  184.5330  178.6110  139.3470 C   0  0  1  0  0  3  0  0  0  0  0  0
  184.6040  177.8320  140.6410 C   0  0  1  0  0  3  0  0  0  0  0  0
  185.8870  178.2880  145.7510 C   0  0  0  0  0  0  0  0  0  0  0  0
  186.7460  178.1430  142.3450 C   0  0  0  0  0  0  0  0  0  0  0  0
  189.8070  177.2570  144.7000 O   0  0  0  0  0  0  0  0  0  0  0  0
  183.3180  178.7720  143.9350 C   0  0  0  0  0  0  0  0  0  0  0  0
  191.4540  177.7520  143.0060 C   0  0  0  0  0  1  0  0  0  0  0  0
  185.3720  179.1360  140.5100 C   0  0  1  0  0  3  0  0  0  0  0  0
  184.8870  176.8720  137.8000 O   0  0  0  0  0  0  0  0  0  0  0  0
  186.7800  178.7270  140.9380 C   0  0  2  0  0  3  0  0  0  0  0  0
  183.6310  179.1170  145.2650 O   0  0  0  0  0  0  0  0  0  0  0  0
  180.9140  178.3370  144.4150 C   0  0  0  0  0  3  0  0  0  0  0  0
  181.8820  178.9370  143.5960 C   0  0  0  0  0  0  0  0  0  0  0  0
  181.4580  179.7430  142.5260 C   0  0  0  0  0  3  0  0  0  0  0  0
  179.5900  180.9090  140.9130 Cl  0  0  0  0  0  0  0  0  0  0  0  0
  179.1440  179.2980  143.0720 C   0  0  0  0  0  3  0  0  0  0  0  0
  180.0980  179.9150  142.2600 C   0  0  0  0  0  0  0  0  0  0  0  0
  179.5520  178.5110  144.1520 C   0  0  0  0  0  3  0  0  0  0  0  0
  189.6260  177.0460  139.1480 C   0  0  0  0  0  1  0  0  0  0  0  0
  189.0760  178.2290  138.3770 C   0  0  0  0  0  2  0  0  0  0  0  0
  1 27  1  0  0  0  0
  2 22  1  0  0  0  0
  3 20  1  1  0  0  0
  4 37  1  6  0  0  0
  4  1  1  0  0  0  0
  5 10  1  0  0  0  0
  6 11  1  6  0  0  0
  7  3  1  0  0  0  0
  9 13  1  6  0  0  0
  9  3  1  0  0  0  0
  9  6  1  0  0  0  0
 10  7  1  0  0  0  0
 10 23  2  0  0  0  0
 11 16  2  0  0  0  0
 12  8  1  0  0  0  0
 12  4  1  0  0  0  0
 14  2  1  0  0  0  0
 17 13  1  0  0  0  0
 17  2  1  0  0  0  0
 18  8  1  6  0  0  0
 18 25  1  0  0  0  0
 18 19  1  0  0  0  0
 19  5  1  1  0  0  0
 20 15  2  0  0  0  0
 20 16  1  0  0  0  0
 21 13  2  0  0  0  0
 21  7  1  0  0  0  0
 22  6  1  0  0  0  0
 23 28  1  0  0  0  0
 24  2  1  0  0  0  0
 25 19  1  0  0  0  0
 25 27  1  0  0  0  0
 26  8  2  0  0  0  0
 27 21  1  0  0  0  0
 28 15  1  0  0  0  0
 30 23  1  0  0  0  0
 30 29  2  0  0  0  0
 31 30  1  0  0  0  0
 32 34  1  0  0  0  0
 33 35  2  0  0  0  0
 34 31  2  0  0  0  0
 34 33  1  0  0  0  0
 35 29  1  0  0  0  0
 37 36  1  0  0  0  0
M  END
>  <MODEL>
1

>  <REMARK>
 VINA RESULT:     -11.0      0.000      0.000
  Name = 
  2 active torsions:
  status: ('A' for Active; 'I' for Inactive)
    1  A    between atoms: C_4  and  C_37
    2  A    between atoms: C_23  and  C_30
                            x       y       z     vdW  Elec       q    Type
                         _______ _______ _______ _____ _____    ______ ____

>  <TORSDO>
F 2

$$$$
=
 OpenBabel11122411223D

 37 44  0  0  1  0  0  0  0  0999 V2000
  187.5620  178.0180  144.9410 O   0  0  0  0  0  0  0  0  0  0  0  0
  191.2290  177.0740  142.7900 C   0  0  0  0  0  0  0  0  0  0  0  0
  188.0320  178.5160  140.3170 C   0  0  1  0  0  3  0  0  0  0  0  0
  187.0960  177.3100  146.0610 C   0  0  2  0  0  3  0  0  0  0  0  0
  184.9290  179.3360  142.1750 O   0  0  0  0  0  0  0  0  0  0  0  0
  190.3090  177.4620  140.5010 C   0  0  2  0  0  3  0  0  0  0  0  0
  186.9670  178.2230  141.2780 N   0  0  0  0  0  0  0  0  0  0  0  0
  185.3080  179.1110  145.9180 C   0  0  0  0  0  0  0  0  0  0  0  0
  189.2590  178.0740  141.0390 C   0  0  2  0  0  3  0  0  0  0  0  0
  185.6250  178.7590  141.0890 C   0  0  0  0  0  0  0  0  0  0  0  0
  190.2970  177.1760  139.0560 C   0  0  0  0  0  3  0  0  0  0  0  0
  185.9860  178.0810  146.7830 C   0  0  0  0  0  2  0  0  0  0  0  0
  188.9200  177.7320  142.3720 C   0  0  0  0  0  0  0  0  0  0  0  0
  192.0000  178.3190  143.1880 C   0  0  0  0  0  1  0  0  0  0  0  0
  186.7740  177.6630  138.3500 C   0  0  0  0  0  3  0  0  0  0  0  0
  189.1520  177.2920  138.3660 C   0  0  0  0  0  3  0  0  0  0  0  0
  189.8680  177.1940  143.2410 O   0  0  0  0  0  0  0  0  0  0  0  0
  184.6350  178.7580  144.6180 C   0  0  1  0  0  3  0  0  0  0  0  0
  185.4720  179.2770  143.4710 C   0  0  1  0  0  3  0  0  0  0  0  0
  187.9090  177.7620  139.0290 C   0  0  0  0  0  0  0  0  0  0  0  0
  187.6140  177.8220  142.5320 C   0  0  0  0  0  0  0  0  0  0  0  0
  191.2870  176.9160  141.3540 O   0  0  0  0  0  0  0  0  0  0  0  0
  185.0010  178.7330  139.8830 C   0  0  0  0  0  0  0  0  0  0  0  0
  191.8700  175.8740  143.4520 C   0  0  0  0  0  1  0  0  0  0  0  0
  185.4360  177.7850  143.7550 C   0  0  1  0  0  3  0  0  0  0  0  0
  185.2710  180.2680  146.3090 O   0  0  0  0  0  0  0  0  0  0  0  0
  186.9210  177.4360  143.8320 C   0  0  2  0  0  3  0  0  0  0  0  0
  185.5100  178.1510  138.7060 O   0  0  0  0  0  0  0  0  0  0  0  0
  183.4240  180.3150  138.7840 C   0  0  0  0  0  3  0  0  0  0  0  0
  183.6380  179.3010  139.7290 C   0  0  0  0  0  0  0  0  0  0  0  0
  182.5370  178.7980  140.4450 C   0  0  0  0  0  3  0  0  0  0  0  0
  179.9040  178.6970  141.1560 Cl  0  0  0  0  0  0  0  0  0  0  0  0
  181.0620  180.3460  139.3130 C   0  0  0  0  0  3  0  0  0  0  0  0
  181.2590  179.3250  140.2440 C   0  0  0  0  0  0  0  0  0  0  0  0
  182.1440  180.8400  138.5800 C   0  0  0  0  0  3  0  0  0  0  0  0
  188.1300  177.9490  148.2330 C   0  0  0  0  0  1  0  0  0  0  0  0
  188.2380  177.0410  147.0240 C   0  0  0  0  0  2  0  0  0  0  0  0
  1  4  1  0  0  0  0
  2 14  1  0  0  0  0
  2 17  1  0  0  0  0
  2 24  1  0  0  0  0
  3 20  1  6  0  0  0
  3  9  1  0  0  0  0
  3  7  1  0  0  0  0
  4 12  1  0  0  0  0
  4 37  1  1  0  0  0
  6 11  1  1  0  0  0
  6  9  1  0  0  0  0
  6 22  1  0  0  0  0
  7 21  1  0  0  0  0
  8 26  2  0  0  0  0
  8 12  1  0  0  0  0
  9 13  1  1  0  0  0
 10  7  1  0  0  0  0
 10  5  1  0  0  0  0
 13 21  2  0  0  0  0
 13 17  1  0  0  0  0
 15 28  1  0  0  0  0
 15 20  2  0  0  0  0
 16 20  1  0  0  0  0
 16 11  2  0  0  0  0
 18  8  1  1  0  0  0
 19  5  1  6  0  0  0
 19 25  1  0  0  0  0
 19 18  1  0  0  0  0
 21 27  1  0  0  0  0
 22  2  1  0  0  0  0
 23 10  2  0  0  0  0
 25 27  1  0  0  0  0
 25 18  1  0  0  0  0
 27  1  1  0  0  0  0
 28 23  1  0  0  0  0
 29 30  1  0  0  0  0
 30 23  1  0  0  0  0
 30 31  2  0  0  0  0
 33 34  2  0  0  0  0
 34 31  1  0  0  0  0
 34 32  1  0  0  0  0
 35 29  2  0  0  0  0
 35 33  1  0  0  0  0
 37 36  1  0  0  0  0
M  END
>  <MODEL>
2

>  <REMARK>
 VINA RESULT:     -10.2      1.821      5.437
  Name = 
  2 active torsions:
  status: ('A' for Active; 'I' for Inactive)
    1  A    between atoms: C_4  and  C_37
    2  A    between atoms: C_23  and  C_30
                            x       y       z     vdW  Elec       q    Type
                         _______ _______ _______ _____ _____    ______ ____

>  <TORSDO>
F 2

$$$$
=
 OpenBabel11122411223D

 37 44  0  0  1  0  0  0  0  0999 V2000
  187.1030  178.1160  144.5370 O   0  0  0  0  0  0  0  0  0  0  0  0
  191.0790  177.2890  142.9630 C   0  0  0  0  0  0  0  0  0  0  0  0
  188.1880  178.4210  140.0010 C   0  0  1  0  0  3  0  0  0  0  0  0
  186.5230  177.4350  145.6200 C   0  0  2  0  0  3  0  0  0  0  0  0
  184.8180  179.1440  141.3680 O   0  0  0  0  0  0  0  0  0  0  0  0
  190.4690  177.5130  140.5530 C   0  0  2  0  0  3  0  0  0  0  0  0
  187.0160  178.1110  140.8210 N   0  0  0  0  0  0  0  0  0  0  0  0
  184.6810  179.1190  145.1340 C   0  0  0  0  0  0  0  0  0  0  0  0
  189.3250  178.0870  140.9070 C   0  0  2  0  0  3  0  0  0  0  0  0
  185.6890  178.5590  140.4210 C   0  0  0  0  0  0  0  0  0  0  0  0
  190.6750  177.1590  139.1370 C   0  0  0  0  0  3  0  0  0  0  0  0
  185.2840  178.1730  146.1400 C   0  0  0  0  0  2  0  0  0  0  0  0
  188.8210  177.7890  142.1980 C   0  0  0  0  0  0  0  0  0  0  0  0
  191.7210  178.5950  143.3950 C   0  0  0  0  0  1  0  0  0  0  0  0
  187.2640  177.4040  137.9300 C   0  0  0  0  0  3  0  0  0  0  0  0
  189.6330  177.1740  138.2910 C   0  0  0  0  0  3  0  0  0  0  0  0
  189.6640  177.3500  143.2170 O   0  0  0  0  0  0  0  0  0  0  0  0
  184.2160  178.6660  143.7750 C   0  0  1  0  0  3  0  0  0  0  0  0
  185.1770  179.1790  142.7270 C   0  0  1  0  0  3  0  0  0  0  0  0
  188.2860  177.6010  138.7510 C   0  0  0  0  0  0  0  0  0  0  0  0
  187.5020  177.8090  142.1720 C   0  0  0  0  0  0  0  0  0  0  0  0
  191.3460  177.0670  141.5600 O   0  0  0  0  0  0  0  0  0  0  0  0
  185.2410  178.4390  139.1440 C   0  0  0  0  0  0  0  0  0  0  0  0
  191.6830  176.1610  143.7720 C   0  0  0  0  0  1  0  0  0  0  0  0
  185.1790  177.7020  143.0860 C   0  0  1  0  0  3  0  0  0  0  0  0
  184.5310  180.2880  145.4520 O   0  0  0  0  0  0  0  0  0  0  0  0
  186.6550  177.4450  143.3840 C   0  0  2  0  0  3  0  0  0  0  0  0
  185.9390  177.8320  138.0810 O   0  0  0  0  0  0  0  0  0  0  0  0
  182.8790  177.9770  138.5090 C   0  0  0  0  0  3  0  0  0  0  0  0
  183.8850  178.9170  138.7740 C   0  0  0  0  0  0  0  0  0  0  0  0
  183.5570  180.2840  138.7600 C   0  0  0  0  0  3  0  0  0  0  0  0
  181.8750  182.4070  138.4230 Cl  0  0  0  0  0  0  0  0  0  0  0  0
  181.2710  179.7550  138.1720 C   0  0  0  0  0  3  0  0  0  0  0  0
  182.2600  180.7000  138.4510 C   0  0  0  0  0  0  0  0  0  0  0  0
  181.5790  178.3930  138.2030 C   0  0  0  0  0  3  0  0  0  0  0  0
  188.8870  177.8010  146.3080 C   0  0  0  0  0  1  0  0  0  0  0  0
  187.5310  177.2800  146.7430 C   0  0  0  0  0  2  0  0  0  0  0  0
  1  4  1  0  0  0  0
  2 17  1  0  0  0  0
  2 14  1  0  0  0  0
  2 24  1  0  0  0  0
  3 20  1  6  0  0  0
  3  7  1  0  0  0  0
  3  9  1  0  0  0  0
  4 12  1  0  0  0  0
  4 37  1  1  0  0  0
  6 11  1  6  0  0  0
  6  9  1  0  0  0  0
  6 22  1  0  0  0  0
  7 21  1  0  0  0  0
  8 26  2  0  0  0  0
  8 12  1  0  0  0  0
  9 13  1  1  0  0  0
 10  7  1  0  0  0  0
 10  5  1  0  0  0  0
 13 17  1  0  0  0  0
 15 28  1  0  0  0  0
 15 20  2  0  0  0  0
 16 20  1  0  0  0  0
 16 11  2  0  0  0  0
 18  8  1  1  0  0  0
 19  5  1  6  0  0  0
 19 25  1  0  0  0  0
 19 18  1  0  0  0  0
 21 13  2  0  0  0  0
 21 27  1  0  0  0  0
 22  2  1  0  0  0  0
 23 10  2  0  0  0  0
 25 27  1  0  0  0  0
 25 18  1  0  0  0  0
 27  1  1  0  0  0  0
 28 23  1  0  0  0  0
 29 30  1  0  0  0  0
 30 23  1  0  0  0  0
 31 30  2  0  0  0  0
 32 34  1  0  0  0  0
 33 35  1  0  0  0  0
 33 34  2  0  0  0  0
 34 31  1  0  0  0  0
 35 29  2  0  0  0  0
 36 37  1  0  0  0  0
M  END
>  <MODEL>
3

>  <REMARK>
 VINA RESULT:     -10.1      2.055      5.422
  Name = 
  2 active torsions:
  status: ('A' for Active; 'I' for Inactive)
    1  A    between atoms: C_4  and  C_37
    2  A    between atoms: C_23  and  C_30
                            x       y       z     vdW  Elec       q    Type
                         _______ _______ _______ _____ _____    ______ ____

>  <TORSDO>
F 2

$$$$
=
 OpenBabel11122411223D

 37 44  0  0  1  0  0  0  0  0999 V2000
  187.7560  177.8230  139.7290 O   0  0  0  0  0  0  0  0  0  0  0  0
  189.5890  177.5470  143.6710 C   0  0  0  0  0  0  0  0  0  0  0  0
  185.3030  177.7560  143.7070 C   0  0  1  0  0  3  0  0  0  0  0  0
  188.3180  178.5130  138.6420 C   0  0  2  0  0  3  0  0  0  0  0  0
  183.7650  177.9650  140.3400 O   0  0  0  0  0  0  0  0  0  0  0  0
  187.4760  177.8260  144.9720 C   0  0  2  0  0  3  0  0  0  0  0  0
  185.1770  178.3140  142.3600 N   0  0  0  0  0  0  0  0  0  0  0  0
  186.2390  177.5660  137.5240 C   0  0  0  0  0  0  0  0  0  0  0  0
  186.7770  177.6010  143.8660 C   0  0  2  0  0  3  0  0  0  0  0  0
  183.8830  178.3600  141.6920 C   0  0  0  0  0  0  0  0  0  0  0  0
  186.7620  178.2690  146.1830 C   0  0  0  0  0  3  0  0  0  0  0  0
  187.6180  178.1440  137.3300 C   0  0  0  0  0  2  0  0  0  0  0  0
  187.4120  177.8800  142.6290 C   0  0  0  0  0  0  0  0  0  0  0  0
  189.9020  176.0630  143.6220 C   0  0  0  0  0  1  0  0  0  0  0  0
  183.5990  179.2600  144.7140 C   0  0  0  0  0  3  0  0  0  0  0  0
  185.4910  178.6870  146.0870 C   0  0  0  0  0  3  0  0  0  0  0  0
  188.8010  177.9030  142.5210 O   0  0  0  0  0  0  0  0  0  0  0  0
  185.1490  178.3080  138.2520 C   0  0  1  0  0  3  0  0  0  0  0  0
  184.9160  177.6520  139.5940 C   0  0  1  0  0  3  0  0  0  0  0  0
  184.7740  178.6510  144.7860 C   0  0  0  0  0  0  0  0  0  0  0  0
  186.5110  178.2790  141.7510 C   0  0  0  0  0  0  0  0  0  0  0  0
  188.8820  177.8450  144.8960 O   0  0  0  0  0  0  0  0  0  0  0  0
  182.7560  178.7720  142.3280 C   0  0  0  0  0  0  0  0  0  0  0  0
  190.8900  178.3190  143.6430 C   0  0  0  0  0  1  0  0  0  0  0  0
  185.6210  178.9970  139.5300 C   0  0  1  0  0  3  0  0  0  0  0  0
  185.9910  176.4740  137.0390 O   0  0  0  0  0  0  0  0  0  0  0  0
  186.8850  178.7380  140.3480 C   0  0  2  0  0  3  0  0  0  0  0  0
  182.6870  179.2540  143.6490 O   0  0  0  0  0  0  0  0  0  0  0  0
  180.4580  177.8780  141.9850 C   0  0  0  0  0  3  0  0  0  0  0  0
  181.4540  178.7930  141.6140 C   0  0  0  0  0  0  0  0  0  0  0  0
  181.1600  179.7550  140.6330 C   0  0  0  0  0  3  0  0  0  0  0  0
  179.5660  180.9710  138.7800 Cl  0  0  0  0  0  0  0  0  0  0  0  0
  178.9310  178.8480  140.3770 C   0  0  0  0  0  3  0  0  0  0  0  0
  179.9090  179.7760  140.0110 C   0  0  0  0  0  0  0  0  0  0  0  0
  179.2050  177.9010  141.3660 C   0  0  0  0  0  3  0  0  0  0  0  0
  190.1810  177.1100  139.5120 C   0  0  0  0  0  1  0  0  0  0  0  0
  189.7990  178.2030  138.5330 C   0  0  0  0  0  2  0  0  0  0  0  0
  1 27  1  0  0  0  0
  2 22  1  0  0  0  0
  3  9  1  0  0  0  0
  3 20  1  1  0  0  0
  4 37  1  6  0  0  0
  4  1  1  0  0  0  0
  5 10  1  0  0  0  0
  6 11  1  6  0  0  0
  7  3  1  0  0  0  0
  9 13  1  6  0  0  0
  9  6  1  0  0  0  0
 10 23  2  0  0  0  0
 10  7  1  0  0  0  0
 12  8  1  0  0  0  0
 12  4  1  0  0  0  0
 14  2  1  0  0  0  0
 15 20  2  0  0  0  0
 16 11  2  0  0  0  0
 17 13  1  0  0  0  0
 17  2  1  0  0  0  0
 18  8  1  6  0  0  0
 18 25  1  0  0  0  0
 18 19  1  0  0  0  0
 19  5  1  1  0  0  0
 20 16  1  0  0  0  0
 21  7  1  0  0  0  0
 21 13  2  0  0  0  0
 22  6  1  0  0  0  0
 23 28  1  0  0  0  0
 24  2  1  0  0  0  0
 25 19  1  0  0  0  0
 25 27  1  0  0  0  0
 26  8  2  0  0  0  0
 27 21  1  0  0  0  0
 28 15  1  0  0  0  0
 30 29  1  0  0  0  0
 30 23  1  0  0  0  0
 31 30  2  0  0  0  0
 32 34  1  0  0  0  0
 33 35  1  0  0  0  0
 34 33  2  0  0  0  0
 34 31  1  0  0  0  0
 35 29  2  0  0  0  0
 37 36  1  0  0  0  0
M  END
>  <MODEL>
4

>  <REMARK>
 VINA RESULT:      -9.4      1.280      1.472
  Name = 
  2 active torsions:
  status: ('A' for Active; 'I' for Inactive)
    1  A    between atoms: C_4  and  C_37
    2  A    between atoms: C_23  and  C_30
                            x       y       z     vdW  Elec       q    Type
                         _______ _______ _______ _____ _____    ______ ____

>  <TORSDO>
F 2

$$$$
=
 OpenBabel11122411223D

 37 44  0  0  1  0  0  0  0  0999 V2000
  189.8390  176.7950  145.7650 O   0  0  0  0  0  0  0  0  0  0  0  0
  185.8260  178.4640  146.0500 C   0  0  0  0  0  0  0  0  0  0  0  0
  187.0730  177.4890  142.0620 C   0  0  1  0  0  3  0  0  0  0  0  0
  190.9140  177.1750  146.5850 C   0  0  2  0  0  3  0  0  0  0  0  0
  190.4820  176.0470  141.8480 O   0  0  0  0  0  0  0  0  0  0  0  0
  185.4140  178.6010  143.5920 C   0  0  2  0  0  3  0  0  0  0  0  0
  188.5050  177.4700  142.3620 N   0  0  0  0  0  0  0  0  0  0  0  0
  192.0430  175.3590  145.2090 C   0  0  0  0  0  0  0  0  0  0  0  0
  186.4610  177.8120  143.3830 C   0  0  2  0  0  3  0  0  0  0  0  0
  189.4580  176.9160  141.4080 C   0  0  0  0  0  0  0  0  0  0  0  0
  184.7630  179.2350  142.4310 C   0  0  0  0  0  3  0  0  0  0  0  0
  192.0770  176.1830  146.4710 C   0  0  0  0  0  2  0  0  0  0  0  0
  187.4680  177.7910  144.3810 C   0  0  0  0  0  0  0  0  0  0  0  0
  185.1420  177.2090  146.5580 C   0  0  0  0  0  1  0  0  0  0  0  0
  187.3280  178.7250  139.9200 C   0  0  0  0  0  3  0  0  0  0  0  0
  185.3770  179.2240  141.2380 C   0  0  0  0  0  3  0  0  0  0  0  0
  187.1860  178.1540  145.6970 O   0  0  0  0  0  0  0  0  0  0  0  0
  192.0390  175.9830  143.8380 C   0  0  1  0  0  3  0  0  0  0  0  0
  190.6680  175.8160  143.2220 C   0  0  1  0  0  3  0  0  0  0  0  0
  186.6780  178.5300  141.0590 C   0  0  0  0  0  0  0  0  0  0  0  0
  188.6430  177.5860  143.8180 C   0  0  0  0  0  0  0  0  0  0  0  0
  185.0980  178.9760  144.9110 O   0  0  0  0  0  0  0  0  0  0  0  0
  189.4010  177.2020  140.0820 C   0  0  0  0  0  0  0  0  0  0  0  0
  185.8220  179.5000  147.1540 C   0  0  0  0  0  1  0  0  0  0  0  0
  191.1070  177.1860  143.7110 C   0  0  1  0  0  3  0  0  0  0  0  0
  192.0580  174.1430  145.3060 O   0  0  0  0  0  0  0  0  0  0  0  0
  189.9430  177.5950  144.6120 C   0  0  2  0  0  3  0  0  0  0  0  0
  188.4920  178.0880  139.4700 O   0  0  0  0  0  0  0  0  0  0  0  0
  191.7230  177.0220  139.2030 C   0  0  0  0  0  3  0  0  0  0  0  0
  190.3840  176.6080  139.1410 C   0  0  0  0  0  0  0  0  0  0  0  0
  190.0310  175.5850  138.2450 C   0  0  0  0  0  3  0  0  0  0  0  0
  190.5280  173.7530  136.2830 Cl  0  0  0  0  0  0  0  0  0  0  0  0
  192.3160  175.4480  137.4620 C   0  0  0  0  0  3  0  0  0  0  0  0
  190.9900  175.0150  137.4040 C   0  0  0  0  0  0  0  0  0  0  0  0
  192.6840  176.4500  138.3630 C   0  0  0  0  0  3  0  0  0  0  0  0
  189.2380  178.1500  148.1470 C   0  0  0  0  0  1  0  0  0  0  0  0
  190.4640  177.2650  148.0320 C   0  0  0  0  0  2  0  0  0  0  0  0
  1  4  1  0  0  0  0
  2 14  1  0  0  0  0
  2 24  1  0  0  0  0
  3 20  1  6  0  0  0
  3  7  1  0  0  0  0
  3  9  1  0  0  0  0
  4 37  1  1  0  0  0
  6 11  1  6  0  0  0
  6 22  1  0  0  0  0
  7 21  1  0  0  0  0
  8 26  2  0  0  0  0
  8 12  1  0  0  0  0
  9  6  1  0  0  0  0
  9 13  1  1  0  0  0
 10  5  1  0  0  0  0
 10  7  1  0  0  0  0
 12  4  1  0  0  0  0
 13 17  1  0  0  0  0
 15 20  2  0  0  0  0
 16 11  2  0  0  0  0
 17  2  1  0  0  0  0
 18  8  1  1  0  0  0
 19  5  1  6  0  0  0
 19 25  1  0  0  0  0
 19 18  1  0  0  0  0
 20 16  1  0  0  0  0
 21 13  2  0  0  0  0
 21 27  1  0  0  0  0
 22  2  1  0  0  0  0
 23 10  2  0  0  0  0
 25 18  1  0  0  0  0
 25 27  1  0  0  0  0
 27  1  1  0  0  0  0
 28 15  1  0  0  0  0
 28 23  1  0  0  0  0
 30 29  1  0  0  0  0
 30 23  1  0  0  0  0
 31 30  2  0  0  0  0
 32 34  1  0  0  0  0
 33 35  1  0  0  0  0
 34 33  2  0  0  0  0
 34 31  1  0  0  0  0
 35 29  2  0  0  0  0
 37 36  1  0  0  0  0
M  END
>  <MODEL>
5

>  <REMARK>
 VINA RESULT:      -9.1      3.349      8.198
  Name = 
  2 active torsions:
  status: ('A' for Active; 'I' for Inactive)
    1  A    between atoms: C_4  and  C_37
    2  A    between atoms: C_23  and  C_30
                            x       y       z     vdW  Elec       q    Type
                         _______ _______ _______ _____ _____    ______ ____

>  <TORSDO>
F 2

$$$$
=
 OpenBabel11122411223D

 37 44  0  0  1  0  0  0  0  0999 V2000
  185.5100  178.3000  139.7200 O   0  0  0  0  0  0  0  0  0  0  0  0
  188.8280  177.3720  137.0560 C   0  0  0  0  0  0  0  0  0  0  0  0
  189.7090  176.9080  141.2300 C   0  0  1  0  0  3  0  0  0  0  0  0
  184.5610  179.3070  139.4810 C   0  0  2  0  0  3  0  0  0  0  0  0
  186.8620  177.6780  143.4760 O   0  0  0  0  0  0  0  0  0  0  0  0
  190.5240  177.0050  138.8510 C   0  0  2  0  0  3  0  0  0  0  0  0
  188.6050  177.7460  141.7010 N   0  0  0  0  0  0  0  0  0  0  0  0
  183.6350  178.3480  141.6470 C   0  0  0  0  0  0  0  0  0  0  0  0
  189.5450  176.9470  139.7490 C   0  0  2  0  0  3  0  0  0  0  0  0
  188.2240  177.7520  143.1080 C   0  0  0  0  0  0  0  0  0  0  0  0
  191.9180  177.0310  139.3260 C   0  0  0  0  0  3  0  0  0  0  0  0
  183.3500  179.1600  140.4090 C   0  0  0  0  0  2  0  0  0  0  0  0
  188.3320  177.6080  139.4300 C   0  0  0  0  0  0  0  0  0  0  0  0
  188.3300  176.0090  136.6130 C   0  0  0  0  0  1  0  0  0  0  0  0
  191.3750  177.8480  142.8170 C   0  0  0  0  0  3  0  0  0  0  0  0
  192.1730  177.2590  140.6240 C   0  0  0  0  0  3  0  0  0  0  0  0
  187.9790  177.8680  138.1070 O   0  0  0  0  0  0  0  0  0  0  0  0
  184.7220  178.7180  142.6220 C   0  0  1  0  0  3  0  0  0  0  0  0
  185.8610  177.7330  142.4900 C   0  0  1  0  0  3  0  0  0  0  0  0
  191.0650  177.4270  141.5980 C   0  0  0  0  0  0  0  0  0  0  0  0
  187.7740  178.0620  140.5350 C   0  0  0  0  0  0  0  0  0  0  0  0
  190.1970  177.2570  137.5050 O   0  0  0  0  0  0  0  0  0  0  0  0
  189.1430  177.8210  144.1050 C   0  0  0  0  0  0  0  0  0  0  0  0
  188.7660  178.3190  135.8760 C   0  0  0  0  0  1  0  0  0  0  0  0
  186.0270  179.1460  141.9550 C   0  0  1  0  0  3  0  0  0  0  0  0
  182.9320  177.3790  141.8830 O   0  0  0  0  0  0  0  0  0  0  0  0
  186.4990  178.8960  140.5240 C   0  0  2  0  0  3  0  0  0  0  0  0
  190.5350  177.9570  143.9330 O   0  0  0  0  0  0  0  0  0  0  0  0
  189.6690  177.5770  146.5260 C   0  0  0  0  0  3  0  0  0  0  0  0
  188.7130  177.8130  145.5260 C   0  0  0  0  0  0  0  0  0  0  0  0
  187.3940  178.1140  145.9060 C   0  0  0  0  0  3  0  0  0  0  0  0
  185.3810  178.5030  147.7080 Cl  0  0  0  0  0  0  0  0  0  0  0  0
  187.9880  177.8880  148.2410 C   0  0  0  0  0  3  0  0  0  0  0  0
  187.0320  178.1420  147.2550 C   0  0  0  0  0  0  0  0  0  0  0  0
  189.3070  177.6080  147.8760 C   0  0  0  0  0  3  0  0  0  0  0  0
  183.0740  178.1650  137.8440 C   0  0  0  0  0  1  0  0  0  0  0  0
  184.1020  179.2630  138.0350 C   0  0  0  0  0  2  0  0  0  0  0  0
  1 27  1  0  0  0  0
  2 22  1  0  0  0  0
  2 17  1  0  0  0  0
  3 20  1  6  0  0  0
  3  7  1  0  0  0  0
  4 37  1  6  0  0  0
  4  1  1  0  0  0  0
  4 12  1  0  0  0  0
  6 11  1  1  0  0  0
  6  9  1  0  0  0  0
  7 10  1  0  0  0  0
  8 26  2  0  0  0  0
  9 13  1  1  0  0  0
  9  3  1  0  0  0  0
 10  5  1  0  0  0  0
 10 23  2  0  0  0  0
 11 16  2  0  0  0  0
 12  8  1  0  0  0  0
 13 21  2  0  0  0  0
 14  2  1  0  0  0  0
 15 28  1  0  0  0  0
 16 20  1  0  0  0  0
 17 13  1  0  0  0  0
 18  8  1  6  0  0  0
 19 18  1  0  0  0  0
 19  5  1  1  0  0  0
 20 15  2  0  0  0  0
 21  7  1  0  0  0  0
 22  6  1  0  0  0  0
 23 30  1  0  0  0  0
 24  2  1  0  0  0  0
 25 19  1  0  0  0  0
 25 18  1  0  0  0  0
 27 21  1  0  0  0  0
 27 25  1  0  0  0  0
 28 23  1  0  0  0  0
 29 35  1  0  0  0  0
 30 31  1  0  0  0  0
 30 29  2  0  0  0  0
 31 34  2  0  0  0  0
 34 32  1  0  0  0  0
 34 33  1  0  0  0  0
 35 33  2  0  0  0  0
 36 37  1  0  0  0  0
M  END
>  <MODEL>
6

>  <REMARK>
 VINA RESULT:      -8.9      2.693      6.166
  Name = 
  2 active torsions:
  status: ('A' for Active; 'I' for Inactive)
    1  A    between atoms: C_4  and  C_37
    2  A    between atoms: C_23  and  C_30
                            x       y       z     vdW  Elec       q    Type
                         _______ _______ _______ _____ _____    ______ ____

>  <TORSDO>
F 2

$$$$
=
 OpenBabel11122411223D

 37 44  0  0  1  0  0  0  0  0999 V2000
  185.4570  178.3620  139.9540 O   0  0  0  0  0  0  0  0  0  0  0  0
  187.7750  177.3290  136.4140 C   0  0  0  0  0  0  0  0  0  0  0  0
  189.7900  176.6200  140.1350 C   0  0  1  0  0  3  0  0  0  0  0  0
  184.5620  179.4420  140.0260 C   0  0  2  0  0  3  0  0  0  0  0  0
  187.7880  177.4840  143.1340 O   0  0  0  0  0  0  0  0  0  0  0  0
  189.8840  176.7660  137.6260 C   0  0  2  0  0  3  0  0  0  0  0  0
  188.9410  177.5100  140.9280 N   0  0  0  0  0  0  0  0  0  0  0  0
  184.2320  178.4540  142.3460 C   0  0  0  0  0  0  0  0  0  0  0  0
  189.2070  176.7360  138.7680 C   0  0  2  0  0  3  0  0  0  0  0  0
  188.9860  177.4800  142.3840 C   0  0  0  0  0  0  0  0  0  0  0  0
  191.3540  176.6760  137.6710 C   0  0  0  0  0  3  0  0  0  0  0  0
  183.6650  179.3370  141.2650 C   0  0  0  0  0  2  0  0  0  0  0  0
  188.0100  177.4920  138.8340 C   0  0  0  0  0  0  0  0  0  0  0  0
  187.0640  176.0240  136.1060 C   0  0  0  0  0  1  0  0  0  0  0  0
  191.9140  177.3720  141.1850 C   0  0  0  0  0  3  0  0  0  0  0  0
  191.9920  176.8290  138.8420 C   0  0  0  0  0  3  0  0  0  0  0  0
  187.3090  177.8340  137.6780 O   0  0  0  0  0  0  0  0  0  0  0  0
  185.5810  178.7050  142.9680 C   0  0  1  0  0  3  0  0  0  0  0  0
  186.5520  177.6500  142.4860 C   0  0  1  0  0  3  0  0  0  0  0  0
  191.2310  177.0280  140.1020 C   0  0  0  0  0  0  0  0  0  0  0  0
  187.8340  177.9340  140.0640 C   0  0  0  0  0  0  0  0  0  0  0  0
  189.2010  177.1000  136.4400 O   0  0  0  0  0  0  0  0  0  0  0  0
  190.1580  177.4420  143.0700 C   0  0  0  0  0  0  0  0  0  0  0  0
  187.4470  178.3290  135.3260 C   0  0  0  0  0  1  0  0  0  0  0  0
  186.6660  179.0710  141.9580 C   0  0  1  0  0  3  0  0  0  0  0  0
  183.5540  177.5260  142.7560 O   0  0  0  0  0  0  0  0  0  0  0  0
  186.6810  178.8530  140.4460 C   0  0  2  0  0  3  0  0  0  0  0  0
  191.4460  177.4900  142.5010 O   0  0  0  0  0  0  0  0  0  0  0  0
  189.0800  177.9570  145.2540 C   0  0  0  0  0  3  0  0  0  0  0  0
  190.1600  177.4000  144.5540 C   0  0  0  0  0  0  0  0  0  0  0  0
  191.1730  176.7470  145.2780 C   0  0  0  0  0  3  0  0  0  0  0  0
  192.4020  175.8830  147.5570 Cl  0  0  0  0  0  0  0  0  0  0  0  0
  190.0510  177.2600  147.3590 C   0  0  0  0  0  3  0  0  0  0  0  0
  191.1230  176.6860  146.6730 C   0  0  0  0  0  0  0  0  0  0  0  0
  189.0280  177.8930  146.6500 C   0  0  0  0  0  3  0  0  0  0  0  0
  183.7550  178.1670  138.0470 C   0  0  0  0  0  1  0  0  0  0  0  0
  183.7000  179.4930  138.7780 C   0  0  0  0  0  2  0  0  0  0  0  0
  1  4  1  0  0  0  0
  1 27  1  0  0  0  0
  2 22  1  0  0  0  0
  2 17  1  0  0  0  0
  3 20  1  6  0  0  0
  3  7  1  0  0  0  0
  4 37  1  6  0  0  0
  4 12  1  0  0  0  0
  6 11  1  1  0  0  0
  6  9  1  0  0  0  0
  7 10  1  0  0  0  0
  8 26  2  0  0  0  0
  9 13  1  1  0  0  0
  9  3  1  0  0  0  0
 10 23  2  0  0  0  0
 10  5  1  0  0  0  0
 11 16  2  0  0  0  0
 12  8  1  0  0  0  0
 13 21  2  0  0  0  0
 14  2  1  0  0  0  0
 15 28  1  0  0  0  0
 16 20  1  0  0  0  0
 17 13  1  0  0  0  0
 18  8  1  6  0  0  0
 19 18  1  0  0  0  0
 19  5  1  1  0  0  0
 20 15  2  0  0  0  0
 21 27  1  0  0  0  0
 21  7  1  0  0  0  0
 22  6  1  0  0  0  0
 23 30  1  0  0  0  0
 24  2  1  0  0  0  0
 25 19  1  0  0  0  0
 25 18  1  0  0  0  0
 27 25  1  0  0  0  0
 28 23  1  0  0  0  0
 29 35  1  0  0  0  0
 30 29  2  0  0  0  0
 30 31  1  0  0  0  0
 31 34  2  0  0  0  0
 34 33  1  0  0  0  0
 34 32  1  0  0  0  0
 35 33  2  0  0  0  0
 36 37  1  0  0  0  0
M  END
>  <MODEL>
7

>  <REMARK>
 VINA RESULT:      -8.8      3.417      7.317
  Name = 
  2 active torsions:
  status: ('A' for Active; 'I' for Inactive)
    1  A    between atoms: C_4  and  C_37
    2  A    between atoms: C_23  and  C_30
                            x       y       z     vdW  Elec       q    Type
                         _______ _______ _______ _____ _____    ______ ____

>  <TORSDO>
F 2

$$$$
=
 OpenBabel11122411223D

 37 44  0  0  1  0  0  0  0  0999 V2000
  186.2140  178.3090  137.4930 O   0  0  0  0  0  0  0  0  0  0  0  0
  182.1980  179.1790  138.9390 C   0  0  0  0  0  0  0  0  0  0  0  0
  185.2210  179.1380  141.9850 C   0  0  1  0  0  3  0  0  0  0  0  0
  186.5020  177.4250  136.4400 C   0  0  2  0  0  3  0  0  0  0  0  0
  188.6340  178.4190  140.7260 O   0  0  0  0  0  0  0  0  0  0  0  0
  182.7830  179.2020  141.3660 C   0  0  2  0  0  3  0  0  0  0  0  0
  186.1920  178.3650  141.2090 N   0  0  0  0  0  0  0  0  0  0  0  0
  188.8500  178.2460  136.9670 C   0  0  0  0  0  0  0  0  0  0  0  0
  184.0700  179.2630  141.0440 C   0  0  2  0  0  3  0  0  0  0  0  0
  187.5770  178.2550  141.6500 C   0  0  0  0  0  0  0  0  0  0  0  0
  182.4150  178.9960  142.7780 C   0  0  0  0  0  3  0  0  0  0  0  0
  187.9450  177.5930  135.9540 C   0  0  0  0  0  2  0  0  0  0  0  0
  184.4470  178.7550  139.7750 C   0  0  0  0  0  0  0  0  0  0  0  0
  182.1440  180.6210  138.4690 C   0  0  0  0  0  1  0  0  0  0  0  0
  185.6050  177.8890  144.0990 C   0  0  0  0  0  3  0  0  0  0  0  0
  183.3530  178.6160  143.6590 C   0  0  0  0  0  3  0  0  0  0  0  0
  183.5260  178.6640  138.7330 O   0  0  0  0  0  0  0  0  0  0  0  0
  189.0580  177.6790  138.3470 C   0  0  1  0  0  3  0  0  0  0  0  0
  188.3550  178.5590  139.3550 C   0  0  1  0  0  3  0  0  0  0  0  0
  184.7690  178.4570  143.2410 C   0  0  0  0  0  0  0  0  0  0  0  0
  185.6630  178.2470  139.8470 C   0  0  0  0  0  0  0  0  0  0  0  0
  181.8280  179.1180  140.3340 O   0  0  0  0  0  0  0  0  0  0  0  0
  187.9050  177.9980  142.9420 C   0  0  0  0  0  0  0  0  0  0  0  0
  181.2160  178.3660  138.1240 C   0  0  0  0  0  1  0  0  0  0  0  0
  187.7720  177.1980  139.0150 C   0  0  1  0  0  3  0  0  0  0  0  0
  189.4640  179.2490  136.6400 O   0  0  0  0  0  0  0  0  0  0  0  0
  186.3250  177.5440  138.6690 C   0  0  2  0  0  3  0  0  0  0  0  0
  186.9940  177.7490  143.9880 O   0  0  0  0  0  0  0  0  0  0  0  0
  190.0350  179.0830  143.6390 C   0  0  0  0  0  3  0  0  0  0  0  0
  189.3280  177.9050  143.3530 C   0  0  0  0  0  0  0  0  0  0  0  0
  189.9680  176.6680  143.5430 C   0  0  0  0  0  3  0  0  0  0  0  0
  192.0800  175.0650  144.1890 Cl  0  0  0  0  0  0  0  0  0  0  0  0
  191.9940  177.7940  144.2380 C   0  0  0  0  0  3  0  0  0  0  0  0
  191.2960  176.6140  143.9740 C   0  0  0  0  0  0  0  0  0  0  0  0
  191.3620  179.0290  144.0740 C   0  0  0  0  0  3  0  0  0  0  0  0
  184.1920  177.0480  135.5910 C   0  0  0  0  0  1  0  0  0  0  0  0
  185.5460  177.6580  135.2840 C   0  0  0  0  0  2  0  0  0  0  0  0
  1 27  1  0  0  0  0
  2 22  1  0  0  0  0
  3 20  1  1  0  0  0
  4 37  1  6  0  0  0
  4  1  1  0  0  0  0
  5 10  1  0  0  0  0
  6 11  1  1  0  0  0
  7 10  1  0  0  0  0
  7  3  1  0  0  0  0
  9 13  1  6  0  0  0
  9  6  1  0  0  0  0
  9  3  1  0  0  0  0
 10 23  2  0  0  0  0
 11 16  2  0  0  0  0
 12  4  1  0  0  0  0
 12  8  1  0  0  0  0
 13 21  2  0  0  0  0
 14  2  1  0  0  0  0
 17  2  1  0  0  0  0
 17 13  1  0  0  0  0
 18  8  1  6  0  0  0
 18 25  1  0  0  0  0
 18 19  1  0  0  0  0
 19  5  1  1  0  0  0
 20 16  1  0  0  0  0
 20 15  2  0  0  0  0
 21  7  1  0  0  0  0
 22  6  1  0  0  0  0
 23 30  1  0  0  0  0
 23 28  1  0  0  0  0
 24  2  1  0  0  0  0
 25 19  1  0  0  0  0
 26  8  2  0  0  0  0
 27 25  1  0  0  0  0
 27 21  1  0  0  0  0
 28 15  1  0  0  0  0
 29 35  1  0  0  0  0
 30 31  1  0  0  0  0
 30 29  2  0  0  0  0
 31 34  2  0  0  0  0
 34 32  1  0  0  0  0
 34 33  1  0  0  0  0
 35 33  2  0  0  0  0
 37 36  1  0  0  0  0
M  END
>  <MODEL>
8

>  <REMARK>
 VINA RESULT:      -8.4      3.009      6.978
  Name = 
  2 active torsions:
  status: ('A' for Active; 'I' for Inactive)
    1  A    between atoms: C_4  and  C_37
    2  A    between atoms: C_23  and  C_30
                            x       y       z     vdW  Elec       q    Type
                         _______ _______ _______ _____ _____    ______ ____

>  <TORSDO>
F 2

$$$$
=
 OpenBabel11122411223D

 37 44  0  0  1  0  0  0  0  0999 V2000
  190.4720  177.3330  138.9350 O   0  0  0  0  0  0  0  0  0  0  0  0
  186.6040  178.3340  137.2000 C   0  0  0  0  0  0  0  0  0  0  0  0
  186.7780  178.6560  141.4760 C   0  0  1  0  0  3  0  0  0  0  0  0
  191.3290  176.3390  138.4370 C   0  0  2  0  0  3  0  0  0  0  0  0
  190.0880  177.8250  142.9260 O   0  0  0  0  0  0  0  0  0  0  0  0
  185.4030  178.6340  139.3690 C   0  0  2  0  0  3  0  0  0  0  0  0
  187.9600  177.8080  141.6330 N   0  0  0  0  0  0  0  0  0  0  0  0
  192.7630  177.2290  140.3380 C   0  0  0  0  0  0  0  0  0  0  0  0
  186.5720  178.6670  139.9990 C   0  0  2  0  0  3  0  0  0  0  0  0
  188.6760  177.7570  142.9020 C   0  0  0  0  0  0  0  0  0  0  0  0
  184.1680  178.5860  140.1710 C   0  0  0  0  0  3  0  0  0  0  0  0
  192.7310  176.4610  139.0420 C   0  0  0  0  0  2  0  0  0  0  0  0
  187.6670  178.0220  139.3700 C   0  0  0  0  0  0  0  0  0  0  0  0
  186.9820  179.7130  136.6940 C   0  0  0  0  0  1  0  0  0  0  0  0
  185.5500  177.6570  143.3920 C   0  0  0  0  0  3  0  0  0  0  0  0
  184.2390  178.3140  141.4830 C   0  0  0  0  0  3  0  0  0  0  0  0
  187.6830  177.8070  137.9930 O   0  0  0  0  0  0  0  0  0  0  0  0
  191.9480  176.8230  141.5380 C   0  0  1  0  0  3  0  0  0  0  0  0
  190.8150  177.8070  141.7230 C   0  0  1  0  0  3  0  0  0  0  0  0
  185.5530  178.1190  142.1490 C   0  0  0  0  0  0  0  0  0  0  0  0
  188.4780  177.5340  140.2890 C   0  0  0  0  0  0  0  0  0  0  0  0
  185.3880  178.4280  137.9760 O   0  0  0  0  0  0  0  0  0  0  0  0
  188.0300  177.6510  144.0910 C   0  0  0  0  0  0  0  0  0  0  0  0
  186.3700  177.4270  136.0110 C   0  0  0  0  0  1  0  0  0  0  0  0
  190.5170  176.4120  141.1990 C   0  0  1  0  0  3  0  0  0  0  0  0
  193.5060  178.1940  140.4260 O   0  0  0  0  0  0  0  0  0  0  0  0
  189.7080  176.7070  139.9370 C   0  0  2  0  0  3  0  0  0  0  0  0
  186.6390  177.5140  144.2620 O   0  0  0  0  0  0  0  0  0  0  0  0
  188.2560  178.2290  146.5020 C   0  0  0  0  0  3  0  0  0  0  0  0
  188.7960  177.6140  145.3630 C   0  0  0  0  0  0  0  0  0  0  0  0
  190.0080  176.9130  145.4810 C   0  0  0  0  0  3  0  0  0  0  0  0
  192.1980  175.9950  146.8270 Cl  0  0  0  0  0  0  0  0  0  0  0  0
  190.1430  177.4910  147.8270 C   0  0  0  0  0  3  0  0  0  0  0  0
  190.6820  176.8590  146.7040 C   0  0  0  0  0  0  0  0  0  0  0  0
  188.9290  178.1740  147.7270 C   0  0  0  0  0  3  0  0  0  0  0  0
  190.0890  176.0680  136.2950 C   0  0  0  0  0  1  0  0  0  0  0  0
  191.4190  176.4330  136.9240 C   0  0  0  0  0  2  0  0  0  0  0  0
  1 27  1  0  0  0  0
  2 22  1  0  0  0  0
  2 17  1  0  0  0  0
  3  7  1  0  0  0  0
  3 20  1  1  0  0  0
  4 37  1  6  0  0  0
  4  1  1  0  0  0  0
  4 12  1  0  0  0  0
  6  9  1  0  0  0  0
  6 11  1  1  0  0  0
  7 10  1  0  0  0  0
  8 26  2  0  0  0  0
  9 13  1  6  0  0  0
  9  3  1  0  0  0  0
 10  5  1  0  0  0  0
 10 23  2  0  0  0  0
 11 16  2  0  0  0  0
 12  8  1  0  0  0  0
 13 21  2  0  0  0  0
 14  2  1  0  0  0  0
 15 28  1  0  0  0  0
 16 20  1  0  0  0  0
 17 13  1  0  0  0  0
 18  8  1  6  0  0  0
 18 19  1  0  0  0  0
 19  5  1  1  0  0  0
 20 15  2  0  0  0  0
 21  7  1  0  0  0  0
 22  6  1  0  0  0  0
 23 28  1  0  0  0  0
 23 30  1  0  0  0  0
 24  2  1  0  0  0  0
 25 18  1  0  0  0  0
 25 19  1  0  0  0  0
 27 21  1  0  0  0  0
 27 25  1  0  0  0  0
 29 35  1  0  0  0  0
 30 31  1  0  0  0  0
 30 29  2  0  0  0  0
 31 34  2  0  0  0  0
 34 32  1  0  0  0  0
 34 33  1  0  0  0  0
 35 33  2  0  0  0  0
 36 37  1  0  0  0  0
M  END
>  <MODEL>
9

>  <REMARK>
 VINA RESULT:      -8.2      3.432      6.966
  Name = 
  2 active torsions:
  status: ('A' for Active; 'I' for Inactive)
    1  A    between atoms: C_4  and  C_37
    2  A    between atoms: C_23  and  C_30
                            x       y       z     vdW  Elec       q    Type
                         _______ _______ _______ _____ _____    ______ ____

>  <TORSDO>
F 2

$$$$
