=
 OpenBabel11122410323D

 30 35  0  0  1  0  0  0  0  0999 V2000
  188.0590  177.9110  143.6390 C   0  0  2  0  0  3  0  0  0  0  0  0
  185.8080  178.2020  144.7910 C   0  0  0  0  0  0  0  0  0  0  0  0
  186.1880  178.6840  139.9650 O   0  0  0  0  0  0  0  0  0  0  0  0
  188.6980  177.5410  142.3040 C   0  0  2  0  0  3  0  0  0  0  0  0
  188.6980  177.1890  144.6480 O   0  0  0  0  0  0  0  0  0  0  0  0
  191.6040  178.9970  143.6150 O   0  0  0  0  0  1  0  0  0  0  0  0
  190.3290  176.4380  140.1170 C   0  0  1  0  0  3  0  0  0  0  0  0
  190.8540  177.8210  143.6730 C   0  0  1  0  0  3  0  0  0  0  0  0
  189.0410  176.9350  139.4500 C   0  0  2  0  0  3  0  0  0  0  0  0
  187.2790  178.6810  139.1130 C   0  0  0  0  0  0  0  0  0  0  0  0
  189.8910  177.8930  144.8810 C   0  0  2  0  0  3  0  0  0  0  0  0
  190.1590  177.6140  142.3870 N   0  0  0  0  0  0  0  0  0  0  0  0
  184.4510  178.7600  144.6480 C   0  0  0  0  0  3  0  0  0  0  0  0
  189.3170  176.8030  137.9600 C   0  0  0  0  0  2  0  0  0  0  0  0
  191.2910  176.1650  138.9800 C   0  0  0  0  0  2  0  0  0  0  0  0
  186.3260  178.1380  145.9380 O   0  0  0  0  0  0  0  0  0  0  0  0
  186.6660  178.4650  141.2400 C   0  0  0  0  0  0  0  0  0  0  0  0
  183.8180  178.7790  143.4700 C   0  0  0  0  0  3  0  0  0  0  0  0
  186.5400  177.6510  143.5900 C   0  0  1  0  0  3  0  0  0  0  0  0
  188.1570  178.5280  141.2790 C   0  0  2  0  0  3  0  0  0  0  0  0
  187.1760  178.9280  137.8820 O   0  0  0  0  0  0  0  0  0  0  0  0
  188.5810  178.3680  139.8020 C   0  0  1  0  0  3  0  0  0  0  0  0
  190.4920  175.9620  137.7840 N   0  0  0  0  0  2  0  0  0  0  0  0
  192.1330  177.6580  141.1390 O   0  0  0  0  0  0  0  0  0  0  0  0
  184.4140  178.1890  142.2200 C   0  0  0  0  0  2  0  0  0  0  0  0
  185.9090  178.1800  142.3090 C   0  0  0  0  0  0  0  0  0  0  0  0
  190.9290  177.2870  141.2180 C   0  0  0  0  0  0  0  0  0  0  0  0
  190.5510  177.3440  146.1390 C   0  0  0  0  0  2  0  0  0  0  0  0
  189.1540  178.0240  148.0830 C   0  0  0  0  0  1  0  0  0  0  0  0
  189.5170  176.8830  147.1520 C   0  0  0  0  0  2  0  0  0  0  0  0
  1  5  1  1  0  0  0
  2 16  2  0  0  0  0
  3 17  1  0  0  0  0
  4 12  1  1  0  0  0
  4  1  1  0  0  0  0
  5 11  1  0  0  0  0
  7 15  1  6  0  0  0
  7 27  1  0  0  0  0
  8  6  1  6  0  0  0
  8 11  1  0  0  0  0
  9 14  1  6  0  0  0
  9 22  1  0  0  0  0
  9  7  1  0  0  0  0
 10  3  1  0  0  0  0
 11 28  1  1  0  0  0
 12  8  1  0  0  0  0
 13  2  1  0  0  0  0
 17 26  2  0  0  0  0
 18 13  2  0  0  0  0
 19 26  1  6  0  0  0
 19  1  1  0  0  0  0
 19  2  1  0  0  0  0
 20 17  1  6  0  0  0
 20  4  1  0  0  0  0
 21 10  2  0  0  0  0
 22 10  1  6  0  0  0
 22 20  1  0  0  0  0
 23 14  1  0  0  0  0
 23 15  1  0  0  0  0
 24 27  2  0  0  0  0
 25 26  1  0  0  0  0
 25 18  1  0  0  0  0
 27 12  1  0  0  0  0
 28 30  1  0  0  0  0
 30 29  1  0  0  0  0
M  END
>  <MODEL>
1

>  <REMARK>
 VINA RESULT:     -10.6      0.000      0.000
  Name = 
  2 active torsions:
  status: ('A' for Active; 'I' for Inactive)
    1  A    between atoms: C_11  and  C_28
    2  A    between atoms: C_28  and  C_30
                            x       y       z     vdW  Elec       q    Type
                         _______ _______ _______ _____ _____    ______ ____

>  <TORSDO>
F 2

$$$$
=
 OpenBabel11122410323D

 30 35  0  0  1  0  0  0  0  0999 V2000
  189.2000  177.1710  143.4790 C   0  0  2  0  0  3  0  0  0  0  0  0
  191.1150  176.1560  144.8110 C   0  0  0  0  0  0  0  0  0  0  0  0
  187.4580  178.4170  147.0850 O   0  0  0  0  0  0  0  0  0  0  0  0
  187.7300  177.5690  143.5800 C   0  0  2  0  0  3  0  0  0  0  0  0
  189.3770  176.4400  142.3030 O   0  0  0  0  0  0  0  0  0  0  0  0
  188.3360  179.4570  140.6890 O   0  0  0  0  0  1  0  0  0  0  0  0
  184.8510  178.0200  143.1790 C   0  0  1  0  0  3  0  0  0  0  0  0
  188.0910  178.1450  141.1030 C   0  0  1  0  0  3  0  0  0  0  0  0
  185.0810  178.1900  144.6860 C   0  0  2  0  0  3  0  0  0  0  0  0
  186.3700  179.1310  146.6150 C   0  0  0  0  0  0  0  0  0  0  0  0
  189.4410  177.4130  141.2920 C   0  0  2  0  0  3  0  0  0  0  0  0
  187.2610  178.1580  142.3230 N   0  0  0  0  0  0  0  0  0  0  0  0
  191.8100  176.1660  146.1120 C   0  0  0  0  0  3  0  0  0  0  0  0
  183.7500  178.7080  145.2100 C   0  0  0  0  0  2  0  0  0  0  0  0
  183.4570  178.5540  142.9220 C   0  0  0  0  0  2  0  0  0  0  0  0
  191.7730  175.8930  143.7690 O   0  0  0  0  0  0  0  0  0  0  0  0
  188.1540  177.9620  145.9850 C   0  0  0  0  0  0  0  0  0  0  0  0
  191.1510  176.3580  147.2600 C   0  0  0  0  0  3  0  0  0  0  0  0
  189.6250  176.3870  144.7370 C   0  0  1  0  0  3  0  0  0  0  0  0
  187.6340  178.5690  144.7240 C   0  0  2  0  0  3  0  0  0  0  0  0
  185.5760  179.7370  147.3820 O   0  0  0  0  0  0  0  0  0  0  0  0
  186.2420  179.1150  145.1140 C   0  0  1  0  0  3  0  0  0  0  0  0
  182.7390  178.5000  144.1840 N   0  0  0  0  0  2  0  0  0  0  0  0
  185.5440  179.3880  141.3250 O   0  0  0  0  0  0  0  0  0  0  0  0
  189.6560  176.5220  147.3180 C   0  0  0  0  0  2  0  0  0  0  0  0
  189.1380  177.0520  146.0170 C   0  0  0  0  0  0  0  0  0  0  0  0
  185.8920  178.5850  142.2360 C   0  0  0  0  0  0  0  0  0  0  0  0
  189.8890  176.7520  139.9960 C   0  0  0  0  0  2  0  0  0  0  0  0
  192.0860  177.6070  140.7940 C   0  0  0  0  0  1  0  0  0  0  0  0
  191.2660  177.2360  139.5730 C   0  0  0  0  0  2  0  0  0  0  0  0
  1  5  1  6  0  0  0
  1  4  1  0  0  0  0
  1 19  1  0  0  0  0
  2 13  1  0  0  0  0
  4 12  1  6  0  0  0
  4 20  1  0  0  0  0
  7 15  1  6  0  0  0
  7  9  1  0  0  0  0
  8  6  1  1  0  0  0
  8 11  1  0  0  0  0
  8 12  1  0  0  0  0
  9 22  1  0  0  0  0
  9 14  1  1  0  0  0
 10  3  1  0  0  0  0
 10 21  2  0  0  0  0
 11 28  1  6  0  0  0
 11  5  1  0  0  0  0
 13 18  2  0  0  0  0
 15 23  1  0  0  0  0
 16  2  2  0  0  0  0
 17 26  2  0  0  0  0
 17  3  1  0  0  0  0
 18 25  1  0  0  0  0
 19  2  1  1  0  0  0
 19 26  1  0  0  0  0
 20 22  1  0  0  0  0
 20 17  1  1  0  0  0
 22 10  1  1  0  0  0
 23 14  1  0  0  0  0
 24 27  2  0  0  0  0
 26 25  1  0  0  0  0
 27 12  1  0  0  0  0
 27  7  1  0  0  0  0
 30 28  1  0  0  0  0
 30 29  1  0  0  0  0
M  END
>  <MODEL>
2

>  <REMARK>
 VINA RESULT:      -9.2      2.125      6.439
  Name = 
  2 active torsions:
  status: ('A' for Active; 'I' for Inactive)
    1  A    between atoms: C_11  and  C_28
    2  A    between atoms: C_28  and  C_30
                            x       y       z     vdW  Elec       q    Type
                         _______ _______ _______ _____ _____    ______ ____

>  <TORSDO>
F 2

$$$$
=
 OpenBabel11122410323D

 30 35  0  0  1  0  0  0  0  0999 V2000
  187.2980  178.2230  140.5620 C   0  0  2  0  0  3  0  0  0  0  0  0
  184.8930  178.8560  140.0250 C   0  0  0  0  0  0  0  0  0  0  0  0
  186.1470  177.5400  144.5370 O   0  0  0  0  0  0  0  0  0  0  0  0
  188.3080  178.1570  141.7040 C   0  0  2  0  0  3  0  0  0  0  0  0
  187.9080  178.8470  139.4720 O   0  0  0  0  0  0  0  0  0  0  0  0
  190.1460  176.0600  139.5800 O   0  0  0  0  0  1  0  0  0  0  0  0
  190.6660  178.3220  143.4560 C   0  0  1  0  0  3  0  0  0  0  0  0
  189.8640  177.4090  139.8020 C   0  0  1  0  0  3  0  0  0  0  0  0
  189.4700  178.1720  144.4020 C   0  0  2  0  0  3  0  0  0  0  0  0
  187.3290  177.0590  145.0710 C   0  0  0  0  0  0  0  0  0  0  0  0
  188.6930  177.8400  138.8870 C   0  0  2  0  0  3  0  0  0  0  0  0
  189.5920  177.6290  141.2350 N   0  0  0  0  0  0  0  0  0  0  0  0
  183.4940  178.7520  140.4810 C   0  0  0  0  0  3  0  0  0  0  0  0
  190.1000  177.9770  145.7730 C   0  0  0  0  0  2  0  0  0  0  0  0
  191.8910  178.0910  144.3160 C   0  0  0  0  0  2  0  0  0  0  0  0
  185.1290  178.9260  138.7890 O   0  0  0  0  0  0  0  0  0  0  0  0
  186.3730  177.7860  143.1990 C   0  0  0  0  0  0  0  0  0  0  0  0
  183.1760  178.7570  141.7800 C   0  0  0  0  0  3  0  0  0  0  0  0
  186.0200  178.9500  141.0260 C   0  0  1  0  0  3  0  0  0  0  0  0
  187.6980  177.2520  142.7660 C   0  0  2  0  0  3  0  0  0  0  0  0
  187.4240  176.6730  146.2660 O   0  0  0  0  0  0  0  0  0  0  0  0
  188.4700  177.0370  144.0870 C   0  0  1  0  0  3  0  0  0  0  0  0
  191.5030  178.3550  145.6910 N   0  0  0  0  0  2  0  0  0  0  0  0
  191.6500  176.7580  141.9150 O   0  0  0  0  0  0  0  0  0  0  0  0
  184.2040  178.9230  142.8670 C   0  0  0  0  0  2  0  0  0  0  0  0
  185.5470  178.4620  142.3890 C   0  0  0  0  0  0  0  0  0  0  0  0
  190.6680  177.5050  142.1810 C   0  0  0  0  0  0  0  0  0  0  0  0
  189.2050  178.3320  137.5400 C   0  0  0  0  0  2  0  0  0  0  0  0
  187.2650  177.8570  136.0560 C   0  0  0  0  0  1  0  0  0  0  0  0
  188.0890  178.9470  136.7130 C   0  0  0  0  0  2  0  0  0  0  0  0
  1  5  1  6  0  0  0
  1 19  1  0  0  0  0
  1  4  1  0  0  0  0
  2 13  1  0  0  0  0
  3 10  1  0  0  0  0
  4 12  1  6  0  0  0
  4 20  1  0  0  0  0
  7 15  1  1  0  0  0
  7  9  1  0  0  0  0
  8  6  1  1  0  0  0
  8 12  1  0  0  0  0
  9 14  1  1  0  0  0
 10 21  2  0  0  0  0
 11 28  1  6  0  0  0
 11  5  1  0  0  0  0
 11  8  1  0  0  0  0
 12 27  1  0  0  0  0
 13 18  2  0  0  0  0
 15 23  1  0  0  0  0
 16  2  2  0  0  0  0
 17  3  1  0  0  0  0
 18 25  1  0  0  0  0
 19  2  1  6  0  0  0
 19 26  1  0  0  0  0
 20 17  1  1  0  0  0
 20 22  1  0  0  0  0
 22  9  1  0  0  0  0
 22 10  1  1  0  0  0
 23 14  1  0  0  0  0
 24 27  2  0  0  0  0
 26 25  1  0  0  0  0
 26 17  2  0  0  0  0
 27  7  1  0  0  0  0
 29 30  1  0  0  0  0
 30 28  1  0  0  0  0
M  END
>  <MODEL>
3

>  <REMARK>
 VINA RESULT:      -9.1      1.640      5.612
  Name = 
  2 active torsions:
  status: ('A' for Active; 'I' for Inactive)
    1  A    between atoms: C_11  and  C_28
    2  A    between atoms: C_28  and  C_30
                            x       y       z     vdW  Elec       q    Type
                         _______ _______ _______ _____ _____    ______ ____

>  <TORSDO>
F 2

$$$$
=
 OpenBabel11122410323D

 30 35  0  0  1  0  0  0  0  0999 V2000
  187.9230  177.5780  142.9470 C   0  0  2  0  0  3  0  0  0  0  0  0
  188.9700  177.0100  145.1950 C   0  0  0  0  0  0  0  0  0  0  0  0
  184.5830  179.1010  144.9760 O   0  0  0  0  0  0  0  0  0  0  0  0
  186.5810  177.8010  142.2560 C   0  0  2  0  0  3  0  0  0  0  0  0
  188.6850  176.7140  142.1580 O   0  0  0  0  0  0  0  0  0  0  0  0
  188.4600  179.3150  139.7150 O   0  0  0  0  0  1  0  0  0  0  0  0
  184.2580  177.8270  140.4500 C   0  0  1  0  0  3  0  0  0  0  0  0
  188.0940  178.0570  140.1960 C   0  0  1  0  0  3  0  0  0  0  0  0
  183.7090  178.2390  141.8210 C   0  0  2  0  0  3  0  0  0  0  0  0
  183.8420  179.5990  143.9180 C   0  0  0  0  0  0  0  0  0  0  0  0
  189.2020  177.5330  141.1400 C   0  0  2  0  0  3  0  0  0  0  0  0
  186.7710  178.1400  140.8430 N   0  0  0  0  0  0  0  0  0  0  0  0
  188.9320  177.2930  146.6420 C   0  0  0  0  0  3  0  0  0  0  0  0
  182.2740  178.6570  141.5380 C   0  0  0  0  0  2  0  0  0  0  0  0
  183.1540  178.1420  139.4630 C   0  0  0  0  0  2  0  0  0  0  0  0
  190.0660  176.6850  144.6650 O   0  0  0  0  0  0  0  0  0  0  0  0
  185.7480  178.5830  144.4490 C   0  0  0  0  0  0  0  0  0  0  0  0
  187.7850  177.5640  147.2760 C   0  0  0  0  0  3  0  0  0  0  0  0
  187.7020  177.0420  144.3750 C   0  0  1  0  0  3  0  0  0  0  0  0
  185.8940  178.9340  143.0050 C   0  0  2  0  0  3  0  0  0  0  0  0
  182.7510  180.2050  144.0840 O   0  0  0  0  0  0  0  0  0  0  0  0
  184.4720  179.3530  142.5720 C   0  0  1  0  0  3  0  0  0  0  0  0
  181.9090  178.1790  140.2120 N   0  0  0  0  0  2  0  0  0  0  0  0
  185.7230  178.9910  138.9370 O   0  0  0  0  0  0  0  0  0  0  0  0
  186.4510  177.5480  146.5800 C   0  0  0  0  0  2  0  0  0  0  0  0
  186.6220  177.8170  145.1170 C   0  0  0  0  0  0  0  0  0  0  0  0
  185.6070  178.3770  140.0330 C   0  0  0  0  0  0  0  0  0  0  0  0
  190.2560  176.7540  140.3660 C   0  0  0  0  0  2  0  0  0  0  0  0
  192.0410  177.5540  141.9040 C   0  0  0  0  0  1  0  0  0  0  0  0
  191.6170  177.4240  140.4540 C   0  0  0  0  0  2  0  0  0  0  0  0
  1  5  1  6  0  0  0
  1 19  1  0  0  0  0
  2 13  1  0  0  0  0
  4 12  1  6  0  0  0
  4  1  1  0  0  0  0
  4 20  1  0  0  0  0
  7 15  1  6  0  0  0
  7  9  1  0  0  0  0
  8  6  1  1  0  0  0
  8 12  1  0  0  0  0
  8 11  1  0  0  0  0
  9 14  1  6  0  0  0
  9 22  1  0  0  0  0
 10 21  2  0  0  0  0
 10  3  1  0  0  0  0
 11 28  1  6  0  0  0
 11  5  1  0  0  0  0
 13 18  2  0  0  0  0
 15 23  1  0  0  0  0
 16  2  2  0  0  0  0
 17  3  1  0  0  0  0
 17 26  2  0  0  0  0
 19 26  1  1  0  0  0
 19  2  1  0  0  0  0
 20 17  1  1  0  0  0
 22 20  1  0  0  0  0
 22 10  1  1  0  0  0
 23 14  1  0  0  0  0
 24 27  2  0  0  0  0
 25 18  1  0  0  0  0
 26 25  1  0  0  0  0
 27  7  1  0  0  0  0
 27 12  1  0  0  0  0
 28 30  1  0  0  0  0
 30 29  1  0  0  0  0
M  END
>  <MODEL>
4

>  <REMARK>
 VINA RESULT:      -8.8      2.383      5.413
  Name = 
  2 active torsions:
  status: ('A' for Active; 'I' for Inactive)
    1  A    between atoms: C_11  and  C_28
    2  A    between atoms: C_28  and  C_30
                            x       y       z     vdW  Elec       q    Type
                         _______ _______ _______ _____ _____    ______ ____

>  <TORSDO>
F 2

$$$$
=
 OpenBabel11122410323D

 30 35  0  0  1  0  0  0  0  0999 V2000
  188.0810  177.8240  141.9430 C   0  0  2  0  0  3  0  0  0  0  0  0
  186.4580  178.6210  140.1530 C   0  0  0  0  0  0  0  0  0  0  0  0
  184.9740  178.0550  144.7510 O   0  0  0  0  0  0  0  0  0  0  0  0
  188.3410  177.8600  143.4470 C   0  0  2  0  0  3  0  0  0  0  0  0
  189.2680  178.1520  141.2850 O   0  0  0  0  0  0  0  0  0  0  0  0
  190.5350  175.1940  142.8440 O   0  0  0  0  0  1  0  0  0  0  0  0
  189.4730  178.0790  146.1530 C   0  0  1  0  0  3  0  0  0  0  0  0
  190.4570  176.5840  142.7440 C   0  0  1  0  0  3  0  0  0  0  0  0
  187.9600  178.2540  146.3330 C   0  0  2  0  0  3  0  0  0  0  0  0
  185.6020  177.5500  145.8760 C   0  0  0  0  0  0  0  0  0  0  0  0
  190.0210  176.9660  141.3090 C   0  0  2  0  0  3  0  0  0  0  0  0
  189.5510  177.1050  143.7850 N   0  0  0  0  0  0  0  0  0  0  0  0
  185.0320  178.7720  139.8080 C   0  0  0  0  0  3  0  0  0  0  0  0
  187.7600  178.2530  147.8400 C   0  0  0  0  0  2  0  0  0  0  0  0
  190.0220  177.8750  147.5500 C   0  0  0  0  0  2  0  0  0  0  0  0
  187.2930  178.4240  139.2310 O   0  0  0  0  0  0  0  0  0  0  0  0
  185.8880  178.0120  143.7190 C   0  0  0  0  0  0  0  0  0  0  0  0
  184.1100  179.0620  140.7320 C   0  0  0  0  0  3  0  0  0  0  0  0
  186.9190  178.7710  141.5840 C   0  0  1  0  0  3  0  0  0  0  0  0
  187.1130  177.2530  144.1100 C   0  0  2  0  0  3  0  0  0  0  0  0
  185.0020  177.3910  146.9710 O   0  0  0  0  0  0  0  0  0  0  0  0
  187.0510  177.2060  145.6530 C   0  0  1  0  0  3  0  0  0  0  0  0
  189.0560  178.4400  148.4760 N   0  0  0  0  0  2  0  0  0  0  0  0
  190.7630  176.1440  145.5360 O   0  0  0  0  0  0  0  0  0  0  0  0
  184.4610  179.3110  142.1750 C   0  0  0  0  0  2  0  0  0  0  0  0
  185.7370  178.6130  142.5300 C   0  0  0  0  0  0  0  0  0  0  0  0
  189.9530  177.0390  145.1640 C   0  0  0  0  0  0  0  0  0  0  0  0
  191.2280  177.1280  140.3970 C   0  0  0  0  0  2  0  0  0  0  0  0
  192.2280  176.3780  138.2450 C   0  0  0  0  0  1  0  0  0  0  0  0
  190.9330  176.6270  138.9920 C   0  0  0  0  0  2  0  0  0  0  0  0
  1  5  1  6  0  0  0
  1  4  1  0  0  0  0
  3 10  1  0  0  0  0
  4 12  1  6  0  0  0
  4 20  1  0  0  0  0
  5 11  1  0  0  0  0
  7  9  1  0  0  0  0
  7 15  1  1  0  0  0
  8  6  1  6  0  0  0
  8 12  1  0  0  0  0
  9 14  1  1  0  0  0
 10 21  2  0  0  0  0
 11 28  1  6  0  0  0
 11  8  1  0  0  0  0
 12 27  1  0  0  0  0
 13  2  1  0  0  0  0
 13 18  2  0  0  0  0
 14 23  1  0  0  0  0
 15 23  1  0  0  0  0
 16  2  2  0  0  0  0
 17  3  1  0  0  0  0
 18 25  1  0  0  0  0
 19  2  1  6  0  0  0
 19  1  1  0  0  0  0
 19 26  1  0  0  0  0
 20 17  1  1  0  0  0
 20 22  1  0  0  0  0
 22 10  1  6  0  0  0
 22  9  1  0  0  0  0
 25 26  1  0  0  0  0
 26 17  2  0  0  0  0
 27 24  2  0  0  0  0
 27  7  1  0  0  0  0
 29 30  1  0  0  0  0
 30 28  1  0  0  0  0
M  END
>  <MODEL>
5

>  <REMARK>
 VINA RESULT:      -8.7      1.910      5.837
  Name = 
  2 active torsions:
  status: ('A' for Active; 'I' for Inactive)
    1  A    between atoms: C_11  and  C_28
    2  A    between atoms: C_28  and  C_30
                            x       y       z     vdW  Elec       q    Type
                         _______ _______ _______ _____ _____    ______ ____

>  <TORSDO>
F 2

$$$$
=
 OpenBabel11122410323D

 30 35  0  0  1  0  0  0  0  0999 V2000
  186.1560  178.2910  144.5930 C   0  0  2  0  0  3  0  0  0  0  0  0
  186.4630  178.2710  147.1180 C   0  0  0  0  0  0  0  0  0  0  0  0
  189.8220  176.2880  144.2100 O   0  0  0  0  0  0  0  0  0  0  0  0
  186.9290  178.2470  143.2770 C   0  0  2  0  0  3  0  0  0  0  0  0
  185.2270  179.3310  144.5220 O   0  0  0  0  0  0  0  0  0  0  0  0
  183.8440  177.4380  141.8220 O   0  0  0  0  0  1  0  0  0  0  0  0
  188.0070  178.6730  140.5730 C   0  0  1  0  0  3  0  0  0  0  0  0
  184.5690  178.5310  142.3020 C   0  0  1  0  0  3  0  0  0  0  0  0
  189.1070  177.9230  141.3330 C   0  0  2  0  0  3  0  0  0  0  0  0
  189.8590  176.0740  142.8440 C   0  0  0  0  0  0  0  0  0  0  0  0
  184.1650  178.8010  143.7710 C   0  0  2  0  0  3  0  0  0  0  0  0
  186.0130  178.2800  142.1330 N   0  0  0  0  0  0  0  0  0  0  0  0
  187.1820  177.6280  148.2340 C   0  0  0  0  0  3  0  0  0  0  0  0
  190.1360  177.5850  140.2650 C   0  0  0  0  0  2  0  0  0  0  0  0
  188.4150  178.6160  139.1160 C   0  0  0  0  0  2  0  0  0  0  0  0
  185.3050  178.7250  147.3180 O   0  0  0  0  0  0  0  0  0  0  0  0
  188.6320  176.9280  144.4910 C   0  0  0  0  0  0  0  0  0  0  0  0
  188.4430  177.1990  148.1060 C   0  0  0  0  0  3  0  0  0  0  0  0
  187.1330  178.4450  145.7760 C   0  0  1  0  0  3  0  0  0  0  0  0
  187.7370  176.9580  143.2960 C   0  0  2  0  0  3  0  0  0  0  0  0
  190.7930  175.4410  142.2840 O   0  0  0  0  0  0  0  0  0  0  0  0
  188.6800  176.6570  142.1100 C   0  0  1  0  0  3  0  0  0  0  0  0
  189.8490  178.3840  139.0830 N   0  0  0  0  0  2  0  0  0  0  0  0
  185.8400  177.9390  139.8290 O   0  0  0  0  0  0  0  0  0  0  0  0
  189.2380  177.3880  146.8420 C   0  0  0  0  0  2  0  0  0  0  0  0
  188.3230  177.5020  145.6620 C   0  0  0  0  0  0  0  0  0  0  0  0
  186.5710  178.2530  140.8090 C   0  0  0  0  0  0  0  0  0  0  0  0
  182.9820  179.7560  143.8440 C   0  0  0  0  0  2  0  0  0  0  0  0
  180.8030  179.2580  142.7490 C   0  0  0  0  0  1  0  0  0  0  0  0
  181.6680  179.0030  143.9690 C   0  0  0  0  0  2  0  0  0  0  0  0
  1  5  1  6  0  0  0
  1 19  1  0  0  0  0
  2 16  2  0  0  0  0
  2 13  1  0  0  0  0
  3 17  1  0  0  0  0
  4 12  1  6  0  0  0
  4 20  1  0  0  0  0
  4  1  1  0  0  0  0
  7 15  1  6  0  0  0
  7 27  1  0  0  0  0
  7  9  1  0  0  0  0
  8  6  1  1  0  0  0
  8 11  1  0  0  0  0
  9 14  1  6  0  0  0
  9 22  1  0  0  0  0
 10  3  1  0  0  0  0
 11 28  1  6  0  0  0
 11  5  1  0  0  0  0
 12  8  1  0  0  0  0
 17 26  2  0  0  0  0
 18 13  2  0  0  0  0
 19 26  1  6  0  0  0
 19  2  1  0  0  0  0
 20 17  1  1  0  0  0
 21 10  2  0  0  0  0
 22 10  1  1  0  0  0
 22 20  1  0  0  0  0
 23 15  1  0  0  0  0
 23 14  1  0  0  0  0
 24 27  2  0  0  0  0
 25 18  1  0  0  0  0
 26 25  1  0  0  0  0
 27 12  1  0  0  0  0
 28 30  1  0  0  0  0
 29 30  1  0  0  0  0
M  END
>  <MODEL>
6

>  <REMARK>
 VINA RESULT:      -8.6      1.844      5.233
  Name = 
  2 active torsions:
  status: ('A' for Active; 'I' for Inactive)
    1  A    between atoms: C_11  and  C_28
    2  A    between atoms: C_28  and  C_30
                            x       y       z     vdW  Elec       q    Type
                         _______ _______ _______ _____ _____    ______ ____

>  <TORSDO>
F 2

$$$$
=
 OpenBabel11122410323D

 30 35  0  0  1  0  0  0  0  0999 V2000
  187.0720  178.2490  141.6990 C   0  0  2  0  0  3  0  0  0  0  0  0
  187.7550  178.0200  139.2590 C   0  0  0  0  0  0  0  0  0  0  0  0
  191.1240  178.0590  142.7680 O   0  0  0  0  0  0  0  0  0  0  0  0
  187.5270  177.9290  143.1210 C   0  0  2  0  0  3  0  0  0  0  0  0
  185.7420  177.8490  141.5630 O   0  0  0  0  0  0  0  0  0  0  0  0
  185.1210  180.2770  144.1150 O   0  0  0  0  0  1  0  0  0  0  0  0
  187.7660  177.0970  145.9320 C   0  0  1  0  0  3  0  0  0  0  0  0
  185.2400  178.9510  143.6940 C   0  0  1  0  0  3  0  0  0  0  0  0
  189.2030  177.1360  145.3990 C   0  0  2  0  0  3  0  0  0  0  0  0
  191.0420  178.2700  144.1340 C   0  0  0  0  0  0  0  0  0  0  0  0
  185.0030  178.8810  142.1660 C   0  0  2  0  0  3  0  0  0  0  0  0
  186.5550  178.4180  144.1020 N   0  0  0  0  0  0  0  0  0  0  0  0
  188.8750  178.1550  138.3090 C   0  0  0  0  0  3  0  0  0  0  0  0
  190.0660  176.9250  146.6340 C   0  0  0  0  0  2  0  0  0  0  0  0
  187.8980  176.9820  147.4360 C   0  0  0  0  0  2  0  0  0  0  0  0
  186.5810  178.2300  138.8540 O   0  0  0  0  0  0  0  0  0  0  0  0
  189.8400  178.1240  142.2680 C   0  0  0  0  0  0  0  0  0  0  0  0
  190.1340  177.8680  138.6580 C   0  0  0  0  0  3  0  0  0  0  0  0
  188.0060  177.5690  140.6780 C   0  0  1  0  0  3  0  0  0  0  0  0
  188.8780  178.6070  143.3030 C   0  0  2  0  0  3  0  0  0  0  0  0
  192.0620  178.3420  144.8690 O   0  0  0  0  0  0  0  0  0  0  0  0
  189.6300  178.4120  144.6380 C   0  0  1  0  0  3  0  0  0  0  0  0
  189.2170  176.4340  147.7090 N   0  0  0  0  0  2  0  0  0  0  0  0
  186.2070  178.8780  146.3660 O   0  0  0  0  0  0  0  0  0  0  0  0
  190.4950  177.3360  140.0190 C   0  0  0  0  0  2  0  0  0  0  0  0
  189.4750  177.7560  141.0320 C   0  0  0  0  0  0  0  0  0  0  0  0
  186.8190  178.1950  145.4970 C   0  0  0  0  0  0  0  0  0  0  0  0
  183.5270  178.6810  141.8530 C   0  0  0  0  0  2  0  0  0  0  0  0
  183.2570  179.3170  139.4620 C   0  0  0  0  0  1  0  0  0  0  0  0
  183.3250  178.1600  140.4390 C   0  0  0  0  0  2  0  0  0  0  0  0
  1  5  1  1  0  0  0
  1  4  1  0  0  0  0
  3 10  1  0  0  0  0
  4 20  1  0  0  0  0
  4 12  1  1  0  0  0
  5 11  1  0  0  0  0
  7 15  1  1  0  0  0
  8 12  1  0  0  0  0
  8  6  1  6  0  0  0
  9  7  1  0  0  0  0
  9 14  1  1  0  0  0
 10 21  2  0  0  0  0
 11 28  1  1  0  0  0
 11  8  1  0  0  0  0
 12 27  1  0  0  0  0
 13 18  2  0  0  0  0
 13  2  1  0  0  0  0
 14 23  1  0  0  0  0
 15 23  1  0  0  0  0
 16  2  2  0  0  0  0
 17  3  1  0  0  0  0
 18 25  1  0  0  0  0
 19  2  1  6  0  0  0
 19 26  1  0  0  0  0
 19  1  1  0  0  0  0
 20 17  1  6  0  0  0
 20 22  1  0  0  0  0
 22 10  1  6  0  0  0
 22  9  1  0  0  0  0
 25 26  1  0  0  0  0
 26 17  2  0  0  0  0
 27  7  1  0  0  0  0
 27 24  2  0  0  0  0
 29 30  1  0  0  0  0
 30 28  1  0  0  0  0
M  END
>  <MODEL>
7

>  <REMARK>
 VINA RESULT:      -8.0      2.064      6.619
  Name = 
  2 active torsions:
  status: ('A' for Active; 'I' for Inactive)
    1  A    between atoms: C_11  and  C_28
    2  A    between atoms: C_28  and  C_30
                            x       y       z     vdW  Elec       q    Type
                         _______ _______ _______ _____ _____    ______ ____

>  <TORSDO>
F 2

$$$$
=
 OpenBabel11122410323D

 30 35  0  0  1  0  0  0  0  0999 V2000
  186.7480  178.2170  141.7760 C   0  0  2  0  0  3  0  0  0  0  0  0
  186.2340  178.3190  144.2660 C   0  0  0  0  0  0  0  0  0  0  0  0
  182.7920  179.3730  140.9940 O   0  0  0  0  0  0  0  0  0  0  0  0
  186.0950  178.0200  140.4110 C   0  0  2  0  0  3  0  0  0  0  0  0
  187.8740  177.3960  141.8470 O   0  0  0  0  0  0  0  0  0  0  0  0
  189.0560  179.3780  139.1150 O   0  0  0  0  0  1  0  0  0  0  0  0
  185.3560  177.2180  137.6780 C   0  0  1  0  0  3  0  0  0  0  0  0
  188.5350  178.1860  139.6240 C   0  0  1  0  0  3  0  0  0  0  0  0
  184.0660  177.7610  138.3020 C   0  0  2  0  0  3  0  0  0  0  0  0
  182.8250  179.4940  139.6160 C   0  0  0  0  0  0  0  0  0  0  0  0
  188.8630  178.0940  141.1340 C   0  0  2  0  0  3  0  0  0  0  0  0
  187.0890  178.1150  139.3380 N   0  0  0  0  0  0  0  0  0  0  0  0
  185.3090  178.8590  145.2790 C   0  0  0  0  0  3  0  0  0  0  0  0
  183.0820  177.8110  137.1440 C   0  0  0  0  0  2  0  0  0  0  0  0
  185.0680  177.1020  136.1960 C   0  0  0  0  0  2  0  0  0  0  0  0
  187.4410  178.1330  144.5780 O   0  0  0  0  0  0  0  0  0  0  0  0
  184.0610  179.0170  141.4020 C   0  0  0  0  0  0  0  0  0  0  0  0
  184.0020  179.0030  145.0320 C   0  0  0  0  0  3  0  0  0  0  0  0
  185.7300  177.9290  142.8970 C   0  0  1  0  0  3  0  0  0  0  0  0
  185.0390  179.1080  140.2780 C   0  0  2  0  0  3  0  0  0  0  0  0
  181.8300  179.8810  138.9470 O   0  0  0  0  0  0  0  0  0  0  0  0
  184.1560  179.1320  139.0100 C   0  0  1  0  0  3  0  0  0  0  0  0
  183.6250  177.0230  136.0470 N   0  0  0  0  0  2  0  0  0  0  0  0
  187.3790  178.3500  137.0320 O   0  0  0  0  0  0  0  0  0  0  0  0
  183.3700  178.5760  143.7340 C   0  0  0  0  0  2  0  0  0  0  0  0
  184.3840  178.5910  142.6320 C   0  0  0  0  0  0  0  0  0  0  0  0
  186.6500  177.9460  137.9800 C   0  0  0  0  0  0  0  0  0  0  0  0
  190.2080  177.4170  141.3590 C   0  0  0  0  0  2  0  0  0  0  0  0
  191.3040  176.5290  143.4090 C   0  0  0  0  0  1  0  0  0  0  0  0
  190.1270  176.3780  142.4650 C   0  0  0  0  0  2  0  0  0  0  0  0
  1  5  1  1  0  0  0
  1 19  1  0  0  0  0
  2 16  2  0  0  0  0
  2 13  1  0  0  0  0
  3 17  1  0  0  0  0
  4 12  1  6  0  0  0
  4  1  1  0  0  0  0
  7 15  1  6  0  0  0
  7 27  1  0  0  0  0
  7  9  1  0  0  0  0
  8  6  1  1  0  0  0
  8 11  1  0  0  0  0
  9 14  1  6  0  0  0
  9 22  1  0  0  0  0
 10  3  1  0  0  0  0
 11 28  1  6  0  0  0
 11  5  1  0  0  0  0
 12  8  1  0  0  0  0
 17 26  2  0  0  0  0
 18 13  2  0  0  0  0
 19 26  1  6  0  0  0
 19  2  1  0  0  0  0
 20  4  1  0  0  0  0
 20 17  1  1  0  0  0
 21 10  2  0  0  0  0
 22 10  1  1  0  0  0
 22 20  1  0  0  0  0
 23 15  1  0  0  0  0
 23 14  1  0  0  0  0
 24 27  2  0  0  0  0
 25 18  1  0  0  0  0
 26 25  1  0  0  0  0
 27 12  1  0  0  0  0
 28 30  1  0  0  0  0
 30 29  1  0  0  0  0
M  END
>  <MODEL>
8

>  <REMARK>
 VINA RESULT:      -7.9      2.699      4.344
  Name = 
  2 active torsions:
  status: ('A' for Active; 'I' for Inactive)
    1  A    between atoms: C_11  and  C_28
    2  A    between atoms: C_28  and  C_30
                            x       y       z     vdW  Elec       q    Type
                         _______ _______ _______ _____ _____    ______ ____

>  <TORSDO>
F 2

$$$$
=
 OpenBabel11122410323D

 30 35  0  0  1  0  0  0  0  0999 V2000
  188.8620  177.5000  140.9910 C   0  0  2  0  0  3  0  0  0  0  0  0
  190.3260  176.7810  142.9440 C   0  0  0  0  0  0  0  0  0  0  0  0
  185.9040  178.6480  143.7350 O   0  0  0  0  0  0  0  0  0  0  0  0
  187.4080  177.7150  140.5810 C   0  0  2  0  0  3  0  0  0  0  0  0
  189.4950  176.7550  139.9940 O   0  0  0  0  0  0  0  0  0  0  0  0
  188.7320  179.5580  137.9090 O   0  0  0  0  0  1  0  0  0  0  0  0
  184.7920  177.7880  139.2360 C   0  0  1  0  0  3  0  0  0  0  0  0
  188.5050  178.2420  138.3180 C   0  0  1  0  0  3  0  0  0  0  0  0
  184.4920  178.0400  140.7180 C   0  0  2  0  0  3  0  0  0  0  0  0
  184.9630  179.2020  142.8840 C   0  0  0  0  0  0  0  0  0  0  0  0
  189.7860  177.6920  138.9890 C   0  0  2  0  0  3  0  0  0  0  0  0
  187.3210  178.1950  139.1990 N   0  0  0  0  0  0  0  0  0  0  0  0
  190.5460  176.9250  144.3950 C   0  0  0  0  0  3  0  0  0  0  0  0
  183.0160  178.4060  140.7430 C   0  0  0  0  0  2  0  0  0  0  0  0
  183.5140  178.1340  138.5020 C   0  0  0  0  0  2  0  0  0  0  0  0
  191.3150  176.5650  142.1940 O   0  0  0  0  0  0  0  0  0  0  0  0
  186.9690  178.2440  142.9560 C   0  0  0  0  0  0  0  0  0  0  0  0
  189.5280  177.0740  145.2500 C   0  0  0  0  0  3  0  0  0  0  0  0
  188.9280  176.8210  142.3740 C   0  0  1  0  0  3  0  0  0  0  0  0
  186.8330  178.7350  141.5530 C   0  0  2  0  0  3  0  0  0  0  0  0
  183.9010  179.7320  143.3050 O   0  0  0  0  0  0  0  0  0  0  0  0
  185.3410  179.1170  141.4290 C   0  0  1  0  0  3  0  0  0  0  0  0
  182.4290  178.0360  139.4640 N   0  0  0  0  0  2  0  0  0  0  0  0
  185.9100  179.1640  137.6100 O   0  0  0  0  0  0  0  0  0  0  0  0
  188.0890  177.0520  144.8090 C   0  0  0  0  0  2  0  0  0  0  0  0
  187.9770  177.4660  143.3740 C   0  0  0  0  0  0  0  0  0  0  0  0
  186.0200  178.4450  138.6410 C   0  0  0  0  0  0  0  0  0  0  0  0
  190.7040  177.0460  137.9610 C   0  0  0  0  0  2  0  0  0  0  0  0
  193.0630  176.6230  138.6330 C   0  0  0  0  0  1  0  0  0  0  0  0
  191.6560  176.0560  138.6130 C   0  0  0  0  0  2  0  0  0  0  0  0
  1  5  1  6  0  0  0
  1 19  1  0  0  0  0
  2 13  1  0  0  0  0
  4 12  1  6  0  0  0
  4  1  1  0  0  0  0
  4 20  1  0  0  0  0
  7 15  1  6  0  0  0
  7  9  1  0  0  0  0
  8  6  1  1  0  0  0
  8 11  1  0  0  0  0
  8 12  1  0  0  0  0
  9 14  1  6  0  0  0
  9 22  1  0  0  0  0
 10 21  2  0  0  0  0
 10  3  1  0  0  0  0
 11 28  1  6  0  0  0
 11  5  1  0  0  0  0
 13 18  2  0  0  0  0
 15 23  1  0  0  0  0
 16  2  2  0  0  0  0
 17 26  2  0  0  0  0
 17  3  1  0  0  0  0
 19  2  1  1  0  0  0
 19 26  1  0  0  0  0
 20 17  1  1  0  0  0
 22 20  1  0  0  0  0
 22 10  1  1  0  0  0
 23 14  1  0  0  0  0
 24 27  2  0  0  0  0
 25 18  1  0  0  0  0
 26 25  1  0  0  0  0
 27 12  1  0  0  0  0
 27  7  1  0  0  0  0
 28 30  1  0  0  0  0
 30 29  1  0  0  0  0
M  END
>  <MODEL>
9

>  <REMARK>
 VINA RESULT:      -7.8      2.431      5.831
  Name = 
  2 active torsions:
  status: ('A' for Active; 'I' for Inactive)
    1  A    between atoms: C_11  and  C_28
    2  A    between atoms: C_28  and  C_30
                            x       y       z     vdW  Elec       q    Type
                         _______ _______ _______ _____ _____    ______ ____

>  <TORSDO>
F 2

$$$$
