=
 OpenBabel11122411543D

 28 32  0  0  1  0  0  0  0  0999 V2000
  181.0150  179.4180  140.3520 C   0  0  0  0  0  0  0  0  0  0  0  0
  180.6620  176.5370  137.7920 O   0  0  0  0  0  0  0  0  0  0  0  0
  187.1140  178.7200  141.1590 O   0  0  0  0  0  0  0  0  0  0  0  0
  180.6980  181.4560  138.4530 C   0  0  0  0  0  3  0  0  0  0  0  0
  186.3410  178.2940  138.9670 N   0  0  0  0  0  0  0  0  0  0  0  0
  181.1810  178.3670  141.4060 C   0  0  0  0  0  2  0  0  0  0  0  0
  181.3880  177.0270  135.4930 O   0  0  0  0  0  0  0  0  0  0  0  0
  181.8470  176.6630  136.8760 S   0  0  0  0  0  0  0  0  0  0  0  0
  184.0370  175.0780  137.3220 C   0  0  0  0  0  0  0  0  0  0  0  0
  182.9650  177.9100  137.4650 C   0  0  2  0  0  3  0  0  0  0  0  0
  183.9080  179.4020  143.6340 O   0  0  0  0  0  0  0  0  0  0  0  0
  184.1410  178.7430  139.2970 C   0  0  2  0  0  3  0  0  0  0  0  0
  184.7590  176.1280  137.5850 N   0  0  0  0  0  0  0  0  0  0  0  0
  182.7050  175.1750  136.8240 N   0  0  0  0  0  2  0  0  0  0  0  0
  183.3460  178.8240  142.6670 C   0  0  0  0  0  0  0  0  0  0  0  0
  181.7680  179.3900  139.1610 C   0  0  0  0  0  0  0  0  0  0  0  0
  186.1700  178.6820  140.3260 C   0  0  0  0  0  0  0  0  0  0  0  0
  184.5990  173.7320  137.6020 C   0  0  0  0  0  1  0  0  0  0  0  0
  184.1860  178.0730  141.6840 C   0  0  0  0  0  2  0  0  0  0  0  0
  181.6120  180.4240  138.2250 C   0  0  0  0  0  3  0  0  0  0  0  0
  180.1020  180.4560  140.5730 C   0  0  0  0  0  3  0  0  0  0  0  0
  179.9400  181.4700  139.6250 C   0  0  0  0  0  3  0  0  0  0  0  0
  181.9240  178.9000  142.5390 N   0  0  0  0  0  2  0  0  0  0  0  0
  185.0330  178.3480  138.4220 C   0  0  2  0  0  3  0  0  0  0  0  0
  184.7450  179.0280  140.6400 C   0  0  2  0  0  3  0  0  0  0  0  0
  184.4550  177.5410  137.3130 C   0  0  2  0  0  3  0  0  0  0  0  0
  187.4670  177.5490  138.4300 C   0  0  0  0  0  1  0  0  0  0  0  0
  182.7750  178.2970  138.9370 C   0  0  1  0  0  3  0  0  0  0  0  0
  1 21  1  0  0  0  0
  1  6  1  0  0  0  0
  4 22  1  0  0  0  0
  5 17  1  0  0  0  0
  6 23  1  0  0  0  0
  7  8  2  0  0  0  0
  8  2  2  0  0  0  0
  9 13  2  0  0  0  0
  9 18  1  0  0  0  0
 10  8  1  1  0  0  0
 10 28  1  0  0  0  0
 12 25  1  0  0  0  0
 14  8  1  0  0  0  0
 14  9  1  0  0  0  0
 15 11  2  0  0  0  0
 16  1  2  0  0  0  0
 17 25  1  0  0  0  0
 17  3  2  0  0  0  0
 19 15  1  0  0  0  0
 20  4  2  0  0  0  0
 20 16  1  0  0  0  0
 22 21  2  0  0  0  0
 23 15  1  0  0  0  0
 24  5  1  0  0  0  0
 24 12  1  0  0  0  0
 25 19  1  0  0  0  0
 26 10  1  0  0  0  0
 26 13  1  0  0  0  0
 26 24  1  0  0  0  0
 27  5  1  0  0  0  0
 28 16  1  0  0  0  0
 28 12  1  0  0  0  0
M  END
>  <MODEL>
1

>  <REMARK>
 VINA RESULT:      -6.6      0.000      0.000
  Name = 
  0 active torsions:
  status: ('A' for Active; 'I' for Inactive)
                            x       y       z     vdW  Elec       q    Type
                         _______ _______ _______ _____ _____    ______ ____

>  <TORSDO>
F 0

$$$$
=
 OpenBabel11122411543D

 28 32  0  0  1  0  0  0  0  0999 V2000
  180.7700  178.4760  142.1520 C   0  0  0  0  0  0  0  0  0  0  0  0
  180.7480  181.3570  139.5680 O   0  0  0  0  0  0  0  0  0  0  0  0
  181.0700  173.9410  137.9470 O   0  0  0  0  0  0  0  0  0  0  0  0
  183.4010  178.9440  142.9980 C   0  0  0  0  0  3  0  0  0  0  0  0
  182.2480  175.9090  137.3800 N   0  0  0  0  0  0  0  0  0  0  0  0
  179.3580  178.1920  141.7410 C   0  0  0  0  0  2  0  0  0  0  0  0
  182.9180  181.9390  138.5650 O   0  0  0  0  0  0  0  0  0  0  0  0
  181.7660  180.9760  138.5290 S   0  0  0  0  0  0  0  0  0  0  0  0
  180.9080  179.8050  136.2050 C   0  0  0  0  0  0  0  0  0  0  0  0
  182.3700  179.3320  138.8180 C   0  0  2  0  0  3  0  0  0  0  0  0
  178.9710  174.5550  141.4240 O   0  0  0  0  0  0  0  0  0  0  0  0
  181.8060  177.1130  139.2520 C   0  0  2  0  0  3  0  0  0  0  0  0
  181.5410  178.7100  136.5080 N   0  0  0  0  0  0  0  0  0  0  0  0
  181.0440  181.0000  136.9690 N   0  0  0  0  0  2  0  0  0  0  0  0
  179.1930  175.7410  141.0650 C   0  0  0  0  0  0  0  0  0  0  0  0
  181.7970  178.6230  141.1990 C   0  0  0  0  0  0  0  0  0  0  0  0
  181.4540  175.1040  138.2440 C   0  0  0  0  0  0  0  0  0  0  0  0
  179.9670  179.7950  135.0560 C   0  0  0  0  0  1  0  0  0  0  0  0
  179.6260  176.0040  139.6590 C   0  0  0  0  0  2  0  0  0  0  0  0
  183.1140  178.8420  141.6350 C   0  0  0  0  0  3  0  0  0  0  0  0
  181.0680  178.5800  143.5160 C   0  0  0  0  0  3  0  0  0  0  0  0
  182.3780  178.8170  143.9380 C   0  0  0  0  0  3  0  0  0  0  0  0
  179.0240  176.8000  142.0110 N   0  0  0  0  0  2  0  0  0  0  0  0
  182.3970  177.1310  138.0830 C   0  0  2  0  0  3  0  0  0  0  0  0
  181.1280  175.8030  139.5290 C   0  0  2  0  0  3  0  0  0  0  0  0
  182.5750  178.5030  137.5330 C   0  0  2  0  0  3  0  0  0  0  0  0
  182.4170  175.7120  135.9500 C   0  0  0  0  0  1  0  0  0  0  0  0
  181.4880  178.4770  139.7350 C   0  0  1  0  0  3  0  0  0  0  0  0
  1 21  1  0  0  0  0
  3 17  2  0  0  0  0
  4 22  1  0  0  0  0
  5 24  1  0  0  0  0
  5 17  1  0  0  0  0
  6 23  1  0  0  0  0
  6  1  1  0  0  0  0
  8  7  2  0  0  0  0
  8  2  2  0  0  0  0
  9 13  2  0  0  0  0
  9 14  1  0  0  0  0
 10  8  1  6  0  0  0
 10 28  1  0  0  0  0
 12 25  1  0  0  0  0
 12 28  1  0  0  0  0
 13 26  1  0  0  0  0
 14  8  1  0  0  0  0
 15 11  2  0  0  0  0
 15 23  1  0  0  0  0
 16 20  1  0  0  0  0
 16  1  2  0  0  0  0
 17 25  1  0  0  0  0
 18  9  1  0  0  0  0
 19 15  1  0  0  0  0
 20  4  2  0  0  0  0
 21 22  2  0  0  0  0
 24 12  1  0  0  0  0
 25 19  1  0  0  0  0
 26 24  1  0  0  0  0
 26 10  1  0  0  0  0
 27  5  1  0  0  0  0
 28 16  1  0  0  0  0
M  END
>  <MODEL>
2

>  <REMARK>
 VINA RESULT:      -6.2      3.045      4.965
  Name = 
  0 active torsions:
  status: ('A' for Active; 'I' for Inactive)
                            x       y       z     vdW  Elec       q    Type
                         _______ _______ _______ _____ _____    ______ ____

>  <TORSDO>
F 0

$$$$
=
 OpenBabel11122411543D

 28 32  0  0  1  0  0  0  0  0999 V2000
  184.7880  176.8840  137.6490 C   0  0  0  0  0  0  0  0  0  0  0  0
  181.6960  178.6530  136.1360 O   0  0  0  0  0  0  0  0  0  0  0  0
  183.9360  179.0570  143.3850 O   0  0  0  0  0  0  0  0  0  0  0  0
  183.6410  174.3260  137.5960 C   0  0  0  0  0  3  0  0  0  0  0  0
  181.9520  178.5870  142.1900 N   0  0  0  0  0  0  0  0  0  0  0  0
  185.4470  178.2280  137.6910 C   0  0  0  0  0  2  0  0  0  0  0  0
  179.5130  177.6140  136.5940 O   0  0  0  0  0  0  0  0  0  0  0  0
  180.5990  178.4890  137.1510 S   0  0  0  0  0  0  0  0  0  0  0  0
  180.0770  180.5520  138.8760 C   0  0  0  0  0  0  0  0  0  0  0  0
  181.2290  177.7580  138.6410 C   0  0  2  0  0  3  0  0  0  0  0  0
  187.1770  178.5530  140.9130 O   0  0  0  0  0  0  0  0  0  0  0  0
  182.8930  177.8210  140.2720 C   0  0  2  0  0  3  0  0  0  0  0  0
  180.4400  179.8170  139.8860 N   0  0  0  0  0  0  0  0  0  0  0  0
  179.9480  180.0260  137.5590 N   0  0  0  0  0  2  0  0  0  0  0  0
  186.2470  178.6610  140.0710 C   0  0  0  0  0  0  0  0  0  0  0  0
  183.4930  176.6850  138.1690 C   0  0  0  0  0  0  0  0  0  0  0  0
  183.3670  178.6280  142.3460 C   0  0  0  0  0  0  0  0  0  0  0  0
  179.8430  182.0030  139.0930 C   0  0  0  0  0  1  0  0  0  0  0  0
  184.9300  179.2130  140.5110 C   0  0  0  0  0  2  0  0  0  0  0  0
  182.9350  175.3970  138.1510 C   0  0  0  0  0  3  0  0  0  0  0  0
  185.4870  175.8050  137.0950 C   0  0  0  0  0  3  0  0  0  0  0  0
  184.9150  174.5320  137.0650 C   0  0  0  0  0  3  0  0  0  0  0  0
  186.4780  178.2530  138.7190 N   0  0  0  0  0  2  0  0  0  0  0  0
  181.7620  178.0910  140.8750 C   0  0  2  0  0  3  0  0  0  0  0  0
  184.0850  178.1130  141.1350 C   0  0  2  0  0  3  0  0  0  0  0  0
  180.6410  178.3610  139.9340 C   0  0  2  0  0  3  0  0  0  0  0  0
  180.9870  179.3380  142.9750 C   0  0  0  0  0  1  0  0  0  0  0  0
  182.7530  177.8330  138.7970 C   0  0  1  0  0  3  0  0  0  0  0  0
  1  6  1  0  0  0  0
  1 16  1  0  0  0  0
  2  8  2  0  0  0  0
  4 20  1  0  0  0  0
  5 17  1  0  0  0  0
  5 27  1  0  0  0  0
  6 23  1  0  0  0  0
  7  8  2  0  0  0  0
  8 14  1  0  0  0  0
  9 18  1  0  0  0  0
  9 13  2  0  0  0  0
 10  8  1  6  0  0  0
 10 28  1  0  0  0  0
 10 26  1  0  0  0  0
 12 24  1  0  0  0  0
 12 25  1  0  0  0  0
 13 26  1  0  0  0  0
 14  9  1  0  0  0  0
 15 19  1  0  0  0  0
 15 11  2  0  0  0  0
 16 28  1  0  0  0  0
 17  3  2  0  0  0  0
 19 25  1  0  0  0  0
 20 16  2  0  0  0  0
 21  1  2  0  0  0  0
 22 21  1  0  0  0  0
 22  4  2  0  0  0  0
 23 15  1  0  0  0  0
 24  5  1  0  0  0  0
 25 17  1  0  0  0  0
 26 24  1  0  0  0  0
 28 12  1  0  0  0  0
M  END
>  <MODEL>
3

>  <REMARK>
 VINA RESULT:      -6.0      1.647      5.256
  Name = 
  0 active torsions:
  status: ('A' for Active; 'I' for Inactive)
                            x       y       z     vdW  Elec       q    Type
                         _______ _______ _______ _____ _____    ______ ____

>  <TORSDO>
F 0

$$$$
=
 OpenBabel11122411543D

 28 32  0  0  1  0  0  0  0  0999 V2000
  181.6320  178.9680  139.8370 C   0  0  0  0  0  0  0  0  0  0  0  0
  180.7970  175.5510  138.2230 O   0  0  0  0  0  0  0  0  0  0  0  0
  187.7540  178.4940  139.0360 O   0  0  0  0  0  0  0  0  0  0  0  0
  180.6700  180.4820  137.6830 C   0  0  0  0  0  3  0  0  0  0  0  0
  186.4450  177.5480  137.3110 N   0  0  0  0  0  0  0  0  0  0  0  0
  182.1520  178.2040  141.0160 C   0  0  0  0  0  2  0  0  0  0  0  0
  180.8330  175.4680  135.7650 O   0  0  0  0  0  0  0  0  0  0  0  0
  181.6760  175.4510  137.0080 S   0  0  0  0  0  0  0  0  0  0  0  0
  184.0090  174.0250  137.1770 C   0  0  0  0  0  0  0  0  0  0  0  0
  182.8220  176.8060  136.9520 C   0  0  2  0  0  3  0  0  0  0  0  0
  185.3050  179.7530  142.0830 O   0  0  0  0  0  0  0  0  0  0  0  0
  184.3920  178.0600  138.1330 C   0  0  2  0  0  3  0  0  0  0  0  0
  184.7010  175.1080  136.9740 N   0  0  0  0  0  0  0  0  0  0  0  0
  182.5890  173.9960  137.0650 N   0  0  0  0  0  2  0  0  0  0  0  0
  184.5420  178.9570  141.4750 C   0  0  0  0  0  0  0  0  0  0  0  0
  182.0330  178.6520  138.5230 C   0  0  0  0  0  0  0  0  0  0  0  0
  186.6240  178.2540  138.5340 C   0  0  0  0  0  0  0  0  0  0  0  0
  184.7180  172.7890  137.5930 C   0  0  0  0  0  1  0  0  0  0  0  0
  185.1320  177.9910  140.4990 C   0  0  0  0  0  2  0  0  0  0  0  0
  181.5560  179.4270  137.4540 C   0  0  0  0  0  3  0  0  0  0  0  0
  180.7440  180.0270  140.0570 C   0  0  0  0  0  3  0  0  0  0  0  0
  180.2610  180.7800  138.9840 C   0  0  0  0  0  3  0  0  0  0  0  0
  183.1360  178.9980  141.7380 N   0  0  0  0  0  2  0  0  0  0  0  0
  185.0370  177.4650  137.1600 C   0  0  2  0  0  3  0  0  0  0  0  0
  185.3180  178.6640  139.1470 C   0  0  2  0  0  3  0  0  0  0  0  0
  184.2370  176.4120  136.4780 C   0  0  2  0  0  3  0  0  0  0  0  0
  187.4310  176.6950  136.6690 C   0  0  0  0  0  1  0  0  0  0  0  0
  183.0140  177.5390  138.2850 C   0  0  1  0  0  3  0  0  0  0  0  0
  1 21  1  0  0  0  0
  1  6  1  0  0  0  0
  4 22  1  0  0  0  0
  5 17  1  0  0  0  0
  6 23  1  0  0  0  0
  7  8  2  0  0  0  0
  8 14  1  0  0  0  0
  8  2  2  0  0  0  0
  9 18  1  0  0  0  0
 10  8  1  1  0  0  0
 10 28  1  0  0  0  0
 12 28  1  0  0  0  0
 12 25  1  0  0  0  0
 13  9  2  0  0  0  0
 14  9  1  0  0  0  0
 15 23  1  0  0  0  0
 15 11  2  0  0  0  0
 16  1  2  0  0  0  0
 17  3  2  0  0  0  0
 17 25  1  0  0  0  0
 19 15  1  0  0  0  0
 20  4  2  0  0  0  0
 20 16  1  0  0  0  0
 22 21  2  0  0  0  0
 24  5  1  0  0  0  0
 24 12  1  0  0  0  0
 25 19  1  0  0  0  0
 26 10  1  0  0  0  0
 26 13  1  0  0  0  0
 26 24  1  0  0  0  0
 27  5  1  0  0  0  0
 28 16  1  0  0  0  0
M  END
>  <MODEL>
4

>  <REMARK>
 VINA RESULT:      -5.7      1.263      1.432
  Name = 
  0 active torsions:
  status: ('A' for Active; 'I' for Inactive)
                            x       y       z     vdW  Elec       q    Type
                         _______ _______ _______ _____ _____    ______ ____

>  <TORSDO>
F 0

$$$$
=
 OpenBabel11122411543D

 28 32  0  0  1  0  0  0  0  0999 V2000
  181.9830  176.4880  136.5540 C   0  0  0  0  0  0  0  0  0  0  0  0
  184.8460  178.5280  138.1710 O   0  0  0  0  0  0  0  0  0  0  0  0
  178.9310  175.4940  141.8490 O   0  0  0  0  0  0  0  0  0  0  0  0
  180.7680  178.7080  135.3470 C   0  0  0  0  0  3  0  0  0  0  0  0
  180.0050  177.5920  141.6940 N   0  0  0  0  0  0  0  0  0  0  0  0
  182.5990  175.2690  137.1700 C   0  0  0  0  0  2  0  0  0  0  0  0
  184.3340  180.8680  138.7360 O   0  0  0  0  0  0  0  0  0  0  0  0
  184.1820  179.4370  139.1680 S   0  0  0  0  0  0  0  0  0  0  0  0
  184.1430  178.7000  141.8060 C   0  0  0  0  0  0  0  0  0  0  0  0
  182.4550  179.0520  139.3130 C   0  0  2  0  0  3  0  0  0  0  0  0
  179.9020  173.2120  138.5750 O   0  0  0  0  0  0  0  0  0  0  0  0
  180.8670  177.3720  139.6060 C   0  0  2  0  0  3  0  0  0  0  0  0
  182.8450  178.6090  141.7750 N   0  0  0  0  0  0  0  0  0  0  0  0
  184.8960  179.2250  140.7170 N   0  0  0  0  0  2  0  0  0  0  0  0
  180.8180  174.0740  138.5460 C   0  0  0  0  0  0  0  0  0  0  0  0
  181.7270  177.6460  137.3140 C   0  0  0  0  0  0  0  0  0  0  0  0
  179.6130  176.3210  141.1880 C   0  0  0  0  0  0  0  0  0  0  0  0
  184.8690  178.1890  142.9970 C   0  0  0  0  0  1  0  0  0  0  0  0
  181.0690  174.9060  139.7630 C   0  0  0  0  0  2  0  0  0  0  0  0
  181.1050  178.7470  136.7030 C   0  0  0  0  0  3  0  0  0  0  0  0
  181.6410  176.4580  135.1960 C   0  0  0  0  0  3  0  0  0  0  0  0
  181.0400  177.5650  134.5940 C   0  0  0  0  0  3  0  0  0  0  0  0
  181.5920  174.2330  137.3540 N   0  0  0  0  0  2  0  0  0  0  0  0
  180.7860  178.1550  140.6530 C   0  0  2  0  0  3  0  0  0  0  0  0
  180.1130  176.0880  139.7940 C   0  0  2  0  0  3  0  0  0  0  0  0
  181.9150  179.1200  140.7570 C   0  0  2  0  0  3  0  0  0  0  0  0
  180.0290  177.9800  143.0940 C   0  0  0  0  0  1  0  0  0  0  0  0
  182.0600  177.6700  138.7800 C   0  0  1  0  0  3  0  0  0  0  0  0
  1  6  1  0  0  0  0
  1 16  1  0  0  0  0
  2  8  2  0  0  0  0
  4 20  1  0  0  0  0
  5 27  1  0  0  0  0
  6 23  1  0  0  0  0
  7  8  2  0  0  0  0
  8 14  1  0  0  0  0
  9 18  1  0  0  0  0
 10  8  1  1  0  0  0
 10 26  1  0  0  0  0
 12 25  1  0  0  0  0
 12 24  1  0  0  0  0
 13  9  2  0  0  0  0
 14  9  1  0  0  0  0
 15 11  2  0  0  0  0
 15 19  1  0  0  0  0
 16 28  1  0  0  0  0
 17  5  1  0  0  0  0
 17  3  2  0  0  0  0
 19 25  1  0  0  0  0
 20 16  2  0  0  0  0
 21  1  2  0  0  0  0
 22 21  1  0  0  0  0
 22  4  2  0  0  0  0
 23 15  1  0  0  0  0
 24 26  1  0  0  0  0
 24  5  1  0  0  0  0
 25 17  1  0  0  0  0
 26 13  1  0  0  0  0
 28 10  1  0  0  0  0
 28 12  1  0  0  0  0
M  END
>  <MODEL>
5

>  <REMARK>
 VINA RESULT:      -5.7      2.744      5.780
  Name = 
  0 active torsions:
  status: ('A' for Active; 'I' for Inactive)
                            x       y       z     vdW  Elec       q    Type
                         _______ _______ _______ _____ _____    ______ ____

>  <TORSDO>
F 0

$$$$
=
 OpenBabel11122411543D

 28 32  0  0  1  0  0  0  0  0999 V2000
  185.6740  176.5990  137.3300 C   0  0  0  0  0  0  0  0  0  0  0  0
  183.0160  177.6670  134.7280 O   0  0  0  0  0  0  0  0  0  0  0  0
  182.6670  178.9450  142.2090 O   0  0  0  0  0  0  0  0  0  0  0  0
  185.0140  173.8760  137.2310 C   0  0  0  0  0  3  0  0  0  0  0  0
  181.2820  178.0410  140.5220 N   0  0  0  0  0  0  0  0  0  0  0  0
  186.0690  178.0410  137.4130 C   0  0  0  0  0  2  0  0  0  0  0  0
  180.9900  176.2770  134.6050 O   0  0  0  0  0  0  0  0  0  0  0  0
  181.6860  177.3710  135.3630 S   0  0  0  0  0  0  0  0  0  0  0  0
  180.3180  179.4100  136.5780 C   0  0  0  0  0  0  0  0  0  0  0  0
  181.8970  176.8660  137.0520 C   0  0  2  0  0  3  0  0  0  0  0  0
  186.5770  178.8870  140.9490 O   0  0  0  0  0  0  0  0  0  0  0  0
  182.9050  177.3390  139.0990 C   0  0  2  0  0  3  0  0  0  0  0  0
  180.4380  178.8200  137.7310 N   0  0  0  0  0  0  0  0  0  0  0  0
  180.7100  178.7850  135.3590 N   0  0  0  0  0  2  0  0  0  0  0  0
  185.9690  178.7670  139.8530 C   0  0  0  0  0  0  0  0  0  0  0  0
  184.3270  176.1990  137.4410 C   0  0  0  0  0  0  0  0  0  0  0  0
  182.5430  178.3520  141.1040 C   0  0  0  0  0  0  0  0  0  0  0  0
  179.8070  180.8040  136.5340 C   0  0  0  0  0  1  0  0  0  0  0  0
  184.5120  179.0950  139.7920 C   0  0  0  0  0  2  0  0  0  0  0  0
  184.0100  174.8320  137.4050 C   0  0  0  0  0  3  0  0  0  0  0  0
  186.6730  175.6340  137.1560 C   0  0  0  0  0  3  0  0  0  0  0  0
  186.3440  174.2770  137.1030 C   0  0  0  0  0  3  0  0  0  0  0  0
  186.6900  178.3210  138.7000 N   0  0  0  0  0  2  0  0  0  0  0  0
  181.6110  177.4350  139.2830 C   0  0  2  0  0  3  0  0  0  0  0  0
  183.6890  177.9010  140.2490 C   0  0  2  0  0  3  0  0  0  0  0  0
  180.8320  177.4330  138.0140 C   0  0  2  0  0  3  0  0  0  0  0  0
  180.0100  178.6520  140.8700 C   0  0  0  0  0  1  0  0  0  0  0  0
  183.2550  177.2290  137.6640 C   0  0  1  0  0  3  0  0  0  0  0  0
  1  6  1  0  0  0  0
  1 16  1  0  0  0  0
  2  8  2  0  0  0  0
  4 20  1  0  0  0  0
  5 27  1  0  0  0  0
  5 17  1  0  0  0  0
  6 23  1  0  0  0  0
  7  8  2  0  0  0  0
  9 13  2  0  0  0  0
 10  8  1  6  0  0  0
 10 28  1  0  0  0  0
 10 26  1  0  0  0  0
 12 24  1  0  0  0  0
 12 25  1  0  0  0  0
 13 26  1  0  0  0  0
 14  8  1  0  0  0  0
 14  9  1  0  0  0  0
 15 11  2  0  0  0  0
 16 28  1  0  0  0  0
 17  3  2  0  0  0  0
 18  9  1  0  0  0  0
 19 15  1  0  0  0  0
 19 25  1  0  0  0  0
 20 16  2  0  0  0  0
 21  1  2  0  0  0  0
 22 21  1  0  0  0  0
 22  4  2  0  0  0  0
 23 15  1  0  0  0  0
 24  5  1  0  0  0  0
 25 17  1  0  0  0  0
 26 24  1  0  0  0  0
 28 12  1  0  0  0  0
M  END
>  <MODEL>
6

>  <REMARK>
 VINA RESULT:      -5.4      1.890      5.344
  Name = 
  0 active torsions:
  status: ('A' for Active; 'I' for Inactive)
                            x       y       z     vdW  Elec       q    Type
                         _______ _______ _______ _____ _____    ______ ____

>  <TORSDO>
F 0

$$$$
=
 OpenBabel11122411543D

 28 32  0  0  1  0  0  0  0  0999 V2000
  182.4690  177.2350  137.9210 C   0  0  0  0  0  0  0  0  0  0  0  0
  183.2150  173.5560  136.9830 O   0  0  0  0  0  0  0  0  0  0  0  0
  188.3720  179.0910  137.6820 O   0  0  0  0  0  0  0  0  0  0  0  0
  181.3380  177.8820  135.4380 C   0  0  0  0  0  3  0  0  0  0  0  0
  187.7780  177.4430  136.0970 N   0  0  0  0  0  0  0  0  0  0  0  0
  183.0570  176.9370  139.2660 C   0  0  0  0  0  2  0  0  0  0  0  0
  183.6400  173.1010  134.6030 O   0  0  0  0  0  0  0  0  0  0  0  0
  184.2360  173.6180  135.8810 S   0  0  0  0  0  0  0  0  0  0  0  0
  186.8800  173.2740  136.5080 C   0  0  0  0  0  0  0  0  0  0  0  0
  184.7890  175.2870  135.6330 C   0  0  2  0  0  3  0  0  0  0  0  0
  185.2120  179.7530  140.2210 O   0  0  0  0  0  0  0  0  0  0  0  0
  185.5860  177.2290  136.6440 C   0  0  2  0  0  3  0  0  0  0  0  0
  187.1400  174.4940  136.1380 N   0  0  0  0  0  0  0  0  0  0  0  0
  185.6060  172.6700  136.3010 N   0  0  0  0  0  2  0  0  0  0  0  0
  184.8990  178.6340  139.7350 C   0  0  0  0  0  0  0  0  0  0  0  0
  183.1460  176.8980  136.7320 C   0  0  0  0  0  0  0  0  0  0  0  0
  187.4990  178.3480  137.1590 C   0  0  0  0  0  0  0  0  0  0  0  0
  187.9310  172.5010  137.2190 C   0  0  0  0  0  1  0  0  0  0  0  0
  185.9430  177.8360  139.0220 C   0  0  0  0  0  2  0  0  0  0  0  0
  182.5770  177.2400  135.4950 C   0  0  0  0  0  3  0  0  0  0  0  0
  181.2280  177.8800  137.8540 C   0  0  0  0  0  3  0  0  0  0  0  0
  180.6620  178.1990  136.6180 C   0  0  0  0  0  3  0  0  0  0  0  0
  183.5570  178.1600  139.8800 N   0  0  0  0  0  2  0  0  0  0  0  0
  186.5420  176.7900  135.8630 C   0  0  2  0  0  3  0  0  0  0  0  0
  186.0600  178.3030  137.5790 C   0  0  2  0  0  3  0  0  0  0  0  0
  186.3010  175.4120  135.3540 C   0  0  2  0  0  3  0  0  0  0  0  0
  189.0940  176.9580  135.7160 C   0  0  0  0  0  1  0  0  0  0  0  0
  184.4960  176.2380  136.7990 C   0  0  1  0  0  3  0  0  0  0  0  0
  1  6  1  0  0  0  0
  4 20  2  0  0  0  0
  4 22  1  0  0  0  0
  5 17  1  0  0  0  0
  6 23  1  0  0  0  0
  7  8  2  0  0  0  0
  8 14  1  0  0  0  0
  8  2  2  0  0  0  0
  9 18  1  0  0  0  0
 10  8  1  1  0  0  0
 10 28  1  0  0  0  0
 12 28  1  0  0  0  0
 12 25  1  0  0  0  0
 13  9  2  0  0  0  0
 14  9  1  0  0  0  0
 15 23  1  0  0  0  0
 15 11  2  0  0  0  0
 16 28  1  0  0  0  0
 16  1  2  0  0  0  0
 17 25  1  0  0  0  0
 17  3  2  0  0  0  0
 19 15  1  0  0  0  0
 20 16  1  0  0  0  0
 21  1  1  0  0  0  0
 22 21  2  0  0  0  0
 24  5  1  0  0  0  0
 24 12  1  0  0  0  0
 25 19  1  0  0  0  0
 26 10  1  0  0  0  0
 26 24  1  0  0  0  0
 26 13  1  0  0  0  0
 27  5  1  0  0  0  0
M  END
>  <MODEL>
7

>  <REMARK>
 VINA RESULT:      -5.2      2.836      3.686
  Name = 
  0 active torsions:
  status: ('A' for Active; 'I' for Inactive)
                            x       y       z     vdW  Elec       q    Type
                         _______ _______ _______ _____ _____    ______ ____

>  <TORSDO>
F 0

$$$$
=
 OpenBabel11122411543D

 28 32  0  0  1  0  0  0  0  0999 V2000
  187.8730  174.6650  136.5730 C   0  0  0  0  0  0  0  0  0  0  0  0
  188.8810  176.9760  139.5090 O   0  0  0  0  0  0  0  0  0  0  0  0
  181.8470  176.0740  136.7820 O   0  0  0  0  0  0  0  0  0  0  0  0
  188.9980  176.3010  134.5940 C   0  0  0  0  0  3  0  0  0  0  0  0
  183.3090  177.8580  137.2980 N   0  0  0  0  0  0  0  0  0  0  0  0
  187.2650  173.7530  137.5940 C   0  0  0  0  0  2  0  0  0  0  0  0
  189.0540  179.3770  138.9980 O   0  0  0  0  0  0  0  0  0  0  0  0
  188.1090  178.2500  139.3050 S   0  0  0  0  0  0  0  0  0  0  0  0
  185.7870  178.6280  140.7070 C   0  0  0  0  0  0  0  0  0  0  0  0
  186.9570  178.0750  137.9660 C   0  0  2  0  0  3  0  0  0  0  0  0
  184.0150  172.6170  136.3170 O   0  0  0  0  0  0  0  0  0  0  0  0
  185.2780  176.7660  137.0180 C   0  0  2  0  0  3  0  0  0  0  0  0
  185.1020  178.6230  139.6010 N   0  0  0  0  0  0  0  0  0  0  0  0
  187.2110  178.6220  140.7220 N   0  0  0  0  0  2  0  0  0  0  0  0
  184.8360  173.3310  136.9510 C   0  0  0  0  0  0  0  0  0  0  0  0
  187.5900  176.0450  136.5590 C   0  0  0  0  0  0  0  0  0  0  0  0
  183.0190  176.5200  136.9050 C   0  0  0  0  0  0  0  0  0  0  0  0
  185.0580  178.5830  142.0010 C   0  0  0  0  0  1  0  0  0  0  0  0
  184.3420  174.5580  137.6470 C   0  0  0  0  0  2  0  0  0  0  0  0
  188.1470  176.8520  135.5540 C   0  0  0  0  0  3  0  0  0  0  0  0
  188.7280  174.1220  135.6060 C   0  0  0  0  0  3  0  0  0  0  0  0
  189.2920  174.9370  134.6220 C   0  0  0  0  0  3  0  0  0  0  0  0
  186.2130  172.9480  136.9870 N   0  0  0  0  0  2  0  0  0  0  0  0
  184.7250  177.9040  137.3540 C   0  0  2  0  0  3  0  0  0  0  0  0
  184.2630  175.7180  136.6670 C   0  0  2  0  0  3  0  0  0  0  0  0
  185.5920  178.7490  138.2200 C   0  0  2  0  0  3  0  0  0  0  0  0
  182.3900  178.7670  137.9610 C   0  0  0  0  0  1  0  0  0  0  0  0
  186.6440  176.6260  137.5740 C   0  0  1  0  0  3  0  0  0  0  0  0
  1  6  1  0  0  0  0
  3 17  2  0  0  0  0
  4 22  2  0  0  0  0
  4 20  1  0  0  0  0
  5 24  1  0  0  0  0
  5 27  1  0  0  0  0
  7  8  2  0  0  0  0
  8  2  2  0  0  0  0
  8 14  1  0  0  0  0
  9 14  1  0  0  0  0
  9 18  1  0  0  0  0
 10 26  1  0  0  0  0
 10  8  1  1  0  0  0
 11 15  2  0  0  0  0
 12 24  1  0  0  0  0
 12 28  1  0  0  0  0
 13  9  2  0  0  0  0
 15 23  1  0  0  0  0
 15 19  1  0  0  0  0
 16  1  1  0  0  0  0
 16 28  1  0  0  0  0
 17  5  1  0  0  0  0
 20 16  2  0  0  0  0
 21  1  2  0  0  0  0
 22 21  1  0  0  0  0
 23  6  1  0  0  0  0
 24 26  1  0  0  0  0
 25 17  1  0  0  0  0
 25 12  1  0  0  0  0
 25 19  1  0  0  0  0
 26 13  1  0  0  0  0
 28 10  1  0  0  0  0
M  END
>  <MODEL>
8

>  <REMARK>
 VINA RESULT:      -5.2      2.862      7.258
  Name = 
  0 active torsions:
  status: ('A' for Active; 'I' for Inactive)
                            x       y       z     vdW  Elec       q    Type
                         _______ _______ _______ _____ _____    ______ ____

>  <TORSDO>
F 0

$$$$
=
 OpenBabel11122411543D

 28 32  0  0  1  0  0  0  0  0999 V2000
  189.3350  178.2400  139.4130 C   0  0  0  0  0  0  0  0  0  0  0  0
  193.1360  178.0350  138.7180 O   0  0  0  0  0  0  0  0  0  0  0  0
  187.7410  174.1070  135.0870 O   0  0  0  0  0  0  0  0  0  0  0  0
  189.4660  176.8360  141.8360 C   0  0  0  0  0  3  0  0  0  0  0  0
  189.7880  173.6670  136.1830 N   0  0  0  0  0  0  0  0  0  0  0  0
  189.2130  179.0030  138.1300 C   0  0  0  0  0  2  0  0  0  0  0  0
  194.3100  176.0790  139.6400 O   0  0  0  0  0  0  0  0  0  0  0  0
  193.4340  176.5750  138.5240 S   0  0  0  0  0  0  0  0  0  0  0  0
  193.6120  175.5890  135.9750 C   0  0  0  0  0  0  0  0  0  0  0  0
  191.9320  175.6280  138.4980 C   0  0  2  0  0  3  0  0  0  0  0  0
  186.2770  177.7390  136.3240 O   0  0  0  0  0  0  0  0  0  0  0  0
  189.7860  175.4310  137.6110 C   0  0  2  0  0  3  0  0  0  0  0  0
  192.5700  174.8380  136.1780 N   0  0  0  0  0  0  0  0  0  0  0  0
  194.2290  176.3360  137.0200 N   0  0  0  0  0  2  0  0  0  0  0  0
  187.4850  177.8400  136.6620 C   0  0  0  0  0  0  0  0  0  0  0  0
  190.0340  177.0190  139.4790 C   0  0  0  0  0  0  0  0  0  0  0  0
  188.5950  174.4120  135.9620 C   0  0  0  0  0  0  0  0  0  0  0  0
  194.1460  175.7160  134.5940 C   0  0  0  0  0  1  0  0  0  0  0  0
  188.4810  176.8870  136.0850 C   0  0  0  0  0  2  0  0  0  0  0  0
  190.0800  176.3170  140.6940 C   0  0  0  0  0  3  0  0  0  0  0  0
  188.7220  178.7530  140.5630 C   0  0  0  0  0  3  0  0  0  0  0  0
  188.7900  178.0560  141.7720 C   0  0  0  0  0  3  0  0  0  0  0  0
  187.8700  178.8630  137.5850 N   0  0  0  0  0  2  0  0  0  0  0  0
  190.4610  174.3840  137.2050 C   0  0  2  0  0  3  0  0  0  0  0  0
  188.4850  175.5910  136.8820 C   0  0  2  0  0  3  0  0  0  0  0  0
  191.9250  174.4920  137.4530 C   0  0  2  0  0  3  0  0  0  0  0  0
  190.3890  172.7280  135.2520 C   0  0  0  0  0  1  0  0  0  0  0  0
  190.6630  176.4470  138.2390 C   0  0  1  0  0  3  0  0  0  0  0  0
  1 16  2  0  0  0  0
  1 21  1  0  0  0  0
  3 17  2  0  0  0  0
  5 24  1  0  0  0  0
  6  1  1  0  0  0  0
  8  2  2  0  0  0  0
  8  7  2  0  0  0  0
  9 13  2  0  0  0  0
  9 14  1  0  0  0  0
 10  8  1  6  0  0  0
 11 15  2  0  0  0  0
 12 28  1  0  0  0  0
 13 26  1  0  0  0  0
 14  8  1  0  0  0  0
 15 23  1  0  0  0  0
 16 20  1  0  0  0  0
 17  5  1  0  0  0  0
 17 25  1  0  0  0  0
 18  9  1  0  0  0  0
 19 15  1  0  0  0  0
 19 25  1  0  0  0  0
 20  4  2  0  0  0  0
 21 22  2  0  0  0  0
 22  4  1  0  0  0  0
 23  6  1  0  0  0  0
 24 26  1  0  0  0  0
 24 12  1  0  0  0  0
 25 12  1  0  0  0  0
 26 10  1  0  0  0  0
 27  5  1  0  0  0  0
 28 10  1  0  0  0  0
 28 16  1  0  0  0  0
M  END
>  <MODEL>
9

>  <REMARK>
 VINA RESULT:      -5.1      6.061      8.938
  Name = 
  0 active torsions:
  status: ('A' for Active; 'I' for Inactive)
                            x       y       z     vdW  Elec       q    Type
                         _______ _______ _______ _____ _____    ______ ____

>  <TORSDO>
F 0

$$$$
