=
 OpenBabel11122411573D

 28 32  0  0  1  0  0  0  0  0999 V2000
  189.4380  178.0600  138.0670 C   0  0  0  0  0  0  0  0  0  0  0  0
  192.5490  175.8960  134.5940 O   0  0  0  0  0  1  0  0  0  0  0  0
  186.9010  174.3710  137.2170 O   0  0  0  0  0  0  0  0  0  0  0  0
  190.0200  176.7770  140.4860 C   0  0  0  0  0  3  0  0  0  0  0  0
  189.1250  173.5170  136.8450 C   0  0  2  0  0  3  0  0  0  0  0  0
  189.1130  178.6550  136.8480 O   0  0  0  0  0  0  0  0  0  0  0  0
  193.9740  176.9380  136.1720 C   0  0  0  0  0  1  0  0  0  0  0  0
  193.1420  175.7130  135.8490 C   0  0  1  0  0  0  0  0  0  0  0  0
  193.2600  173.2590  135.5610 C   0  0  1  0  0  3  0  0  0  0  0  0
  192.0730  175.5250  136.9620 C   0  0  2  0  0  3  0  0  0  0  0  0
  186.4950  177.2260  137.5490 O   0  0  0  0  0  1  0  0  0  0  0  0
  189.9190  175.6500  135.9010 C   0  0  1  0  0  3  0  0  0  0  0  0
  192.3670  173.0490  136.7720 C   0  0  0  0  0  2  0  0  0  0  0  0
  194.0740  174.5160  135.7790 C   0  0  0  0  0  2  0  0  0  0  0  0
  186.9250  177.7170  136.3150 C   0  0  2  0  0  3  0  0  0  0  0  0
  190.3230  176.9710  138.0790 C   0  0  0  0  0  0  0  0  0  0  0  0
  188.0810  174.5630  136.8190 C   0  0  0  0  0  0  0  0  0  0  0  0
  194.1160  172.1680  135.4220 O   0  0  0  0  0  1  0  0  0  0  0  0
  187.6130  176.6290  135.4780 C   0  0  0  0  0  2  0  0  0  0  0  0
  190.5980  176.3260  139.2970 C   0  0  0  0  0  3  0  0  0  0  0  0
  188.8560  178.5070  139.2620 C   0  0  0  0  0  3  0  0  0  0  0  0
  189.1510  177.8700  140.4690 C   0  0  0  0  0  3  0  0  0  0  0  0
  187.7760  178.9780  136.4930 C   0  0  0  0  0  2  0  0  0  0  0  0
  190.3090  174.1810  136.1410 C   0  0  1  0  0  3  0  0  0  0  0  0
  188.5160  175.7930  136.2680 N   0  0  0  0  0  0  0  0  0  0  0  0
  191.4680  174.1830  137.0280 N   0  0  2  0  0  0  0  0  0  0  0  0
  188.7070  172.4120  136.1020 O   0  0  0  0  0  1  0  0  0  0  0  0
  190.8960  176.4750  136.7630 C   0  0  1  0  0  3  0  0  0  0  0  0
  1 16  2  0  0  0  0
  1 21  1  0  0  0  0
  2  8  1  0  0  0  0
  5 27  1  6  0  0  0
  6  1  1  0  0  0  0
  8  7  1  1  0  0  0
  8 10  1  0  0  0  0
  9 18  1  1  0  0  0
  9 14  1  0  0  0  0
  9 13  1  0  0  0  0
 10 26  1  0  0  0  0
 12 24  1  0  0  0  0
 12 25  1  0  0  0  0
 12 28  1  0  0  0  0
 13 26  1  0  0  0  0
 14  8  1  0  0  0  0
 15 23  1  0  0  0  0
 15 11  1  0  0  0  0
 16 20  1  0  0  0  0
 17  5  1  0  0  0  0
 17  3  2  0  0  0  0
 19 25  1  0  0  0  0
 19 15  1  0  0  0  0
 20  4  2  0  0  0  0
 21 22  2  0  0  0  0
 22  4  1  0  0  0  0
 23  6  1  0  0  0  0
 24  5  1  0  0  0  0
 24 26  1  0  0  0  0
 25 17  1  0  0  0  0
 28 10  1  0  0  0  0
 28 16  1  0  0  0  0
M  END
>  <MODEL>
1

>  <REMARK>
 VINA RESULT:      -5.8      0.000      0.000
  Name = 
  0 active torsions:
  status: ('A' for Active; 'I' for Inactive)
                            x       y       z     vdW  Elec       q    Type
                         _______ _______ _______ _____ _____    ______ ____

>  <TORSDO>
F 0

$$$$
=
 OpenBabel11122411573D

 28 32  0  0  1  0  0  0  0  0999 V2000
  180.7480  177.7780  137.9380 C   0  0  0  0  0  0  0  0  0  0  0  0
  184.1470  173.9450  137.5080 O   0  0  0  0  0  1  0  0  0  0  0  0
  184.4080  180.0670  139.3970 O   0  0  0  0  0  0  0  0  0  0  0  0
  181.0500  179.3020  135.6100 C   0  0  0  0  0  3  0  0  0  0  0  0
  185.4070  178.4990  137.8600 C   0  0  2  0  0  3  0  0  0  0  0  0
  180.6420  177.0460  139.1210 O   0  0  0  0  0  0  0  0  0  0  0  0
  182.6340  173.6670  135.7080 C   0  0  0  0  0  1  0  0  0  0  0  0
  183.8650  174.3930  136.2120 C   0  0  1  0  0  0  0  0  0  0  0  0
  186.2510  174.8230  135.7190 C   0  0  1  0  0  3  0  0  0  0  0  0
  183.5910  175.9240  136.1850 C   0  0  2  0  0  3  0  0  0  0  0  0
  181.6250  179.7540  140.1620 O   0  0  0  0  0  1  0  0  0  0  0  0
  183.8060  176.7190  138.4440 C   0  0  1  0  0  3  0  0  0  0  0  0
  185.9660  176.2980  135.4980 C   0  0  0  0  0  2  0  0  0  0  0  0
  185.0290  174.0320  135.3050 C   0  0  0  0  0  2  0  0  0  0  0  0
  181.6440  178.5100  140.7950 C   0  0  2  0  0  3  0  0  0  0  0  0
  181.7800  177.4710  137.0370 C   0  0  0  0  0  0  0  0  0  0  0  0
  184.4150  178.9210  138.8720 C   0  0  0  0  0  0  0  0  0  0  0  0
  187.3400  174.4390  134.9390 O   0  0  0  0  0  1  0  0  0  0  0  0
  182.9870  177.7930  140.5960 C   0  0  0  0  0  2  0  0  0  0  0  0
  181.9300  178.2510  135.8780 C   0  0  0  0  0  3  0  0  0  0  0  0
  179.8690  178.8360  137.6670 C   0  0  0  0  0  3  0  0  0  0  0  0
  180.0170  179.5930  136.5030 C   0  0  0  0  0  3  0  0  0  0  0  0
  180.4350  177.6670  140.3820 C   0  0  0  0  0  2  0  0  0  0  0  0
  185.0900  177.0180  137.6500 C   0  0  1  0  0  3  0  0  0  0  0  0
  183.4940  177.9060  139.2290 N   0  0  0  0  0  0  0  0  0  0  0  0
  184.7920  176.7760  136.2420 N   0  0  2  0  0  0  0  0  0  0  0  0
  186.6960  178.6270  138.3790 O   0  0  0  0  0  1  0  0  0  0  0  0
  182.7480  176.3540  137.3820 C   0  0  1  0  0  3  0  0  0  0  0  0
  1  6  1  0  0  0  0
  4 20  2  0  0  0  0
  4 22  1  0  0  0  0
  5 27  1  1  0  0  0
  5 17  1  0  0  0  0
  6 23  1  0  0  0  0
  8  7  1  6  0  0  0
  8  2  1  0  0  0  0
  9 18  1  6  0  0  0
 10  8  1  0  0  0  0
 10 26  1  0  0  0  0
 10 28  1  0  0  0  0
 11 15  1  0  0  0  0
 12 25  1  0  0  0  0
 13  9  1  0  0  0  0
 13 26  1  0  0  0  0
 14  9  1  0  0  0  0
 14  8  1  0  0  0  0
 16 28  1  0  0  0  0
 16  1  2  0  0  0  0
 17 25  1  0  0  0  0
 17  3  2  0  0  0  0
 19 15  1  0  0  0  0
 20 16  1  0  0  0  0
 21  1  1  0  0  0  0
 22 21  2  0  0  0  0
 23 15  1  0  0  0  0
 24  5  1  0  0  0  0
 24 12  1  0  0  0  0
 25 19  1  0  0  0  0
 26 24  1  0  0  0  0
 28 12  1  0  0  0  0
M  END
>  <MODEL>
2

>  <REMARK>
 VINA RESULT:      -5.1      5.011      8.129
  Name = 
  0 active torsions:
  status: ('A' for Active; 'I' for Inactive)
                            x       y       z     vdW  Elec       q    Type
                         _______ _______ _______ _____ _____    ______ ____

>  <TORSDO>
F 0

$$$$
=
 OpenBabel11122411573D

 28 32  0  0  1  0  0  0  0  0999 V2000
  179.4490  176.8050  137.9950 C   0  0  0  0  0  0  0  0  0  0  0  0
  180.7140  180.2750  141.5710 O   0  0  0  0  0  1  0  0  0  0  0  0
  183.6350  177.7400  136.4570 O   0  0  0  0  0  0  0  0  0  0  0  0
  180.5900  174.3990  138.8590 C   0  0  0  0  0  3  0  0  0  0  0  0
  183.9060  178.1000  138.8260 C   0  0  2  0  0  3  0  0  0  0  0  0
  178.9310  178.0180  137.5430 O   0  0  0  0  0  0  0  0  0  0  0  0
  179.3800  178.6650  142.6820 C   0  0  0  0  0  1  0  0  0  0  0  0
  180.7670  179.0160  142.1820 C   0  0  1  0  0  0  0  0  0  0  0  0
  183.1100  179.3390  142.9060 C   0  0  1  0  0  3  0  0  0  0  0  0
  181.2340  177.9180  141.1840 C   0  0  2  0  0  3  0  0  0  0  0  0
  180.9750  177.3700  135.3550 O   0  0  0  0  0  1  0  0  0  0  0  0
  181.6260  179.0020  139.0740 C   0  0  1  0  0  3  0  0  0  0  0  0
  183.5560  178.1430  142.0840 C   0  0  0  0  0  2  0  0  0  0  0  0
  181.6950  179.0930  143.3820 C   0  0  0  0  0  2  0  0  0  0  0  0
  180.3710  178.5910  135.6590 C   0  0  2  0  0  3  0  0  0  0  0  0
  180.2850  176.7990  139.1230 C   0  0  0  0  0  0  0  0  0  0  0  0
  183.1510  178.1220  137.5560 C   0  0  0  0  0  0  0  0  0  0  0  0
  183.9530  179.4850  144.0070 O   0  0  0  0  0  1  0  0  0  0  0  0
  181.2410  179.4360  136.6000 C   0  0  0  0  0  2  0  0  0  0  0  0
  180.8630  175.5880  139.5390 C   0  0  0  0  0  3  0  0  0  0  0  0
  179.1810  175.6100  137.3120 C   0  0  0  0  0  3  0  0  0  0  0  0
  179.7460  174.4100  137.7460 C   0  0  0  0  0  3  0  0  0  0  0  0
  178.9430  178.3840  136.1690 C   0  0  0  0  0  2  0  0  0  0  0  0
  182.9570  178.7800  139.8140 C   0  0  1  0  0  3  0  0  0  0  0  0
  181.8420  178.6490  137.6770 N   0  0  0  0  0  0  0  0  0  0  0  0
  182.6840  177.8800  140.9300 N   0  0  2  0  0  0  0  0  0  0  0  0
  185.0660  178.8640  138.7000 O   0  0  0  0  0  1  0  0  0  0  0  0
  180.6000  178.1160  139.8100 C   0  0  1  0  0  3  0  0  0  0  0  0
  1 16  1  0  0  0  0
  2  8  1  0  0  0  0
  3 17  2  0  0  0  0
  4 20  1  0  0  0  0
  5 27  1  6  0  0  0
  5 24  1  0  0  0  0
  6  1  1  0  0  0  0
  8  7  1  1  0  0  0
  8 14  1  0  0  0  0
  9 14  1  0  0  0  0
  9 18  1  1  0  0  0
 10  8  1  0  0  0  0
 11 15  1  0  0  0  0
 12 28  1  0  0  0  0
 12 24  1  0  0  0  0
 13  9  1  0  0  0  0
 15 23  1  0  0  0  0
 15 19  1  0  0  0  0
 16 20  2  0  0  0  0
 16 28  1  0  0  0  0
 17 25  1  0  0  0  0
 17  5  1  0  0  0  0
 19 25  1  0  0  0  0
 21 22  1  0  0  0  0
 21  1  2  0  0  0  0
 22  4  2  0  0  0  0
 23  6  1  0  0  0  0
 24 26  1  0  0  0  0
 25 12  1  0  0  0  0
 26 10  1  0  0  0  0
 26 13  1  0  0  0  0
 28 10  1  0  0  0  0
M  END
>  <MODEL>
3

>  <REMARK>
 VINA RESULT:      -4.6      7.691     10.611
  Name = 
  0 active torsions:
  status: ('A' for Active; 'I' for Inactive)
                            x       y       z     vdW  Elec       q    Type
                         _______ _______ _______ _____ _____    ______ ____

>  <TORSDO>
F 0

$$$$
=
 OpenBabel11122411573D

 28 32  0  0  1  0  0  0  0  0999 V2000
  187.4400  177.3800  137.1930 C   0  0  0  0  0  0  0  0  0  0  0  0
  185.6460  172.6860  138.2760 O   0  0  0  0  0  1  0  0  0  0  0  0
  190.7120  174.9990  135.0990 O   0  0  0  0  0  0  0  0  0  0  0  0
  186.5490  177.9350  134.5990 C   0  0  0  0  0  3  0  0  0  0  0  0
  188.8210  173.5230  134.8590 C   0  0  2  0  0  3  0  0  0  0  0  0
  187.9270  177.0750  138.4640 O   0  0  0  0  0  0  0  0  0  0  0  0
  183.7340  174.0440  137.9470 C   0  0  0  0  0  1  0  0  0  0  0  0
  184.8200  173.2230  137.2810 C   0  0  1  0  0  0  0  0  0  0  0  0
  185.2050  171.3050  135.7670 C   0  0  1  0  0  3  0  0  0  0  0  0
  185.6200  174.1400  136.3110 C   0  0  2  0  0  3  0  0  0  0  0  0
  190.5220  177.3060  136.8520 O   0  0  0  0  0  1  0  0  0  0  0  0
  187.9030  174.1400  137.0620 C   0  0  1  0  0  3  0  0  0  0  0  0
  185.8170  172.2210  134.7210 C   0  0  0  0  0  2  0  0  0  0  0  0
  184.1550  172.0830  136.5290 C   0  0  0  0  0  2  0  0  0  0  0  0
  190.3090  176.7010  138.0920 C   0  0  2  0  0  3  0  0  0  0  0  0
  186.7810  176.3820  136.4580 C   0  0  0  0  0  0  0  0  0  0  0  0
  189.6420  174.5280  135.5670 C   0  0  0  0  0  0  0  0  0  0  0  0
  184.6100  170.2140  135.1360 O   0  0  0  0  0  1  0  0  0  0  0  0
  190.0360  175.1970  137.9510 C   0  0  0  0  0  2  0  0  0  0  0  0
  186.3500  176.6680  135.1510 C   0  0  0  0  0  3  0  0  0  0  0  0
  187.6420  178.6500  136.6330 C   0  0  0  0  0  3  0  0  0  0  0  0
  187.1930  178.9280  135.3410 C   0  0  0  0  0  3  0  0  0  0  0  0
  189.2330  177.4450  138.8860 C   0  0  0  0  0  2  0  0  0  0  0  0
  187.7330  173.1740  135.8770 C   0  0  1  0  0  3  0  0  0  0  0  0
  189.1360  174.8850  136.8410 N   0  0  0  0  0  0  0  0  0  0  0  0
  186.4190  173.4320  135.2960 N   0  0  2  0  0  0  0  0  0  0  0  0
  189.5860  172.3880  134.5940 O   0  0  0  0  0  1  0  0  0  0  0  0
  186.6250  175.0020  137.0700 C   0  0  1  0  0  3  0  0  0  0  0  0
  1  6  1  0  0  0  0
  3 17  2  0  0  0  0
  4 20  2  0  0  0  0
  4 22  1  0  0  0  0
  5 27  1  1  0  0  0
  5 17  1  0  0  0  0
  5 24  1  0  0  0  0
  6 23  1  0  0  0  0
  8  7  1  1  0  0  0
  8  2  1  0  0  0  0
  9 18  1  6  0  0  0
  9 14  1  0  0  0  0
 10 28  1  0  0  0  0
 10  8  1  0  0  0  0
 11 15  1  0  0  0  0
 12 28  1  0  0  0  0
 13 26  1  0  0  0  0
 13  9  1  0  0  0  0
 14  8  1  0  0  0  0
 15 23  1  0  0  0  0
 16 28  1  0  0  0  0
 16  1  2  0  0  0  0
 17 25  1  0  0  0  0
 19 15  1  0  0  0  0
 20 16  1  0  0  0  0
 21  1  1  0  0  0  0
 22 21  2  0  0  0  0
 24 12  1  0  0  0  0
 25 12  1  0  0  0  0
 25 19  1  0  0  0  0
 26 24  1  0  0  0  0
 26 10  1  0  0  0  0
M  END
>  <MODEL>
4

>  <REMARK>
 VINA RESULT:      -4.5      2.503      5.760
  Name = 
  0 active torsions:
  status: ('A' for Active; 'I' for Inactive)
                            x       y       z     vdW  Elec       q    Type
                         _______ _______ _______ _____ _____    ______ ____

>  <TORSDO>
F 0

$$$$
=
 OpenBabel11122411573D

 28 32  0  0  1  0  0  0  0  0999 V2000
  186.0620  174.9190  135.7840 C   0  0  0  0  0  0  0  0  0  0  0  0
  182.2010  178.2530  135.1450 O   0  0  0  0  0  1  0  0  0  0  0  0
  187.3150  177.8990  138.9960 O   0  0  0  0  0  0  0  0  0  0  0  0
  185.3040  173.3110  137.9460 C   0  0  0  0  0  3  0  0  0  0  0  0
  184.9170  178.1450  139.0270 C   0  0  2  0  0  3  0  0  0  0  0  0
  186.4590  175.7600  134.7440 O   0  0  0  0  0  0  0  0  0  0  0  0
  181.2720  176.1100  134.7550 C   0  0  0  0  0  1  0  0  0  0  0  0
  181.6750  177.1320  135.7990 C   0  0  1  0  0  0  0  0  0  0  0  0
  180.8100  178.4930  137.6750 C   0  0  1  0  0  3  0  0  0  0  0  0
  182.7180  176.4880  136.7560 C   0  0  2  0  0  3  0  0  0  0  0  0
  188.5760  176.3750  136.8720 O   0  0  0  0  0  1  0  0  0  0  0  0
  184.7270  177.7990  136.5940 C   0  0  1  0  0  3  0  0  0  0  0  0
  181.6860  177.7390  138.6600 C   0  0  0  0  0  2  0  0  0  0  0  0
  180.4260  177.5500  136.5560 C   0  0  0  0  0  2  0  0  0  0  0  0
  188.2230  177.1170  135.7440 C   0  0  2  0  0  3  0  0  0  0  0  0
  184.8960  175.2270  136.5020 C   0  0  0  0  0  0  0  0  0  0  0  0
  186.2200  177.9030  138.3730 C   0  0  0  0  0  0  0  0  0  0  0  0
  179.6590  178.9380  138.3240 O   0  0  0  0  0  1  0  0  0  0  0  0
  187.1830  178.1960  136.0770 C   0  0  0  0  0  2  0  0  0  0  0  0
  184.5320  174.4200  137.5940 C   0  0  0  0  0  3  0  0  0  0  0  0
  186.8370  173.8070  136.1440 C   0  0  0  0  0  3  0  0  0  0  0  0
  186.4550  173.0020  137.2190 C   0  0  0  0  0  3  0  0  0  0  0  0
  187.8020  176.1990  134.5940 C   0  0  0  0  0  2  0  0  0  0  0  0
  183.9360  178.1920  137.8530 C   0  0  1  0  0  3  0  0  0  0  0  0
  186.1320  177.7140  136.9720 N   0  0  0  0  0  0  0  0  0  0  0  0
  182.8980  177.1830  138.0430 N   0  0  2  0  0  0  0  0  0  0  0  0
  184.9310  179.3850  139.6660 O   0  0  0  0  0  1  0  0  0  0  0  0
  184.1070  176.4670  136.1240 C   0  0  1  0  0  3  0  0  0  0  0  0
  1 21  2  0  0  0  0
  1 16  1  0  0  0  0
  2  8  1  0  0  0  0
  5 27  1  6  0  0  0
  6  1  1  0  0  0  0
  8  7  1  6  0  0  0
  8 14  1  0  0  0  0
  8 10  1  0  0  0  0
  9 18  1  1  0  0  0
  9 13  1  0  0  0  0
 10 26  1  0  0  0  0
 12 25  1  0  0  0  0
 12 24  1  0  0  0  0
 14  9  1  0  0  0  0
 15 19  1  0  0  0  0
 15 11  1  0  0  0  0
 16 20  2  0  0  0  0
 17  3  2  0  0  0  0
 17  5  1  0  0  0  0
 19 25  1  0  0  0  0
 20  4  1  0  0  0  0
 21 22  1  0  0  0  0
 22  4  2  0  0  0  0
 23  6  1  0  0  0  0
 23 15  1  0  0  0  0
 24 26  1  0  0  0  0
 24  5  1  0  0  0  0
 25 17  1  0  0  0  0
 26 13  1  0  0  0  0
 28 16  1  0  0  0  0
 28 12  1  0  0  0  0
 28 10  1  0  0  0  0
M  END
>  <MODEL>
5

>  <REMARK>
 VINA RESULT:      -4.4      4.048      8.310
  Name = 
  0 active torsions:
  status: ('A' for Active; 'I' for Inactive)
                            x       y       z     vdW  Elec       q    Type
                         _______ _______ _______ _____ _____    ______ ____

>  <TORSDO>
F 0

$$$$
=
 OpenBabel11122411573D

 28 32  0  0  1  0  0  0  0  0999 V2000
  181.7360  179.7050  138.7620 C   0  0  0  0  0  0  0  0  0  0  0  0
  185.3050  177.4310  135.8420 O   0  0  0  0  0  1  0  0  0  0  0  0
  179.0350  176.5640  136.8650 O   0  0  0  0  0  0  0  0  0  0  0  0
  181.5310  178.1150  141.0560 C   0  0  0  0  0  3  0  0  0  0  0  0
  181.1520  175.4110  136.9040 C   0  0  2  0  0  3  0  0  0  0  0  0
  181.8030  180.4610  137.5920 O   0  0  0  0  0  0  0  0  0  0  0  0
  186.4170  178.0760  137.8310 C   0  0  0  0  0  1  0  0  0  0  0  0
  185.5400  177.0350  137.1640 C   0  0  1  0  0  0  0  0  0  0  0  0
  185.4080  174.6330  136.5860 C   0  0  1  0  0  3  0  0  0  0  0  0
  184.2130  176.9080  137.9660 C   0  0  2  0  0  3  0  0  0  0  0  0
  178.9320  179.4000  137.4720 O   0  0  0  0  0  1  0  0  0  0  0  0
  182.4240  177.4750  136.4630 C   0  0  1  0  0  3  0  0  0  0  0  0
  184.2240  174.4470  137.5190 C   0  0  0  0  0  2  0  0  0  0  0  0
  186.2970  175.7180  137.1520 C   0  0  0  0  0  2  0  0  0  0  0  0
  179.7130  179.9370  136.4480 C   0  0  2  0  0  3  0  0  0  0  0  0
  182.4430  178.4940  138.8320 C   0  0  0  0  0  0  0  0  0  0  0  0
  180.2910  176.6050  136.7790 C   0  0  0  0  0  0  0  0  0  0  0  0
  186.1240  173.4400  136.5040 O   0  0  0  0  0  1  0  0  0  0  0  0
  180.4400  178.8420  135.6550 C   0  0  0  0  0  2  0  0  0  0  0  0
  182.3220  177.6970  139.9830 C   0  0  0  0  0  3  0  0  0  0  0  0
  180.9400  180.1180  139.8390 C   0  0  0  0  0  3  0  0  0  0  0  0
  180.8420  179.3270  140.9850 C   0  0  0  0  0  3  0  0  0  0  0  0
  180.6480  181.0240  136.9840 C   0  0  0  0  0  2  0  0  0  0  0  0
  182.5500  175.9470  136.5880 C   0  0  1  0  0  3  0  0  0  0  0  0
  181.0040  177.8000  136.5120 N   0  0  0  0  0  0  0  0  0  0  0  0
  183.4430  175.6780  137.7100 N   0  0  2  0  0  0  0  0  0  0  0  0
  180.7930  174.4640  135.9450 O   0  0  0  0  0  1  0  0  0  0  0  0
  183.2550  178.0470  137.6300 C   0  0  1  0  0  3  0  0  0  0  0  0
  1 16  2  0  0  0  0
  1 21  1  0  0  0  0
  2  8  1  0  0  0  0
  5 27  1  6  0  0  0
  6  1  1  0  0  0  0
  8  7  1  1  0  0  0
  8 10  1  0  0  0  0
  9 18  1  1  0  0  0
  9 14  1  0  0  0  0
  9 13  1  0  0  0  0
 12 25  1  0  0  0  0
 12 24  1  0  0  0  0
 12 28  1  0  0  0  0
 13 26  1  0  0  0  0
 14  8  1  0  0  0  0
 15 23  1  0  0  0  0
 15 11  1  0  0  0  0
 16 20  1  0  0  0  0
 17  3  2  0  0  0  0
 17  5  1  0  0  0  0
 19 15  1  0  0  0  0
 19 25  1  0  0  0  0
 20  4  2  0  0  0  0
 21 22  2  0  0  0  0
 22  4  1  0  0  0  0
 23  6  1  0  0  0  0
 24  5  1  0  0  0  0
 24 26  1  0  0  0  0
 25 17  1  0  0  0  0
 26 10  1  0  0  0  0
 28 10  1  0  0  0  0
 28 16  1  0  0  0  0
M  END
>  <MODEL>
6

>  <REMARK>
 VINA RESULT:      -4.4      5.632      7.980
  Name = 
  0 active torsions:
  status: ('A' for Active; 'I' for Inactive)
                            x       y       z     vdW  Elec       q    Type
                         _______ _______ _______ _____ _____    ______ ____

>  <TORSDO>
F 0

$$$$
=
 OpenBabel11122411573D

 28 32  0  0  1  0  0  0  0  0999 V2000
  186.3190  175.3220  136.6410 C   0  0  0  0  0  0  0  0  0  0  0  0
  183.0890  177.1250  140.2110 O   0  0  0  0  0  1  0  0  0  0  0  0
  182.4350  174.1030  134.5940 O   0  0  0  0  0  0  0  0  0  0  0  0
  186.4280  177.3050  134.6690 C   0  0  0  0  0  3  0  0  0  0  0  0
  181.7440  176.0800  135.7890 C   0  0  2  0  0  3  0  0  0  0  0  0
  186.2170  174.3140  137.6000 O   0  0  0  0  0  0  0  0  0  0  0  0
  184.9040  178.6450  140.1600 C   0  0  0  0  0  1  0  0  0  0  0  0
  183.5960  178.2300  139.5170 C   0  0  1  0  0  0  0  0  0  0  0  0
  181.3340  179.0420  138.9300 C   0  0  1  0  0  3  0  0  0  0  0  0
  183.8560  177.8940  138.0210 C   0  0  2  0  0  3  0  0  0  0  0  0
  185.0370  172.9340  135.1320 O   0  0  0  0  0  1  0  0  0  0  0  0
  183.2300  175.5960  137.6950 C   0  0  1  0  0  3  0  0  0  0  0  0
  181.6400  178.9030  137.4490 C   0  0  0  0  0  2  0  0  0  0  0  0
  182.6180  179.3840  139.6540 C   0  0  0  0  0  2  0  0  0  0  0  0
  184.9150  172.5820  136.4770 C   0  0  2  0  0  3  0  0  0  0  0  0
  185.4690  176.4360  136.7300 C   0  0  0  0  0  0  0  0  0  0  0  0
  182.5330  174.8430  135.6080 C   0  0  0  0  0  0  0  0  0  0  0  0
  180.4070  180.0660  139.1170 O   0  0  0  0  0  1  0  0  0  0  0  0
  183.6370  173.1590  137.1020 C   0  0  0  0  0  2  0  0  0  0  0  0
  185.5230  177.4180  135.7270 C   0  0  0  0  0  3  0  0  0  0  0  0
  187.2220  175.2090  135.5740 C   0  0  0  0  0  3  0  0  0  0  0  0
  187.2800  176.2010  134.5940 C   0  0  0  0  0  3  0  0  0  0  0  0
  186.1870  172.9360  137.2530 C   0  0  0  0  0  2  0  0  0  0  0  0
  182.1070  176.5280  137.2050 C   0  0  1  0  0  3  0  0  0  0  0  0
  183.3840  174.5420  136.7000 N   0  0  0  0  0  0  0  0  0  0  0  0
  182.6560  177.8800  137.1650 N   0  0  2  0  0  0  0  0  0  0  0  0
  180.3820  175.7850  135.7330 O   0  0  0  0  0  1  0  0  0  0  0  0
  184.4650  176.5040  137.8660 C   0  0  1  0  0  3  0  0  0  0  0  0
  1 16  1  0  0  0  0
  1  6  1  0  0  0  0
  3 17  2  0  0  0  0
  4 20  1  0  0  0  0
  5 27  1  1  0  0  0
  5 24  1  0  0  0  0
  8 14  1  0  0  0  0
  8  7  1  1  0  0  0
  8  2  1  0  0  0  0
  9 18  1  6  0  0  0
  9 14  1  0  0  0  0
 10  8  1  0  0  0  0
 11 15  1  0  0  0  0
 12 28  1  0  0  0  0
 13  9  1  0  0  0  0
 15 19  1  0  0  0  0
 15 23  1  0  0  0  0
 16 28  1  0  0  0  0
 17  5  1  0  0  0  0
 17 25  1  0  0  0  0
 20 16  2  0  0  0  0
 21  1  2  0  0  0  0
 22  4  2  0  0  0  0
 22 21  1  0  0  0  0
 23  6  1  0  0  0  0
 24 12  1  0  0  0  0
 25 19  1  0  0  0  0
 25 12  1  0  0  0  0
 26 24  1  0  0  0  0
 26 13  1  0  0  0  0
 26 10  1  0  0  0  0
 28 10  1  0  0  0  0
M  END
>  <MODEL>
7

>  <REMARK>
 VINA RESULT:      -4.3      4.935      8.494
  Name = 
  0 active torsions:
  status: ('A' for Active; 'I' for Inactive)
                            x       y       z     vdW  Elec       q    Type
                         _______ _______ _______ _____ _____    ______ ____

>  <TORSDO>
F 0

$$$$
=
 OpenBabel11122411573D

 28 32  0  0  1  0  0  0  0  0999 V2000
  181.9320  178.7860  138.1110 C   0  0  0  0  0  0  0  0  0  0  0  0
  184.8990  175.9520  135.0140 O   0  0  0  0  0  1  0  0  0  0  0  0
  179.2570  175.1010  137.9380 O   0  0  0  0  0  0  0  0  0  0  0  0
  182.5190  177.9120  140.7050 C   0  0  0  0  0  3  0  0  0  0  0  0
  181.4430  174.1160  137.6850 C   0  0  2  0  0  3  0  0  0  0  0  0
  181.6030  179.1770  136.8130 O   0  0  0  0  0  0  0  0  0  0  0  0
  186.3890  177.1950  136.3710 C   0  0  0  0  0  1  0  0  0  0  0  0
  185.5110  175.9640  136.2730 C   0  0  1  0  0  0  0  0  0  0  0  0
  185.5410  173.4940  136.4060 C   0  0  1  0  0  3  0  0  0  0  0  0
  184.4580  176.0060  137.4180 C   0  0  2  0  0  3  0  0  0  0  0  0
  178.9530  177.9840  137.7830 O   0  0  0  0  0  1  0  0  0  0  0  0
  182.2890  176.0280  136.3810 C   0  0  1  0  0  3  0  0  0  0  0  0
  184.6660  173.5250  137.6470 C   0  0  0  0  0  2  0  0  0  0  0  0
  186.4000  174.7390  136.3960 C   0  0  0  0  0  2  0  0  0  0  0  0
  179.3750  178.2430  136.4780 C   0  0  2  0  0  3  0  0  0  0  0  0
  182.7810  177.6830  138.2960 C   0  0  0  0  0  0  0  0  0  0  0  0
  180.4340  175.1790  137.4960 C   0  0  0  0  0  0  0  0  0  0  0  0
  186.3570  172.3650  136.4430 O   0  0  0  0  0  1  0  0  0  0  0  0
  180.0090  177.0040  135.8300 C   0  0  0  0  0  2  0  0  0  0  0  0
  183.0580  177.2450  139.6020 C   0  0  0  0  0  3  0  0  0  0  0  0
  181.3890  179.4500  139.2210 C   0  0  0  0  0  3  0  0  0  0  0  0
  181.6870  179.0170  140.5140 C   0  0  0  0  0  3  0  0  0  0  0  0
  180.2700  179.4830  136.4270 C   0  0  0  0  0  2  0  0  0  0  0  0
  182.6340  174.6080  136.8610 C   0  0  1  0  0  3  0  0  0  0  0  0
  180.8990  176.2810  136.7370 N   0  0  0  0  0  0  0  0  0  0  0  0
  183.8100  174.7170  137.7190 N   0  0  2  0  0  0  0  0  0  0  0  0
  180.9740  172.9170  137.1470 O   0  0  0  0  0  1  0  0  0  0  0  0
  183.3100  176.9510  137.0760 C   0  0  1  0  0  3  0  0  0  0  0  0
  1 16  2  0  0  0  0
  1 21  1  0  0  0  0
  2  8  1  0  0  0  0
  5 27  1  6  0  0  0
  6  1  1  0  0  0  0
  8  7  1  1  0  0  0
  8 14  1  0  0  0  0
  8 10  1  0  0  0  0
  9 18  1  1  0  0  0
  9 13  1  0  0  0  0
 10 26  1  0  0  0  0
 12 25  1  0  0  0  0
 12 24  1  0  0  0  0
 12 28  1  0  0  0  0
 13 26  1  0  0  0  0
 14  9  1  0  0  0  0
 15 11  1  0  0  0  0
 16 20  1  0  0  0  0
 17  5  1  0  0  0  0
 17  3  2  0  0  0  0
 19 15  1  0  0  0  0
 19 25  1  0  0  0  0
 20  4  2  0  0  0  0
 21 22  2  0  0  0  0
 22  4  1  0  0  0  0
 23 15  1  0  0  0  0
 23  6  1  0  0  0  0
 24  5  1  0  0  0  0
 24 26  1  0  0  0  0
 25 17  1  0  0  0  0
 28 10  1  0  0  0  0
 28 16  1  0  0  0  0
M  END
>  <MODEL>
8

>  <REMARK>
 VINA RESULT:      -4.3      5.473      7.649
  Name = 
  0 active torsions:
  status: ('A' for Active; 'I' for Inactive)
                            x       y       z     vdW  Elec       q    Type
                         _______ _______ _______ _____ _____    ______ ____

>  <TORSDO>
F 0

$$$$
=
 OpenBabel11122411573D

 28 32  0  0  1  0  0  0  0  0999 V2000
  182.5130  177.8760  136.6830 C   0  0  0  0  0  0  0  0  0  0  0  0
  184.4520  177.3290  141.4130 O   0  0  0  0  0  1  0  0  0  0  0  0
  178.9310  175.7680  138.5500 O   0  0  0  0  0  0  0  0  0  0  0  0
  180.8980  180.1580  136.8020 C   0  0  0  0  0  3  0  0  0  0  0  0
  179.8270  176.9560  140.4470 C   0  0  2  0  0  3  0  0  0  0  0  0
  183.2750  176.7080  136.6450 O   0  0  0  0  0  0  0  0  0  0  0  0
  185.2740  179.4020  140.6170 C   0  0  0  0  0  1  0  0  0  0  0  0
  184.1090  178.6780  141.2610 C   0  0  1  0  0  0  0  0  0  0  0  0
  182.6570  178.6510  143.2640 C   0  0  1  0  0  3  0  0  0  0  0  0
  182.8510  178.8490  140.3610 C   0  0  2  0  0  3  0  0  0  0  0  0
  180.4640  175.6240  136.0890 O   0  0  0  0  0  1  0  0  0  0  0  0
  182.1550  176.6460  139.6970 C   0  0  1  0  0  3  0  0  0  0  0  0
  181.4450  179.0100  142.4220 C   0  0  0  0  0  2  0  0  0  0  0  0
  183.8800  179.2820  142.6360 C   0  0  0  0  0  2  0  0  0  0  0  0
  181.6040  174.9360  136.5070 C   0  0  2  0  0  3  0  0  0  0  0  0
  182.2940  178.5060  137.9170 C   0  0  0  0  0  0  0  0  0  0  0  0
  179.9310  176.2150  139.1730 C   0  0  0  0  0  0  0  0  0  0  0  0
  182.4880  179.1480  144.5550 O   0  0  0  0  0  1  0  0  0  0  0  0
  181.6530  174.7910  138.0340 C   0  0  0  0  0  2  0  0  0  0  0  0
  181.4710  179.6440  137.9670 C   0  0  0  0  0  3  0  0  0  0  0  0
  181.9330  178.3920  135.5160 C   0  0  0  0  0  3  0  0  0  0  0  0
  181.1310  179.5340  135.5750 C   0  0  0  0  0  3  0  0  0  0  0  0
  182.8690  175.5600  135.9120 C   0  0  0  0  0  2  0  0  0  0  0  0
  181.2870  177.1490  140.8640 C   0  0  1  0  0  3  0  0  0  0  0  0
  181.2620  176.0150  138.7330 N   0  0  0  0  0  0  0  0  0  0  0  0
  181.5650  178.5730  141.0240 N   0  0  2  0  0  0  0  0  0  0  0  0
  179.1760  176.1720  141.4000 O   0  0  0  0  0  1  0  0  0  0  0  0
  182.8920  177.8940  139.1710 C   0  0  1  0  0  3  0  0  0  0  0  0
  1 16  1  0  0  0  0
  3 17  2  0  0  0  0
  4 20  1  0  0  0  0
  5 24  1  0  0  0  0
  5 27  1  1  0  0  0
  6  1  1  0  0  0  0
  8  7  1  6  0  0  0
  8  2  1  0  0  0  0
  8 14  1  0  0  0  0
  9 18  1  1  0  0  0
 10 26  1  0  0  0  0
 10  8  1  0  0  0  0
 11 15  1  0  0  0  0
 12 24  1  0  0  0  0
 13  9  1  0  0  0  0
 14  9  1  0  0  0  0
 15 19  1  0  0  0  0
 16 20  2  0  0  0  0
 16 28  1  0  0  0  0
 17  5  1  0  0  0  0
 19 25  1  0  0  0  0
 21 22  1  0  0  0  0
 21  1  2  0  0  0  0
 22  4  2  0  0  0  0
 23 15  1  0  0  0  0
 23  6  1  0  0  0  0
 24 26  1  0  0  0  0
 25 17  1  0  0  0  0
 25 12  1  0  0  0  0
 26 13  1  0  0  0  0
 28 12  1  0  0  0  0
 28 10  1  0  0  0  0
M  END
>  <MODEL>
9

>  <REMARK>
 VINA RESULT:      -4.3      7.544      9.965
  Name = 
  0 active torsions:
  status: ('A' for Active; 'I' for Inactive)
                            x       y       z     vdW  Elec       q    Type
                         _______ _______ _______ _____ _____    ______ ____

>  <TORSDO>
F 0

$$$$
