=
 OpenBabel11122412213D

 34 41  0  0  1  0  0  0  0  0999 V2000
  190.0040  177.3610  141.9600 C   0  0  0  0  0  0  0  0  0  0  0  0
  190.1950  177.3820  139.4390 C   0  0  0  0  0  3  0  0  0  0  0  0
  186.6580  178.5060  147.3760 C   0  0  0  0  0  0  0  0  0  0  0  0
  189.4750  177.0570  144.2900 C   0  0  0  0  0  0  0  0  0  0  0  0
  187.2490  177.5660  145.1970 C   0  0  0  0  0  0  0  0  0  0  0  0
  185.1360  178.5140  146.0620 C   0  0  0  0  0  2  0  0  0  0  0  0
  185.4930  179.3290  147.1640 O   0  0  0  0  0  0  0  0  0  0  0  0
  188.7880  177.5360  147.9680 C   0  0  0  0  0  3  0  0  0  0  0  0
  188.4150  178.5720  140.4020 C   0  0  2  0  0  3  0  0  0  0  0  0
  185.6190  178.1290  138.8760 C   0  0  0  0  0  3  0  0  0  0  0  0
  186.7470  177.6200  143.7700 C   0  0  0  0  0  2  0  0  0  0  0  0
  189.1260  176.9770  146.7940 C   0  0  0  0  0  3  0  0  0  0  0  0
  187.2910  178.1580  141.3680 C   0  0  1  0  0  3  0  0  0  0  0  0
  189.4070  177.6920  138.4250 C   0  0  0  0  0  3  0  0  0  0  0  0
  188.5470  177.2210  145.4380 C   0  0  0  0  0  0  0  0  0  0  0  0
  187.7140  178.5170  148.1680 C   0  0  0  0  0  3  0  0  0  0  0  0
  186.9330  177.4280  138.6500 C   0  0  2  0  0  3  0  0  0  0  0  0
  189.1030  177.5160  143.0180 C   0  0  0  0  0  0  0  0  0  0  0  0
  186.2170  177.5980  146.2930 C   0  0  2  0  0  3  0  0  0  0  0  0
  187.7850  178.2260  142.8250 C   0  0  2  0  0  3  0  0  0  0  0  0
  191.5450  176.3080  143.4080 C   0  0  0  0  0  3  0  0  0  0  0  0
  185.2640  178.8160  139.9740 C   0  0  0  0  0  3  0  0  0  0  0  0
  190.6910  176.4660  144.4540 N   0  0  0  0  0  0  0  0  0  0  0  0
  186.1210  179.1140  141.1770 C   0  0  0  0  0  2  0  0  0  0  0  0
  188.1390  178.3520  138.8980 C   0  0  1  0  0  3  0  0  0  0  0  0
  191.2000  176.7510  142.1700 N   0  0  0  0  0  0  0  0  0  0  0  0
  189.6280  177.8160  140.6590 N   0  0  0  0  0  0  0  0  0  0  0  0
  186.9530  176.9270  137.3450 O   0  0  0  0  0  0  0  0  0  0  0  0
  185.6050  176.8230  136.9790 C   0  0  0  0  0  2  0  0  0  0  0  0
  186.3520  173.6030  137.5010 O   0  0  0  0  0  0  0  0  0  0  0  0
  184.2880  174.7320  137.3110 C   0  0  0  0  0  2  0  0  0  0  0  0
  185.2840  175.4330  136.4370 C   0  0  2  0  0  3  0  0  0  0  0  0
  184.9690  173.4270  137.6450 C   0  0  0  0  0  2  0  0  0  0  0  0
  186.5030  174.5360  136.4630 C   0  0  0  0  0  2  0  0  0  0  0  0
  1 26  2  0  0  0  0
  1 18  1  0  0  0  0
  2 27  1  0  0  0  0
  3 16  2  0  0  0  0
  4 23  1  0  0  0  0
  4 15  1  0  0  0  0
  5 15  2  0  0  0  0
  5 19  1  0  0  0  0
  6  7  1  0  0  0  0
  7  3  1  0  0  0  0
  8 16  1  0  0  0  0
  9 27  1  1  0  0  0
  9 13  1  0  0  0  0
 10 22  2  0  0  0  0
 11  5  1  0  0  0  0
 12  8  2  0  0  0  0
 13 24  1  1  0  0  0
 13 20  1  0  0  0  0
 14  2  2  0  0  0  0
 15 12  1  0  0  0  0
 17 28  1  6  0  0  0
 17 10  1  0  0  0  0
 17 25  1  0  0  0  0
 18  4  2  0  0  0  0
 19  6  1  6  0  0  0
 19  3  1  0  0  0  0
 20 18  1  0  0  0  0
 20 11  1  1  0  0  0
 21 23  2  0  0  0  0
 22 24  1  0  0  0  0
 25 14  1  1  0  0  0
 25  9  1  0  0  0  0
 26 21  1  0  0  0  0
 27  1  1  0  0  0  0
 29 28  1  0  0  0  0
 30 33  1  0  0  0  0
 31 33  1  0  0  0  0
 32 34  1  0  0  0  0
 32 29  1  1  0  0  0
 32 31  1  0  0  0  0
 34 30  1  0  0  0  0
M  END
>  <MODEL>
1

>  <REMARK>
 VINA RESULT:     -10.8      0.000      0.000
  Name = 
  3 active torsions:
  status: ('A' for Active; 'I' for Inactive)
    1  A    between atoms: C_17  and  O_28
    2  A    between atoms: O_28  and  C_29
    3  A    between atoms: C_29  and  C_32
                            x       y       z     vdW  Elec       q    Type
                         _______ _______ _______ _____ _____    ______ ____

>  <TORSDO>
F 3

$$$$
=
 OpenBabel11122412213D

 34 41  0  0  1  0  0  0  0  0999 V2000
  187.8400  177.9550  141.6250 C   0  0  0  0  0  0  0  0  0  0  0  0
  186.0860  178.5050  139.8880 C   0  0  0  0  0  3  0  0  0  0  0  0
  189.7270  177.5080  147.7950 C   0  0  0  0  0  0  0  0  0  0  0  0
  189.2110  177.1220  143.4200 C   0  0  0  0  0  0  0  0  0  0  0  0
  188.4400  177.1150  145.7530 C   0  0  0  0  0  0  0  0  0  0  0  0
  187.7370  177.5600  148.0810 C   0  0  0  0  0  2  0  0  0  0  0  0
  188.8410  178.1820  148.7130 O   0  0  0  0  0  0  0  0  0  0  0  0
  191.5280  176.7550  146.3750 C   0  0  0  0  0  3  0  0  0  0  0  0
  185.6900  179.2120  142.0910 C   0  0  2  0  0  3  0  0  0  0  0  0
  182.6730  178.6850  143.0700 C   0  0  0  0  0  3  0  0  0  0  0  0
  187.0450  177.3790  145.2280 C   0  0  0  0  0  2  0  0  0  0  0  0
  190.8450  176.4960  145.2480 C   0  0  0  0  0  3  0  0  0  0  0  0
  185.6430  178.4580  143.4310 C   0  0  1  0  0  3  0  0  0  0  0  0
  184.8240  178.8940  139.8970 C   0  0  0  0  0  3  0  0  0  0  0  0
  189.4620  176.9190  144.8700 C   0  0  0  0  0  0  0  0  0  0  0  0
  191.0190  177.5120  147.5250 C   0  0  0  0  0  3  0  0  0  0  0  0
  183.3360  178.2390  141.7950 C   0  0  2  0  0  3  0  0  0  0  0  0
  188.0410  177.7660  142.9950 C   0  0  0  0  0  0  0  0  0  0  0  0
  188.5760  176.7810  147.2140 C   0  0  2  0  0  3  0  0  0  0  0  0
  187.0620  178.3040  144.0100 C   0  0  2  0  0  3  0  0  0  0  0  0
  189.8850  176.8670  141.1600 C   0  0  0  0  0  3  0  0  0  0  0  0
  183.2940  179.0830  144.1930 C   0  0  0  0  0  3  0  0  0  0  0  0
  190.1080  176.6900  142.4900 N   0  0  0  0  0  0  0  0  0  0  0  0
  184.7770  179.2550  144.3980 C   0  0  0  0  0  2  0  0  0  0  0  0
  184.3720  179.2580  141.2860 C   0  0  1  0  0  3  0  0  0  0  0  0
  188.7560  177.4930  140.7340 N   0  0  0  0  0  0  0  0  0  0  0  0
  186.6450  178.6010  141.1830 N   0  0  0  0  0  0  0  0  0  0  0  0
  182.3480  178.0170  140.8310 O   0  0  0  0  0  0  0  0  0  0  0  0
  181.2800  178.8390  141.2140 C   0  0  0  0  0  2  0  0  0  0  0  0
  179.8580  181.6250  140.0280 O   0  0  0  0  0  0  0  0  0  0  0  0
  181.4050  180.1170  139.0770 C   0  0  0  0  0  2  0  0  0  0  0  0
  180.5090  179.3460  139.9990 C   0  0  2  0  0  3  0  0  0  0  0  0
  180.6920  181.4380  138.9170 C   0  0  0  0  0  2  0  0  0  0  0  0
  179.4390  180.3390  140.4010 C   0  0  0  0  0  2  0  0  0  0  0  0
  1 18  1  0  0  0  0
  2 14  2  0  0  0  0
  2 27  1  0  0  0  0
  3  7  1  0  0  0  0
  4 15  1  0  0  0  0
  5 19  1  0  0  0  0
  6  7  1  0  0  0  0
  8 16  1  0  0  0  0
  9 27  1  6  0  0  0
  9 13  1  0  0  0  0
 10 22  2  0  0  0  0
 11  5  1  0  0  0  0
 12  8  2  0  0  0  0
 13 20  1  0  0  0  0
 13 24  1  1  0  0  0
 15 12  1  0  0  0  0
 15  5  2  0  0  0  0
 16  3  2  0  0  0  0
 17 28  1  6  0  0  0
 17 10  1  0  0  0  0
 18  4  2  0  0  0  0
 18 20  1  0  0  0  0
 19  3  1  0  0  0  0
 19  6  1  1  0  0  0
 20 11  1  1  0  0  0
 21 23  2  0  0  0  0
 22 24  1  0  0  0  0
 23  4  1  0  0  0  0
 25 14  1  6  0  0  0
 25 17  1  0  0  0  0
 25  9  1  0  0  0  0
 26 21  1  0  0  0  0
 26  1  2  0  0  0  0
 27  1  1  0  0  0  0
 28 29  1  0  0  0  0
 30 34  1  0  0  0  0
 31 32  1  0  0  0  0
 32 34  1  0  0  0  0
 32 29  1  1  0  0  0
 33 31  1  0  0  0  0
 33 30  1  0  0  0  0
M  END
>  <MODEL>
2

>  <REMARK>
 VINA RESULT:     -10.7      3.081      4.685
  Name = 
  3 active torsions:
  status: ('A' for Active; 'I' for Inactive)
    1  A    between atoms: C_17  and  O_28
    2  A    between atoms: O_28  and  C_29
    3  A    between atoms: C_29  and  C_32
                            x       y       z     vdW  Elec       q    Type
                         _______ _______ _______ _____ _____    ______ ____

>  <TORSDO>
F 3

$$$$
=
 OpenBabel11122412213D

 34 41  0  0  1  0  0  0  0  0999 V2000
  190.1210  177.4270  141.8570 C   0  0  0  0  0  0  0  0  0  0  0  0
  190.4090  177.4550  139.3450 C   0  0  0  0  0  3  0  0  0  0  0  0
  186.5290  178.4510  147.1370 C   0  0  0  0  0  0  0  0  0  0  0  0
  189.5140  177.1050  144.1650 C   0  0  0  0  0  0  0  0  0  0  0  0
  187.2370  177.5330  144.9840 C   0  0  0  0  0  0  0  0  0  0  0  0
  185.0600  178.4040  145.7650 C   0  0  0  0  0  2  0  0  0  0  0  0
  185.3440  179.2320  146.8790 O   0  0  0  0  0  0  0  0  0  0  0  0
  188.6680  177.5580  147.8130 C   0  0  0  0  0  3  0  0  0  0  0  0
  188.5520  178.5800  140.2360 C   0  0  2  0  0  3  0  0  0  0  0  0
  185.8350  178.0360  138.6040 C   0  0  0  0  0  3  0  0  0  0  0  0
  186.7900  177.5680  143.5380 C   0  0  0  0  0  2  0  0  0  0  0  0
  189.0710  177.0120  146.6540 C   0  0  0  0  0  3  0  0  0  0  0  0
  187.4070  178.1260  141.1580 C   0  0  1  0  0  3  0  0  0  0  0  0
  189.6510  177.7360  138.3000 C   0  0  0  0  0  3  0  0  0  0  0  0
  188.5370  177.2350  145.2760 C   0  0  0  0  0  0  0  0  0  0  0  0
  187.5520  178.5000  147.9700 C   0  0  0  0  0  3  0  0  0  0  0  0
  187.1810  177.3840  138.4300 C   0  0  2  0  0  3  0  0  0  0  0  0
  189.1750  177.5490  142.8780 C   0  0  0  0  0  0  0  0  0  0  0  0
  186.1640  177.5280  146.0390 C   0  0  2  0  0  3  0  0  0  0  0  0
  187.8410  178.2120  142.6330 C   0  0  2  0  0  3  0  0  0  0  0  0
  191.6430  176.4300  143.3650 C   0  0  0  0  0  3  0  0  0  0  0  0
  185.4130  178.7100  139.6860 C   0  0  0  0  0  3  0  0  0  0  0  0
  190.7430  176.5570  144.3770 N   0  0  0  0  0  0  0  0  0  0  0  0
  186.2110  179.0390  140.9210 C   0  0  0  0  0  2  0  0  0  0  0  0
  188.3430  178.3500  138.7230 C   0  0  1  0  0  3  0  0  0  0  0  0
  191.3300  176.8610  142.1140 N   0  0  0  0  0  0  0  0  0  0  0  0
  189.7800  177.8680  140.5420 N   0  0  0  0  0  0  0  0  0  0  0  0
  187.2690  176.8840  137.1270 O   0  0  0  0  0  0  0  0  0  0  0  0
  187.0390  175.5080  137.2530 C   0  0  0  0  0  2  0  0  0  0  0  0
  189.7520  175.8570  135.3260 O   0  0  0  0  0  0  0  0  0  0  0  0
  189.1800  174.2630  136.9700 C   0  0  0  0  0  2  0  0  0  0  0  0
  187.9180  174.7090  136.2950 C   0  0  2  0  0  3  0  0  0  0  0  0
  190.2680  174.7790  136.0610 C   0  0  0  0  0  2  0  0  0  0  0  0
  188.3920  175.5640  135.1390 C   0  0  0  0  0  2  0  0  0  0  0  0
  1 26  2  0  0  0  0
  1 18  1  0  0  0  0
  2 27  1  0  0  0  0
  3 16  2  0  0  0  0
  4 23  1  0  0  0  0
  4 15  1  0  0  0  0
  5 15  2  0  0  0  0
  5 19  1  0  0  0  0
  6  7  1  0  0  0  0
  7  3  1  0  0  0  0
  8 16  1  0  0  0  0
  9 27  1  1  0  0  0
  9 13  1  0  0  0  0
 10 22  2  0  0  0  0
 11  5  1  0  0  0  0
 12  8  2  0  0  0  0
 13 24  1  1  0  0  0
 13 20  1  0  0  0  0
 14  2  2  0  0  0  0
 15 12  1  0  0  0  0
 17 28  1  6  0  0  0
 17 10  1  0  0  0  0
 17 25  1  0  0  0  0
 18  4  2  0  0  0  0
 19  6  1  6  0  0  0
 19  3  1  0  0  0  0
 20 18  1  0  0  0  0
 20 11  1  1  0  0  0
 21 23  2  0  0  0  0
 22 24  1  0  0  0  0
 25 14  1  1  0  0  0
 25  9  1  0  0  0  0
 26 21  1  0  0  0  0
 27  1  1  0  0  0  0
 28 29  1  0  0  0  0
 30 33  1  0  0  0  0
 32 31  1  0  0  0  0
 32 29  1  1  0  0  0
 33 31  1  0  0  0  0
 34 30  1  0  0  0  0
 34 32  1  0  0  0  0
M  END
>  <MODEL>
3

>  <REMARK>
 VINA RESULT:     -10.6      1.176      1.694
  Name = 
  3 active torsions:
  status: ('A' for Active; 'I' for Inactive)
    1  A    between atoms: C_17  and  O_28
    2  A    between atoms: O_28  and  C_29
    3  A    between atoms: C_29  and  C_32
                            x       y       z     vdW  Elec       q    Type
                         _______ _______ _______ _____ _____    ______ ____

>  <TORSDO>
F 3

$$$$
=
 OpenBabel11122412213D

 34 41  0  0  1  0  0  0  0  0999 V2000
  188.2350  177.8360  141.5070 C   0  0  0  0  0  0  0  0  0  0  0  0
  186.5860  178.3470  139.6590 C   0  0  0  0  0  3  0  0  0  0  0  0
  189.7480  177.4990  147.7860 C   0  0  0  0  0  0  0  0  0  0  0  0
  189.5000  177.0390  143.3950 C   0  0  0  0  0  0  0  0  0  0  0  0
  188.5890  177.0660  145.6760 C   0  0  0  0  0  0  0  0  0  0  0  0
  187.7440  177.5430  147.9500 C   0  0  0  0  0  2  0  0  0  0  0  0
  188.8050  178.1820  148.6380 O   0  0  0  0  0  0  0  0  0  0  0  0
  191.6350  176.7350  146.4900 C   0  0  0  0  0  3  0  0  0  0  0  0
  186.0550  179.0860  141.8220 C   0  0  2  0  0  3  0  0  0  0  0  0
  182.9860  178.5570  142.6260 C   0  0  0  0  0  3  0  0  0  0  0  0
  187.2270  177.3130  145.0640 C   0  0  0  0  0  2  0  0  0  0  0  0
  191.0230  176.4530  145.3280 C   0  0  0  0  0  3  0  0  0  0  0  0
  185.9300  178.3530  143.1690 C   0  0  1  0  0  3  0  0  0  0  0  0
  185.3240  178.7280  139.5850 C   0  0  0  0  0  3  0  0  0  0  0  0
  189.6630  176.8610  144.8610 C   0  0  0  0  0  0  0  0  0  0  0  0
  191.0540  177.5070  147.5950 C   0  0  0  0  0  3  0  0  0  0  0  0
  183.7280  178.0950  141.4000 C   0  0  2  0  0  3  0  0  0  0  0  0
  188.3530  177.6690  142.8890 C   0  0  0  0  0  0  0  0  0  0  0  0
  188.6380  176.7550  147.1490 C   0  0  2  0  0  3  0  0  0  0  0  0
  187.3120  178.2180  143.8350 C   0  0  2  0  0  3  0  0  0  0  0  0
  190.3100  176.7530  141.1840 C   0  0  0  0  0  3  0  0  0  0  0  0
  183.5360  178.9760  143.7770 C   0  0  0  0  0  3  0  0  0  0  0  0
  190.4530  176.5980  142.5270 N   0  0  0  0  0  0  0  0  0  0  0  0
  185.0030  179.1610  144.0690 C   0  0  0  0  0  2  0  0  0  0  0  0
  184.7870  179.1120  140.9380 C   0  0  1  0  0  3  0  0  0  0  0  0
  189.2060  177.3650  140.6800 N   0  0  0  0  0  0  0  0  0  0  0  0
  187.0650  178.4670  140.9830 N   0  0  0  0  0  0  0  0  0  0  0  0
  182.8010  177.8500  140.3830 O   0  0  0  0  0  0  0  0  0  0  0  0
  181.6890  178.6370  140.7120 C   0  0  0  0  0  2  0  0  0  0  0  0
  180.3610  175.6680  139.9290 O   0  0  0  0  0  0  0  0  0  0  0  0
  179.5810  177.4360  141.2850 C   0  0  0  0  0  2  0  0  0  0  0  0
  180.3990  178.0250  140.1750 C   0  0  2  0  0  3  0  0  0  0  0  0
  179.3470  176.0150  140.8330 C   0  0  0  0  0  2  0  0  0  0  0  0
  180.6830  176.8560  139.2560 C   0  0  0  0  0  2  0  0  0  0  0  0
  1 18  1  0  0  0  0
  2 27  1  0  0  0  0
  3  7  1  0  0  0  0
  4 15  1  0  0  0  0
  5 19  1  0  0  0  0
  6  7  1  0  0  0  0
  8 16  1  0  0  0  0
  9 27  1  6  0  0  0
  9 13  1  0  0  0  0
 10 22  2  0  0  0  0
 11  5  1  0  0  0  0
 12  8  2  0  0  0  0
 13 20  1  0  0  0  0
 13 24  1  1  0  0  0
 14  2  2  0  0  0  0
 15 12  1  0  0  0  0
 15  5  2  0  0  0  0
 16  3  2  0  0  0  0
 17 28  1  6  0  0  0
 17 10  1  0  0  0  0
 18  4  2  0  0  0  0
 18 20  1  0  0  0  0
 19  3  1  0  0  0  0
 19  6  1  1  0  0  0
 20 11  1  1  0  0  0
 21 23  2  0  0  0  0
 22 24  1  0  0  0  0
 23  4  1  0  0  0  0
 25 14  1  6  0  0  0
 25 17  1  0  0  0  0
 25  9  1  0  0  0  0
 26 21  1  0  0  0  0
 26  1  2  0  0  0  0
 27  1  1  0  0  0  0
 28 29  1  0  0  0  0
 30 33  1  0  0  0  0
 32 29  1  1  0  0  0
 32 31  1  0  0  0  0
 33 31  1  0  0  0  0
 34 30  1  0  0  0  0
 34 32  1  0  0  0  0
M  END
>  <MODEL>
4

>  <REMARK>
 VINA RESULT:     -10.5      2.899      3.946
  Name = 
  3 active torsions:
  status: ('A' for Active; 'I' for Inactive)
    1  A    between atoms: C_17  and  O_28
    2  A    between atoms: O_28  and  C_29
    3  A    between atoms: C_29  and  C_32
                            x       y       z     vdW  Elec       q    Type
                         _______ _______ _______ _____ _____    ______ ____

>  <TORSDO>
F 3

$$$$
=
 OpenBabel11122412213D

 34 41  0  0  1  0  0  0  0  0999 V2000
  190.8240  177.3660  143.3010 C   0  0  0  0  0  0  0  0  0  0  0  0
  192.4300  176.9000  141.4040 C   0  0  0  0  0  3  0  0  0  0  0  0
  184.9540  179.0300  145.4460 C   0  0  0  0  0  0  0  0  0  0  0  0
  189.0580  177.4650  144.9350 C   0  0  0  0  0  0  0  0  0  0  0  0
  186.7070  177.7730  144.2930 C   0  0  0  0  0  0  0  0  0  0  0  0
  184.4640  178.5150  143.5650 C   0  0  0  0  0  2  0  0  0  0  0  0
  184.1080  179.5870  144.4190 O   0  0  0  0  0  0  0  0  0  0  0  0
  186.3730  178.5690  147.3430 C   0  0  0  0  0  3  0  0  0  0  0  0
  190.4000  177.9510  140.8730 C   0  0  2  0  0  3  0  0  0  0  0  0
  188.9970  176.7470  138.2410 C   0  0  0  0  0  3  0  0  0  0  0  0
  187.1150  177.4480  142.8720 C   0  0  0  0  0  2  0  0  0  0  0  0
  187.3340  177.8450  146.7470 C   0  0  0  0  0  3  0  0  0  0  0  0
  188.9320  177.5640  141.1270 C   0  0  1  0  0  3  0  0  0  0  0  0
  192.3630  176.8600  140.0850 C   0  0  0  0  0  3  0  0  0  0  0  0
  187.6360  177.7050  145.2900 C   0  0  0  0  0  0  0  0  0  0  0  0
  185.3620  179.3780  146.6520 C   0  0  0  0  0  3  0  0  0  0  0  0
  190.2140  176.2420  138.9700 C   0  0  2  0  0  3  0  0  0  0  0  0
  189.4770  177.5840  143.6020 C   0  0  0  0  0  0  0  0  0  0  0  0
  185.2320  177.8590  144.5840 C   0  0  2  0  0  3  0  0  0  0  0  0
  188.4970  178.0110  142.5350 C   0  0  2  0  0  3  0  0  0  0  0  0
  191.2720  176.9040  145.5740 C   0  0  0  0  0  3  0  0  0  0  0  0
  188.0630  177.5760  138.7330 C   0  0  0  0  0  3  0  0  0  0  0  0
  189.9690  177.1290  145.8900 N   0  0  0  0  0  0  0  0  0  0  0  0
  188.0670  178.2530  140.0800 C   0  0  0  0  0  2  0  0  0  0  0  0
  191.0420  177.3840  139.5870 C   0  0  1  0  0  3  0  0  0  0  0  0
  191.6930  177.0190  144.2870 N   0  0  0  0  0  0  0  0  0  0  0  0
  191.2570  177.4750  141.9440 N   0  0  0  0  0  0  0  0  0  0  0  0
  190.9900  175.4940  138.0790 O   0  0  0  0  0  0  0  0  0  0  0  0
  191.1400  176.3150  136.9550 C   0  0  0  0  0  2  0  0  0  0  0  0
  194.3950  175.6280  137.3060 O   0  0  0  0  0  0  0  0  0  0  0  0
  192.6360  174.4420  136.2710 C   0  0  0  0  0  2  0  0  0  0  0  0
  192.3570  175.9080  136.1290 C   0  0  2  0  0  3  0  0  0  0  0  0
  194.0800  174.3990  136.7080 C   0  0  0  0  0  2  0  0  0  0  0  0
  193.6150  176.5810  136.6340 C   0  0  0  0  0  2  0  0  0  0  0  0
  1 18  2  0  0  0  0
  1 26  1  0  0  0  0
  2 27  1  0  0  0  0
  3 16  2  0  0  0  0
  4 15  1  0  0  0  0
  4 23  2  0  0  0  0
  5 19  1  0  0  0  0
  5 15  2  0  0  0  0
  6  7  1  0  0  0  0
  7  3  1  0  0  0  0
  9 13  1  0  0  0  0
  9 27  1  1  0  0  0
 10 22  2  0  0  0  0
 10 17  1  0  0  0  0
 11  5  1  0  0  0  0
 12  8  2  0  0  0  0
 13 24  1  6  0  0  0
 13 20  1  0  0  0  0
 14  2  2  0  0  0  0
 15 12  1  0  0  0  0
 16  8  1  0  0  0  0
 17 28  1  6  0  0  0
 17 25  1  0  0  0  0
 18  4  1  0  0  0  0
 19  6  1  6  0  0  0
 19  3  1  0  0  0  0
 20 11  1  1  0  0  0
 20 18  1  0  0  0  0
 21 23  1  0  0  0  0
 22 24  1  0  0  0  0
 25 14  1  1  0  0  0
 25  9  1  0  0  0  0
 26 21  2  0  0  0  0
 27  1  1  0  0  0  0
 29 28  1  0  0  0  0
 31 33  1  0  0  0  0
 32 31  1  0  0  0  0
 32 34  1  0  0  0  0
 32 29  1  1  0  0  0
 33 30  1  0  0  0  0
 34 30  1  0  0  0  0
M  END
>  <MODEL>
5

>  <REMARK>
 VINA RESULT:      -9.6      2.606      3.958
  Name = 
  3 active torsions:
  status: ('A' for Active; 'I' for Inactive)
    1  A    between atoms: C_17  and  O_28
    2  A    between atoms: O_28  and  C_29
    3  A    between atoms: C_29  and  C_32
                            x       y       z     vdW  Elec       q    Type
                         _______ _______ _______ _____ _____    ______ ____

>  <TORSDO>
F 3

$$$$
=
 OpenBabel11122412213D

 34 41  0  0  1  0  0  0  0  0999 V2000
  188.6140  177.6250  140.9800 C   0  0  0  0  0  0  0  0  0  0  0  0
  188.0580  177.6810  138.5140 C   0  0  0  0  0  3  0  0  0  0  0  0
  186.9080  178.4080  147.1690 C   0  0  0  0  0  0  0  0  0  0  0  0
  188.8190  177.2570  143.3510 C   0  0  0  0  0  0  0  0  0  0  0  0
  186.9180  177.5440  144.8820 C   0  0  0  0  0  0  0  0  0  0  0  0
  185.0740  178.2790  146.3550 C   0  0  0  0  0  2  0  0  0  0  0  0
  185.6630  179.1170  147.3330 O   0  0  0  0  0  0  0  0  0  0  0  0
  189.1960  177.6440  147.0850 C   0  0  0  0  0  3  0  0  0  0  0  0
  186.5380  178.6880  139.9920 C   0  0  2  0  0  3  0  0  0  0  0  0
  183.4700  177.9880  139.3290 C   0  0  0  0  0  3  0  0  0  0  0  0
  186.0190  177.5580  143.6650 C   0  0  0  0  0  2  0  0  0  0  0  0
  189.2250  177.1280  145.8450 C   0  0  0  0  0  3  0  0  0  0  0  0
  185.7860  178.1620  141.2280 C   0  0  1  0  0  3  0  0  0  0  0  0
  186.9830  177.9200  137.7830 C   0  0  0  0  0  3  0  0  0  0  0  0
  188.2560  177.3240  144.7240 C   0  0  0  0  0  0  0  0  0  0  0  0
  188.1440  178.5150  147.6210 C   0  0  0  0  0  3  0  0  0  0  0  0
  184.7170  177.4180  138.7080 C   0  0  2  0  0  3  0  0  0  0  0  0
  188.0520  177.6850  142.2580 C   0  0  0  0  0  0  0  0  0  0  0  0
  186.2530  177.4700  146.2300 C   0  0  2  0  0  3  0  0  0  0  0  0
  186.6760  178.2680  142.4800 C   0  0  2  0  0  3  0  0  0  0  0  0
  190.6000  176.7160  141.8810 C   0  0  0  0  0  3  0  0  0  0  0  0
  183.3900  178.6310  140.5050 C   0  0  0  0  0  3  0  0  0  0  0  0
  190.0770  176.7840  143.1350 N   0  0  0  0  0  0  0  0  0  0  0  0
  184.5300  179.0020  141.4170 C   0  0  0  0  0  2  0  0  0  0  0  0
  185.8550  178.4520  138.6260 C   0  0  1  0  0  3  0  0  0  0  0  0
  189.8690  177.1310  140.8130 N   0  0  0  0  0  0  0  0  0  0  0  0
  187.8350  178.0500  139.8600 N   0  0  0  0  0  0  0  0  0  0  0  0
  184.4000  176.9300  137.4370 O   0  0  0  0  0  0  0  0  0  0  0  0
  183.9290  175.6300  137.6570 C   0  0  0  0  0  2  0  0  0  0  0  0
  184.2350  172.3190  137.2850 O   0  0  0  0  0  0  0  0  0  0  0  0
  184.4070  174.1010  135.7470 C   0  0  0  0  0  2  0  0  0  0  0  0
  184.8850  174.5890  137.0810 C   0  0  2  0  0  3  0  0  0  0  0  0
  184.3580  172.6020  135.9170 C   0  0  0  0  0  2  0  0  0  0  0  0
  184.9300  173.3450  137.9420 C   0  0  0  0  0  2  0  0  0  0  0  0
  1 18  1  0  0  0  0
  2 27  1  0  0  0  0
  3  7  1  0  0  0  0
  3 16  2  0  0  0  0
  4 15  1  0  0  0  0
  5 19  1  0  0  0  0
  6  7  1  0  0  0  0
  8 16  1  0  0  0  0
  9 27  1  6  0  0  0
  9 13  1  0  0  0  0
 10 22  2  0  0  0  0
 11  5  1  0  0  0  0
 12  8  2  0  0  0  0
 13 24  1  1  0  0  0
 13 20  1  0  0  0  0
 14  2  2  0  0  0  0
 15  5  2  0  0  0  0
 15 12  1  0  0  0  0
 17 28  1  6  0  0  0
 17 10  1  0  0  0  0
 18 20  1  0  0  0  0
 18  4  2  0  0  0  0
 19  6  1  6  0  0  0
 19  3  1  0  0  0  0
 20 11  1  1  0  0  0
 21 23  2  0  0  0  0
 22 24  1  0  0  0  0
 23  4  1  0  0  0  0
 25 14  1  6  0  0  0
 25 17  1  0  0  0  0
 25  9  1  0  0  0  0
 26  1  2  0  0  0  0
 26 21  1  0  0  0  0
 27  1  1  0  0  0  0
 28 29  1  0  0  0  0
 30 34  1  0  0  0  0
 31 33  1  0  0  0  0
 31 32  1  0  0  0  0
 32 29  1  1  0  0  0
 32 34  1  0  0  0  0
 33 30  1  0  0  0  0
M  END
>  <MODEL>
6

>  <REMARK>
 VINA RESULT:      -9.4      1.238      1.678
  Name = 
  3 active torsions:
  status: ('A' for Active; 'I' for Inactive)
    1  A    between atoms: C_17  and  O_28
    2  A    between atoms: O_28  and  C_29
    3  A    between atoms: C_29  and  C_32
                            x       y       z     vdW  Elec       q    Type
                         _______ _______ _______ _____ _____    ______ ____

>  <TORSDO>
F 3

$$$$
=
 OpenBabel11122412213D

 34 41  0  0  1  0  0  0  0  0999 V2000
  182.1780  178.8120  143.5750 C   0  0  0  0  0  0  0  0  0  0  0  0
  183.7820  179.0030  145.5200 C   0  0  0  0  0  3  0  0  0  0  0  0
  181.0400  178.2740  137.2310 C   0  0  0  0  0  0  0  0  0  0  0  0
  180.8540  178.2320  141.6490 C   0  0  0  0  0  0  0  0  0  0  0  0
  181.8740  177.7430  139.4680 C   0  0  0  0  0  0  0  0  0  0  0  0
  182.9680  177.7020  137.2510 C   0  0  0  0  0  2  0  0  0  0  0  0
  182.1990  178.5510  136.4180 O   0  0  0  0  0  0  0  0  0  0  0  0
  178.9310  178.2490  138.4040 C   0  0  0  0  0  3  0  0  0  0  0  0
  184.6510  179.3150  143.3630 C   0  0  2  0  0  3  0  0  0  0  0  0
  187.4570  177.8140  142.8950 C   0  0  0  0  0  3  0  0  0  0  0  0
  183.2040  177.6370  140.1820 C   0  0  0  0  0  2  0  0  0  0  0  0
  179.3520  177.9230  139.6370 C   0  0  0  0  0  3  0  0  0  0  0  0
  184.6320  178.4400  142.0980 C   0  0  1  0  0  3  0  0  0  0  0  0
  185.0930  178.9960  145.6800 C   0  0  0  0  0  3  0  0  0  0  0  0
  180.7380  177.9560  140.1940 C   0  0  0  0  0  0  0  0  0  0  0  0
  179.7890  178.6910  137.2980 C   0  0  0  0  0  3  0  0  0  0  0  0
  186.5320  177.7270  144.0800 C   0  0  2  0  0  3  0  0  0  0  0  0
  182.1030  178.5420  142.2060 C   0  0  0  0  0  0  0  0  0  0  0  0
  181.8270  177.3060  138.0280 C   0  0  2  0  0  3  0  0  0  0  0  0
  183.3210  178.6520  141.3190 C   0  0  2  0  0  3  0  0  0  0  0  0
  179.8550  178.4370  143.7900 C   0  0  0  0  0  3  0  0  0  0  0  0
  187.1360  178.2530  141.6670 C   0  0  0  0  0  3  0  0  0  0  0  0
  179.7580  178.1890  142.4570 N   0  0  0  0  0  0  0  0  0  0  0  0
  185.8170  178.8340  141.2260 C   0  0  0  0  0  2  0  0  0  0  0  0
  185.8070  179.0560  144.3560 C   0  0  1  0  0  3  0  0  0  0  0  0
  181.0590  178.7430  144.3430 N   0  0  0  0  0  0  0  0  0  0  0  0
  183.4490  179.1180  144.1520 N   0  0  0  0  0  0  0  0  0  0  0  0
  187.2730  177.3270  145.1960 O   0  0  0  0  0  0  0  0  0  0  0  0
  188.5740  177.1320  144.7140 C   0  0  0  0  0  2  0  0  0  0  0  0
  190.4850  176.3390  147.3430 O   0  0  0  0  0  0  0  0  0  0  0  0
  190.9970  177.3300  145.2630 C   0  0  0  0  0  2  0  0  0  0  0  0
  189.6100  177.7470  145.6490 C   0  0  2  0  0  3  0  0  0  0  0  0
  191.5580  176.7470  146.5380 C   0  0  0  0  0  2  0  0  0  0  0  0
  189.4450  177.2400  147.0650 C   0  0  0  0  0  2  0  0  0  0  0  0
  1 27  1  0  0  0  0
  1 26  1  0  0  0  0
  2 14  2  0  0  0  0
  3 16  2  0  0  0  0
  3 19  1  0  0  0  0
  4 18  1  0  0  0  0
  4 23  2  0  0  0  0
  5 11  1  0  0  0  0
  5 15  2  0  0  0  0
  7  3  1  0  0  0  0
  7  6  1  0  0  0  0
  8 12  2  0  0  0  0
  9 27  1  1  0  0  0
  9 25  1  0  0  0  0
 10 17  1  0  0  0  0
 12 15  1  0  0  0  0
 13 24  1  6  0  0  0
 13  9  1  0  0  0  0
 15  4  1  0  0  0  0
 16  8  1  0  0  0  0
 17 25  1  0  0  0  0
 17 28  1  1  0  0  0
 18  1  2  0  0  0  0
 19  6  1  6  0  0  0
 19  5  1  0  0  0  0
 20 11  1  6  0  0  0
 20 13  1  0  0  0  0
 20 18  1  0  0  0  0
 21 26  2  0  0  0  0
 22 10  2  0  0  0  0
 23 21  1  0  0  0  0
 24 22  1  0  0  0  0
 25 14  1  1  0  0  0
 27  2  1  0  0  0  0
 29 28  1  0  0  0  0
 31 32  1  0  0  0  0
 31 33  1  0  0  0  0
 32 29  1  6  0  0  0
 32 34  1  0  0  0  0
 33 30  1  0  0  0  0
 34 30  1  0  0  0  0
M  END
>  <MODEL>
7

>  <REMARK>
 VINA RESULT:      -9.3      4.304      9.065
  Name = 
  3 active torsions:
  status: ('A' for Active; 'I' for Inactive)
    1  A    between atoms: C_17  and  O_28
    2  A    between atoms: O_28  and  C_29
    3  A    between atoms: C_29  and  C_32
                            x       y       z     vdW  Elec       q    Type
                         _______ _______ _______ _____ _____    ______ ____

>  <TORSDO>
F 3

$$$$
=
 OpenBabel11122412213D

 34 41  0  0  1  0  0  0  0  0999 V2000
  183.3610  178.6770  143.6020 C   0  0  0  0  0  0  0  0  0  0  0  0
  181.0680  179.3060  142.7400 C   0  0  0  0  0  3  0  0  0  0  0  0
  189.4710  176.8300  142.5590 C   0  0  0  0  0  0  0  0  0  0  0  0
  185.6850  178.4370  144.1840 C   0  0  0  0  0  0  0  0  0  0  0  0
  187.4350  178.1830  142.4780 C   0  0  0  0  0  0  0  0  0  0  0  0
  189.0300  177.5030  140.7160 C   0  0  0  0  0  2  0  0  0  0  0  0
  189.7040  176.3620  141.2140 O   0  0  0  0  0  0  0  0  0  0  0  0
  189.1430  177.1270  144.9320 C   0  0  0  0  0  3  0  0  0  0  0  0
  182.5570  178.3030  141.2290 C   0  0  2  0  0  3  0  0  0  0  0  0
  182.5910  179.7270  138.3460 C   0  0  0  0  0  3  0  0  0  0  0  0
  186.4150  178.6290  141.4530 C   0  0  0  0  0  2  0  0  0  0  0  0
  188.0450  177.9010  144.9220 C   0  0  0  0  0  3  0  0  0  0  0  0
  183.9850  178.6650  140.7810 C   0  0  1  0  0  3  0  0  0  0  0  0
  180.5030  179.4590  141.5560 C   0  0  0  0  0  3  0  0  0  0  0  0
  187.0940  178.1660  143.7990 C   0  0  0  0  0  0  0  0  0  0  0  0
  189.6700  176.3800  143.7830 C   0  0  0  0  0  3  0  0  0  0  0  0
  181.8880  180.1680  139.6020 C   0  0  2  0  0  3  0  0  0  0  0  0
  184.6790  178.4330  143.2070 C   0  0  0  0  0  0  0  0  0  0  0  0
  188.8660  178.0710  142.0240 C   0  0  2  0  0  3  0  0  0  0  0  0
  185.0170  178.0980  141.7740 C   0  0  2  0  0  3  0  0  0  0  0  0
  184.0650  178.9430  145.8410 C   0  0  0  0  0  3  0  0  0  0  0  0
  183.6110  178.8570  138.2690 C   0  0  0  0  0  3  0  0  0  0  0  0
  185.3520  178.6900  145.4800 N   0  0  0  0  0  0  0  0  0  0  0  0
  184.2190  178.0670  139.4000 C   0  0  0  0  0  2  0  0  0  0  0  0
  181.4060  178.9790  140.4520 C   0  0  1  0  0  3  0  0  0  0  0  0
  183.0790  178.9390  144.9060 N   0  0  0  0  0  0  0  0  0  0  0  0
  182.3320  178.6850  142.6110 N   0  0  0  0  0  0  0  0  0  0  0  0
  180.8150  180.9910  139.2470 O   0  0  0  0  0  0  0  0  0  0  0  0
  181.3810  182.0030  138.4620 C   0  0  0  0  0  2  0  0  0  0  0  0
  181.1660  184.1610  135.9150 O   0  0  0  0  0  0  0  0  0  0  0  0
  180.4320  181.9310  136.1580 C   0  0  0  0  0  2  0  0  0  0  0  0
  180.3560  182.5960  137.4990 C   0  0  2  0  0  3  0  0  0  0  0  0
  180.6160  183.0860  135.2030 C   0  0  0  0  0  2  0  0  0  0  0  0
  180.6470  184.0540  137.2140 C   0  0  0  0  0  2  0  0  0  0  0  0
  1 26  1  0  0  0  0
  3 16  2  0  0  0  0
  4 23  2  0  0  0  0
  5 15  2  0  0  0  0
  6  7  1  0  0  0  0
  7  3  1  0  0  0  0
  9 27  1  1  0  0  0
 10 17  1  0  0  0  0
 11  5  1  0  0  0  0
 12  8  2  0  0  0  0
 13 24  1  6  0  0  0
 13  9  1  0  0  0  0
 13 20  1  0  0  0  0
 14  2  2  0  0  0  0
 15  4  1  0  0  0  0
 15 12  1  0  0  0  0
 16  8  1  0  0  0  0
 17 28  1  6  0  0  0
 17 25  1  0  0  0  0
 18  1  2  0  0  0  0
 18  4  1  0  0  0  0
 19  6  1  6  0  0  0
 19  5  1  0  0  0  0
 19  3  1  0  0  0  0
 20 11  1  6  0  0  0
 20 18  1  0  0  0  0
 22 10  2  0  0  0  0
 22 24  1  0  0  0  0
 23 21  1  0  0  0  0
 25  9  1  0  0  0  0
 25 14  1  1  0  0  0
 26 21  2  0  0  0  0
 27  2  1  0  0  0  0
 27  1  1  0  0  0  0
 29 28  1  0  0  0  0
 30 34  1  0  0  0  0
 31 32  1  0  0  0  0
 32 29  1  1  0  0  0
 33 30  1  0  0  0  0
 33 31  1  0  0  0  0
 34 32  1  0  0  0  0
M  END
>  <MODEL>
8

>  <REMARK>
 VINA RESULT:      -9.2      4.529      6.731
  Name = 
  3 active torsions:
  status: ('A' for Active; 'I' for Inactive)
    1  A    between atoms: C_17  and  O_28
    2  A    between atoms: O_28  and  C_29
    3  A    between atoms: C_29  and  C_32
                            x       y       z     vdW  Elec       q    Type
                         _______ _______ _______ _____ _____    ______ ____

>  <TORSDO>
F 3

$$$$
=
 OpenBabel11122412213D

 34 41  0  0  1  0  0  0  0  0999 V2000
  186.4930  178.1990  141.0370 C   0  0  0  0  0  0  0  0  0  0  0  0
  188.8940  177.7820  141.7130 C   0  0  0  0  0  3  0  0  0  0  0  0
  180.1970  178.5170  142.4820 C   0  0  0  0  0  0  0  0  0  0  0  0
  184.2230  178.9300  140.7000 C   0  0  0  0  0  0  0  0  0  0  0  0
  182.5930  179.0030  142.5370 C   0  0  0  0  0  0  0  0  0  0  0  0
  180.9490  178.6220  144.3440 C   0  0  0  0  0  2  0  0  0  0  0  0
  179.8720  177.9180  143.7530 O   0  0  0  0  0  0  0  0  0  0  0  0
  180.4940  179.1240  140.1640 C   0  0  0  0  0  3  0  0  0  0  0  0
  187.2140  177.1150  143.2100 C   0  0  2  0  0  3  0  0  0  0  0  0
  187.8610  177.8780  146.2670 C   0  0  0  0  0  3  0  0  0  0  0  0
  183.7560  178.8470  143.4930 C   0  0  0  0  0  2  0  0  0  0  0  0
  181.8020  179.4320  140.1680 C   0  0  0  0  0  3  0  0  0  0  0  0
  186.0510  177.8750  143.8730 C   0  0  1  0  0  3  0  0  0  0  0  0
  189.5330  177.4930  142.8330 C   0  0  0  0  0  3  0  0  0  0  0  0
  182.8360  179.1170  141.1990 C   0  0  0  0  0  0  0  0  0  0  0  0
  179.7820  178.4120  141.2330 C   0  0  0  0  0  3  0  0  0  0  0  0
  188.6140  178.2670  145.0230 C   0  0  2  0  0  3  0  0  0  0  0  0
  185.2010  178.3770  141.5400 C   0  0  0  0  0  0  0  0  0  0  0  0
  181.2500  179.3300  143.1320 C   0  0  2  0  0  3  0  0  0  0  0  0
  184.8340  177.9190  142.9310 C   0  0  2  0  0  3  0  0  0  0  0  0
  185.8300  179.1240  138.9660 C   0  0  0  0  0  3  0  0  0  0  0  0
  186.5930  177.4370  146.3230 C   0  0  0  0  0  3  0  0  0  0  0  0
  184.5620  179.2880  139.4310 N   0  0  0  0  0  0  0  0  0  0  0  0
  185.6780  177.1500  145.1600 C   0  0  0  0  0  2  0  0  0  0  0  0
  188.5720  177.1690  143.9450 C   0  0  1  0  0  3  0  0  0  0  0  0
  186.7870  178.5860  139.7680 N   0  0  0  0  0  0  0  0  0  0  0  0
  187.4970  177.6470  141.8900 N   0  0  0  0  0  0  0  0  0  0  0  0
  189.9340  178.5630  145.3750 O   0  0  0  0  0  0  0  0  0  0  0  0
  190.2250  177.7010  146.4410 C   0  0  0  0  0  2  0  0  0  0  0  0
  192.0230  175.0360  147.3650 O   0  0  0  0  0  0  0  0  0  0  0  0
  191.6930  176.0640  145.2670 C   0  0  0  0  0  2  0  0  0  0  0  0
  191.6340  177.1280  146.3210 C   0  0  2  0  0  3  0  0  0  0  0  0
  192.2760  174.8780  145.9950 C   0  0  0  0  0  2  0  0  0  0  0  0
  192.0500  176.4200  147.5930 C   0  0  0  0  0  2  0  0  0  0  0  0
  1 18  1  0  0  0  0
  1 27  1  0  0  0  0
  2 27  1  0  0  0  0
  2 14  2  0  0  0  0
  3 19  1  0  0  0  0
  3  7  1  0  0  0  0
  4 15  1  0  0  0  0
  4 18  2  0  0  0  0
  5 19  1  0  0  0  0
  5 11  1  0  0  0  0
  7  6  1  0  0  0  0
  8 12  2  0  0  0  0
  8 16  1  0  0  0  0
  9 27  1  6  0  0  0
  9 13  1  0  0  0  0
  9 25  1  0  0  0  0
 10 22  2  0  0  0  0
 12 15  1  0  0  0  0
 13 24  1  1  0  0  0
 15  5  2  0  0  0  0
 16  3  2  0  0  0  0
 17 28  1  1  0  0  0
 17 10  1  0  0  0  0
 18 20  1  0  0  0  0
 19  6  1  1  0  0  0
 20 11  1  1  0  0  0
 20 13  1  0  0  0  0
 21 23  2  0  0  0  0
 21 26  1  0  0  0  0
 23  4  1  0  0  0  0
 24 22  1  0  0  0  0
 25 14  1  6  0  0  0
 25 17  1  0  0  0  0
 26  1  2  0  0  0  0
 28 29  1  0  0  0  0
 30 34  1  0  0  0  0
 31 33  1  0  0  0  0
 31 32  1  0  0  0  0
 32 29  1  1  0  0  0
 32 34  1  0  0  0  0
 33 30  1  0  0  0  0
M  END
>  <MODEL>
9

>  <REMARK>
 VINA RESULT:      -8.0      3.496      7.604
  Name = 
  3 active torsions:
  status: ('A' for Active; 'I' for Inactive)
    1  A    between atoms: C_17  and  O_28
    2  A    between atoms: O_28  and  C_29
    3  A    between atoms: C_29  and  C_32
                            x       y       z     vdW  Elec       q    Type
                         _______ _______ _______ _____ _____    ______ ____

>  <TORSDO>
F 3

$$$$
