=
 OpenBabel11122411523D

 28 32  0  0  1  0  0  0  0  0999 V2000
  180.0370  179.1840  139.2170 C   0  0  2  0  0  3  0  0  0  0  0  0
  183.0620  179.0440  142.2150 F   0  0  0  0  0  0  0  0  0  0  0  0
  183.3750  174.8990  137.2840 N   0  0  0  0  0  1  0  0  0  0  0  0
  180.5160  182.0350  138.6230 C   0  0  0  0  0  2  0  0  0  0  0  0
  184.7030  176.7840  138.1950 C   0  0  2  0  0  3  0  0  0  0  0  0
  179.7100  178.0970  140.2490 C   0  0  0  0  0  2  0  0  0  0  0  0
  184.0280  177.2660  141.2290 F   0  0  0  0  0  0  0  0  0  0  0  0
  184.0600  178.6470  141.3440 C   0  0  0  0  0  0  0  0  0  0  0  0
  186.4650  178.7440  140.9350 C   0  0  0  0  0  0  0  0  0  0  0  0
  183.8340  179.3130  139.9750 C   0  0  1  0  0  3  0  0  0  0  0  0
  179.2270  175.4620  138.7160 C   0  0  0  0  0  1  0  0  0  0  0  0
  182.9400  178.4140  137.8800 C   0  0  1  0  0  3  0  0  0  0  0  0
  186.1450  178.6650  139.5460 N   0  0  0  0  0  2  0  0  0  0  0  0
  185.4000  179.0850  141.9110 C   0  0  0  0  0  2  0  0  0  0  0  0
  180.6020  176.0720  138.9140 C   0  0  1  0  0  3  0  0  0  0  0  0
  181.4230  179.8300  139.4360 C   0  0  2  0  0  3  0  0  0  0  0  0
  183.3320  176.1110  138.0910 C   0  0  1  0  0  3  0  0  0  0  0  0
  187.6360  178.5080  141.3280 O   0  0  0  0  0  0  0  0  0  0  0  0
  180.9980  176.8810  137.6710 C   0  0  0  0  0  2  0  0  0  0  0  0
  181.6440  181.0220  138.4950 C   0  0  0  0  0  2  0  0  0  0  0  0
  178.9310  180.2350  139.2860 C   0  0  0  0  0  2  0  0  0  0  0  0
  179.1880  181.3660  138.2980 C   0  0  0  0  0  2  0  0  0  0  0  0
  180.6490  176.8840  140.2120 C   0  0  0  0  0  2  0  0  0  0  0  0
  184.4480  178.2760  137.9300 C   0  0  1  0  0  3  0  0  0  0  0  0
  182.4440  177.0920  137.4780 N   0  0  1  0  0  0  0  0  0  0  0  0
  184.9350  179.1580  138.9990 N   0  0  1  0  0  0  0  0  0  0  0  0
  185.5980  176.3010  137.2360 O   0  0  0  0  0  1  0  0  0  0  0  0
  182.5630  178.8080  139.3140 C   0  0  2  0  0  3  0  0  0  0  0  0
  1 21  1  1  0  0  0
  1 16  1  0  0  0  0
  1  6  1  0  0  0  0
  3 17  1  0  0  0  0
  5 27  1  6  0  0  0
  7  8  1  0  0  0  0
  8 14  1  0  0  0  0
  8  2  1  0  0  0  0
  9 18  2  0  0  0  0
  9 14  1  0  0  0  0
 10  8  1  1  0  0  0
 11 15  1  0  0  0  0
 12 24  1  0  0  0  0
 12 28  1  0  0  0  0
 13  9  1  0  0  0  0
 15 23  1  0  0  0  0
 17  5  1  0  0  0  0
 19 15  1  0  0  0  0
 20  4  1  0  0  0  0
 20 16  1  0  0  0  0
 22  4  1  0  0  0  0
 22 21  1  0  0  0  0
 23  6  1  0  0  0  0
 24  5  1  0  0  0  0
 24 26  1  0  0  0  0
 25 19  1  0  0  0  0
 25 12  1  0  0  0  0
 25 17  1  0  0  0  0
 26 13  1  0  0  0  0
 26 10  1  0  0  0  0
 28 16  1  0  0  0  0
 28 10  1  0  0  0  0
M  END
>  <MODEL>
1

>  <REMARK>
 VINA RESULT:      -6.3      0.000      0.000
  Name = 
  0 active torsions:
  status: ('A' for Active; 'I' for Inactive)
                            x       y       z     vdW  Elec       q    Type
                         _______ _______ _______ _____ _____    ______ ____

>  <TORSDO>
F 0

$$$$
=
 OpenBabel11122411523D

 28 32  0  0  1  0  0  0  0  0999 V2000
  183.6460  176.8340  136.8700 C   0  0  2  0  0  3  0  0  0  0  0  0
  181.2110  180.3300  136.8420 F   0  0  0  0  0  0  0  0  0  0  0  0
  179.1410  175.1240  140.0360 N   0  0  0  0  0  1  0  0  0  0  0  0
  185.9820  178.2610  137.9740 C   0  0  0  0  0  2  0  0  0  0  0  0
  179.8170  177.4530  140.5490 C   0  0  2  0  0  3  0  0  0  0  0  0
  182.5730  176.7230  135.7800 C   0  0  0  0  0  2  0  0  0  0  0  0
  179.5910  179.2740  137.9930 F   0  0  0  0  0  0  0  0  0  0  0  0
  180.6900  180.1100  138.1030 C   0  0  0  0  0  0  0  0  0  0  0  0
  179.7910  181.2260  140.0810 C   0  0  0  0  0  0  0  0  0  0  0  0
  181.7710  179.4750  138.9960 C   0  0  1  0  0  3  0  0  0  0  0  0
  181.0750  174.0570  136.2020 C   0  0  0  0  0  1  0  0  0  0  0  0
  182.0820  177.1640  139.7430 C   0  0  1  0  0  3  0  0  0  0  0  0
  180.3020  180.1230  140.8290 N   0  0  0  0  0  2  0  0  0  0  0  0
  180.2630  181.4460  138.6900 C   0  0  0  0  0  2  0  0  0  0  0  0
  180.8900  175.2700  137.0950 C   0  0  1  0  0  3  0  0  0  0  0  0
  183.4780  178.0850  137.7600 C   0  0  2  0  0  3  0  0  0  0  0  0
  179.9200  176.2690  139.5840 C   0  0  1  0  0  3  0  0  0  0  0  0
  178.9330  181.9930  140.5890 O   0  0  0  0  0  0  0  0  0  0  0  0
  181.7650  175.1340  138.3490 C   0  0  0  0  0  2  0  0  0  0  0  0
  184.6590  178.2530  138.7260 C   0  0  0  0  0  2  0  0  0  0  0  0
  185.0090  176.8370  136.1800 C   0  0  0  0  0  2  0  0  0  0  0  0
  186.1370  176.9610  137.1960 C   0  0  0  0  0  2  0  0  0  0  0  0
  181.1430  176.5600  136.3110 C   0  0  0  0  0  2  0  0  0  0  0  0
  181.2570  177.9510  140.7410 C   0  0  1  0  0  3  0  0  0  0  0  0
  181.3340  175.9210  139.5190 N   0  0  1  0  0  0  0  0  0  0  0  0
  181.4370  179.3760  140.4330 N   0  0  1  0  0  0  0  0  0  0  0  0
  179.2990  177.0740  141.7910 O   0  0  0  0  0  1  0  0  0  0  0  0
  182.1410  178.0830  138.5160 C   0  0  2  0  0  3  0  0  0  0  0  0
  1  6  1  6  0  0  0
  1 16  1  0  0  0  0
  2  8  1  0  0  0  0
  4 20  1  0  0  0  0
  5 24  1  0  0  0  0
  5 27  1  1  0  0  0
  6 23  1  0  0  0  0
  7  8  1  0  0  0  0
  8 14  1  0  0  0  0
  9 18  2  0  0  0  0
  9 13  1  0  0  0  0
 10  8  1  6  0  0  0
 10 26  1  0  0  0  0
 11 15  1  0  0  0  0
 12 24  1  0  0  0  0
 14  9  1  0  0  0  0
 15 19  1  0  0  0  0
 16 28  1  0  0  0  0
 16 20  1  0  0  0  0
 17  3  1  0  0  0  0
 17  5  1  0  0  0  0
 19 25  1  0  0  0  0
 21  1  1  0  0  0  0
 21 22  1  0  0  0  0
 22  4  1  0  0  0  0
 23 15  1  0  0  0  0
 25 17  1  0  0  0  0
 25 12  1  0  0  0  0
 26 24  1  0  0  0  0
 26 13  1  0  0  0  0
 28 10  1  0  0  0  0
 28 12  1  0  0  0  0
M  END
>  <MODEL>
2

>  <REMARK>
 VINA RESULT:      -5.6      3.426      5.286
  Name = 
  0 active torsions:
  status: ('A' for Active; 'I' for Inactive)
                            x       y       z     vdW  Elec       q    Type
                         _______ _______ _______ _____ _____    ______ ____

>  <TORSDO>
F 0

$$$$
=
 OpenBabel11122411523D

 28 32  0  0  1  0  0  0  0  0999 V2000
  182.1110  178.9810  142.2490 C   0  0  2  0  0  3  0  0  0  0  0  0
  181.0550  175.2810  140.4200 F   0  0  0  0  0  0  0  0  0  0  0  0
  179.6230  180.7800  137.3690 N   0  0  0  0  0  1  0  0  0  0  0  0
  184.9650  178.2560  142.4680 C   0  0  0  0  0  2  0  0  0  0  0  0
  181.0630  178.7940  137.0100 C   0  0  2  0  0  3  0  0  0  0  0  0
  180.6460  178.6410  142.5490 C   0  0  0  0  0  2  0  0  0  0  0  0
  180.0480  176.3520  138.7150 F   0  0  0  0  0  0  0  0  0  0  0  0
  181.2240  175.7460  139.1290 C   0  0  0  0  0  0  0  0  0  0  0  0
  181.8120  175.0700  136.8570 C   0  0  0  0  0  0  0  0  0  0  0  0
  182.3930  176.7460  139.0970 C   0  0  1  0  0  3  0  0  0  0  0  0
  178.9310  181.0740  141.7290 C   0  0  0  0  0  1  0  0  0  0  0  0
  182.4120  179.1920  138.9820 C   0  0  1  0  0  3  0  0  0  0  0  0
  182.3180  176.3940  136.6860 N   0  0  0  0  0  2  0  0  0  0  0  0
  181.5370  174.5640  138.2260 C   0  0  0  0  0  2  0  0  0  0  0  0
  179.5670  180.1250  140.7300 C   0  0  1  0  0  3  0  0  0  0  0  0
  182.7700  177.9980  141.2560 C   0  0  2  0  0  3  0  0  0  0  0  0
  180.3300  179.6850  138.0180 C   0  0  1  0  0  3  0  0  0  0  0  0
  181.5830  174.3460  135.8540 O   0  0  0  0  0  0  0  0  0  0  0  0
  180.8890  180.7140  140.2190 C   0  0  0  0  0  2  0  0  0  0  0  0
  184.2750  178.2660  141.1110 C   0  0  0  0  0  2  0  0  0  0  0  0
  182.8640  178.9970  143.5780 C   0  0  0  0  0  2  0  0  0  0  0  0
  184.3400  179.3130  143.3680 C   0  0  0  0  0  2  0  0  0  0  0  0
  179.7140  178.7260  141.3340 C   0  0  0  0  0  2  0  0  0  0  0  0
  182.4670  178.5820  137.5950 C   0  0  1  0  0  3  0  0  0  0  0  0
  181.3540  180.2080  138.9150 N   0  0  1  0  0  0  0  0  0  0  0  0
  182.8370  177.1690  137.7510 N   0  0  1  0  0  0  0  0  0  0  0  0
  181.1810  179.4060  135.7590 O   0  0  0  0  0  1  0  0  0  0  0  0
  182.0720  178.0020  139.8890 C   0  0  2  0  0  3  0  0  0  0  0  0
  1  6  1  1  0  0  0
  1 21  1  0  0  0  0
  3 17  1  0  0  0  0
  4 22  1  0  0  0  0
  5 27  1  6  0  0  0
  5 24  1  0  0  0  0
  5 17  1  0  0  0  0
  7  8  1  0  0  0  0
  8  2  1  0  0  0  0
  9 14  1  0  0  0  0
 10  8  1  6  0  0  0
 10 28  1  0  0  0  0
 12 28  1  0  0  0  0
 13  9  1  0  0  0  0
 13 26  1  0  0  0  0
 14  8  1  0  0  0  0
 15 23  1  0  0  0  0
 15 11  1  0  0  0  0
 16  1  1  0  0  0  0
 17 25  1  0  0  0  0
 18  9  2  0  0  0  0
 19 15  1  0  0  0  0
 20 16  1  0  0  0  0
 20  4  1  0  0  0  0
 22 21  1  0  0  0  0
 23  6  1  0  0  0  0
 24 26  1  0  0  0  0
 24 12  1  0  0  0  0
 25 12  1  0  0  0  0
 25 19  1  0  0  0  0
 26 10  1  0  0  0  0
 28 16  1  0  0  0  0
M  END
>  <MODEL>
3

>  <REMARK>
 VINA RESULT:      -5.6      2.760      5.062
  Name = 
  0 active torsions:
  status: ('A' for Active; 'I' for Inactive)
                            x       y       z     vdW  Elec       q    Type
                         _______ _______ _______ _____ _____    ______ ____

>  <TORSDO>
F 0

$$$$
=
 OpenBabel11122411523D

 28 32  0  0  1  0  0  0  0  0999 V2000
  180.7700  176.5960  137.3740 C   0  0  2  0  0  3  0  0  0  0  0  0
  183.9540  177.5030  140.0560 F   0  0  0  0  0  0  0  0  0  0  0  0
  179.2960  181.8740  139.1670 N   0  0  0  0  0  1  0  0  0  0  0  0
  180.0460  174.1150  138.7990 C   0  0  0  0  0  2  0  0  0  0  0  0
  180.1800  180.4700  141.0100 C   0  0  2  0  0  3  0  0  0  0  0  0
  181.8400  177.4340  136.6620 C   0  0  0  0  0  2  0  0  0  0  0  0
  183.1340  179.5680  140.4130 F   0  0  0  0  0  0  0  0  0  0  0  0
  183.1720  178.2700  140.8980 C   0  0  0  0  0  0  0  0  0  0  0  0
  182.9090  179.0030  143.2130 C   0  0  0  0  0  0  0  0  0  0  0  0
  181.7560  177.6710  140.9630 C   0  0  1  0  0  3  0  0  0  0  0  0
  180.4320  179.8690  135.3900 C   0  0  0  0  0  1  0  0  0  0  0  0
  179.6630  178.3780  139.9040 C   0  0  1  0  0  3  0  0  0  0  0  0
  181.5090  179.0750  142.9400 N   0  0  0  0  0  2  0  0  0  0  0  0
  183.7960  178.2580  142.2840 C   0  0  0  0  0  2  0  0  0  0  0  0
  180.6810  179.7330  136.8800 C   0  0  1  0  0  3  0  0  0  0  0  0
  181.0390  176.4290  138.8860 C   0  0  2  0  0  3  0  0  0  0  0  0
  180.0290  180.6590  139.4980 C   0  0  1  0  0  3  0  0  0  0  0  0
  183.3880  179.5830  144.2210 O   0  0  0  0  0  0  0  0  0  0  0  0
  179.4210  179.1960  137.5730 C   0  0  0  0  0  2  0  0  0  0  0  0
  180.0470  175.4500  139.5300 C   0  0  0  0  0  2  0  0  0  0  0  0
  180.7100  175.2370  136.6790 C   0  0  0  0  0  2  0  0  0  0  0  0
  179.6770  174.3310  137.3380 C   0  0  0  0  0  2  0  0  0  0  0  0
  181.9310  178.8890  137.1430 C   0  0  0  0  0  2  0  0  0  0  0  0
  179.8160  179.0020  141.2780 C   0  0  1  0  0  3  0  0  0  0  0  0
  179.3070  179.4890  139.0130 N   0  0  1  0  0  0  0  0  0  0  0  0
  180.8610  178.2530  141.9870 N   0  0  1  0  0  0  0  0  0  0  0  0
  179.3080  181.2920  141.7300 O   0  0  0  0  0  1  0  0  0  0  0  0
  181.0460  177.7760  139.6240 C   0  0  2  0  0  3  0  0  0  0  0  0
  1  6  1  6  0  0  0
  1 16  1  0  0  0  0
  2  8  1  0  0  0  0
  3 17  1  0  0  0  0
  4 20  1  0  0  0  0
  5 24  1  0  0  0  0
  5 27  1  1  0  0  0
  6 23  1  0  0  0  0
  7  8  1  0  0  0  0
  8 14  1  0  0  0  0
  9 18  2  0  0  0  0
 10  8  1  6  0  0  0
 10 26  1  0  0  0  0
 11 15  1  0  0  0  0
 12 24  1  0  0  0  0
 13  9  1  0  0  0  0
 14  9  1  0  0  0  0
 15 23  1  0  0  0  0
 15 19  1  0  0  0  0
 16 20  1  0  0  0  0
 16 28  1  0  0  0  0
 17  5  1  0  0  0  0
 19 25  1  0  0  0  0
 21 22  1  0  0  0  0
 21  1  1  0  0  0  0
 22  4  1  0  0  0  0
 24 26  1  0  0  0  0
 25 17  1  0  0  0  0
 25 12  1  0  0  0  0
 26 13  1  0  0  0  0
 28 12  1  0  0  0  0
 28 10  1  0  0  0  0
M  END
>  <MODEL>
4

>  <REMARK>
 VINA RESULT:      -5.5      3.148      5.095
  Name = 
  0 active torsions:
  status: ('A' for Active; 'I' for Inactive)
                            x       y       z     vdW  Elec       q    Type
                         _______ _______ _______ _____ _____    ______ ____

>  <TORSDO>
F 0

$$$$
=
 OpenBabel11122411523D

 28 32  0  0  1  0  0  0  0  0999 V2000
  181.2380  179.8490  138.5700 C   0  0  2  0  0  3  0  0  0  0  0  0
  184.1630  176.8460  137.8080 F   0  0  0  0  0  0  0  0  0  0  0  0
  178.9890  175.3230  141.3430 N   0  0  0  0  0  1  0  0  0  0  0  0
  180.8050  180.3990  135.7020 C   0  0  0  0  0  2  0  0  0  0  0  0
  179.9850  174.6860  139.1640 C   0  0  2  0  0  3  0  0  0  0  0  0
  182.2100  179.7430  139.7520 C   0  0  0  0  0  2  0  0  0  0  0  0
  183.0550  175.3680  139.0940 F   0  0  0  0  0  0  0  0  0  0  0  0
  183.2510  175.8070  137.7940 C   0  0  0  0  0  0  0  0  0  0  0  0
  182.8020  173.5980  136.8540 C   0  0  0  0  0  0  0  0  0  0  0  0
  181.9290  176.2990  137.1790 C   0  0  1  0  0  3  0  0  0  0  0  0
  180.5320  179.3540  142.3140 C   0  0  0  0  0  1  0  0  0  0  0  0
  179.8010  176.9120  138.2270 C   0  0  1  0  0  3  0  0  0  0  0  0
  181.4170  173.9250  136.9710 N   0  0  0  0  0  2  0  0  0  0  0  0
  183.8180  174.6770  136.9500 C   0  0  0  0  0  2  0  0  0  0  0  0
  180.7400  178.2650  141.2780 C   0  0  1  0  0  3  0  0  0  0  0  0
  181.4680  178.7600  137.4980 C   0  0  2  0  0  3  0  0  0  0  0  0
  179.8670  175.7470  140.2620 C   0  0  1  0  0  3  0  0  0  0  0  0
  183.1580  172.4020  136.6930 O   0  0  0  0  0  0  0  0  0  0  0  0
  179.5400  178.2180  140.3230 C   0  0  0  0  0  2  0  0  0  0  0  0
  180.5960  178.9970  136.2570 C   0  0  0  0  0  2  0  0  0  0  0  0
  181.3910  181.2450  137.9680 C   0  0  0  0  0  2  0  0  0  0  0  0
  180.4670  181.4290  136.7710 C   0  0  0  0  0  2  0  0  0  0  0  0
  182.0820  178.4480  140.5650 C   0  0  0  0  0  2  0  0  0  0  0  0
  179.8140  175.4460  137.8400 C   0  0  1  0  0  3  0  0  0  0  0  0
  179.3320  176.9390  139.6170 N   0  0  1  0  0  0  0  0  0  0  0  0
  180.9250  175.2500  136.8980 N   0  0  1  0  0  0  0  0  0  0  0  0
  178.9820  173.7170  139.2620 O   0  0  0  0  0  1  0  0  0  0  0  0
  181.2640  177.3450  138.0570 C   0  0  2  0  0  3  0  0  0  0  0  0
  1 21  1  6  0  0  0
  1  6  1  0  0  0  0
  4 20  1  0  0  0  0
  4 22  1  0  0  0  0
  5 27  1  1  0  0  0
  5 17  1  0  0  0  0
  6 23  1  0  0  0  0
  8  2  1  0  0  0  0
  8  7  1  0  0  0  0
  9 14  1  0  0  0  0
  9 13  1  0  0  0  0
 10  8  1  1  0  0  0
 10 28  1  0  0  0  0
 12 25  1  0  0  0  0
 14  8  1  0  0  0  0
 15 11  1  0  0  0  0
 16 28  1  0  0  0  0
 16  1  1  0  0  0  0
 17  3  1  0  0  0  0
 18  9  2  0  0  0  0
 19 15  1  0  0  0  0
 20 16  1  0  0  0  0
 22 21  1  0  0  0  0
 23 15  1  0  0  0  0
 24 12  1  0  0  0  0
 24  5  1  0  0  0  0
 25 17  1  0  0  0  0
 25 19  1  0  0  0  0
 26 13  1  0  0  0  0
 26 10  1  0  0  0  0
 26 24  1  0  0  0  0
 28 12  1  0  0  0  0
M  END
>  <MODEL>
5

>  <REMARK>
 VINA RESULT:      -5.4      3.273      4.812
  Name = 
  0 active torsions:
  status: ('A' for Active; 'I' for Inactive)
                            x       y       z     vdW  Elec       q    Type
                         _______ _______ _______ _____ _____    ______ ____

>  <TORSDO>
F 0

$$$$
=
 OpenBabel11122411523D

 28 32  0  0  1  0  0  0  0  0999 V2000
  182.9520  175.9320  137.2020 C   0  0  2  0  0  3  0  0  0  0  0  0
  180.9390  179.3340  135.6120 F   0  0  0  0  0  0  0  0  0  0  0  0
  178.9890  176.9280  141.2690 N   0  0  0  0  0  1  0  0  0  0  0  0
  185.5950  177.2460  137.1270 C   0  0  0  0  0  2  0  0  0  0  0  0
  179.9920  179.0240  140.4050 C   0  0  2  0  0  3  0  0  0  0  0  0
  181.6830  175.4970  136.4590 C   0  0  0  0  0  2  0  0  0  0  0  0
  179.4700  179.3250  137.3170 F   0  0  0  0  0  0  0  0  0  0  0  0
  180.6510  179.8780  136.8500 C   0  0  0  0  0  0  0  0  0  0  0  0
  180.2720  181.9810  138.0320 C   0  0  0  0  0  0  0  0  0  0  0  0
  181.8110  179.5830  137.8170 C   0  0  1  0  0  3  0  0  0  0  0  0
  180.0240  173.7410  138.3800 C   0  0  0  0  0  1  0  0  0  0  0  0
  182.0160  177.9450  139.6270 C   0  0  1  0  0  3  0  0  0  0  0  0
  180.7990  181.3270  139.1870 N   0  0  0  0  0  2  0  0  0  0  0  0
  180.4880  181.3810  136.6910 C   0  0  0  0  0  2  0  0  0  0  0  0
  180.1430  175.2470  138.5180 C   0  0  1  0  0  3  0  0  0  0  0  0
  183.0920  177.4670  137.3160 C   0  0  2  0  0  3  0  0  0  0  0  0
  179.7820  177.5210  140.2010 C   0  0  1  0  0  3  0  0  0  0  0  0
  179.6140  183.0460  138.1540 O   0  0  0  0  0  0  0  0  0  0  0  0
  181.2240  175.5940  139.5510 C   0  0  0  0  0  2  0  0  0  0  0  0
  184.4480  177.8670  137.9120 C   0  0  0  0  0  2  0  0  0  0  0  0
  184.1490  175.3300  136.4680 C   0  0  0  0  0  2  0  0  0  0  0  0
  185.4590  175.7300  137.1360 C   0  0  0  0  0  2  0  0  0  0  0  0
  180.3740  175.8970  137.1510 C   0  0  0  0  0  2  0  0  0  0  0  0
  181.4870  179.2670  140.1470 C   0  0  1  0  0  3  0  0  0  0  0  0
  181.1120  176.9260  140.1730 N   0  0  1  0  0  0  0  0  0  0  0  0
  181.7520  180.2820  139.1190 N   0  0  1  0  0  0  0  0  0  0  0  0
  179.6870  179.4230  141.7090 O   0  0  0  0  0  1  0  0  0  0  0  0
  181.9330  178.0960  138.1020 C   0  0  2  0  0  3  0  0  0  0  0  0
  1  6  1  6  0  0  0
  1 16  1  0  0  0  0
  2  8  1  0  0  0  0
  4 22  1  0  0  0  0
  4 20  1  0  0  0  0
  5 27  1  1  0  0  0
  6 23  1  0  0  0  0
  8  7  1  0  0  0  0
  9 18  2  0  0  0  0
  9 13  1  0  0  0  0
 10  8  1  6  0  0  0
 10 28  1  0  0  0  0
 10 26  1  0  0  0  0
 11 15  1  0  0  0  0
 12 24  1  0  0  0  0
 12 25  1  0  0  0  0
 14  8  1  0  0  0  0
 14  9  1  0  0  0  0
 15 19  1  0  0  0  0
 16 20  1  0  0  0  0
 16 28  1  0  0  0  0
 17  5  1  0  0  0  0
 17  3  1  0  0  0  0
 19 25  1  0  0  0  0
 21 22  1  0  0  0  0
 21  1  1  0  0  0  0
 23 15  1  0  0  0  0
 24  5  1  0  0  0  0
 25 17  1  0  0  0  0
 26 13  1  0  0  0  0
 26 24  1  0  0  0  0
 28 12  1  0  0  0  0
M  END
>  <MODEL>
6

>  <REMARK>
 VINA RESULT:      -5.2      3.465      5.524
  Name = 
  0 active torsions:
  status: ('A' for Active; 'I' for Inactive)
                            x       y       z     vdW  Elec       q    Type
                         _______ _______ _______ _____ _____    ______ ____

>  <TORSDO>
F 0

$$$$
=
 OpenBabel11122411523D

 28 32  0  0  1  0  0  0  0  0999 V2000
  181.3980  176.3980  136.1510 C   0  0  2  0  0  3  0  0  0  0  0  0
  184.9160  178.3230  137.5910 F   0  0  0  0  0  0  0  0  0  0  0  0
  179.1660  180.4340  139.6090 N   0  0  0  0  0  1  0  0  0  0  0  0
  182.2680  173.7340  137.0820 C   0  0  0  0  0  2  0  0  0  0  0  0
  181.1890  179.3800  140.5820 C   0  0  2  0  0  3  0  0  0  0  0  0
  181.6890  177.6560  135.3240 C   0  0  0  0  0  2  0  0  0  0  0  0
  183.6890  179.8300  138.7260 F   0  0  0  0  0  0  0  0  0  0  0  0
  184.3750  178.6300  138.8250 C   0  0  0  0  0  0  0  0  0  0  0  0
  184.9250  179.0030  141.1750 C   0  0  0  0  0  0  0  0  0  0  0  0
  183.4300  177.4960  139.2620 C   0  0  1  0  0  3  0  0  0  0  0  0
  179.1320  179.3840  135.3120 C   0  0  0  0  0  1  0  0  0  0  0  0
  180.9850  177.3560  139.2680 C   0  0  1  0  0  3  0  0  0  0  0  0
  183.6170  178.5110  141.4700 N   0  0  0  0  0  2  0  0  0  0  0  0
  185.5070  178.7670  139.8300 C   0  0  0  0  0  2  0  0  0  0  0  0
  180.0400  179.2450  136.5190 C   0  0  1  0  0  3  0  0  0  0  0  0
  182.3430  176.2370  137.3630 C   0  0  2  0  0  3  0  0  0  0  0  0
  180.3340  179.6090  139.3330 C   0  0  1  0  0  3  0  0  0  0  0  0
  185.5690  179.6470  142.0420 O   0  0  0  0  0  0  0  0  0  0  0  0
  179.4800  178.1820  137.4750 C   0  0  0  0  0  2  0  0  0  0  0  0
  182.1350  174.8880  138.0660 C   0  0  0  0  0  2  0  0  0  0  0  0
  181.5050  175.1940  135.2160 C   0  0  0  0  0  2  0  0  0  0  0  0
  181.2450  173.8930  135.9660 C   0  0  0  0  0  2  0  0  0  0  0  0
  181.4810  178.9750  136.0810 C   0  0  0  0  0  2  0  0  0  0  0  0
  181.5030  177.8770  140.5940 C   0  0  1  0  0  3  0  0  0  0  0  0
  179.9190  178.2870  138.8780 N   0  0  1  0  0  0  0  0  0  0  0  0
  182.9390  177.5730  140.6550 N   0  0  1  0  0  0  0  0  0  0  0  0
  180.5010  179.7090  141.7540 O   0  0  0  0  0  1  0  0  0  0  0  0
  182.2160  177.4040  138.3540 C   0  0  2  0  0  3  0  0  0  0  0  0
  1 21  1  6  0  0  0
  1 16  1  0  0  0  0
  2  8  1  0  0  0  0
  4 20  1  0  0  0  0
  5 24  1  0  0  0  0
  5 27  1  1  0  0  0
  6 23  1  0  0  0  0
  6  1  1  0  0  0  0
  7  8  1  0  0  0  0
  8 14  1  0  0  0  0
  9 13  1  0  0  0  0
  9 18  2  0  0  0  0
 10  8  1  6  0  0  0
 10 26  1  0  0  0  0
 11 15  1  0  0  0  0
 12 24  1  0  0  0  0
 14  9  1  0  0  0  0
 15 19  1  0  0  0  0
 16 20  1  0  0  0  0
 16 28  1  0  0  0  0
 17  3  1  0  0  0  0
 17  5  1  0  0  0  0
 19 25  1  0  0  0  0
 21 22  1  0  0  0  0
 22  4  1  0  0  0  0
 23 15  1  0  0  0  0
 24 26  1  0  0  0  0
 25 12  1  0  0  0  0
 25 17  1  0  0  0  0
 26 13  1  0  0  0  0
 28 10  1  0  0  0  0
 28 12  1  0  0  0  0
M  END
>  <MODEL>
7

>  <REMARK>
 VINA RESULT:      -5.2      2.840      4.771
  Name = 
  0 active torsions:
  status: ('A' for Active; 'I' for Inactive)
                            x       y       z     vdW  Elec       q    Type
                         _______ _______ _______ _____ _____    ______ ____

>  <TORSDO>
F 0

$$$$
=
 OpenBabel11122411523D

 28 32  0  0  1  0  0  0  0  0999 V2000
  180.5540  178.3340  137.1770 C   0  0  2  0  0  3  0  0  0  0  0  0
  181.5340  177.8780  141.2980 F   0  0  0  0  0  0  0  0  0  0  0  0
  185.8840  176.1610  136.8580 N   0  0  0  0  0  1  0  0  0  0  0  0
  179.9680  181.2140  137.4580 C   0  0  0  0  0  2  0  0  0  0  0  0
  185.6630  177.8390  138.6700 C   0  0  2  0  0  3  0  0  0  0  0  0
  180.2880  176.8930  137.6280 C   0  0  0  0  0  2  0  0  0  0  0  0
  183.5090  176.9340  140.7770 F   0  0  0  0  0  0  0  0  0  0  0  0
  182.8820  178.1220  141.1170 C   0  0  0  0  0  0  0  0  0  0  0  0
  184.8830  179.0040  142.2040 C   0  0  0  0  0  0  0  0  0  0  0  0
  183.0640  179.1720  140.0070 C   0  0  1  0  0  3  0  0  0  0  0  0
  181.7760  175.0110  135.6860 C   0  0  0  0  0  1  0  0  0  0  0  0
  183.7490  178.9330  137.6670 C   0  0  1  0  0  3  0  0  0  0  0  0
  185.3240  179.3760  140.8980 N   0  0  0  0  0  2  0  0  0  0  0  0
  183.4570  178.6520  142.4210 C   0  0  0  0  0  2  0  0  0  0  0  0
  182.4760  175.8430  136.7440 C   0  0  1  0  0  3  0  0  0  0  0  0
  181.2380  179.1930  138.2640 C   0  0  2  0  0  3  0  0  0  0  0  0
  184.9480  176.9160  137.6790 C   0  0  1  0  0  3  0  0  0  0  0  0
  185.7020  178.9570  143.1570 O   0  0  0  0  0  0  0  0  0  0  0  0
  183.0160  177.1360  136.1180 C   0  0  0  0  0  2  0  0  0  0  0  0
  181.3350  180.6650  137.8420 C   0  0  0  0  0  2  0  0  0  0  0  0
  179.2150  178.9450  136.7650 C   0  0  0  0  0  2  0  0  0  0  0  0
  179.3880  180.3900  136.3160 C   0  0  0  0  0  2  0  0  0  0  0  0
  181.5520  176.0820  137.9410 C   0  0  0  0  0  2  0  0  0  0  0  0
  184.9460  179.1930  138.5600 C   0  0  1  0  0  3  0  0  0  0  0  0
  184.1280  177.7820  136.8390 N   0  0  1  0  0  0  0  0  0  0  0  0
  184.4360  179.6980  139.8420 N   0  0  1  0  0  0  0  0  0  0  0  0
  187.0110  178.0120  138.3450 O   0  0  0  0  0  1  0  0  0  0  0  0
  182.6150  178.6370  138.6580 C   0  0  2  0  0  3  0  0  0  0  0  0
  1 21  1  1  0  0  0
  1  6  1  0  0  0  0
  1 16  1  0  0  0  0
  3 17  1  0  0  0  0
  4 20  1  0  0  0  0
  5 27  1  6  0  0  0
  6 23  1  0  0  0  0
  7  8  1  0  0  0  0
  8  2  1  0  0  0  0
  8 14  1  0  0  0  0
  9 14  1  0  0  0  0
  9 18  2  0  0  0  0
 10  8  1  1  0  0  0
 11 15  1  0  0  0  0
 12 24  1  0  0  0  0
 12 28  1  0  0  0  0
 13  9  1  0  0  0  0
 15 23  1  0  0  0  0
 16 28  1  0  0  0  0
 17  5  1  0  0  0  0
 19 15  1  0  0  0  0
 19 25  1  0  0  0  0
 20 16  1  0  0  0  0
 22 21  1  0  0  0  0
 22  4  1  0  0  0  0
 24  5  1  0  0  0  0
 24 26  1  0  0  0  0
 25 12  1  0  0  0  0
 25 17  1  0  0  0  0
 26 10  1  0  0  0  0
 26 13  1  0  0  0  0
 28 10  1  0  0  0  0
M  END
>  <MODEL>
8

>  <REMARK>
 VINA RESULT:      -5.0      1.702      2.095
  Name = 
  0 active torsions:
  status: ('A' for Active; 'I' for Inactive)
                            x       y       z     vdW  Elec       q    Type
                         _______ _______ _______ _____ _____    ______ ____

>  <TORSDO>
F 0

$$$$
=
 OpenBabel11122411523D

 28 32  0  0  1  0  0  0  0  0999 V2000
  186.5030  175.4770  135.8850 C   0  0  2  0  0  3  0  0  0  0  0  0
  189.2960  176.2890  138.9990 F   0  0  0  0  0  0  0  0  0  0  0  0
  190.6210  171.5980  134.7770 N   0  0  0  0  0  1  0  0  0  0  0  0
  186.5490  178.2530  134.8840 C   0  0  0  0  0  2  0  0  0  0  0  0
  191.5580  173.7930  135.4470 C   0  0  2  0  0  3  0  0  0  0  0  0
  186.2880  174.5090  137.0560 C   0  0  0  0  0  2  0  0  0  0  0  0
  190.6050  174.5810  138.3400 F   0  0  0  0  0  0  0  0  0  0  0  0
  190.4020  175.9490  138.2440 C   0  0  0  0  0  0  0  0  0  0  0  0
  192.7820  176.3990  137.9300 C   0  0  0  0  0  0  0  0  0  0  0  0
  190.1660  176.3630  136.7810 C   0  0  1  0  0  3  0  0  0  0  0  0
  186.3480  171.6380  135.9230 C   0  0  0  0  0  1  0  0  0  0  0  0
  189.5770  175.0340  134.8100 C   0  0  1  0  0  3  0  0  0  0  0  0
  192.5750  176.0680  136.5570 N   0  0  0  0  0  2  0  0  0  0  0  0
  191.6110  176.6870  138.7960 C   0  0  0  0  0  2  0  0  0  0  0  0
  187.5870  172.4980  136.0860 C   0  0  1  0  0  3  0  0  0  0  0  0
  187.7460  176.3760  136.0640 C   0  0  2  0  0  3  0  0  0  0  0  0
  190.3250  172.8860  135.3870 C   0  0  1  0  0  3  0  0  0  0  0  0
  193.9460  176.4250  138.4060 O   0  0  0  0  0  0  0  0  0  0  0  0
  187.9310  173.1760  134.7530 C   0  0  0  0  0  2  0  0  0  0  0  0
  187.8340  177.4420  134.9620 C   0  0  0  0  0  2  0  0  0  0  0  0
  185.2370  176.3210  135.7440 C   0  0  0  0  0  2  0  0  0  0  0  0
  185.3740  177.3260  134.6080 C   0  0  0  0  0  2  0  0  0  0  0  0
  187.4120  173.4820  137.2450 C   0  0  0  0  0  2  0  0  0  0  0  0
  191.0810  175.1650  134.9470 C   0  0  1  0  0  3  0  0  0  0  0  0
  189.3340  173.6020  134.5940 N   0  0  1  0  0  0  0  0  0  0  0  0
  191.3420  176.2620  135.8890 N   0  0  1  0  0  0  0  0  0  0  0  0
  192.5830  173.3390  134.6130 O   0  0  0  0  0  1  0  0  0  0  0  0
  189.0440  175.5590  136.1490 C   0  0  2  0  0  3  0  0  0  0  0  0
  1 21  1  1  0  0  0
  1 16  1  0  0  0  0
  1  6  1  0  0  0  0
  3 17  1  0  0  0  0
  4 20  1  0  0  0  0
  5 27  1  6  0  0  0
  6 23  1  0  0  0  0
  8  7  1  0  0  0  0
  8 14  1  0  0  0  0
  8  2  1  0  0  0  0
  9 18  2  0  0  0  0
  9 14  1  0  0  0  0
 10  8  1  1  0  0  0
 11 15  1  0  0  0  0
 12 24  1  0  0  0  0
 12 28  1  0  0  0  0
 13  9  1  0  0  0  0
 15 23  1  0  0  0  0
 16 28  1  0  0  0  0
 17  5  1  0  0  0  0
 19 15  1  0  0  0  0
 20 16  1  0  0  0  0
 22  4  1  0  0  0  0
 22 21  1  0  0  0  0
 24  5  1  0  0  0  0
 24 26  1  0  0  0  0
 25 19  1  0  0  0  0
 25 12  1  0  0  0  0
 25 17  1  0  0  0  0
 26 13  1  0  0  0  0
 26 10  1  0  0  0  0
 28 10  1  0  0  0  0
M  END
>  <MODEL>
9

>  <REMARK>
 VINA RESULT:      -4.8      6.426      7.953
  Name = 
  0 active torsions:
  status: ('A' for Active; 'I' for Inactive)
                            x       y       z     vdW  Elec       q    Type
                         _______ _______ _______ _____ _____    ______ ____

>  <TORSDO>
F 0

$$$$
