=
 OpenBabel11122410333D

 30 35  0  0  1  0  0  0  0  0999 V2000
  185.8720  177.8690  137.9890 C   0  0  0  0  0  0  0  0  0  0  0  0
  183.9630  179.1260  138.9690 C   0  0  0  0  0  0  0  0  0  0  0  0
  183.9680  174.8020  137.7880 N   0  0  0  0  0  2  0  0  0  0  0  0
  186.4510  176.7460  137.1880 C   0  0  2  0  0  3  0  0  0  0  0  0
  186.7950  178.7190  138.6110 O   0  0  0  0  0  0  0  0  0  0  0  0
  189.4220  178.8600  136.6640 O   0  0  0  0  0  1  0  0  0  0  0  0
  188.5290  174.8440  136.0410 C   0  0  1  0  0  3  0  0  0  0  0  0
  188.7340  177.8480  137.3320 C   0  0  1  0  0  3  0  0  0  0  0  0
  187.4390  174.1590  136.8800 C   0  0  2  0  0  3  0  0  0  0  0  0
  185.0090  173.8930  137.4810 C   0  0  0  0  0  0  0  0  0  0  0  0
  188.1920  178.4000  138.6690 C   0  0  2  0  0  3  0  0  0  0  0  0
  187.6540  177.2560  136.4030 C   0  0  1  0  0  3  0  0  0  0  0  0
  182.4770  179.1810  139.1710 C   0  0  0  0  0  2  0  0  0  0  0  0
  187.7750  172.6900  136.7500 C   0  0  0  0  0  2  0  0  0  0  0  0
  188.9480  173.8960  135.0210 N   0  0  0  0  0  2  0  0  0  0  0  0
  184.6870  179.9790  139.5500 O   0  0  0  0  0  0  0  0  0  0  0  0
  184.0730  175.8810  136.8270 C   0  0  2  0  0  3  0  0  0  0  0  0
  181.7600  178.3490  138.1060 C   0  0  0  0  0  2  0  0  0  0  0  0
  184.5470  178.0420  138.1380 C   0  0  0  0  0  0  0  0  0  0  0  0
  185.5210  175.8810  136.3260 C   0  0  2  0  0  3  0  0  0  0  0  0
  185.0840  172.7580  138.0190 O   0  0  0  0  0  0  0  0  0  0  0  0
  185.9630  174.3980  136.4460 C   0  0  1  0  0  3  0  0  0  0  0  0
  188.7960  172.5830  135.6310 C   0  0  0  0  0  2  0  0  0  0  0  0
  189.2900  176.7050  134.7080 O   0  0  0  0  0  1  0  0  0  0  0  0
  182.3390  177.0700  138.0300 O   0  0  0  0  0  0  0  0  0  0  0  0
  183.5540  177.2280  137.3350 C   0  0  2  0  0  3  0  0  0  0  0  0
  188.1920  176.2050  135.4130 C   0  0  1  0  0  3  0  0  0  0  0  0
  188.4530  177.3910  139.7750 C   0  0  0  0  0  2  0  0  0  0  0  0
  190.4720  177.0830  140.6050 C   0  0  0  0  0  1  0  0  0  0  0  0
  189.6540  176.7250  139.5350 O   0  0  0  0  0  0  0  0  0  0  0  0
  1 19  2  0  0  0  0
  1  5  1  0  0  0  0
  2 13  1  0  0  0  0
  2 16  2  0  0  0  0
  4  1  1  6  0  0  0
  5 11  1  0  0  0  0
  7 15  1  6  0  0  0
  7  9  1  0  0  0  0
  8  6  1  6  0  0  0
  8 11  1  0  0  0  0
  9 14  1  6  0  0  0
 10  3  1  0  0  0  0
 10 21  2  0  0  0  0
 11 28  1  1  0  0  0
 12  4  1  0  0  0  0
 12  8  1  0  0  0  0
 15 23  1  0  0  0  0
 17 26  1  0  0  0  0
 17  3  1  0  0  0  0
 18 13  1  0  0  0  0
 19  2  1  0  0  0  0
 20 22  1  0  0  0  0
 20 17  1  0  0  0  0
 20  4  1  0  0  0  0
 22  9  1  0  0  0  0
 22 10  1  0  0  0  0
 23 14  1  0  0  0  0
 24 27  1  0  0  0  0
 25 18  1  0  0  0  0
 26 25  1  0  0  0  0
 26 19  1  0  0  0  0
 27  7  1  0  0  0  0
 27 12  1  0  0  0  0
 30 28  1  0  0  0  0
 30 29  1  0  0  0  0
M  END
>  <MODEL>
1

>  <REMARK>
 VINA RESULT:      -6.6      0.000      0.000
  Name = 
  2 active torsions:
  status: ('A' for Active; 'I' for Inactive)
    1  A    between atoms: C_11  and  C_28
    2  A    between atoms: C_28  and  O_30
                            x       y       z     vdW  Elec       q    Type
                         _______ _______ _______ _____ _____    ______ ____

>  <TORSDO>
F 2

$$$$
=
 OpenBabel11122410333D

 30 35  0  0  1  0  0  0  0  0999 V2000
  182.5440  178.5540  142.8990 C   0  0  0  0  0  0  0  0  0  0  0  0
  184.0820  178.8230  144.8350 C   0  0  0  0  0  0  0  0  0  0  0  0
  185.0810  179.5610  140.5270 N   0  0  0  0  0  2  0  0  0  0  0  0
  182.2640  178.3260  141.4470 C   0  0  2  0  0  3  0  0  0  0  0  0
  181.4290  178.8090  143.7070 O   0  0  0  0  0  0  0  0  0  0  0  0
  178.9310  177.1130  142.4420 O   0  0  0  0  0  1  0  0  0  0  0  0
  180.7100  178.1840  138.8360 C   0  0  1  0  0  3  0  0  0  0  0  0
  179.7910  178.1090  141.9800 C   0  0  1  0  0  3  0  0  0  0  0  0
  181.8820  179.1780  138.8220 C   0  0  2  0  0  3  0  0  0  0  0  0
  184.2800  179.7140  139.3700 C   0  0  0  0  0  0  0  0  0  0  0  0
  180.1340  179.0630  143.1440 C   0  0  2  0  0  3  0  0  0  0  0  0
  181.0170  177.4600  141.3050 C   0  0  1  0  0  3  0  0  0  0  0  0
  185.5090  178.9100  145.2920 C   0  0  0  0  0  2  0  0  0  0  0  0
  181.8820  179.6910  137.3990 C   0  0  0  0  0  2  0  0  0  0  0  0
  180.5580  177.6770  137.4820 N   0  0  0  0  0  2  0  0  0  0  0  0
  183.1620  179.0290  145.6710 O   0  0  0  0  0  0  0  0  0  0  0  0
  184.7870  178.2430  141.0540 C   0  0  2  0  0  3  0  0  0  0  0  0
  186.4410  178.2570  144.2700 C   0  0  0  0  0  2  0  0  0  0  0  0
  183.7900  178.5520  143.4030 C   0  0  0  0  0  0  0  0  0  0  0  0
  183.4010  177.8610  140.5280 C   0  0  2  0  0  3  0  0  0  0  0  0
  184.4290  180.6810  138.5780 O   0  0  0  0  0  0  0  0  0  0  0  0
  183.2890  178.6120  139.1740 C   0  0  1  0  0  3  0  0  0  0  0  0
  180.9650  178.7710  136.6130 C   0  0  0  0  0  2  0  0  0  0  0  0
  179.6250  176.2350  139.7530 O   0  0  0  0  0  1  0  0  0  0  0  0
  186.1600  178.7510  142.9840 O   0  0  0  0  0  0  0  0  0  0  0  0
  184.9740  178.1150  142.5670 C   0  0  2  0  0  3  0  0  0  0  0  0
  180.7700  177.0290  139.8470 C   0  0  1  0  0  3  0  0  0  0  0  0
  180.0470  180.5020  142.6600 C   0  0  0  0  0  2  0  0  0  0  0  0
  178.9310  181.7270  141.2080 C   0  0  0  0  0  1  0  0  0  0  0  0
  179.6340  180.5300  141.3290 O   0  0  0  0  0  0  0  0  0  0  0  0
  1 19  2  0  0  0  0
  1  5  1  0  0  0  0
  2 13  1  0  0  0  0
  2 16  2  0  0  0  0
  3 17  1  0  0  0  0
  4  1  1  1  0  0  0
  7 15  1  6  0  0  0
  7 27  1  0  0  0  0
  8  6  1  1  0  0  0
  8 11  1  0  0  0  0
  9 14  1  6  0  0  0
  9  7  1  0  0  0  0
  9 22  1  0  0  0  0
 10  3  1  0  0  0  0
 11 28  1  6  0  0  0
 11  5  1  0  0  0  0
 12  4  1  0  0  0  0
 12  8  1  0  0  0  0
 17 26  1  0  0  0  0
 18 13  1  0  0  0  0
 19  2  1  0  0  0  0
 20 17  1  0  0  0  0
 20  4  1  0  0  0  0
 21 10  2  0  0  0  0
 22 10  1  0  0  0  0
 22 20  1  0  0  0  0
 23 14  1  0  0  0  0
 23 15  1  0  0  0  0
 24 27  1  0  0  0  0
 25 18  1  0  0  0  0
 26 25  1  0  0  0  0
 26 19  1  0  0  0  0
 27 12  1  0  0  0  0
 29 30  1  0  0  0  0
 30 28  1  0  0  0  0
M  END
>  <MODEL>
2

>  <REMARK>
 VINA RESULT:      -6.5      5.156      8.165
  Name = 
  2 active torsions:
  status: ('A' for Active; 'I' for Inactive)
    1  A    between atoms: C_11  and  C_28
    2  A    between atoms: C_28  and  O_30
                            x       y       z     vdW  Elec       q    Type
                         _______ _______ _______ _____ _____    ______ ____

>  <TORSDO>
F 2

$$$$
=
 OpenBabel11122410333D

 30 35  0  0  1  0  0  0  0  0999 V2000
  183.2810  177.3820  138.1200 C   0  0  0  0  0  0  0  0  0  0  0  0
  185.3650  176.6840  136.9560 C   0  0  0  0  0  0  0  0  0  0  0  0
  185.0830  178.4320  141.0740 N   0  0  0  0  0  2  0  0  0  0  0  0
  182.5340  178.1840  139.1380 C   0  0  2  0  0  3  0  0  0  0  0  0
  182.5240  176.4560  137.3920 O   0  0  0  0  0  0  0  0  0  0  0  0
  179.5270  177.7300  137.0590 O   0  0  0  0  0  1  0  0  0  0  0  0
  180.2460  179.0960  140.9230 C   0  0  1  0  0  3  0  0  0  0  0  0
  180.3450  177.3810  138.1340 C   0  0  1  0  0  3  0  0  0  0  0  0
  181.4950  178.6260  141.6860 C   0  0  2  0  0  3  0  0  0  0  0  0
  183.9970  178.6250  141.9610 C   0  0  0  0  0  0  0  0  0  0  0  0
  181.1750  176.1350  137.7560 C   0  0  2  0  0  3  0  0  0  0  0  0
  181.1870  178.6020  138.5600 C   0  0  1  0  0  3  0  0  0  0  0  0
  186.8590  176.8120  136.8860 C   0  0  0  0  0  2  0  0  0  0  0  0
  181.1350  178.8840  143.1320 C   0  0  0  0  0  2  0  0  0  0  0  0
  179.6070  180.1200  141.7330 N   0  0  0  0  0  2  0  0  0  0  0  0
  184.7920  175.8420  136.2130 O   0  0  0  0  0  0  0  0  0  0  0  0
  184.7680  179.1830  139.8750 C   0  0  2  0  0  3  0  0  0  0  0  0
  187.3160  178.1160  137.5420 C   0  0  0  0  0  2  0  0  0  0  0  0
  184.6070  177.5080  137.9320 C   0  0  0  0  0  0  0  0  0  0  0  0
  183.2450  179.3440  139.8480 C   0  0  2  0  0  3  0  0  0  0  0  0
  184.0420  178.2490  143.1610 O   0  0  0  0  0  0  0  0  0  0  0  0
  182.8370  179.3390  141.3460 C   0  0  1  0  0  3  0  0  0  0  0  0
  179.8890  179.7510  143.1130 C   0  0  0  0  0  2  0  0  0  0  0  0
  179.2110  179.9500  138.9190 O   0  0  0  0  0  1  0  0  0  0  0  0
  186.7310  178.2410  138.8140 O   0  0  0  0  0  0  0  0  0  0  0  0
  185.3910  178.6180  138.5970 C   0  0  2  0  0  3  0  0  0  0  0  0
  180.4380  179.5850  139.4790 C   0  0  1  0  0  3  0  0  0  0  0  0
  181.1650  175.1520  138.9160 C   0  0  0  0  0  2  0  0  0  0  0  0
  179.6490  174.3270  140.2860 C   0  0  0  0  0  1  0  0  0  0  0  0
  180.2020  175.5300  139.8500 O   0  0  0  0  0  0  0  0  0  0  0  0
  2 19  1  0  0  0  0
  3 10  1  0  0  0  0
  4  1  1  6  0  0  0
  4 20  1  0  0  0  0
  5 11  1  0  0  0  0
  5  1  1  0  0  0  0
  7  9  1  0  0  0  0
  7 15  1  1  0  0  0
  8  6  1  6  0  0  0
  8 12  1  0  0  0  0
  9 14  1  1  0  0  0
 10 21  2  0  0  0  0
 11  8  1  0  0  0  0
 11 28  1  1  0  0  0
 12  4  1  0  0  0  0
 12 27  1  0  0  0  0
 13  2  1  0  0  0  0
 13 18  1  0  0  0  0
 15 23  1  0  0  0  0
 16  2  2  0  0  0  0
 17  3  1  0  0  0  0
 18 25  1  0  0  0  0
 19  1  2  0  0  0  0
 19 26  1  0  0  0  0
 20 17  1  0  0  0  0
 20 22  1  0  0  0  0
 22  9  1  0  0  0  0
 22 10  1  0  0  0  0
 23 14  1  0  0  0  0
 24 27  1  0  0  0  0
 26 25  1  0  0  0  0
 26 17  1  0  0  0  0
 27  7  1  0  0  0  0
 28 30  1  0  0  0  0
 30 29  1  0  0  0  0
M  END
>  <MODEL>
3

>  <REMARK>
 VINA RESULT:      -5.5      3.076      7.862
  Name = 
  2 active torsions:
  status: ('A' for Active; 'I' for Inactive)
    1  A    between atoms: C_11  and  C_28
    2  A    between atoms: C_28  and  O_30
                            x       y       z     vdW  Elec       q    Type
                         _______ _______ _______ _____ _____    ______ ____

>  <TORSDO>
F 2

$$$$
=
 OpenBabel11122410333D

 30 35  0  0  1  0  0  0  0  0999 V2000
  188.6950  176.7450  138.2780 C   0  0  0  0  0  0  0  0  0  0  0  0
  187.9470  178.2300  140.1290 C   0  0  0  0  0  0  0  0  0  0  0  0
  192.1870  177.1960  139.1020 N   0  0  0  0  0  2  0  0  0  0  0  0
  189.6840  175.8310  137.6270 C   0  0  2  0  0  3  0  0  0  0  0  0
  187.5480  177.0400  137.5330 O   0  0  0  0  0  0  0  0  0  0  0  0
  186.8680  174.3860  135.7410 O   0  0  0  0  0  1  0  0  0  0  0  0
  191.0140  174.1500  135.4690 C   0  0  1  0  0  3  0  0  0  0  0  0
  187.9540  175.2530  135.8600 C   0  0  1  0  0  3  0  0  0  0  0  0
  191.8870  175.2940  136.0070 C   0  0  2  0  0  3  0  0  0  0  0  0
  192.7810  176.6080  137.9590 C   0  0  0  0  0  0  0  0  0  0  0  0
  187.4350  176.6790  136.1500 C   0  0  2  0  0  3  0  0  0  0  0  0
  188.9380  174.7070  136.9160 C   0  0  1  0  0  3  0  0  0  0  0  0
  188.3070  178.8710  141.4370 C   0  0  0  0  0  2  0  0  0  0  0  0
  193.1980  175.1000  135.2790 C   0  0  0  0  0  2  0  0  0  0  0  0
  191.9080  173.0720  135.0790 N   0  0  0  0  0  2  0  0  0  0  0  0
  186.8600  178.5460  139.5750 O   0  0  0  0  0  0  0  0  0  0  0  0
  191.2410  176.2260  139.6140 C   0  0  2  0  0  3  0  0  0  0  0  0
  189.4280  178.0920  142.1260 C   0  0  0  0  0  2  0  0  0  0  0  0
  188.9020  177.2850  139.4930 C   0  0  0  0  0  0  0  0  0  0  0  0
  190.8750  175.3100  138.4420 C   0  0  2  0  0  3  0  0  0  0  0  0
  193.7750  177.1230  137.3840 O   0  0  0  0  0  0  0  0  0  0  0  0
  192.1400  175.3230  137.5430 C   0  0  1  0  0  3  0  0  0  0  0  0
  193.1300  173.7270  134.6350 C   0  0  0  0  0  2  0  0  0  0  0  0
  189.1770  172.6090  135.7360 O   0  0  0  0  0  1  0  0  0  0  0  0
  190.4810  177.8710  141.2220 O   0  0  0  0  0  0  0  0  0  0  0  0
  190.0560  176.8380  140.3640 C   0  0  2  0  0  3  0  0  0  0  0  0
  189.8920  173.6240  136.3770 C   0  0  1  0  0  3  0  0  0  0  0  0
  188.1910  177.6750  135.2850 C   0  0  0  0  0  2  0  0  0  0  0  0
  186.0980  177.8260  134.6080 C   0  0  0  0  0  1  0  0  0  0  0  0
  187.2930  178.5430  134.6660 O   0  0  0  0  0  0  0  0  0  0  0  0
  1 19  2  0  0  0  0
  2 13  1  0  0  0  0
  3 17  1  0  0  0  0
  4  1  1  1  0  0  0
  4 20  1  0  0  0  0
  5  1  1  0  0  0  0
  7 15  1  1  0  0  0
  7  9  1  0  0  0  0
  7 27  1  0  0  0  0
  8  6  1  1  0  0  0
  8 11  1  0  0  0  0
  8 12  1  0  0  0  0
  9 14  1  6  0  0  0
  9 22  1  0  0  0  0
 10  3  1  0  0  0  0
 11 28  1  6  0  0  0
 11  5  1  0  0  0  0
 12  4  1  0  0  0  0
 13 18  1  0  0  0  0
 16  2  2  0  0  0  0
 17 26  1  0  0  0  0
 19  2  1  0  0  0  0
 19 26  1  0  0  0  0
 20 17  1  0  0  0  0
 21 10  2  0  0  0  0
 22 10  1  0  0  0  0
 22 20  1  0  0  0  0
 23 15  1  0  0  0  0
 23 14  1  0  0  0  0
 24 27  1  0  0  0  0
 25 18  1  0  0  0  0
 26 25  1  0  0  0  0
 27 12  1  0  0  0  0
 29 30  1  0  0  0  0
 30 28  1  0  0  0  0
M  END
>  <MODEL>
4

>  <REMARK>
 VINA RESULT:      -5.4      3.256      5.699
  Name = 
  2 active torsions:
  status: ('A' for Active; 'I' for Inactive)
    1  A    between atoms: C_11  and  C_28
    2  A    between atoms: C_28  and  O_30
                            x       y       z     vdW  Elec       q    Type
                         _______ _______ _______ _____ _____    ______ ____

>  <TORSDO>
F 2

$$$$
=
 OpenBabel11122410333D

 30 35  0  0  1  0  0  0  0  0999 V2000
  188.6880  177.5630  139.8400 C   0  0  0  0  0  0  0  0  0  0  0  0
  186.5770  178.6650  140.5580 C   0  0  0  0  0  0  0  0  0  0  0  0
  186.9930  175.5550  137.3550 N   0  0  0  0  0  2  0  0  0  0  0  0
  189.5340  176.8350  138.8440 C   0  0  2  0  0  3  0  0  0  0  0  0
  189.2560  177.7520  141.1060 O   0  0  0  0  0  0  0  0  0  0  0  0
  192.4810  178.0970  140.6590 O   0  0  0  0  0  1  0  0  0  0  0  0
  191.8530  175.2210  137.7180 C   0  0  1  0  0  3  0  0  0  0  0  0
  191.5390  177.1070  140.3780 C   0  0  1  0  0  3  0  0  0  0  0  0
  190.4840  174.5340  137.5930 C   0  0  2  0  0  3  0  0  0  0  0  0
  188.0370  174.6600  137.0190 C   0  0  0  0  0  0  0  0  0  0  0  0
  190.4700  177.0930  141.4920 C   0  0  2  0  0  3  0  0  0  0  0  0
  190.9750  177.3200  138.9570 C   0  0  1  0  0  3  0  0  0  0  0  0
  185.1600  179.0030  140.1960 C   0  0  0  0  0  2  0  0  0  0  0  0
  190.8030  173.2640  136.8350 C   0  0  0  0  0  2  0  0  0  0  0  0
  192.6590  174.7860  136.5890 N   0  0  0  0  0  2  0  0  0  0  0  0
  186.9870  178.9270  141.7200 O   0  0  0  0  0  0  0  0  0  0  0  0
  187.5480  176.8890  137.2360 C   0  0  2  0  0  3  0  0  0  0  0  0
  184.9750  178.9810  138.6780 C   0  0  0  0  0  2  0  0  0  0  0  0
  187.4410  177.9830  139.5600 C   0  0  0  0  0  0  0  0  0  0  0  0
  189.0660  176.7460  137.3850 C   0  0  2  0  0  3  0  0  0  0  0  0
  187.8310  173.4290  136.8530 O   0  0  0  0  0  0  0  0  0  0  0  0
  189.3670  175.3210  136.8490 C   0  0  1  0  0  3  0  0  0  0  0  0
  192.2130  173.4300  136.2980 C   0  0  0  0  0  2  0  0  0  0  0  0
  193.1810  177.2190  137.9710 O   0  0  0  0  0  1  0  0  0  0  0  0
  185.4910  177.7850  138.1510 O   0  0  0  0  0  0  0  0  0  0  0  0
  186.8930  177.9260  138.1510 C   0  0  2  0  0  3  0  0  0  0  0  0
  191.8710  176.7530  137.8400 C   0  0  1  0  0  3  0  0  0  0  0  0
  190.1800  175.6560  141.8940 C   0  0  0  0  0  2  0  0  0  0  0  0
  191.2840  176.0100  143.7690 C   0  0  0  0  0  1  0  0  0  0  0  0
  190.0570  175.5670  143.2800 O   0  0  0  0  0  0  0  0  0  0  0  0
  1  5  1  0  0  0  0
  2 16  2  0  0  0  0
  4 12  1  0  0  0  0
  4  1  1  1  0  0  0
  5 11  1  0  0  0  0
  7 15  1  6  0  0  0
  7 27  1  0  0  0  0
  8  6  1  1  0  0  0
  8 11  1  0  0  0  0
  9 14  1  6  0  0  0
  9  7  1  0  0  0  0
 10  3  1  0  0  0  0
 11 28  1  6  0  0  0
 12  8  1  0  0  0  0
 13  2  1  0  0  0  0
 17  3  1  0  0  0  0
 17 20  1  0  0  0  0
 17 26  1  0  0  0  0
 18 13  1  0  0  0  0
 19  1  2  0  0  0  0
 19  2  1  0  0  0  0
 20  4  1  0  0  0  0
 21 10  2  0  0  0  0
 22 10  1  0  0  0  0
 22 20  1  0  0  0  0
 22  9  1  0  0  0  0
 23 15  1  0  0  0  0
 23 14  1  0  0  0  0
 25 26  1  0  0  0  0
 25 18  1  0  0  0  0
 26 19  1  0  0  0  0
 27 24  1  0  0  0  0
 27 12  1  0  0  0  0
 28 30  1  0  0  0  0
 30 29  1  0  0  0  0
M  END
>  <MODEL>
5

>  <REMARK>
 VINA RESULT:      -5.2      2.467      3.663
  Name = 
  2 active torsions:
  status: ('A' for Active; 'I' for Inactive)
    1  A    between atoms: C_11  and  C_28
    2  A    between atoms: C_28  and  O_30
                            x       y       z     vdW  Elec       q    Type
                         _______ _______ _______ _____ _____    ______ ____

>  <TORSDO>
F 2

$$$$
=
 OpenBabel11122410333D

 30 35  0  0  1  0  0  0  0  0999 V2000
  182.0360  177.1390  138.3420 C   0  0  0  0  0  0  0  0  0  0  0  0
  182.5960  174.9000  137.4140 C   0  0  0  0  0  0  0  0  0  0  0  0
  180.9120  178.3740  135.1340 N   0  0  0  0  0  2  0  0  0  0  0  0
  181.2910  178.4360  138.3210 C   0  0  2  0  0  3  0  0  0  0  0  0
  182.9970  176.9990  139.3500 O   0  0  0  0  0  0  0  0  0  0  0  0
  181.9010  178.6620  141.9470 O   0  0  0  0  0  1  0  0  0  0  0  0
  180.5360  181.2970  139.0300 C   0  0  1  0  0  3  0  0  0  0  0  0
  182.2120  178.9770  140.6250 C   0  0  1  0  0  3  0  0  0  0  0  0
  180.9390  181.0930  137.5610 C   0  0  2  0  0  3  0  0  0  0  0  0
  180.7940  179.7520  135.4360 C   0  0  0  0  0  0  0  0  0  0  0  0
  183.4020  178.1080  140.1630 C   0  0  2  0  0  3  0  0  0  0  0  0
  180.9480  178.8420  139.7500 C   0  0  1  0  0  3  0  0  0  0  0  0
  182.3780  173.9220  136.2970 C   0  0  0  0  0  2  0  0  0  0  0  0
  180.7190  182.4590  136.9500 C   0  0  0  0  0  2  0  0  0  0  0  0
  179.5610  182.3740  139.0640 N   0  0  0  0  0  2  0  0  0  0  0  0
  183.4620  174.6380  138.2910 O   0  0  0  0  0  0  0  0  0  0  0  0
  180.1680  177.6680  136.1580 C   0  0  2  0  0  3  0  0  0  0  0  0
  181.0560  174.2100  135.5830 C   0  0  0  0  0  2  0  0  0  0  0  0
  181.8290  176.1720  137.4300 C   0  0  0  0  0  0  0  0  0  0  0  0
  180.0980  178.6020  137.3700 C   0  0  2  0  0  3  0  0  0  0  0  0
  181.1800  180.6450  134.6370 O   0  0  0  0  0  0  0  0  0  0  0  0
  180.1440  180.0260  136.7540 C   0  0  1  0  0  3  0  0  0  0  0  0
  179.9280  183.2600  137.9690 C   0  0  0  0  0  2  0  0  0  0  0  0
  179.7240  180.4130  141.1220 O   0  0  0  0  0  1  0  0  0  0  0  0
  180.9790  175.5730  135.2500 O   0  0  0  0  0  0  0  0  0  0  0  0
  180.6810  176.2550  136.4460 C   0  0  2  0  0  3  0  0  0  0  0  0
  180.0210  180.0710  139.8010 C   0  0  1  0  0  3  0  0  0  0  0  0
  184.3970  178.9750  139.4080 C   0  0  0  0  0  2  0  0  0  0  0  0
  185.8660  178.8310  141.0440 C   0  0  0  0  0  1  0  0  0  0  0  0
  185.1260  179.7530  140.3060 O   0  0  0  0  0  0  0  0  0  0  0  0
  1  5  1  0  0  0  0
  2 19  1  0  0  0  0
  2 16  2  0  0  0  0
  3 10  1  0  0  0  0
  3 17  1  0  0  0  0
  4  1  1  1  0  0  0
  4 12  1  0  0  0  0
  5 11  1  0  0  0  0
  7 15  1  6  0  0  0
  7 27  1  0  0  0  0
  8  6  1  1  0  0  0
  9 14  1  6  0  0  0
  9  7  1  0  0  0  0
 10 22  1  0  0  0  0
 11 28  1  6  0  0  0
 11  8  1  0  0  0  0
 12 27  1  0  0  0  0
 12  8  1  0  0  0  0
 13  2  1  0  0  0  0
 14 23  1  0  0  0  0
 17 26  1  0  0  0  0
 17 20  1  0  0  0  0
 18 13  1  0  0  0  0
 19  1  2  0  0  0  0
 20  4  1  0  0  0  0
 21 10  2  0  0  0  0
 22 20  1  0  0  0  0
 22  9  1  0  0  0  0
 23 15  1  0  0  0  0
 25 18  1  0  0  0  0
 25 26  1  0  0  0  0
 26 19  1  0  0  0  0
 27 24  1  0  0  0  0
 28 30  1  0  0  0  0
 30 29  1  0  0  0  0
M  END
>  <MODEL>
6

>  <REMARK>
 VINA RESULT:      -5.2      4.358      7.696
  Name = 
  2 active torsions:
  status: ('A' for Active; 'I' for Inactive)
    1  A    between atoms: C_11  and  C_28
    2  A    between atoms: C_28  and  O_30
                            x       y       z     vdW  Elec       q    Type
                         _______ _______ _______ _____ _____    ______ ____

>  <TORSDO>
F 2

$$$$
=
 OpenBabel11122410333D

 30 35  0  0  1  0  0  0  0  0999 V2000
  181.9020  178.2420  141.4190 C   0  0  0  0  0  0  0  0  0  0  0  0
  183.6760  178.6380  143.1170 C   0  0  0  0  0  0  0  0  0  0  0  0
  183.3680  180.5930  139.0950 N   0  0  0  0  0  2  0  0  0  0  0  0
  181.3830  178.2440  140.0150 C   0  0  2  0  0  3  0  0  0  0  0  0
  180.9810  177.8910  142.4130 O   0  0  0  0  0  0  0  0  0  0  0  0
  178.9350  175.7080  141.0850 O   0  0  0  0  0  1  0  0  0  0  0  0
  179.4000  178.1020  137.7140 C   0  0  1  0  0  3  0  0  0  0  0  0
  179.3010  177.0240  140.8060 C   0  0  1  0  0  3  0  0  0  0  0  0
  180.1570  179.4350  137.8150 C   0  0  2  0  0  3  0  0  0  0  0  0
  182.3170  180.6850  138.1510 C   0  0  0  0  0  0  0  0  0  0  0  0
  179.5810  177.7650  142.1320 C   0  0  2  0  0  3  0  0  0  0  0  0
  180.4810  177.0320  139.8110 C   0  0  1  0  0  3  0  0  0  0  0  0
  185.0650  179.1430  143.3760 C   0  0  0  0  0  2  0  0  0  0  0  0
  179.6670  180.2040  136.6090 C   0  0  0  0  0  2  0  0  0  0  0  0
  179.1110  177.8770  136.3070 N   0  0  0  0  0  2  0  0  0  0  0  0
  182.9560  178.3070  144.0980 O   0  0  0  0  0  0  0  0  0  0  0  0
  183.6400  179.1800  139.2660 C   0  0  2  0  0  3  0  0  0  0  0  0
  185.8950  179.1120  142.0920 C   0  0  0  0  0  2  0  0  0  0  0  0
  183.1650  178.5910  141.7230 C   0  0  0  0  0  0  0  0  0  0  0  0
  182.3660  178.4370  138.8520 C   0  0  2  0  0  3  0  0  0  0  0  0
  181.9630  181.7840  137.6510 O   0  0  0  0  0  0  0  0  0  0  0  0
  181.7120  179.3650  137.7940 C   0  0  1  0  0  3  0  0  0  0  0  0
  178.9360  179.2030  135.7330 C   0  0  0  0  0  2  0  0  0  0  0  0
  179.2350  175.7430  138.1880 O   0  0  0  0  0  1  0  0  0  0  0  0
  185.1840  179.7310  141.0490 O   0  0  0  0  0  0  0  0  0  0  0  0
  184.2000  178.8090  140.6400 C   0  0  2  0  0  3  0  0  0  0  0  0
  180.0570  176.8630  138.3400 C   0  0  1  0  0  3  0  0  0  0  0  0
  178.9310  179.1390  142.0890 C   0  0  0  0  0  2  0  0  0  0  0  0
  179.0520  179.6600  144.2270 C   0  0  0  0  0  1  0  0  0  0  0  0
  179.5740  179.9960  142.9790 O   0  0  0  0  0  0  0  0  0  0  0  0
  1 19  2  0  0  0  0
  1  5  1  0  0  0  0
  2 13  1  0  0  0  0
  2 16  2  0  0  0  0
  3 17  1  0  0  0  0
  4  1  1  1  0  0  0
  7 15  1  6  0  0  0
  7  9  1  0  0  0  0
  7 27  1  0  0  0  0
  8  6  1  1  0  0  0
  8 11  1  0  0  0  0
  9 14  1  6  0  0  0
 10  3  1  0  0  0  0
 11 28  1  6  0  0  0
 11  5  1  0  0  0  0
 12  4  1  0  0  0  0
 12  8  1  0  0  0  0
 17 26  1  0  0  0  0
 18 13  1  0  0  0  0
 19  2  1  0  0  0  0
 20 17  1  0  0  0  0
 20  4  1  0  0  0  0
 21 10  2  0  0  0  0
 22  9  1  0  0  0  0
 22 10  1  0  0  0  0
 22 20  1  0  0  0  0
 23 15  1  0  0  0  0
 23 14  1  0  0  0  0
 24 27  1  0  0  0  0
 25 18  1  0  0  0  0
 26 25  1  0  0  0  0
 26 19  1  0  0  0  0
 27 12  1  0  0  0  0
 28 30  1  0  0  0  0
 30 29  1  0  0  0  0
M  END
>  <MODEL>
7

>  <REMARK>
 VINA RESULT:      -5.1      5.411      8.251
  Name = 
  2 active torsions:
  status: ('A' for Active; 'I' for Inactive)
    1  A    between atoms: C_11  and  C_28
    2  A    between atoms: C_28  and  O_30
                            x       y       z     vdW  Elec       q    Type
                         _______ _______ _______ _____ _____    ______ ____

>  <TORSDO>
F 2

$$$$
=
 OpenBabel11122410333D

 30 35  0  0  1  0  0  0  0  0999 V2000
  185.5550  176.5830  137.2650 C   0  0  0  0  0  0  0  0  0  0  0  0
  188.0420  176.5390  137.2040 C   0  0  0  0  0  0  0  0  0  0  0  0
  185.4980  178.4390  140.3680 N   0  0  0  0  0  2  0  0  0  0  0  0
  184.2480  177.1680  137.6980 C   0  0  2  0  0  3  0  0  0  0  0  0
  185.4820  175.3950  136.5280 O   0  0  0  0  0  0  0  0  0  0  0  0
  182.7270  175.5360  134.7660 O   0  0  0  0  0  1  0  0  0  0  0  0
  181.2540  177.3980  138.1840 C   0  0  1  0  0  3  0  0  0  0  0  0
  183.0410  175.5830  136.1240 C   0  0  1  0  0  3  0  0  0  0  0  0
  182.1080  177.4510  139.4600 C   0  0  2  0  0  3  0  0  0  0  0  0
  184.1230  178.3270  140.6890 C   0  0  0  0  0  0  0  0  0  0  0  0
  184.2540  174.6660  136.3950 C   0  0  2  0  0  3  0  0  0  0  0  0
  183.2420  177.0490  136.5590 C   0  0  1  0  0  3  0  0  0  0  0  0
  189.3130  177.1620  137.6990 C   0  0  0  0  0  2  0  0  0  0  0  0
  181.0880  177.6950  140.5490 C   0  0  0  0  0  2  0  0  0  0  0  0
  180.0720  178.2100  138.4230 N   0  0  0  0  0  2  0  0  0  0  0  0
  188.1090  175.4900  136.5070 O   0  0  0  0  0  0  0  0  0  0  0  0
  185.5590  178.9300  139.0060 C   0  0  2  0  0  3  0  0  0  0  0  0
  189.0610  178.5960  138.1680 C   0  0  0  0  0  2  0  0  0  0  0  0
  186.7370  177.1370  137.5890 C   0  0  0  0  0  0  0  0  0  0  0  0
  184.2260  178.5590  138.3470 C   0  0  2  0  0  3  0  0  0  0  0  0
  183.7290  178.0950  141.8610 O   0  0  0  0  0  0  0  0  0  0  0  0
  183.2130  178.5460  139.5230 C   0  0  1  0  0  3  0  0  0  0  0  0
  179.7980  178.0810  139.8470 C   0  0  0  0  0  2  0  0  0  0  0  0
  181.0310  177.6690  135.7970 O   0  0  0  0  0  1  0  0  0  0  0  0
  187.9620  178.6250  139.0440 O   0  0  0  0  0  0  0  0  0  0  0  0
  186.8120  178.5020  138.2390 C   0  0  2  0  0  3  0  0  0  0  0  0
  181.9280  177.7950  136.8610 C   0  0  1  0  0  3  0  0  0  0  0  0
  183.9950  173.8440  137.6480 C   0  0  0  0  0  2  0  0  0  0  0  0
  183.7720  171.7920  136.8740 C   0  0  0  0  0  1  0  0  0  0  0  0
  184.6590  172.6220  137.5590 O   0  0  0  0  0  0  0  0  0  0  0  0
  1 19  2  0  0  0  0
  2 19  1  0  0  0  0
  2 13  1  0  0  0  0
  3 10  1  0  0  0  0
  4  1  1  6  0  0  0
  4 20  1  0  0  0  0
  5  1  1  0  0  0  0
  7 15  1  1  0  0  0
  7  9  1  0  0  0  0
  8  6  1  6  0  0  0
  8 11  1  0  0  0  0
  8 12  1  0  0  0  0
  9 22  1  0  0  0  0
  9 14  1  1  0  0  0
 10 21  2  0  0  0  0
 11  5  1  0  0  0  0
 11 28  1  1  0  0  0
 12 27  1  0  0  0  0
 12  4  1  0  0  0  0
 13 18  1  0  0  0  0
 15 23  1  0  0  0  0
 16  2  2  0  0  0  0
 17  3  1  0  0  0  0
 18 25  1  0  0  0  0
 19 26  1  0  0  0  0
 20 17  1  0  0  0  0
 20 22  1  0  0  0  0
 22 10  1  0  0  0  0
 23 14  1  0  0  0  0
 24 27  1  0  0  0  0
 26 17  1  0  0  0  0
 26 25  1  0  0  0  0
 27  7  1  0  0  0  0
 29 30  1  0  0  0  0
 30 28  1  0  0  0  0
M  END
>  <MODEL>
8

>  <REMARK>
 VINA RESULT:      -5.1      2.588      6.538
  Name = 
  2 active torsions:
  status: ('A' for Active; 'I' for Inactive)
    1  A    between atoms: C_11  and  C_28
    2  A    between atoms: C_28  and  O_30
                            x       y       z     vdW  Elec       q    Type
                         _______ _______ _______ _____ _____    ______ ____

>  <TORSDO>
F 2

$$$$
=
 OpenBabel11122410333D

 30 35  0  0  1  0  0  0  0  0999 V2000
  186.7810  175.8070  136.9830 C   0  0  0  0  0  0  0  0  0  0  0  0
  189.1720  175.1260  137.0710 C   0  0  0  0  0  0  0  0  0  0  0  0
  187.1980  178.2260  139.6390 N   0  0  0  0  0  2  0  0  0  0  0  0
  185.6680  176.7790  137.2150 C   0  0  2  0  0  3  0  0  0  0  0  0
  186.4060  174.5480  136.4990 O   0  0  0  0  0  0  0  0  0  0  0  0
  183.7840  175.0050  134.5940 O   0  0  0  0  0  1  0  0  0  0  0  0
  182.8340  177.8510  137.4760 C   0  0  1  0  0  3  0  0  0  0  0  0
  184.0970  175.2540  135.9300 C   0  0  1  0  0  3  0  0  0  0  0  0
  183.6700  177.9540  138.7610 C   0  0  2  0  0  3  0  0  0  0  0  0
  185.8400  178.5320  139.8980 C   0  0  0  0  0  0  0  0  0  0  0  0
  185.0320  174.1400  136.4480 C   0  0  2  0  0  3  0  0  0  0  0  0
  184.6680  176.6810  136.0690 C   0  0  1  0  0  3  0  0  0  0  0  0
  190.5610  175.4990  137.5010 C   0  0  0  0  0  2  0  0  0  0  0  0
  182.7450  178.6690  139.7200 C   0  0  0  0  0  2  0  0  0  0  0  0
  181.9000  178.9650  137.4800 N   0  0  0  0  0  2  0  0  0  0  0  0
  188.9690  173.9730  136.6060 O   0  0  0  0  0  0  0  0  0  0  0  0
  187.3860  178.3880  138.2110 C   0  0  2  0  0  3  0  0  0  0  0  0
  190.6850  177.0160  137.6550 C   0  0  0  0  0  2  0  0  0  0  0  0
  188.0660  176.1010  137.2540 C   0  0  0  0  0  0  0  0  0  0  0  0
  186.0040  178.2340  137.5680 C   0  0  2  0  0  3  0  0  0  0  0  0
  185.3970  178.6580  141.0700 O   0  0  0  0  0  0  0  0  0  0  0  0
  185.0200  178.7230  138.6630 C   0  0  1  0  0  3  0  0  0  0  0  0
  181.5990  179.2110  138.8830 C   0  0  0  0  0  2  0  0  0  0  0  0
  182.6930  177.6620  135.0760 O   0  0  0  0  0  1  0  0  0  0  0  0
  189.6290  177.5040  138.4440 O   0  0  0  0  0  0  0  0  0  0  0  0
  188.4880  177.5080  137.6180 C   0  0  2  0  0  3  0  0  0  0  0  0
  183.5890  177.7790  136.1410 C   0  0  1  0  0  3  0  0  0  0  0  0
  184.5680  173.6910  137.8240 C   0  0  0  0  0  2  0  0  0  0  0  0
  184.1840  171.8270  136.7110 C   0  0  0  0  0  1  0  0  0  0  0  0
  184.6660  172.3050  137.9290 O   0  0  0  0  0  0  0  0  0  0  0  0
  1 19  2  0  0  0  0
  2 19  1  0  0  0  0
  2 13  1  0  0  0  0
  3 10  1  0  0  0  0
  4  1  1  6  0  0  0
  4 20  1  0  0  0  0
  5  1  1  0  0  0  0
  7 15  1  6  0  0  0
  7  9  1  0  0  0  0
  8  6  1  6  0  0  0
  8 12  1  0  0  0  0
  8 11  1  0  0  0  0
  9 14  1  1  0  0  0
 10 21  2  0  0  0  0
 11  5  1  0  0  0  0
 11 28  1  1  0  0  0
 12 27  1  0  0  0  0
 12  4  1  0  0  0  0
 13 18  1  0  0  0  0
 15 23  1  0  0  0  0
 16  2  2  0  0  0  0
 17  3  1  0  0  0  0
 18 25  1  0  0  0  0
 19 26  1  0  0  0  0
 20 17  1  0  0  0  0
 20 22  1  0  0  0  0
 22  9  1  0  0  0  0
 22 10  1  0  0  0  0
 23 14  1  0  0  0  0
 24 27  1  0  0  0  0
 26 17  1  0  0  0  0
 26 25  1  0  0  0  0
 27  7  1  0  0  0  0
 28 30  1  0  0  0  0
 29 30  1  0  0  0  0
M  END
>  <MODEL>
9

>  <REMARK>
 VINA RESULT:      -5.0      2.285      6.411
  Name = 
  2 active torsions:
  status: ('A' for Active; 'I' for Inactive)
    1  A    between atoms: C_11  and  C_28
    2  A    between atoms: C_28  and  O_30
                            x       y       z     vdW  Elec       q    Type
                         _______ _______ _______ _____ _____    ______ ____

>  <TORSDO>
F 2

$$$$
