=
 OpenBabel11122410273D

 30 35  0  0  1  0  0  0  0  0999 V2000
  189.3190  177.3690  143.5000 C   0  0  0  0  0  0  0  0  0  0  0  0
  191.2860  176.3710  144.6960 C   0  0  0  0  0  0  0  0  0  0  0  0
  187.4000  178.0830  147.1780 N   0  0  0  0  0  2  0  0  0  0  0  0
  188.0200  177.9630  143.5680 C   0  0  0  0  0  0  0  0  0  0  0  0
  189.9070  177.1800  142.2420 C   0  0  0  0  0  3  0  0  0  0  0  0
  187.3220  178.4430  139.9440 O   0  0  0  0  0  1  0  0  0  0  0  0
  184.9250  177.9960  143.0900 C   0  0  1  0  0  3  0  0  0  0  0  0
  187.9750  178.1020  141.1270 C   0  0  0  0  0  0  0  0  0  0  0  0
  184.9620  178.0660  144.6250 C   0  0  2  0  0  3  0  0  0  0  0  0
  186.2210  178.7170  146.7010 C   0  0  0  0  0  0  0  0  0  0  0  0
  189.2580  177.5500  141.0700 C   0  0  0  0  0  0  0  0  0  0  0  0
  187.3420  178.3080  142.3650 C   0  0  0  0  0  0  0  0  0  0  0  0
  191.8750  176.0210  145.8700 N   0  0  0  0  0  0  0  0  0  0  0  0
  183.6450  178.7010  145.0330 C   0  0  0  0  0  2  0  0  0  0  0  0
  183.5080  178.3380  142.6620 C   0  0  0  0  0  2  0  0  0  0  0  0
  191.9630  176.1270  143.5460 F   0  0  0  0  0  0  0  0  0  0  0  0
  188.1190  177.7800  145.9920 C   0  0  0  0  0  0  0  0  0  0  0  0
  191.2790  176.2260  147.0700 C   0  0  0  0  0  3  0  0  0  0  0  0
  190.0000  176.9740  144.6930 C   0  0  0  0  0  0  0  0  0  0  0  0
  187.4550  178.1640  144.8440 C   0  0  0  0  0  0  0  0  0  0  0  0
  185.3450  179.1780  147.4790 O   0  0  0  0  0  0  0  0  0  0  0  0
  186.1590  178.8290  145.2050 C   0  0  1  0  0  3  0  0  0  0  0  0
  182.6780  178.3590  143.9260 C   0  0  0  0  0  2  0  0  0  0  0  0
  185.8900  180.3570  142.6460 C   0  0  0  0  0  1  0  0  0  0  0  0
  190.0190  176.8120  147.1320 C   0  0  0  0  0  3  0  0  0  0  0  0
  189.3760  177.1860  145.9490 C   0  0  0  0  0  0  0  0  0  0  0  0
  185.9440  178.8650  142.3340 C   0  0  2  0  0  3  0  0  0  0  0  0
  189.9320  177.3050  139.7630 C   0  0  0  0  0  2  0  0  0  0  0  0
  190.6960  175.5060  138.6440 O   0  0  0  0  0  1  0  0  0  0  0  0
  190.7580  176.1130  139.8520 N   0  0  0  0  0  2  0  0  0  0  0  0
  1  4  1  0  0  0  0
  1 19  1  0  0  0  0
  2 13  1  0  0  0  0
  4 20  1  0  0  0  0
  5  1  2  0  0  0  0
  6  8  1  0  0  0  0
  7 15  1  6  0  0  0
  7  9  1  0  0  0  0
  8 12  1  0  0  0  0
  9 14  1  6  0  0  0
  9 22  1  0  0  0  0
 10  3  1  0  0  0  0
 10 21  2  0  0  0  0
 11  8  2  0  0  0  0
 11  5  1  0  0  0  0
 12  4  2  0  0  0  0
 13 18  2  0  0  0  0
 15 23  1  0  0  0  0
 16  2  1  0  0  0  0
 17  3  1  0  0  0  0
 18 25  1  0  0  0  0
 19  2  2  0  0  0  0
 19 26  1  0  0  0  0
 20 17  2  0  0  0  0
 22 20  1  6  0  0  0
 22 10  1  0  0  0  0
 23 14  1  0  0  0  0
 26 17  1  0  0  0  0
 26 25  2  0  0  0  0
 27 12  1  0  0  0  0
 27 24  1  1  0  0  0
 27  7  1  0  0  0  0
 28 30  1  0  0  0  0
 28 11  1  0  0  0  0
 29 30  1  0  0  0  0
M  END
>  <MODEL>
1

>  <REMARK>
 VINA RESULT:     -10.2      0.000      0.000
  Name = 
  2 active torsions:
  status: ('A' for Active; 'I' for Inactive)
    1  A    between atoms: C_11  and  C_28
    2  A    between atoms: C_28  and  N_30
                            x       y       z     vdW  Elec       q    Type
                         _______ _______ _______ _____ _____    ______ ____

>  <TORSDO>
F 2

$$$$
=
 OpenBabel11122410273D

 30 35  0  0  1  0  0  0  0  0999 V2000
  185.9780  178.2870  141.9900 C   0  0  0  0  0  0  0  0  0  0  0  0
  183.5800  179.0050  142.1630 C   0  0  0  0  0  0  0  0  0  0  0  0
  186.1470  177.7230  146.1580 N   0  0  0  0  0  2  0  0  0  0  0  0
  187.1740  177.8540  142.6440 C   0  0  0  0  0  0  0  0  0  0  0  0
  185.9870  178.4320  140.5970 C   0  0  0  0  0  3  0  0  0  0  0  0
  189.4530  177.5530  139.7160 O   0  0  0  0  0  1  0  0  0  0  0  0
  190.1410  178.2130  143.5800 C   0  0  1  0  0  3  0  0  0  0  0  0
  188.3090  177.7830  140.4780 C   0  0  0  0  0  0  0  0  0  0  0  0
  189.4390  178.1020  144.9430 C   0  0  2  0  0  3  0  0  0  0  0  0
  187.4820  177.2500  146.2710 C   0  0  0  0  0  0  0  0  0  0  0  0
  187.1260  178.1740  139.8440 C   0  0  0  0  0  0  0  0  0  0  0  0
  188.3500  177.6250  141.8740 C   0  0  0  0  0  0  0  0  0  0  0  0
  182.4960  179.2520  142.9460 N   0  0  0  0  0  0  0  0  0  0  0  0
  190.5070  177.6240  145.9100 C   0  0  0  0  0  2  0  0  0  0  0  0
  191.6310  178.0580  143.8320 C   0  0  0  0  0  2  0  0  0  0  0  0
  183.4560  179.1930  140.8260 F   0  0  0  0  0  0  0  0  0  0  0  0
  185.9950  177.9650  144.7680 C   0  0  0  0  0  0  0  0  0  0  0  0
  182.5210  179.0920  144.2920 C   0  0  0  0  0  3  0  0  0  0  0  0
  184.7980  178.5650  142.7480 C   0  0  0  0  0  0  0  0  0  0  0  0
  187.1380  177.6930  144.0440 C   0  0  0  0  0  0  0  0  0  0  0  0
  187.9740  176.8820  147.3700 O   0  0  0  0  0  0  0  0  0  0  0  0
  188.2110  177.1830  144.9610 C   0  0  1  0  0  3  0  0  0  0  0  0
  191.8150  178.1080  145.3320 C   0  0  0  0  0  2  0  0  0  0  0  0
  189.7650  175.7640  142.8340 C   0  0  0  0  0  1  0  0  0  0  0  0
  183.6850  178.6640  144.9220 C   0  0  0  0  0  3  0  0  0  0  0  0
  184.8240  178.4010  144.1560 C   0  0  0  0  0  0  0  0  0  0  0  0
  189.6750  177.2450  142.4810 C   0  0  2  0  0  3  0  0  0  0  0  0
  187.0750  178.3660  138.3660 C   0  0  0  0  0  2  0  0  0  0  0  0
  185.3470  177.4620  137.2390 O   0  0  0  0  0  1  0  0  0  0  0  0
  185.6990  178.5630  137.9440 N   0  0  0  0  0  2  0  0  0  0  0  0
  1  4  1  0  0  0  0
  1 19  1  0  0  0  0
  2 19  2  0  0  0  0
  2 13  1  0  0  0  0
  3 10  1  0  0  0  0
  4 20  1  0  0  0  0
  5  1  2  0  0  0  0
  6  8  1  0  0  0  0
  7 15  1  1  0  0  0
  7  9  1  0  0  0  0
  8 12  1  0  0  0  0
  9 22  1  0  0  0  0
  9 14  1  1  0  0  0
 10 21  2  0  0  0  0
 11  8  2  0  0  0  0
 11  5  1  0  0  0  0
 12 27  1  0  0  0  0
 12  4  2  0  0  0  0
 13 18  2  0  0  0  0
 15 23  1  0  0  0  0
 16  2  1  0  0  0  0
 17  3  1  0  0  0  0
 18 25  1  0  0  0  0
 19 26  1  0  0  0  0
 20 17  2  0  0  0  0
 22 20  1  6  0  0  0
 22 10  1  0  0  0  0
 23 14  1  0  0  0  0
 26 17  1  0  0  0  0
 26 25  2  0  0  0  0
 27 24  1  1  0  0  0
 27  7  1  0  0  0  0
 28 11  1  0  0  0  0
 29 30  1  0  0  0  0
 30 28  1  0  0  0  0
M  END
>  <MODEL>
2

>  <REMARK>
 VINA RESULT:      -9.8      2.813      5.581
  Name = 
  2 active torsions:
  status: ('A' for Active; 'I' for Inactive)
    1  A    between atoms: C_11  and  C_28
    2  A    between atoms: C_28  and  N_30
                            x       y       z     vdW  Elec       q    Type
                         _______ _______ _______ _____ _____    ______ ____

>  <TORSDO>
F 2

$$$$
=
 OpenBabel11122410273D

 30 35  0  0  1  0  0  0  0  0999 V2000
  186.1980  178.2260  141.6690 C   0  0  0  0  0  0  0  0  0  0  0  0
  183.8060  178.9790  141.6160 C   0  0  0  0  0  0  0  0  0  0  0  0
  185.9980  177.7640  145.8480 N   0  0  0  0  0  2  0  0  0  0  0  0
  187.3260  177.7950  142.4340 C   0  0  0  0  0  0  0  0  0  0  0  0
  186.3300  178.3360  140.2790 C   0  0  0  0  0  3  0  0  0  0  0  0
  189.8450  177.3910  139.7220 O   0  0  0  0  0  1  0  0  0  0  0  0
  190.2060  178.1380  143.6160 C   0  0  1  0  0  3  0  0  0  0  0  0
  188.6430  177.6540  140.3770 C   0  0  0  0  0  0  0  0  0  0  0  0
  189.3880  178.0700  144.9140 C   0  0  2  0  0  3  0  0  0  0  0  0
  187.3110  177.2770  146.0870 C   0  0  0  0  0  0  0  0  0  0  0  0
  187.5260  178.0450  139.6330 C   0  0  0  0  0  0  0  0  0  0  0  0
  188.5610  177.5310  141.7750 C   0  0  0  0  0  0  0  0  0  0  0  0
  182.6620  179.2590  142.2950 N   0  0  0  0  0  0  0  0  0  0  0  0
  190.3600  177.6020  145.9820 C   0  0  0  0  0  2  0  0  0  0  0  0
  191.6670  177.9700  143.9990 C   0  0  0  0  0  2  0  0  0  0  0  0
  183.8000  179.1360  140.2690 F   0  0  0  0  0  0  0  0  0  0  0  0
  185.9700  177.9730  144.4440 C   0  0  0  0  0  0  0  0  0  0  0  0
  182.5680  179.1330  143.6420 C   0  0  0  0  0  3  0  0  0  0  0  0
  184.9610  178.5380  142.3140 C   0  0  0  0  0  0  0  0  0  0  0  0
  187.1670  177.6690  143.8290 C   0  0  0  0  0  0  0  0  0  0  0  0
  187.6990  176.9300  147.2330 O   0  0  0  0  0  0  0  0  0  0  0  0
  188.1490  177.1680  144.8470 C   0  0  1  0  0  3  0  0  0  0  0  0
  191.7200  178.0550  145.5080 C   0  0  0  0  0  2  0  0  0  0  0  0
  189.8600  175.6760  142.8970 C   0  0  0  0  0  1  0  0  0  0  0  0
  183.6660  178.7060  144.3800 C   0  0  0  0  0  3  0  0  0  0  0  0
  184.8630  178.4090  143.7230 C   0  0  0  0  0  0  0  0  0  0  0  0
  189.8220  177.1490  142.5030 C   0  0  2  0  0  3  0  0  0  0  0  0
  187.6050  178.2010  138.1520 C   0  0  0  0  0  2  0  0  0  0  0  0
  189.2230  178.8840  136.7420 O   0  0  0  0  0  1  0  0  0  0  0  0
  188.5120  179.2860  137.8210 N   0  0  0  0  0  2  0  0  0  0  0  0
  1 19  2  0  0  0  0
  1  4  1  0  0  0  0
  2 13  2  0  0  0  0
  2 19  1  0  0  0  0
  3 10  1  0  0  0  0
  4 20  2  0  0  0  0
  5  1  1  0  0  0  0
  6  8  1  0  0  0  0
  7 15  1  1  0  0  0
  7  9  1  0  0  0  0
  8 12  2  0  0  0  0
  9 14  1  1  0  0  0
 10 21  2  0  0  0  0
 11  5  2  0  0  0  0
 11  8  1  0  0  0  0
 12  4  1  0  0  0  0
 12 27  1  0  0  0  0
 13 18  1  0  0  0  0
 15 23  1  0  0  0  0
 16  2  1  0  0  0  0
 17  3  1  0  0  0  0
 18 25  2  0  0  0  0
 19 26  1  0  0  0  0
 20 17  1  0  0  0  0
 22 20  1  6  0  0  0
 22  9  1  0  0  0  0
 22 10  1  0  0  0  0
 23 14  1  0  0  0  0
 26 25  1  0  0  0  0
 26 17  2  0  0  0  0
 27 24  1  1  0  0  0
 27  7  1  0  0  0  0
 28 11  1  0  0  0  0
 29 30  1  0  0  0  0
 30 28  1  0  0  0  0
M  END
>  <MODEL>
3

>  <REMARK>
 VINA RESULT:      -9.7      2.753      5.499
  Name = 
  2 active torsions:
  status: ('A' for Active; 'I' for Inactive)
    1  A    between atoms: C_11  and  C_28
    2  A    between atoms: C_28  and  N_30
                            x       y       z     vdW  Elec       q    Type
                         _______ _______ _______ _____ _____    ______ ____

>  <TORSDO>
F 2

$$$$
=
 OpenBabel11122410273D

 30 35  0  0  1  0  0  0  0  0999 V2000
  186.2130  178.3840  142.6400 C   0  0  0  0  0  0  0  0  0  0  0  0
  187.0760  178.2370  144.9910 C   0  0  0  0  0  0  0  0  0  0  0  0
  182.2830  178.8530  144.0730 N   0  0  0  0  0  2  0  0  0  0  0  0
  185.1000  178.5210  141.7530 C   0  0  0  0  0  0  0  0  0  0  0  0
  187.4960  178.2530  142.0940 C   0  0  0  0  0  3  0  0  0  0  0  0
  186.8420  178.3150  138.4700 O   0  0  0  0  0  1  0  0  0  0  0  0
  183.1100  177.4770  139.5720 C   0  0  1  0  0  3  0  0  0  0  0  0
  186.6220  178.3490  139.8460 C   0  0  0  0  0  0  0  0  0  0  0  0
  182.1320  177.7350  140.7280 C   0  0  2  0  0  3  0  0  0  0  0  0
  181.6050  179.0030  142.8340 C   0  0  0  0  0  0  0  0  0  0  0  0
  187.7080  178.2480  140.7200 C   0  0  0  0  0  0  0  0  0  0  0  0
  185.3150  178.4800  140.3460 C   0  0  0  0  0  0  0  0  0  0  0  0
  186.8150  178.2410  146.3260 N   0  0  0  0  0  0  0  0  0  0  0  0
  180.7780  177.9440  140.0750 C   0  0  0  0  0  2  0  0  0  0  0  0
  182.2760  177.2810  138.3170 C   0  0  0  0  0  2  0  0  0  0  0  0
  188.3650  178.0960  144.5950 F   0  0  0  0  0  0  0  0  0  0  0  0
  183.6370  178.6660  143.6910 C   0  0  0  0  0  0  0  0  0  0  0  0
  185.5600  178.3770  146.8200 C   0  0  0  0  0  3  0  0  0  0  0  0
  186.0170  178.3780  144.0560 C   0  0  0  0  0  0  0  0  0  0  0  0
  183.8200  178.6730  142.3230 C   0  0  0  0  0  0  0  0  0  0  0  0
  180.3690  179.2370  142.7690 O   0  0  0  0  0  0  0  0  0  0  0  0
  182.5060  178.9120  141.6370 C   0  0  1  0  0  3  0  0  0  0  0  0
  180.8390  177.1750  138.7770 C   0  0  0  0  0  2  0  0  0  0  0  0
  183.6890  179.9540  139.0940 C   0  0  0  0  0  1  0  0  0  0  0  0
  184.4810  178.5190  145.9530 C   0  0  0  0  0  3  0  0  0  0  0  0
  184.7030  178.5190  144.5730 C   0  0  0  0  0  0  0  0  0  0  0  0
  184.1990  178.5370  139.3370 C   0  0  2  0  0  3  0  0  0  0  0  0
  189.0970  178.0870  140.2030 C   0  0  0  0  0  2  0  0  0  0  0  0
  190.5160  176.3780  140.5770 O   0  0  0  0  0  1  0  0  0  0  0  0
  189.9170  177.4210  141.1990 N   0  0  0  0  0  2  0  0  0  0  0  0
  1 19  1  0  0  0  0
  2 13  1  0  0  0  0
  4 20  1  0  0  0  0
  4  1  2  0  0  0  0
  5  1  1  0  0  0  0
  6  8  1  0  0  0  0
  7 15  1  6  0  0  0
  7  9  1  0  0  0  0
  8 12  2  0  0  0  0
  8 11  1  0  0  0  0
  9 14  1  6  0  0  0
  9 22  1  0  0  0  0
 10  3  1  0  0  0  0
 11  5  2  0  0  0  0
 12  4  1  0  0  0  0
 13 18  2  0  0  0  0
 15 23  1  0  0  0  0
 16  2  1  0  0  0  0
 17  3  1  0  0  0  0
 17 26  1  0  0  0  0
 19 26  1  0  0  0  0
 19  2  2  0  0  0  0
 20 17  2  0  0  0  0
 21 10  2  0  0  0  0
 22 20  1  1  0  0  0
 22 10  1  0  0  0  0
 23 14  1  0  0  0  0
 25 18  1  0  0  0  0
 26 25  2  0  0  0  0
 27 24  1  1  0  0  0
 27  7  1  0  0  0  0
 27 12  1  0  0  0  0
 28 11  1  0  0  0  0
 28 30  1  0  0  0  0
 29 30  1  0  0  0  0
M  END
>  <MODEL>
4

>  <REMARK>
 VINA RESULT:      -9.4      2.817      4.439
  Name = 
  2 active torsions:
  status: ('A' for Active; 'I' for Inactive)
    1  A    between atoms: C_11  and  C_28
    2  A    between atoms: C_28  and  N_30
                            x       y       z     vdW  Elec       q    Type
                         _______ _______ _______ _____ _____    ______ ____

>  <TORSDO>
F 2

$$$$
=
 OpenBabel11122410273D

 30 35  0  0  1  0  0  0  0  0999 V2000
  186.4810  178.0740  144.8750 C   0  0  0  0  0  0  0  0  0  0  0  0
  184.0260  178.4440  145.2330 C   0  0  0  0  0  0  0  0  0  0  0  0
  186.0440  178.8960  140.7700 N   0  0  0  0  0  2  0  0  0  0  0  0
  187.5910  178.0240  143.9750 C   0  0  0  0  0  0  0  0  0  0  0  0
  186.7040  177.8110  146.2330 C   0  0  0  0  0  3  0  0  0  0  0  0
  190.3100  177.0740  146.3320 O   0  0  0  0  0  1  0  0  0  0  0  0
  189.8660  176.5440  142.4120 C   0  0  1  0  0  3  0  0  0  0  0  0
  189.0530  177.4150  145.8390 C   0  0  0  0  0  0  0  0  0  0  0  0
  189.0240  177.0640  141.2360 C   0  0  2  0  0  3  0  0  0  0  0  0
  187.4000  178.7740  140.3670 C   0  0  0  0  0  0  0  0  0  0  0  0
  187.9690  177.4980  146.7180 C   0  0  0  0  0  0  0  0  0  0  0  0
  188.8790  177.6690  144.4680 C   0  0  0  0  0  0  0  0  0  0  0  0
  182.8090  178.7470  144.7080 N   0  0  0  0  0  0  0  0  0  0  0  0
  189.9780  177.1370  140.0570 C   0  0  0  0  0  2  0  0  0  0  0  0
  191.1960  176.0830  141.8400 C   0  0  0  0  0  2  0  0  0  0  0  0
  184.1010  178.2040  146.5650 F   0  0  0  0  0  0  0  0  0  0  0  0
  186.0820  178.6130  142.1600 C   0  0  0  0  0  0  0  0  0  0  0  0
  182.6320  179.0050  143.3880 C   0  0  0  0  0  3  0  0  0  0  0  0
  185.1710  178.3860  144.3950 C   0  0  0  0  0  0  0  0  0  0  0  0
  187.3500  178.3130  142.6160 C   0  0  0  0  0  0  0  0  0  0  0  0
  187.7730  179.0020  139.1860 O   0  0  0  0  0  0  0  0  0  0  0  0
  188.3320  178.4090  141.4850 C   0  0  1  0  0  3  0  0  0  0  0  0
  191.0380  176.0990  140.3360 C   0  0  0  0  0  2  0  0  0  0  0  0
  190.7330  178.8460  143.2170 C   0  0  0  0  0  1  0  0  0  0  0  0
  183.7160  178.9620  142.5180 C   0  0  0  0  0  3  0  0  0  0  0  0
  184.9850  178.6530  143.0150 C   0  0  0  0  0  0  0  0  0  0  0  0
  190.0880  177.5130  143.5850 C   0  0  2  0  0  3  0  0  0  0  0  0
  188.1340  177.2100  148.1720 C   0  0  0  0  0  2  0  0  0  0  0  0
  189.6440  178.6280  149.0570 O   0  0  0  0  0  1  0  0  0  0  0  0
  188.3100  178.4540  148.9020 N   0  0  0  0  0  2  0  0  0  0  0  0
  1  5  1  0  0  0  0
  2 16  1  0  0  0  0
  3 17  1  0  0  0  0
  4 12  1  0  0  0  0
  4  1  2  0  0  0  0
  5 11  2  0  0  0  0
  7 15  1  6  0  0  0
  7 27  1  0  0  0  0
  8  6  1  0  0  0  0
  8 11  1  0  0  0  0
  9 14  1  6  0  0  0
  9 22  1  0  0  0  0
  9  7  1  0  0  0  0
 10  3  1  0  0  0  0
 11 28  1  0  0  0  0
 12  8  2  0  0  0  0
 13  2  1  0  0  0  0
 14 23  1  0  0  0  0
 17 20  2  0  0  0  0
 17 26  1  0  0  0  0
 18 13  2  0  0  0  0
 19  1  1  0  0  0  0
 19  2  2  0  0  0  0
 20  4  1  0  0  0  0
 21 10  2  0  0  0  0
 22 10  1  6  0  0  0
 22 20  1  0  0  0  0
 23 15  1  0  0  0  0
 25 26  2  0  0  0  0
 25 18  1  0  0  0  0
 26 19  1  0  0  0  0
 27 24  1  6  0  0  0
 27 12  1  0  0  0  0
 28 30  1  0  0  0  0
 30 29  1  0  0  0  0
M  END
>  <MODEL>
5

>  <REMARK>
 VINA RESULT:      -9.3      2.679      6.847
  Name = 
  2 active torsions:
  status: ('A' for Active; 'I' for Inactive)
    1  A    between atoms: C_11  and  C_28
    2  A    between atoms: C_28  and  N_30
                            x       y       z     vdW  Elec       q    Type
                         _______ _______ _______ _____ _____    ______ ____

>  <TORSDO>
F 2

$$$$
=
 OpenBabel11122410273D

 30 35  0  0  1  0  0  0  0  0999 V2000
  187.7090  177.6470  143.1040 C   0  0  0  0  0  0  0  0  0  0  0  0
  186.5760  177.7900  145.3380 C   0  0  0  0  0  0  0  0  0  0  0  0
  184.3300  179.3310  141.2430 N   0  0  0  0  0  2  0  0  0  0  0  0
  187.6550  177.8590  141.6910 C   0  0  0  0  0  0  0  0  0  0  0  0
  188.8740  177.1020  143.6590 C   0  0  0  0  0  3  0  0  0  0  0  0
  191.0020  176.5640  140.7020 O   0  0  0  0  0  1  0  0  0  0  0  0
  187.5690  176.8910  138.7140 C   0  0  1  0  0  3  0  0  0  0  0  0
  189.9110  176.9350  141.4850 C   0  0  0  0  0  0  0  0  0  0  0  0
  186.2140  177.6110  138.8040 C   0  0  2  0  0  3  0  0  0  0  0  0
  184.8060  179.3780  139.9050 C   0  0  0  0  0  0  0  0  0  0  0  0
  189.9670  176.7610  142.8710 C   0  0  0  0  0  0  0  0  0  0  0  0
  188.7620  177.4760  140.8820 C   0  0  0  0  0  0  0  0  0  0  0  0
  185.4790  178.1340  146.0630 N   0  0  0  0  0  0  0  0  0  0  0  0
  185.8650  177.9970  137.3780 C   0  0  0  0  0  2  0  0  0  0  0  0
  187.8460  176.6440  137.2410 C   0  0  0  0  0  2  0  0  0  0  0  0
  187.6370  177.2650  146.0000 F   0  0  0  0  0  0  0  0  0  0  0  0
  185.4080  178.7500  141.9600 C   0  0  0  0  0  0  0  0  0  0  0  0
  184.3700  178.6660  145.4930 C   0  0  0  0  0  3  0  0  0  0  0  0
  186.5930  177.9830  143.9310 C   0  0  0  0  0  0  0  0  0  0  0  0
  186.4820  178.4280  141.1550 C   0  0  0  0  0  0  0  0  0  0  0  0
  184.1310  179.8820  138.9700 O   0  0  0  0  0  0  0  0  0  0  0  0
  186.1910  178.8270  139.7380 C   0  0  1  0  0  3  0  0  0  0  0  0
  186.5680  176.9840  136.5070 C   0  0  0  0  0  2  0  0  0  0  0  0
  189.0560  179.0030  138.8890 C   0  0  0  0  0  1  0  0  0  0  0  0
  184.3260  178.8780  144.1190 C   0  0  0  0  0  3  0  0  0  0  0  0
  185.4310  178.5390  143.3350 C   0  0  0  0  0  0  0  0  0  0  0  0
  188.7670  177.5870  139.3800 C   0  0  2  0  0  3  0  0  0  0  0  0
  191.1710  176.1680  143.5220 C   0  0  0  0  0  2  0  0  0  0  0  0
  191.6810  176.3790  145.7050 O   0  0  0  0  0  1  0  0  0  0  0  0
  191.6720  177.0720  144.5420 N   0  0  0  0  0  2  0  0  0  0  0  0
  1  5  1  0  0  0  0
  1 19  1  0  0  0  0
  2 16  1  0  0  0  0
  2 13  1  0  0  0  0
  3 17  1  0  0  0  0
  4  1  2  0  0  0  0
  6  8  1  0  0  0  0
  7 15  1  6  0  0  0
  7  9  1  0  0  0  0
  7 27  1  0  0  0  0
  8 11  1  0  0  0  0
  9 14  1  6  0  0  0
  9 22  1  0  0  0  0
 10  3  1  0  0  0  0
 11 28  1  0  0  0  0
 11  5  2  0  0  0  0
 12  8  2  0  0  0  0
 12  4  1  0  0  0  0
 17 26  1  0  0  0  0
 18 13  2  0  0  0  0
 19  2  2  0  0  0  0
 20  4  1  0  0  0  0
 20 17  2  0  0  0  0
 21 10  2  0  0  0  0
 22 10  1  1  0  0  0
 22 20  1  0  0  0  0
 23 15  1  0  0  0  0
 23 14  1  0  0  0  0
 25 18  1  0  0  0  0
 26 19  1  0  0  0  0
 26 25  2  0  0  0  0
 27 24  1  1  0  0  0
 27 12  1  0  0  0  0
 28 30  1  0  0  0  0
 30 29  1  0  0  0  0
M  END
>  <MODEL>
6

>  <REMARK>
 VINA RESULT:      -8.7      2.876      5.484
  Name = 
  2 active torsions:
  status: ('A' for Active; 'I' for Inactive)
    1  A    between atoms: C_11  and  C_28
    2  A    between atoms: C_28  and  N_30
                            x       y       z     vdW  Elec       q    Type
                         _______ _______ _______ _____ _____    ______ ____

>  <TORSDO>
F 2

$$$$
=
 OpenBabel11122410273D

 30 35  0  0  1  0  0  0  0  0999 V2000
  187.9440  177.8250  145.4130 C   0  0  0  0  0  0  0  0  0  0  0  0
  185.8790  178.0500  146.8190 C   0  0  0  0  0  0  0  0  0  0  0  0
  185.7330  178.7520  141.9530 N   0  0  0  0  0  2  0  0  0  0  0  0
  188.5520  177.8630  144.1180 C   0  0  0  0  0  0  0  0  0  0  0  0
  188.7460  177.5310  146.5230 C   0  0  0  0  0  3  0  0  0  0  0  0
  192.0580  176.9870  145.0090 O   0  0  0  0  0  1  0  0  0  0  0  0
  189.9680  176.5590  141.6480 C   0  0  1  0  0  3  0  0  0  0  0  0
  190.7000  177.2750  145.1290 C   0  0  0  0  0  0  0  0  0  0  0  0
  188.6800  177.0700  140.9830 C   0  0  2  0  0  3  0  0  0  0  0  0
  186.7810  178.7170  140.9950 C   0  0  0  0  0  0  0  0  0  0  0  0
  190.1050  177.2710  146.3940 C   0  0  0  0  0  0  0  0  0  0  0  0
  189.9370  177.5630  143.9840 C   0  0  0  0  0  0  0  0  0  0  0  0
  184.5460  178.3030  146.8900 N   0  0  0  0  0  0  0  0  0  0  0  0
  189.0210  177.2330  139.5130 C   0  0  0  0  0  2  0  0  0  0  0  0
  190.9310  176.1900  140.5320 C   0  0  0  0  0  2  0  0  0  0  0  0
  186.5370  177.7710  147.9720 F   0  0  0  0  0  0  0  0  0  0  0  0
  186.3830  178.4280  143.1720 C   0  0  0  0  0  0  0  0  0  0  0  0
  183.8020  178.5930  145.7940 C   0  0  0  0  0  3  0  0  0  0  0  0
  186.5460  178.0810  145.5660 C   0  0  0  0  0  0  0  0  0  0  0  0
  187.7330  178.1830  143.0160 C   0  0  0  0  0  0  0  0  0  0  0  0
  186.5940  179.0030  139.7840 O   0  0  0  0  0  0  0  0  0  0  0  0
  188.1190  178.3670  141.5780 C   0  0  1  0  0  3  0  0  0  0  0  0
  190.1320  176.2450  139.2490 C   0  0  0  0  0  2  0  0  0  0  0  0
  191.0180  178.8780  142.1170 C   0  0  0  0  0  1  0  0  0  0  0  0
  184.3990  178.6370  144.5390 C   0  0  0  0  0  3  0  0  0  0  0  0
  185.7680  178.3810  144.4190 C   0  0  0  0  0  0  0  0  0  0  0  0
  190.6450  177.5010  142.6570 C   0  0  2  0  0  3  0  0  0  0  0  0
  190.8980  176.9460  147.6150 C   0  0  0  0  0  2  0  0  0  0  0  0
  192.7600  175.7580  148.0530 O   0  0  0  0  0  1  0  0  0  0  0  0
  191.5540  175.6610  147.4470 N   0  0  0  0  0  2  0  0  0  0  0  0
  1 19  1  0  0  0  0
  1  5  1  0  0  0  0
  2 13  1  0  0  0  0
  2 16  1  0  0  0  0
  3 17  1  0  0  0  0
  4  1  2  0  0  0  0
  6  8  1  0  0  0  0
  7 15  1  6  0  0  0
  7 27  1  0  0  0  0
  8 11  1  0  0  0  0
  9 14  1  6  0  0  0
  9 22  1  0  0  0  0
  9  7  1  0  0  0  0
 10  3  1  0  0  0  0
 11  5  2  0  0  0  0
 11 28  1  0  0  0  0
 12  4  1  0  0  0  0
 12  8  2  0  0  0  0
 17 26  1  0  0  0  0
 18 13  2  0  0  0  0
 19  2  2  0  0  0  0
 20 17  2  0  0  0  0
 20  4  1  0  0  0  0
 21 10  2  0  0  0  0
 22 10  1  6  0  0  0
 22 20  1  0  0  0  0
 23 14  1  0  0  0  0
 23 15  1  0  0  0  0
 25 18  1  0  0  0  0
 26 25  2  0  0  0  0
 26 19  1  0  0  0  0
 27 24  1  6  0  0  0
 27 12  1  0  0  0  0
 30 28  1  0  0  0  0
 30 29  1  0  0  0  0
M  END
>  <MODEL>
7

>  <REMARK>
 VINA RESULT:      -8.4      2.763      6.088
  Name = 
  2 active torsions:
  status: ('A' for Active; 'I' for Inactive)
    1  A    between atoms: C_11  and  C_28
    2  A    between atoms: C_28  and  N_30
                            x       y       z     vdW  Elec       q    Type
                         _______ _______ _______ _____ _____    ______ ____

>  <TORSDO>
F 2

$$$$
=
 OpenBabel11122410273D

 30 35  0  0  1  0  0  0  0  0999 V2000
  186.0960  178.4490  142.9410 C   0  0  0  0  0  0  0  0  0  0  0  0
  185.7430  178.5550  140.4600 C   0  0  0  0  0  0  0  0  0  0  0  0
  190.2460  178.0320  142.3690 N   0  0  0  0  0  2  0  0  0  0  0  0
  186.9970  178.3080  144.0420 C   0  0  0  0  0  0  0  0  0  0  0  0
  184.7300  178.6060  143.2060 C   0  0  0  0  0  3  0  0  0  0  0  0
  184.5950  178.4380  146.8820 O   0  0  0  0  0  1  0  0  0  0  0  0
  188.1970  176.7870  146.5030 C   0  0  1  0  0  3  0  0  0  0  0  0
  185.1050  178.4500  145.5860 C   0  0  0  0  0  0  0  0  0  0  0  0
  189.4310  176.8370  145.5890 C   0  0  2  0  0  3  0  0  0  0  0  0
  190.6610  177.9950  143.7270 C   0  0  0  0  0  0  0  0  0  0  0  0
  184.2350  178.6200  144.5050 C   0  0  0  0  0  0  0  0  0  0  0  0
  186.4850  178.2870  145.3700 C   0  0  0  0  0  0  0  0  0  0  0  0
  186.2760  178.5270  139.2090 N   0  0  0  0  0  0  0  0  0  0  0  0
  190.6270  176.7150  146.5160 C   0  0  0  0  0  2  0  0  0  0  0  0
  188.6810  176.3770  147.8840 C   0  0  0  0  0  2  0  0  0  0  0  0
  184.4000  178.7060  140.5760 F   0  0  0  0  0  0  0  0  0  0  0  0
  188.8340  178.1530  142.4550 C   0  0  0  0  0  0  0  0  0  0  0  0
  187.6060  178.3820  138.9900 C   0  0  0  0  0  3  0  0  0  0  0  0
  186.5830  178.4290  141.5970 C   0  0  0  0  0  0  0  0  0  0  0  0
  188.3710  178.1730  143.7550 C   0  0  0  0  0  0  0  0  0  0  0  0
  191.8740  177.9370  144.0560 O   0  0  0  0  0  0  0  0  0  0  0  0
  189.5280  178.0880  144.7070 C   0  0  1  0  0  3  0  0  0  0  0  0
  190.1230  175.9540  147.7180 C   0  0  0  0  0  2  0  0  0  0  0  0
  188.0910  179.3200  147.0250 C   0  0  0  0  0  1  0  0  0  0  0  0
  188.4790  178.2520  140.0640 C   0  0  0  0  0  3  0  0  0  0  0  0
  187.9750  178.2740  141.3670 C   0  0  0  0  0  0  0  0  0  0  0  0
  187.3450  178.0640  146.5850 C   0  0  2  0  0  3  0  0  0  0  0  0
  182.7670  178.7720  144.7180 C   0  0  0  0  0  2  0  0  0  0  0  0
  180.7860  178.7900  143.6460 O   0  0  0  0  0  1  0  0  0  0  0  0
  182.1080  179.0030  143.4440 N   0  0  0  0  0  2  0  0  0  0  0  0
  1  5  2  0  0  0  0
  1  4  1  0  0  0  0
  2 16  1  0  0  0  0
  2 19  1  0  0  0  0
  3 17  1  0  0  0  0
  3 10  1  0  0  0  0
  4 12  2  0  0  0  0
  5 11  1  0  0  0  0
  7 27  1  0  0  0  0
  7 15  1  1  0  0  0
  8  6  1  0  0  0  0
  9  7  1  0  0  0  0
  9 14  1  1  0  0  0
 10 21  2  0  0  0  0
 11 28  1  0  0  0  0
 11  8  2  0  0  0  0
 12  8  1  0  0  0  0
 12 27  1  0  0  0  0
 13  2  2  0  0  0  0
 14 23  1  0  0  0  0
 17 20  2  0  0  0  0
 18 13  1  0  0  0  0
 18 25  2  0  0  0  0
 19  1  1  0  0  0  0
 20  4  1  0  0  0  0
 20 22  1  0  0  0  0
 22 10  1  6  0  0  0
 22  9  1  0  0  0  0
 23 15  1  0  0  0  0
 25 26  1  0  0  0  0
 26 19  2  0  0  0  0
 26 17  1  0  0  0  0
 27 24  1  6  0  0  0
 30 29  1  0  0  0  0
 30 28  1  0  0  0  0
M  END
>  <MODEL>
8

>  <REMARK>
 VINA RESULT:      -8.4      2.932      6.584
  Name = 
  2 active torsions:
  status: ('A' for Active; 'I' for Inactive)
    1  A    between atoms: C_11  and  C_28
    2  A    between atoms: C_28  and  N_30
                            x       y       z     vdW  Elec       q    Type
                         _______ _______ _______ _____ _____    ______ ____

>  <TORSDO>
F 2

$$$$
=
 OpenBabel11122410273D

 30 35  0  0  1  0  0  0  0  0999 V2000
  189.8000  177.3470  140.2310 C   0  0  0  0  0  0  0  0  0  0  0  0
  190.6630  177.2010  142.5820 C   0  0  0  0  0  0  0  0  0  0  0  0
  186.0950  178.7650  141.6400 N   0  0  0  0  0  2  0  0  0  0  0  0
  188.7220  177.6520  139.3410 C   0  0  0  0  0  0  0  0  0  0  0  0
  191.0120  176.9000  139.6900 C   0  0  0  0  0  3  0  0  0  0  0  0
  190.3060  176.8190  136.0770 O   0  0  0  0  0  1  0  0  0  0  0  0
  186.5060  176.8950  137.2610 C   0  0  1  0  0  3  0  0  0  0  0  0
  190.1280  177.0070  137.4460 C   0  0  0  0  0  0  0  0  0  0  0  0
  185.6330  177.4480  138.3980 C   0  0  2  0  0  3  0  0  0  0  0  0
  185.4370  178.9610  140.3960 C   0  0  0  0  0  0  0  0  0  0  0  0
  191.1860  176.7420  138.3200 C   0  0  0  0  0  0  0  0  0  0  0  0
  188.8910  177.4560  137.9410 C   0  0  0  0  0  0  0  0  0  0  0  0
  190.4390  177.3650  143.9120 N   0  0  0  0  0  0  0  0  0  0  0  0
  184.3410  177.8930  137.7370 C   0  0  0  0  0  2  0  0  0  0  0  0
  185.6220  176.7870  136.0310 C   0  0  0  0  0  2  0  0  0  0  0  0
  191.8820  176.7540  142.1920 F   0  0  0  0  0  0  0  0  0  0  0  0
  187.3690  178.2600  141.2680 C   0  0  0  0  0  0  0  0  0  0  0  0
  189.2530  177.8080  144.4000 C   0  0  0  0  0  3  0  0  0  0  0  0
  189.6380  177.4950  141.6430 C   0  0  0  0  0  0  0  0  0  0  0  0
  187.5170  178.1210  139.9030 C   0  0  0  0  0  0  0  0  0  0  0  0
  184.2800  179.4510  140.3190 O   0  0  0  0  0  0  0  0  0  0  0  0
  186.2710  178.5840  139.2070 C   0  0  1  0  0  3  0  0  0  0  0  0
  184.2060  177.0310  136.5050 C   0  0  0  0  0  2  0  0  0  0  0  0
  187.5930  179.1440  136.5810 C   0  0  0  0  0  1  0  0  0  0  0  0
  188.2120  178.1110  143.5300 C   0  0  0  0  0  3  0  0  0  0  0  0
  188.3970  177.9560  142.1540 C   0  0  0  0  0  0  0  0  0  0  0  0
  187.7920  177.6740  136.9360 C   0  0  2  0  0  3  0  0  0  0  0  0
  192.4970  176.2440  137.8110 C   0  0  0  0  0  2  0  0  0  0  0  0
  194.5010  175.7290  138.7000 O   0  0  0  0  0  1  0  0  0  0  0  0
  193.5680  176.7090  138.6750 N   0  0  0  0  0  2  0  0  0  0  0  0
  1 19  1  0  0  0  0
  2 13  1  0  0  0  0
  4 20  1  0  0  0  0
  4  1  2  0  0  0  0
  5  1  1  0  0  0  0
  6  8  1  0  0  0  0
  7 15  1  6  0  0  0
  7  9  1  0  0  0  0
  8 12  2  0  0  0  0
  8 11  1  0  0  0  0
  9 14  1  6  0  0  0
  9 22  1  0  0  0  0
 10  3  1  0  0  0  0
 11  5  2  0  0  0  0
 12  4  1  0  0  0  0
 13 18  2  0  0  0  0
 15 23  1  0  0  0  0
 16  2  1  0  0  0  0
 17  3  1  0  0  0  0
 17 26  1  0  0  0  0
 19 26  1  0  0  0  0
 19  2  2  0  0  0  0
 20 17  2  0  0  0  0
 21 10  2  0  0  0  0
 22 20  1  1  0  0  0
 22 10  1  0  0  0  0
 23 14  1  0  0  0  0
 25 18  1  0  0  0  0
 26 25  2  0  0  0  0
 27 24  1  1  0  0  0
 27  7  1  0  0  0  0
 27 12  1  0  0  0  0
 28 11  1  0  0  0  0
 28 30  1  0  0  0  0
 30 29  1  0  0  0  0
M  END
>  <MODEL>
9

>  <REMARK>
 VINA RESULT:      -7.9      3.095      5.008
  Name = 
  2 active torsions:
  status: ('A' for Active; 'I' for Inactive)
    1  A    between atoms: C_11  and  C_28
    2  A    between atoms: C_28  and  N_30
                            x       y       z     vdW  Elec       q    Type
                         _______ _______ _______ _____ _____    ______ ____

>  <TORSDO>
F 2

$$$$
