=
 OpenBabel11122410453D

 32 37  0  0  1  0  0  0  0  0999 V2000
  188.4550  177.8170  148.2250 C   0  0  0  0  0  2  0  0  0  0  0  0
  186.1160  178.2250  143.0260 C   0  0  0  0  0  0  0  0  0  0  0  0
  189.2730  178.0660  139.3790 C   0  0  0  0  0  3  0  0  0  0  0  0
  188.1780  178.1310  138.3920 C   0  0  0  0  0  3  0  0  0  0  0  0
  183.6170  178.7730  142.5240 C   0  0  0  0  0  0  0  0  0  0  0  0
  182.7040  178.6310  141.5610 C   0  0  0  0  0  0  0  0  0  0  0  0
  186.9210  178.2430  145.3320 N   0  0  2  0  0  0  0  0  0  0  0  0
  188.4850  177.6330  143.5140 C   0  0  0  0  0  2  0  0  0  0  0  0
  181.8430  178.5100  139.4180 N   0  0  0  0  0  0  0  0  0  0  0  0
  189.2690  177.5820  145.8400 C   0  0  0  0  0  2  0  0  0  0  0  0
  189.0160  178.1150  140.6890 C   0  0  0  0  0  3  0  0  0  0  0  0
  187.3700  178.0310  142.5710 C   0  0  0  0  0  0  0  0  0  0  0  0
  187.6660  178.2430  141.1740 N   0  0  0  0  0  0  0  0  0  0  0  0
  185.3410  178.5850  140.6420 C   0  0  0  0  0  0  0  0  0  0  0  0
  180.7100  178.6110  140.3450 C   0  0  0  0  0  3  0  0  0  0  0  0
  187.2770  178.6520  147.7150 C   0  0  0  0  0  2  0  0  0  0  0  0
  188.0410  177.3600  144.9570 C   0  0  1  0  0  3  0  0  0  0  0  0
  181.2890  178.6760  141.7000 N   0  0  0  0  0  0  0  0  0  0  0  0
  186.4490  177.9120  146.6740 C   0  0  0  0  0  2  0  0  0  0  0  0
  189.0920  176.8920  147.1860 C   0  0  1  0  0  3  0  0  0  0  0  0
  186.9100  178.2790  138.7810 C   0  0  0  0  0  3  0  0  0  0  0  0
  186.5950  178.3920  140.2170 C   0  0  0  0  0  0  0  0  0  0  0  0
  184.2400  178.5360  139.7150 N   0  0  0  0  0  2  0  0  0  0  0  0
  185.8020  177.9050  144.4600 C   0  0  0  0  0  2  0  0  0  0  0  0
  183.1660  179.0960  143.9110 C   0  0  0  0  0  1  0  0  0  0  0  0
  181.7530  178.6460  137.9750 C   0  0  0  0  0  1  0  0  0  0  0  0
  185.0900  178.8870  142.1210 C   0  0  0  0  0  0  0  0  0  0  0  0
  183.0300  178.5440  140.1790 C   0  0  0  0  0  0  0  0  0  0  0  0
  190.3810  176.4300  147.6820 N   0  0  0  0  0  2  0  0  0  0  0  0
  191.4850  176.1560  146.8180 C   0  0  0  0  0  0  0  0  0  0  0  0
  191.3740  176.2850  145.5700 O   0  0  0  0  0  0  0  0  0  0  0  0
  192.7780  175.7100  147.4000 C   0  0  0  0  0  1  0  0  0  0  0  0
  2 24  1  0  0  0  0
  3 11  2  0  0  0  0
  4 21  2  0  0  0  0
  4  3  1  0  0  0  0
  5 25  1  0  0  0  0
  6 18  1  0  0  0  0
  6  5  1  0  0  0  0
  7 24  1  6  0  0  0
  7 19  1  0  0  0  0
  9 28  1  0  0  0  0
  9 15  1  0  0  0  0
 10 20  1  0  0  0  0
 11 13  1  0  0  0  0
 12  2  2  0  0  0  0
 12  8  1  0  0  0  0
 13 12  1  0  0  0  0
 14 27  1  0  0  0  0
 15 18  2  0  0  0  0
 16  1  1  0  0  0  0
 17  8  1  6  0  0  0
 17  7  1  0  0  0  0
 17 10  1  0  0  0  0
 19 16  1  0  0  0  0
 20 29  1  1  0  0  0
 20  1  1  0  0  0  0
 21 22  1  0  0  0  0
 22 14  2  0  0  0  0
 22 13  1  0  0  0  0
 23 28  1  0  0  0  0
 23 14  1  0  0  0  0
 26  9  1  0  0  0  0
 27  5  2  0  0  0  0
 27  2  1  0  0  0  0
 28  6  2  0  0  0  0
 30 32  1  0  0  0  0
 30 29  1  0  0  0  0
 31 30  2  0  0  0  0
M  END
>  <MODEL>
1

>  <REMARK>
 VINA RESULT:     -11.1      0.000      0.000
  Name = 
  1 active torsions:
  status: ('A' for Active; 'I' for Inactive)
    1  A    between atoms: C_20  and  N_29
                            x       y       z     vdW  Elec       q    Type
                         _______ _______ _______ _____ _____    ______ ____

>  <TORSDO>
F 1

$$$$
=
 OpenBabel11122410453D

 32 37  0  0  1  0  0  0  0  0999 V2000
  181.2590  179.1480  140.3510 C   0  0  0  0  0  2  0  0  0  0  0  0
  186.2350  178.1480  142.9790 C   0  0  0  0  0  0  0  0  0  0  0  0
  189.9730  177.4330  140.0110 C   0  0  0  0  0  3  0  0  0  0  0  0
  190.8950  177.3170  141.1560 C   0  0  0  0  0  3  0  0  0  0  0  0
  186.5510  177.7630  145.5380 C   0  0  0  0  0  0  0  0  0  0  0  0
  187.4900  177.8370  146.4840 C   0  0  0  0  0  0  0  0  0  0  0  0
  183.9880  178.4180  142.0620 N   0  0  2  0  0  0  0  0  0  0  0  0
  185.9360  178.5840  140.5460 C   0  0  0  0  0  2  0  0  0  0  0  0
  189.5910  177.7000  147.4390 N   0  0  0  0  0  0  0  0  0  0  0  0
  183.6790  178.9280  139.6430 C   0  0  0  0  0  2  0  0  0  0  0  0
  188.6630  177.6150  140.2040 C   0  0  0  0  0  3  0  0  0  0  0  0
  186.7610  178.1490  141.7380 C   0  0  0  0  0  0  0  0  0  0  0  0
  188.1150  177.6930  141.5330 N   0  0  0  0  0  0  0  0  0  0  0  0
  188.5000  177.4910  143.9030 C   0  0  0  0  0  0  0  0  0  0  0  0
  188.6190  177.8520  148.5280 C   0  0  0  0  0  3  0  0  0  0  0  0
  181.5850  178.3580  141.6210 C   0  0  0  0  0  2  0  0  0  0  0  0
  184.5410  179.1220  140.8900 C   0  0  1  0  0  3  0  0  0  0  0  0
  187.2940  177.9480  147.8880 N   0  0  0  0  0  0  0  0  0  0  0  0
  182.7000  178.9990  142.4340 C   0  0  0  0  0  2  0  0  0  0  0  0
  182.4560  179.8340  139.6900 C   0  0  1  0  0  3  0  0  0  0  0  0
  190.4420  177.3510  142.4100 C   0  0  0  0  0  3  0  0  0  0  0  0
  188.9960  177.4960  142.6600 C   0  0  0  0  0  0  0  0  0  0  0  0
  189.3810  177.4960  145.0410 N   0  0  0  0  0  0  0  0  0  0  0  0
  184.8610  178.7170  143.1900 C   0  0  0  0  0  2  0  0  0  0  0  0
  185.1140  177.7070  145.9440 C   0  0  0  0  0  1  0  0  0  0  0  0
  190.9890  177.3460  147.6150 C   0  0  0  0  0  1  0  0  0  0  0  0
  186.9830  177.4500  144.1040 C   0  0  2  0  0  3  0  0  0  0  0  0
  188.8790  177.6750  146.2220 C   0  0  0  0  0  0  0  0  0  0  0  0
  182.0890  180.2460  138.3430 N   0  0  0  0  0  2  0  0  0  0  0  0
  181.1580  181.2980  138.0850 C   0  0  0  0  0  0  0  0  0  0  0  0
  180.5930  181.9040  139.0350 O   0  0  0  0  0  0  0  0  0  0  0  0
  180.8490  181.6780  136.6830 C   0  0  0  0  0  1  0  0  0  0  0  0
  1 16  1  0  0  0  0
  2 24  1  0  0  0  0
  3 11  2  0  0  0  0
  3  4  1  0  0  0  0
  4 21  2  0  0  0  0
  5 25  1  0  0  0  0
  5  6  2  0  0  0  0
  6 18  1  0  0  0  0
  7 19  1  1  0  0  0
  7 24  1  0  0  0  0
  8 17  1  0  0  0  0
  8 12  1  0  0  0  0
  9 26  1  0  0  0  0
  9 15  1  0  0  0  0
 10 20  1  0  0  0  0
 11 13  1  0  0  0  0
 12  2  2  0  0  0  0
 13 12  1  0  0  0  0
 13 22  1  0  0  0  0
 14 27  1  0  0  0  0
 14 23  1  0  0  0  0
 16 19  1  0  0  0  0
 17 10  1  6  0  0  0
 17  7  1  0  0  0  0
 18 15  2  0  0  0  0
 20 29  1  6  0  0  0
 20  1  1  0  0  0  0
 21 22  1  0  0  0  0
 22 14  2  0  0  0  0
 23 28  2  0  0  0  0
 27  2  1  6  0  0  0
 27  5  1  0  0  0  0
 28  6  1  0  0  0  0
 28  9  1  0  0  0  0
 30 29  1  0  0  0  0
 30 31  2  0  0  0  0
 32 30  1  0  0  0  0
M  END
>  <MODEL>
2

>  <REMARK>
 VINA RESULT:     -10.8      2.890      8.170
  Name = 
  1 active torsions:
  status: ('A' for Active; 'I' for Inactive)
    1  A    between atoms: C_20  and  N_29
                            x       y       z     vdW  Elec       q    Type
                         _______ _______ _______ _____ _____    ______ ____

>  <TORSDO>
F 1

$$$$
=
 OpenBabel11122410453D

 32 37  0  0  1  0  0  0  0  0999 V2000
  188.1610  178.3210  136.5790 C   0  0  0  0  0  2  0  0  0  0  0  0
  187.3860  178.1300  142.2390 C   0  0  0  0  0  0  0  0  0  0  0  0
  182.9040  179.1690  143.6950 C   0  0  0  0  0  3  0  0  0  0  0  0
  183.2690  178.9050  145.0990 C   0  0  0  0  0  3  0  0  0  0  0  0
  189.2670  177.8390  144.0200 C   0  0  0  0  0  0  0  0  0  0  0  0
  189.4400  177.4390  145.2820 C   0  0  0  0  0  0  0  0  0  0  0  0
  187.9730  178.3250  139.8760 N   0  0  2  0  0  0  0  0  0  0  0  0
  185.5870  178.3390  140.5300 C   0  0  0  0  0  2  0  0  0  0  0  0
  188.9520  177.1220  147.5200 N   0  0  0  0  0  0  0  0  0  0  0  0
  186.1810  178.4610  138.1510 C   0  0  0  0  0  2  0  0  0  0  0  0
  183.8160  179.0790  142.7220 C   0  0  0  0  0  3  0  0  0  0  0  0
  186.0920  178.3820  141.9560 C   0  0  0  0  0  0  0  0  0  0  0  0
  185.1810  178.7330  143.0200 N   0  0  0  0  0  0  0  0  0  0  0  0
  186.8470  178.3050  144.7070 C   0  0  0  0  0  0  0  0  0  0  0  0
  190.3710  176.8060  147.3270 C   0  0  0  0  0  3  0  0  0  0  0  0
  189.0750  178.7370  137.7340 C   0  0  0  0  0  2  0  0  0  0  0  0
  186.6210  177.8790  139.4940 C   0  0  1  0  0  3  0  0  0  0  0  0
  190.6490  177.0070  145.8930 N   0  0  0  0  0  0  0  0  0  0  0  0
  188.9590  177.8050  138.9320 C   0  0  0  0  0  2  0  0  0  0  0  0
  186.8270  177.7000  137.0010 C   0  0  1  0  0  3  0  0  0  0  0  0
  184.5250  178.6100  145.4390 C   0  0  0  0  0  3  0  0  0  0  0  0
  185.5690  178.5550  144.3990 C   0  0  0  0  0  0  0  0  0  0  0  0
  187.2150  177.9310  146.0470 N   0  0  0  0  0  0  0  0  0  0  0  0
  188.2980  177.6700  141.1380 C   0  0  0  0  0  2  0  0  0  0  0  0
  190.4570  177.9400  143.1220 C   0  0  0  0  0  1  0  0  0  0  0  0
  188.3000  177.2770  148.8090 C   0  0  0  0  0  1  0  0  0  0  0  0
  187.9210  178.4500  143.6260 C   0  0  2  0  0  3  0  0  0  0  0  0
  188.4230  177.5190  146.2740 C   0  0  0  0  0  0  0  0  0  0  0  0
  185.9280  177.6730  135.8550 N   0  0  0  0  0  2  0  0  0  0  0  0
  184.7900  176.8120  135.7890 C   0  0  0  0  0  0  0  0  0  0  0  0
  184.5310  176.0140  136.7290 O   0  0  0  0  0  0  0  0  0  0  0  0
  183.9050  176.8560  134.5970 C   0  0  0  0  0  1  0  0  0  0  0  0
  1 20  1  0  0  0  0
  1 16  1  0  0  0  0
  3  4  1  0  0  0  0
  4 21  2  0  0  0  0
  5  6  2  0  0  0  0
  6 18  1  0  0  0  0
  6 28  1  0  0  0  0
  7 19  1  6  0  0  0
  7 24  1  0  0  0  0
  8 12  1  0  0  0  0
  9 26  1  0  0  0  0
 11 13  1  0  0  0  0
 11  3  2  0  0  0  0
 12  2  2  0  0  0  0
 12 13  1  0  0  0  0
 13 22  1  0  0  0  0
 14 23  1  0  0  0  0
 15  9  1  0  0  0  0
 16 19  1  0  0  0  0
 17 10  1  6  0  0  0
 17  7  1  0  0  0  0
 17  8  1  0  0  0  0
 18 15  2  0  0  0  0
 20 29  1  6  0  0  0
 20 10  1  0  0  0  0
 22 14  2  0  0  0  0
 22 21  1  0  0  0  0
 23 28  2  0  0  0  0
 24  2  1  0  0  0  0
 25  5  1  0  0  0  0
 27  2  1  6  0  0  0
 27  5  1  0  0  0  0
 27 14  1  0  0  0  0
 28  9  1  0  0  0  0
 30 29  1  0  0  0  0
 30 31  2  0  0  0  0
 32 30  1  0  0  0  0
M  END
>  <MODEL>
3

>  <REMARK>
 VINA RESULT:     -10.1      2.825      8.578
  Name = 
  1 active torsions:
  status: ('A' for Active; 'I' for Inactive)
    1  A    between atoms: C_20  and  N_29
                            x       y       z     vdW  Elec       q    Type
                         _______ _______ _______ _____ _____    ______ ____

>  <TORSDO>
F 1

$$$$
=
 OpenBabel11122410453D

 32 37  0  0  1  0  0  0  0  0999 V2000
  182.6880  179.6460  140.1340 C   0  0  0  0  0  2  0  0  0  0  0  0
  188.1360  177.9390  139.8640 C   0  0  0  0  0  0  0  0  0  0  0  0
  190.4620  177.9480  144.0930 C   0  0  0  0  0  3  0  0  0  0  0  0
  191.6730  177.3940  143.4590 C   0  0  0  0  0  3  0  0  0  0  0  0
  189.4750  177.4740  137.6770 C   0  0  0  0  0  0  0  0  0  0  0  0
  190.5420  176.7990  137.2440 C   0  0  0  0  0  0  0  0  0  0  0  0
  185.8540  178.7990  139.7300 N   0  0  2  0  0  0  0  0  0  0  0  0
  186.8310  178.3180  141.9510 C   0  0  0  0  0  2  0  0  0  0  0  0
  192.6580  175.8660  137.2930 N   0  0  0  0  0  0  0  0  0  0  0  0
  184.5130  179.1130  141.8050 C   0  0  0  0  0  2  0  0  0  0  0  0
  189.3780  178.2320  143.3650 C   0  0  0  0  0  3  0  0  0  0  0  0
  188.1250  178.0710  141.2060 C   0  0  0  0  0  0  0  0  0  0  0  0
  189.3660  178.0150  141.9410 N   0  0  0  0  0  0  0  0  0  0  0  0
  190.6110  177.4130  139.9690 C   0  0  0  0  0  0  0  0  0  0  0  0
  192.1800  175.8090  135.9070 C   0  0  0  0  0  3  0  0  0  0  0  0
  183.7640  179.8820  139.0720 C   0  0  0  0  0  2  0  0  0  0  0  0
  185.5690  178.2790  141.0800 C   0  0  1  0  0  3  0  0  0  0  0  0
  190.8290  176.3990  135.9100 N   0  0  0  0  0  0  0  0  0  0  0  0
  184.6700  178.6730  138.8830 C   0  0  0  0  0  2  0  0  0  0  0  0
  183.1180  178.7620  141.3060 C   0  0  1  0  0  3  0  0  0  0  0  0
  191.7310  177.2000  142.1400 C   0  0  0  0  0  3  0  0  0  0  0  0
  190.5740  177.5530  141.2990 C   0  0  0  0  0  0  0  0  0  0  0  0
  191.7310  176.7690  139.3330 N   0  0  0  0  0  0  0  0  0  0  0  0
  186.8290  177.9000  139.1240 C   0  0  0  0  0  2  0  0  0  0  0  0
  188.4720  177.9600  136.6810 C   0  0  0  0  0  1  0  0  0  0  0  0
  194.0220  175.6020  137.7150 C   0  0  0  0  0  1  0  0  0  0  0  0
  189.4630  177.9720  139.1240 C   0  0  2  0  0  3  0  0  0  0  0  0
  191.6570  176.4850  138.0710 C   0  0  0  0  0  0  0  0  0  0  0  0
  182.1530  178.8980  142.3880 N   0  0  0  0  0  2  0  0  0  0  0  0
  180.8400  178.3380  142.3250 C   0  0  0  0  0  0  0  0  0  0  0  0
  180.4550  177.7130  141.3010 O   0  0  0  0  0  0  0  0  0  0  0  0
  179.9180  178.4990  143.4790 C   0  0  0  0  0  1  0  0  0  0  0  0
  1 20  1  0  0  0  0
  2 12  2  0  0  0  0
  4  3  1  0  0  0  0
  6  5  2  0  0  0  0
  6 28  1  0  0  0  0
  7 19  1  6  0  0  0
  7 17  1  0  0  0  0
  9 26  1  0  0  0  0
  9 28  1  0  0  0  0
 11  3  2  0  0  0  0
 12 13  1  0  0  0  0
 12  8  1  0  0  0  0
 13 11  1  0  0  0  0
 14 22  2  0  0  0  0
 15 18  2  0  0  0  0
 15  9  1  0  0  0  0
 16  1  1  0  0  0  0
 17 10  1  1  0  0  0
 17  8  1  0  0  0  0
 18  6  1  0  0  0  0
 19 16  1  0  0  0  0
 20 10  1  0  0  0  0
 20 29  1  1  0  0  0
 21  4  2  0  0  0  0
 22 13  1  0  0  0  0
 22 21  1  0  0  0  0
 23 14  1  0  0  0  0
 24  7  1  0  0  0  0
 24  2  1  0  0  0  0
 25  5  1  0  0  0  0
 27  5  1  6  0  0  0
 27  2  1  0  0  0  0
 27 14  1  0  0  0  0
 28 23  2  0  0  0  0
 30 29  1  0  0  0  0
 30 32  1  0  0  0  0
 31 30  2  0  0  0  0
M  END
>  <MODEL>
4

>  <REMARK>
 VINA RESULT:      -9.3      3.516      8.242
  Name = 
  1 active torsions:
  status: ('A' for Active; 'I' for Inactive)
    1  A    between atoms: C_20  and  N_29
                            x       y       z     vdW  Elec       q    Type
                         _______ _______ _______ _____ _____    ______ ____

>  <TORSDO>
F 1

$$$$
=
 OpenBabel11122410453D

 32 37  0  0  1  0  0  0  0  0999 V2000
  193.5570  176.7110  138.4450 C   0  0  0  0  0  2  0  0  0  0  0  0
  188.9800  177.6530  141.7350 C   0  0  0  0  0  0  0  0  0  0  0  0
  184.9300  178.6630  139.3110 C   0  0  0  0  0  3  0  0  0  0  0  0
  184.1600  178.7230  140.5670 C   0  0  0  0  0  3  0  0  0  0  0  0
  188.9950  177.8690  144.3320 C   0  0  0  0  0  0  0  0  0  0  0  0
  188.1780  177.7540  145.3820 C   0  0  0  0  0  0  0  0  0  0  0  0
  191.0860  177.3900  140.5270 N   0  0  2  0  0  0  0  0  0  0  0  0
  188.9610  177.3770  139.2600 C   0  0  0  0  0  2  0  0  0  0  0  0
  186.2160  177.8780  146.6000 N   0  0  0  0  0  0  0  0  0  0  0  0
  191.0770  177.0400  138.0610 C   0  0  0  0  0  2  0  0  0  0  0  0
  186.2470  178.4350  139.3260 C   0  0  0  0  0  3  0  0  0  0  0  0
  188.3050  177.7500  140.5710 C   0  0  0  0  0  0  0  0  0  0  0  0
  186.9520  178.2530  140.5680 N   0  0  0  0  0  0  0  0  0  0  0  0
  186.8690  178.3020  142.9750 C   0  0  0  0  0  0  0  0  0  0  0  0
  187.3090  177.6270  147.5450 C   0  0  0  0  0  3  0  0  0  0  0  0
  193.4170  177.4200  139.7940 C   0  0  0  0  0  2  0  0  0  0  0  0
  190.3700  176.7820  139.3910 C   0  0  1  0  0  3  0  0  0  0  0  0
  188.5420  177.5420  146.7400 N   0  0  0  0  0  0  0  0  0  0  0  0
  192.3900  176.7530  140.6970 C   0  0  0  0  0  2  0  0  0  0  0  0
  192.2650  176.1020  137.8960 C   0  0  1  0  0  3  0  0  0  0  0  0
  184.7640  178.5920  141.7500 C   0  0  0  0  0  3  0  0  0  0  0  0
  186.2240  178.3940  141.8070 C   0  0  0  0  0  0  0  0  0  0  0  0
  186.1360  178.2410  144.2130 N   0  0  0  0  0  0  0  0  0  0  0  0
  190.3490  177.0360  141.7350 C   0  0  0  0  0  2  0  0  0  0  0  0
  190.4720  177.8610  144.5580 C   0  0  0  0  0  1  0  0  0  0  0  0
  184.8630  178.2540  146.9710 C   0  0  0  0  0  1  0  0  0  0  0  0
  188.4000  178.2910  142.9870 C   0  0  2  0  0  3  0  0  0  0  0  0
  186.7740  177.9690  145.3070 C   0  0  0  0  0  0  0  0  0  0  0  0
  192.4500  175.7750  136.4890 N   0  0  0  0  0  2  0  0  0  0  0  0
  192.8880  174.4890  136.0480 C   0  0  0  0  0  0  0  0  0  0  0  0
  193.1570  173.5800  136.8790 O   0  0  0  0  0  0  0  0  0  0  0  0
  193.0310  174.2210  134.5940 C   0  0  0  0  0  1  0  0  0  0  0  0
  1 16  1  0  0  0  0
  2 24  1  0  0  0  0
  3 11  2  0  0  0  0
  3  4  1  0  0  0  0
  4 21  2  0  0  0  0
  5 25  1  0  0  0  0
  5  6  2  0  0  0  0
  6 18  1  0  0  0  0
  7 19  1  1  0  0  0
  7 24  1  0  0  0  0
  8 17  1  0  0  0  0
  8 12  1  0  0  0  0
  9 26  1  0  0  0  0
  9 15  1  0  0  0  0
 11 13  1  0  0  0  0
 12  2  2  0  0  0  0
 13 12  1  0  0  0  0
 13 22  1  0  0  0  0
 14 27  1  0  0  0  0
 14 23  1  0  0  0  0
 16 19  1  0  0  0  0
 17 10  1  6  0  0  0
 17  7  1  0  0  0  0
 18 15  2  0  0  0  0
 20 29  1  6  0  0  0
 20 10  1  0  0  0  0
 20  1  1  0  0  0  0
 21 22  1  0  0  0  0
 22 14  2  0  0  0  0
 23 28  2  0  0  0  0
 27  2  1  6  0  0  0
 27  5  1  0  0  0  0
 28  6  1  0  0  0  0
 28  9  1  0  0  0  0
 30 29  1  0  0  0  0
 30 31  2  0  0  0  0
 32 30  1  0  0  0  0
M  END
>  <MODEL>
5

>  <REMARK>
 VINA RESULT:      -9.2      3.299      7.341
  Name = 
  1 active torsions:
  status: ('A' for Active; 'I' for Inactive)
    1  A    between atoms: C_20  and  N_29
                            x       y       z     vdW  Elec       q    Type
                         _______ _______ _______ _____ _____    ______ ____

>  <TORSDO>
F 1

$$$$
=
 OpenBabel11122410453D

 32 37  0  0  1  0  0  0  0  0999 V2000
  188.8350  177.1990  137.2830 C   0  0  0  0  0  2  0  0  0  0  0  0
  184.7200  178.4270  141.0550 C   0  0  0  0  0  0  0  0  0  0  0  0
  186.0850  178.1750  145.6780 C   0  0  0  0  0  3  0  0  0  0  0  0
  184.7540  178.6280  146.1240 C   0  0  0  0  0  3  0  0  0  0  0  0
  182.2020  178.7930  140.4900 C   0  0  0  0  0  0  0  0  0  0  0  0
  181.1080  179.3770  140.9850 C   0  0  0  0  0  0  0  0  0  0  0  0
  186.2760  177.7710  139.2900 N   0  0  2  0  0  0  0  0  0  0  0  0
  187.1380  178.1440  141.5790 C   0  0  0  0  0  2  0  0  0  0  0  0
  179.6040  180.1200  142.5770 N   0  0  0  0  0  0  0  0  0  0  0  0
  188.7080  177.5560  139.7860 C   0  0  0  0  0  2  0  0  0  0  0  0
  186.3460  177.9940  144.3800 C   0  0  0  0  0  3  0  0  0  0  0  0
  185.6870  178.2830  141.9840 C   0  0  0  0  0  0  0  0  0  0  0  0
  185.3330  178.2240  143.3830 N   0  0  0  0  0  0  0  0  0  0  0  0
  183.0260  178.7330  142.9120 C   0  0  0  0  0  0  0  0  0  0  0  0
  178.9540  180.2320  141.2670 C   0  0  0  0  0  3  0  0  0  0  0  0
  187.3380  176.8800  137.2780 C   0  0  0  0  0  2  0  0  0  0  0  0
  187.4050  178.3010  140.0770 C   0  0  1  0  0  3  0  0  0  0  0  0
  179.9380  179.7620  140.2740 N   0  0  0  0  0  0  0  0  0  0  0  0
  186.5010  178.0070  137.8670 C   0  0  0  0  0  2  0  0  0  0  0  0
  189.3150  178.0320  138.4730 C   0  0  1  0  0  3  0  0  0  0  0  0
  183.7670  178.8280  145.2490 C   0  0  0  0  0  3  0  0  0  0  0  0
  184.0030  178.5850  143.8140 C   0  0  0  0  0  0  0  0  0  0  0  0
  181.7520  179.2830  143.2990 N   0  0  0  0  0  0  0  0  0  0  0  0
  185.1110  178.5870  139.6140 C   0  0  0  0  0  2  0  0  0  0  0  0
  182.2280  178.4050  139.0470 C   0  0  0  0  0  1  0  0  0  0  0  0
  178.9310  180.2610  143.8560 C   0  0  0  0  0  1  0  0  0  0  0  0
  183.2640  178.2850  141.4680 C   0  0  2  0  0  3  0  0  0  0  0  0
  180.8940  179.5840  142.3760 C   0  0  0  0  0  0  0  0  0  0  0  0
  190.7680  177.9710  138.5450 N   0  0  0  0  0  2  0  0  0  0  0  0
  191.4830  176.7380  138.6560 C   0  0  0  0  0  0  0  0  0  0  0  0
  190.8670  175.6410  138.7190 O   0  0  0  0  0  0  0  0  0  0  0  0
  192.9680  176.7530  138.7020 C   0  0  0  0  0  1  0  0  0  0  0  0
  1 20  1  0  0  0  0
  2 27  1  0  0  0  0
  2 12  2  0  0  0  0
  3  4  1  0  0  0  0
  5  6  2  0  0  0  0
  6 28  1  0  0  0  0
  7 19  1  6  0  0  0
  7 24  1  0  0  0  0
  7 17  1  0  0  0  0
  8 12  1  0  0  0  0
  9 26  1  0  0  0  0
 11  3  2  0  0  0  0
 12 13  1  0  0  0  0
 13 22  1  0  0  0  0
 13 11  1  0  0  0  0
 14 23  1  0  0  0  0
 14 22  2  0  0  0  0
 15  9  1  0  0  0  0
 16  1  1  0  0  0  0
 16 19  1  0  0  0  0
 17 10  1  6  0  0  0
 17  8  1  0  0  0  0
 18  6  1  0  0  0  0
 18 15  2  0  0  0  0
 20 29  1  1  0  0  0
 20 10  1  0  0  0  0
 21  4  2  0  0  0  0
 22 21  1  0  0  0  0
 24  2  1  0  0  0  0
 25  5  1  0  0  0  0
 27  5  1  6  0  0  0
 27 14  1  0  0  0  0
 28  9  1  0  0  0  0
 28 23  2  0  0  0  0
 29 30  1  0  0  0  0
 30 32  1  0  0  0  0
 30 31  2  0  0  0  0
M  END
>  <MODEL>
6

>  <REMARK>
 VINA RESULT:      -9.0      2.933      6.075
  Name = 
  1 active torsions:
  status: ('A' for Active; 'I' for Inactive)
    1  A    between atoms: C_20  and  N_29
                            x       y       z     vdW  Elec       q    Type
                         _______ _______ _______ _____ _____    ______ ____

>  <TORSDO>
F 1

$$$$
=
 OpenBabel11122410453D

 32 37  0  0  1  0  0  0  0  0999 V2000
  188.7830  178.0170  147.3880 C   0  0  0  0  0  2  0  0  0  0  0  0
  188.2000  177.7450  141.7090 C   0  0  0  0  0  0  0  0  0  0  0  0
  192.3190  177.0480  139.2920 C   0  0  0  0  0  3  0  0  0  0  0  0
  191.5900  176.9920  138.0110 C   0  0  0  0  0  3  0  0  0  0  0  0
  186.0160  178.2550  140.3800 C   0  0  0  0  0  0  0  0  0  0  0  0
  185.4400  177.9960  139.2040 C   0  0  0  0  0  0  0  0  0  0  0  0
  188.2500  178.0660  144.1300 N   0  0  2  0  0  0  0  0  0  0  0  0
  190.2640  177.1930  142.9880 C   0  0  0  0  0  2  0  0  0  0  0  0
  185.2820  177.5960  136.9320 N   0  0  0  0  0  0  0  0  0  0  0  0
  190.2830  177.4470  145.4300 C   0  0  0  0  0  2  0  0  0  0  0  0
  191.6720  177.2780  140.4380 C   0  0  0  0  0  3  0  0  0  0  0  0
  189.5210  177.4740  141.7000 C   0  0  0  0  0  0  0  0  0  0  0  0
  190.2470  177.4890  140.4530 N   0  0  0  0  0  0  0  0  0  0  0  0
  188.2260  177.7880  139.1770 C   0  0  0  0  0  0  0  0  0  0  0  0
  183.9250  177.8380  137.4350 C   0  0  0  0  0  3  0  0  0  0  0  0
  187.8710  178.7900  146.4320 C   0  0  0  0  0  2  0  0  0  0  0  0
  189.3790  177.1240  144.2400 C   0  0  1  0  0  3  0  0  0  0  0  0
  184.0570  178.0790  138.8840 N   0  0  0  0  0  0  0  0  0  0  0  0
  187.3670  177.9270  145.2840 C   0  0  0  0  0  2  0  0  0  0  0  0
  189.6580  176.9500  146.7270 C   0  0  1  0  0  3  0  0  0  0  0  0
  190.2750  177.2100  137.9580 C   0  0  0  0  0  3  0  0  0  0  0  0
  189.5370  177.5220  139.1960 C   0  0  0  0  0  0  0  0  0  0  0  0
  187.4660  177.6300  137.9640 N   0  0  0  0  0  2  0  0  0  0  0  0
  187.4400  177.6280  142.9990 C   0  0  0  0  0  2  0  0  0  0  0  0
  185.1750  178.7700  141.5030 C   0  0  0  0  0  1  0  0  0  0  0  0
  185.6520  177.5360  135.5290 C   0  0  0  0  0  1  0  0  0  0  0  0
  187.5450  178.2930  140.4510 C   0  0  0  0  0  0  0  0  0  0  0  0
  186.1740  177.7170  138.0180 C   0  0  0  0  0  0  0  0  0  0  0  0
  190.7010  176.5420  147.6570 N   0  0  0  0  0  2  0  0  0  0  0  0
  191.9060  175.9040  147.2320 C   0  0  0  0  0  0  0  0  0  0  0  0
  192.1030  175.6450  146.0150 O   0  0  0  0  0  0  0  0  0  0  0  0
  192.9370  175.5370  148.2380 C   0  0  0  0  0  1  0  0  0  0  0  0
  2 24  1  0  0  0  0
  3 11  2  0  0  0  0
  4  3  1  0  0  0  0
  5 27  2  0  0  0  0
  5 25  1  0  0  0  0
  6  5  1  0  0  0  0
  7 24  1  6  0  0  0
  7 17  1  0  0  0  0
  7 19  1  0  0  0  0
  9 15  1  0  0  0  0
  9 28  1  0  0  0  0
 10 20  1  0  0  0  0
 11 13  1  0  0  0  0
 12  2  2  0  0  0  0
 12  8  1  0  0  0  0
 13 12  1  0  0  0  0
 14 22  2  0  0  0  0
 14 27  1  0  0  0  0
 15 18  2  0  0  0  0
 16  1  1  0  0  0  0
 17  8  1  6  0  0  0
 17 10  1  0  0  0  0
 18  6  1  0  0  0  0
 19 16  1  0  0  0  0
 20  1  1  0  0  0  0
 20 29  1  1  0  0  0
 21  4  2  0  0  0  0
 21 22  1  0  0  0  0
 22 13  1  0  0  0  0
 23 28  1  0  0  0  0
 23 14  1  0  0  0  0
 26  9  1  0  0  0  0
 27  2  1  0  0  0  0
 28  6  2  0  0  0  0
 30 29  1  0  0  0  0
 30 32  1  0  0  0  0
 31 30  2  0  0  0  0
M  END
>  <MODEL>
7

>  <REMARK>
 VINA RESULT:      -8.8      1.834      2.845
  Name = 
  1 active torsions:
  status: ('A' for Active; 'I' for Inactive)
    1  A    between atoms: C_20  and  N_29
                            x       y       z     vdW  Elec       q    Type
                         _______ _______ _______ _____ _____    ______ ____

>  <TORSDO>
F 1

$$$$
=
 OpenBabel11122410453D

 32 37  0  0  1  0  0  0  0  0999 V2000
  191.0790  176.3890  136.9340 C   0  0  0  0  0  2  0  0  0  0  0  0
  188.9780  177.2190  142.1840 C   0  0  0  0  0  0  0  0  0  0  0  0
  191.9730  176.0010  145.7680 C   0  0  0  0  0  3  0  0  0  0  0  0
  191.0010  176.4680  146.7750 C   0  0  0  0  0  3  0  0  0  0  0  0
  186.5220  177.8850  142.7490 C   0  0  0  0  0  0  0  0  0  0  0  0
  185.8050  178.4520  143.7220 C   0  0  0  0  0  0  0  0  0  0  0  0
  189.6130  176.7800  139.8670 N   0  0  2  0  0  0  0  0  0  0  0  0
  191.3390  176.6490  141.6350 C   0  0  0  0  0  2  0  0  0  0  0  0
  185.1630  179.0040  145.8740 N   0  0  0  0  0  0  0  0  0  0  0  0
  191.9860  176.2820  139.2950 C   0  0  0  0  0  2  0  0  0  0  0  0
  191.6810  176.0440  144.4650 C   0  0  0  0  0  3  0  0  0  0  0  0
  190.1960  176.8270  142.6100 C   0  0  0  0  0  0  0  0  0  0  0  0
  190.4070  176.5370  144.0090 N   0  0  0  0  0  0  0  0  0  0  0  0
  188.2010  177.3080  144.5930 C   0  0  0  0  0  0  0  0  0  0  0  0
  184.0810  179.4100  144.9710 C   0  0  0  0  0  3  0  0  0  0  0  0
  189.6670  176.1970  137.4940 C   0  0  0  0  0  2  0  0  0  0  0  0
  191.0240  177.0620  140.1910 C   0  0  1  0  0  3  0  0  0  0  0  0
  184.5220  179.0560  143.6100 N   0  0  0  0  0  0  0  0  0  0  0  0
  189.3020  177.2580  138.5230 C   0  0  0  0  0  2  0  0  0  0  0  0
  192.1010  176.9440  137.9290 C   0  0  1  0  0  3  0  0  0  0  0  0
  189.7940  176.9060  146.4140 C   0  0  0  0  0  3  0  0  0  0  0  0
  189.4170  176.9170  144.9890 C   0  0  0  0  0  0  0  0  0  0  0  0
  187.2730  177.8770  145.5360 N   0  0  0  0  0  0  0  0  0  0  0  0
  188.8000  177.6120  140.7460 C   0  0  0  0  0  2  0  0  0  0  0  0
  185.9290  177.7720  141.3820 C   0  0  0  0  0  1  0  0  0  0  0  0
  185.0660  178.9570  147.3230 C   0  0  0  0  0  1  0  0  0  0  0  0
  187.7920  177.1200  143.1300 C   0  0  2  0  0  3  0  0  0  0  0  0
  186.1790  178.4120  145.0940 C   0  0  0  0  0  0  0  0  0  0  0  0
  193.4420  176.7540  137.3940 N   0  0  0  0  0  2  0  0  0  0  0  0
  193.9270  175.4800  136.9670 C   0  0  0  0  0  0  0  0  0  0  0  0
  193.2050  174.4520  137.0610 O   0  0  0  0  0  0  0  0  0  0  0  0
  195.3000  175.3670  136.4110 C   0  0  0  0  0  1  0  0  0  0  0  0
  1 16  1  0  0  0  0
  1 20  1  0  0  0  0
  2 12  2  0  0  0  0
  3  4  1  0  0  0  0
  5 27  1  0  0  0  0
  5  6  2  0  0  0  0
  6 28  1  0  0  0  0
  7 19  1  6  0  0  0
  7 17  1  0  0  0  0
  7 24  1  0  0  0  0
  8 12  1  0  0  0  0
  9 26  1  0  0  0  0
 11  3  2  0  0  0  0
 12 13  1  0  0  0  0
 13 11  1  0  0  0  0
 13 22  1  0  0  0  0
 14 22  2  0  0  0  0
 14 23  1  0  0  0  0
 15  9  1  0  0  0  0
 16 19  1  0  0  0  0
 17 10  1  6  0  0  0
 17  8  1  0  0  0  0
 18  6  1  0  0  0  0
 18 15  2  0  0  0  0
 20 29  1  6  0  0  0
 20 10  1  0  0  0  0
 21  4  2  0  0  0  0
 22 21  1  0  0  0  0
 24  2  1  0  0  0  0
 25  5  1  0  0  0  0
 27  2  1  6  0  0  0
 27 14  1  0  0  0  0
 28 23  2  0  0  0  0
 28  9  1  0  0  0  0
 30 31  2  0  0  0  0
 30 29  1  0  0  0  0
 32 30  1  0  0  0  0
M  END
>  <MODEL>
8

>  <REMARK>
 VINA RESULT:      -8.6      3.221      7.196
  Name = 
  1 active torsions:
  status: ('A' for Active; 'I' for Inactive)
    1  A    between atoms: C_20  and  N_29
                            x       y       z     vdW  Elec       q    Type
                         _______ _______ _______ _____ _____    ______ ____

>  <TORSDO>
F 1

$$$$
