=
 OpenBabel11122411353D

 37 42  0  0  1  0  0  0  0  0999 V2000
  187.2520  177.9760  143.4110 C   0  0  1  0  0  0  0  0  0  0  0  0
  183.3310  178.7920  142.3870 C   0  0  0  0  0  0  0  0  0  0  0  0
  182.1230  176.7470  139.8740 C   0  0  0  0  0  2  0  0  0  0  0  0
  184.9380  178.7410  144.1700 C   0  0  0  0  0  0  0  0  0  0  0  0
  183.3930  178.5870  141.0310 C   0  0  0  0  0  0  0  0  0  0  0  0
  184.6040  178.7880  142.8370 C   0  0  0  0  0  0  0  0  0  0  0  0
  182.2540  178.1490  140.2690 N   0  0  0  0  0  0  0  0  0  0  0  0
  183.8800  178.7620  145.1030 C   0  0  0  0  0  3  0  0  0  0  0  0
  185.4330  178.6100  141.7820 C   0  0  0  0  0  0  0  0  0  0  0  0
  187.0410  176.4730  143.4820 C   0  0  0  0  0  1  0  0  0  0  0  0
  180.9200  178.9560  142.7530 N   0  0  0  0  0  2  0  0  0  0  0  0
  182.5320  178.8070  144.6440 C   0  0  0  0  0  3  0  0  0  0  0  0
  186.9160  178.4650  141.9720 C   0  0  0  0  0  2  0  0  0  0  0  0
  183.5380  177.1830  137.7980 C   0  0  1  0  0  3  0  0  0  0  0  0
  183.2640  176.2600  138.9870 C   0  0  0  0  0  2  0  0  0  0  0  0
  182.2510  178.8220  143.2570 C   0  0  0  0  0  0  0  0  0  0  0  0
  184.7040  178.4930  140.6430 N   0  0  0  0  0  0  0  0  0  0  0  0
  186.4010  178.6600  144.5250 C   0  0  0  0  0  2  0  0  0  0  0  0
  181.0080  178.9220  140.2320 C   0  0  1  0  0  3  0  0  0  0  0  0
  188.5970  178.2390  143.6620 O   0  0  0  0  0  1  0  0  0  0  0  0
  184.2500  178.4820  138.1970 C   0  0  0  0  0  2  0  0  0  0  0  0
  185.2750  178.2720  139.3110 C   0  0  0  0  0  2  0  0  0  0  0  0
  180.6650  179.7000  141.5190 C   0  0  0  0  0  2  0  0  0  0  0  0
  181.2440  181.1860  139.2010 C   0  0  0  0  0  3  0  0  0  0  0  0
  180.9900  179.8200  139.0370 C   0  0  0  0  0  0  0  0  0  0  0  0
  180.6760  179.3200  137.7650 C   0  0  0  0  0  3  0  0  0  0  0  0
  180.2950  179.6470  135.3190 C   0  0  0  0  0  1  0  0  0  0  0  0
  180.8870  181.5440  136.8330 C   0  0  0  0  0  3  0  0  0  0  0  0
  180.6280  180.1800  136.6640 C   0  0  0  0  0  0  0  0  0  0  0  0
  181.1950  182.0470  138.1010 C   0  0  0  0  0  3  0  0  0  0  0  0
  184.3160  176.4620  136.7480 C   0  0  0  0  0  0  0  0  0  0  0  0
  184.1720  175.0460  136.6260 N   0  0  0  0  0  2  0  0  0  0  0  0
  185.0830  177.0950  135.9730 O   0  0  0  0  0  0  0  0  0  0  0  0
  183.9570  173.7560  134.6860 O   0  0  0  0  0  1  0  0  0  0  0  0
  184.8700  174.2710  135.6090 C   0  0  2  0  0  3  0  0  0  0  0  0
  185.2680  172.9240  137.7040 C   0  0  0  0  0  1  0  0  0  0  0  0
  185.6680  173.1430  136.2540 C   0  0  0  0  0  2  0  0  0  0  0  0
  1 10  1  1  0  0  0
  1 20  1  0  0  0  0
  1 18  1  0  0  0  0
  2  6  1  0  0  0  0
  2 16  1  0  0  0  0
  3  7  1  0  0  0  0
  4 18  1  0  0  0  0
  4  8  2  0  0  0  0
  5  2  2  0  0  0  0
  6  4  1  0  0  0  0
  7  5  1  0  0  0  0
  9 13  1  0  0  0  0
  9  6  2  0  0  0  0
 11 16  1  0  0  0  0
 12  8  1  0  0  0  0
 13  1  1  0  0  0  0
 14 31  1  6  0  0  0
 14 21  1  0  0  0  0
 14 15  1  0  0  0  0
 15  3  1  0  0  0  0
 16 12  2  0  0  0  0
 17  5  1  0  0  0  0
 17  9  1  0  0  0  0
 19 25  1  6  0  0  0
 19  7  1  0  0  0  0
 19 23  1  0  0  0  0
 21 22  1  0  0  0  0
 22 17  1  0  0  0  0
 23 11  1  0  0  0  0
 25 24  1  0  0  0  0
 26 25  2  0  0  0  0
 27 29  1  0  0  0  0
 28 30  1  0  0  0  0
 29 28  2  0  0  0  0
 29 26  1  0  0  0  0
 30 24  2  0  0  0  0
 32 31  1  0  0  0  0
 33 31  2  0  0  0  0
 35 34  1  6  0  0  0
 35 37  1  0  0  0  0
 35 32  1  0  0  0  0
 37 36  1  0  0  0  0
M  END
>  <MODEL>
1

>  <REMARK>
 VINA RESULT:      -7.6      0.000      0.000
  Name = 
  4 active torsions:
  status: ('A' for Active; 'I' for Inactive)
    1  A    between atoms: C_4  and  N_12
    2  A    between atoms: C_4  and  C_37
    3  A    between atoms: C_8  and  C_18
    4  A    between atoms: C_23  and  C_30
                            x       y       z     vdW  Elec       q    Type
                         _______ _______ _______ _____ _____    ______ ____

>  <TORSDO>
F 4

$$$$
=
 OpenBabel11122411353D

 37 42  0  0  1  0  0  0  0  0999 V2000
  180.0700  182.4180  137.9640 C   0  0  1  0  0  0  0  0  0  0  0  0
  181.3200  178.6270  136.8910 C   0  0  0  0  0  0  0  0  0  0  0  0
  182.5270  176.7830  139.5570 C   0  0  0  0  0  2  0  0  0  0  0  0
  179.7490  180.3880  136.4510 C   0  0  0  0  0  0  0  0  0  0  0  0
  182.4110  178.4950  137.7150 C   0  0  0  0  0  0  0  0  0  0  0  0
  180.9370  179.9190  136.9610 C   0  0  0  0  0  0  0  0  0  0  0  0
  182.8560  177.2160  138.1990 N   0  0  0  0  0  0  0  0  0  0  0  0
  178.9310  179.4640  135.7670 C   0  0  0  0  0  3  0  0  0  0  0  0
  181.7840  180.5760  137.7880 C   0  0  0  0  0  0  0  0  0  0  0  0
  179.2830  181.9410  139.1730 C   0  0  0  0  0  1  0  0  0  0  0  0
  181.0530  176.3450  136.0560 N   0  0  0  0  0  2  0  0  0  0  0  0
  179.3410  178.1060  135.6500 C   0  0  0  0  0  3  0  0  0  0  0  0
  181.5630  182.0180  138.1460 C   0  0  0  0  0  2  0  0  0  0  0  0
  184.5710  178.0090  140.4610 C   0  0  1  0  0  3  0  0  0  0  0  0
  183.0820  177.7050  140.6360 C   0  0  0  0  0  2  0  0  0  0  0  0
  180.5610  177.6770  136.2250 C   0  0  0  0  0  0  0  0  0  0  0  0
  182.7190  179.7140  138.2620 N   0  0  0  0  0  0  0  0  0  0  0  0
  179.4140  181.8410  136.6720 C   0  0  0  0  0  2  0  0  0  0  0  0
  183.2480  176.1400  137.2830 C   0  0  1  0  0  3  0  0  0  0  0  0
  179.9910  183.8090  137.9140 O   0  0  0  0  0  1  0  0  0  0  0  0
  184.8530  178.9910  139.3170 C   0  0  0  0  0  2  0  0  0  0  0  0
  183.7860  180.0790  139.1990 C   0  0  0  0  0  2  0  0  0  0  0  0
  182.4910  176.0950  135.9400 C   0  0  0  0  0  2  0  0  0  0  0  0
  185.4480  174.9590  137.1760 C   0  0  0  0  0  3  0  0  0  0  0  0
  184.7280  176.1530  137.0690 C   0  0  0  0  0  0  0  0  0  0  0  0
  185.4070  177.3530  136.8080 C   0  0  0  0  0  3  0  0  0  0  0  0
  187.5110  178.6240  136.3720 C   0  0  0  0  0  1  0  0  0  0  0  0
  187.5100  176.1550  136.7500 C   0  0  0  0  0  3  0  0  0  0  0  0
  186.7950  177.3520  136.6470 C   0  0  0  0  0  0  0  0  0  0  0  0
  186.8360  174.9580  137.0140 C   0  0  0  0  0  3  0  0  0  0  0  0
  185.1520  178.5160  141.7400 C   0  0  0  0  0  0  0  0  0  0  0  0
  184.4980  178.2060  142.9710 N   0  0  0  0  0  2  0  0  0  0  0  0
  186.2110  179.2000  141.7330 O   0  0  0  0  0  0  0  0  0  0  0  0
  185.8530  177.6510  144.7950 O   0  0  0  0  0  1  0  0  0  0  0  0
  185.0160  178.6340  144.2640 C   0  0  2  0  0  3  0  0  0  0  0  0
  182.5140  178.7420  144.5640 C   0  0  0  0  0  1  0  0  0  0  0  0
  183.8700  178.9320  145.2240 C   0  0  0  0  0  2  0  0  0  0  0  0
  1 13  1  0  0  0  0
  1 10  1  1  0  0  0
  2  6  1  0  0  0  0
  2  5  2  0  0  0  0
  3 15  1  0  0  0  0
  4 18  1  0  0  0  0
  4  6  1  0  0  0  0
  5  7  1  0  0  0  0
  5 17  1  0  0  0  0
  6  9  2  0  0  0  0
  7  3  1  0  0  0  0
  8  4  2  0  0  0  0
  9 13  1  0  0  0  0
  9 17  1  0  0  0  0
 11 16  1  0  0  0  0
 12  8  1  0  0  0  0
 12 16  2  0  0  0  0
 14 15  1  0  0  0  0
 14 31  1  1  0  0  0
 16  2  1  0  0  0  0
 17 22  1  0  0  0  0
 18  1  1  0  0  0  0
 19 25  1  6  0  0  0
 19  7  1  0  0  0  0
 20  1  1  0  0  0  0
 21 14  1  0  0  0  0
 22 21  1  0  0  0  0
 23 11  1  0  0  0  0
 23 19  1  0  0  0  0
 25 24  1  0  0  0  0
 26 25  2  0  0  0  0
 27 29  1  0  0  0  0
 28 30  1  0  0  0  0
 29 28  2  0  0  0  0
 29 26  1  0  0  0  0
 30 24  2  0  0  0  0
 31 32  1  0  0  0  0
 32 35  1  0  0  0  0
 33 31  2  0  0  0  0
 35 34  1  1  0  0  0
 35 37  1  0  0  0  0
 36 37  1  0  0  0  0
M  END
>  <MODEL>
2

>  <REMARK>
 VINA RESULT:      -6.3      2.545      7.485
  Name = 
  4 active torsions:
  status: ('A' for Active; 'I' for Inactive)
    1  A    between atoms: C_4  and  N_12
    2  A    between atoms: C_4  and  C_37
    3  A    between atoms: C_8  and  C_18
    4  A    between atoms: C_23  and  C_30
                            x       y       z     vdW  Elec       q    Type
                         _______ _______ _______ _____ _____    ______ ____

>  <TORSDO>
F 4

$$$$
=
 OpenBabel11122411353D

 37 42  0  0  1  0  0  0  0  0999 V2000
  184.9200  178.9860  144.0610 C   0  0  1  0  0  0  0  0  0  0  0  0
  181.6060  178.5410  141.6310 C   0  0  0  0  0  0  0  0  0  0  0  0
  182.1160  176.3340  139.0180 C   0  0  0  0  0  2  0  0  0  0  0  0
  182.3750  178.9280  143.8720 C   0  0  0  0  0  0  0  0  0  0  0  0
  182.2220  178.4290  140.4090 C   0  0  0  0  0  0  0  0  0  0  0  0
  182.5560  178.9260  142.5090 C   0  0  0  0  0  0  0  0  0  0  0  0
  181.6430  177.6830  139.3240 N   0  0  0  0  0  0  0  0  0  0  0  0
  181.1010  178.5630  144.3550 C   0  0  0  0  0  3  0  0  0  0  0  0
  183.7250  179.0740  141.8420 C   0  0  0  0  0  0  0  0  0  0  0  0
  185.1850  177.4930  144.1680 C   0  0  0  0  0  1  0  0  0  0  0  0
  179.3100  177.9020  141.0880 N   0  0  0  0  0  2  0  0  0  0  0  0
  180.0760  178.1940  143.4380 C   0  0  0  0  0  3  0  0  0  0  0  0
  184.9990  179.4060  142.5650 C   0  0  0  0  0  2  0  0  0  0  0  0
  183.9770  177.2980  137.5660 C   0  0  1  0  0  3  0  0  0  0  0  0
  183.5930  176.2820  138.6440 C   0  0  0  0  0  2  0  0  0  0  0  0
  180.3330  178.1810  142.0470 C   0  0  0  0  0  0  0  0  0  0  0  0
  183.5420  178.7810  140.5290 N   0  0  0  0  0  0  0  0  0  0  0  0
  183.5510  179.3070  144.7360 C   0  0  0  0  0  2  0  0  0  0  0  0
  180.3220  178.0150  138.7790 C   0  0  1  0  0  3  0  0  0  0  0  0
  185.9220  179.6560  144.7600 O   0  0  0  0  0  1  0  0  0  0  0  0
  184.0430  178.7370  138.0930 C   0  0  0  0  0  2  0  0  0  0  0  0
  184.5990  178.8170  139.5150 C   0  0  0  0  0  2  0  0  0  0  0  0
  179.3040  178.5810  139.7910 C   0  0  0  0  0  2  0  0  0  0  0  0
  180.5880  178.3520  136.3180 C   0  0  0  0  0  3  0  0  0  0  0  0
  180.4600  178.9140  137.5920 C   0  0  0  0  0  0  0  0  0  0  0  0
  180.5090  180.3070  137.7460 C   0  0  0  0  0  3  0  0  0  0  0  0
  180.7280  182.6050  136.7950 C   0  0  0  0  0  1  0  0  0  0  0  0
  180.7990  180.5650  135.3560 C   0  0  0  0  0  3  0  0  0  0  0  0
  180.6760  181.1310  136.6290 C   0  0  0  0  0  0  0  0  0  0  0  0
  180.7550  179.1760  135.2000 C   0  0  0  0  0  3  0  0  0  0  0  0
  185.2710  176.9150  136.9270 C   0  0  0  0  0  0  0  0  0  0  0  0
  186.4950  177.3080  137.5480 N   0  0  0  0  0  2  0  0  0  0  0  0
  185.2820  176.2470  135.8580 O   0  0  0  0  0  0  0  0  0  0  0  0
  188.5120  176.1890  137.9380 O   0  0  0  0  0  1  0  0  0  0  0  0
  187.8000  176.9490  137.0070 C   0  0  2  0  0  3  0  0  0  0  0  0
  189.0470  178.9690  137.8610 C   0  0  0  0  0  1  0  0  0  0  0  0
  188.5840  178.2020  136.6320 C   0  0  0  0  0  2  0  0  0  0  0  0
  1 10  1  1  0  0  0
  1 18  1  0  0  0  0
  1 20  1  0  0  0  0
  2 16  1  0  0  0  0
  2  6  1  0  0  0  0
  3  7  1  0  0  0  0
  4  8  2  0  0  0  0
  4 18  1  0  0  0  0
  5 17  1  0  0  0  0
  5  2  2  0  0  0  0
  6  4  1  0  0  0  0
  7  5  1  0  0  0  0
  9  6  2  0  0  0  0
  9 13  1  0  0  0  0
 11 16  1  0  0  0  0
 12  8  1  0  0  0  0
 13  1  1  0  0  0  0
 14 31  1  1  0  0  0
 14 21  1  0  0  0  0
 14 15  1  0  0  0  0
 15  3  1  0  0  0  0
 16 12  2  0  0  0  0
 17  9  1  0  0  0  0
 19 25  1  6  0  0  0
 19  7  1  0  0  0  0
 19 23  1  0  0  0  0
 21 22  1  0  0  0  0
 22 17  1  0  0  0  0
 23 11  1  0  0  0  0
 24 25  1  0  0  0  0
 25 26  2  0  0  0  0
 28 29  2  0  0  0  0
 29 27  1  0  0  0  0
 29 26  1  0  0  0  0
 30 28  1  0  0  0  0
 30 24  2  0  0  0  0
 31 32  1  0  0  0  0
 33 31  2  0  0  0  0
 35 32  1  0  0  0  0
 35 34  1  1  0  0  0
 37 35  1  0  0  0  0
 37 36  1  0  0  0  0
M  END
>  <MODEL>
3

>  <REMARK>
 VINA RESULT:      -6.1      1.879      2.869
  Name = 
  4 active torsions:
  status: ('A' for Active; 'I' for Inactive)
    1  A    between atoms: C_4  and  N_12
    2  A    between atoms: C_4  and  C_37
    3  A    between atoms: C_8  and  C_18
    4  A    between atoms: C_23  and  C_30
                            x       y       z     vdW  Elec       q    Type
                         _______ _______ _______ _____ _____    ______ ____

>  <TORSDO>
F 4

$$$$
=
 OpenBabel11122411353D

 37 42  0  0  1  0  0  0  0  0999 V2000
  183.6460  172.2530  136.3510 C   0  0  1  0  0  0  0  0  0  0  0  0
  185.6860  175.8000  136.9370 C   0  0  0  0  0  0  0  0  0  0  0  0
  188.5970  176.0210  135.0840 C   0  0  0  0  0  2  0  0  0  0  0  0
  183.5260  174.7570  136.8280 C   0  0  0  0  0  0  0  0  0  0  0  0
  186.9790  175.3400  136.8870 C   0  0  0  0  0  0  0  0  0  0  0  0
  184.8910  174.7110  136.9920 C   0  0  0  0  0  0  0  0  0  0  0  0
  188.0700  176.1650  136.4400 N   0  0  0  0  0  0  0  0  0  0  0  0
  182.9400  176.0290  136.6560 C   0  0  0  0  0  3  0  0  0  0  0  0
  185.6720  173.6050  137.0010 C   0  0  0  0  0  0  0  0  0  0  0  0
  183.7600  172.3040  134.8370 C   0  0  0  0  0  1  0  0  0  0  0  0
  186.0190  178.2200  136.8540 N   0  0  0  0  0  2  0  0  0  0  0  0
  183.7620  177.1910  136.6370 C   0  0  0  0  0  3  0  0  0  0  0  0
  185.0760  172.2280  136.9640 C   0  0  0  0  0  2  0  0  0  0  0  0
  190.1350  174.1430  135.8630 C   0  0  1  0  0  3  0  0  0  0  0  0
  189.1540  174.6310  134.7960 C   0  0  0  0  0  2  0  0  0  0  0  0
  185.1650  177.0750  136.7790 C   0  0  0  0  0  0  0  0  0  0  0  0
  186.9790  173.9700  136.9480 N   0  0  0  0  0  0  0  0  0  0  0  0
  182.7720  173.4520  136.8340 C   0  0  0  0  0  2  0  0  0  0  0  0
  188.4020  177.4290  137.1040 C   0  0  1  0  0  3  0  0  0  0  0  0
  182.9970  171.0690  136.6980 O   0  0  0  0  0  1  0  0  0  0  0  0
  189.4440  173.7220  137.1660 C   0  0  0  0  0  2  0  0  0  0  0  0
  188.1030  173.0300  136.9240 C   0  0  0  0  0  2  0  0  0  0  0  0
  187.2100  178.2030  137.7040 C   0  0  0  0  0  2  0  0  0  0  0  0
  189.1720  177.3660  139.4800 C   0  0  0  0  0  3  0  0  0  0  0  0
  189.4750  177.2150  138.1220 C   0  0  0  0  0  0  0  0  0  0  0  0
  190.7880  176.9130  137.7320 C   0  0  0  0  0  3  0  0  0  0  0  0
  193.1760  176.4330  138.2810 C   0  0  0  0  0  1  0  0  0  0  0  0
  191.4780  176.8990  140.0530 C   0  0  0  0  0  3  0  0  0  0  0  0
  191.7870  176.7520  138.6970 C   0  0  0  0  0  0  0  0  0  0  0  0
  190.1710  177.2050  140.4450 C   0  0  0  0  0  3  0  0  0  0  0  0
  190.9720  173.0270  135.3300 C   0  0  0  0  0  0  0  0  0  0  0  0
  192.3710  173.0090  135.6170 N   0  0  0  0  0  2  0  0  0  0  0  0
  190.4490  172.1080  134.6430 O   0  0  0  0  0  0  0  0  0  0  0  0
  193.2520  170.8930  136.0850 O   0  0  0  0  0  1  0  0  0  0  0  0
  193.2510  171.9420  135.1620 C   0  0  2  0  0  3  0  0  0  0  0  0
  194.9700  173.6470  135.8710 C   0  0  0  0  0  1  0  0  0  0  0  0
  194.6670  172.4700  134.9570 C   0  0  0  0  0  2  0  0  0  0  0  0
  1 10  1  6  0  0  0
  1 20  1  0  0  0  0
  1 18  1  0  0  0  0
  1 13  1  0  0  0  0
  2  6  1  0  0  0  0
  3  7  1  0  0  0  0
  4 18  1  0  0  0  0
  4  6  1  0  0  0  0
  5  2  2  0  0  0  0
  5 17  1  0  0  0  0
  6  9  2  0  0  0  0
  7  5  1  0  0  0  0
  7 19  1  0  0  0  0
  8  4  2  0  0  0  0
 11 23  1  0  0  0  0
 12  8  1  0  0  0  0
 12 16  2  0  0  0  0
 13  9  1  0  0  0  0
 14 31  1  6  0  0  0
 14 21  1  0  0  0  0
 15  3  1  0  0  0  0
 15 14  1  0  0  0  0
 16 11  1  0  0  0  0
 16  2  1  0  0  0  0
 17  9  1  0  0  0  0
 19 23  1  0  0  0  0
 19 25  1  1  0  0  0
 22 17  1  0  0  0  0
 22 21  1  0  0  0  0
 24 30  1  0  0  0  0
 25 24  2  0  0  0  0
 26 25  1  0  0  0  0
 26 29  2  0  0  0  0
 27 29  1  0  0  0  0
 28 30  2  0  0  0  0
 29 28  1  0  0  0  0
 31 32  1  0  0  0  0
 33 31  2  0  0  0  0
 35 32  1  0  0  0  0
 35 34  1  1  0  0  0
 37 35  1  0  0  0  0
 37 36  1  0  0  0  0
M  END
>  <MODEL>
4

>  <REMARK>
 VINA RESULT:      -5.6      5.099      8.830
  Name = 
  4 active torsions:
  status: ('A' for Active; 'I' for Inactive)
    1  A    between atoms: C_4  and  N_12
    2  A    between atoms: C_4  and  C_37
    3  A    between atoms: C_8  and  C_18
    4  A    between atoms: C_23  and  C_30
                            x       y       z     vdW  Elec       q    Type
                         _______ _______ _______ _____ _____    ______ ____

>  <TORSDO>
F 4

$$$$
=
 OpenBabel11122411353D

 37 42  0  0  1  0  0  0  0  0999 V2000
  183.8380  176.0390  135.5720 C   0  0  1  0  0  0  0  0  0  0  0  0
  185.3740  177.9630  138.8920 C   0  0  0  0  0  0  0  0  0  0  0  0
  188.6230  179.0610  138.4510 C   0  0  0  0  0  2  0  0  0  0  0  0
  183.4000  177.5310  137.5960 C   0  0  0  0  0  0  0  0  0  0  0  0
  186.6730  177.5200  138.8430 C   0  0  0  0  0  0  0  0  0  0  0  0
  184.6810  177.2310  137.9950 C   0  0  0  0  0  0  0  0  0  0  0  0
  187.7680  178.2970  139.3580 N   0  0  0  0  0  0  0  0  0  0  0  0
  182.7720  178.6320  138.2160 C   0  0  0  0  0  3  0  0  0  0  0  0
  185.5240  176.3400  137.4220 C   0  0  0  0  0  0  0  0  0  0  0  0
  184.3170  177.0990  134.5940 C   0  0  0  0  0  1  0  0  0  0  0  0
  185.5170  179.7270  140.5780 N   0  0  0  0  0  2  0  0  0  0  0  0
  183.4760  179.3900  139.1950 C   0  0  0  0  0  3  0  0  0  0  0  0
  185.0700  175.4400  136.3090 C   0  0  0  0  0  2  0  0  0  0  0  0
  190.0710  177.0010  138.0520 C   0  0  1  0  0  3  0  0  0  0  0  0
  189.3460  178.1940  137.4260 C   0  0  0  0  0  2  0  0  0  0  0  0
  184.8050  179.0500  139.5400 C   0  0  0  0  0  0  0  0  0  0  0  0
  186.7690  176.4910  137.9420 N   0  0  0  0  0  0  0  0  0  0  0  0
  182.7770  176.6720  136.5250 C   0  0  0  0  0  2  0  0  0  0  0  0
  187.8220  178.7170  140.7620 C   0  0  1  0  0  3  0  0  0  0  0  0
  183.2230  175.0220  134.8440 O   0  0  0  0  0  1  0  0  0  0  0  0
  189.1170  175.8840  138.4960 C   0  0  0  0  0  2  0  0  0  0  0  0
  187.9380  175.7030  137.5400 C   0  0  0  0  0  2  0  0  0  0  0  0
  186.4600  178.9980  141.4290 C   0  0  0  0  0  2  0  0  0  0  0  0
  187.9710  176.8780  142.4470 C   0  0  0  0  0  3  0  0  0  0  0  0
  188.6250  177.7440  141.5650 C   0  0  0  0  0  0  0  0  0  0  0  0
  190.0250  177.7230  141.4790 C   0  0  0  0  0  3  0  0  0  0  0  0
  192.2450  176.8130  142.1710 C   0  0  0  0  0  1  0  0  0  0  0  0
  190.1040  175.9640  143.1410 C   0  0  0  0  0  3  0  0  0  0  0  0
  190.7630  176.8320  142.2640 C   0  0  0  0  0  0  0  0  0  0  0  0
  188.7090  175.9870  143.2320 C   0  0  0  0  0  3  0  0  0  0  0  0
  191.1010  176.4660  137.1130 C   0  0  0  0  0  0  0  0  0  0  0  0
  192.2150  175.7460  137.6410 N   0  0  0  0  0  2  0  0  0  0  0  0
  190.9840  176.6410  135.8700 O   0  0  0  0  0  0  0  0  0  0  0  0
  192.8130  173.9430  136.2760 O   0  0  0  0  0  1  0  0  0  0  0  0
  193.2480  175.1660  136.7930 C   0  0  2  0  0  3  0  0  0  0  0  0
  195.1270  173.5910  137.3860 C   0  0  0  0  0  1  0  0  0  0  0  0
  194.5410  174.9810  137.5790 C   0  0  0  0  0  2  0  0  0  0  0  0
  1 10  1  6  0  0  0
  1 13  1  0  0  0  0
  1 18  1  0  0  0  0
  2 16  1  0  0  0  0
  3  7  1  0  0  0  0
  4  6  1  0  0  0  0
  4  8  2  0  0  0  0
  5  2  2  0  0  0  0
  5  7  1  0  0  0  0
  6  2  1  0  0  0  0
  7 19  1  0  0  0  0
  8 12  1  0  0  0  0
  9 17  1  0  0  0  0
  9  6  2  0  0  0  0
 11 23  1  0  0  0  0
 12 16  2  0  0  0  0
 13  9  1  0  0  0  0
 14 31  1  6  0  0  0
 14 21  1  0  0  0  0
 15 14  1  0  0  0  0
 15  3  1  0  0  0  0
 16 11  1  0  0  0  0
 17  5  1  0  0  0  0
 18  4  1  0  0  0  0
 19 23  1  0  0  0  0
 19 25  1  1  0  0  0
 20  1  1  0  0  0  0
 22 17  1  0  0  0  0
 22 21  1  0  0  0  0
 24 30  1  0  0  0  0
 25 24  2  0  0  0  0
 26 25  1  0  0  0  0
 26 29  2  0  0  0  0
 27 29  1  0  0  0  0
 28 30  2  0  0  0  0
 29 28  1  0  0  0  0
 31 32  1  0  0  0  0
 33 31  2  0  0  0  0
 35 34  1  1  0  0  0
 35 37  1  0  0  0  0
 35 32  1  0  0  0  0
 36 37  1  0  0  0  0
M  END
>  <MODEL>
5

>  <REMARK>
 VINA RESULT:      -5.6      4.244      7.922
  Name = 
  4 active torsions:
  status: ('A' for Active; 'I' for Inactive)
    1  A    between atoms: C_4  and  N_12
    2  A    between atoms: C_4  and  C_37
    3  A    between atoms: C_8  and  C_18
    4  A    between atoms: C_23  and  C_30
                            x       y       z     vdW  Elec       q    Type
                         _______ _______ _______ _____ _____    ______ ____

>  <TORSDO>
F 4

$$$$
=
 OpenBabel11122411353D

 37 42  0  0  1  0  0  0  0  0999 V2000
  184.8330  178.8440  144.6720 C   0  0  1  0  0  0  0  0  0  0  0  0
  186.2560  178.1340  140.8560 C   0  0  0  0  0  0  0  0  0  0  0  0
  184.6670  180.0230  138.4350 C   0  0  0  0  0  2  0  0  0  0  0  0
  186.8230  178.2540  143.1860 C   0  0  0  0  0  0  0  0  0  0  0  0
  185.0840  178.2260  140.1460 C   0  0  0  0  0  0  0  0  0  0  0  0
  185.9160  178.1150  142.1620 C   0  0  0  0  0  0  0  0  0  0  0  0
  185.0510  178.6540  138.7730 N   0  0  0  0  0  0  0  0  0  0  0  0
  188.1850  178.3600  142.8320 C   0  0  0  0  0  3  0  0  0  0  0  0
  184.5660  178.1670  142.2570 C   0  0  0  0  0  0  0  0  0  0  0  0
  184.8680  180.3560  144.5280 C   0  0  0  0  0  1  0  0  0  0  0  0
  187.9200  178.1160  139.0660 N   0  0  0  0  0  2  0  0  0  0  0  0
  188.5630  178.3410  141.4600 C   0  0  0  0  0  3  0  0  0  0  0  0
  183.8810  178.2560  143.5910 C   0  0  0  0  0  2  0  0  0  0  0  0
  182.2070  179.3530  138.4450 C   0  0  1  0  0  3  0  0  0  0  0  0
  183.2530  180.3820  138.8790 C   0  0  0  0  0  2  0  0  0  0  0  0
  187.5790  178.2270  140.4500 C   0  0  0  0  0  0  0  0  0  0  0  0
  184.0230  178.2250  141.0140 N   0  0  0  0  0  0  0  0  0  0  0  0
  186.2910  178.2940  144.5960 C   0  0  0  0  0  2  0  0  0  0  0  0
  185.7890  177.9400  137.7260 C   0  0  1  0  0  3  0  0  0  0  0  0
  184.3130  178.5390  145.9290 O   0  0  0  0  0  1  0  0  0  0  0  0
  182.2610  178.0590  139.2670 C   0  0  0  0  0  2  0  0  0  0  0  0
  182.5860  178.3100  140.7390 C   0  0  0  0  0  2  0  0  0  0  0  0
  187.1140  177.2860  138.1680 C   0  0  0  0  0  2  0  0  0  0  0  0
  184.0400  177.3820  136.0310 C   0  0  0  0  0  3  0  0  0  0  0  0
  184.8990  176.9490  137.0470 C   0  0  0  0  0  0  0  0  0  0  0  0
  184.8810  175.6050  137.4460 C   0  0  0  0  0  3  0  0  0  0  0  0
  183.9980  173.2770  137.2510 C   0  0  0  0  0  1  0  0  0  0  0  0
  183.1620  175.1360  135.8060 C   0  0  0  0  0  3  0  0  0  0  0  0
  184.0150  174.7000  136.8250 C   0  0  0  0  0  0  0  0  0  0  0  0
  183.1750  176.4770  135.4090 C   0  0  0  0  0  3  0  0  0  0  0  0
  180.8390  179.9490  138.4970 C   0  0  0  0  0  0  0  0  0  0  0  0
  180.5850  181.0290  139.3950 N   0  0  0  0  0  2  0  0  0  0  0  0
  179.9230  179.5100  137.7500 O   0  0  0  0  0  0  0  0  0  0  0  0
  179.3000  182.8740  138.7490 O   0  0  0  0  0  1  0  0  0  0  0  0
  179.2880  181.6870  139.4850 C   0  0  2  0  0  3  0  0  0  0  0  0
  179.2240  180.7720  141.8350 C   0  0  0  0  0  1  0  0  0  0  0  0
  178.9330  181.9670  140.9410 C   0  0  0  0  0  2  0  0  0  0  0  0
  1 10  1  6  0  0  0
  1 20  1  0  0  0  0
  2  6  1  0  0  0  0
  3  7  1  0  0  0  0
  3 15  1  0  0  0  0
  4 18  1  0  0  0  0
  5  2  2  0  0  0  0
  5 17  1  0  0  0  0
  6  9  2  0  0  0  0
  6  4  1  0  0  0  0
  7  5  1  0  0  0  0
  8  4  2  0  0  0  0
  9 13  1  0  0  0  0
 11 16  1  0  0  0  0
 12  8  1  0  0  0  0
 13  1  1  0  0  0  0
 14 31  1  1  0  0  0
 14 15  1  0  0  0  0
 14 21  1  0  0  0  0
 16  2  1  0  0  0  0
 16 12  2  0  0  0  0
 17  9  1  0  0  0  0
 18  1  1  0  0  0  0
 19 25  1  1  0  0  0
 19 23  1  0  0  0  0
 19  7  1  0  0  0  0
 21 22  1  0  0  0  0
 22 17  1  0  0  0  0
 23 11  1  0  0  0  0
 24 25  1  0  0  0  0
 25 26  2  0  0  0  0
 28 29  2  0  0  0  0
 29 27  1  0  0  0  0
 29 26  1  0  0  0  0
 30 28  1  0  0  0  0
 30 24  2  0  0  0  0
 31 32  1  0  0  0  0
 32 35  1  0  0  0  0
 33 31  2  0  0  0  0
 35 34  1  6  0  0  0
 35 37  1  0  0  0  0
 37 36  1  0  0  0  0
M  END
>  <MODEL>
6

>  <REMARK>
 VINA RESULT:      -5.4      2.497      5.925
  Name = 
  4 active torsions:
  status: ('A' for Active; 'I' for Inactive)
    1  A    between atoms: C_4  and  N_12
    2  A    between atoms: C_4  and  C_37
    3  A    between atoms: C_8  and  C_18
    4  A    between atoms: C_23  and  C_30
                            x       y       z     vdW  Elec       q    Type
                         _______ _______ _______ _____ _____    ______ ____

>  <TORSDO>
F 4

$$$$
=
 OpenBabel11122411353D

 37 42  0  0  1  0  0  0  0  0999 V2000
  182.7830  172.1560  136.4790 C   0  0  1  0  0  0  0  0  0  0  0  0
  183.7530  176.0310  137.5440 C   0  0  0  0  0  0  0  0  0  0  0  0
  186.4130  177.3150  135.7450 C   0  0  0  0  0  2  0  0  0  0  0  0
  181.9750  174.4380  137.2900 C   0  0  0  0  0  0  0  0  0  0  0  0
  185.1210  175.9710  137.4360 C   0  0  0  0  0  0  0  0  0  0  0  0
  183.3020  174.7620  137.4490 C   0  0  0  0  0  0  0  0  0  0  0  0
  185.9150  177.1240  137.1070 N   0  0  0  0  0  0  0  0  0  0  0  0
  181.0460  175.5000  137.2900 C   0  0  0  0  0  3  0  0  0  0  0  0
  184.3650  173.9350  137.3110 C   0  0  0  0  0  0  0  0  0  0  0  0
  182.8230  172.4350  134.9860 C   0  0  0  0  0  1  0  0  0  0  0  0
  183.3820  178.4340  137.7890 N   0  0  0  0  0  2  0  0  0  0  0  0
  181.5040  176.8410  137.4290 C   0  0  0  0  0  3  0  0  0  0  0  0
  184.1830  172.4620  137.0870 C   0  0  0  0  0  2  0  0  0  0  0  0
  188.4470  175.8700  136.2680 C   0  0  1  0  0  3  0  0  0  0  0  0
  187.3300  176.1920  135.2740 C   0  0  0  0  0  2  0  0  0  0  0  0
  182.8860  177.1130  137.5580 C   0  0  0  0  0  0  0  0  0  0  0  0
  185.5110  174.6620  137.3120 N   0  0  0  0  0  0  0  0  0  0  0  0
  181.6230  172.9820  137.1170 C   0  0  0  0  0  2  0  0  0  0  0  0
  185.8990  178.3330  137.9360 C   0  0  1  0  0  3  0  0  0  0  0  0
  182.5100  170.8020  136.6620 O   0  0  0  0  0  1  0  0  0  0  0  0
  187.9520  175.1030  137.5000 C   0  0  0  0  0  2  0  0  0  0  0  0
  186.8540  174.0940  137.1630 C   0  0  0  0  0  2  0  0  0  0  0  0
  184.5590  178.6480  138.6320 C   0  0  0  0  0  2  0  0  0  0  0  0
  188.3430  178.3730  138.4560 C   0  0  0  0  0  3  0  0  0  0  0  0
  187.0240  178.3040  138.9190 C   0  0  0  0  0  0  0  0  0  0  0  0
  186.7770  178.1630  140.2930 C   0  0  0  0  0  3  0  0  0  0  0  0
  187.5780  177.9500  142.6480 C   0  0  0  0  0  1  0  0  0  0  0  0
  189.1590  178.1740  140.7270 C   0  0  0  0  0  3  0  0  0  0  0  0
  187.8440  178.1010  141.1950 C   0  0  0  0  0  0  0  0  0  0  0  0
  189.4090  178.3110  139.3580 C   0  0  0  0  0  3  0  0  0  0  0  0
  189.5460  175.1190  135.5910 C   0  0  0  0  0  0  0  0  0  0  0  0
  190.8780  175.2320  136.0960 N   0  0  0  0  0  2  0  0  0  0  0  0
  189.3010  174.3890  134.5940 O   0  0  0  0  0  0  0  0  0  0  0  0
  192.1050  173.2410  136.0890 O   0  0  0  0  0  1  0  0  0  0  0  0
  192.0010  174.5100  135.5140 C   0  0  2  0  0  3  0  0  0  0  0  0
  193.3240  176.0130  137.0470 C   0  0  0  0  0  1  0  0  0  0  0  0
  193.2960  175.2900  135.7100 C   0  0  0  0  0  2  0  0  0  0  0  0
  1 10  1  6  0  0  0
  1 20  1  0  0  0  0
  1 13  1  0  0  0  0
  1 18  1  0  0  0  0
  2 16  1  0  0  0  0
  3  7  1  0  0  0  0
  4  6  1  0  0  0  0
  5  2  2  0  0  0  0
  6  2  1  0  0  0  0
  7  5  1  0  0  0  0
  7 19  1  0  0  0  0
  8  4  2  0  0  0  0
  8 12  1  0  0  0  0
  9 17  1  0  0  0  0
  9  6  2  0  0  0  0
 11 23  1  0  0  0  0
 12 16  2  0  0  0  0
 13  9  1  0  0  0  0
 14 31  1  6  0  0  0
 14 21  1  0  0  0  0
 15  3  1  0  0  0  0
 15 14  1  0  0  0  0
 16 11  1  0  0  0  0
 17  5  1  0  0  0  0
 18  4  1  0  0  0  0
 19 23  1  0  0  0  0
 19 25  1  1  0  0  0
 22 17  1  0  0  0  0
 22 21  1  0  0  0  0
 24 25  2  0  0  0  0
 24 30  1  0  0  0  0
 25 26  1  0  0  0  0
 26 29  2  0  0  0  0
 28 29  1  0  0  0  0
 29 27  1  0  0  0  0
 30 28  2  0  0  0  0
 31 32  1  0  0  0  0
 33 31  2  0  0  0  0
 35 37  1  0  0  0  0
 35 34  1  1  0  0  0
 35 32  1  0  0  0  0
 37 36  1  0  0  0  0
M  END
>  <MODEL>
7

>  <REMARK>
 VINA RESULT:      -5.1      3.708      7.472
  Name = 
  4 active torsions:
  status: ('A' for Active; 'I' for Inactive)
    1  A    between atoms: C_4  and  N_12
    2  A    between atoms: C_4  and  C_37
    3  A    between atoms: C_8  and  C_18
    4  A    between atoms: C_23  and  C_30
                            x       y       z     vdW  Elec       q    Type
                         _______ _______ _______ _____ _____    ______ ____

>  <TORSDO>
F 4

$$$$
