=
 OpenBabel11122411303D

 37 44  0  0  1  0  0  0  0  0999 V2000
  182.4470  174.8710  136.9720 C   0  0  0  0  0  2  0  0  0  0  0  0
  186.5470  176.8840  136.5840 C   0  0  0  0  0  0  0  0  0  0  0  0
  184.0310  178.0810  139.6750 C   0  0  0  0  0  0  0  0  0  0  0  0
  181.8740  174.2190  135.7930 N   0  0  0  0  0  0  0  0  0  0  0  0
  180.3360  177.1210  139.6080 O   0  0  0  0  0  0  0  0  0  0  0  0
  186.2520  178.2070  138.7260 C   0  0  0  0  0  0  0  0  0  0  0  0
  182.8030  177.5970  139.2420 C   0  0  0  0  0  0  0  0  0  0  0  0
  179.6820  174.2930  137.1210 C   0  0  2  0  0  3  0  0  0  0  0  0
  184.9000  177.9350  138.6310 C   0  0  0  0  0  0  0  0  0  0  0  0
  181.5970  177.4410  140.1790 C   0  0  1  0  0  3  0  0  0  0  0  0
  186.7400  178.6840  139.9510 C   0  0  0  0  0  3  0  0  0  0  0  0
  180.4010  174.2260  135.7590 C   0  0  0  0  0  2  0  0  0  0  0  0
  184.3250  177.3620  137.5740 N   0  0  0  0  0  0  0  0  0  0  0  0
  186.8040  175.5150  137.1900 C   0  0  0  0  0  1  0  0  0  0  0  0
  183.6400  178.6790  142.1340 C   0  0  0  0  0  3  0  0  0  0  0  0
  185.8590  178.8400  141.0450 C   0  0  0  0  0  3  0  0  0  0  0  0
  185.0320  177.0550  136.3300 C   0  0  0  0  0  2  0  0  0  0  0  0
  179.5090  175.6960  137.7380 C   0  0  1  0  0  3  0  0  0  0  0  0
  180.5510  176.0250  138.7860 C   0  0  1  0  0  3  0  0  0  0  0  0
  184.4840  178.5360  140.9290 C   0  0  0  0  0  0  0  0  0  0  0  0
  183.0370  177.1260  137.9140 C   0  0  0  0  0  0  0  0  0  0  0  0
  187.1190  177.9800  137.5190 C   0  0  0  0  0  2  0  0  0  0  0  0
  181.4790  178.6390  141.0140 N   0  0  0  0  0  0  0  0  0  0  0  0
  187.2690  176.9570  135.2560 C   0  0  0  0  0  1  0  0  0  0  0  0
  180.6510  176.6640  137.4120 C   0  0  1  0  0  3  0  0  0  0  0  0
  180.0420  173.1790  138.0970 C   0  0  0  0  0  1  0  0  0  0  0  0
  182.0910  176.3580  137.0110 C   0  0  2  0  0  3  0  0  0  0  0  0
  182.3050  178.7300  142.1780 C   0  0  0  0  0  3  0  0  0  0  0  0
  179.6770  180.2800  141.4410 C   0  0  0  0  0  3  0  0  0  0  0  0
  180.6970  179.7850  140.6110 C   0  0  0  0  0  0  0  0  0  0  0  0
  180.9590  180.4440  139.3970 C   0  0  0  0  0  3  0  0  0  0  0  0
  180.5540  182.3630  137.5000 Cl  0  0  0  0  0  0  0  0  0  0  0  0
  179.1990  182.0400  139.8490 C   0  0  0  0  0  3  0  0  0  0  0  0
  180.2140  181.5610  139.0180 C   0  0  0  0  0  0  0  0  0  0  0  0
  178.9310  181.3990  141.0620 C   0  0  0  0  0  3  0  0  0  0  0  0
  183.4960  172.6700  136.7350 C   0  0  0  0  0  1  0  0  0  0  0  0
  182.3090  172.8320  135.8050 C   0  0  0  0  0  2  0  0  0  0  0  0
  1 27  1  0  0  0  0
  2 14  1  0  0  0  0
  2 22  1  0  0  0  0
  3 20  1  0  0  0  0
  4 37  1  0  0  0  0
  4  1  1  0  0  0  0
  5 10  1  0  0  0  0
  6 11  2  0  0  0  0
  7  3  1  0  0  0  0
  8 18  1  0  0  0  0
  8 26  1  1  0  0  0
  9  6  1  0  0  0  0
  9  3  2  0  0  0  0
 10  7  1  6  0  0  0
 10 23  1  0  0  0  0
 11 16  1  0  0  0  0
 12  4  1  0  0  0  0
 12  8  1  0  0  0  0
 13 21  1  0  0  0  0
 13  9  1  0  0  0  0
 15 28  2  0  0  0  0
 17  2  1  0  0  0  0
 17 13  1  0  0  0  0
 18 19  1  0  0  0  0
 19  5  1  0  0  0  0
 20 16  2  0  0  0  0
 20 15  1  0  0  0  0
 21  7  2  0  0  0  0
 22  6  1  0  0  0  0
 23 28  1  0  0  0  0
 24  2  1  0  0  0  0
 25 18  1  0  0  0  0
 25 19  1  0  0  0  0
 27 25  1  0  0  0  0
 27 21  1  0  0  0  0
 30 23  1  0  0  0  0
 30 29  2  0  0  0  0
 31 30  1  0  0  0  0
 32 34  1  0  0  0  0
 33 35  2  0  0  0  0
 34 31  2  0  0  0  0
 34 33  1  0  0  0  0
 35 29  1  0  0  0  0
 37 36  1  0  0  0  0
M  END
>  <MODEL>
1

>  <REMARK>
 VINA RESULT:      -6.5      0.000      0.000
  Name = 
  2 active torsions:
  status: ('A' for Active; 'I' for Inactive)
    1  A    between atoms: N_4  and  C_37
    2  A    between atoms: N_23  and  C_30
                            x       y       z     vdW  Elec       q    Type
                         _______ _______ _______ _____ _____    ______ ____

>  <TORSDO>
F 2

$$$$
=
 OpenBabel11122411303D

 37 44  0  0  1  0  0  0  0  0999 V2000
  186.7400  177.8670  140.2990 C   0  0  0  0  0  2  0  0  0  0  0  0
  184.5970  179.2420  144.1110 C   0  0  0  0  0  0  0  0  0  0  0  0
  182.2960  178.2000  140.8050 C   0  0  0  0  0  0  0  0  0  0  0  0
  188.1390  178.2520  140.1060 N   0  0  0  0  0  0  0  0  0  0  0  0
  183.9310  177.8640  137.3710 O   0  0  0  0  0  0  0  0  0  0  0  0
  182.3000  178.7540  143.1590 C   0  0  0  0  0  0  0  0  0  0  0  0
  183.2340  178.2510  139.7820 C   0  0  0  0  0  0  0  0  0  0  0  0
  187.7310  177.5790  137.6650 C   0  0  2  0  0  3  0  0  0  0  0  0
  182.8920  178.7370  141.9100 C   0  0  0  0  0  0  0  0  0  0  0  0
  183.0020  177.5960  138.4120 C   0  0  1  0  0  3  0  0  0  0  0  0
  181.0100  178.2180  143.2800 C   0  0  0  0  0  3  0  0  0  0  0  0
  188.5310  178.4050  138.6940 C   0  0  0  0  0  2  0  0  0  0  0  0
  184.1550  179.0960  141.6760 N   0  0  0  0  0  0  0  0  0  0  0  0
  185.0490  177.8150  144.3710 C   0  0  0  0  0  1  0  0  0  0  0  0
  180.2980  176.9780  139.7680 C   0  0  0  0  0  3  0  0  0  0  0  0
  180.3750  177.6540  142.1500 C   0  0  0  0  0  3  0  0  0  0  0  0
  185.0390  179.6670  142.6920 C   0  0  0  0  0  2  0  0  0  0  0  0
  186.3950  178.1860  137.1880 C   0  0  1  0  0  3  0  0  0  0  0  0
  185.1880  177.6170  137.9020 C   0  0  1  0  0  3  0  0  0  0  0  0
  181.0090  177.6300  140.8880 C   0  0  0  0  0  0  0  0  0  0  0  0
  184.4080  178.8010  140.3810 C   0  0  0  0  0  0  0  0  0  0  0  0
  183.0640  179.3450  144.3110 C   0  0  0  0  0  2  0  0  0  0  0  0
  181.6420  177.9000  137.9590 N   0  0  0  0  0  0  0  0  0  0  0  0
  185.2770  180.1450  145.1180 C   0  0  0  0  0  1  0  0  0  0  0  0
  185.6710  179.0120  138.2550 C   0  0  1  0  0  3  0  0  0  0  0  0
  187.7280  176.0750  137.9060 C   0  0  0  0  0  1  0  0  0  0  0  0
  185.7900  178.9450  139.7750 C   0  0  2  0  0  3  0  0  0  0  0  0
  180.5710  177.0980  138.4650 C   0  0  0  0  0  3  0  0  0  0  0  0
  181.1290  178.9630  135.7840 C   0  0  0  0  0  3  0  0  0  0  0  0
  181.3360  179.0710  137.1700 C   0  0  0  0  0  0  0  0  0  0  0  0
  181.2110  180.3330  137.7750 C   0  0  0  0  0  3  0  0  0  0  0  0
  180.7540  183.0240  137.7860 Cl  0  0  0  0  0  0  0  0  0  0  0  0
  180.7010  181.3400  135.6350 C   0  0  0  0  0  3  0  0  0  0  0  0
  180.8990  181.4600  137.0120 C   0  0  0  0  0  0  0  0  0  0  0  0
  180.8150  180.0900  135.0200 C   0  0  0  0  0  3  0  0  0  0  0  0
  188.6370  177.0390  142.1540 C   0  0  0  0  0  1  0  0  0  0  0  0
  188.9660  177.2040  140.6830 C   0  0  0  0  0  2  0  0  0  0  0  0
  2 22  1  0  0  0  0
  2 14  1  0  0  0  0
  2 24  1  0  0  0  0
  3 20  2  0  0  0  0
  3  9  1  0  0  0  0
  4  1  1  0  0  0  0
  4 37  1  0  0  0  0
  5 19  1  0  0  0  0
  6 11  1  0  0  0  0
  6 22  1  0  0  0  0
  7 21  2  0  0  0  0
  7  3  1  0  0  0  0
  8 26  1  1  0  0  0
  8 12  1  0  0  0  0
  9  6  2  0  0  0  0
 10  5  1  6  0  0  0
 10  7  1  0  0  0  0
 12  4  1  0  0  0  0
 13  9  1  0  0  0  0
 13 17  1  0  0  0  0
 15 20  1  0  0  0  0
 16 11  2  0  0  0  0
 17  2  1  0  0  0  0
 18  8  1  0  0  0  0
 18 19  1  0  0  0  0
 18 25  1  0  0  0  0
 19 25  1  0  0  0  0
 20 16  1  0  0  0  0
 21 13  1  0  0  0  0
 23 10  1  0  0  0  0
 23 28  1  0  0  0  0
 25 27  1  0  0  0  0
 27  1  1  0  0  0  0
 27 21  1  0  0  0  0
 28 15  2  0  0  0  0
 29 30  1  0  0  0  0
 30 31  2  0  0  0  0
 30 23  1  0  0  0  0
 33 34  2  0  0  0  0
 34 31  1  0  0  0  0
 34 32  1  0  0  0  0
 35 33  1  0  0  0  0
 35 29  2  0  0  0  0
 37 36  1  0  0  0  0
M  END
>  <MODEL>
2

>  <REMARK>
 VINA RESULT:      -6.0      2.547      6.075
  Name = 
  2 active torsions:
  status: ('A' for Active; 'I' for Inactive)
    1  A    between atoms: N_4  and  C_37
    2  A    between atoms: N_23  and  C_30
                            x       y       z     vdW  Elec       q    Type
                         _______ _______ _______ _____ _____    ______ ____

>  <TORSDO>
F 2

$$$$
=
 OpenBabel11122411303D

 37 44  0  0  1  0  0  0  0  0999 V2000
  187.4560  175.5490  136.1310 C   0  0  0  0  0  2  0  0  0  0  0  0
  184.0460  172.4870  136.0630 C   0  0  0  0  0  0  0  0  0  0  0  0
  183.2680  176.2920  137.5550 C   0  0  0  0  0  0  0  0  0  0  0  0
  188.8350  175.0610  136.0980 N   0  0  0  0  0  0  0  0  0  0  0  0
  186.1600  178.6220  138.4430 O   0  0  0  0  0  0  0  0  0  0  0  0
  182.3300  174.1750  136.8550 C   0  0  0  0  0  0  0  0  0  0  0  0
  184.5510  176.7660  137.8000 C   0  0  0  0  0  0  0  0  0  0  0  0
  189.4340  177.4310  136.8710 C   0  0  2  0  0  3  0  0  0  0  0  0
  183.3900  174.9630  137.2640 C   0  0  0  0  0  0  0  0  0  0  0  0
  184.8570  178.2560  138.0100 C   0  0  1  0  0  3  0  0  0  0  0  0
  181.0660  174.7740  136.7650 C   0  0  0  0  0  3  0  0  0  0  0  0
  189.7990  175.9350  136.7890 C   0  0  0  0  0  2  0  0  0  0  0  0
  184.6610  174.5610  137.2720 N   0  0  0  0  0  0  0  0  0  0  0  0
  184.2070  172.9720  134.6320 C   0  0  0  0  0  1  0  0  0  0  0  0
  181.7880  178.3780  137.6970 C   0  0  0  0  0  3  0  0  0  0  0  0
  180.9160  176.1480  137.0590 C   0  0  0  0  0  3  0  0  0  0  0  0
  185.0850  173.1950  136.9630 C   0  0  0  0  0  2  0  0  0  0  0  0
  188.4890  177.8450  138.0180 C   0  0  1  0  0  3  0  0  0  0  0  0
  187.0450  177.9840  137.5870 C   0  0  1  0  0  3  0  0  0  0  0  0
  182.0190  176.9370  137.4560 C   0  0  0  0  0  0  0  0  0  0  0  0
  185.4080  175.6440  137.5860 C   0  0  0  0  0  0  0  0  0  0  0  0
  182.5900  172.7300  136.5320 C   0  0  0  0  0  2  0  0  0  0  0  0
  183.8520  178.8310  138.9070 N   0  0  0  0  0  0  0  0  0  0  0  0
  184.3200  170.9980  136.0910 C   0  0  0  0  0  1  0  0  0  0  0  0
  187.4650  176.7710  138.3980 C   0  0  1  0  0  3  0  0  0  0  0  0
  189.1860  178.1110  135.5300 C   0  0  0  0  0  1  0  0  0  0  0  0
  186.9240  175.6140  137.5630 C   0  0  2  0  0  3  0  0  0  0  0  0
  182.5960  179.2230  138.3450 C   0  0  0  0  0  3  0  0  0  0  0  0
  185.2980  179.0120  140.9070 C   0  0  0  0  0  3  0  0  0  0  0  0
  184.0210  178.8530  140.3410 C   0  0  0  0  0  0  0  0  0  0  0  0
  182.9120  178.7470  141.1980 C   0  0  0  0  0  3  0  0  0  0  0  0
  181.6810  178.6450  143.6320 Cl  0  0  0  0  0  0  0  0  0  0  0  0
  184.3510  178.9370  143.1330 C   0  0  0  0  0  3  0  0  0  0  0  0
  183.0760  178.7850  142.5840 C   0  0  0  0  0  0  0  0  0  0  0  0
  185.4630  179.0510  142.2940 C   0  0  0  0  0  3  0  0  0  0  0  0
  190.7450  174.8340  134.6080 C   0  0  0  0  0  1  0  0  0  0  0  0
  189.2370  174.9750  134.7030 C   0  0  0  0  0  2  0  0  0  0  0  0
  1 27  1  0  0  0  0
  2 24  1  0  0  0  0
  2 22  1  0  0  0  0
  2 17  1  0  0  0  0
  3  7  1  0  0  0  0
  4  1  1  0  0  0  0
  4 12  1  0  0  0  0
  6  9  1  0  0  0  0
  8 26  1  6  0  0  0
  8 18  1  0  0  0  0
  9 13  1  0  0  0  0
  9  3  2  0  0  0  0
 10  7  1  1  0  0  0
 10  5  1  0  0  0  0
 10 23  1  0  0  0  0
 11  6  2  0  0  0  0
 11 16  1  0  0  0  0
 12  8  1  0  0  0  0
 13 21  1  0  0  0  0
 14  2  1  0  0  0  0
 15 28  2  0  0  0  0
 16 20  2  0  0  0  0
 17 13  1  0  0  0  0
 18 25  1  0  0  0  0
 19 18  1  0  0  0  0
 19 25  1  0  0  0  0
 19  5  1  0  0  0  0
 20  3  1  0  0  0  0
 20 15  1  0  0  0  0
 21  7  2  0  0  0  0
 22  6  1  0  0  0  0
 23 30  1  0  0  0  0
 27 21  1  0  0  0  0
 27 25  1  0  0  0  0
 28 23  1  0  0  0  0
 29 35  1  0  0  0  0
 30 29  2  0  0  0  0
 30 31  1  0  0  0  0
 31 34  2  0  0  0  0
 34 33  1  0  0  0  0
 34 32  1  0  0  0  0
 35 33  2  0  0  0  0
 36 37  1  0  0  0  0
 37  4  1  0  0  0  0
M  END
>  <MODEL>
3

>  <REMARK>
 VINA RESULT:      -5.9      2.542      6.155
  Name = 
  2 active torsions:
  status: ('A' for Active; 'I' for Inactive)
    1  A    between atoms: N_4  and  C_37
    2  A    between atoms: N_23  and  C_30
                            x       y       z     vdW  Elec       q    Type
                         _______ _______ _______ _____ _____    ______ ____

>  <TORSDO>
F 2

$$$$
=
 OpenBabel11122411303D

 37 44  0  0  1  0  0  0  0  0999 V2000
  182.2320  173.7840  136.6290 C   0  0  0  0  0  2  0  0  0  0  0  0
  186.6440  174.6600  135.7480 C   0  0  0  0  0  0  0  0  0  0  0  0
  184.4100  177.5400  137.7550 C   0  0  0  0  0  0  0  0  0  0  0  0
  181.5430  172.7800  135.8170 N   0  0  0  0  0  0  0  0  0  0  0  0
  180.5980  177.3090  137.7980 O   0  0  0  0  0  0  0  0  0  0  0  0
  186.6120  176.8370  137.0460 C   0  0  0  0  0  0  0  0  0  0  0  0
  183.1110  177.1330  137.4760 C   0  0  0  0  0  0  0  0  0  0  0  0
  179.4070  173.8240  136.7780 C   0  0  2  0  0  3  0  0  0  0  0  0
  185.2330  176.7900  136.9640 C   0  0  0  0  0  0  0  0  0  0  0  0
  181.8980  177.6290  138.2760 C   0  0  1  0  0  3  0  0  0  0  0  0
  187.1840  177.7230  137.9700 C   0  0  0  0  0  3  0  0  0  0  0  0
  180.0990  173.0250  135.6550 C   0  0  0  0  0  2  0  0  0  0  0  0
  184.5570  175.9100  136.2250 N   0  0  0  0  0  0  0  0  0  0  0  0
  186.6310  173.6910  136.9180 C   0  0  0  0  0  1  0  0  0  0  0  0
  184.1430  179.2430  139.6490 C   0  0  0  0  0  3  0  0  0  0  0  0
  186.3510  178.5070  138.8000 C   0  0  0  0  0  3  0  0  0  0  0  0
  185.1900  174.9570  135.3140 C   0  0  0  0  0  2  0  0  0  0  0  0
  179.5100  175.3610  136.6910 C   0  0  1  0  0  3  0  0  0  0  0  0
  180.5960  175.9420  137.5700 C   0  0  1  0  0  3  0  0  0  0  0  0
  184.9430  178.4270  138.7110 C   0  0  0  0  0  0  0  0  0  0  0  0
  183.2480  176.0810  136.5200 C   0  0  0  0  0  0  0  0  0  0  0  0
  187.4180  175.9420  136.1450 C   0  0  0  0  0  2  0  0  0  0  0  0
  182.0140  179.0750  138.4790 N   0  0  0  0  0  0  0  0  0  0  0  0
  187.3660  173.9990  134.5940 C   0  0  0  0  0  1  0  0  0  0  0  0
  180.8180  175.8620  136.0700 C   0  0  1  0  0  3  0  0  0  0  0  0
  179.5450  173.2290  138.1740 C   0  0  0  0  0  1  0  0  0  0  0  0
  182.1710  175.1640  135.9740 C   0  0  2  0  0  3  0  0  0  0  0  0
  182.8430  179.5390  139.5490 C   0  0  0  0  0  3  0  0  0  0  0  0
  181.1600  179.6450  136.2270 C   0  0  0  0  0  3  0  0  0  0  0  0
  181.4690  180.0310  137.5430 C   0  0  0  0  0  0  0  0  0  0  0  0
  181.2110  181.3560  137.9360 C   0  0  0  0  0  3  0  0  0  0  0  0
  180.3610  183.9190  137.5440 Cl  0  0  0  0  0  0  0  0  0  0  0  0
  180.3710  181.8780  135.7280 C   0  0  0  0  0  3  0  0  0  0  0  0
  180.6690  182.2730  137.0340 C   0  0  0  0  0  0  0  0  0  0  0  0
  180.6160  180.5620  135.3250 C   0  0  0  0  0  3  0  0  0  0  0  0
  183.1570  171.2780  136.8460 C   0  0  0  0  0  1  0  0  0  0  0  0
  181.7010  171.4950  136.4810 C   0  0  0  0  0  2  0  0  0  0  0  0
  2 22  1  0  0  0  0
  2 14  1  0  0  0  0
  3 20  1  0  0  0  0
  4 37  1  0  0  0  0
  4  1  1  0  0  0  0
  5 10  1  0  0  0  0
  6 11  2  0  0  0  0
  7  3  1  0  0  0  0
  8 26  1  1  0  0  0
  9  6  1  0  0  0  0
  9  3  2  0  0  0  0
 10  7  1  6  0  0  0
 10 23  1  0  0  0  0
 11 16  1  0  0  0  0
 12  4  1  0  0  0  0
 12  8  1  0  0  0  0
 13 21  1  0  0  0  0
 13  9  1  0  0  0  0
 17  2  1  0  0  0  0
 17 13  1  0  0  0  0
 18  8  1  0  0  0  0
 18 19  1  0  0  0  0
 19  5  1  0  0  0  0
 20 16  2  0  0  0  0
 20 15  1  0  0  0  0
 21  7  2  0  0  0  0
 22  6  1  0  0  0  0
 23 28  1  0  0  0  0
 24  2  1  0  0  0  0
 25 18  1  0  0  0  0
 25 19  1  0  0  0  0
 27 25  1  0  0  0  0
 27 21  1  0  0  0  0
 27  1  1  0  0  0  0
 28 15  2  0  0  0  0
 29 30  1  0  0  0  0
 30 31  2  0  0  0  0
 30 23  1  0  0  0  0
 33 34  2  0  0  0  0
 34 32  1  0  0  0  0
 34 31  1  0  0  0  0
 35 33  1  0  0  0  0
 35 29  2  0  0  0  0
 37 36  1  0  0  0  0
M  END
>  <MODEL>
4

>  <REMARK>
 VINA RESULT:      -5.8      1.759      2.442
  Name = 
  2 active torsions:
  status: ('A' for Active; 'I' for Inactive)
    1  A    between atoms: N_4  and  C_37
    2  A    between atoms: N_23  and  C_30
                            x       y       z     vdW  Elec       q    Type
                         _______ _______ _______ _____ _____    ______ ____

>  <TORSDO>
F 2

$$$$
=
 OpenBabel11122411303D

 37 44  0  0  1  0  0  0  0  0999 V2000
  186.7970  176.4810  137.8180 C   0  0  0  0  0  2  0  0  0  0  0  0
  187.9610  178.3010  141.8610 C   0  0  0  0  0  0  0  0  0  0  0  0
  183.9750  178.4740  140.6800 C   0  0  0  0  0  0  0  0  0  0  0  0
  187.8370  176.3070  136.8040 N   0  0  0  0  0  0  0  0  0  0  0  0
  183.0300  177.7790  137.0460 O   0  0  0  0  0  0  0  0  0  0  0  0
  185.5570  178.8120  142.4780 C   0  0  0  0  0  0  0  0  0  0  0  0
  184.0750  178.2310  139.3150 C   0  0  0  0  0  0  0  0  0  0  0  0
  185.8690  176.0230  135.1850 C   0  0  2  0  0  3  0  0  0  0  0  0
  185.2490  178.6570  141.1400 C   0  0  0  0  0  0  0  0  0  0  0  0
  182.8700  177.8190  138.4570 C   0  0  1  0  0  3  0  0  0  0  0  0
  184.4990  178.8100  143.3980 C   0  0  0  0  0  3  0  0  0  0  0  0
  187.3470  176.3980  135.4170 C   0  0  0  0  0  2  0  0  0  0  0  0
  186.1570  178.5140  140.1740 N   0  0  0  0  0  0  0  0  0  0  0  0
  187.9390  176.7950  142.0660 C   0  0  0  0  0  1  0  0  0  0  0  0
  181.4800  178.2010  141.1870 C   0  0  0  0  0  3  0  0  0  0  0  0
  183.1740  178.6210  142.9450 C   0  0  0  0  0  3  0  0  0  0  0  0
  187.6000  178.6230  140.3930 C   0  0  0  0  0  2  0  0  0  0  0  0
  184.8300  177.1320  135.4490 C   0  0  1  0  0  3  0  0  0  0  0  0
  184.1700  177.0270  136.8070 C   0  0  1  0  0  3  0  0  0  0  0  0
  182.8860  178.4440  141.5730 C   0  0  0  0  0  0  0  0  0  0  0  0
  185.4760  178.2390  139.0380 C   0  0  0  0  0  0  0  0  0  0  0  0
  186.9990  178.9750  142.8710 C   0  0  0  0  0  2  0  0  0  0  0  0
  181.7220  178.6570  138.8070 N   0  0  0  0  0  0  0  0  0  0  0  0
  189.3670  178.7940  142.1300 C   0  0  0  0  0  1  0  0  0  0  0  0
  185.2220  178.0960  136.5740 C   0  0  1  0  0  3  0  0  0  0  0  0
  185.4770  174.6240  135.6440 C   0  0  0  0  0  1  0  0  0  0  0  0
  186.1780  177.8780  137.7430 C   0  0  2  0  0  3  0  0  0  0  0  0
  180.9550  178.2990  139.9610 C   0  0  0  0  0  3  0  0  0  0  0  0
  181.7820  181.1300  138.7500 C   0  0  0  0  0  3  0  0  0  0  0  0
  181.4490  179.9090  138.1390 C   0  0  0  0  0  0  0  0  0  0  0  0
  180.8740  179.9300  136.8570 C   0  0  0  0  0  3  0  0  0  0  0  0
  179.9050  181.1420  134.6120 Cl  0  0  0  0  0  0  0  0  0  0  0  0
  180.9570  182.3470  136.8270 C   0  0  0  0  0  3  0  0  0  0  0  0
  180.6270  181.1400  136.2070 C   0  0  0  0  0  0  0  0  0  0  0  0
  181.5350  182.3420  138.0990 C   0  0  0  0  0  3  0  0  0  0  0  0
  189.3700  174.6750  135.8520 C   0  0  0  0  0  1  0  0  0  0  0  0
  188.4090  174.9820  136.9850 C   0  0  0  0  0  2  0  0  0  0  0  0
  2 14  1  0  0  0  0
  2 24  1  0  0  0  0
  2 22  1  0  0  0  0
  3  9  2  0  0  0  0
  3 20  1  0  0  0  0
  4 37  1  0  0  0  0
  4  1  1  0  0  0  0
  6 22  1  0  0  0  0
  6 11  2  0  0  0  0
  7  3  1  0  0  0  0
  8 12  1  0  0  0  0
  8 18  1  0  0  0  0
  8 26  1  1  0  0  0
  9  6  1  0  0  0  0
 10  5  1  6  0  0  0
 10 23  1  0  0  0  0
 10  7  1  0  0  0  0
 12  4  1  0  0  0  0
 13 17  1  0  0  0  0
 13  9  1  0  0  0  0
 15 20  1  0  0  0  0
 16 11  1  0  0  0  0
 17  2  1  0  0  0  0
 18 25  1  0  0  0  0
 18 19  1  0  0  0  0
 19  5  1  0  0  0  0
 20 16  2  0  0  0  0
 21  7  2  0  0  0  0
 21 13  1  0  0  0  0
 23 28  1  0  0  0  0
 25 19  1  0  0  0  0
 25 27  1  0  0  0  0
 27  1  1  0  0  0  0
 27 21  1  0  0  0  0
 28 15  2  0  0  0  0
 30 29  1  0  0  0  0
 30 23  1  0  0  0  0
 31 30  2  0  0  0  0
 32 34  1  0  0  0  0
 33 35  1  0  0  0  0
 34 33  2  0  0  0  0
 34 31  1  0  0  0  0
 35 29  2  0  0  0  0
 36 37  1  0  0  0  0
M  END
>  <MODEL>
5

>  <REMARK>
 VINA RESULT:      -5.5      2.637      4.449
  Name = 
  2 active torsions:
  status: ('A' for Active; 'I' for Inactive)
    1  A    between atoms: N_4  and  C_37
    2  A    between atoms: N_23  and  C_30
                            x       y       z     vdW  Elec       q    Type
                         _______ _______ _______ _____ _____    ______ ____

>  <TORSDO>
F 2

$$$$
=
 OpenBabel11122411303D

 37 44  0  0  1  0  0  0  0  0999 V2000
  187.2540  175.7130  136.1550 C   0  0  0  0  0  2  0  0  0  0  0  0
  184.0630  172.4250  136.0160 C   0  0  0  0  0  0  0  0  0  0  0  0
  183.0220  176.1380  137.5810 C   0  0  0  0  0  0  0  0  0  0  0  0
  188.6630  175.3210  136.1160 N   0  0  0  0  0  0  0  0  0  0  0  0
  185.7460  178.6420  138.5240 O   0  0  0  0  0  0  0  0  0  0  0  0
  182.2330  173.9760  136.8360 C   0  0  0  0  0  0  0  0  0  0  0  0
  184.2690  176.6930  137.8400 C   0  0  0  0  0  0  0  0  0  0  0  0
  189.0960  177.7110  136.9380 C   0  0  2  0  0  3  0  0  0  0  0  0
  183.2360  174.8260  137.2640 C   0  0  0  0  0  0  0  0  0  0  0  0
  184.4720  178.1960  138.0800 C   0  0  1  0  0  3  0  0  0  0  0  0
  180.9310  174.4880  136.7550 C   0  0  0  0  0  3  0  0  0  0  0  0
  189.5640  176.2460  136.8270 C   0  0  0  0  0  2  0  0  0  0  0  0
  184.5320  174.5120  137.2680 N   0  0  0  0  0  0  0  0  0  0  0  0
  184.1920  172.9490  134.5960 C   0  0  0  0  0  1  0  0  0  0  0  0
  181.4020  178.1130  137.7610 C   0  0  0  0  0  3  0  0  0  0  0  0
  180.6870  175.8420  137.0760 C   0  0  0  0  0  3  0  0  0  0  0  0
  185.0480  173.1850  136.9330 C   0  0  0  0  0  2  0  0  0  0  0  0
  188.1240  178.0360  138.0910 C   0  0  1  0  0  3  0  0  0  0  0  0
  186.6740  178.0840  137.6580 C   0  0  1  0  0  3  0  0  0  0  0  0
  181.7320  176.6970  137.4920 C   0  0  0  0  0  0  0  0  0  0  0  0
  185.2020  175.6380  137.6060 C   0  0  0  0  0  0  0  0  0  0  0  0
  182.5920  172.5580  136.4850 C   0  0  0  0  0  2  0  0  0  0  0  0
  183.4280  178.6830  138.9850 N   0  0  0  0  0  0  0  0  0  0  0  0
  184.4380  170.9590  136.0160 C   0  0  0  0  0  1  0  0  0  0  0  0
  187.1750  176.8870  138.4460 C   0  0  1  0  0  3  0  0  0  0  0  0
  188.8040  178.3990  135.6100 C   0  0  0  0  0  1  0  0  0  0  0  0
  186.7160  175.7120  137.5870 C   0  0  2  0  0  3  0  0  0  0  0  0
  182.1490  178.9990  138.4280 C   0  0  0  0  0  3  0  0  0  0  0  0
  182.4890  178.8960  141.2650 C   0  0  0  0  0  3  0  0  0  0  0  0
  183.5930  178.6880  140.4200 C   0  0  0  0  0  0  0  0  0  0  0  0
  184.8520  178.4570  141.0010 C   0  0  0  0  0  3  0  0  0  0  0  0
  186.5840  178.1600  143.0890 Cl  0  0  0  0  0  0  0  0  0  0  0  0
  183.9020  178.6590  143.2160 C   0  0  0  0  0  3  0  0  0  0  0  0
  185.0060  178.4450  142.3880 C   0  0  0  0  0  0  0  0  0  0  0  0
  182.6420  178.8840  142.6530 C   0  0  0  0  0  3  0  0  0  0  0  0
  190.4240  174.6140  134.5940 C   0  0  0  0  0  1  0  0  0  0  0  0
  189.0720  175.2920  134.7210 C   0  0  0  0  0  2  0  0  0  0  0  0
  1 27  1  0  0  0  0
  2 24  1  0  0  0  0
  2 22  1  0  0  0  0
  2 17  1  0  0  0  0
  3  7  1  0  0  0  0
  4  1  1  0  0  0  0
  4 12  1  0  0  0  0
  6  9  1  0  0  0  0
  8 26  1  6  0  0  0
  8 18  1  0  0  0  0
  9 13  1  0  0  0  0
  9  3  2  0  0  0  0
 10  7  1  1  0  0  0
 10  5  1  0  0  0  0
 10 23  1  0  0  0  0
 11  6  2  0  0  0  0
 11 16  1  0  0  0  0
 12  8  1  0  0  0  0
 13 21  1  0  0  0  0
 14  2  1  0  0  0  0
 15 28  2  0  0  0  0
 16 20  2  0  0  0  0
 17 13  1  0  0  0  0
 18 25  1  0  0  0  0
 19 18  1  0  0  0  0
 19 25  1  0  0  0  0
 19  5  1  0  0  0  0
 20  3  1  0  0  0  0
 20 15  1  0  0  0  0
 21  7  2  0  0  0  0
 22  6  1  0  0  0  0
 23 30  1  0  0  0  0
 27 21  1  0  0  0  0
 27 25  1  0  0  0  0
 28 23  1  0  0  0  0
 29 35  1  0  0  0  0
 30 31  1  0  0  0  0
 30 29  2  0  0  0  0
 31 34  2  0  0  0  0
 34 32  1  0  0  0  0
 34 33  1  0  0  0  0
 35 33  2  0  0  0  0
 36 37  1  0  0  0  0
 37  4  1  0  0  0  0
M  END
>  <MODEL>
6

>  <REMARK>
 VINA RESULT:      -5.3      2.602      6.095
  Name = 
  2 active torsions:
  status: ('A' for Active; 'I' for Inactive)
    1  A    between atoms: N_4  and  C_37
    2  A    between atoms: N_23  and  C_30
                            x       y       z     vdW  Elec       q    Type
                         _______ _______ _______ _____ _____    ______ ____

>  <TORSDO>
F 2

$$$$
=
 OpenBabel11122411303D

 37 44  0  0  1  0  0  0  0  0999 V2000
  186.6510  178.5640  144.2730 C   0  0  0  0  0  2  0  0  0  0  0  0
  190.7970  176.6230  144.0590 C   0  0  0  0  0  0  0  0  0  0  0  0
  188.9440  177.7420  140.5060 C   0  0  0  0  0  0  0  0  0  0  0  0
  185.8350  178.3410  145.4670 N   0  0  0  0  0  0  0  0  0  0  0  0
  185.2160  178.5680  140.4770 O   0  0  0  0  0  0  0  0  0  0  0  0
  190.9810  176.9670  141.5550 C   0  0  0  0  0  0  0  0  0  0  0  0
  187.6220  177.8840  140.9110 C   0  0  0  0  0  0  0  0  0  0  0  0
  183.9070  179.2010  144.0120 C   0  0  2  0  0  3  0  0  0  0  0  0
  189.6130  177.1640  141.5480 C   0  0  0  0  0  0  0  0  0  0  0  0
  186.5770  178.6390  140.0770 C   0  0  1  0  0  3  0  0  0  0  0  0
  191.7050  177.3580  140.4200 C   0  0  0  0  0  3  0  0  0  0  0  0
  184.3830  178.3640  145.2170 C   0  0  0  0  0  2  0  0  0  0  0  0
  188.8210  176.9570  142.6000 N   0  0  0  0  0  0  0  0  0  0  0  0
  191.0250  178.0560  144.5090 C   0  0  0  0  0  1  0  0  0  0  0  0
  189.0180  178.8510  138.1990 C   0  0  0  0  0  3  0  0  0  0  0  0
  191.0340  177.9610  139.3320 C   0  0  0  0  0  3  0  0  0  0  0  0
  189.2830  176.3820  143.8640 C   0  0  0  0  0  2  0  0  0  0  0  0
  183.9660  178.5130  142.6320 C   0  0  1  0  0  3  0  0  0  0  0  0
  185.1910  178.8860  141.8260 C   0  0  1  0  0  3  0  0  0  0  0  0
  189.6360  178.1690  139.3560 C   0  0  0  0  0  0  0  0  0  0  0  0
  187.5910  177.3980  142.2540 C   0  0  0  0  0  0  0  0  0  0  0  0
  191.6130  176.3490  142.7710 C   0  0  0  0  0  2  0  0  0  0  0  0
  186.7080  178.2460  138.6720 N   0  0  0  0  0  0  0  0  0  0  0  0
  191.2950  175.7000  145.1510 C   0  0  0  0  0  1  0  0  0  0  0  0
  185.1230  177.5190  142.4820 C   0  0  1  0  0  3  0  0  0  0  0  0
  184.3190  180.6680  144.0390 C   0  0  0  0  0  1  0  0  0  0  0  0
  186.4430  177.4520  143.2430 C   0  0  2  0  0  3  0  0  0  0  0  0
  187.7190  178.8850  137.8870 C   0  0  0  0  0  3  0  0  0  0  0  0
  184.5780  177.1820  137.9960 C   0  0  0  0  0  3  0  0  0  0  0  0
  185.9780  177.1320  138.1130 C   0  0  0  0  0  0  0  0  0  0  0  0
  186.6540  175.9900  137.6490 C   0  0  0  0  0  3  0  0  0  0  0  0
  186.8100  173.5070  136.5260 Cl  0  0  0  0  0  0  0  0  0  0  0  0
  184.5570  174.9810  136.9880 C   0  0  0  0  0  3  0  0  0  0  0  0
  185.9480  174.9220  137.0930 C   0  0  0  0  0  0  0  0  0  0  0  0
  183.8710  176.1130  137.4400 C   0  0  0  0  0  3  0  0  0  0  0  0
  186.8650  178.8380  147.6140 C   0  0  0  0  0  1  0  0  0  0  0  0
  186.1370  179.4060  146.4100 C   0  0  0  0  0  2  0  0  0  0  0  0
  1  4  1  0  0  0  0
  2 14  1  0  0  0  0
  2 24  1  0  0  0  0
  3  7  1  0  0  0  0
  3  9  1  0  0  0  0
  4 37  1  0  0  0  0
  5 19  1  0  0  0  0
  6 22  1  0  0  0  0
  7 21  2  0  0  0  0
  8 26  1  6  0  0  0
  8 12  1  0  0  0  0
  9  6  2  0  0  0  0
  9 13  1  0  0  0  0
 10  5  1  1  0  0  0
 10  7  1  0  0  0  0
 11  6  1  0  0  0  0
 12  4  1  0  0  0  0
 13 17  1  0  0  0  0
 15 20  1  0  0  0  0
 16 20  1  0  0  0  0
 16 11  2  0  0  0  0
 17  2  1  0  0  0  0
 18  8  1  0  0  0  0
 19 25  1  0  0  0  0
 19 18  1  0  0  0  0
 20  3  2  0  0  0  0
 21 13  1  0  0  0  0
 21 27  1  0  0  0  0
 22  2  1  0  0  0  0
 23 10  1  0  0  0  0
 25 18  1  0  0  0  0
 25 27  1  0  0  0  0
 27  1  1  0  0  0  0
 28 15  2  0  0  0  0
 28 23  1  0  0  0  0
 29 30  1  0  0  0  0
 30 23  1  0  0  0  0
 31 30  2  0  0  0  0
 32 34  1  0  0  0  0
 33 34  2  0  0  0  0
 33 35  1  0  0  0  0
 34 31  1  0  0  0  0
 35 29  2  0  0  0  0
 37 36  1  0  0  0  0
M  END
>  <MODEL>
7

>  <REMARK>
 VINA RESULT:      -5.3      4.245      8.082
  Name = 
  2 active torsions:
  status: ('A' for Active; 'I' for Inactive)
    1  A    between atoms: N_4  and  C_37
    2  A    between atoms: N_23  and  C_30
                            x       y       z     vdW  Elec       q    Type
                         _______ _______ _______ _____ _____    ______ ____

>  <TORSDO>
F 2

$$$$
=
 OpenBabel11122411303D

 37 44  0  0  1  0  0  0  0  0999 V2000
  191.3320  174.1310  136.1750 C   0  0  0  0  0  2  0  0  0  0  0  0
  187.5440  171.5530  136.0340 C   0  0  0  0  0  0  0  0  0  0  0  0
  187.2020  175.5190  137.2450 C   0  0  0  0  0  0  0  0  0  0  0  0
  192.6300  173.4620  136.2710 N   0  0  0  0  0  0  0  0  0  0  0  0
  190.3240  177.4960  138.2070 O   0  0  0  0  0  0  0  0  0  0  0  0
  186.0290  173.5040  136.6010 C   0  0  0  0  0  0  0  0  0  0  0  0
  188.5200  175.8330  137.5560 C   0  0  0  0  0  0  0  0  0  0  0  0
  193.4980  175.7770  136.9490 C   0  0  2  0  0  3  0  0  0  0  0  0
  187.1590  174.1690  137.0400 C   0  0  0  0  0  0  0  0  0  0  0  0
  189.0140  177.2790  137.7020 C   0  0  1  0  0  3  0  0  0  0  0  0
  184.8680  174.2580  136.3850 C   0  0  0  0  0  3  0  0  0  0  0  0
  193.6580  174.2440  136.9790 C   0  0  0  0  0  2  0  0  0  0  0  0
  188.3590  173.6030  137.1650 N   0  0  0  0  0  0  0  0  0  0  0  0
  187.8620  171.9150  134.5940 C   0  0  0  0  0  1  0  0  0  0  0  0
  186.0180  177.7880  137.1590 C   0  0  0  0  0  3  0  0  0  0  0  0
  184.8900  175.6570  136.5880 C   0  0  0  0  0  3  0  0  0  0  0  0
  188.6100  172.1750  136.9650 C   0  0  0  0  0  2  0  0  0  0  0  0
  192.5470  176.3890  137.9980 C   0  0  1  0  0  3  0  0  0  0  0  0
  191.1660  176.6900  137.4560 C   0  0  1  0  0  3  0  0  0  0  0  0
  186.0630  176.3170  137.0190 C   0  0  0  0  0  0  0  0  0  0  0  0
  189.2270  174.5950  137.4690 C   0  0  0  0  0  0  0  0  0  0  0  0
  186.1080  172.0190  136.3810 C   0  0  0  0  0  2  0  0  0  0  0  0
  188.0420  178.0420  138.4880 N   0  0  0  0  0  0  0  0  0  0  0  0
  187.6080  170.0460  136.1680 C   0  0  0  0  0  1  0  0  0  0  0  0
  191.3620  175.4890  138.3630 C   0  0  1  0  0  3  0  0  0  0  0  0
  193.4330  176.3930  135.5560 C   0  0  0  0  0  1  0  0  0  0  0  0
  190.7220  174.3610  137.5590 C   0  0  2  0  0  3  0  0  0  0  0  0
  186.8910  178.5590  137.8150 C   0  0  0  0  0  3  0  0  0  0  0  0
  187.0040  178.5470  140.6770 C   0  0  0  0  0  3  0  0  0  0  0  0
  188.1200  178.1370  139.9280 C   0  0  0  0  0  0  0  0  0  0  0  0
  189.3000  177.7940  140.6090 C   0  0  0  0  0  3  0  0  0  0  0  0
  190.8500  177.4440  142.8280 Cl  0  0  0  0  0  0  0  0  0  0  0  0
  188.2530  178.2860  142.7330 C   0  0  0  0  0  3  0  0  0  0  0  0
  189.3670  177.8700  142.0010 C   0  0  0  0  0  0  0  0  0  0  0  0
  187.0700  178.6240  142.0700 C   0  0  0  0  0  3  0  0  0  0  0  0
  193.8010  171.8850  134.8360 C   0  0  0  0  0  1  0  0  0  0  0  0
  193.1050  173.2300  134.9160 C   0  0  0  0  0  2  0  0  0  0  0  0
  1  4  1  0  0  0  0
  1 27  1  0  0  0  0
  2 24  1  0  0  0  0
  2 22  1  0  0  0  0
  2 17  1  0  0  0  0
  3  7  1  0  0  0  0
  4 12  1  0  0  0  0
  6  9  2  0  0  0  0
  8 26  1  6  0  0  0
  8 12  1  0  0  0  0
  8 18  1  0  0  0  0
  9 13  1  0  0  0  0
  9  3  1  0  0  0  0
 10  7  1  1  0  0  0
 10  5  1  0  0  0  0
 10 23  1  0  0  0  0
 11 16  2  0  0  0  0
 11  6  1  0  0  0  0
 13 21  1  0  0  0  0
 14  2  1  0  0  0  0
 15 28  2  0  0  0  0
 16 20  1  0  0  0  0
 17 13  1  0  0  0  0
 18 25  1  0  0  0  0
 19 18  1  0  0  0  0
 19  5  1  0  0  0  0
 19 25  1  0  0  0  0
 20 15  1  0  0  0  0
 20  3  2  0  0  0  0
 21  7  2  0  0  0  0
 21 27  1  0  0  0  0
 22  6  1  0  0  0  0
 23 30  1  0  0  0  0
 27 25  1  0  0  0  0
 28 23  1  0  0  0  0
 29 35  1  0  0  0  0
 30 31  1  0  0  0  0
 30 29  2  0  0  0  0
 31 34  2  0  0  0  0
 34 33  1  0  0  0  0
 34 32  1  0  0  0  0
 35 33  2  0  0  0  0
 36 37  1  0  0  0  0
 37  4  1  0  0  0  0
M  END
>  <MODEL>
8

>  <REMARK>
 VINA RESULT:      -5.3      5.187      8.766
  Name = 
  2 active torsions:
  status: ('A' for Active; 'I' for Inactive)
    1  A    between atoms: N_4  and  C_37
    2  A    between atoms: N_23  and  C_30
                            x       y       z     vdW  Elec       q    Type
                         _______ _______ _______ _____ _____    ______ ____

>  <TORSDO>
F 2

$$$$
=
 OpenBabel11122411303D

 37 44  0  0  1  0  0  0  0  0999 V2000
  186.6030  178.5490  144.2540 C   0  0  0  0  0  2  0  0  0  0  0  0
  190.7600  176.6240  144.0940 C   0  0  0  0  0  0  0  0  0  0  0  0
  188.9520  177.7460  140.5180 C   0  0  0  0  0  0  0  0  0  0  0  0
  185.7710  178.3190  145.4360 N   0  0  0  0  0  0  0  0  0  0  0  0
  185.2220  178.5570  140.4380 O   0  0  0  0  0  0  0  0  0  0  0  0
  190.9770  176.9760  141.5940 C   0  0  0  0  0  0  0  0  0  0  0  0
  187.6250  177.8810  140.9040 C   0  0  0  0  0  0  0  0  0  0  0  0
  183.8610  179.1760  143.9550 C   0  0  2  0  0  3  0  0  0  0  0  0
  189.6090  177.1670  141.5670 C   0  0  0  0  0  0  0  0  0  0  0  0
  186.5890  178.6350  140.0580 C   0  0  1  0  0  3  0  0  0  0  0  0
  191.7160  177.3730  140.4700 C   0  0  0  0  0  3  0  0  0  0  0  0
  184.3230  178.3380  145.1650 C   0  0  0  0  0  2  0  0  0  0  0  0
  188.8030  176.9550  142.6080 N   0  0  0  0  0  0  0  0  0  0  0  0
  190.9750  178.0570  144.5510 C   0  0  0  0  0  1  0  0  0  0  0  0
  189.0550  178.8620  138.2150 C   0  0  0  0  0  3  0  0  0  0  0  0
  191.0580  177.9760  139.3740 C   0  0  0  0  0  3  0  0  0  0  0  0
  189.2490  176.3780  143.8770 C   0  0  0  0  0  2  0  0  0  0  0  0
  183.9420  178.4920  142.5750 C   0  0  1  0  0  3  0  0  0  0  0  0
  185.1770  178.8720  141.7870 C   0  0  1  0  0  3  0  0  0  0  0  0
  189.6600  178.1790  139.3790 C   0  0  0  0  0  0  0  0  0  0  0  0
  187.5760  177.3920  142.2450 C   0  0  0  0  0  0  0  0  0  0  0  0
  191.5950  176.3560  142.8170 C   0  0  0  0  0  2  0  0  0  0  0  0
  186.7410  178.2470  138.6540 N   0  0  0  0  0  0  0  0  0  0  0  0
  191.2450  175.7000  145.1900 C   0  0  0  0  0  1  0  0  0  0  0  0
  185.1040  177.5030  142.4390 C   0  0  1  0  0  3  0  0  0  0  0  0
  184.2660  180.6440  143.9930 C   0  0  0  0  0  1  0  0  0  0  0  0
  186.4140  177.4390  143.2180 C   0  0  2  0  0  3  0  0  0  0  0  0
  187.7600  178.8910  137.8850 C   0  0  0  0  0  3  0  0  0  0  0  0
  186.7190  176.0110  137.5940 C   0  0  0  0  0  3  0  0  0  0  0  0
  186.0240  177.1310  138.0810 C   0  0  0  0  0  0  0  0  0  0  0  0
  184.6190  177.1300  138.0260 C   0  0  0  0  0  3  0  0  0  0  0  0
  182.1790  176.0670  137.4240 Cl  0  0  0  0  0  0  0  0  0  0  0  0
  184.6310  174.9390  137.0010 C   0  0  0  0  0  3  0  0  0  0  0  0
  183.9280  176.0430  137.4870 C   0  0  0  0  0  0  0  0  0  0  0  0
  186.0280  174.9230  137.0550 C   0  0  0  0  0  3  0  0  0  0  0  0
  186.7880  178.8180  147.5890 C   0  0  0  0  0  1  0  0  0  0  0  0
  186.0560  179.3830  146.3860 C   0  0  0  0  0  2  0  0  0  0  0  0
  1  4  1  0  0  0  0
  2 14  1  0  0  0  0
  2 24  1  0  0  0  0
  3  7  1  0  0  0  0
  3  9  1  0  0  0  0
  4 37  1  0  0  0  0
  5 19  1  0  0  0  0
  6 22  1  0  0  0  0
  7 21  2  0  0  0  0
  8 26  1  6  0  0  0
  8 12  1  0  0  0  0
  9  6  2  0  0  0  0
  9 13  1  0  0  0  0
 10  5  1  1  0  0  0
 10  7  1  0  0  0  0
 11  6  1  0  0  0  0
 12  4  1  0  0  0  0
 13 17  1  0  0  0  0
 15 20  1  0  0  0  0
 16 20  1  0  0  0  0
 16 11  2  0  0  0  0
 17  2  1  0  0  0  0
 18  8  1  0  0  0  0
 19 25  1  0  0  0  0
 19 18  1  0  0  0  0
 20  3  2  0  0  0  0
 21 13  1  0  0  0  0
 21 27  1  0  0  0  0
 22  2  1  0  0  0  0
 23 10  1  0  0  0  0
 25 18  1  0  0  0  0
 25 27  1  0  0  0  0
 27  1  1  0  0  0  0
 28 15  2  0  0  0  0
 28 23  1  0  0  0  0
 29 30  1  0  0  0  0
 30 23  1  0  0  0  0
 31 30  2  0  0  0  0
 32 34  1  0  0  0  0
 33 35  1  0  0  0  0
 33 34  2  0  0  0  0
 34 31  1  0  0  0  0
 35 29  2  0  0  0  0
 37 36  1  0  0  0  0
M  END
>  <MODEL>
9

>  <REMARK>
 VINA RESULT:      -5.2      3.985      7.970
  Name = 
  2 active torsions:
  status: ('A' for Active; 'I' for Inactive)
    1  A    between atoms: N_4  and  C_37
    2  A    between atoms: N_23  and  C_30
                            x       y       z     vdW  Elec       q    Type
                         _______ _______ _______ _____ _____    ______ ____

>  <TORSDO>
F 2

$$$$
