=
 OpenBabel11122410493D

 32 37  0  0  1  0  0  0  0  0999 V2000
  189.9340  176.0370  136.6270 C   0  0  0  0  0  2  0  0  0  0  0  0
  189.4750  177.6410  141.8970 C   0  0  2  0  0  3  0  0  0  0  0  0
  184.5900  179.0700  142.1680 C   0  0  0  0  0  2  0  0  0  0  0  0
  184.4960  178.3010  143.4710 C   0  0  0  0  0  2  0  0  0  0  0  0
  190.5240  176.7870  144.0880 C   0  0  0  0  0  0  0  0  0  0  0  0
  190.2790  176.6180  145.5540 C   0  0  1  0  0  3  0  0  0  0  0  0
  190.1790  176.8420  139.6860 C   0  0  0  0  0  0  0  0  0  0  0  0
  188.1710  178.3590  139.8300 C   0  0  0  0  0  2  0  0  0  0  0  0
  189.5950  177.5850  147.4730 C   0  0  2  0  0  3  0  0  0  0  0  0
  189.2900  178.1000  137.6210 C   0  0  0  0  0  2  0  0  0  0  0  0
  185.6830  178.4460  141.3100 C   0  0  0  0  0  2  0  0  0  0  0  0
  188.2090  178.0870  141.2760 N   0  0  0  0  0  0  0  0  0  0  0  0
  186.9970  178.2850  142.0470 C   0  0  0  0  0  0  0  0  0  0  0  0
  188.3520  178.0530  144.0800 C   0  0  1  0  0  3  0  0  0  0  0  0
  190.9660  176.9500  147.6960 C   0  0  0  0  0  2  0  0  0  0  0  0
  191.1760  176.0750  137.5250 C   0  0  0  0  0  2  0  0  0  0  0  0
  189.5130  178.0970  139.1330 C   0  0  2  0  0  3  0  0  0  0  0  0
  191.4640  176.5200  146.3860 N   0  0  0  0  0  2  0  0  0  0  0  0
  190.8380  175.8870  138.8940 O   0  0  0  0  0  0  0  0  0  0  0  0
  188.8120  176.7950  137.1820 N   0  0  0  0  0  0  0  0  0  0  0  0
  185.7980  178.4710  144.2410 C   0  0  0  0  0  2  0  0  0  0  0  0
  187.0240  178.1960  143.3980 C   0  0  0  0  0  0  0  0  0  0  0  0
  188.2270  177.6690  145.4950 N   0  0  0  0  0  2  0  0  0  0  0  0
  190.1390  176.6370  141.0000 C   0  0  0  0  0  3  0  0  0  0  0  0
  191.5050  176.1700  143.5390 N   0  0  0  0  0  2  0  0  0  0  0  0
  188.5190  176.6490  148.0260 C   0  0  0  0  0  1  0  0  0  0  0  0
  189.2500  177.0670  143.3030 C   0  0  1  0  0  3  0  0  0  0  0  0
  189.5270  177.7560  146.0280 N   0  0  2  0  0  0  0  0  0  0  0  0
  187.8780  177.0320  136.0940 C   0  0  0  0  0  2  0  0  0  0  0  0
  186.5040  176.4940  136.4570 C   0  0  0  0  0  3  0  0  0  0  0  0
  185.7910  176.0540  135.1960 C   0  0  0  0  0  1  0  0  0  0  0  0
  185.6840  177.5710  137.1430 C   0  0  0  0  0  1  0  0  0  0  0  0
  1 20  1  0  0  0  0
  1 16  1  0  0  0  0
  2 24  1  6  0  0  0
  2 27  1  0  0  0  0
  3  4  1  0  0  0  0
  4 21  1  0  0  0  0
  6  5  1  6  0  0  0
  6 28  1  0  0  0  0
  6 18  1  0  0  0  0
  7 24  2  0  0  0  0
  8 12  1  0  0  0  0
  9 15  1  0  0  0  0
  9 26  1  6  0  0  0
 11 13  1  0  0  0  0
 11  3  1  0  0  0  0
 12  2  1  0  0  0  0
 12 13  1  0  0  0  0
 13 22  2  0  0  0  0
 14 22  1  6  0  0  0
 14 23  1  0  0  0  0
 16 19  1  0  0  0  0
 17 10  1  6  0  0  0
 17  7  1  0  0  0  0
 17  8  1  0  0  0  0
 18 15  1  0  0  0  0
 19  7  1  0  0  0  0
 20 10  1  0  0  0  0
 22 21  1  0  0  0  0
 25  5  2  0  0  0  0
 27 14  1  0  0  0  0
 27  5  1  1  0  0  0
 28 23  1  6  0  0  0
 28  9  1  0  0  0  0
 29 30  1  0  0  0  0
 29 20  1  0  0  0  0
 30 32  1  0  0  0  0
 31 30  1  0  0  0  0
M  END
>  <MODEL>
1

>  <REMARK>
 VINA RESULT:      -9.9      0.000      0.000
  Name = 
  2 active torsions:
  status: ('A' for Active; 'I' for Inactive)
    1  A    between atoms: N_20  and  C_29
    2  A    between atoms: C_29  and  C_30
                            x       y       z     vdW  Elec       q    Type
                         _______ _______ _______ _____ _____    ______ ____

>  <TORSDO>
F 2

$$$$
=
 OpenBabel11122410493D

 32 37  0  0  1  0  0  0  0  0999 V2000
  192.0560  177.7960  142.7920 C   0  0  0  0  0  2  0  0  0  0  0  0
  186.6240  177.6840  141.7740 C   0  0  2  0  0  3  0  0  0  0  0  0
  184.6420  178.2530  146.4350 C   0  0  0  0  0  2  0  0  0  0  0  0
  183.6870  179.2710  145.8430 C   0  0  0  0  0  2  0  0  0  0  0  0
  185.1870  178.5530  139.8230 C   0  0  0  0  0  0  0  0  0  0  0  0
  183.8470  179.1210  139.4740 C   0  0  1  0  0  3  0  0  0  0  0  0
  189.0770  177.6560  141.7100 C   0  0  0  0  0  0  0  0  0  0  0  0
  187.9270  177.0580  143.8720 C   0  0  0  0  0  2  0  0  0  0  0  0
  181.6090  178.9250  139.6710 C   0  0  2  0  0  3  0  0  0  0  0  0
  190.3080  176.3900  143.5850 C   0  0  0  0  0  2  0  0  0  0  0  0
  185.9090  178.2230  145.5910 C   0  0  0  0  0  2  0  0  0  0  0  0
  186.7130  177.6100  143.2490 N   0  0  0  0  0  0  0  0  0  0  0  0
  185.6330  178.0480  144.1120 C   0  0  0  0  0  0  0  0  0  0  0  0
  184.2150  178.2090  142.1150 C   0  0  1  0  0  3  0  0  0  0  0  0
  181.9710  179.0430  138.1920 C   0  0  0  0  0  2  0  0  0  0  0  0
  191.5500  177.5030  141.3750 C   0  0  0  0  0  2  0  0  0  0  0  0
  188.9940  176.6450  142.8490 C   0  0  2  0  0  3  0  0  0  0  0  0
  183.4310  178.9570  138.0940 N   0  0  0  0  0  2  0  0  0  0  0  0
  190.2810  178.1000  141.1380 O   0  0  0  0  0  0  0  0  0  0  0  0
  191.0120  177.6480  143.8070 N   0  0  0  0  0  0  0  0  0  0  0  0
  183.2690  178.8080  144.4550 C   0  0  0  0  0  2  0  0  0  0  0  0
  184.4430  178.4180  143.5840 C   0  0  0  0  0  0  0  0  0  0  0  0
  183.0230  178.9150  141.6190 N   0  0  0  0  0  2  0  0  0  0  0  0
  187.9400  178.1470  141.2220 C   0  0  0  0  0  3  0  0  0  0  0  0
  186.1420  178.6280  138.9710 N   0  0  0  0  0  2  0  0  0  0  0  0
  181.1360  180.2880  140.1760 C   0  0  0  0  0  1  0  0  0  0  0  0
  185.4770  178.5970  141.3170 C   0  0  1  0  0  3  0  0  0  0  0  0
  182.8480  178.4750  140.2920 N   0  0  2  0  0  0  0  0  0  0  0  0
  191.6800  177.5360  145.0920 C   0  0  0  0  0  2  0  0  0  0  0  0
  191.0100  176.4670  145.9390 C   0  0  0  0  0  3  0  0  0  0  0  0
  190.0660  177.1270  146.9210 C   0  0  0  0  0  1  0  0  0  0  0  0
  192.0530  175.6760  146.7050 C   0  0  0  0  0  1  0  0  0  0  0  0
  1 20  1  0  0  0  0
  2 24  1  1  0  0  0
  2 12  1  0  0  0  0
  4  3  1  0  0  0  0
  6 18  1  6  0  0  0
  6  5  1  0  0  0  0
  6 28  1  0  0  0  0
  7 17  1  0  0  0  0
  9 26  1  1  0  0  0
  9 28  1  0  0  0  0
 10 20  1  0  0  0  0
 11  3  1  0  0  0  0
 12  8  1  0  0  0  0
 12 13  1  0  0  0  0
 13 11  1  0  0  0  0
 14 23  1  6  0  0  0
 14 22  1  0  0  0  0
 15  9  1  0  0  0  0
 16  1  1  0  0  0  0
 17 10  1  1  0  0  0
 17  8  1  0  0  0  0
 18 15  1  0  0  0  0
 19 16  1  0  0  0  0
 19  7  1  0  0  0  0
 20 29  1  0  0  0  0
 21  4  1  0  0  0  0
 22 13  2  0  0  0  0
 22 21  1  0  0  0  0
 24  7  2  0  0  0  0
 25  5  2  0  0  0  0
 27  5  1  6  0  0  0
 27  2  1  0  0  0  0
 27 14  1  0  0  0  0
 28 23  1  1  0  0  0
 29 30  1  0  0  0  0
 30 32  1  0  0  0  0
 30 31  1  0  0  0  0
M  END
>  <MODEL>
2

>  <REMARK>
 VINA RESULT:      -9.1      2.631      7.310
  Name = 
  2 active torsions:
  status: ('A' for Active; 'I' for Inactive)
    1  A    between atoms: N_20  and  C_29
    2  A    between atoms: C_29  and  C_30
                            x       y       z     vdW  Elec       q    Type
                         _______ _______ _______ _____ _____    ______ ____

>  <TORSDO>
F 2

$$$$
=
 OpenBabel11122410493D

 32 37  0  0  1  0  0  0  0  0999 V2000
  179.5640  180.7170  141.5870 C   0  0  0  0  0  2  0  0  0  0  0  0
  184.2080  178.2530  143.2920 C   0  0  2  0  0  3  0  0  0  0  0  0
  187.0040  178.1580  139.0310 C   0  0  0  0  0  2  0  0  0  0  0  0
  188.1790  178.6410  139.8580 C   0  0  0  0  0  2  0  0  0  0  0  0
  185.5240  178.3290  145.5030 C   0  0  0  0  0  0  0  0  0  0  0  0
  186.8980  178.2540  146.0890 C   0  0  1  0  0  3  0  0  0  0  0  0
  181.9900  179.2690  143.0280 C   0  0  0  0  0  0  0  0  0  0  0  0
  183.1380  178.3470  140.9810 C   0  0  0  0  0  2  0  0  0  0  0  0
  188.8550  177.1340  146.1670 C   0  0  2  0  0  3  0  0  0  0  0  0
  180.6820  178.7430  140.8720 C   0  0  0  0  0  2  0  0  0  0  0  0
  185.7150  178.6280  139.6920 C   0  0  0  0  0  2  0  0  0  0  0  0
  184.3470  178.2980  141.8200 N   0  0  0  0  0  0  0  0  0  0  0  0
  185.6400  178.2780  141.1630 C   0  0  0  0  0  0  0  0  0  0  0  0
  186.6400  177.7190  143.3340 C   0  0  1  0  0  3  0  0  0  0  0  0
  188.3290  177.3200  147.5890 C   0  0  0  0  0  2  0  0  0  0  0  0
  179.6560  180.1660  143.0140 C   0  0  0  0  0  2  0  0  0  0  0  0
  181.8400  178.3780  141.8000 C   0  0  2  0  0  3  0  0  0  0  0  0
  186.9710  177.8600  147.4840 N   0  0  0  0  0  2  0  0  0  0  0  0
  180.9990  180.1530  143.4840 O   0  0  0  0  0  0  0  0  0  0  0  0
  180.6080  180.1900  140.7080 N   0  0  0  0  0  0  0  0  0  0  0  0
  188.1280  177.9760  141.2260 C   0  0  0  0  0  2  0  0  0  0  0  0
  186.7690  178.0790  141.8830 C   0  0  0  0  0  0  0  0  0  0  0  0
  187.9130  177.8250  144.0630 N   0  0  0  0  0  2  0  0  0  0  0  0
  183.1280  179.2040  143.7150 C   0  0  0  0  0  3  0  0  0  0  0  0
  184.5550  178.7600  146.2250 N   0  0  0  0  0  2  0  0  0  0  0  0
  189.9260  178.1900  145.8920 C   0  0  0  0  0  1  0  0  0  0  0  0
  185.5340  178.5670  143.9990 C   0  0  1  0  0  3  0  0  0  0  0  0
  187.6650  177.2870  145.3400 N   0  0  2  0  0  0  0  0  0  0  0  0
  180.1810  180.4390  139.3420 C   0  0  0  0  0  2  0  0  0  0  0  0
  181.3800  180.7800  138.4730 C   0  0  0  0  0  3  0  0  0  0  0  0
  181.1810  182.1500  137.8620 C   0  0  0  0  0  1  0  0  0  0  0  0
  181.5300  179.7560  137.3630 C   0  0  0  0  0  1  0  0  0  0  0  0
  1 16  1  0  0  0  0
  2 24  1  1  0  0  0
  2 27  1  0  0  0  0
  3 11  1  0  0  0  0
  3  4  1  0  0  0  0
  4 21  1  0  0  0  0
  5 25  2  0  0  0  0
  6  5  1  6  0  0  0
  6 18  1  0  0  0  0
  7 19  1  0  0  0  0
  7 24  2  0  0  0  0
  8 17  1  0  0  0  0
  8 12  1  0  0  0  0
  9 26  1  6  0  0  0
  9 15  1  0  0  0  0
 11 13  1  0  0  0  0
 12  2  1  0  0  0  0
 13 12  1  0  0  0  0
 13 22  2  0  0  0  0
 14 22  1  6  0  0  0
 14 27  1  0  0  0  0
 14 23  1  0  0  0  0
 16 19  1  0  0  0  0
 17 10  1  6  0  0  0
 17  7  1  0  0  0  0
 18 15  1  0  0  0  0
 20 10  1  0  0  0  0
 20  1  1  0  0  0  0
 21 22  1  0  0  0  0
 27  5  1  1  0  0  0
 28 23  1  6  0  0  0
 28  6  1  0  0  0  0
 28  9  1  0  0  0  0
 29 20  1  0  0  0  0
 30 29  1  0  0  0  0
 31 30  1  0  0  0  0
 32 30  1  0  0  0  0
M  END
>  <MODEL>
3

>  <REMARK>
 VINA RESULT:      -9.0      3.829      6.588
  Name = 
  2 active torsions:
  status: ('A' for Active; 'I' for Inactive)
    1  A    between atoms: N_20  and  C_29
    2  A    between atoms: C_29  and  C_30
                            x       y       z     vdW  Elec       q    Type
                         _______ _______ _______ _____ _____    ______ ____

>  <TORSDO>
F 2

$$$$
=
 OpenBabel11122410493D

 32 37  0  0  1  0  0  0  0  0999 V2000
  190.6460  175.9340  137.2990 C   0  0  0  0  0  2  0  0  0  0  0  0
  188.1030  178.1340  141.6860 C   0  0  2  0  0  3  0  0  0  0  0  0
  183.4940  179.2440  139.8160 C   0  0  0  0  0  2  0  0  0  0  0  0
  182.9000  178.6360  141.0700 C   0  0  0  0  0  2  0  0  0  0  0  0
  188.2050  177.6300  144.2080 C   0  0  0  0  0  0  0  0  0  0  0  0
  187.3990  177.6240  145.4690 C   0  0  1  0  0  3  0  0  0  0  0  0
  189.6410  177.1220  140.0630 C   0  0  0  0  0  0  0  0  0  0  0  0
  187.7190  178.5030  139.1950 C   0  0  0  0  0  2  0  0  0  0  0  0
  185.9930  178.7690  146.8100 C   0  0  2  0  0  3  0  0  0  0  0  0
  189.6290  178.0530  137.6620 C   0  0  0  0  0  2  0  0  0  0  0  0
  184.8470  178.5980  139.5520 C   0  0  0  0  0  2  0  0  0  0  0  0
  187.1820  178.4120  140.5620 N   0  0  0  0  0  0  0  0  0  0  0  0
  185.7610  178.6200  140.7600 C   0  0  0  0  0  0  0  0  0  0  0  0
  186.1980  178.7310  143.1720 C   0  0  1  0  0  3  0  0  0  0  0  0
  187.1720  178.2620  147.6390 C   0  0  0  0  0  2  0  0  0  0  0  0
  191.4270  176.1670  138.5970 C   0  0  0  0  0  2  0  0  0  0  0  0
  189.2320  178.2510  139.1240 C   0  0  2  0  0  3  0  0  0  0  0  0
  188.1560  177.7110  146.7030 N   0  0  0  0  0  2  0  0  0  0  0  0
  190.5750  176.1250  139.7360 O   0  0  0  0  0  0  0  0  0  0  0  0
  189.3850  176.6740  137.2570 N   0  0  0  0  0  0  0  0  0  0  0  0
  183.7850  178.9890  142.2580 C   0  0  0  0  0  2  0  0  0  0  0  0
  185.2490  178.6980  142.0110 C   0  0  0  0  0  0  0  0  0  0  0  0
  185.5250  178.5160  144.4630 N   0  0  0  0  0  2  0  0  0  0  0  0
  189.0840  177.0770  141.2710 C   0  0  0  0  0  3  0  0  0  0  0  0
  189.3330  177.0190  144.1810 N   0  0  0  0  0  2  0  0  0  0  0  0
  184.8010  177.8360  147.0210 C   0  0  0  0  0  1  0  0  0  0  0  0
  187.3450  177.7220  142.9560 C   0  0  1  0  0  3  0  0  0  0  0  0
  186.5050  178.7570  145.4460 N   0  0  2  0  0  0  0  0  0  0  0  0
  188.9590  176.7110  135.8680 C   0  0  0  0  0  2  0  0  0  0  0  0
  187.5700  176.1080  135.7310 C   0  0  0  0  0  3  0  0  0  0  0  0
  186.6080  177.1740  135.2520 C   0  0  0  0  0  1  0  0  0  0  0  0
  187.0960  175.5740  137.0700 C   0  0  0  0  0  1  0  0  0  0  0  0
  1 16  1  0  0  0  0
  2 24  1  6  0  0  0
  2 27  1  0  0  0  0
  3  4  1  0  0  0  0
  4 21  1  0  0  0  0
  6  5  1  6  0  0  0
  6 18  1  0  0  0  0
  7 24  2  0  0  0  0
  8 12  1  0  0  0  0
  9 26  1  6  0  0  0
  9 15  1  0  0  0  0
 11  3  1  0  0  0  0
 11 13  1  0  0  0  0
 12 13  1  0  0  0  0
 12  2  1  0  0  0  0
 13 22  2  0  0  0  0
 14 22  1  6  0  0  0
 14 23  1  0  0  0  0
 16 19  1  0  0  0  0
 17 10  1  6  0  0  0
 17  8  1  0  0  0  0
 17  7  1  0  0  0  0
 18 15  1  0  0  0  0
 19  7  1  0  0  0  0
 20  1  1  0  0  0  0
 20 10  1  0  0  0  0
 22 21  1  0  0  0  0
 25  5  2  0  0  0  0
 27 14  1  0  0  0  0
 27  5  1  1  0  0  0
 28 23  1  6  0  0  0
 28  6  1  0  0  0  0
 28  9  1  0  0  0  0
 29 20  1  0  0  0  0
 30 29  1  0  0  0  0
 30 32  1  0  0  0  0
 31 30  1  0  0  0  0
M  END
>  <MODEL>
4

>  <REMARK>
 VINA RESULT:      -8.9      1.635      2.287
  Name = 
  2 active torsions:
  status: ('A' for Active; 'I' for Inactive)
    1  A    between atoms: N_20  and  C_29
    2  A    between atoms: C_29  and  C_30
                            x       y       z     vdW  Elec       q    Type
                         _______ _______ _______ _____ _____    ______ ____

>  <TORSDO>
F 2

$$$$
=
 OpenBabel11122410493D

 32 37  0  0  1  0  0  0  0  0999 V2000
  191.5040  177.8600  140.7130 C   0  0  0  0  0  2  0  0  0  0  0  0
  186.1110  177.7790  141.9260 C   0  0  2  0  0  3  0  0  0  0  0  0
  186.1510  177.9490  147.0200 C   0  0  0  0  0  2  0  0  0  0  0  0
  185.0640  179.0030  146.9380 C   0  0  0  0  0  2  0  0  0  0  0  0
  184.0400  178.7910  140.7800 C   0  0  0  0  0  0  0  0  0  0  0  0
  182.6860  179.3730  141.0360 C   0  0  1  0  0  3  0  0  0  0  0  0
  188.3380  177.7800  140.8930 C   0  0  0  0  0  0  0  0  0  0  0  0
  188.1230  176.9970  143.2800 C   0  0  0  0  0  2  0  0  0  0  0  0
  180.7050  179.1400  142.0890 C   0  0  2  0  0  3  0  0  0  0  0  0
  190.1800  176.3780  142.0210 C   0  0  0  0  0  2  0  0  0  0  0  0
  186.9790  178.0000  145.7430 C   0  0  0  0  0  2  0  0  0  0  0  0
  186.7750  177.5870  143.2340 N   0  0  0  0  0  0  0  0  0  0  0  0
  186.1360  177.9430  144.4860 C   0  0  0  0  0  0  0  0  0  0  0  0
  184.0480  178.2530  143.2350 C   0  0  1  0  0  3  0  0  0  0  0  0
  180.4550  179.3810  140.6010 C   0  0  0  0  0  2  0  0  0  0  0  0
  190.4720  177.6780  139.5940 C   0  0  0  0  0  2  0  0  0  0  0  0
  188.6890  176.6800  141.8880 C   0  0  2  0  0  3  0  0  0  0  0  0
  181.7540  179.3180  139.9260 N   0  0  0  0  0  2  0  0  0  0  0  0
  189.2270  178.2800  139.9270 O   0  0  0  0  0  0  0  0  0  0  0  0
  190.9440  177.6200  142.0430 N   0  0  0  0  0  0  0  0  0  0  0  0
  184.1200  178.6500  145.7970 C   0  0  0  0  0  2  0  0  0  0  0  0
  184.8430  178.3430  144.5040 C   0  0  0  0  0  0  0  0  0  0  0  0
  182.7740  178.9850  143.3080 N   0  0  0  0  0  2  0  0  0  0  0  0
  187.1120  178.2980  140.9360 C   0  0  0  0  0  3  0  0  0  0  0  0
  184.5820  178.9440  139.6270 N   0  0  0  0  0  2  0  0  0  0  0  0
  180.5020  180.4530  142.8450 C   0  0  0  0  0  1  0  0  0  0  0  0
  184.8990  178.7160  142.0340 C   0  0  1  0  0  3  0  0  0  0  0  0
  182.0780  178.6540  142.1300 N   0  0  2  0  0  0  0  0  0  0  0  0
  192.0640  177.4110  142.9450 C   0  0  0  0  0  2  0  0  0  0  0  0
  191.8620  178.2080  144.2230 C   0  0  0  0  0  3  0  0  0  0  0  0
  191.2580  177.3110  145.2820 C   0  0  0  0  0  1  0  0  0  0  0  0
  190.9290  179.3780  143.9690 C   0  0  0  0  0  1  0  0  0  0  0  0
  1 20  1  0  0  0  0
  2 24  1  6  0  0  0
  2 27  1  0  0  0  0
  2 12  1  0  0  0  0
  4  3  1  0  0  0  0
  5  6  1  0  0  0  0
  6 18  1  6  0  0  0
  6 28  1  0  0  0  0
  7 24  2  0  0  0  0
  7 17  1  0  0  0  0
  9 28  1  0  0  0  0
  9 26  1  1  0  0  0
 10 20  1  0  0  0  0
 11  3  1  0  0  0  0
 12  8  1  0  0  0  0
 12 13  1  0  0  0  0
 13 22  2  0  0  0  0
 13 11  1  0  0  0  0
 14 23  1  1  0  0  0
 14 22  1  0  0  0  0
 15  9  1  0  0  0  0
 16 19  1  0  0  0  0
 16  1  1  0  0  0  0
 17 10  1  1  0  0  0
 17  8  1  0  0  0  0
 18 15  1  0  0  0  0
 19  7  1  0  0  0  0
 20 29  1  0  0  0  0
 21  4  1  0  0  0  0
 22 21  1  0  0  0  0
 25  5  2  0  0  0  0
 27  5  1  6  0  0  0
 27 14  1  0  0  0  0
 28 23  1  1  0  0  0
 29 30  1  0  0  0  0
 30 31  1  0  0  0  0
 32 30  1  0  0  0  0
M  END
>  <MODEL>
5

>  <REMARK>
 VINA RESULT:      -8.9      2.913      6.818
  Name = 
  2 active torsions:
  status: ('A' for Active; 'I' for Inactive)
    1  A    between atoms: N_20  and  C_29
    2  A    between atoms: C_29  and  C_30
                            x       y       z     vdW  Elec       q    Type
                         _______ _______ _______ _____ _____    ______ ____

>  <TORSDO>
F 2

$$$$
=
 OpenBabel11122410493D

 32 37  0  0  1  0  0  0  0  0999 V2000
  189.5690  176.5830  146.6270 C   0  0  0  0  0  2  0  0  0  0  0  0
  186.2620  178.6270  142.6970 C   0  0  2  0  0  3  0  0  0  0  0  0
  189.0310  177.9090  138.4790 C   0  0  0  0  0  2  0  0  0  0  0  0
  187.7760  177.3780  137.8130 C   0  0  0  0  0  2  0  0  0  0  0  0
  183.7080  178.6320  142.3830 C   0  0  0  0  0  0  0  0  0  0  0  0
  182.6210  178.6000  141.3550 C   0  0  1  0  0  3  0  0  0  0  0  0
  187.3470  177.8700  144.7650 C   0  0  0  0  0  0  0  0  0  0  0  0
  188.8000  178.4130  142.7770 C   0  0  0  0  0  2  0  0  0  0  0  0
  181.8170  179.4720  139.4360 C   0  0  2  0  0  3  0  0  0  0  0  0
  189.8710  178.3130  145.0230 C   0  0  0  0  0  2  0  0  0  0  0  0
  188.9240  177.6770  139.9800 C   0  0  0  0  0  2  0  0  0  0  0  0
  187.5490  178.4040  142.0020 N   0  0  0  0  0  0  0  0  0  0  0  0
  187.6280  178.1930  140.5700 C   0  0  0  0  0  0  0  0  0  0  0  0
  185.2690  178.8580  140.4260 C   0  0  1  0  0  3  0  0  0  0  0  0
  180.7210  179.5090  140.4990 C   0  0  0  0  0  2  0  0  0  0  0  0
  188.2560  177.2710  147.0160 C   0  0  0  0  0  2  0  0  0  0  0  0
  188.5750  178.6330  144.2800 C   0  0  2  0  0  3  0  0  0  0  0  0
  181.3380  179.1330  141.7740 N   0  0  0  0  0  2  0  0  0  0  0  0
  187.2850  177.1700  145.9810 O   0  0  0  0  0  0  0  0  0  0  0  0
  189.9770  176.8770  145.2530 N   0  0  0  0  0  0  0  0  0  0  0  0
  186.5810  178.1910  138.2910 C   0  0  0  0  0  2  0  0  0  0  0  0
  186.5240  178.3290  139.7970 C   0  0  0  0  0  0  0  0  0  0  0  0
  184.0850  178.6760  139.5740 N   0  0  0  0  0  2  0  0  0  0  0  0
  186.2630  177.8690  143.9920 C   0  0  0  0  0  3  0  0  0  0  0  0
  183.4170  178.4050  143.6120 N   0  0  0  0  0  2  0  0  0  0  0  0
  181.5820  178.2690  138.5230 C   0  0  0  0  0  1  0  0  0  0  0  0
  185.0650  178.2320  141.8220 C   0  0  1  0  0  3  0  0  0  0  0  0
  183.0450  179.3780  140.2150 N   0  0  2  0  0  0  0  0  0  0  0  0
  191.3850  176.5350  145.1440 C   0  0  0  0  0  2  0  0  0  0  0  0
  191.6800  175.9690  143.7650 C   0  0  0  0  0  3  0  0  0  0  0  0
  192.0550  177.1000  142.8310 C   0  0  0  0  0  1  0  0  0  0  0  0
  190.4580  175.2560  143.2180 C   0  0  0  0  0  1  0  0  0  0  0  0
  1 16  1  0  0  0  0
  2 24  1  1  0  0  0
  3 11  1  0  0  0  0
  4 21  1  0  0  0  0
  4  3  1  0  0  0  0
  5 25  2  0  0  0  0
  6 18  1  1  0  0  0
  6  5  1  0  0  0  0
  7 19  1  0  0  0  0
  9 26  1  6  0  0  0
  9 28  1  0  0  0  0
  9 15  1  0  0  0  0
 10 20  1  0  0  0  0
 11 13  1  0  0  0  0
 12  2  1  0  0  0  0
 12  8  1  0  0  0  0
 13 12  1  0  0  0  0
 14 23  1  6  0  0  0
 14 27  1  0  0  0  0
 15 18  1  0  0  0  0
 17  8  1  6  0  0  0
 17  7  1  0  0  0  0
 17 10  1  0  0  0  0
 19 16  1  0  0  0  0
 20  1  1  0  0  0  0
 21 22  1  0  0  0  0
 22 14  1  0  0  0  0
 22 13  2  0  0  0  0
 24  7  2  0  0  0  0
 27  5  1  1  0  0  0
 27  2  1  0  0  0  0
 28 23  1  6  0  0  0
 28  6  1  0  0  0  0
 29 20  1  0  0  0  0
 30 29  1  0  0  0  0
 31 30  1  0  0  0  0
 32 30  1  0  0  0  0
M  END
>  <MODEL>
6

>  <REMARK>
 VINA RESULT:      -7.9      2.989      7.749
  Name = 
  2 active torsions:
  status: ('A' for Active; 'I' for Inactive)
    1  A    between atoms: N_20  and  C_29
    2  A    between atoms: C_29  and  C_30
                            x       y       z     vdW  Elec       q    Type
                         _______ _______ _______ _____ _____    ______ ____

>  <TORSDO>
F 2

$$$$
=
 OpenBabel11122410493D

 32 37  0  0  1  0  0  0  0  0999 V2000
  189.6150  176.5670  143.9550 C   0  0  0  0  0  2  0  0  0  0  0  0
  185.0160  178.7890  141.8400 C   0  0  2  0  0  3  0  0  0  0  0  0
  185.5590  177.8510  136.8590 C   0  0  0  0  0  2  0  0  0  0  0  0
  184.1120  177.3980  136.8440 C   0  0  0  0  0  2  0  0  0  0  0  0
  182.5950  178.9590  142.6980 C   0  0  0  0  0  0  0  0  0  0  0  0
  181.1640  178.9890  142.2650 C   0  0  1  0  0  3  0  0  0  0  0  0
  186.8680  177.9810  143.2330 C   0  0  0  0  0  0  0  0  0  0  0  0
  187.3050  178.4090  140.7870 C   0  0  0  0  0  2  0  0  0  0  0  0
  179.6350  179.8940  140.8760 C   0  0  2  0  0  3  0  0  0  0  0  0
  189.2610  178.2590  142.3210 C   0  0  0  0  0  2  0  0  0  0  0  0
  186.1230  177.6400  138.2580 C   0  0  0  0  0  2  0  0  0  0  0  0
  185.8410  178.4750  140.6520 N   0  0  0  0  0  0  0  0  0  0  0  0
  185.2580  178.2460  139.3450 C   0  0  0  0  0  0  0  0  0  0  0  0
  183.1260  179.0640  140.2440 C   0  0  1  0  0  3  0  0  0  0  0  0
  179.1340  180.0140  142.3140 C   0  0  0  0  0  2  0  0  0  0  0  0
  188.6550  177.3440  144.8620 C   0  0  0  0  0  2  0  0  0  0  0  0
  187.7890  178.6560  142.2230 C   0  0  2  0  0  3  0  0  0  0  0  0
  180.2360  179.6090  143.1920 N   0  0  0  0  0  2  0  0  0  0  0  0
  187.3190  177.2970  144.3740 O   0  0  0  0  0  0  0  0  0  0  0  0
  189.3800  176.8220  142.5330 N   0  0  0  0  0  0  0  0  0  0  0  0
  183.3040  178.2920  137.7740 C   0  0  0  0  0  2  0  0  0  0  0  0
  183.9350  178.4470  139.1410 C   0  0  0  0  0  0  0  0  0  0  0  0
  181.6770  178.9530  140.0170 N   0  0  0  0  0  2  0  0  0  0  0  0
  185.5550  178.0440  143.0260 C   0  0  0  0  0  3  0  0  0  0  0  0
  182.8740  178.7630  143.9350 N   0  0  0  0  0  2  0  0  0  0  0  0
  178.9510  178.7010  140.2090 C   0  0  0  0  0  1  0  0  0  0  0  0
  183.5340  178.4650  141.6060 C   0  0  1  0  0  3  0  0  0  0  0  0
  181.0750  179.7270  141.0280 N   0  0  2  0  0  0  0  0  0  0  0  0
  190.5690  176.3860  141.8210 C   0  0  0  0  0  2  0  0  0  0  0  0
  190.7810  177.2450  140.5850 C   0  0  0  0  0  3  0  0  0  0  0  0
  190.2240  176.5260  139.3750 C   0  0  0  0  0  1  0  0  0  0  0  0
  192.2610  177.5030  140.3740 C   0  0  0  0  0  1  0  0  0  0  0  0
  1 16  1  0  0  0  0
  2 24  1  1  0  0  0
  3 11  1  0  0  0  0
  4  3  1  0  0  0  0
  4 21  1  0  0  0  0
  5 25  2  0  0  0  0
  6  5  1  1  0  0  0
  6 18  1  0  0  0  0
  7 19  1  0  0  0  0
  9 26  1  1  0  0  0
  9 28  1  0  0  0  0
  9 15  1  0  0  0  0
 10 20  1  0  0  0  0
 11 13  1  0  0  0  0
 12  8  1  0  0  0  0
 12  2  1  0  0  0  0
 13 12  1  0  0  0  0
 14 22  1  6  0  0  0
 14 27  1  0  0  0  0
 15 18  1  0  0  0  0
 17  8  1  6  0  0  0
 17 10  1  0  0  0  0
 17  7  1  0  0  0  0
 19 16  1  0  0  0  0
 20  1  1  0  0  0  0
 21 22  1  0  0  0  0
 22 13  2  0  0  0  0
 23 14  1  0  0  0  0
 24  7  2  0  0  0  0
 27  2  1  0  0  0  0
 27  5  1  1  0  0  0
 28 23  1  6  0  0  0
 28  6  1  0  0  0  0
 29 20  1  0  0  0  0
 30 29  1  0  0  0  0
 31 30  1  0  0  0  0
 32 30  1  0  0  0  0
M  END
>  <MODEL>
7

>  <REMARK>
 VINA RESULT:      -7.7      3.578      7.457
  Name = 
  2 active torsions:
  status: ('A' for Active; 'I' for Inactive)
    1  A    between atoms: N_20  and  C_29
    2  A    between atoms: C_29  and  C_30
                            x       y       z     vdW  Elec       q    Type
                         _______ _______ _______ _____ _____    ______ ____

>  <TORSDO>
F 2

$$$$
=
 OpenBabel11122410493D

 32 37  0  0  1  0  0  0  0  0999 V2000
  181.6630  177.9180  137.6720 C   0  0  0  0  0  2  0  0  0  0  0  0
  186.3650  178.5500  140.5080 C   0  0  2  0  0  3  0  0  0  0  0  0
  184.7150  178.6200  145.3300 C   0  0  0  0  0  2  0  0  0  0  0  0
  185.8430  177.6680  145.6710 C   0  0  0  0  0  2  0  0  0  0  0  0
  188.7600  177.6780  140.1490 C   0  0  0  0  0  0  0  0  0  0  0  0
  190.0000  177.2360  140.8600 C   0  0  1  0  0  3  0  0  0  0  0  0
  184.5910  178.2960  138.8310 C   0  0  0  0  0  0  0  0  0  0  0  0
  183.9760  179.2080  141.1000 C   0  0  0  0  0  2  0  0  0  0  0  0
  191.5200  177.6990  142.4610 C   0  0  2  0  0  3  0  0  0  0  0  0
  182.3900  179.5760  139.2160 C   0  0  0  0  0  2  0  0  0  0  0  0
  184.3430  178.4330  143.8650 C   0  0  0  0  0  2  0  0  0  0  0  0
  185.3060  178.7430  141.5230 N   0  0  0  0  0  0  0  0  0  0  0  0
  185.5360  178.5070  142.9350 C   0  0  0  0  0  0  0  0  0  0  0  0
  187.9320  178.3300  142.4300 C   0  0  1  0  0  3  0  0  0  0  0  0
  192.2480  177.4110  141.1490 C   0  0  0  0  0  2  0  0  0  0  0  0
  182.9820  178.1400  136.9240 C   0  0  0  0  0  2  0  0  0  0  0  0
  183.8630  179.4060  139.5810 C   0  0  2  0  0  3  0  0  0  0  0  0
  191.2320  177.3230  140.0980 N   0  0  0  0  0  2  0  0  0  0  0  0
  184.0950  177.6710  137.6750 O   0  0  0  0  0  0  0  0  0  0  0  0
  181.7500  178.2720  139.0900 N   0  0  0  0  0  0  0  0  0  0  0  0
  187.0750  178.0500  144.8620 C   0  0  0  0  0  2  0  0  0  0  0  0
  186.7810  178.2280  143.3880 C   0  0  0  0  0  0  0  0  0  0  0  0
  189.1640  177.7220  142.9540 N   0  0  0  0  0  2  0  0  0  0  0  0
  185.7720  177.8950  139.2950 C   0  0  0  0  0  3  0  0  0  0  0  0
  188.6270  177.4220  138.8990 N   0  0  0  0  0  2  0  0  0  0  0  0
  191.5640  176.4470  143.3380 C   0  0  0  0  0  1  0  0  0  0  0  0
  187.5430  177.7350  141.0610 C   0  0  1  0  0  3  0  0  0  0  0  0
  190.1740  178.0590  142.0330 N   0  0  2  0  0  0  0  0  0  0  0  0
  180.3890  178.4200  139.5760 C   0  0  0  0  0  2  0  0  0  0  0  0
  180.1890  177.5880  140.8320 C   0  0  0  0  0  3  0  0  0  0  0  0
  179.0640  176.6010  140.6040 C   0  0  0  0  0  1  0  0  0  0  0  0
  179.8340  178.4850  142.0030 C   0  0  0  0  0  1  0  0  0  0  0  0
  1 20  1  0  0  0  0
  2 24  1  6  0  0  0
  2 27  1  0  0  0  0
  2 12  1  0  0  0  0
  3  4  1  0  0  0  0
  5  6  1  0  0  0  0
  6 18  1  6  0  0  0
  6 28  1  0  0  0  0
  7 24  2  0  0  0  0
  7 17  1  0  0  0  0
  8 12  1  0  0  0  0
  9 26  1  1  0  0  0
 11  3  1  0  0  0  0
 12 13  1  0  0  0  0
 13 22  2  0  0  0  0
 13 11  1  0  0  0  0
 14 23  1  1  0  0  0
 14 22  1  0  0  0  0
 15  9  1  0  0  0  0
 16  1  1  0  0  0  0
 16 19  1  0  0  0  0
 17 10  1  6  0  0  0
 17  8  1  0  0  0  0
 18 15  1  0  0  0  0
 19  7  1  0  0  0  0
 20 10  1  0  0  0  0
 20 29  1  0  0  0  0
 21  4  1  0  0  0  0
 22 21  1  0  0  0  0
 25  5  2  0  0  0  0
 27  5  1  6  0  0  0
 27 14  1  0  0  0  0
 28  9  1  0  0  0  0
 28 23  1  1  0  0  0
 29 30  1  0  0  0  0
 30 32  1  0  0  0  0
 31 30  1  0  0  0  0
M  END
>  <MODEL>
8

>  <REMARK>
 VINA RESULT:      -7.7      3.160      5.545
  Name = 
  2 active torsions:
  status: ('A' for Active; 'I' for Inactive)
    1  A    between atoms: N_20  and  C_29
    2  A    between atoms: C_29  and  C_30
                            x       y       z     vdW  Elec       q    Type
                         _______ _______ _______ _____ _____    ______ ____

>  <TORSDO>
F 2

$$$$
=
 OpenBabel11122410493D

 32 37  0  0  1  0  0  0  0  0999 V2000
  189.8020  178.1260  136.5500 C   0  0  0  0  0  2  0  0  0  0  0  0
  187.6600  177.4040  141.5940 C   0  0  2  0  0  3  0  0  0  0  0  0
  191.7610  176.1110  144.3310 C   0  0  0  0  0  2  0  0  0  0  0  0
  191.2880  177.0830  145.3950 C   0  0  0  0  0  2  0  0  0  0  0  0
  185.7700  178.5850  142.8830 C   0  0  0  0  0  0  0  0  0  0  0  0
  185.3170  178.9940  144.2490 C   0  0  1  0  0  3  0  0  0  0  0  0
  188.1150  177.8230  139.2190 C   0  0  0  0  0  0  0  0  0  0  0  0
  189.7270  176.3800  140.5130 C   0  0  0  0  0  2  0  0  0  0  0  0
  184.9700  178.3610  146.3860 C   0  0  2  0  0  3  0  0  0  0  0  0
  189.7790  176.2610  138.0260 C   0  0  0  0  0  2  0  0  0  0  0  0
  191.2320  176.5710  142.9790 C   0  0  0  0  0  2  0  0  0  0  0  0
  189.0390  176.8820  141.7130 N   0  0  0  0  0  0  0  0  0  0  0  0
  189.7390  176.8290  142.9820 C   0  0  0  0  0  0  0  0  0  0  0  0
  187.6130  177.3680  144.0830 C   0  0  1  0  0  3  0  0  0  0  0  0
  183.6950  179.0030  145.8420 C   0  0  0  0  0  2  0  0  0  0  0  0
  188.2850  178.2150  136.7560 C   0  0  0  0  0  2  0  0  0  0  0  0
  188.8810  176.5050  139.2380 C   0  0  2  0  0  3  0  0  0  0  0  0
  183.8900  179.2070  144.4040 N   0  0  0  0  0  2  0  0  0  0  0  0
  187.9600  178.6270  138.0780 O   0  0  0  0  0  0  0  0  0  0  0  0
  190.4880  177.4850  137.6720 N   0  0  0  0  0  0  0  0  0  0  0  0
  189.7690  177.0200  145.4810 C   0  0  0  0  0  2  0  0  0  0  0  0
  189.0950  177.1360  144.1320 C   0  0  0  0  0  0  0  0  0  0  0  0
  187.0920  177.9780  145.3160 N   0  0  0  0  0  2  0  0  0  0  0  0
  187.5530  178.2390  140.3520 C   0  0  0  0  0  3  0  0  0  0  0  0
  185.1970  179.0910  141.8530 N   0  0  0  0  0  2  0  0  0  0  0  0
  185.7220  179.3890  147.2300 C   0  0  0  0  0  1  0  0  0  0  0  0
  187.2430  178.2020  142.8380 C   0  0  1  0  0  3  0  0  0  0  0  0
  185.6900  177.9590  145.1840 N   0  0  2  0  0  0  0  0  0  0  0  0
  191.8030  177.0880  137.1970 C   0  0  0  0  0  2  0  0  0  0  0  0
  192.4990  176.2300  138.2400 C   0  0  0  0  0  3  0  0  0  0  0  0
  193.1430  177.1270  139.2760 C   0  0  0  0  0  1  0  0  0  0  0  0
  193.5690  175.3760  137.5860 C   0  0  0  0  0  1  0  0  0  0  0  0
  1 16  1  0  0  0  0
  1 20  1  0  0  0  0
  2 24  1  6  0  0  0
  2 12  1  0  0  0  0
  2 27  1  0  0  0  0
  3  4  1  0  0  0  0
  4 21  1  0  0  0  0
  6  5  1  6  0  0  0
  6 18  1  0  0  0  0
  6 28  1  0  0  0  0
  7 17  1  0  0  0  0
  7 24  2  0  0  0  0
  8 12  1  0  0  0  0
  9 26  1  6  0  0  0
 11 13  1  0  0  0  0
 11  3  1  0  0  0  0
 12 13  1  0  0  0  0
 13 22  2  0  0  0  0
 14 22  1  1  0  0  0
 14 23  1  0  0  0  0
 15  9  1  0  0  0  0
 16 19  1  0  0  0  0
 17 10  1  6  0  0  0
 17  8  1  0  0  0  0
 18 15  1  0  0  0  0
 19  7  1  0  0  0  0
 20 10  1  0  0  0  0
 22 21  1  0  0  0  0
 25  5  2  0  0  0  0
 27  5  1  6  0  0  0
 27 14  1  0  0  0  0
 28 23  1  1  0  0  0
 28  9  1  0  0  0  0
 29 20  1  0  0  0  0
 29 30  1  0  0  0  0
 30 31  1  0  0  0  0
 32 30  1  0  0  0  0
M  END
>  <MODEL>
9

>  <REMARK>
 VINA RESULT:      -7.5      2.031      4.868
  Name = 
  2 active torsions:
  status: ('A' for Active; 'I' for Inactive)
    1  A    between atoms: N_20  and  C_29
    2  A    between atoms: C_29  and  C_30
                            x       y       z     vdW  Elec       q    Type
                         _______ _______ _______ _____ _____    ______ ____

>  <TORSDO>
F 2

$$$$
