=
 OpenBabel11122410573D

 31 35  0  0  1  0  0  0  0  0999 V2000
  188.6700  178.2820  139.7320 C   0  0  0  0  0  0  0  0  0  0  0  0
  185.8620  178.7310  142.1910 N   0  0  0  0  0  0  0  0  0  0  0  0
  184.5940  178.6730  141.4940 C   0  0  0  0  0  0  0  0  0  0  0  0
  183.2880  178.4530  139.4520 C   0  0  0  0  0  0  0  0  0  0  0  0
  187.0790  178.2790  141.5630 C   0  0  0  0  0  0  0  0  0  0  0  0
  189.4660  177.3600  140.4180 C   0  0  0  0  0  3  0  0  0  0  0  0
  184.5220  178.5860  140.0940 C   0  0  0  0  0  3  0  0  0  0  0  0
  186.2670  177.3090  144.1260 C   0  0  2  0  0  3  0  0  0  0  0  0
  189.0700  178.7520  138.4500 N   0  0  0  0  0  1  0  0  0  0  0  0
  183.4500  178.7110  143.6270 O   0  0  0  0  0  0  0  0  0  0  0  0
  183.2190  178.3470  137.7060 Cl  0  0  0  0  0  0  0  0  0  0  0  0
  187.5100  176.9180  143.5310 O   0  0  0  0  0  0  0  0  0  0  0  0
  185.8930  178.7200  143.6630 C   0  0  2  0  0  3  0  0  0  0  0  0
  187.4800  178.7440  140.3030 C   0  0  0  0  0  3  0  0  0  0  0  0
  182.1130  178.3880  140.2040 C   0  0  0  0  0  3  0  0  0  0  0  0
  187.8890  177.3570  142.2550 C   0  0  0  0  0  0  0  0  0  0  0  0
  189.0780  176.9000  141.6790 C   0  0  0  0  0  3  0  0  0  0  0  0
  184.5930  179.2460  144.2840 C   0  0  0  0  0  2  0  0  0  0  0  0
  183.4020  178.6250  142.2390 C   0  0  0  0  0  0  0  0  0  0  0  0
  182.1700  178.4720  141.5960 C   0  0  0  0  0  3  0  0  0  0  0  0
  186.3670  177.2130  145.6410 C   0  0  0  0  0  2  0  0  0  0  0  0
  186.4820  178.9170  147.3160 O   0  0  0  0  0  1  0  0  0  0  0  0
  187.1290  178.4140  146.1870 C   0  0  1  0  0  3  0  0  0  0  0  0
  190.8950  176.5260  146.6330 C   0  0  0  0  0  0  0  0  0  0  0  0
  189.5550  178.3360  145.5400 C   0  0  0  0  0  2  0  0  0  0  0  0
  188.0710  177.2440  148.6790 O   0  0  0  0  0  0  0  0  0  0  0  0
  192.1930  175.8060  146.6830 C   0  0  0  0  0  1  0  0  0  0  0  0
  190.4130  177.0880  145.3200 C   0  0  0  0  0  2  0  0  0  0  0  0
  188.8540  177.3060  147.6960 C   0  0  0  0  0  0  0  0  0  0  0  0
  188.5060  178.0520  146.5160 N   0  0  0  0  0  0  0  0  0  0  0  0
  190.1390  176.5940  147.7320 C   0  0  0  0  0  3  0  0  0  0  0  0
  1 14  2  0  0  0  0
  1  6  1  0  0  0  0
  2 13  1  0  0  0  0
  3  2  1  0  0  0  0
  3 19  1  0  0  0  0
  4  7  1  0  0  0  0
  4 15  2  0  0  0  0
  5  2  1  0  0  0  0
  5 16  2  0  0  0  0
  6 17  2  0  0  0  0
  7  3  2  0  0  0  0
  8 21  1  1  0  0  0
  9  1  1  0  0  0  0
 10 18  1  0  0  0  0
 11  4  1  0  0  0  0
 12  8  1  0  0  0  0
 13  8  1  0  0  0  0
 13 18  1  1  0  0  0
 14  5  1  0  0  0  0
 15 20  1  0  0  0  0
 16 12  1  0  0  0  0
 17 16  1  0  0  0  0
 19 10  1  0  0  0  0
 20 19  2  0  0  0  0
 21 23  1  0  0  0  0
 23 30  1  0  0  0  0
 23 22  1  1  0  0  0
 24 27  1  0  0  0  0
 24 31  2  0  0  0  0
 25 30  1  0  0  0  0
 28 25  1  0  0  0  0
 28 24  1  0  0  0  0
 29 31  1  0  0  0  0
 29 26  2  0  0  0  0
 30 29  1  0  0  0  0
M  END
>  <MODEL>
1

>  <REMARK>
 VINA RESULT:      -8.9      0.000      0.000
  Name = 
  3 active torsions:
  status: ('A' for Active; 'I' for Inactive)
    1  A    between atoms: C_5  and  C_16
    2  A    between atoms: C_5  and  N_30
    3  A    between atoms: C_10  and  C_16
                            x       y       z     vdW  Elec       q    Type
                         _______ _______ _______ _____ _____    ______ ____

>  <TORSDO>
F 3

$$$$
=
 OpenBabel11122410573D

 31 35  0  0  1  0  0  0  0  0999 V2000
  189.0220  176.8640  141.8090 C   0  0  0  0  0  0  0  0  0  0  0  0
  186.6740  177.5830  144.6550 N   0  0  0  0  0  0  0  0  0  0  0  0
  187.4250  177.6810  145.8900 C   0  0  0  0  0  0  0  0  0  0  0  0
  189.5170  177.5860  147.1300 C   0  0  0  0  0  0  0  0  0  0  0  0
  187.3360  177.6300  143.3750 C   0  0  0  0  0  0  0  0  0  0  0  0
  188.5580  177.7760  140.8570 C   0  0  0  0  0  3  0  0  0  0  0  0
  188.8020  177.4090  145.9420 C   0  0  0  0  0  3  0  0  0  0  0  0
  185.1530  179.3680  143.9970 C   0  0  2  0  0  3  0  0  0  0  0  0
  190.1180  176.0100  141.5010 N   0  0  0  0  0  1  0  0  0  0  0  0
  185.4140  178.4090  147.0240 O   0  0  0  0  0  0  0  0  0  0  0  0
  191.2320  177.2410  147.1750 Cl  0  0  0  0  0  0  0  0  0  0  0  0
  185.7650  179.3610  142.7020 O   0  0  0  0  0  0  0  0  0  0  0  0
  185.2550  177.9750  144.6250 C   0  0  2  0  0  3  0  0  0  0  0  0
  188.4120  176.7870  143.0640 C   0  0  0  0  0  3  0  0  0  0  0  0
  188.8670  178.0540  148.2740 C   0  0  0  0  0  3  0  0  0  0  0  0
  186.8650  178.5420  142.4090 C   0  0  0  0  0  0  0  0  0  0  0  0
  187.4790  178.6130  141.1560 C   0  0  0  0  0  3  0  0  0  0  0  0
  184.5850  177.8710  146.0010 C   0  0  0  0  0  2  0  0  0  0  0  0
  186.7780  178.1340  147.0540 C   0  0  0  0  0  0  0  0  0  0  0  0
  187.4990  178.3300  148.2350 C   0  0  0  0  0  3  0  0  0  0  0  0
  183.7110  179.8390  143.8840 C   0  0  0  0  0  2  0  0  0  0  0  0
  181.8290  178.4960  144.5000 O   0  0  0  0  0  1  0  0  0  0  0  0
  182.8090  178.6650  143.5220 C   0  0  1  0  0  3  0  0  0  0  0  0
  180.4830  178.4410  139.9880 C   0  0  0  0  0  0  0  0  0  0  0  0
  180.9380  179.6250  142.1460 C   0  0  0  0  0  2  0  0  0  0  0  0
  183.8520  177.8010  140.9460 O   0  0  0  0  0  0  0  0  0  0  0  0
  179.5790  178.3070  138.8170 C   0  0  0  0  0  1  0  0  0  0  0  0
  179.9090  178.8520  141.3200 C   0  0  0  0  0  2  0  0  0  0  0  0
  182.6770  178.2470  141.0140 C   0  0  0  0  0  0  0  0  0  0  0  0
  182.1870  178.8700  142.2150 N   0  0  0  0  0  0  0  0  0  0  0  0
  181.7730  178.1160  139.8630 C   0  0  0  0  0  3  0  0  0  0  0  0
  1 14  1  0  0  0  0
  2  3  1  0  0  0  0
  3  7  2  0  0  0  0
  3 19  1  0  0  0  0
  4 11  1  0  0  0  0
  4 15  2  0  0  0  0
  5  2  1  0  0  0  0
  6 17  1  0  0  0  0
  6  1  2  0  0  0  0
  7  4  1  0  0  0  0
  8 21  1  6  0  0  0
  8 13  1  0  0  0  0
  9  1  1  0  0  0  0
 10 19  1  0  0  0  0
 12  8  1  0  0  0  0
 13  2  1  0  0  0  0
 13 18  1  1  0  0  0
 14  5  2  0  0  0  0
 16 12  1  0  0  0  0
 16  5  1  0  0  0  0
 17 16  2  0  0  0  0
 18 10  1  0  0  0  0
 19 20  2  0  0  0  0
 20 15  1  0  0  0  0
 23 21  1  0  0  0  0
 23 22  1  1  0  0  0
 24 28  1  0  0  0  0
 25 30  1  0  0  0  0
 26 29  2  0  0  0  0
 27 24  1  0  0  0  0
 28 25  1  0  0  0  0
 29 30  1  0  0  0  0
 30 23  1  0  0  0  0
 31 24  2  0  0  0  0
 31 29  1  0  0  0  0
M  END
>  <MODEL>
2

>  <REMARK>
 VINA RESULT:      -8.7      2.893      7.356
  Name = 
  3 active torsions:
  status: ('A' for Active; 'I' for Inactive)
    1  A    between atoms: C_5  and  C_16
    2  A    between atoms: C_5  and  N_30
    3  A    between atoms: C_10  and  C_16
                            x       y       z     vdW  Elec       q    Type
                         _______ _______ _______ _____ _____    ______ ____

>  <TORSDO>
F 3

$$$$
=
 OpenBabel11122410573D

 31 35  0  0  1  0  0  0  0  0999 V2000
  189.4390  176.6220  135.9890 C   0  0  0  0  0  0  0  0  0  0  0  0
  188.2910  178.1490  139.2260 N   0  0  0  0  0  0  0  0  0  0  0  0
  186.8450  178.2220  139.2420 C   0  0  0  0  0  0  0  0  0  0  0  0
  184.6780  177.8750  138.1880 C   0  0  0  0  0  0  0  0  0  0  0  0
  188.9860  177.3300  138.2640 C   0  0  0  0  0  0  0  0  0  0  0  0
  190.3900  175.7110  136.4580 C   0  0  0  0  0  3  0  0  0  0  0  0
  186.0740  177.8690  138.1210 C   0  0  0  0  0  3  0  0  0  0  0  0
  189.4870  177.0960  141.0680 C   0  0  2  0  0  3  0  0  0  0  0  0
  189.1810  176.7260  134.5940 N   0  0  0  0  0  1  0  0  0  0  0  0
  186.9320  178.9350  141.5530 O   0  0  0  0  0  0  0  0  0  0  0  0
  183.7350  177.4340  136.7810 Cl  0  0  0  0  0  0  0  0  0  0  0  0
  190.2270  176.3370  140.1040 O   0  0  0  0  0  0  0  0  0  0  0  0
  189.0540  178.4300  140.4540 C   0  0  2  0  0  3  0  0  0  0  0  0
  188.7400  177.4320  136.8880 C   0  0  0  0  0  3  0  0  0  0  0  0
  184.0370  178.2170  139.3810 C   0  0  0  0  0  3  0  0  0  0  0  0
  189.9510  176.4170  138.7320 C   0  0  0  0  0  0  0  0  0  0  0  0
  190.6470  175.6100  137.8280 C   0  0  0  0  0  3  0  0  0  0  0  0
  188.2900  179.3350  141.4280 C   0  0  0  0  0  2  0  0  0  0  0  0
  186.1870  178.5810  140.4320 C   0  0  0  0  0  0  0  0  0  0  0  0
  184.7910  178.5670  140.5030 C   0  0  0  0  0  3  0  0  0  0  0  0
  190.3240  177.2900  142.3240 C   0  0  0  0  0  2  0  0  0  0  0  0
  190.9280  175.4560  143.7360 O   0  0  0  0  0  1  0  0  0  0  0  0
  189.8770  176.3100  143.4020 C   0  0  1  0  0  3  0  0  0  0  0  0
  188.5440  177.4540  147.2570 C   0  0  0  0  0  0  0  0  0  0  0  0
  190.3920  177.4720  145.5700 C   0  0  0  0  0  2  0  0  0  0  0  0
  187.1280  177.0400  144.0160 O   0  0  0  0  0  0  0  0  0  0  0  0
  188.1400  177.7590  148.6530 C   0  0  0  0  0  1  0  0  0  0  0  0
  189.9650  177.0400  146.9730 C   0  0  0  0  0  2  0  0  0  0  0  0
  188.0110  177.1740  144.9030 C   0  0  0  0  0  0  0  0  0  0  0  0
  189.4070  177.0210  144.5890 N   0  0  0  0  0  0  0  0  0  0  0  0
  187.6230  177.4720  146.2880 C   0  0  0  0  0  3  0  0  0  0  0  0
  1  6  2  0  0  0  0
  1 14  1  0  0  0  0
  2  3  1  0  0  0  0
  2 13  1  0  0  0  0
  3 19  1  0  0  0  0
  4 15  2  0  0  0  0
  5 16  1  0  0  0  0
  5  2  1  0  0  0  0
  6 17  1  0  0  0  0
  7  4  1  0  0  0  0
  7  3  2  0  0  0  0
  8 21  1  1  0  0  0
  9  1  1  0  0  0  0
 11  4  1  0  0  0  0
 12  8  1  0  0  0  0
 13  8  1  0  0  0  0
 13 18  1  1  0  0  0
 14  5  2  0  0  0  0
 15 20  1  0  0  0  0
 16 12  1  0  0  0  0
 17 16  2  0  0  0  0
 18 10  1  0  0  0  0
 19 20  2  0  0  0  0
 19 10  1  0  0  0  0
 21 23  1  0  0  0  0
 23 22  1  1  0  0  0
 23 30  1  0  0  0  0
 24 27  1  0  0  0  0
 25 28  1  0  0  0  0
 26 29  2  0  0  0  0
 28 24  1  0  0  0  0
 29 31  1  0  0  0  0
 30 29  1  0  0  0  0
 30 25  1  0  0  0  0
 31 24  2  0  0  0  0
M  END
>  <MODEL>
3

>  <REMARK>
 VINA RESULT:      -8.7      2.313      3.828
  Name = 
  3 active torsions:
  status: ('A' for Active; 'I' for Inactive)
    1  A    between atoms: C_5  and  C_16
    2  A    between atoms: C_5  and  N_30
    3  A    between atoms: C_10  and  C_16
                            x       y       z     vdW  Elec       q    Type
                         _______ _______ _______ _____ _____    ______ ____

>  <TORSDO>
F 3

$$$$
=
 OpenBabel11122410573D

 31 35  0  0  1  0  0  0  0  0999 V2000
  188.9040  178.1010  137.5160 C   0  0  0  0  0  0  0  0  0  0  0  0
  186.6420  178.6180  140.4740 N   0  0  0  0  0  0  0  0  0  0  0  0
  185.2700  178.3650  140.0840 C   0  0  0  0  0  0  0  0  0  0  0  0
  183.5970  177.7790  138.4160 C   0  0  0  0  0  0  0  0  0  0  0  0
  187.7420  178.1950  139.6430 C   0  0  0  0  0  0  0  0  0  0  0  0
  189.9230  177.3440  138.1020 C   0  0  0  0  0  3  0  0  0  0  0  0
  184.9160  178.0960  138.7520 C   0  0  0  0  0  3  0  0  0  0  0  0
  187.5970  177.4910  142.4100 C   0  0  2  0  0  3  0  0  0  0  0  0
  188.9720  178.4370  136.1360 N   0  0  0  0  0  1  0  0  0  0  0  0
  184.6020  178.5750  142.4010 O   0  0  0  0  0  0  0  0  0  0  0  0
  183.1760  177.4480  136.7500 Cl  0  0  0  0  0  0  0  0  0  0  0  0
  188.7230  177.1350  141.6000 O   0  0  0  0  0  0  0  0  0  0  0  0
  186.9820  178.7950  141.8950 C   0  0  2  0  0  3  0  0  0  0  0  0
  187.8170  178.5280  138.2840 C   0  0  0  0  0  3  0  0  0  0  0  0
  182.6200  177.7110  139.4120 C   0  0  0  0  0  3  0  0  0  0  0  0
  188.7760  177.4400  140.2320 C   0  0  0  0  0  0  0  0  0  0  0  0
  189.8600  177.0160  139.4590 C   0  0  0  0  0  3  0  0  0  0  0  0
  185.7900  179.2830  142.7300 C   0  0  0  0  0  2  0  0  0  0  0  0
  184.2730  178.3110  141.0750 C   0  0  0  0  0  0  0  0  0  0  0  0
  182.9580  177.9740  140.7410 C   0  0  0  0  0  3  0  0  0  0  0  0
  188.0220  177.5960  143.8670 C   0  0  0  0  0  2  0  0  0  0  0  0
  189.8450  179.1060  144.2130 O   0  0  0  0  0  1  0  0  0  0  0  0
  189.5330  177.7710  143.9550 C   0  0  1  0  0  3  0  0  0  0  0  0
  191.7040  176.1010  147.1870 C   0  0  0  0  0  0  0  0  0  0  0  0
  189.5130  176.9560  146.3320 C   0  0  0  0  0  2  0  0  0  0  0  0
  191.6930  175.8480  143.6360 O   0  0  0  0  0  0  0  0  0  0  0  0
  192.4730  175.6290  148.3670 C   0  0  0  0  0  1  0  0  0  0  0  0
  190.6170  177.1280  147.3770 C   0  0  0  0  0  2  0  0  0  0  0  0
  191.2870  176.1270  144.7940 C   0  0  0  0  0  0  0  0  0  0  0  0
  190.0980  176.9120  144.9940 N   0  0  0  0  0  0  0  0  0  0  0  0
  192.0420  175.6700  145.9690 C   0  0  0  0  0  3  0  0  0  0  0  0
  1  6  2  0  0  0  0
  1 14  1  0  0  0  0
  2 13  1  0  0  0  0
  3  2  1  0  0  0  0
  3 19  1  0  0  0  0
  4  7  1  0  0  0  0
  4 15  2  0  0  0  0
  5 16  1  0  0  0  0
  5  2  1  0  0  0  0
  6 17  1  0  0  0  0
  7  3  2  0  0  0  0
  8 21  1  1  0  0  0
  9  1  1  0  0  0  0
 10 18  1  0  0  0  0
 11  4  1  0  0  0  0
 12  8  1  0  0  0  0
 13  8  1  0  0  0  0
 13 18  1  1  0  0  0
 14  5  2  0  0  0  0
 15 20  1  0  0  0  0
 16 12  1  0  0  0  0
 17 16  2  0  0  0  0
 19 10  1  0  0  0  0
 20 19  2  0  0  0  0
 21 23  1  0  0  0  0
 23 22  1  1  0  0  0
 23 30  1  0  0  0  0
 24 28  1  0  0  0  0
 24 27  1  0  0  0  0
 25 28  1  0  0  0  0
 26 29  2  0  0  0  0
 29 30  1  0  0  0  0
 29 31  1  0  0  0  0
 30 25  1  0  0  0  0
 31 24  2  0  0  0  0
M  END
>  <MODEL>
4

>  <REMARK>
 VINA RESULT:      -8.4      1.925      2.487
  Name = 
  3 active torsions:
  status: ('A' for Active; 'I' for Inactive)
    1  A    between atoms: C_5  and  C_16
    2  A    between atoms: C_5  and  N_30
    3  A    between atoms: C_10  and  C_16
                            x       y       z     vdW  Elec       q    Type
                         _______ _______ _______ _____ _____    ______ ____

>  <TORSDO>
F 3

$$$$
=
 OpenBabel11122410573D

 31 35  0  0  1  0  0  0  0  0999 V2000
  189.9080  176.1330  142.6820 C   0  0  0  0  0  0  0  0  0  0  0  0
  186.5850  177.5350  143.7410 N   0  0  0  0  0  0  0  0  0  0  0  0
  186.6610  177.9730  145.1200 C   0  0  0  0  0  0  0  0  0  0  0  0
  187.8820  178.2520  147.2070 C   0  0  0  0  0  0  0  0  0  0  0  0
  187.7780  177.2540  142.9810 C   0  0  0  0  0  0  0  0  0  0  0  0
  190.0610  176.7500  141.4360 C   0  0  0  0  0  3  0  0  0  0  0  0
  187.8060  177.7520  145.9040 C   0  0  0  0  0  3  0  0  0  0  0  0
  185.7760  179.0510  142.0140 C   0  0  2  0  0  3  0  0  0  0  0  0
  190.9130  175.2500  143.1660 N   0  0  0  0  0  1  0  0  0  0  0  0
  184.4510  178.9350  144.9090 O   0  0  0  0  0  0  0  0  0  0  0  0
  189.3160  177.9660  148.1680 Cl  0  0  0  0  0  0  0  0  0  0  0  0
  186.9270  178.7120  141.2310 O   0  0  0  0  0  0  0  0  0  0  0  0
  185.4080  177.8770  142.9260 C   0  0  2  0  0  3  0  0  0  0  0  0
  188.7690  176.3810  143.4520 C   0  0  0  0  0  3  0  0  0  0  0  0
  186.8230  178.9940  147.7330 C   0  0  0  0  0  3  0  0  0  0  0  0
  187.9320  177.8670  141.7220 C   0  0  0  0  0  0  0  0  0  0  0  0
  189.0730  177.6140  140.9560 C   0  0  0  0  0  3  0  0  0  0  0  0
  184.1550  178.1280  143.7750 C   0  0  0  0  0  2  0  0  0  0  0  0
  185.5940  178.7060  145.6680 C   0  0  0  0  0  0  0  0  0  0  0  0
  185.6800  179.2230  146.9640 C   0  0  0  0  0  3  0  0  0  0  0  0
  184.6270  179.4460  141.0990 C   0  0  0  0  0  2  0  0  0  0  0  0
  183.4300  177.3890  140.8590 O   0  0  0  0  0  1  0  0  0  0  0  0
  184.2670  178.2800  140.1870 C   0  0  1  0  0  3  0  0  0  0  0  0
  181.5550  179.3640  137.1170 C   0  0  0  0  0  0  0  0  0  0  0  0
  183.1030  180.1210  138.9330 C   0  0  0  0  0  2  0  0  0  0  0  0
  183.9650  176.8080  137.6950 O   0  0  0  0  0  0  0  0  0  0  0  0
  180.5200  179.7610  136.1290 C   0  0  0  0  0  1  0  0  0  0  0  0
  181.6630  180.1190  138.4170 C   0  0  0  0  0  2  0  0  0  0  0  0
  183.3490  177.8950  137.8430 C   0  0  0  0  0  0  0  0  0  0  0  0
  183.6200  178.7550  138.9650 N   0  0  0  0  0  0  0  0  0  0  0  0
  182.3190  178.2950  136.8750 C   0  0  0  0  0  3  0  0  0  0  0  0
  1  9  1  0  0  0  0
  1 14  1  0  0  0  0
  2  3  1  0  0  0  0
  3 19  2  0  0  0  0
  3  7  1  0  0  0  0
  4 15  1  0  0  0  0
  4 11  1  0  0  0  0
  5 14  2  0  0  0  0
  5  2  1  0  0  0  0
  6  1  2  0  0  0  0
  7  4  2  0  0  0  0
  8 21  1  6  0  0  0
  8 13  1  0  0  0  0
 10 19  1  0  0  0  0
 12 16  1  0  0  0  0
 12  8  1  0  0  0  0
 13  2  1  0  0  0  0
 13 18  1  1  0  0  0
 16  5  1  0  0  0  0
 17  6  1  0  0  0  0
 17 16  2  0  0  0  0
 18 10  1  0  0  0  0
 19 20  1  0  0  0  0
 20 15  2  0  0  0  0
 23 22  1  1  0  0  0
 23 21  1  0  0  0  0
 24 28  1  0  0  0  0
 25 30  1  0  0  0  0
 26 29  2  0  0  0  0
 27 24  1  0  0  0  0
 28 25  1  0  0  0  0
 29 30  1  0  0  0  0
 30 23  1  0  0  0  0
 31 24  2  0  0  0  0
 31 29  1  0  0  0  0
M  END
>  <MODEL>
5

>  <REMARK>
 VINA RESULT:      -8.4      3.259      7.742
  Name = 
  3 active torsions:
  status: ('A' for Active; 'I' for Inactive)
    1  A    between atoms: C_5  and  C_16
    2  A    between atoms: C_5  and  N_30
    3  A    between atoms: C_10  and  C_16
                            x       y       z     vdW  Elec       q    Type
                         _______ _______ _______ _____ _____    ______ ____

>  <TORSDO>
F 3

$$$$
=
 OpenBabel11122410573D

 31 35  0  0  1  0  0  0  0  0999 V2000
  190.2040  176.1280  142.8980 C   0  0  0  0  0  0  0  0  0  0  0  0
  186.8070  177.5030  143.7320 N   0  0  0  0  0  0  0  0  0  0  0  0
  186.7900  177.9500  145.1100 C   0  0  0  0  0  0  0  0  0  0  0  0
  187.8720  178.2540  147.2690 C   0  0  0  0  0  0  0  0  0  0  0  0
  188.0490  177.2300  143.0530 C   0  0  0  0  0  0  0  0  0  0  0  0
  190.4310  176.7390  141.6610 C   0  0  0  0  0  3  0  0  0  0  0  0
  187.8840  177.7450  145.9680 C   0  0  0  0  0  3  0  0  0  0  0  0
  186.0960  179.0000  141.9470 C   0  0  2  0  0  3  0  0  0  0  0  0
  191.1850  175.2590  143.4510 N   0  0  0  0  0  1  0  0  0  0  0  0
  184.5880  178.8880  144.7510 O   0  0  0  0  0  0  0  0  0  0  0  0
  189.2430  177.9880  148.3230 Cl  0  0  0  0  0  0  0  0  0  0  0  0
  187.2980  178.6680  141.2420 O   0  0  0  0  0  0  0  0  0  0  0  0
  185.6810  177.8280  142.8410 C   0  0  2  0  0  3  0  0  0  0  0  0
  189.0150  176.3690  143.5920 C   0  0  0  0  0  3  0  0  0  0  0  0
  186.7730  178.9880  147.7220 C   0  0  0  0  0  3  0  0  0  0  0  0
  188.2780  177.8360  141.8020 C   0  0  0  0  0  0  0  0  0  0  0  0
  189.4680  177.5910  141.1120 C   0  0  0  0  0  3  0  0  0  0  0  0
  184.3740  178.0720  143.6070 C   0  0  0  0  0  2  0  0  0  0  0  0
  185.6820  178.6750  145.5840 C   0  0  0  0  0  0  0  0  0  0  0  0
  185.6800  179.2010  146.8800 C   0  0  0  0  0  3  0  0  0  0  0  0
  185.0040  179.3780  140.9570 C   0  0  0  0  0  2  0  0  0  0  0  0
  183.1310  177.9060  140.7400 O   0  0  0  0  0  1  0  0  0  0  0  0
  184.4380  178.1220  140.3050 C   0  0  1  0  0  3  0  0  0  0  0  0
  184.3380  177.4550  136.1230 C   0  0  0  0  0  0  0  0  0  0  0  0
  183.2170  178.4400  138.1320 C   0  0  0  0  0  2  0  0  0  0  0  0
  186.8060  178.0680  138.6150 O   0  0  0  0  0  0  0  0  0  0  0  0
  184.2240  177.1270  134.6790 C   0  0  0  0  0  1  0  0  0  0  0  0
  183.1000  177.4360  136.9830 C   0  0  0  0  0  2  0  0  0  0  0  0
  185.6680  178.0060  138.0790 C   0  0  0  0  0  0  0  0  0  0  0  0
  184.4730  178.2310  138.8480 N   0  0  0  0  0  0  0  0  0  0  0  0
  185.5440  177.6790  136.6530 C   0  0  0  0  0  3  0  0  0  0  0  0
  1  9  1  0  0  0  0
  1 14  1  0  0  0  0
  2  3  1  0  0  0  0
  3 19  2  0  0  0  0
  3  7  1  0  0  0  0
  4 15  1  0  0  0  0
  4 11  1  0  0  0  0
  5 14  2  0  0  0  0
  5  2  1  0  0  0  0
  6  1  2  0  0  0  0
  7  4  2  0  0  0  0
  8 21  1  6  0  0  0
  8 13  1  0  0  0  0
 10 19  1  0  0  0  0
 12 16  1  0  0  0  0
 12  8  1  0  0  0  0
 13 18  1  1  0  0  0
 13  2  1  0  0  0  0
 16  5  1  0  0  0  0
 17  6  1  0  0  0  0
 17 16  2  0  0  0  0
 18 10  1  0  0  0  0
 19 20  1  0  0  0  0
 20 15  2  0  0  0  0
 23 22  1  1  0  0  0
 23 21  1  0  0  0  0
 24 31  2  0  0  0  0
 24 28  1  0  0  0  0
 25 30  1  0  0  0  0
 27 24  1  0  0  0  0
 28 25  1  0  0  0  0
 29 26  2  0  0  0  0
 29 30  1  0  0  0  0
 30 23  1  0  0  0  0
 31 29  1  0  0  0  0
M  END
>  <MODEL>
6

>  <REMARK>
 VINA RESULT:      -8.3      3.282      7.360
  Name = 
  3 active torsions:
  status: ('A' for Active; 'I' for Inactive)
    1  A    between atoms: C_5  and  C_16
    2  A    between atoms: C_5  and  N_30
    3  A    between atoms: C_10  and  C_16
                            x       y       z     vdW  Elec       q    Type
                         _______ _______ _______ _____ _____    ______ ____

>  <TORSDO>
F 3

$$$$
=
 OpenBabel11122410573D

 31 35  0  0  1  0  0  0  0  0999 V2000
  189.7870  176.9910  137.1940 C   0  0  0  0  0  0  0  0  0  0  0  0
  186.0330  176.8780  137.3460 N   0  0  0  0  0  0  0  0  0  0  0  0
  185.5800  175.5170  137.1440 C   0  0  0  0  0  0  0  0  0  0  0  0
  186.0210  173.1630  136.7080 C   0  0  0  0  0  0  0  0  0  0  0  0
  187.4120  177.1670  137.6530 C   0  0  0  0  0  0  0  0  0  0  0  0
  190.0650  177.7870  138.3090 C   0  0  0  0  0  3  0  0  0  0  0  0
  186.4720  174.4810  136.8210 C   0  0  0  0  0  3  0  0  0  0  0  0
  185.2780  178.1490  139.2820 C   0  0  2  0  0  3  0  0  0  0  0  0
  190.8520  176.4920  136.3940 N   0  0  0  0  0  1  0  0  0  0  0  0
  183.3240  176.2170  137.6700 O   0  0  0  0  0  0  0  0  0  0  0  0
  187.1470  171.8870  136.3030 Cl  0  0  0  0  0  0  0  0  0  0  0  0
  186.6450  178.4940  139.5410 O   0  0  0  0  0  0  0  0  0  0  0  0
  185.0800  177.9120  137.7830 C   0  0  2  0  0  3  0  0  0  0  0  0
  188.4650  176.6830  136.8630 C   0  0  0  0  0  3  0  0  0  0  0  0
  184.6750  172.8650  136.9330 C   0  0  0  0  0  3  0  0  0  0  0  0
  187.6960  177.9770  138.7700 C   0  0  0  0  0  0  0  0  0  0  0  0
  189.0200  178.2820  139.0950 C   0  0  0  0  0  3  0  0  0  0  0  0
  183.6320  177.5790  137.4000 C   0  0  0  0  0  2  0  0  0  0  0  0
  184.2250  175.2060  137.3510 C   0  0  0  0  0  0  0  0  0  0  0  0
  183.7780  173.8840  137.2570 C   0  0  0  0  0  3  0  0  0  0  0  0
  184.3610  179.2390  139.8150 C   0  0  0  0  0  2  0  0  0  0  0  0
  183.3430  177.2630  140.6990 O   0  0  0  0  0  1  0  0  0  0  0  0
  183.3940  178.6500  140.8350 C   0  0  1  0  0  3  0  0  0  0  0  0
  184.6790  178.7030  144.8710 C   0  0  0  0  0  0  0  0  0  0  0  0
  185.2060  179.2200  142.4790 C   0  0  0  0  0  2  0  0  0  0  0  0
  181.6200  179.1060  143.0950 O   0  0  0  0  0  0  0  0  0  0  0  0
  185.1950  178.6190  146.2610 C   0  0  0  0  0  1  0  0  0  0  0  0
  185.6110  178.4230  143.7200 C   0  0  0  0  0  2  0  0  0  0  0  0
  182.8600  179.0320  143.2950 C   0  0  0  0  0  0  0  0  0  0  0  0
  183.7880  179.0100  142.1950 N   0  0  0  0  0  0  0  0  0  0  0  0
  183.3810  178.9440  144.6650 C   0  0  0  0  0  3  0  0  0  0  0  0
  1  6  1  0  0  0  0
  2  5  1  0  0  0  0
  2 13  1  0  0  0  0
  3  2  1  0  0  0  0
  3 19  1  0  0  0  0
  4  7  1  0  0  0  0
  4 15  2  0  0  0  0
  5 16  2  0  0  0  0
  6 17  2  0  0  0  0
  7  3  2  0  0  0  0
  8 12  1  0  0  0  0
  8 21  1  6  0  0  0
  9  1  1  0  0  0  0
 11  4  1  0  0  0  0
 13 18  1  1  0  0  0
 13  8  1  0  0  0  0
 14  1  2  0  0  0  0
 14  5  1  0  0  0  0
 15 20  1  0  0  0  0
 16 17  1  0  0  0  0
 16 12  1  0  0  0  0
 18 10  1  0  0  0  0
 19 10  1  0  0  0  0
 20 19  2  0  0  0  0
 21 23  1  0  0  0  0
 23 22  1  1  0  0  0
 23 30  1  0  0  0  0
 24 27  1  0  0  0  0
 25 28  1  0  0  0  0
 26 29  2  0  0  0  0
 28 24  1  0  0  0  0
 29 31  1  0  0  0  0
 30 25  1  0  0  0  0
 30 29  1  0  0  0  0
 31 24  2  0  0  0  0
M  END
>  <MODEL>
7

>  <REMARK>
 VINA RESULT:      -8.3      3.998      5.983
  Name = 
  3 active torsions:
  status: ('A' for Active; 'I' for Inactive)
    1  A    between atoms: C_5  and  C_16
    2  A    between atoms: C_5  and  N_30
    3  A    between atoms: C_10  and  C_16
                            x       y       z     vdW  Elec       q    Type
                         _______ _______ _______ _____ _____    ______ ____

>  <TORSDO>
F 3

$$$$
=
 OpenBabel11122410573D

 31 35  0  0  1  0  0  0  0  0999 V2000
  185.0520  178.7010  144.5520 C   0  0  0  0  0  0  0  0  0  0  0  0
  188.7570  178.3480  144.0270 N   0  0  0  0  0  0  0  0  0  0  0  0
  189.3530  177.7180  145.1880 C   0  0  0  0  0  0  0  0  0  0  0  0
  189.1840  176.7530  147.4150 C   0  0  0  0  0  0  0  0  0  0  0  0
  187.3310  178.3220  143.8150 C   0  0  0  0  0  0  0  0  0  0  0  0
  184.5740  178.2530  143.3160 C   0  0  0  0  0  3  0  0  0  0  0  0
  188.6030  177.4310  146.3400 C   0  0  0  0  0  3  0  0  0  0  0  0
  189.1620  177.4510  141.7990 C   0  0  2  0  0  3  0  0  0  0  0  0
  184.1370  179.1200  145.5570 N   0  0  0  0  0  1  0  0  0  0  0  0
  191.4590  177.5860  144.0020 O   0  0  0  0  0  0  0  0  0  0  0  0
  188.2340  176.4060  148.8440 Cl  0  0  0  0  0  0  0  0  0  0  0  0
  187.7490  177.4960  141.5660 O   0  0  0  0  0  0  0  0  0  0  0  0
  189.5540  178.5380  142.8040 C   0  0  2  0  0  3  0  0  0  0  0  0
  186.4260  178.7390  144.8010 C   0  0  0  0  0  3  0  0  0  0  0  0
  190.5160  176.3390  147.3430 C   0  0  0  0  0  3  0  0  0  0  0  0
  186.8460  177.8790  142.5680 C   0  0  0  0  0  0  0  0  0  0  0  0
  185.4710  177.8440  142.3250 C   0  0  0  0  0  3  0  0  0  0  0  0
  191.0610  178.5990  143.0860 C   0  0  0  0  0  2  0  0  0  0  0  0
  190.6980  177.3110  145.1340 C   0  0  0  0  0  0  0  0  0  0  0  0
  191.2720  176.6150  146.2020 C   0  0  0  0  0  3  0  0  0  0  0  0
  189.9070  177.5960  140.4810 C   0  0  0  0  0  2  0  0  0  0  0  0
  189.0550  179.0370  138.7710 O   0  0  0  0  0  1  0  0  0  0  0  0
  188.9130  177.7710  139.3390 C   0  0  1  0  0  3  0  0  0  0  0  0
  189.8060  175.5450  135.8470 C   0  0  0  0  0  0  0  0  0  0  0  0
  190.4060  176.0910  138.2150 C   0  0  0  0  0  2  0  0  0  0  0  0
  186.8960  176.7500  137.5070 O   0  0  0  0  0  0  0  0  0  0  0  0
  190.2070  174.8490  134.5980 C   0  0  0  0  0  1  0  0  0  0  0  0
  190.8720  176.0990  136.7580 C   0  0  0  0  0  2  0  0  0  0  0  0
  188.1000  176.4280  137.3350 C   0  0  0  0  0  0  0  0  0  0  0  0
  189.1000  176.7380  138.3220 N   0  0  0  0  0  0  0  0  0  0  0  0
  188.5100  175.7420  136.1020 C   0  0  0  0  0  3  0  0  0  0  0  0
  1 14  1  0  0  0  0
  1  9  1  0  0  0  0
  2  3  1  0  0  0  0
  3  7  1  0  0  0  0
  4 11  1  0  0  0  0
  5  2  1  0  0  0  0
  5 14  2  0  0  0  0
  6  1  2  0  0  0  0
  7  4  2  0  0  0  0
  8 21  1  6  0  0  0
  8 13  1  0  0  0  0
 10 19  1  0  0  0  0
 12  8  1  0  0  0  0
 12 16  1  0  0  0  0
 13 18  1  1  0  0  0
 13  2  1  0  0  0  0
 15  4  1  0  0  0  0
 16  5  1  0  0  0  0
 17 16  2  0  0  0  0
 17  6  1  0  0  0  0
 18 10  1  0  0  0  0
 19  3  2  0  0  0  0
 19 20  1  0  0  0  0
 20 15  2  0  0  0  0
 23 22  1  6  0  0  0
 23 21  1  0  0  0  0
 24 31  2  0  0  0  0
 24 28  1  0  0  0  0
 25 30  1  0  0  0  0
 27 24  1  0  0  0  0
 28 25  1  0  0  0  0
 29 26  2  0  0  0  0
 29 30  1  0  0  0  0
 30 23  1  0  0  0  0
 31 29  1  0  0  0  0
M  END
>  <MODEL>
8

>  <REMARK>
 VINA RESULT:      -8.3      3.632      8.034
  Name = 
  3 active torsions:
  status: ('A' for Active; 'I' for Inactive)
    1  A    between atoms: C_5  and  C_16
    2  A    between atoms: C_5  and  N_30
    3  A    between atoms: C_10  and  C_16
                            x       y       z     vdW  Elec       q    Type
                         _______ _______ _______ _____ _____    ______ ____

>  <TORSDO>
F 3

$$$$
=
 OpenBabel11122410573D

 31 35  0  0  1  0  0  0  0  0999 V2000
  185.8040  178.6580  139.2270 C   0  0  0  0  0  0  0  0  0  0  0  0
  189.3080  177.8090  140.2890 N   0  0  0  0  0  0  0  0  0  0  0  0
  189.3110  177.4220  141.6850 C   0  0  0  0  0  0  0  0  0  0  0  0
  188.1650  177.0500  143.8000 C   0  0  0  0  0  0  0  0  0  0  0  0
  188.0800  177.8780  139.5380 C   0  0  0  0  0  0  0  0  0  0  0  0
  185.7330  177.9740  138.0090 C   0  0  0  0  0  3  0  0  0  0  0  0
  188.1540  177.5020  142.4780 C   0  0  0  0  0  3  0  0  0  0  0  0
  190.3170  176.3600  138.6110 C   0  0  2  0  0  3  0  0  0  0  0  0
  184.6830  179.4010  139.6910 N   0  0  0  0  0  1  0  0  0  0  0  0
  191.6380  176.7900  141.4780 O   0  0  0  0  0  0  0  0  0  0  0  0
  186.7130  177.1610  144.7720 Cl  0  0  0  0  0  0  0  0  0  0  0  0
  189.1220  176.4920  137.8330 O   0  0  0  0  0  0  0  0  0  0  0  0
  190.5160  177.6120  139.4700 C   0  0  2  0  0  3  0  0  0  0  0  0
  186.9750  178.6140  139.9890 C   0  0  0  0  0  3  0  0  0  0  0  0
  189.3280  176.4960  144.3390 C   0  0  0  0  0  3  0  0  0  0  0  0
  188.0060  177.1980  138.3060 C   0  0  0  0  0  0  0  0  0  0  0  0
  186.8330  177.2470  137.5480 C   0  0  0  0  0  3  0  0  0  0  0  0
  191.7990  177.5840  140.3100 C   0  0  0  0  0  2  0  0  0  0  0  0
  190.4810  176.8780  142.2450 C   0  0  0  0  0  0  0  0  0  0  0  0
  190.4840  176.4080  143.5620 C   0  0  0  0  0  3  0  0  0  0  0  0
  191.5040  176.1020  137.6940 C   0  0  0  0  0  2  0  0  0  0  0  0
  191.0880  173.7530  137.5140 O   0  0  0  0  0  1  0  0  0  0  0  0
  192.0360  174.6920  137.9200 C   0  0  1  0  0  3  0  0  0  0  0  0
  195.6570  173.2100  136.2950 C   0  0  0  0  0  0  0  0  0  0  0  0
  193.2520  173.7900  135.9150 C   0  0  0  0  0  2  0  0  0  0  0  0
  194.6740  175.6270  138.7180 O   0  0  0  0  0  0  0  0  0  0  0  0
  196.8800  172.5770  135.7390 C   0  0  0  0  0  1  0  0  0  0  0  0
  194.3050  172.6800  135.8950 C   0  0  0  0  0  2  0  0  0  0  0  0
  194.5740  174.8200  137.7570 C   0  0  0  0  0  0  0  0  0  0  0  0
  193.2910  174.4870  137.1980 N   0  0  0  0  0  0  0  0  0  0  0  0
  195.7760  174.1840  137.2020 C   0  0  0  0  0  3  0  0  0  0  0  0
  1  9  1  0  0  0  0
  1 14  1  0  0  0  0
  2  3  1  0  0  0  0
  3 19  2  0  0  0  0
  3  7  1  0  0  0  0
  4 15  1  0  0  0  0
  4 11  1  0  0  0  0
  5 14  2  0  0  0  0
  5  2  1  0  0  0  0
  6  1  2  0  0  0  0
  7  4  2  0  0  0  0
  8 21  1  6  0  0  0
  8 13  1  0  0  0  0
 10 19  1  0  0  0  0
 12 16  1  0  0  0  0
 12  8  1  0  0  0  0
 13  2  1  0  0  0  0
 13 18  1  1  0  0  0
 16  5  1  0  0  0  0
 17  6  1  0  0  0  0
 17 16  2  0  0  0  0
 18 10  1  0  0  0  0
 19 20  1  0  0  0  0
 20 15  2  0  0  0  0
 21 23  1  0  0  0  0
 23 22  1  6  0  0  0
 24 31  2  0  0  0  0
 25 30  1  0  0  0  0
 27 24  1  0  0  0  0
 28 25  1  0  0  0  0
 28 24  1  0  0  0  0
 29 26  2  0  0  0  0
 30 29  1  0  0  0  0
 30 23  1  0  0  0  0
 31 29  1  0  0  0  0
M  END
>  <MODEL>
9

>  <REMARK>
 VINA RESULT:      -8.0      4.984      8.371
  Name = 
  3 active torsions:
  status: ('A' for Active; 'I' for Inactive)
    1  A    between atoms: C_5  and  C_16
    2  A    between atoms: C_5  and  N_30
    3  A    between atoms: C_10  and  C_16
                            x       y       z     vdW  Elec       q    Type
                         _______ _______ _______ _____ _____    ______ ____

>  <TORSDO>
F 3

$$$$
