=
 OpenBabel11122412253D

 34 40  0  0  1  0  0  0  0  0999 V2000
  185.2600  178.1620  142.9410 C   0  0  0  0  0  0  0  0  0  0  0  0
  187.0730  177.7180  144.6070 C   0  0  0  0  0  2  0  0  0  0  0  0
  182.8070  177.8320  137.1600 C   0  0  0  0  0  0  0  0  0  0  0  0
  183.6930  178.9360  141.2730 C   0  0  0  0  0  0  0  0  0  0  0  0
  184.2980  178.9140  138.8380 C   0  0  2  0  0  3  0  0  0  0  0  0
  185.0380  176.7950  137.6270 C   0  0  0  0  0  1  0  0  0  0  0  0
  183.0830  177.7340  135.9340 O   0  0  0  0  0  0  0  0  0  0  0  0
  180.9620  178.3390  139.2200 S   0  0  0  0  0  0  0  0  0  0  0  0
  187.5430  177.4670  142.2880 C   0  0  1  0  0  3  0  0  0  0  0  0
  190.3450  177.8620  141.2500 O   0  0  0  0  0  0  0  0  0  0  0  0
  185.6410  178.8510  139.3320 O   0  0  0  0  0  0  0  0  0  0  0  0
  182.0360  179.7610  139.5800 C   0  0  0  0  0  2  0  0  0  0  0  0
  187.3000  178.1140  140.9950 N   0  0  0  0  0  0  0  0  0  0  0  0
  188.3920  177.8090  144.4580 C   0  0  0  0  0  2  0  0  0  0  0  0
  183.3720  179.2850  139.9160 N   0  0  0  0  0  0  0  0  0  0  0  0
  181.5020  178.2770  137.5380 N   0  0  0  0  0  2  0  0  0  0  0  0
  190.0080  177.3140  142.4990 C   0  0  2  0  0  3  0  0  0  0  0  0
  184.9810  178.4890  141.5940 C   0  0  0  0  0  0  0  0  0  0  0  0
  183.8640  177.5810  138.2040 C   0  0  2  0  0  3  0  0  0  0  0  0
  185.9480  178.4760  140.6480 C   0  0  0  0  0  0  0  0  0  0  0  0
  183.0620  178.7860  143.5540 C   0  0  0  0  0  3  0  0  0  0  0  0
  189.5430  177.2190  140.2930 C   0  0  0  0  0  2  0  0  0  0  0  0
  182.7660  179.0750  142.2600 N   0  0  0  0  0  0  0  0  0  0  0  0
  188.3230  178.0850  139.9370 C   0  0  0  0  0  2  0  0  0  0  0  0
  188.7520  178.0150  143.0100 C   0  0  1  0  0  3  0  0  0  0  0  0
  184.3010  178.3400  143.8870 N   0  0  0  0  0  0  0  0  0  0  0  0
  186.4800  177.7340  143.2790 C   0  0  0  0  0  0  0  0  0  0  0  0
  191.0950  177.5080  143.3990 O   0  0  0  0  0  0  0  0  0  0  0  0
  191.6610  176.4990  144.1640 N   0  0  0  0  0  0  0  0  0  0  0  0
  192.2250  175.6180  147.5970 N   0  0  0  0  0  2  0  0  0  0  0  0
  191.0610  177.3800  146.3940 C   0  0  0  0  0  2  0  0  0  0  0  0
  191.6880  176.4300  145.4630 C   0  0  0  0  0  0  0  0  0  0  0  0
  191.2660  176.7170  147.7420 C   0  0  0  0  0  2  0  0  0  0  0  0
  192.3320  175.3150  146.1730 C   0  0  0  0  0  2  0  0  0  0  0  0
  1 27  2  0  0  0  0
  1 26  1  0  0  0  0
  3 16  1  0  0  0  0
  3 19  1  0  0  0  0
  4 18  1  0  0  0  0
  4 23  2  0  0  0  0
  5 11  1  1  0  0  0
  5 15  1  0  0  0  0
  7  3  2  0  0  0  0
  8 12  1  0  0  0  0
  9 25  1  0  0  0  0
  9 27  1  1  0  0  0
 10 17  1  0  0  0  0
 11 20  1  0  0  0  0
 12 15  1  0  0  0  0
 13  9  1  0  0  0  0
 14  2  1  0  0  0  0
 15  4  1  0  0  0  0
 16  8  1  0  0  0  0
 17 25  1  0  0  0  0
 17 28  1  1  0  0  0
 18  1  1  0  0  0  0
 19  6  1  6  0  0  0
 19  5  1  0  0  0  0
 20 13  1  0  0  0  0
 20 18  2  0  0  0  0
 21 26  2  0  0  0  0
 22 10  1  0  0  0  0
 23 21  1  0  0  0  0
 24 22  1  0  0  0  0
 24 13  1  0  0  0  0
 25 14  1  1  0  0  0
 27  2  1  0  0  0  0
 28 29  1  0  0  0  0
 29 32  2  0  0  0  0
 30 33  1  0  0  0  0
 31 33  1  0  0  0  0
 32 34  1  0  0  0  0
 32 31  1  0  0  0  0
 34 30  1  0  0  0  0
M  END
>  <MODEL>
1

>  <REMARK>
 VINA RESULT:      -9.3      0.000      0.000
  Name = 
  2 active torsions:
  status: ('A' for Active; 'I' for Inactive)
    1  A    between atoms: C_17  and  O_28
    2  A    between atoms: O_28  and  N_29
                            x       y       z     vdW  Elec       q    Type
                         _______ _______ _______ _____ _____    ______ ____

>  <TORSDO>
F 2

$$$$
=
 OpenBabel11122412253D

 34 40  0  0  1  0  0  0  0  0999 V2000
  187.9800  177.3200  143.7010 C   0  0  0  0  0  0  0  0  0  0  0  0
  190.3080  176.4430  143.4260 C   0  0  0  0  0  2  0  0  0  0  0  0
  182.2680  178.7440  141.4910 C   0  0  0  0  0  0  0  0  0  0  0  0
  185.8920  178.5200  143.8870 C   0  0  0  0  0  0  0  0  0  0  0  0
  184.6740  179.2970  141.8350 C   0  0  2  0  0  3  0  0  0  0  0  0
  183.9670  177.7030  139.9730 C   0  0  0  0  0  1  0  0  0  0  0  0
  181.6180  179.0520  140.4560 O   0  0  0  0  0  0  0  0  0  0  0  0
  182.4470  178.4960  144.2860 S   0  0  0  0  0  0  0  0  0  0  0  0
  189.0270  176.9600  141.4880 C   0  0  1  0  0  3  0  0  0  0  0  0
  190.3960  177.7770  138.9310 O   0  0  0  0  0  0  0  0  0  0  0  0
  185.9500  179.1340  141.2050 O   0  0  0  0  0  0  0  0  0  0  0  0
  183.7320  179.7730  144.1310 C   0  0  0  0  0  2  0  0  0  0  0  0
  188.1080  177.9750  140.9620 N   0  0  0  0  0  0  0  0  0  0  0  0
  191.1630  176.6290  142.4230 C   0  0  0  0  0  2  0  0  0  0  0  0
  184.8160  179.2680  143.2960 N   0  0  0  0  0  0  0  0  0  0  0  0
  181.6830  178.9930  142.7710 N   0  0  0  0  0  2  0  0  0  0  0  0
  190.8920  176.8480  139.8600 C   0  0  2  0  0  3  0  0  0  0  0  0
  186.9370  178.0460  143.0830 C   0  0  0  0  0  0  0  0  0  0  0  0
  183.6750  178.2180  141.3800 C   0  0  2  0  0  3  0  0  0  0  0  0
  186.9830  178.3740  141.7720 C   0  0  0  0  0  0  0  0  0  0  0  0
  186.9540  177.6290  145.8100 C   0  0  0  0  0  3  0  0  0  0  0  0
  189.0530  177.4390  138.6930 C   0  0  0  0  0  2  0  0  0  0  0  0
  185.9260  178.3010  145.2300 N   0  0  0  0  0  0  0  0  0  0  0  0
  188.1150  178.3230  139.5320 C   0  0  0  0  0  2  0  0  0  0  0  0
  190.4820  177.2990  141.2590 C   0  0  1  0  0  3  0  0  0  0  0  0
  187.9730  177.1500  145.0500 N   0  0  0  0  0  0  0  0  0  0  0  0
  188.9920  176.8570  142.9620 C   0  0  0  0  0  0  0  0  0  0  0  0
  192.3100  176.7900  139.7450 O   0  0  0  0  0  0  0  0  0  0  0  0
  192.9990  176.9020  138.5460 N   0  0  0  0  0  0  0  0  0  0  0  0
  193.9090  174.9320  135.6870 N   0  0  0  0  0  2  0  0  0  0  0  0
  192.5450  174.6330  137.6750 C   0  0  0  0  0  2  0  0  0  0  0  0
  193.1430  175.9760  137.6430 C   0  0  0  0  0  0  0  0  0  0  0  0
  192.9040  174.0690  136.3140 C   0  0  0  0  0  2  0  0  0  0  0  0
  193.9100  176.2010  136.4080 C   0  0  0  0  0  2  0  0  0  0  0  0
  1 26  1  0  0  0  0
  3 16  1  0  0  0  0
  4 23  2  0  0  0  0
  5 11  1  6  0  0  0
  5 15  1  0  0  0  0
  7  3  2  0  0  0  0
  9 27  1  1  0  0  0
 10 17  1  0  0  0  0
 11 20  1  0  0  0  0
 12  8  1  0  0  0  0
 13  9  1  0  0  0  0
 13 20  1  0  0  0  0
 14  2  1  0  0  0  0
 15  4  1  0  0  0  0
 15 12  1  0  0  0  0
 16  8  1  0  0  0  0
 17 28  1  1  0  0  0
 17 25  1  0  0  0  0
 18  1  1  0  0  0  0
 18  4  1  0  0  0  0
 19  6  1  6  0  0  0
 19  3  1  0  0  0  0
 19  5  1  0  0  0  0
 20 18  2  0  0  0  0
 22 10  1  0  0  0  0
 22 24  1  0  0  0  0
 23 21  1  0  0  0  0
 24 13  1  0  0  0  0
 25  9  1  0  0  0  0
 25 14  1  1  0  0  0
 26 21  2  0  0  0  0
 27  2  1  0  0  0  0
 27  1  2  0  0  0  0
 29 28  1  0  0  0  0
 30 33  1  0  0  0  0
 30 34  1  0  0  0  0
 32 31  1  0  0  0  0
 32 29  2  0  0  0  0
 33 31  1  0  0  0  0
 34 32  1  0  0  0  0
M  END
>  <MODEL>
2

>  <REMARK>
 VINA RESULT:      -9.3      3.166      5.137
  Name = 
  2 active torsions:
  status: ('A' for Active; 'I' for Inactive)
    1  A    between atoms: C_17  and  O_28
    2  A    between atoms: O_28  and  N_29
                            x       y       z     vdW  Elec       q    Type
                         _______ _______ _______ _____ _____    ______ ____

>  <TORSDO>
F 2

$$$$
=
 OpenBabel11122412253D

 34 40  0  0  1  0  0  0  0  0999 V2000
  186.6060  178.4420  141.3120 C   0  0  0  0  0  0  0  0  0  0  0  0
  186.8370  178.6290  138.8280 C   0  0  0  0  0  2  0  0  0  0  0  0
  189.0000  177.9060  147.1020 C   0  0  0  0  0  0  0  0  0  0  0  0
  186.3590  177.8720  143.6470 C   0  0  0  0  0  0  0  0  0  0  0  0
  188.2780  176.9010  144.9400 C   0  0  2  0  0  3  0  0  0  0  0  0
  190.5350  178.0720  145.1300 C   0  0  0  0  0  1  0  0  0  0  0  0
  189.9920  177.5040  147.7670 O   0  0  0  0  0  0  0  0  0  0  0  0
  186.3470  178.8280  146.9800 S   0  0  0  0  0  0  0  0  0  0  0  0
  188.7160  177.9460  140.1180 C   0  0  1  0  0  3  0  0  0  0  0  0
  190.8370  176.1810  138.9050 O   0  0  0  0  0  0  0  0  0  0  0  0
  188.7880  176.5810  143.6400 O   0  0  0  0  0  0  0  0  0  0  0  0
  186.0490  177.2850  146.0660 C   0  0  0  0  0  2  0  0  0  0  0  0
  189.0750  177.0810  141.2470 N   0  0  0  0  0  0  0  0  0  0  0  0
  187.6670  177.9860  138.0100 C   0  0  0  0  0  2  0  0  0  0  0  0
  186.8610  177.2770  144.8550 N   0  0  0  0  0  0  0  0  0  0  0  0
  187.7680  178.1510  147.7850 N   0  0  0  0  0  2  0  0  0  0  0  0
  190.1140  177.1740  138.2230 C   0  0  2  0  0  3  0  0  0  0  0  0
  187.1370  177.8520  142.4820 C   0  0  0  0  0  0  0  0  0  0  0  0
  189.0850  178.0310  145.6040 C   0  0  2  0  0  3  0  0  0  0  0  0
  188.3170  177.1910  142.4690 C   0  0  0  0  0  0  0  0  0  0  0  0
  184.6080  178.9540  142.4690 C   0  0  0  0  0  3  0  0  0  0  0  0
  191.2910  176.7580  140.1030 C   0  0  0  0  0  2  0  0  0  0  0  0
  185.1130  178.4210  143.6120 N   0  0  0  0  0  0  0  0  0  0  0  0
  190.3680  176.3780  141.2720 C   0  0  0  0  0  2  0  0  0  0  0  0
  188.6990  177.2190  138.7930 C   0  0  1  0  0  3  0  0  0  0  0  0
  185.3480  178.9570  141.3310 N   0  0  0  0  0  0  0  0  0  0  0  0
  187.3240  178.4370  140.1850 C   0  0  0  0  0  0  0  0  0  0  0  0
  190.0880  176.8570  136.8350 O   0  0  0  0  0  0  0  0  0  0  0  0
  190.3550  175.5970  136.3200 N   0  0  0  0  0  0  0  0  0  0  0  0
  188.6450  172.6380  135.2220 N   0  0  0  0  0  2  0  0  0  0  0  0
  188.0200  174.8640  135.9700 C   0  0  0  0  0  2  0  0  0  0  0  0
  189.4810  174.7000  135.9640 C   0  0  0  0  0  0  0  0  0  0  0  0
  187.5340  173.5900  135.3070 C   0  0  0  0  0  2  0  0  0  0  0  0
  189.8800  173.3850  135.4410 C   0  0  0  0  0  2  0  0  0  0  0  0
  1 26  1  0  0  0  0
  1 18  1  0  0  0  0
  2 27  1  0  0  0  0
  3  7  2  0  0  0  0
  3 16  1  0  0  0  0
  4 15  1  0  0  0  0
  5 11  1  6  0  0  0
  5 19  1  0  0  0  0
  8 16  1  0  0  0  0
  9 27  1  1  0  0  0
  9 13  1  0  0  0  0
 10 22  1  0  0  0  0
 12  8  1  0  0  0  0
 13 24  1  0  0  0  0
 13 20  1  0  0  0  0
 14  2  1  0  0  0  0
 15  5  1  0  0  0  0
 15 12  1  0  0  0  0
 17 28  1  6  0  0  0
 17 25  1  0  0  0  0
 17 10  1  0  0  0  0
 18  4  1  0  0  0  0
 19  6  1  6  0  0  0
 19  3  1  0  0  0  0
 20 18  2  0  0  0  0
 20 11  1  0  0  0  0
 21 23  1  0  0  0  0
 22 24  1  0  0  0  0
 23  4  2  0  0  0  0
 25 14  1  6  0  0  0
 25  9  1  0  0  0  0
 26 21  2  0  0  0  0
 27  1  2  0  0  0  0
 29 28  1  0  0  0  0
 30 33  1  0  0  0  0
 30 34  1  0  0  0  0
 32 31  1  0  0  0  0
 32 29  2  0  0  0  0
 33 31  1  0  0  0  0
 34 32  1  0  0  0  0
M  END
>  <MODEL>
3

>  <REMARK>
 VINA RESULT:      -9.1      3.563      7.560
  Name = 
  2 active torsions:
  status: ('A' for Active; 'I' for Inactive)
    1  A    between atoms: C_17  and  O_28
    2  A    between atoms: O_28  and  N_29
                            x       y       z     vdW  Elec       q    Type
                         _______ _______ _______ _____ _____    ______ ____

>  <TORSDO>
F 2

$$$$
=
 OpenBabel11122412253D

 34 40  0  0  1  0  0  0  0  0999 V2000
  186.5660  178.4180  141.3410 C   0  0  0  0  0  0  0  0  0  0  0  0
  186.8820  178.5610  138.8620 C   0  0  0  0  0  2  0  0  0  0  0  0
  188.7610  178.0090  147.2190 C   0  0  0  0  0  0  0  0  0  0  0  0
  186.2420  177.8900  143.6750 C   0  0  0  0  0  0  0  0  0  0  0  0
  188.1220  176.9580  145.0520 C   0  0  2  0  0  3  0  0  0  0  0  0
  190.3630  178.1510  145.2990 C   0  0  0  0  0  1  0  0  0  0  0  0
  189.7330  177.6270  147.9250 O   0  0  0  0  0  0  0  0  0  0  0  0
  186.1070  178.9070  146.9880 S   0  0  0  0  0  0  0  0  0  0  0  0
  188.7200  177.9170  140.2300 C   0  0  1  0  0  3  0  0  0  0  0  0
  190.8940  176.1480  139.1240 O   0  0  0  0  0  0  0  0  0  0  0  0
  188.6790  176.6180  143.7770 O   0  0  0  0  0  0  0  0  0  0  0  0
  185.8520  177.3450  146.0930 C   0  0  0  0  0  2  0  0  0  0  0  0
  189.0450  177.0760  141.3860 N   0  0  0  0  0  0  0  0  0  0  0  0
  187.7450  177.9100  138.0860 C   0  0  0  0  0  2  0  0  0  0  0  0
  186.7060  177.3210  144.9120 N   0  0  0  0  0  0  0  0  0  0  0  0
  187.5040  178.2560  147.8530 N   0  0  0  0  0  2  0  0  0  0  0  0
  190.1880  177.1220  138.3990 C   0  0  2  0  0  3  0  0  0  0  0  0
  187.0600  177.8550  142.5390 C   0  0  0  0  0  0  0  0  0  0  0  0
  188.8970  178.1060  145.7220 C   0  0  2  0  0  3  0  0  0  0  0  0
  188.2450  177.2030  142.5790 C   0  0  0  0  0  0  0  0  0  0  0  0
  184.5250  178.9360  142.4180 C   0  0  0  0  0  3  0  0  0  0  0  0
  191.3020  176.7500  140.3260 C   0  0  0  0  0  2  0  0  0  0  0  0
  184.9940  178.4280  143.5870 N   0  0  0  0  0  0  0  0  0  0  0  0
  190.3420  176.3840  141.4690 C   0  0  0  0  0  2  0  0  0  0  0  0
  188.7540  177.1660  138.9190 C   0  0  1  0  0  3  0  0  0  0  0  0
  185.3050  178.9230  141.3060 N   0  0  0  0  0  0  0  0  0  0  0  0
  187.3230  178.3990  140.2390 C   0  0  0  0  0  0  0  0  0  0  0  0
  190.2130  176.7790  137.0170 O   0  0  0  0  0  0  0  0  0  0  0  0
  190.5420  175.5210  136.5330 N   0  0  0  0  0  0  0  0  0  0  0  0
  193.3150  173.7490  135.1010 N   0  0  0  0  0  2  0  0  0  0  0  0
  192.9300  175.9490  136.0560 C   0  0  0  0  0  2  0  0  0  0  0  0
  191.7030  175.1400  136.0830 C   0  0  0  0  0  0  0  0  0  0  0  0
  193.9800  174.9560  135.5980 C   0  0  0  0  0  2  0  0  0  0  0  0
  191.9370  173.7780  135.5780 C   0  0  0  0  0  2  0  0  0  0  0  0
  1 18  1  0  0  0  0
  2 27  1  0  0  0  0
  3 16  1  0  0  0  0
  3  7  2  0  0  0  0
  4 15  1  0  0  0  0
  5 11  1  6  0  0  0
  5 19  1  0  0  0  0
  8 16  1  0  0  0  0
  9 27  1  1  0  0  0
  9 13  1  0  0  0  0
 10 22  1  0  0  0  0
 12  8  1  0  0  0  0
 13 24  1  0  0  0  0
 13 20  1  0  0  0  0
 14  2  1  0  0  0  0
 15  5  1  0  0  0  0
 15 12  1  0  0  0  0
 17 28  1  6  0  0  0
 17 25  1  0  0  0  0
 17 10  1  0  0  0  0
 18 20  2  0  0  0  0
 18  4  1  0  0  0  0
 19  6  1  1  0  0  0
 19  3  1  0  0  0  0
 20 11  1  0  0  0  0
 21 23  1  0  0  0  0
 22 24  1  0  0  0  0
 23  4  2  0  0  0  0
 25 14  1  6  0  0  0
 25  9  1  0  0  0  0
 26  1  1  0  0  0  0
 26 21  2  0  0  0  0
 27  1  2  0  0  0  0
 29 28  1  0  0  0  0
 30 34  1  0  0  0  0
 30 33  1  0  0  0  0
 31 32  1  0  0  0  0
 32 29  2  0  0  0  0
 33 31  1  0  0  0  0
 34 32  1  0  0  0  0
M  END
>  <MODEL>
4

>  <REMARK>
 VINA RESULT:      -9.0      3.824      7.396
  Name = 
  2 active torsions:
  status: ('A' for Active; 'I' for Inactive)
    1  A    between atoms: C_17  and  O_28
    2  A    between atoms: O_28  and  N_29
                            x       y       z     vdW  Elec       q    Type
                         _______ _______ _______ _____ _____    ______ ____

>  <TORSDO>
F 2

$$$$
=
 OpenBabel11122412253D

 34 40  0  0  1  0  0  0  0  0999 V2000
  185.9430  178.7670  143.0540 C   0  0  0  0  0  0  0  0  0  0  0  0
  184.9260  179.3750  140.8500 C   0  0  0  0  0  2  0  0  0  0  0  0
  190.8640  177.4650  146.7450 C   0  0  0  0  0  0  0  0  0  0  0  0
  186.8650  177.8050  145.0690 C   0  0  0  0  0  0  0  0  0  0  0  0
  189.1550  176.7780  145.0670 C   0  0  2  0  0  3  0  0  0  0  0  0
  191.2350  178.0630  144.3420 C   0  0  0  0  0  1  0  0  0  0  0  0
  192.0480  177.0320  146.7590 O   0  0  0  0  0  0  0  0  0  0  0  0
  188.5110  178.1980  148.0960 S   0  0  0  0  0  0  0  0  0  0  0  0
  187.1840  178.6280  140.9180 C   0  0  1  0  0  3  0  0  0  0  0  0
  188.4030  177.2470  138.5330 O   0  0  0  0  0  0  0  0  0  0  0  0
  188.9540  176.7130  143.6500 O   0  0  0  0  0  0  0  0  0  0  0  0
  187.7750  176.8090  147.1840 C   0  0  0  0  0  2  0  0  0  0  0  0
  188.0370  177.6190  141.5540 N   0  0  0  0  0  0  0  0  0  0  0  0
  185.2350  178.9370  139.6320 C   0  0  0  0  0  2  0  0  0  0  0  0
  187.8860  177.0580  145.7520 N   0  0  0  0  0  0  0  0  0  0  0  0
  190.1310  177.5030  147.9720 N   0  0  0  0  0  2  0  0  0  0  0  0
  187.4560  178.2820  138.4790 C   0  0  2  0  0  3  0  0  0  0  0  0
  186.9700  178.0340  143.6910 C   0  0  0  0  0  0  0  0  0  0  0  0
  190.2040  177.8390  145.4450 C   0  0  2  0  0  3  0  0  0  0  0  0
  187.9790  177.4710  142.9870 C   0  0  0  0  0  0  0  0  0  0  0  0
  184.7810  178.9350  145.1070 C   0  0  0  0  0  3  0  0  0  0  0  0
  189.3980  177.6510  139.4390 C   0  0  0  0  0  2  0  0  0  0  0  0
  185.7730  178.2600  145.7430 N   0  0  0  0  0  0  0  0  0  0  0  0
  189.1620  177.0170  140.8200 C   0  0  0  0  0  2  0  0  0  0  0  0
  186.5060  178.1300  139.6630 C   0  0  1  0  0  3  0  0  0  0  0  0
  184.8660  179.1780  143.7730 N   0  0  0  0  0  0  0  0  0  0  0  0
  186.0140  179.0000  141.7400 C   0  0  0  0  0  0  0  0  0  0  0  0
  186.7450  178.1960  137.2470 O   0  0  0  0  0  0  0  0  0  0  0  0
  186.7090  177.0630  136.4480 N   0  0  0  0  0  0  0  0  0  0  0  0
  184.6220  174.2230  135.7690 N   0  0  0  0  0  2  0  0  0  0  0  0
  184.4740  176.2420  137.1130 C   0  0  0  0  0  2  0  0  0  0  0  0
  185.7530  176.1820  136.3900 C   0  0  0  0  0  0  0  0  0  0  0  0
  183.7050  175.0690  136.5390 C   0  0  0  0  0  2  0  0  0  0  0  0
  185.8270  175.0050  135.5110 C   0  0  0  0  0  2  0  0  0  0  0  0
  1 18  1  0  0  0  0
  1 26  1  0  0  0  0
  2 27  1  0  0  0  0
  3  7  2  0  0  0  0
  3 16  1  0  0  0  0
  4 23  2  0  0  0  0
  4 15  1  0  0  0  0
  5 11  1  6  0  0  0
  5 19  1  0  0  0  0
  5 15  1  0  0  0  0
  9 13  1  0  0  0  0
  9 27  1  1  0  0  0
 10 22  1  0  0  0  0
 12  8  1  0  0  0  0
 13 20  1  0  0  0  0
 14  2  1  0  0  0  0
 15 12  1  0  0  0  0
 16  8  1  0  0  0  0
 17 28  1  6  0  0  0
 17 10  1  0  0  0  0
 17 25  1  0  0  0  0
 18  4  1  0  0  0  0
 19  6  1  6  0  0  0
 19  3  1  0  0  0  0
 20 11  1  0  0  0  0
 20 18  2  0  0  0  0
 21 23  1  0  0  0  0
 22 24  1  0  0  0  0
 24 13  1  0  0  0  0
 25 14  1  6  0  0  0
 25  9  1  0  0  0  0
 26 21  2  0  0  0  0
 27  1  2  0  0  0  0
 29 28  1  0  0  0  0
 30 33  1  0  0  0  0
 32 29  2  0  0  0  0
 32 31  1  0  0  0  0
 33 31  1  0  0  0  0
 34 30  1  0  0  0  0
 34 32  1  0  0  0  0
M  END
>  <MODEL>
5

>  <REMARK>
 VINA RESULT:      -9.0      3.008      8.112
  Name = 
  2 active torsions:
  status: ('A' for Active; 'I' for Inactive)
    1  A    between atoms: C_17  and  O_28
    2  A    between atoms: O_28  and  N_29
                            x       y       z     vdW  Elec       q    Type
                         _______ _______ _______ _____ _____    ______ ____

>  <TORSDO>
F 2

$$$$
=
 OpenBabel11122412253D

 34 40  0  0  1  0  0  0  0  0999 V2000
  182.1620  178.9940  142.6030 C   0  0  0  0  0  0  0  0  0  0  0  0
  183.0570  178.8310  144.9340 C   0  0  0  0  0  2  0  0  0  0  0  0
  182.4250  177.7760  136.4390 C   0  0  0  0  0  0  0  0  0  0  0  0
  181.5050  179.4860  140.3310 C   0  0  0  0  0  0  0  0  0  0  0  0
  183.0980  179.1190  138.4270 C   0  0  2  0  0  3  0  0  0  0  0  0
  184.1860  176.8580  137.9660 C   0  0  0  0  0  1  0  0  0  0  0  0
  183.1970  177.5040  135.4810 O   0  0  0  0  0  0  0  0  0  0  0  0
  179.8990  178.5460  137.4040 S   0  0  0  0  0  0  0  0  0  0  0  0
  184.4680  178.2510  143.1070 C   0  0  1  0  0  3  0  0  0  0  0  0
  187.4580  178.5410  143.3400 O   0  0  0  0  0  0  0  0  0  0  0  0
  184.0920  179.1530  139.4580 O   0  0  0  0  0  0  0  0  0  0  0  0
  180.7800  180.0250  137.9900 C   0  0  0  0  0  2  0  0  0  0  0  0
  184.8360  178.6980  141.7590 N   0  0  0  0  0  0  0  0  0  0  0  0
  184.3150  178.9230  145.3590 C   0  0  0  0  0  2  0  0  0  0  0  0
  181.8170  179.6270  138.9340 N   0  0  0  0  0  0  0  0  0  0  0  0
  181.1070  178.2470  136.1480 N   0  0  0  0  0  2  0  0  0  0  0  0
  186.5910  178.1760  144.3830 C   0  0  2  0  0  3  0  0  0  0  0  0
  182.5060  179.1150  141.2370 C   0  0  0  0  0  0  0  0  0  0  0  0
  182.9160  177.7000  137.8610 C   0  0  2  0  0  3  0  0  0  0  0  0
  183.7840  178.9810  140.8140 C   0  0  0  0  0  0  0  0  0  0  0  0
  179.9470  179.6610  142.1100 C   0  0  0  0  0  3  0  0  0  0  0  0
  187.1180  177.7490  142.2310 C   0  0  0  0  0  2  0  0  0  0  0  0
  180.2500  179.7520  140.7890 N   0  0  0  0  0  0  0  0  0  0  0  0
  186.2130  178.5320  141.2640 C   0  0  0  0  0  2  0  0  0  0  0  0
  185.2720  178.9210  144.1970 C   0  0  1  0  0  3  0  0  0  0  0  0
  180.8990  179.2920  143.0050 N   0  0  0  0  0  0  0  0  0  0  0  0
  183.0960  178.6420  143.4920 C   0  0  0  0  0  0  0  0  0  0  0  0
  187.1920  178.5190  145.6280 O   0  0  0  0  0  0  0  0  0  0  0  0
  188.0100  177.6680  146.3570 N   0  0  0  0  0  0  0  0  0  0  0  0
  191.3690  176.4020  146.3730 N   0  0  0  0  0  2  0  0  0  0  0  0
  190.1040  178.0360  145.0940 C   0  0  0  0  0  2  0  0  0  0  0  0
  189.2670  177.4160  146.1320 C   0  0  0  0  0  0  0  0  0  0  0  0
  191.4870  177.5000  145.4090 C   0  0  0  0  0  2  0  0  0  0  0  0
  190.0380  176.4800  146.9660 C   0  0  0  0  0  2  0  0  0  0  0  0
  1 26  1  0  0  0  0
  1 27  2  0  0  0  0
  2 14  1  0  0  0  0
  3 19  1  0  0  0  0
  4 23  2  0  0  0  0
  4 18  1  0  0  0  0
  5 15  1  0  0  0  0
  5 11  1  1  0  0  0
  7  3  2  0  0  0  0
  8 12  1  0  0  0  0
  9 27  1  1  0  0  0
  9 25  1  0  0  0  0
 10 17  1  0  0  0  0
 11 20  1  0  0  0  0
 12 15  1  0  0  0  0
 13  9  1  0  0  0  0
 15  4  1  0  0  0  0
 16  3  1  0  0  0  0
 16  8  1  0  0  0  0
 17 28  1  1  0  0  0
 18  1  1  0  0  0  0
 19  6  1  6  0  0  0
 19  5  1  0  0  0  0
 20 18  2  0  0  0  0
 20 13  1  0  0  0  0
 21 26  2  0  0  0  0
 22 10  1  0  0  0  0
 23 21  1  0  0  0  0
 24 13  1  0  0  0  0
 24 22  1  0  0  0  0
 25 17  1  0  0  0  0
 25 14  1  1  0  0  0
 27  2  1  0  0  0  0
 28 29  1  0  0  0  0
 30 34  1  0  0  0  0
 31 33  1  0  0  0  0
 31 32  1  0  0  0  0
 32 29  2  0  0  0  0
 32 34  1  0  0  0  0
 33 30  1  0  0  0  0
M  END
>  <MODEL>
6

>  <REMARK>
 VINA RESULT:      -8.5      1.960      2.855
  Name = 
  2 active torsions:
  status: ('A' for Active; 'I' for Inactive)
    1  A    between atoms: C_17  and  O_28
    2  A    between atoms: O_28  and  N_29
                            x       y       z     vdW  Elec       q    Type
                         _______ _______ _______ _____ _____    ______ ____

>  <TORSDO>
F 2

$$$$
=
 OpenBabel11122412253D

 34 40  0  0  1  0  0  0  0  0999 V2000
  185.4930  178.3030  143.4590 C   0  0  0  0  0  0  0  0  0  0  0  0
  187.9670  177.9740  143.2720 C   0  0  0  0  0  2  0  0  0  0  0  0
  179.6410  177.9570  141.1840 C   0  0  0  0  0  0  0  0  0  0  0  0
  183.1760  178.9840  143.5020 C   0  0  0  0  0  0  0  0  0  0  0  0
  181.8400  179.1140  141.3820 C   0  0  2  0  0  3  0  0  0  0  0  0
  181.5630  177.1240  139.8100 C   0  0  0  0  0  1  0  0  0  0  0  0
  178.9520  177.9330  140.1290 O   0  0  0  0  0  0  0  0  0  0  0  0
  179.8310  178.2040  143.9780 S   0  0  0  0  0  0  0  0  0  0  0  0
  186.6300  177.8580  141.3070 C   0  0  1  0  0  3  0  0  0  0  0  0
  187.8030  178.5620  138.6220 O   0  0  0  0  0  0  0  0  0  0  0  0
  183.1280  179.1630  140.7560 O   0  0  0  0  0  0  0  0  0  0  0  0
  180.7760  179.7090  143.5950 C   0  0  0  0  0  2  0  0  0  0  0  0
  185.5030  178.5270  140.6490 N   0  0  0  0  0  0  0  0  0  0  0  0
  188.7680  178.1980  142.2330 C   0  0  0  0  0  2  0  0  0  0  0  0
  181.9620  179.3520  142.8250 N   0  0  0  0  0  0  0  0  0  0  0  0
  178.9940  178.2580  142.4220 N   0  0  0  0  0  2  0  0  0  0  0  0
  188.4930  177.9370  139.6740 C   0  0  2  0  0  3  0  0  0  0  0  0
  184.3170  178.6520  142.7590 C   0  0  0  0  0  0  0  0  0  0  0  0
  181.1350  177.7700  141.1250 C   0  0  2  0  0  3  0  0  0  0  0  0
  184.3030  178.7700  141.4110 C   0  0  0  0  0  0  0  0  0  0  0  0
  184.3910  178.6880  145.5160 C   0  0  0  0  0  3  0  0  0  0  0  0
  186.5840  177.8810  138.4720 C   0  0  0  0  0  2  0  0  0  0  0  0
  183.2410  178.9950  144.8610 N   0  0  0  0  0  0  0  0  0  0  0  0
  185.4490  178.6370  139.1820 C   0  0  0  0  0  2  0  0  0  0  0  0
  187.9650  178.4930  140.9940 C   0  0  1  0  0  3  0  0  0  0  0  0
  185.5060  178.3520  144.8180 N   0  0  0  0  0  0  0  0  0  0  0  0
  186.5980  177.9830  142.7790 C   0  0  0  0  0  0  0  0  0  0  0  0
  189.8850  178.2010  139.5370 O   0  0  0  0  0  0  0  0  0  0  0  0
  190.8380  177.2310  139.2640 N   0  0  0  0  0  0  0  0  0  0  0  0
  191.9120  175.0840  136.5950 N   0  0  0  0  0  2  0  0  0  0  0  0
  190.2940  176.8750  136.8790 C   0  0  0  0  0  2  0  0  0  0  0  0
  191.0200  176.6170  138.1310 C   0  0  0  0  0  0  0  0  0  0  0  0
  191.0290  176.0070  135.8760 C   0  0  0  0  0  2  0  0  0  0  0  0
  192.0570  175.5880  137.9570 C   0  0  0  0  0  2  0  0  0  0  0  0
  1 26  1  0  0  0  0
  3 16  1  0  0  0  0
  4 23  2  0  0  0  0
  5 11  1  1  0  0  0
  5 15  1  0  0  0  0
  7  3  2  0  0  0  0
  9 27  1  1  0  0  0
 10 17  1  0  0  0  0
 11 20  1  0  0  0  0
 12  8  1  0  0  0  0
 13  9  1  0  0  0  0
 13 20  1  0  0  0  0
 14  2  1  0  0  0  0
 15  4  1  0  0  0  0
 15 12  1  0  0  0  0
 16  8  1  0  0  0  0
 17 28  1  6  0  0  0
 17 25  1  0  0  0  0
 18  1  1  0  0  0  0
 18  4  1  0  0  0  0
 19  6  1  6  0  0  0
 19  3  1  0  0  0  0
 19  5  1  0  0  0  0
 20 18  2  0  0  0  0
 22 10  1  0  0  0  0
 22 24  1  0  0  0  0
 23 21  1  0  0  0  0
 24 13  1  0  0  0  0
 25  9  1  0  0  0  0
 25 14  1  1  0  0  0
 26 21  2  0  0  0  0
 27  2  1  0  0  0  0
 27  1  2  0  0  0  0
 29 28  1  0  0  0  0
 30 34  1  0  0  0  0
 31 32  1  0  0  0  0
 32 29  2  0  0  0  0
 33 30  1  0  0  0  0
 33 31  1  0  0  0  0
 34 32  1  0  0  0  0
M  END
>  <MODEL>
7

>  <REMARK>
 VINA RESULT:      -8.4      3.177      4.868
  Name = 
  2 active torsions:
  status: ('A' for Active; 'I' for Inactive)
    1  A    between atoms: C_17  and  O_28
    2  A    between atoms: O_28  and  N_29
                            x       y       z     vdW  Elec       q    Type
                         _______ _______ _______ _____ _____    ______ ____

>  <TORSDO>
F 2

$$$$
=
 OpenBabel11122412253D

 34 40  0  0  1  0  0  0  0  0999 V2000
  184.9250  178.6240  144.9990 C   0  0  0  0  0  0  0  0  0  0  0  0
  182.8690  179.3170  143.7530 C   0  0  0  0  0  2  0  0  0  0  0  0
  191.1440  177.8200  145.4730 C   0  0  0  0  0  0  0  0  0  0  0  0
  186.8390  177.5940  146.0540 C   0  0  0  0  0  0  0  0  0  0  0  0
  188.8960  177.0470  144.7240 C   0  0  2  0  0  3  0  0  0  0  0  0
  190.1710  178.8050  143.3850 C   0  0  0  0  0  1  0  0  0  0  0  0
  192.2050  177.6310  144.8190 O   0  0  0  0  0  0  0  0  0  0  0  0
  189.7520  177.8830  147.9140 S   0  0  0  0  0  0  0  0  0  0  0  0
  184.9060  179.0270  142.5580 C   0  0  1  0  0  3  0  0  0  0  0  0
  184.8670  178.2540  139.6450 O   0  0  0  0  0  0  0  0  0  0  0  0
  188.0070  177.1410  143.6050 O   0  0  0  0  0  0  0  0  0  0  0  0
  188.7970  176.5150  147.1930 C   0  0  0  0  0  2  0  0  0  0  0  0
  186.0610  178.1270  142.4660 N   0  0  0  0  0  0  0  0  0  0  0  0
  182.5550  179.1200  142.4750 C   0  0  0  0  0  2  0  0  0  0  0  0
  188.1350  176.9760  145.9780 N   0  0  0  0  0  0  0  0  0  0  0  0
  191.1410  177.5450  146.8750 N   0  0  0  0  0  2  0  0  0  0  0  0
  183.9260  179.0800  140.2820 C   0  0  2  0  0  3  0  0  0  0  0  0
  186.2010  178.0260  144.8840 C   0  0  0  0  0  0  0  0  0  0  0  0
  189.8770  178.2320  144.7700 C   0  0  2  0  0  3  0  0  0  0  0  0
  186.7600  177.7760  143.6780 C   0  0  0  0  0  0  0  0  0  0  0  0
  184.9660  178.2760  147.3380 C   0  0  0  0  0  3  0  0  0  0  0  0
  186.1380  178.7170  140.0230 C   0  0  0  0  0  2  0  0  0  0  0  0
  186.2060  177.7280  147.2520 N   0  0  0  0  0  0  0  0  0  0  0  0
  186.7070  177.8660  141.1700 C   0  0  0  0  0  2  0  0  0  0  0  0
  183.7360  178.5820  141.7120 C   0  0  1  0  0  3  0  0  0  0  0  0
  184.3330  178.7120  146.2190 N   0  0  0  0  0  0  0  0  0  0  0  0
  184.2900  179.0440  143.9010 C   0  0  0  0  0  0  0  0  0  0  0  0
  182.6990  179.0260  139.5620 O   0  0  0  0  0  0  0  0  0  0  0  0
  182.3390  177.9870  138.7160 N   0  0  0  0  0  0  0  0  0  0  0  0
  180.3120  175.0250  138.6840 N   0  0  0  0  0  2  0  0  0  0  0  0
  180.7290  176.8620  140.2180 C   0  0  0  0  0  2  0  0  0  0  0  0
  181.5110  177.0180  138.9830 C   0  0  0  0  0  0  0  0  0  0  0  0
  179.8340  175.6790  139.9050 C   0  0  0  0  0  2  0  0  0  0  0  0
  181.2120  175.9550  138.0110 C   0  0  0  0  0  2  0  0  0  0  0  0
  1 26  1  0  0  0  0
  2 27  1  0  0  0  0
  3 16  1  0  0  0  0
  4 23  2  0  0  0  0
  5 11  1  6  0  0  0
  5 19  1  0  0  0  0
  5 15  1  0  0  0  0
  7  3  2  0  0  0  0
  9 27  1  1  0  0  0
 10 22  1  0  0  0  0
 10 17  1  0  0  0  0
 11 20  1  0  0  0  0
 12  8  1  0  0  0  0
 13  9  1  0  0  0  0
 13 20  1  0  0  0  0
 14  2  1  0  0  0  0
 15  4  1  0  0  0  0
 15 12  1  0  0  0  0
 16  8  1  0  0  0  0
 17 28  1  6  0  0  0
 17 25  1  0  0  0  0
 18  1  1  0  0  0  0
 18  4  1  0  0  0  0
 19  6  1  6  0  0  0
 19  3  1  0  0  0  0
 20 18  2  0  0  0  0
 22 24  1  0  0  0  0
 23 21  1  0  0  0  0
 24 13  1  0  0  0  0
 25 14  1  1  0  0  0
 25  9  1  0  0  0  0
 26 21  2  0  0  0  0
 27  1  2  0  0  0  0
 29 32  2  0  0  0  0
 29 28  1  0  0  0  0
 30 33  1  0  0  0  0
 32 31  1  0  0  0  0
 33 31  1  0  0  0  0
 34 30  1  0  0  0  0
 34 32  1  0  0  0  0
M  END
>  <MODEL>
8

>  <REMARK>
 VINA RESULT:      -8.3      3.081      8.530
  Name = 
  2 active torsions:
  status: ('A' for Active; 'I' for Inactive)
    1  A    between atoms: C_17  and  O_28
    2  A    between atoms: O_28  and  N_29
                            x       y       z     vdW  Elec       q    Type
                         _______ _______ _______ _____ _____    ______ ____

>  <TORSDO>
F 2

$$$$
=
 OpenBabel11122412253D

 34 40  0  0  1  0  0  0  0  0999 V2000
  188.8710  177.6460  140.1910 C   0  0  0  0  0  0  0  0  0  0  0  0
  191.2760  177.3020  140.7890 C   0  0  0  0  0  2  0  0  0  0  0  0
  183.7550  176.4060  136.7510 C   0  0  0  0  0  0  0  0  0  0  0  0
  186.6820  178.2650  139.3770 C   0  0  0  0  0  0  0  0  0  0  0  0
  185.9270  177.5820  137.0840 C   0  0  2  0  0  3  0  0  0  0  0  0
  185.8770  175.1470  136.3250 C   0  0  0  0  0  1  0  0  0  0  0  0
  183.3480  175.9840  135.6350 O   0  0  0  0  0  0  0  0  0  0  0  0
  183.2680  177.6750  139.2120 S   0  0  0  0  0  0  0  0  0  0  0  0
  190.4610  176.4480  138.7230 C   0  0  1  0  0  3  0  0  0  0  0  0
  192.3180  176.1200  136.3710 O   0  0  0  0  0  0  0  0  0  0  0  0
  187.3290  177.4110  136.8430 O   0  0  0  0  0  0  0  0  0  0  0  0
  184.4040  178.9420  138.5720 C   0  0  0  0  0  2  0  0  0  0  0  0
  189.5940  176.8110  137.5970 N   0  0  0  0  0  0  0  0  0  0  0  0
  192.3250  177.1340  139.9870 C   0  0  0  0  0  2  0  0  0  0  0  0
  185.7080  178.3400  138.3220 N   0  0  0  0  0  0  0  0  0  0  0  0
  182.8490  177.1370  137.5810 N   0  0  0  0  0  2  0  0  0  0  0  0
  192.6690  175.9390  137.7190 C   0  0  2  0  0  3  0  0  0  0  0  0
  187.9380  177.6950  139.1300 C   0  0  0  0  0  0  0  0  0  0  0  0
  185.1950  176.2300  137.1560 C   0  0  2  0  0  3  0  0  0  0  0  0
  188.2680  177.3040  137.8780 C   0  0  0  0  0  0  0  0  0  0  0  0
  187.3310  178.7530  141.6050 C   0  0  0  0  0  3  0  0  0  0  0  0
  191.1190  175.4170  136.1640 C   0  0  0  0  0  2  0  0  0  0  0  0
  186.4090  178.7810  140.6070 N   0  0  0  0  0  0  0  0  0  0  0  0
  189.9130  176.3680  136.2300 C   0  0  0  0  0  2  0  0  0  0  0  0
  191.8810  176.9380  138.5620 C   0  0  1  0  0  3  0  0  0  0  0  0
  188.5510  178.1950  141.3930 N   0  0  0  0  0  0  0  0  0  0  0  0
  190.0780  177.1100  139.9860 C   0  0  0  0  0  0  0  0  0  0  0  0
  194.0700  176.1510  137.8650 O   0  0  0  0  0  0  0  0  0  0  0  0
  195.0370  175.5130  137.1010 N   0  0  0  0  0  0  0  0  0  0  0  0
  196.8840  172.4380  136.9860 N   0  0  0  0  0  2  0  0  0  0  0  0
  195.0800  173.3650  138.3240 C   0  0  0  0  0  2  0  0  0  0  0  0
  195.5160  174.3180  137.2930 C   0  0  0  0  0  0  0  0  0  0  0  0
  195.8480  172.1070  137.9680 C   0  0  0  0  0  2  0  0  0  0  0  0
  196.5550  173.7440  136.4250 C   0  0  0  0  0  2  0  0  0  0  0  0
  1 26  1  0  0  0  0
  3 19  1  0  0  0  0
  3 16  1  0  0  0  0
  4 23  2  0  0  0  0
  5 11  1  1  0  0  0
  5 19  1  0  0  0  0
  5 15  1  0  0  0  0
  7  3  2  0  0  0  0
  9 27  1  1  0  0  0
 10 17  1  0  0  0  0
 11 20  1  0  0  0  0
 12  8  1  0  0  0  0
 13 20  1  0  0  0  0
 13  9  1  0  0  0  0
 14  2  1  0  0  0  0
 15 12  1  0  0  0  0
 15  4  1  0  0  0  0
 16  8  1  0  0  0  0
 17 28  1  6  0  0  0
 17 25  1  0  0  0  0
 18  4  1  0  0  0  0
 18  1  1  0  0  0  0
 19  6  1  6  0  0  0
 20 18  2  0  0  0  0
 22 24  1  0  0  0  0
 22 10  1  0  0  0  0
 23 21  1  0  0  0  0
 24 13  1  0  0  0  0
 25  9  1  0  0  0  0
 25 14  1  1  0  0  0
 26 21  2  0  0  0  0
 27  1  2  0  0  0  0
 27  2  1  0  0  0  0
 29 32  2  0  0  0  0
 29 28  1  0  0  0  0
 30 33  1  0  0  0  0
 32 31  1  0  0  0  0
 33 31  1  0  0  0  0
 34 30  1  0  0  0  0
 34 32  1  0  0  0  0
M  END
>  <MODEL>
9

>  <REMARK>
 VINA RESULT:      -7.6      4.281      5.787
  Name = 
  2 active torsions:
  status: ('A' for Active; 'I' for Inactive)
    1  A    between atoms: C_17  and  O_28
    2  A    between atoms: O_28  and  N_29
                            x       y       z     vdW  Elec       q    Type
                         _______ _______ _______ _____ _____    ______ ____

>  <TORSDO>
F 2

$$$$
