=
 OpenBabel11122411443D

 37 45  0  0  1  0  0  0  0  0999 V2000
  182.9940  178.1790  140.1030 C   0  0  2  0  0  3  0  0  0  0  0  0
  183.7840  176.7430  135.8860 C   0  0  0  0  0  0  0  0  0  0  0  0
  187.3570  177.7520  137.9410 C   0  0  1  0  0  3  0  0  0  0  0  0
  181.9250  179.2130  140.4870 C   0  0  1  0  0  0  0  0  0  0  0  0
  187.0770  178.4800  141.7460 C   0  0  0  0  0  2  0  0  0  0  0  0
  186.3330  177.0130  135.7960 C   0  0  2  0  0  3  0  0  0  0  0  0
  186.8210  178.3190  139.2380 C   0  0  2  0  0  3  0  0  0  0  0  0
  183.4800  179.1600  142.4240 C   0  0  2  0  0  3  0  0  0  0  0  0
  186.1380  177.7560  137.1000 C   0  0  1  0  0  3  0  0  0  0  0  0
  187.6150  177.8170  140.4700 C   0  0  1  0  0  3  0  0  0  0  0  0
  187.4610  177.7130  135.0240 C   0  0  0  0  0  2  0  0  0  0  0  0
  182.6000  178.2940  141.5300 C   0  0  2  0  0  3  0  0  0  0  0  0
  185.1160  177.1590  137.9180 N   0  0  2  0  0  0  0  0  0  0  0  0
  183.7160  175.2360  136.0730 C   0  0  0  0  0  1  0  0  0  0  0  0
  189.7190  178.6970  138.0460 C   0  0  0  0  0  2  0  0  0  0  0  0
  188.7340  177.8690  135.8830 C   0  0  0  0  0  2  0  0  0  0  0  0
  183.8340  177.4390  137.2620 C   0  0  0  0  0  2  0  0  0  0  0  0
  184.8950  179.3300  141.8860 C   0  0  1  0  0  3  0  0  0  0  0  0
  185.6960  178.1090  142.0100 N   0  0  0  0  0  2  0  0  0  0  0  0
  188.4350  178.5580  137.2260 C   0  0  1  0  0  3  0  0  0  0  0  0
  185.3610  177.7850  139.2400 C   0  0  2  0  0  3  0  0  0  0  0  0
  185.0130  177.1080  135.0220 C   0  0  0  0  0  2  0  0  0  0  0  0
  189.1390  178.1140  140.4120 C   0  0  2  0  0  3  0  0  0  0  0  0
  182.5340  177.1920  135.1630 C   0  0  0  0  0  1  0  0  0  0  0  0
  184.8540  179.8160  140.5600 O   0  0  0  0  0  0  0  0  0  0  0  0
  183.4780  178.6320  143.8470 C   0  0  0  0  0  1  0  0  0  0  0  0
  184.3220  178.8470  139.6680 C   0  0  2  0  0  3  0  0  0  0  0  0
  189.8570  177.6490  139.1460 C   0  0  0  0  0  2  0  0  0  0  0  0
  181.0510  178.8890  139.3350 C   0  0  0  0  0  2  0  0  0  0  0  0
  180.5190  178.7600  140.6620 N   0  0  0  0  0  2  0  0  0  0  0  0
  189.8130  176.1830  141.9010 C   0  0  0  0  0  3  0  0  0  0  0  0
  189.8590  177.5540  141.6050 C   0  0  0  0  0  0  0  0  0  0  0  0
  190.5900  178.4160  142.4300 C   0  0  0  0  0  3  0  0  0  0  0  0
  191.9920  178.7740  144.3600 O   0  0  0  0  0  1  0  0  0  0  0  0
  191.2200  176.5490  143.8370 C   0  0  0  0  0  3  0  0  0  0  0  0
  191.2690  177.9150  143.5440 C   0  0  0  0  0  0  0  0  0  0  0  0
  190.4930  175.6820  143.0160 C   0  0  0  0  0  3  0  0  0  0  0  0
  1  4  1  0  0  0  0
  1 12  1  0  0  0  0
  2 14  1  0  0  0  0
  2 17  1  0  0  0  0
  3  7  1  0  0  0  0
  4 30  1  0  0  0  0
  4 12  1  0  0  0  0
  5 19  1  0  0  0  0
  6  9  1  0  0  0  0
  7 21  1  0  0  0  0
  7 10  1  0  0  0  0
  8 26  1  0  0  0  0
  9 13  1  0  0  0  0
  9  3  1  0  0  0  0
 10  5  1  0  0  0  0
 11  6  1  0  0  0  0
 11 16  1  0  0  0  0
 12  8  1  0  0  0  0
 13 21  1  0  0  0  0
 15 28  1  0  0  0  0
 16 20  1  0  0  0  0
 17 13  1  0  0  0  0
 18 19  1  0  0  0  0
 18  8  1  0  0  0  0
 20  3  1  0  0  0  0
 20 15  1  0  0  0  0
 21 27  1  0  0  0  0
 22  6  1  0  0  0  0
 22  2  1  0  0  0  0
 23 10  1  0  0  0  0
 23 32  1  0  0  0  0
 24  2  1  0  0  0  0
 25 18  1  0  0  0  0
 27  1  1  0  0  0  0
 27 25  1  0  0  0  0
 28 23  1  0  0  0  0
 29  4  1  0  0  0  0
 29 30  1  0  0  0  0
 31 37  1  0  0  0  0
 32 31  2  0  0  0  0
 32 33  1  0  0  0  0
 33 36  2  0  0  0  0
 36 35  1  0  0  0  0
 36 34  1  0  0  0  0
 37 35  2  0  0  0  0
M  END
>  <MODEL>
1

>  <REMARK>
 VINA RESULT:      -8.3      0.000      0.000
  Name = 
  1 active torsions:
  status: ('A' for Active; 'I' for Inactive)
    1  A    between atoms: C_23  and  C_30
                            x       y       z     vdW  Elec       q    Type
                         _______ _______ _______ _____ _____    ______ ____

>  <TORSDO>
F 1

$$$$
=
 OpenBabel11122411443D

 37 45  0  0  1  0  0  0  0  0999 V2000
  185.8020  177.6870  139.2630 C   0  0  2  0  0  3  0  0  0  0  0  0
  188.7410  175.6420  136.4970 C   0  0  0  0  0  0  0  0  0  0  0  0
  190.5530  176.9190  140.1150 C   0  0  1  0  0  3  0  0  0  0  0  0
  184.8060  178.7730  138.8290 C   0  0  1  0  0  0  0  0  0  0  0  0
  188.2010  178.1990  142.9290 C   0  0  0  0  0  2  0  0  0  0  0  0
  190.8880  175.8800  137.8790 C   0  0  2  0  0  3  0  0  0  0  0  0
  189.4230  177.6740  140.7810 C   0  0  2  0  0  3  0  0  0  0  0  0
  184.9500  178.9950  141.3000 C   0  0  2  0  0  3  0  0  0  0  0  0
  190.0470  176.8080  138.7280 C   0  0  1  0  0  3  0  0  0  0  0  0
  189.3130  177.3520  142.2920 C   0  0  1  0  0  3  0  0  0  0  0  0
  192.3130  176.4520  137.8340 C   0  0  0  0  0  2  0  0  0  0  0  0
  184.6710  178.0130  140.1680 C   0  0  2  0  0  3  0  0  0  0  0  0
  188.6910  176.3440  138.8590 N   0  0  2  0  0  0  0  0  0  0  0  0
  188.4410  174.1800  136.7810 C   0  0  0  0  0  1  0  0  0  0  0  0
  192.4980  177.8530  141.4680 C   0  0  0  0  0  2  0  0  0  0  0  0
  192.8680  176.7230  139.2490 C   0  0  0  0  0  2  0  0  0  0  0  0
  188.0530  176.5330  137.5520 C   0  0  0  0  0  2  0  0  0  0  0  0
  186.4250  179.0740  141.6720 C   0  0  1  0  0  3  0  0  0  0  0  0
  186.8930  177.8800  142.3790 N   0  0  0  0  0  2  0  0  0  0  0  0
  191.9140  177.6040  140.0750 C   0  0  1  0  0  3  0  0  0  0  0  0
  188.1860  177.1550  139.9930 C   0  0  2  0  0  3  0  0  0  0  0  0
  190.2700  175.8680  136.4760 C   0  0  0  0  0  2  0  0  0  0  0  0
  190.6120  177.6280  143.0990 C   0  0  2  0  0  3  0  0  0  0  0  0
  188.1820  175.9890  135.1340 C   0  0  0  0  0  1  0  0  0  0  0  0
  187.1990  179.3620  140.5250 O   0  0  0  0  0  0  0  0  0  0  0  0
  184.0810  178.6820  142.5040 C   0  0  0  0  0  1  0  0  0  0  0  0
  187.1920  178.2750  139.6100 C   0  0  2  0  0  3  0  0  0  0  0  0
  191.8820  176.9770  142.5530 C   0  0  0  0  0  2  0  0  0  0  0  0
  184.7290  178.2890  137.4310 C   0  0  0  0  0  2  0  0  0  0  0  0
  183.5210  178.3610  138.2030 N   0  0  0  0  0  2  0  0  0  0  0  0
  189.2510  177.4600  145.2260 C   0  0  0  0  0  3  0  0  0  0  0  0
  190.4590  177.2440  144.5430 C   0  0  0  0  0  0  0  0  0  0  0  0
  191.5380  176.6580  145.2140 C   0  0  0  0  0  3  0  0  0  0  0  0
  192.4890  175.7130  147.2190 O   0  0  0  0  0  1  0  0  0  0  0  0
  190.2120  176.5100  147.2350 C   0  0  0  0  0  3  0  0  0  0  0  0
  191.4150  176.2920  146.5570 C   0  0  0  0  0  0  0  0  0  0  0  0
  189.1300  177.0930  146.5700 C   0  0  0  0  0  3  0  0  0  0  0  0
  1 27  1  0  0  0  0
  1 12  1  0  0  0  0
  2 14  1  0  0  0  0
  2 17  1  0  0  0  0
  3  7  1  0  0  0  0
  4  1  1  0  0  0  0
  4 12  1  0  0  0  0
  6  9  1  0  0  0  0
  7 10  1  0  0  0  0
  8 18  1  0  0  0  0
  8 26  1  0  0  0  0
  9 13  1  0  0  0  0
  9  3  1  0  0  0  0
 10  5  1  0  0  0  0
 10 23  1  0  0  0  0
 11  6  1  0  0  0  0
 11 16  1  0  0  0  0
 12  8  1  0  0  0  0
 13 21  1  0  0  0  0
 15 28  1  0  0  0  0
 16 20  1  0  0  0  0
 17 13  1  0  0  0  0
 18 19  1  0  0  0  0
 19  5  1  0  0  0  0
 20  3  1  0  0  0  0
 20 15  1  0  0  0  0
 21  7  1  0  0  0  0
 22  2  1  0  0  0  0
 22  6  1  0  0  0  0
 23 32  1  0  0  0  0
 24  2  1  0  0  0  0
 25 18  1  0  0  0  0
 27 21  1  0  0  0  0
 27 25  1  0  0  0  0
 28 23  1  0  0  0  0
 29 30  1  0  0  0  0
 29  4  1  0  0  0  0
 30  4  1  0  0  0  0
 31 37  1  0  0  0  0
 32 33  1  0  0  0  0
 32 31  2  0  0  0  0
 33 36  2  0  0  0  0
 36 34  1  0  0  0  0
 36 35  1  0  0  0  0
 37 35  2  0  0  0  0
M  END
>  <MODEL>
2

>  <REMARK>
 VINA RESULT:      -7.5      2.135      3.826
  Name = 
  1 active torsions:
  status: ('A' for Active; 'I' for Inactive)
    1  A    between atoms: C_23  and  C_30
                            x       y       z     vdW  Elec       q    Type
                         _______ _______ _______ _____ _____    ______ ____

>  <TORSDO>
F 1

$$$$
=
 OpenBabel11122411443D

 37 45  0  0  1  0  0  0  0  0999 V2000
  183.0890  178.0180  140.7190 C   0  0  2  0  0  3  0  0  0  0  0  0
  182.7450  176.3940  136.5110 C   0  0  0  0  0  0  0  0  0  0  0  0
  186.6800  177.6950  137.4190 C   0  0  1  0  0  3  0  0  0  0  0  0
  182.1070  179.0160  141.3530 C   0  0  1  0  0  0  0  0  0  0  0  0
  187.4410  178.6160  141.1160 C   0  0  0  0  0  2  0  0  0  0  0  0
  185.1410  176.7880  135.6860 C   0  0  2  0  0  3  0  0  0  0  0  0
  186.4980  178.3050  138.7930 C   0  0  2  0  0  3  0  0  0  0  0  0
  184.1470  179.1490  142.7660 C   0  0  2  0  0  3  0  0  0  0  0  0
  185.2760  177.5910  136.9620 C   0  0  1  0  0  3  0  0  0  0  0  0
  187.6380  177.9120  139.7650 C   0  0  1  0  0  3  0  0  0  0  0  0
  185.9580  177.5020  134.5980 C   0  0  0  0  0  2  0  0  0  0  0  0
  183.1080  178.1910  142.1940 C   0  0  2  0  0  3  0  0  0  0  0  0
  184.5670  176.9890  138.0600 N   0  0  2  0  0  0  0  0  0  0  0  0
  182.8290  174.8990  136.7660 C   0  0  0  0  0  1  0  0  0  0  0  0
  188.9100  178.7630  136.8100 C   0  0  0  0  0  2  0  0  0  0  0  0
  187.4090  177.7690  135.0510 C   0  0  0  0  0  2  0  0  0  0  0  0
  183.1370  177.1670  137.7870 C   0  0  0  0  0  2  0  0  0  0  0  0
  185.3380  179.3600  141.8400 C   0  0  1  0  0  3  0  0  0  0  0  0
  186.2180  178.1910  141.7770 N   0  0  0  0  0  2  0  0  0  0  0  0
  187.4580  178.5140  136.3970 C   0  0  1  0  0  3  0  0  0  0  0  0
  185.1350  177.6980  139.2320 C   0  0  2  0  0  3  0  0  0  0  0  0
  183.6530  176.7730  135.3180 C   0  0  0  0  0  2  0  0  0  0  0  0
  189.0610  178.2820  139.2630 C   0  0  2  0  0  3  0  0  0  0  0  0
  181.3150  176.7390  136.1580 C   0  0  0  0  0  1  0  0  0  0  0  0
  184.8920  179.7710  140.5640 O   0  0  0  0  0  0  0  0  0  0  0  0
  184.5810  178.7010  144.1490 C   0  0  0  0  0  1  0  0  0  0  0  0
  184.1940  178.7280  139.8980 C   0  0  2  0  0  3  0  0  0  0  0  0
  189.4200  177.7850  137.8640 C   0  0  0  0  0  2  0  0  0  0  0  0
  180.9660  178.5850  140.5110 C   0  0  0  0  0  2  0  0  0  0  0  0
  180.8400  178.5030  141.9390 N   0  0  0  0  0  2  0  0  0  0  0  0
  189.8110  177.5140  141.5550 C   0  0  0  0  0  3  0  0  0  0  0  0
  190.1230  177.8260  140.2220 C   0  0  0  0  0  0  0  0  0  0  0  0
  191.4440  177.7060  139.7740 C   0  0  0  0  0  3  0  0  0  0  0  0
  193.7550  177.1660  140.2030 O   0  0  0  0  0  1  0  0  0  0  0  0
  192.1320  176.9740  141.9780 C   0  0  0  0  0  3  0  0  0  0  0  0
  192.4460  177.2810  140.6510 C   0  0  0  0  0  0  0  0  0  0  0  0
  190.8150  177.0880  142.4300 C   0  0  0  0  0  3  0  0  0  0  0  0
  1  4  1  0  0  0  0
  1 12  1  0  0  0  0
  2 14  1  0  0  0  0
  2 17  1  0  0  0  0
  3  7  1  0  0  0  0
  4 30  1  0  0  0  0
  4 12  1  0  0  0  0
  5 19  1  0  0  0  0
  6  9  1  0  0  0  0
  7 21  1  0  0  0  0
  7 10  1  0  0  0  0
  8 26  1  0  0  0  0
  9  3  1  0  0  0  0
  9 13  1  0  0  0  0
 10  5  1  0  0  0  0
 11 16  1  0  0  0  0
 11  6  1  0  0  0  0
 12  8  1  0  0  0  0
 13 21  1  0  0  0  0
 15 28  1  0  0  0  0
 16 20  1  0  0  0  0
 17 13  1  0  0  0  0
 18  8  1  0  0  0  0
 19 18  1  0  0  0  0
 20 15  1  0  0  0  0
 20  3  1  0  0  0  0
 21 27  1  0  0  0  0
 22  6  1  0  0  0  0
 22  2  1  0  0  0  0
 23 10  1  0  0  0  0
 23 32  1  0  0  0  0
 24  2  1  0  0  0  0
 25 18  1  0  0  0  0
 27 25  1  0  0  0  0
 27  1  1  0  0  0  0
 28 23  1  0  0  0  0
 29  4  1  0  0  0  0
 29 30  1  0  0  0  0
 31 37  1  0  0  0  0
 32 31  2  0  0  0  0
 33 32  1  0  0  0  0
 33 36  2  0  0  0  0
 34 36  1  0  0  0  0
 35 37  2  0  0  0  0
 36 35  1  0  0  0  0
M  END
>  <MODEL>
3

>  <REMARK>
 VINA RESULT:      -7.5      1.313      1.518
  Name = 
  1 active torsions:
  status: ('A' for Active; 'I' for Inactive)
    1  A    between atoms: C_23  and  C_30
                            x       y       z     vdW  Elec       q    Type
                         _______ _______ _______ _____ _____    ______ ____

>  <TORSDO>
F 1

$$$$
=
 OpenBabel11122411443D

 37 45  0  0  1  0  0  0  0  0999 V2000
  186.8770  176.7850  137.2110 C   0  0  2  0  0  3  0  0  0  0  0  0
  190.6670  174.5710  136.1120 C   0  0  0  0  0  0  0  0  0  0  0  0
  191.0440  176.6940  139.7660 C   0  0  1  0  0  3  0  0  0  0  0  0
  186.0650  177.6580  136.2430 C   0  0  1  0  0  0  0  0  0  0  0  0
  187.8110  178.2330  141.2720 C   0  0  0  0  0  2  0  0  0  0  0  0
  192.1800  175.2900  138.0530 C   0  0  2  0  0  3  0  0  0  0  0  0
  189.7280  177.4390  139.8300 C   0  0  2  0  0  3  0  0  0  0  0  0
  185.3200  178.3590  138.5080 C   0  0  2  0  0  3  0  0  0  0  0  0
  191.0640  176.2690  138.3470 C   0  0  1  0  0  3  0  0  0  0  0  0
  189.1020  177.4020  141.2470 C   0  0  1  0  0  3  0  0  0  0  0  0
  193.5100  175.9890  138.3720 C   0  0  0  0  0  2  0  0  0  0  0  0
  185.4900  177.1560  137.5870 C   0  0  2  0  0  3  0  0  0  0  0  0
  189.7640  175.6990  138.1080 N   0  0  2  0  0  0  0  0  0  0  0  0
  190.3330  173.1650  136.5840 C   0  0  0  0  0  1  0  0  0  0  0  0
  192.3550  178.0670  141.4620 C   0  0  0  0  0  2  0  0  0  0  0  0
  193.5200  176.5810  139.7970 C   0  0  0  0  0  2  0  0  0  0  0  0
  189.6230  175.5690  136.6540 C   0  0  0  0  0  2  0  0  0  0  0  0
  186.5650  178.6620  139.3310 C   0  0  1  0  0  3  0  0  0  0  0  0
  186.7920  177.6800  140.3940 N   0  0  0  0  0  2  0  0  0  0  0  0
  192.3080  177.4980  140.0420 C   0  0  1  0  0  3  0  0  0  0  0  0
  188.8660  176.6540  138.8010 C   0  0  2  0  0  3  0  0  0  0  0  0
  192.0970  174.9470  136.5610 C   0  0  0  0  0  2  0  0  0  0  0  0
  190.0230  177.9600  142.3670 C   0  0  2  0  0  3  0  0  0  0  0  0
  190.6140  174.5910  134.6000 C   0  0  0  0  0  1  0  0  0  0  0  0
  187.6850  178.8050  138.4810 O   0  0  0  0  0  0  0  0  0  0  0  0
  184.0930  178.1910  139.3840 C   0  0  0  0  0  1  0  0  0  0  0  0
  188.0360  177.5700  137.8730 C   0  0  2  0  0  3  0  0  0  0  0  0
  191.4240  177.3540  142.4370 C   0  0  0  0  0  2  0  0  0  0  0  0
  186.5020  176.9120  135.0410 C   0  0  0  0  0  2  0  0  0  0  0  0
  185.0980  177.0010  135.3230 N   0  0  0  0  0  2  0  0  0  0  0  0
  190.1350  178.0040  144.8940 C   0  0  0  0  0  3  0  0  0  0  0  0
  189.3820  177.8440  143.7200 C   0  0  0  0  0  0  0  0  0  0  0  0
  188.0110  177.5780  143.8080 C   0  0  0  0  0  3  0  0  0  0  0  0
  186.0360  177.2030  145.1410 O   0  0  0  0  0  1  0  0  0  0  0  0
  188.1490  177.6270  146.2260 C   0  0  0  0  0  3  0  0  0  0  0  0
  187.3960  177.4690  145.0580 C   0  0  0  0  0  0  0  0  0  0  0  0
  189.5170  177.8950  146.1440 C   0  0  0  0  0  3  0  0  0  0  0  0
  1 12  1  0  0  0  0
  1 27  1  0  0  0  0
  2 22  1  0  0  0  0
  2 14  1  0  0  0  0
  2 17  1  0  0  0  0
  3  7  1  0  0  0  0
  3 20  1  0  0  0  0
  4  1  1  0  0  0  0
  4 12  1  0  0  0  0
  6  9  1  0  0  0  0
  6 11  1  0  0  0  0
  7 10  1  0  0  0  0
  8 18  1  0  0  0  0
  8 26  1  0  0  0  0
  9  3  1  0  0  0  0
 10  5  1  0  0  0  0
 10 23  1  0  0  0  0
 11 16  1  0  0  0  0
 12  8  1  0  0  0  0
 13  9  1  0  0  0  0
 13 21  1  0  0  0  0
 15 28  1  0  0  0  0
 16 20  1  0  0  0  0
 17 13  1  0  0  0  0
 18 19  1  0  0  0  0
 19  5  1  0  0  0  0
 20 15  1  0  0  0  0
 21  7  1  0  0  0  0
 22  6  1  0  0  0  0
 23 28  1  0  0  0  0
 23 32  1  0  0  0  0
 24  2  1  0  0  0  0
 25 18  1  0  0  0  0
 27 25  1  0  0  0  0
 27 21  1  0  0  0  0
 29 30  1  0  0  0  0
 29  4  1  0  0  0  0
 30  4  1  0  0  0  0
 31 37  1  0  0  0  0
 32 33  1  0  0  0  0
 32 31  2  0  0  0  0
 33 36  2  0  0  0  0
 36 34  1  0  0  0  0
 36 35  1  0  0  0  0
 37 35  2  0  0  0  0
M  END
>  <MODEL>
4

>  <REMARK>
 VINA RESULT:      -7.3      2.766      5.070
  Name = 
  1 active torsions:
  status: ('A' for Active; 'I' for Inactive)
    1  A    between atoms: C_23  and  C_30
                            x       y       z     vdW  Elec       q    Type
                         _______ _______ _______ _____ _____    ______ ____

>  <TORSDO>
F 1

$$$$
=
 OpenBabel11122411443D

 37 45  0  0  1  0  0  0  0  0999 V2000
  187.8470  177.7530  139.5980 C   0  0  2  0  0  3  0  0  0  0  0  0
  188.1880  177.5820  144.1070 C   0  0  0  0  0  0  0  0  0  0  0  0
  184.2160  178.3340  142.8190 C   0  0  1  0  0  3  0  0  0  0  0  0
  188.7950  178.5410  138.6810 C   0  0  1  0  0  0  0  0  0  0  0  0
  183.4800  177.9850  139.0210 C   0  0  0  0  0  2  0  0  0  0  0  0
  185.7630  178.1050  144.7550 C   0  0  2  0  0  3  0  0  0  0  0  0
  184.3950  178.4800  141.3230 C   0  0  2  0  0  3  0  0  0  0  0  0
  186.7760  178.1170  137.2950 C   0  0  2  0  0  3  0  0  0  0  0  0
  185.6160  178.4490  143.2890 C   0  0  1  0  0  3  0  0  0  0  0  0
  183.2910  177.7420  140.5250 C   0  0  1  0  0  3  0  0  0  0  0  0
  184.8960  179.0890  145.5550 C   0  0  0  0  0  2  0  0  0  0  0  0
  187.8470  177.4440  138.1470 C   0  0  2  0  0  3  0  0  0  0  0  0
  186.3690  177.5610  142.4430 N   0  0  2  0  0  0  0  0  0  0  0  0
  188.1750  176.0810  144.3440 C   0  0  0  0  0  1  0  0  0  0  0  0
  181.9300  179.4330  143.0480 C   0  0  0  0  0  2  0  0  0  0  0  0
  183.4430  179.1280  145.0360 C   0  0  0  0  0  2  0  0  0  0  0  0
  187.7850  177.8860  142.6490 C   0  0  0  0  0  2  0  0  0  0  0  0
  185.5610  178.5570  138.1010 C   0  0  1  0  0  3  0  0  0  0  0  0
  184.7330  177.4290  138.5340 N   0  0  0  0  0  2  0  0  0  0  0  0
  183.3850  179.4000  143.5230 C   0  0  1  0  0  3  0  0  0  0  0  0
  185.7920  177.8300  141.1050 C   0  0  2  0  0  3  0  0  0  0  0  0
  187.2430  178.2790  145.1120 C   0  0  0  0  0  2  0  0  0  0  0  0
  181.8440  178.1850  140.8780 C   0  0  2  0  0  3  0  0  0  0  0  0
  189.5960  178.0890  144.3340 C   0  0  0  0  0  1  0  0  0  0  0  0
  185.9650  179.3750  139.1790 O   0  0  0  0  0  0  0  0  0  0  0  0
  186.3870  177.2290  136.1270 C   0  0  0  0  0  1  0  0  0  0  0  0
  186.6980  178.6350  140.1460 C   0  0  2  0  0  3  0  0  0  0  0  0
  181.4830  178.1460  142.3620 C   0  0  0  0  0  2  0  0  0  0  0  0
  189.9380  178.4570  139.6190 C   0  0  0  0  0  2  0  0  0  0  0  0
  190.0930  177.9280  138.2930 N   0  0  0  0  0  2  0  0  0  0  0  0
  179.8790  178.0350  139.2920 C   0  0  0  0  0  3  0  0  0  0  0  0
  180.8210  177.3960  140.1140 C   0  0  0  0  0  0  0  0  0  0  0  0
  180.8130  176.0010  140.2200 C   0  0  0  0  0  3  0  0  0  0  0  0
  179.8630  173.8640  139.6260 O   0  0  0  0  0  1  0  0  0  0  0  0
  178.9310  175.8880  138.7000 C   0  0  0  0  0  3  0  0  0  0  0  0
  179.8690  175.2480  139.5150 C   0  0  0  0  0  0  0  0  0  0  0  0
  178.9360  177.2800  138.5870 C   0  0  0  0  0  3  0  0  0  0  0  0
  1 27  1  0  0  0  0
  2 24  1  0  0  0  0
  2 14  1  0  0  0  0
  2 22  1  0  0  0  0
  3  9  1  0  0  0  0
  3 20  1  0  0  0  0
  4  1  1  0  0  0  0
  4 29  1  0  0  0  0
  5 10  1  0  0  0  0
  6 22  1  0  0  0  0
  6 11  1  0  0  0  0
  7  3  1  0  0  0  0
  8 18  1  0  0  0  0
  8 12  1  0  0  0  0
  9  6  1  0  0  0  0
 10 23  1  0  0  0  0
 10  7  1  0  0  0  0
 12  4  1  0  0  0  0
 12  1  1  0  0  0  0
 13 17  1  0  0  0  0
 13  9  1  0  0  0  0
 15 20  1  0  0  0  0
 16 11  1  0  0  0  0
 17  2  1  0  0  0  0
 18 19  1  0  0  0  0
 18 25  1  0  0  0  0
 19  5  1  0  0  0  0
 20 16  1  0  0  0  0
 21  7  1  0  0  0  0
 21 13  1  0  0  0  0
 23 28  1  0  0  0  0
 25 27  1  0  0  0  0
 26  8  1  0  0  0  0
 27 21  1  0  0  0  0
 28 15  1  0  0  0  0
 30  4  1  0  0  0  0
 30 29  1  0  0  0  0
 31 32  1  0  0  0  0
 32 33  2  0  0  0  0
 32 23  1  0  0  0  0
 35 36  2  0  0  0  0
 36 34  1  0  0  0  0
 36 33  1  0  0  0  0
 37 35  1  0  0  0  0
 37 31  2  0  0  0  0
M  END
>  <MODEL>
5

>  <REMARK>
 VINA RESULT:      -7.1      2.384      8.433
  Name = 
  1 active torsions:
  status: ('A' for Active; 'I' for Inactive)
    1  A    between atoms: C_23  and  C_30
                            x       y       z     vdW  Elec       q    Type
                         _______ _______ _______ _____ _____    ______ ____

>  <TORSDO>
F 1

$$$$
=
 OpenBabel11122411443D

 37 45  0  0  1  0  0  0  0  0999 V2000
  191.2990  176.2030  138.1700 C   0  0  2  0  0  3  0  0  0  0  0  0
  190.2730  177.0980  142.4850 C   0  0  0  0  0  0  0  0  0  0  0  0
  186.9960  177.7750  139.8760 C   0  0  1  0  0  3  0  0  0  0  0  0
  192.5720  176.6840  137.4590 C   0  0  1  0  0  0  0  0  0  0  0  0
  187.3690  176.5720  136.2020 C   0  0  0  0  0  2  0  0  0  0  0  0
  187.8590  177.9170  142.2060 C   0  0  2  0  0  3  0  0  0  0  0  0
  187.6250  177.5450  138.5190 C   0  0  2  0  0  3  0  0  0  0  0  0
  191.0120  176.0720  135.6240 C   0  0  2  0  0  3  0  0  0  0  0  0
  188.1980  177.9080  140.7320 C   0  0  1  0  0  3  0  0  0  0  0  0
  186.7150  176.7100  137.5840 C   0  0  1  0  0  3  0  0  0  0  0  0
  186.9390  179.1190  142.4670 C   0  0  0  0  0  2  0  0  0  0  0  0
  191.6830  175.5550  136.8920 C   0  0  2  0  0  3  0  0  0  0  0  0
  189.0390  176.7970  140.3740 N   0  0  2  0  0  0  0  0  0  0  0  0
  189.9860  175.7020  143.0140 C   0  0  0  0  0  1  0  0  0  0  0  0
  184.9170  179.0430  139.1340 C   0  0  0  0  0  2  0  0  0  0  0  0
  185.7220  179.1260  141.5170 C   0  0  0  0  0  2  0  0  0  0  0  0
  190.3620  177.0680  140.9460 C   0  0  0  0  0  2  0  0  0  0  0  0
  189.6860  176.7700  135.8920 C   0  0  1  0  0  3  0  0  0  0  0  0
  188.6210  175.8350  136.2650 N   0  0  0  0  0  2  0  0  0  0  0  0
  186.1480  179.0300  140.0420 C   0  0  1  0  0  3  0  0  0  0  0  0
  188.9220  176.7720  138.8960 C   0  0  2  0  0  3  0  0  0  0  0  0
  189.1790  178.0760  142.9700 C   0  0  0  0  0  2  0  0  0  0  0  0
  185.3030  177.3190  137.3590 C   0  0  2  0  0  3  0  0  0  0  0  0
  191.6070  177.5520  143.0370 C   0  0  0  0  0  1  0  0  0  0  0  0
  189.8630  177.7950  136.8480 O   0  0  0  0  0  0  0  0  0  0  0  0
  190.8660  174.9560  134.6050 C   0  0  0  0  0  1  0  0  0  0  0  0
  190.1710  177.2630  138.1280 C   0  0  2  0  0  3  0  0  0  0  0  0
  184.5190  177.6610  138.6260 C   0  0  0  0  0  2  0  0  0  0  0  0
  193.3670  176.7540  138.7070 C   0  0  0  0  0  2  0  0  0  0  0  0
  193.8310  175.9130  137.6390 N   0  0  0  0  0  2  0  0  0  0  0  0
  183.7550  176.9600  135.3900 C   0  0  0  0  0  3  0  0  0  0  0  0
  184.4510  176.4370  136.4910 C   0  0  0  0  0  0  0  0  0  0  0  0
  184.3580  175.0720  136.7850 C   0  0  0  0  0  3  0  0  0  0  0  0
  183.4810  172.8810  136.2840 O   0  0  0  0  0  1  0  0  0  0  0  0
  182.8780  174.7580  134.8940 C   0  0  0  0  0  3  0  0  0  0  0  0
  183.5730  174.2340  135.9880 C   0  0  0  0  0  0  0  0  0  0  0  0
  182.9700  176.1200  134.5940 C   0  0  0  0  0  3  0  0  0  0  0  0
  2 22  1  0  0  0  0
  2 14  1  0  0  0  0
  2 24  1  0  0  0  0
  3 20  1  0  0  0  0
  3  9  1  0  0  0  0
  4 30  1  0  0  0  0
  4  1  1  0  0  0  0
  4 29  1  0  0  0  0
  5 19  1  0  0  0  0
  5 10  1  0  0  0  0
  6 11  1  0  0  0  0
  6 22  1  0  0  0  0
  7 21  1  0  0  0  0
  7  3  1  0  0  0  0
  8 18  1  0  0  0  0
  8 12  1  0  0  0  0
  9  6  1  0  0  0  0
 10  7  1  0  0  0  0
 12  4  1  0  0  0  0
 12  1  1  0  0  0  0
 13  9  1  0  0  0  0
 13 17  1  0  0  0  0
 15 20  1  0  0  0  0
 16 11  1  0  0  0  0
 17  2  1  0  0  0  0
 18 19  1  0  0  0  0
 18 25  1  0  0  0  0
 20 16  1  0  0  0  0
 21 13  1  0  0  0  0
 23 10  1  0  0  0  0
 23 28  1  0  0  0  0
 25 27  1  0  0  0  0
 26  8  1  0  0  0  0
 27  1  1  0  0  0  0
 27 21  1  0  0  0  0
 28 15  1  0  0  0  0
 30 29  1  0  0  0  0
 31 32  1  0  0  0  0
 32 33  2  0  0  0  0
 32 23  1  0  0  0  0
 35 36  2  0  0  0  0
 36 34  1  0  0  0  0
 36 33  1  0  0  0  0
 37 35  1  0  0  0  0
 37 31  2  0  0  0  0
M  END
>  <MODEL>
6

>  <REMARK>
 VINA RESULT:      -6.9      2.923      8.580
  Name = 
  1 active torsions:
  status: ('A' for Active; 'I' for Inactive)
    1  A    between atoms: C_23  and  C_30
                            x       y       z     vdW  Elec       q    Type
                         _______ _______ _______ _____ _____    ______ ____

>  <TORSDO>
F 1

$$$$
=
 OpenBabel11122411443D

 37 45  0  0  1  0  0  0  0  0999 V2000
  190.3240  176.9280  139.1600 C   0  0  2  0  0  3  0  0  0  0  0  0
  190.5050  176.0050  143.5850 C   0  0  0  0  0  0  0  0  0  0  0  0
  186.8670  177.8890  142.4800 C   0  0  1  0  0  3  0  0  0  0  0  0
  191.4570  177.5890  138.3590 C   0  0  1  0  0  0  0  0  0  0  0  0
  186.1600  178.3040  138.6830 C   0  0  0  0  0  2  0  0  0  0  0  0
  188.2650  177.0010  144.3380 C   0  0  2  0  0  3  0  0  0  0  0  0
  187.1130  178.2090  141.0210 C   0  0  2  0  0  3  0  0  0  0  0  0
  189.4290  177.8840  136.9530 C   0  0  2  0  0  3  0  0  0  0  0  0
  188.2410  177.5870  142.9430 C   0  0  1  0  0  3  0  0  0  0  0  0
  185.8810  177.8920  140.1350 C   0  0  1  0  0  3  0  0  0  0  0  0
  187.6450  178.0360  145.2890 C   0  0  0  0  0  2  0  0  0  0  0  0
  190.2830  176.8490  137.6780 C   0  0  2  0  0  3  0  0  0  0  0  0
  188.7760  176.6790  141.9630 N   0  0  2  0  0  0  0  0  0  0  0  0
  190.1210  174.5340  143.5940 C   0  0  0  0  0  1  0  0  0  0  0  0
  184.9140  179.4660  142.9030 C   0  0  0  0  0  2  0  0  0  0  0  0
  186.2580  178.5060  144.8020 C   0  0  0  0  0  2  0  0  0  0  0  0
  190.2230  176.6130  142.1960 C   0  0  0  0  0  2  0  0  0  0  0  0
  188.3390  178.4810  137.8320 C   0  0  1  0  0  3  0  0  0  0  0  0
  187.2510  177.5380  138.1010 N   0  0  0  0  0  2  0  0  0  0  0  0
  186.3040  179.0080  143.3480 C   0  0  1  0  0  3  0  0  0  0  0  0
  188.3130  177.2780  140.6890 C   0  0  2  0  0  3  0  0  0  0  0  0
  189.7340  176.7530  144.6970 C   0  0  0  0  0  2  0  0  0  0  0  0
  184.5780  178.6170  140.5710 C   0  0  2  0  0  3  0  0  0  0  0  0
  191.9870  176.1130  143.8680 C   0  0  0  0  0  1  0  0  0  0  0  0
  188.9040  179.0050  139.0160 O   0  0  0  0  0  0  0  0  0  0  0  0
  188.8640  177.3030  135.6690 C   0  0  0  0  0  1  0  0  0  0  0  0
  189.4110  177.9720  139.8500 C   0  0  2  0  0  3  0  0  0  0  0  0
  184.1830  178.4460  142.0370 C   0  0  0  0  0  2  0  0  0  0  0  0
  192.5220  177.0890  139.2580 C   0  0  0  0  0  2  0  0  0  0  0  0
  192.5760  176.7430  137.8660 N   0  0  0  0  0  2  0  0  0  0  0  0
  182.8340  179.1390  138.8150 C   0  0  0  0  0  3  0  0  0  0  0  0
  183.4120  178.2260  139.7100 C   0  0  0  0  0  0  0  0  0  0  0  0
  182.8990  176.9260  139.8010 C   0  0  0  0  0  3  0  0  0  0  0  0
  181.3090  175.2530  139.1010 O   0  0  0  0  0  1  0  0  0  0  0  0
  181.2400  177.4550  138.1170 C   0  0  0  0  0  3  0  0  0  0  0  0
  181.8150  176.5420  139.0070 C   0  0  0  0  0  0  0  0  0  0  0  0
  181.7500  178.7530  138.0200 C   0  0  0  0  0  3  0  0  0  0  0  0
  1 27  1  0  0  0  0
  2 14  1  0  0  0  0
  2 24  1  0  0  0  0
  2 22  1  0  0  0  0
  3  9  1  0  0  0  0
  3 20  1  0  0  0  0
  4  1  1  0  0  0  0
  4 29  1  0  0  0  0
  5 10  1  0  0  0  0
  6 22  1  0  0  0  0
  6 11  1  0  0  0  0
  7  3  1  0  0  0  0
  8 12  1  0  0  0  0
  8 18  1  0  0  0  0
  9  6  1  0  0  0  0
 10 23  1  0  0  0  0
 10  7  1  0  0  0  0
 12  4  1  0  0  0  0
 12  1  1  0  0  0  0
 13 17  1  0  0  0  0
 13  9  1  0  0  0  0
 15 20  1  0  0  0  0
 16 11  1  0  0  0  0
 17  2  1  0  0  0  0
 18 19  1  0  0  0  0
 18 25  1  0  0  0  0
 19  5  1  0  0  0  0
 20 16  1  0  0  0  0
 21  7  1  0  0  0  0
 21 13  1  0  0  0  0
 23 28  1  0  0  0  0
 25 27  1  0  0  0  0
 26  8  1  0  0  0  0
 27 21  1  0  0  0  0
 28 15  1  0  0  0  0
 30  4  1  0  0  0  0
 30 29  1  0  0  0  0
 31 32  1  0  0  0  0
 32 33  2  0  0  0  0
 32 23  1  0  0  0  0
 35 36  2  0  0  0  0
 36 34  1  0  0  0  0
 36 33  1  0  0  0  0
 37 35  1  0  0  0  0
 37 31  2  0  0  0  0
M  END
>  <MODEL>
7

>  <REMARK>
 VINA RESULT:      -6.7      2.502      8.317
  Name = 
  1 active torsions:
  status: ('A' for Active; 'I' for Inactive)
    1  A    between atoms: C_23  and  C_30
                            x       y       z     vdW  Elec       q    Type
                         _______ _______ _______ _____ _____    ______ ____

>  <TORSDO>
F 1

$$$$
=
 OpenBabel11122411443D

 37 45  0  0  1  0  0  0  0  0999 V2000
  188.3570  177.3540  139.6190 C   0  0  2  0  0  3  0  0  0  0  0  0
  190.2210  176.0970  143.5450 C   0  0  0  0  0  0  0  0  0  0  0  0
  186.4840  178.0320  144.0820 C   0  0  1  0  0  3  0  0  0  0  0  0
  189.1040  178.0820  138.4920 C   0  0  1  0  0  0  0  0  0  0  0  0
  184.3670  178.7300  140.9010 C   0  0  0  0  0  2  0  0  0  0  0  0
  188.4730  177.0150  145.1800 C   0  0  2  0  0  3  0  0  0  0  0  0
  186.1500  178.4640  142.6710 C   0  0  2  0  0  3  0  0  0  0  0  0
  186.6970  178.4680  138.0100 C   0  0  2  0  0  3  0  0  0  0  0  0
  187.9220  177.7060  143.9510 C   0  0  1  0  0  3  0  0  0  0  0  0
  184.6650  178.2060  142.3130 C   0  0  1  0  0  3  0  0  0  0  0  0
  188.2950  177.9700  146.3710 C   0  0  0  0  0  2  0  0  0  0  0  0
  187.7420  177.3880  138.2680 C   0  0  2  0  0  3  0  0  0  0  0  0
  188.0140  176.8800  142.7770 N   0  0  2  0  0  0  0  0  0  0  0  0
  189.8370  174.6270  143.5940 C   0  0  0  0  0  1  0  0  0  0  0  0
  184.8840  179.5570  145.3470 C   0  0  0  0  0  2  0  0  0  0  0  0
  186.8380  178.4650  146.4970 C   0  0  0  0  0  2  0  0  0  0  0  0
  189.4360  176.8070  142.4230 C   0  0  0  0  0  2  0  0  0  0  0  0
  186.0470  178.9880  139.2850 C   0  0  1  0  0  3  0  0  0  0  0  0
  185.1280  178.0190  139.8860 N   0  0  0  0  0  2  0  0  0  0  0  0
  186.3270  179.0770  145.1810 C   0  0  1  0  0  3  0  0  0  0  0  0
  187.1060  177.5700  141.8300 C   0  0  2  0  0  3  0  0  0  0  0  0
  189.9600  176.7520  144.9200 C   0  0  0  0  0  2  0  0  0  0  0  0
  183.6500  178.8860  143.2740 C   0  0  2  0  0  3  0  0  0  0  0  0
  191.6990  176.1940  143.2350 C   0  0  0  0  0  1  0  0  0  0  0  0
  187.0400  179.4240  140.1910 O   0  0  0  0  0  0  0  0  0  0  0  0
  185.6640  177.9830  137.0090 C   0  0  0  0  0  1  0  0  0  0  0  0
  187.8070  178.3350  140.6840 C   0  0  2  0  0  3  0  0  0  0  0  0
  183.8510  178.6000  144.7610 C   0  0  0  0  0  2  0  0  0  0  0  0
  190.4240  177.5230  138.8660 C   0  0  0  0  0  2  0  0  0  0  0  0
  189.9240  177.2850  137.5410 N   0  0  0  0  0  2  0  0  0  0  0  0
  181.8820  178.2260  141.5880 C   0  0  0  0  0  3  0  0  0  0  0  0
  182.2320  178.5520  142.9080 C   0  0  0  0  0  0  0  0  0  0  0  0
  181.2480  178.5620  143.9030 C   0  0  0  0  0  3  0  0  0  0  0  0
  178.9500  178.2660  144.5730 O   0  0  0  0  0  1  0  0  0  0  0  0
  179.5770  177.9310  142.2680 C   0  0  0  0  0  3  0  0  0  0  0  0
  179.9230  178.2530  143.5840 C   0  0  0  0  0  0  0  0  0  0  0  0
  180.5560  177.9160  141.2710 C   0  0  0  0  0  3  0  0  0  0  0  0
  1 27  1  0  0  0  0
  2 14  1  0  0  0  0
  2 22  1  0  0  0  0
  3 20  1  0  0  0  0
  4 29  1  0  0  0  0
  4  1  1  0  0  0  0
  5 10  1  0  0  0  0
  6 11  1  0  0  0  0
  7  3  1  0  0  0  0
  8 12  1  0  0  0  0
  8 18  1  0  0  0  0
  9  3  1  0  0  0  0
  9  6  1  0  0  0  0
 10  7  1  0  0  0  0
 10 23  1  0  0  0  0
 11 16  1  0  0  0  0
 12  4  1  0  0  0  0
 12  1  1  0  0  0  0
 13  9  1  0  0  0  0
 17 13  1  0  0  0  0
 17  2  1  0  0  0  0
 18 19  1  0  0  0  0
 18 25  1  0  0  0  0
 19  5  1  0  0  0  0
 20 15  1  0  0  0  0
 20 16  1  0  0  0  0
 21  7  1  0  0  0  0
 21 13  1  0  0  0  0
 22  6  1  0  0  0  0
 23 28  1  0  0  0  0
 24  2  1  0  0  0  0
 25 27  1  0  0  0  0
 26  8  1  0  0  0  0
 27 21  1  0  0  0  0
 28 15  1  0  0  0  0
 30  4  1  0  0  0  0
 30 29  1  0  0  0  0
 31 32  1  0  0  0  0
 32 23  1  0  0  0  0
 32 33  2  0  0  0  0
 35 36  2  0  0  0  0
 36 33  1  0  0  0  0
 36 34  1  0  0  0  0
 37 31  2  0  0  0  0
 37 35  1  0  0  0  0
M  END
>  <MODEL>
8

>  <REMARK>
 VINA RESULT:      -6.6      2.430      8.175
  Name = 
  1 active torsions:
  status: ('A' for Active; 'I' for Inactive)
    1  A    between atoms: C_23  and  C_30
                            x       y       z     vdW  Elec       q    Type
                         _______ _______ _______ _____ _____    ______ ____

>  <TORSDO>
F 1

$$$$
=
 OpenBabel11122411443D

 37 45  0  0  1  0  0  0  0  0999 V2000
  183.8590  178.0780  141.6790 C   0  0  2  0  0  3  0  0  0  0  0  0
  179.9300  176.5920  139.9990 C   0  0  0  0  0  0  0  0  0  0  0  0
  182.8500  177.1900  136.9800 C   0  0  1  0  0  3  0  0  0  0  0  0
  183.9960  179.2200  142.6980 C   0  0  1  0  0  0  0  0  0  0  0  0
  186.4850  177.9200  138.1390 C   0  0  0  0  0  2  0  0  0  0  0  0
  180.4930  176.5820  137.4980 C   0  0  2  0  0  3  0  0  0  0  0  0
  183.9890  177.8040  137.7650 C   0  0  2  0  0  3  0  0  0  0  0  0
  186.2590  178.9850  141.6990 C   0  0  2  0  0  3  0  0  0  0  0  0
  181.7300  177.3340  137.9380 C   0  0  1  0  0  3  0  0  0  0  0  0
  185.3630  177.2100  137.3670 C   0  0  1  0  0  3  0  0  0  0  0  0
  180.0540  177.1600  136.1440 C   0  0  0  0  0  2  0  0  0  0  0  0
  185.1430  178.2260  142.4090 C   0  0  2  0  0  3  0  0  0  0  0  0
  182.2440  176.8470  139.1910 N   0  0  2  0  0  0  0  0  0  0  0  0
  180.0410  175.1010  140.2700 C   0  0  0  0  0  1  0  0  0  0  0  0
  183.5790  177.8700  134.6370 C   0  0  0  0  0  2  0  0  0  0  0  0
  181.2100  177.1700  135.1210 C   0  0  0  0  0  2  0  0  0  0  0  0
  181.2960  177.2700  140.2280 C   0  0  0  0  0  2  0  0  0  0  0  0
  186.1010  179.0020  140.1840 C   0  0  1  0  0  3  0  0  0  0  0  0
  186.3800  177.7000  139.5730 N   0  0  0  0  0  2  0  0  0  0  0  0
  182.4570  177.8780  135.6780 C   0  0  1  0  0  3  0  0  0  0  0  0
  183.6050  177.4330  139.2260 C   0  0  2  0  0  3  0  0  0  0  0  0
  179.4150  176.8260  138.5610 C   0  0  0  0  0  2  0  0  0  0  0  0
  185.7010  177.3380  135.8560 C   0  0  2  0  0  3  0  0  0  0  0  0
  178.9310  177.1800  140.9720 C   0  0  0  0  0  1  0  0  0  0  0  0
  184.8250  179.4990  139.8370 O   0  0  0  0  0  0  0  0  0  0  0  0
  187.6170  178.4510  142.1170 C   0  0  0  0  0  1  0  0  0  0  0  0
  183.7950  178.6000  140.2230 C   0  0  2  0  0  3  0  0  0  0  0  0
  184.6410  176.8060  134.8920 C   0  0  0  0  0  2  0  0  0  0  0  0
  182.6510  179.0010  143.2790 C   0  0  0  0  0  2  0  0  0  0  0  0
  183.7970  178.9230  144.1410 N   0  0  0  0  0  2  0  0  0  0  0  0
  188.0910  177.4540  135.0340 C   0  0  0  0  0  3  0  0  0  0  0  0
  187.0170  176.6950  135.5250 C   0  0  0  0  0  0  0  0  0  0  0  0
  187.1730  175.3180  135.7160 C   0  0  0  0  0  3  0  0  0  0  0  0
  188.5400  173.3340  135.6050 O   0  0  0  0  0  1  0  0  0  0  0  0
  189.4580  175.4590  134.9250 C   0  0  0  0  0  3  0  0  0  0  0  0
  188.3910  174.7010  135.4160 C   0  0  0  0  0  0  0  0  0  0  0  0
  189.3090  176.8360  134.7350 C   0  0  0  0  0  3  0  0  0  0  0  0
  1 12  1  0  0  0  0
  1  4  1  0  0  0  0
  2 17  1  0  0  0  0
  2 14  1  0  0  0  0
  2 24  1  0  0  0  0
  3  7  1  0  0  0  0
  3  9  1  0  0  0  0
  4 29  1  0  0  0  0
  4 30  1  0  0  0  0
  5 19  1  0  0  0  0
  6  9  1  0  0  0  0
  6 22  1  0  0  0  0
  7 21  1  0  0  0  0
  8 26  1  0  0  0  0
  8 12  1  0  0  0  0
  9 13  1  0  0  0  0
 10  7  1  0  0  0  0
 10  5  1  0  0  0  0
 11  6  1  0  0  0  0
 12  4  1  0  0  0  0
 13 21  1  0  0  0  0
 13 17  1  0  0  0  0
 15 28  1  0  0  0  0
 15 20  1  0  0  0  0
 16 20  1  0  0  0  0
 16 11  1  0  0  0  0
 18  8  1  0  0  0  0
 19 18  1  0  0  0  0
 20  3  1  0  0  0  0
 21 27  1  0  0  0  0
 22  2  1  0  0  0  0
 23 10  1  0  0  0  0
 25 18  1  0  0  0  0
 25 27  1  0  0  0  0
 27  1  1  0  0  0  0
 28 23  1  0  0  0  0
 29 30  1  0  0  0  0
 31 32  1  0  0  0  0
 32 33  2  0  0  0  0
 32 23  1  0  0  0  0
 35 36  2  0  0  0  0
 36 34  1  0  0  0  0
 36 33  1  0  0  0  0
 37 35  1  0  0  0  0
 37 31  2  0  0  0  0
M  END
>  <MODEL>
9

>  <REMARK>
 VINA RESULT:      -6.4      2.530      5.708
  Name = 
  1 active torsions:
  status: ('A' for Active; 'I' for Inactive)
    1  A    between atoms: C_23  and  C_30
                            x       y       z     vdW  Elec       q    Type
                         _______ _______ _______ _____ _____    ______ ____

>  <TORSDO>
F 1

$$$$
