=
 OpenBabel11122411493D

 37 43  0  0  1  0  0  0  0  0999 V2000
  182.8630  178.0120  140.6250 C   0  0  0  0  0  0  0  0  0  0  0  0
  185.7230  178.8920  142.8950 C   0  0  1  0  0  3  0  0  0  0  0  0
  188.8990  178.7650  141.5830 O   0  0  0  0  0  0  0  0  0  0  0  0
  183.2040  179.3930  142.4280 C   0  0  2  0  0  3  0  0  0  0  0  0
  186.5580  178.1230  141.8700 C   0  0  2  0  0  3  0  0  0  0  0  0
  184.6680  179.5780  142.0120 C   0  0  2  0  0  3  0  0  0  0  0  0
  188.0350  177.8590  142.2250 C   0  0  2  0  0  3  0  0  0  0  0  0
  183.0880  179.5410  143.9360 C   0  0  0  0  0  2  0  0  0  0  0  0
  184.9310  179.0750  140.5930 C   0  0  2  0  0  3  0  0  0  0  0  0
  182.3090  179.0790  139.9220 F   0  0  0  0  0  0  0  0  0  0  0  0
  186.1690  177.5420  144.9920 C   0  0  0  0  0  2  0  0  0  0  0  0
  183.9230  178.5060  144.6990 C   0  0  0  0  0  2  0  0  0  0  0  0
  184.2360  177.8630  140.3400 O   0  0  0  0  0  0  0  0  0  0  0  0
  189.6910  176.7830  140.2520 C   0  0  0  0  0  1  0  0  0  0  0  0
  189.2620  178.2520  140.3090 C   0  0  1  0  0  3  0  0  0  0  0  0
  185.1290  177.9290  143.9420 C   0  0  1  0  0  3  0  0  0  0  0  0
  186.3750  178.8280  140.6050 N   0  0  2  0  0  0  0  0  0  0  0  0
  182.6750  178.1530  142.0170 O   0  0  0  0  0  0  0  0  0  0  0  0
  188.3190  177.7620  143.7370 C   0  0  1  0  0  3  0  0  0  0  0  0
  182.2140  176.8630  140.2190 F   0  0  0  0  0  0  0  0  0  0  0  0
  188.3170  178.6170  139.2490 N   0  0  0  0  0  2  0  0  0  0  0  0
  186.9730  178.0810  139.4820 C   0  0  2  0  0  3  0  0  0  0  0  0
  187.3570  176.7900  144.4110 C   0  0  0  0  0  2  0  0  0  0  0  0
  190.1390  176.0210  143.4530 C   0  0  0  0  0  2  0  0  0  0  0  0
  189.7600  177.3610  144.0790 C   0  0  2  0  0  3  0  0  0  0  0  0
  190.0440  177.3870  145.5860 C   0  0  0  0  0  2  0  0  0  0  0  0
  191.8950  177.0180  147.0430 O   0  0  0  0  0  0  0  0  0  0  0  0
  192.0380  175.9120  145.0010 N   0  0  0  0  0  2  0  0  0  0  0  0
  191.3840  176.7990  145.9150 C   0  0  0  0  0  0  0  0  0  0  0  0
  191.6400  175.8150  143.6020 C   0  0  0  0  0  2  0  0  0  0  0  0
  186.1830  178.2350  138.1620 C   0  0  1  0  0  3  0  0  0  0  0  0
  186.6700  177.4050  137.0210 N   0  0  0  0  0  0  0  0  0  0  0  0
  185.4940  177.0000  137.8000 C   0  0  2  0  0  3  0  0  0  0  0  0
  184.2390  177.3300  137.0190 C   0  0  0  0  0  2  0  0  0  0  0  0
  183.2510  176.3890  137.3050 O   0  0  0  0  0  1  0  0  0  0  0  0
  187.1560  175.1970  137.5430 F   0  0  0  0  0  0  0  0  0  0  0  0
  187.7160  176.4470  137.3690 C   0  0  0  0  0  2  0  0  0  0  0  0
  1 18  1  0  0  0  0
  2 16  1  0  0  0  0
  3  7  1  0  0  0  0
  4  8  1  0  0  0  0
  5  7  1  0  0  0  0
  5  2  1  0  0  0  0
  6  4  1  0  0  0  0
  6  2  1  0  0  0  0
  7 19  1  0  0  0  0
  8 12  1  0  0  0  0
  9 17  1  0  0  0  0
  9  6  1  0  0  0  0
 10  1  1  0  0  0  0
 13  9  1  0  0  0  0
 13  1  1  0  0  0  0
 14 15  1  0  0  0  0
 15  3  1  0  0  0  0
 16 12  1  0  0  0  0
 16 11  1  0  0  0  0
 17  5  1  0  0  0  0
 18  4  1  0  0  0  0
 19 25  1  0  0  0  0
 19 23  1  0  0  0  0
 20  1  1  0  0  0  0
 21 22  1  0  0  0  0
 21 15  1  0  0  0  0
 22 17  1  0  0  0  0
 23 11  1  0  0  0  0
 24 30  1  0  0  0  0
 24 25  1  0  0  0  0
 25 26  1  0  0  0  0
 26 29  1  0  0  0  0
 28 29  1  0  0  0  0
 29 27  2  0  0  0  0
 30 28  1  0  0  0  0
 31 22  1  0  0  0  0
 32 37  1  0  0  0  0
 32 33  1  0  0  0  0
 32 31  1  0  0  0  0
 33 31  1  0  0  0  0
 34 35  1  0  0  0  0
 34 33  1  0  0  0  0
 37 36  1  0  0  0  0
M  END
>  <MODEL>
1

>  <REMARK>
 VINA RESULT:      -9.0      0.000      0.000
  Name = 
  4 active torsions:
  status: ('A' for Active; 'I' for Inactive)
    1  A    between atoms: C_1  and  C_27
    2  A    between atoms: N_4  and  C_37
    3  A    between atoms: C_8  and  C_12
    4  A    between atoms: C_23  and  C_30
                            x       y       z     vdW  Elec       q    Type
                         _______ _______ _______ _____ _____    ______ ____

>  <TORSDO>
F 4

$$$$
=
 OpenBabel11122411493D

 37 43  0  0  1  0  0  0  0  0999 V2000
  189.7690  176.3730  137.8310 C   0  0  0  0  0  0  0  0  0  0  0  0
  186.5680  178.2320  137.1940 C   0  0  1  0  0  3  0  0  0  0  0  0
  184.9230  179.5540  139.9100 O   0  0  0  0  0  0  0  0  0  0  0  0
  188.8810  177.6460  136.1380 C   0  0  2  0  0  3  0  0  0  0  0  0
  186.3070  177.9610  138.6760 C   0  0  2  0  0  3  0  0  0  0  0  0
  188.0880  178.4630  137.1640 C   0  0  2  0  0  3  0  0  0  0  0  0
  184.9130  178.3260  139.2220 C   0  0  2  0  0  3  0  0  0  0  0  0
  188.1280  177.6310  134.8180 C   0  0  0  0  0  2  0  0  0  0  0  0
  188.5690  178.2130  138.5940 C   0  0  2  0  0  3  0  0  0  0  0  0
  190.9260  177.1480  137.7970 F   0  0  0  0  0  0  0  0  0  0  0  0
  184.5860  177.0640  136.1330 C   0  0  0  0  0  2  0  0  0  0  0  0
  186.7360  177.0000  134.9370 C   0  0  0  0  0  2  0  0  0  0  0  0
  188.8630  176.8400  138.8060 O   0  0  0  0  0  0  0  0  0  0  0  0
  184.4990  178.1890  141.9800 C   0  0  0  0  0  1  0  0  0  0  0  0
  185.2410  179.3290  141.2760 C   0  0  1  0  0  3  0  0  0  0  0  0
  186.1000  177.0410  136.3350 C   0  0  1  0  0  3  0  0  0  0  0  0
  187.4050  178.6040  139.3930 N   0  0  2  0  0  0  0  0  0  0  0  0
  189.1350  176.3290  136.5700 O   0  0  0  0  0  0  0  0  0  0  0  0
  183.7820  178.2590  138.1760 C   0  0  1  0  0  3  0  0  0  0  0  0
  190.1380  175.0860  138.1710 F   0  0  0  0  0  0  0  0  0  0  0  0
  186.6830  179.3270  141.5400 N   0  0  0  0  0  2  0  0  0  0  0  0
  187.3860  178.2580  140.8280 C   0  0  2  0  0  3  0  0  0  0  0  0
  183.8060  176.9290  137.4320 C   0  0  0  0  0  2  0  0  0  0  0  0
  181.8560  177.2490  139.4770 C   0  0  0  0  0  2  0  0  0  0  0  0
  182.3800  178.4870  138.7540 C   0  0  2  0  0  3  0  0  0  0  0  0
  181.3810  179.0010  137.7100 C   0  0  0  0  0  2  0  0  0  0  0  0
  179.0990  179.6910  137.6350 O   0  0  0  0  0  0  0  0  0  0  0  0
  179.6050  178.2120  139.3580 N   0  0  0  0  0  2  0  0  0  0  0  0
  179.9770  179.0230  138.2380 C   0  0  0  0  0  0  0  0  0  0  0  0
  180.5980  177.6220  140.2480 C   0  0  0  0  0  2  0  0  0  0  0  0
  188.8000  178.1480  141.4440 C   0  0  1  0  0  3  0  0  0  0  0  0
  188.8450  177.7460  142.8800 N   0  0  0  0  0  0  0  0  0  0  0  0
  189.1200  176.7720  141.8150 C   0  0  2  0  0  3  0  0  0  0  0  0
  190.6150  176.5550  141.7110 C   0  0  0  0  0  2  0  0  0  0  0  0
  191.1810  177.5690  140.9410 O   0  0  0  0  0  1  0  0  0  0  0  0
  187.5060  175.9780  143.5630 F   0  0  0  0  0  0  0  0  0  0  0  0
  187.5560  177.3520  143.4430 C   0  0  0  0  0  2  0  0  0  0  0  0
  1 20  1  0  0  0  0
  1 13  1  0  0  0  0
  2  5  1  0  0  0  0
  3 15  1  0  0  0  0
  4 18  1  0  0  0  0
  4  6  1  0  0  0  0
  5  7  1  0  0  0  0
  5 17  1  0  0  0  0
  6  2  1  0  0  0  0
  6  9  1  0  0  0  0
  7  3  1  0  0  0  0
  8 12  1  0  0  0  0
  8  4  1  0  0  0  0
  9 13  1  0  0  0  0
  9 17  1  0  0  0  0
 10  1  1  0  0  0  0
 11 16  1  0  0  0  0
 11 23  1  0  0  0  0
 12 16  1  0  0  0  0
 15 21  1  0  0  0  0
 15 14  1  0  0  0  0
 16  2  1  0  0  0  0
 17 22  1  0  0  0  0
 18  1  1  0  0  0  0
 19 25  1  0  0  0  0
 19  7  1  0  0  0  0
 22 31  1  0  0  0  0
 22 21  1  0  0  0  0
 23 19  1  0  0  0  0
 24 30  1  0  0  0  0
 25 24  1  0  0  0  0
 26 29  1  0  0  0  0
 26 25  1  0  0  0  0
 27 29  2  0  0  0  0
 28 30  1  0  0  0  0
 29 28  1  0  0  0  0
 31 33  1  0  0  0  0
 31 32  1  0  0  0  0
 32 37  1  0  0  0  0
 33 32  1  0  0  0  0
 34 33  1  0  0  0  0
 35 34  1  0  0  0  0
 37 36  1  0  0  0  0
M  END
>  <MODEL>
2

>  <REMARK>
 VINA RESULT:      -8.5      2.858      8.136
  Name = 
  4 active torsions:
  status: ('A' for Active; 'I' for Inactive)
    1  A    between atoms: C_1  and  C_27
    2  A    between atoms: N_4  and  C_37
    3  A    between atoms: C_8  and  C_12
    4  A    between atoms: C_23  and  C_30
                            x       y       z     vdW  Elec       q    Type
                         _______ _______ _______ _____ _____    ______ ____

>  <TORSDO>
F 4

$$$$
=
 OpenBabel11122411493D

 37 43  0  0  1  0  0  0  0  0999 V2000
  183.4510  177.7090  139.4510 C   0  0  0  0  0  0  0  0  0  0  0  0
  185.9670  178.7420  142.0400 C   0  0  1  0  0  3  0  0  0  0  0  0
  189.2930  178.6260  141.1710 O   0  0  0  0  0  0  0  0  0  0  0  0
  183.5270  179.1710  141.2200 C   0  0  2  0  0  3  0  0  0  0  0  0
  186.9440  177.9490  141.1710 C   0  0  2  0  0  3  0  0  0  0  0  0
  185.0310  179.3690  140.9950 C   0  0  2  0  0  3  0  0  0  0  0  0
  188.3630  177.7300  141.7310 C   0  0  2  0  0  3  0  0  0  0  0  0
  183.2080  179.3810  142.6910 C   0  0  0  0  0  2  0  0  0  0  0  0
  185.4890  178.8120  139.6470 C   0  0  2  0  0  3  0  0  0  0  0  0
  182.9810  178.7340  138.6330 F   0  0  0  0  0  0  0  0  0  0  0  0
  186.1480  177.4920  144.2360 C   0  0  0  0  0  2  0  0  0  0  0  0
  183.9470  178.3960  143.6030 C   0  0  0  0  0  2  0  0  0  0  0  0
  184.8520  177.5760  139.3580 O   0  0  0  0  0  0  0  0  0  0  0  0
  190.2850  176.6060  140.0460 C   0  0  0  0  0  1  0  0  0  0  0  0
  189.8300  178.0670  139.9800 C   0  0  1  0  0  3  0  0  0  0  0  0
  185.2530  177.8120  143.0410 C   0  0  1  0  0  3  0  0  0  0  0  0
  186.9220  178.5960  139.8630 N   0  0  2  0  0  0  0  0  0  0  0  0
  183.0760  177.9050  140.7980 O   0  0  0  0  0  0  0  0  0  0  0  0
  188.4430  177.7030  143.2710 C   0  0  1  0  0  3  0  0  0  0  0  0
  182.8790  176.5300  139.0130 F   0  0  0  0  0  0  0  0  0  0  0  0
  189.0310  178.3670  138.7890 N   0  0  0  0  0  2  0  0  0  0  0  0
  187.6760  177.8150  138.8640 C   0  0  2  0  0  3  0  0  0  0  0  0
  187.4140  176.7410  143.8530 C   0  0  0  0  0  2  0  0  0  0  0  0
  190.2850  175.9640  143.3580 C   0  0  0  0  0  2  0  0  0  0  0  0
  189.8310  177.3470  143.8190 C   0  0  2  0  0  3  0  0  0  0  0  0
  189.9270  177.4980  145.3420 C   0  0  0  0  0  2  0  0  0  0  0  0
  191.5840  177.2700  147.0420 O   0  0  0  0  0  0  0  0  0  0  0  0
  191.9790  176.0020  145.1310 N   0  0  0  0  0  2  0  0  0  0  0  0
  191.2160  176.9540  145.8820 C   0  0  0  0  0  0  0  0  0  0  0  0
  191.7560  175.7870  143.7060 C   0  0  0  0  0  2  0  0  0  0  0  0
  187.0680  177.8960  137.4450 C   0  0  1  0  0  3  0  0  0  0  0  0
  187.6490  176.9550  136.4420 N   0  0  0  0  0  0  0  0  0  0  0  0
  186.3630  176.6680  137.0900 C   0  0  2  0  0  3  0  0  0  0  0  0
  185.2360  176.9900  136.1300 C   0  0  0  0  0  2  0  0  0  0  0  0
  185.7650  177.4980  134.9450 O   0  0  0  0  0  1  0  0  0  0  0  0
  189.8550  176.2390  136.5080 F   0  0  0  0  0  0  0  0  0  0  0  0
  188.5870  175.9830  136.9930 C   0  0  0  0  0  2  0  0  0  0  0  0
  1 18  1  0  0  0  0
  2 16  1  0  0  0  0
  3  7  1  0  0  0  0
  4  8  1  0  0  0  0
  5  7  1  0  0  0  0
  5  2  1  0  0  0  0
  6  4  1  0  0  0  0
  6  2  1  0  0  0  0
  7 19  1  0  0  0  0
  8 12  1  0  0  0  0
  9 17  1  0  0  0  0
  9  6  1  0  0  0  0
 10  1  1  0  0  0  0
 13  1  1  0  0  0  0
 13  9  1  0  0  0  0
 15 14  1  0  0  0  0
 15  3  1  0  0  0  0
 16 12  1  0  0  0  0
 16 11  1  0  0  0  0
 17  5  1  0  0  0  0
 18  4  1  0  0  0  0
 19 25  1  0  0  0  0
 19 23  1  0  0  0  0
 20  1  1  0  0  0  0
 21 22  1  0  0  0  0
 21 15  1  0  0  0  0
 22 17  1  0  0  0  0
 23 11  1  0  0  0  0
 24 30  1  0  0  0  0
 24 25  1  0  0  0  0
 25 26  1  0  0  0  0
 26 29  1  0  0  0  0
 28 29  1  0  0  0  0
 29 27  2  0  0  0  0
 30 28  1  0  0  0  0
 31 22  1  0  0  0  0
 32 37  1  0  0  0  0
 32 33  1  0  0  0  0
 32 31  1  0  0  0  0
 33 31  1  0  0  0  0
 34 33  1  0  0  0  0
 35 34  1  0  0  0  0
 36 37  1  0  0  0  0
M  END
>  <MODEL>
3

>  <REMARK>
 VINA RESULT:      -8.3      1.179      1.209
  Name = 
  4 active torsions:
  status: ('A' for Active; 'I' for Inactive)
    1  A    between atoms: C_1  and  C_27
    2  A    between atoms: N_4  and  C_37
    3  A    between atoms: C_8  and  C_12
    4  A    between atoms: C_23  and  C_30
                            x       y       z     vdW  Elec       q    Type
                         _______ _______ _______ _____ _____    ______ ____

>  <TORSDO>
F 4

$$$$
=
 OpenBabel11122411493D

 37 43  0  0  1  0  0  0  0  0999 V2000
  185.7160  179.1450  146.7850 C   0  0  0  0  0  0  0  0  0  0  0  0
  186.0150  177.8160  143.2840 C   0  0  1  0  0  3  0  0  0  0  0  0
  188.9580  176.2640  142.4120 O   0  0  0  0  0  0  0  0  0  0  0  0
  184.2990  178.2890  145.1930 C   0  0  2  0  0  3  0  0  0  0  0  0
  187.5160  177.8640  143.5690 C   0  0  2  0  0  3  0  0  0  0  0  0
  185.4330  177.4130  144.6500 C   0  0  2  0  0  3  0  0  0  0  0  0
  188.4640  177.5830  142.3870 C   0  0  2  0  0  3  0  0  0  0  0  0
  183.3320  178.6150  144.0660 C   0  0  0  0  0  2  0  0  0  0  0  0
  186.6270  177.3600  145.6040 C   0  0  2  0  0  3  0  0  0  0  0  0
  185.1940  178.2540  147.7190 F   0  0  0  0  0  0  0  0  0  0  0  0
  185.8500  179.3740  141.2930 C   0  0  0  0  0  2  0  0  0  0  0  0
  183.9990  179.3790  142.9170 C   0  0  0  0  0  2  0  0  0  0  0  0
  186.8830  178.6330  146.1790 O   0  0  0  0  0  0  0  0  0  0  0  0
  191.1910  177.3050  142.9220 C   0  0  0  0  0  1  0  0  0  0  0  0
  190.1450  176.2180  143.1900 C   0  0  1  0  0  3  0  0  0  0  0  0
  185.5160  179.1810  142.7710 C   0  0  1  0  0  3  0  0  0  0  0  0
  187.7280  176.9840  144.7150 N   0  0  2  0  0  0  0  0  0  0  0  0
  184.7670  179.4750  145.7930 O   0  0  0  0  0  0  0  0  0  0  0  0
  187.8900  177.9590  141.0070 C   0  0  1  0  0  3  0  0  0  0  0  0
  186.0550  180.3020  147.4560 F   0  0  0  0  0  0  0  0  0  0  0  0
  189.8920  176.0030  144.6170 N   0  0  0  0  0  2  0  0  0  0  0  0
  189.1100  177.0840  145.2220 C   0  0  2  0  0  3  0  0  0  0  0  0
  187.3450  179.3820  141.0130 C   0  0  0  0  0  2  0  0  0  0  0  0
  188.3130  178.3240  138.5350 C   0  0  0  0  0  2  0  0  0  0  0  0
  188.8880  177.8070  139.8510 C   0  0  2  0  0  3  0  0  0  0  0  0
  189.4280  176.3780  139.7140 C   0  0  0  0  0  2  0  0  0  0  0  0
  190.9930  175.2020  138.3520 O   0  0  0  0  0  0  0  0  0  0  0  0
  190.0810  177.0980  137.3580 N   0  0  0  0  0  2  0  0  0  0  0  0
  190.2370  176.2000  138.4640 C   0  0  0  0  0  0  0  0  0  0  0  0
  189.4310  178.3950  137.5030 C   0  0  0  0  0  2  0  0  0  0  0  0
  189.2070  176.9190  146.7560 C   0  0  1  0  0  3  0  0  0  0  0  0
  190.5920  176.8560  147.3090 N   0  0  0  0  0  0  0  0  0  0  0  0
  189.8040  178.0930  147.3870 C   0  0  2  0  0  3  0  0  0  0  0  0
  189.2550  178.2480  148.7900 C   0  0  0  0  0  2  0  0  0  0  0  0
  188.0590  177.5410  148.9020 O   0  0  0  0  0  1  0  0  0  0  0  0
  192.4300  176.0010  146.1800 F   0  0  0  0  0  0  0  0  0  0  0  0
  191.6480  177.1280  146.3380 C   0  0  0  0  0  2  0  0  0  0  0  0
  1 20  1  0  0  0  0
  1 10  1  0  0  0  0
  2  5  1  0  0  0  0
  2  6  1  0  0  0  0
  3 15  1  0  0  0  0
  4 18  1  0  0  0  0
  5 17  1  0  0  0  0
  6  4  1  0  0  0  0
  6  9  1  0  0  0  0
  7  3  1  0  0  0  0
  7  5  1  0  0  0  0
  8  4  1  0  0  0  0
  9 13  1  0  0  0  0
 11 16  1  0  0  0  0
 12  8  1  0  0  0  0
 13  1  1  0  0  0  0
 14 15  1  0  0  0  0
 15 21  1  0  0  0  0
 16 12  1  0  0  0  0
 16  2  1  0  0  0  0
 17 22  1  0  0  0  0
 17  9  1  0  0  0  0
 18  1  1  0  0  0  0
 19 23  1  0  0  0  0
 19  7  1  0  0  0  0
 21 22  1  0  0  0  0
 22 31  1  0  0  0  0
 23 11  1  0  0  0  0
 24 25  1  0  0  0  0
 25 19  1  0  0  0  0
 26 25  1  0  0  0  0
 27 29  2  0  0  0  0
 28 30  1  0  0  0  0
 28 29  1  0  0  0  0
 29 26  1  0  0  0  0
 30 24  1  0  0  0  0
 31 32  1  0  0  0  0
 31 33  1  0  0  0  0
 32 33  1  0  0  0  0
 33 34  1  0  0  0  0
 34 35  1  0  0  0  0
 36 37  1  0  0  0  0
 37 32  1  0  0  0  0
M  END
>  <MODEL>
4

>  <REMARK>
 VINA RESULT:      -8.2      3.644      6.727
  Name = 
  4 active torsions:
  status: ('A' for Active; 'I' for Inactive)
    1  A    between atoms: C_1  and  C_27
    2  A    between atoms: N_4  and  C_37
    3  A    between atoms: C_8  and  C_12
    4  A    between atoms: C_23  and  C_30
                            x       y       z     vdW  Elec       q    Type
                         _______ _______ _______ _____ _____    ______ ____

>  <TORSDO>
F 4

$$$$
=
 OpenBabel11122411493D

 37 43  0  0  1  0  0  0  0  0999 V2000
  190.2350  176.6370  138.6270 C   0  0  0  0  0  0  0  0  0  0  0  0
  187.1320  178.2510  137.2560 C   0  0  1  0  0  3  0  0  0  0  0  0
  184.8910  179.5680  139.5080 O   0  0  0  0  0  0  0  0  0  0  0  0
  189.6430  177.7780  136.7240 C   0  0  2  0  0  3  0  0  0  0  0  0
  186.5880  178.0230  138.6670 C   0  0  2  0  0  3  0  0  0  0  0  0
  188.6100  178.5810  137.5230 C   0  0  2  0  0  3  0  0  0  0  0  0
  185.0920  178.3150  138.8980 C   0  0  2  0  0  3  0  0  0  0  0  0
  189.1800  177.6600  135.2810 C   0  0  0  0  0  2  0  0  0  0  0  0
  188.8000  178.4220  139.0310 C   0  0  2  0  0  3  0  0  0  0  0  0
  191.3270  177.4850  138.7870 F   0  0  0  0  0  0  0  0  0  0  0  0
  185.4810  176.9110  135.8790 C   0  0  0  0  0  2  0  0  0  0  0  0
  187.8320  176.9430  135.1490 C   0  0  0  0  0  2  0  0  0  0  0  0
  189.1220  177.0810  139.3710 O   0  0  0  0  0  0  0  0  0  0  0  0
  184.1290  178.2620  141.5180 C   0  0  0  0  0  1  0  0  0  0  0  0
  184.9340  179.4200  140.9200 C   0  0  1  0  0  3  0  0  0  0  0  0
  186.9200  176.9980  136.3840 C   0  0  1  0  0  3  0  0  0  0  0  0
  187.4770  178.7650  139.5560 N   0  0  2  0  0  0  0  0  0  0  0  0
  189.8770  176.4990  137.2670 O   0  0  0  0  0  0  0  0  0  0  0  0
  184.2070  178.1310  137.6500 C   0  0  1  0  0  3  0  0  0  0  0  0
  190.5980  175.3920  139.1020 F   0  0  0  0  0  0  0  0  0  0  0  0
  186.2870  179.5250  141.4710 N   0  0  0  0  0  2  0  0  0  0  0  0
  187.1820  178.4770  140.9730 C   0  0  2  0  0  3  0  0  0  0  0  0
  184.4590  176.7760  136.9980 C   0  0  0  0  0  2  0  0  0  0  0  0
  182.3290  179.7390  138.2070 C   0  0  0  0  0  2  0  0  0  0  0  0
  182.7050  178.2880  137.9190 C   0  0  2  0  0  3  0  0  0  0  0  0
  182.1930  177.3400  139.0100 C   0  0  0  0  0  2  0  0  0  0  0  0
  180.1160  176.7920  140.0460 O   0  0  0  0  0  0  0  0  0  0  0  0
  180.2100  178.9340  139.1430 N   0  0  0  0  0  2  0  0  0  0  0  0
  180.7780  177.6460  139.4030 C   0  0  0  0  0  0  0  0  0  0  0  0
  180.8120  179.8670  138.1970 C   0  0  0  0  0  2  0  0  0  0  0  0
  188.4430  178.4870  141.8690 C   0  0  1  0  0  3  0  0  0  0  0  0
  188.2700  177.8950  143.2280 N   0  0  0  0  0  0  0  0  0  0  0  0
  188.9140  177.1340  142.1500 C   0  0  2  0  0  3  0  0  0  0  0  0
  190.4150  177.1520  142.3530 C   0  0  0  0  0  2  0  0  0  0  0  0
  190.7550  176.2870  143.3920 O   0  0  0  0  0  1  0  0  0  0  0  0
  187.0660  176.4200  144.5530 F   0  0  0  0  0  0  0  0  0  0  0  0
  186.9820  177.2440  143.4490 C   0  0  0  0  0  2  0  0  0  0  0  0
  1 10  1  0  0  0  0
  1 20  1  0  0  0  0
  1 13  1  0  0  0  0
  2  6  1  0  0  0  0
  2  5  1  0  0  0  0
  3 15  1  0  0  0  0
  4 18  1  0  0  0  0
  4  6  1  0  0  0  0
  5  7  1  0  0  0  0
  5 17  1  0  0  0  0
  6  9  1  0  0  0  0
  7  3  1  0  0  0  0
  8  4  1  0  0  0  0
  9 13  1  0  0  0  0
  9 17  1  0  0  0  0
 11 16  1  0  0  0  0
 11 23  1  0  0  0  0
 12  8  1  0  0  0  0
 12 16  1  0  0  0  0
 15 21  1  0  0  0  0
 15 14  1  0  0  0  0
 16  2  1  0  0  0  0
 17 22  1  0  0  0  0
 18  1  1  0  0  0  0
 19 25  1  0  0  0  0
 19  7  1  0  0  0  0
 22 21  1  0  0  0  0
 22 31  1  0  0  0  0
 23 19  1  0  0  0  0
 25 24  1  0  0  0  0
 25 26  1  0  0  0  0
 26 29  1  0  0  0  0
 28 29  1  0  0  0  0
 29 27  2  0  0  0  0
 30 24  1  0  0  0  0
 30 28  1  0  0  0  0
 31 33  1  0  0  0  0
 31 32  1  0  0  0  0
 32 37  1  0  0  0  0
 33 34  1  0  0  0  0
 33 32  1  0  0  0  0
 34 35  1  0  0  0  0
 37 36  1  0  0  0  0
M  END
>  <MODEL>
5

>  <REMARK>
 VINA RESULT:      -7.7      2.778      8.088
  Name = 
  4 active torsions:
  status: ('A' for Active; 'I' for Inactive)
    1  A    between atoms: C_1  and  C_27
    2  A    between atoms: N_4  and  C_37
    3  A    between atoms: C_8  and  C_12
    4  A    between atoms: C_23  and  C_30
                            x       y       z     vdW  Elec       q    Type
                         _______ _______ _______ _____ _____    ______ ____

>  <TORSDO>
F 4

$$$$
=
 OpenBabel11122411493D

 37 43  0  0  1  0  0  0  0  0999 V2000
  184.0280  177.2200  137.3650 C   0  0  0  0  0  0  0  0  0  0  0  0
  184.9600  178.9330  140.5760 C   0  0  1  0  0  3  0  0  0  0  0  0
  188.2870  178.9950  141.4450 O   0  0  0  0  0  0  0  0  0  0  0  0
  183.2300  178.9690  138.6210 C   0  0  2  0  0  3  0  0  0  0  0  0
  186.2370  178.1000  140.4590 C   0  0  2  0  0  3  0  0  0  0  0  0
  184.6520  179.2720  139.1080 C   0  0  2  0  0  3  0  0  0  0  0  0
  187.2020  178.1230  141.6600 C   0  0  2  0  0  3  0  0  0  0  0  0
  182.2330  179.3990  139.6850 C   0  0  0  0  0  2  0  0  0  0  0  0
  185.7100  178.5350  138.2870 C   0  0  2  0  0  3  0  0  0  0  0  0
  184.0170  178.0340  136.2360 F   0  0  0  0  0  0  0  0  0  0  0  0
  184.0470  178.1080  142.7910 C   0  0  0  0  0  2  0  0  0  0  0  0
  182.4340  178.6670  141.0160 C   0  0  0  0  0  2  0  0  0  0  0  0
  185.2970  177.2120  137.9830 O   0  0  0  0  0  0  0  0  0  0  0  0
  189.7030  176.9180  141.3630 C   0  0  0  0  0  1  0  0  0  0  0  0
  189.3370  178.2930  140.7960 C   0  0  1  0  0  3  0  0  0  0  0  0
  183.8490  178.1260  141.2760 C   0  0  1  0  0  3  0  0  0  0  0  0
  186.8560  178.5030  139.1990 N   0  0  2  0  0  0  0  0  0  0  0  0
  183.0440  177.6100  138.2990 O   0  0  0  0  0  0  0  0  0  0  0  0
  186.5210  178.3730  143.0200 C   0  0  1  0  0  3  0  0  0  0  0  0
  183.7440  175.9320  136.9540 F   0  0  0  0  0  0  0  0  0  0  0  0
  189.2210  178.3000  139.3350 N   0  0  0  0  0  2  0  0  0  0  0  0
  188.0030  177.6380  138.8620 C   0  0  2  0  0  3  0  0  0  0  0  0
  185.3390  177.4310  143.2190 C   0  0  0  0  0  2  0  0  0  0  0  0
  188.3230  176.9970  144.1520 C   0  0  0  0  0  2  0  0  0  0  0  0
  187.4650  178.2570  144.2240 C   0  0  2  0  0  3  0  0  0  0  0  0
  186.7340  178.3720  145.5670 C   0  0  0  0  0  2  0  0  0  0  0  0
  187.2890  178.3910  147.8870 O   0  0  0  0  0  0  0  0  0  0  0  0
  188.8240  177.2820  146.5350 N   0  0  0  0  0  2  0  0  0  0  0  0
  187.6330  178.0530  146.7250 C   0  0  0  0  0  0  0  0  0  0  0  0
  189.4090  177.0780  145.2150 C   0  0  0  0  0  2  0  0  0  0  0  0
  188.1640  177.4100  137.3420 C   0  0  1  0  0  3  0  0  0  0  0  0
  189.2720  176.4930  136.9440 N   0  0  0  0  0  0  0  0  0  0  0  0
  187.8800  176.0260  136.9720 C   0  0  2  0  0  3  0  0  0  0  0  0
  187.3400  175.9810  135.5570 C   0  0  0  0  0  2  0  0  0  0  0  0
  187.0170  177.2720  135.1410 O   0  0  0  0  0  1  0  0  0  0  0  0
  191.2450  176.2330  138.1390 F   0  0  0  0  0  0  0  0  0  0  0  0
  189.9310  175.8160  138.0580 C   0  0  0  0  0  2  0  0  0  0  0  0
  1 13  1  0  0  0  0
  1 18  1  0  0  0  0
  2 16  1  0  0  0  0
  3  7  1  0  0  0  0
  4  6  1  0  0  0  0
  4  8  1  0  0  0  0
  5  2  1  0  0  0  0
  5  7  1  0  0  0  0
  6  2  1  0  0  0  0
  7 19  1  0  0  0  0
  8 12  1  0  0  0  0
  9  6  1  0  0  0  0
  9 17  1  0  0  0  0
 10  1  1  0  0  0  0
 11 23  1  0  0  0  0
 12 16  1  0  0  0  0
 13  9  1  0  0  0  0
 15 14  1  0  0  0  0
 15  3  1  0  0  0  0
 16 11  1  0  0  0  0
 17  5  1  0  0  0  0
 18  4  1  0  0  0  0
 19 23  1  0  0  0  0
 19 25  1  0  0  0  0
 20  1  1  0  0  0  0
 21 15  1  0  0  0  0
 22 17  1  0  0  0  0
 22 21  1  0  0  0  0
 24 25  1  0  0  0  0
 24 30  1  0  0  0  0
 25 26  1  0  0  0  0
 26 29  1  0  0  0  0
 28 29  1  0  0  0  0
 29 27  2  0  0  0  0
 30 28  1  0  0  0  0
 31 22  1  0  0  0  0
 32 33  1  0  0  0  0
 32 31  1  0  0  0  0
 32 37  1  0  0  0  0
 33 31  1  0  0  0  0
 34 33  1  0  0  0  0
 35 34  1  0  0  0  0
 37 36  1  0  0  0  0
M  END
>  <MODEL>
6

>  <REMARK>
 VINA RESULT:      -7.4      2.132      3.022
  Name = 
  4 active torsions:
  status: ('A' for Active; 'I' for Inactive)
    1  A    between atoms: C_1  and  C_27
    2  A    between atoms: N_4  and  C_37
    3  A    between atoms: C_8  and  C_12
    4  A    between atoms: C_23  and  C_30
                            x       y       z     vdW  Elec       q    Type
                         _______ _______ _______ _____ _____    ______ ____

>  <TORSDO>
F 4

$$$$
=
 OpenBabel11122411493D

 37 43  0  0  1  0  0  0  0  0999 V2000
  190.1330  176.8050  141.4510 C   0  0  0  0  0  0  0  0  0  0  0  0
  188.6210  177.2170  138.0380 C   0  0  1  0  0  3  0  0  0  0  0  0
  185.4130  178.4410  137.8500 O   0  0  0  0  0  0  0  0  0  0  0  0
  190.8870  177.2680  139.3320 C   0  0  2  0  0  3  0  0  0  0  0  0
  187.2980  177.2090  138.8030 C   0  0  2  0  0  3  0  0  0  0  0  0
  189.5570  177.9580  139.0070 C   0  0  2  0  0  3  0  0  0  0  0  0
  186.0040  177.1680  137.9660 C   0  0  2  0  0  3  0  0  0  0  0  0
  191.4800  176.6930  138.0560 C   0  0  0  0  0  2  0  0  0  0  0  0
  188.7240  178.2210  140.2610 C   0  0  2  0  0  3  0  0  0  0  0  0
  190.8290  177.9110  141.9330 F   0  0  0  0  0  0  0  0  0  0  0  0
  188.3100  175.2170  136.5140 C   0  0  0  0  0  2  0  0  0  0  0  0
  190.5670  175.6530  137.3950 C   0  0  0  0  0  2  0  0  0  0  0  0
  188.7900  177.1260  141.1620 O   0  0  0  0  0  0  0  0  0  0  0  0
  183.5680  177.5130  139.2880 C   0  0  0  0  0  1  0  0  0  0  0  0
  184.5300  178.6540  138.9420 C   0  0  1  0  0  3  0  0  0  0  0  0
  189.0690  175.7770  137.7150 C   0  0  1  0  0  3  0  0  0  0  0  0
  187.3670  178.3420  139.7220 N   0  0  2  0  0  0  0  0  0  0  0  0
  190.7520  176.2580  140.3060 O   0  0  0  0  0  0  0  0  0  0  0  0
  186.1520  176.4730  136.5980 C   0  0  1  0  0  3  0  0  0  0  0  0
  190.1400  175.8430  142.4430 F   0  0  0  0  0  0  0  0  0  0  0  0
  185.1940  179.2220  140.1190 N   0  0  0  0  0  2  0  0  0  0  0  0
  186.2310  178.3410  140.6630 C   0  0  2  0  0  3  0  0  0  0  0  0
  186.8120  175.1070  136.7490 C   0  0  0  0  0  2  0  0  0  0  0  0
  184.1570  177.6570  135.5770 C   0  0  0  0  0  2  0  0  0  0  0  0
  184.8330  176.3120  135.8310 C   0  0  2  0  0  3  0  0  0  0  0  0
  183.8770  175.3110  136.4930 C   0  0  0  0  0  2  0  0  0  0  0  0
  181.7320  174.3630  136.0620 O   0  0  0  0  0  0  0  0  0  0  0  0
  182.0820  176.4460  135.0860 N   0  0  0  0  0  2  0  0  0  0  0  0
  182.5220  175.3190  135.8510 C   0  0  0  0  0  0  0  0  0  0  0  0
  183.0120  177.4560  134.5940 C   0  0  0  0  0  2  0  0  0  0  0  0
  186.6030  178.8800  142.0640 C   0  0  1  0  0  3  0  0  0  0  0  0
  185.4830  178.9370  143.0480 N   0  0  0  0  0  0  0  0  0  0  0  0
  186.4690  177.8500  143.0900 C   0  0  2  0  0  3  0  0  0  0  0  0
  187.4580  178.1150  144.2050 C   0  0  0  0  0  2  0  0  0  0  0  0
  186.7690  178.4470  145.3700 O   0  0  0  0  0  1  0  0  0  0  0  0
  183.2670  178.4750  143.5600 F   0  0  0  0  0  0  0  0  0  0  0  0
  184.2410  178.3190  142.5940 C   0  0  0  0  0  2  0  0  0  0  0  0
  1 10  1  0  0  0  0
  1 20  1  0  0  0  0
  2  5  1  0  0  0  0
  2  6  1  0  0  0  0
  3  7  1  0  0  0  0
  3 15  1  0  0  0  0
  4 18  1  0  0  0  0
  5 17  1  0  0  0  0
  6  4  1  0  0  0  0
  6  9  1  0  0  0  0
  7  5  1  0  0  0  0
  8  4  1  0  0  0  0
  9 13  1  0  0  0  0
 11 23  1  0  0  0  0
 11 16  1  0  0  0  0
 12 16  1  0  0  0  0
 12  8  1  0  0  0  0
 13  1  1  0  0  0  0
 15 14  1  0  0  0  0
 15 21  1  0  0  0  0
 16  2  1  0  0  0  0
 17  9  1  0  0  0  0
 17 22  1  0  0  0  0
 18  1  1  0  0  0  0
 19 23  1  0  0  0  0
 19  7  1  0  0  0  0
 21 22  1  0  0  0  0
 22 31  1  0  0  0  0
 24 25  1  0  0  0  0
 25 26  1  0  0  0  0
 25 19  1  0  0  0  0
 28 29  1  0  0  0  0
 29 27  2  0  0  0  0
 29 26  1  0  0  0  0
 30 28  1  0  0  0  0
 30 24  1  0  0  0  0
 31 32  1  0  0  0  0
 31 33  1  0  0  0  0
 32 33  1  0  0  0  0
 33 34  1  0  0  0  0
 34 35  1  0  0  0  0
 37 32  1  0  0  0  0
 37 36  1  0  0  0  0
M  END
>  <MODEL>
7

>  <REMARK>
 VINA RESULT:      -6.6      2.813      8.209
  Name = 
  4 active torsions:
  status: ('A' for Active; 'I' for Inactive)
    1  A    between atoms: C_1  and  C_27
    2  A    between atoms: N_4  and  C_37
    3  A    between atoms: C_8  and  C_12
    4  A    between atoms: C_23  and  C_30
                            x       y       z     vdW  Elec       q    Type
                         _______ _______ _______ _____ _____    ______ ____

>  <TORSDO>
F 4

$$$$
=
 OpenBabel11122411493D

 37 43  0  0  1  0  0  0  0  0999 V2000
  183.3680  177.8640  141.5600 C   0  0  0  0  0  0  0  0  0  0  0  0
  187.0110  178.7770  141.5030 C   0  0  1  0  0  3  0  0  0  0  0  0
  188.5530  179.0030  138.4360 O   0  0  0  0  0  0  0  0  0  0  0  0
  184.8000  179.1180  142.8460 C   0  0  2  0  0  3  0  0  0  0  0  0
  186.9750  178.1610  140.1040 C   0  0  2  0  0  3  0  0  0  0  0  0
  185.6320  179.4490  141.6020 C   0  0  2  0  0  3  0  0  0  0  0  0
  188.3250  177.9830  139.3800 C   0  0  2  0  0  3  0  0  0  0  0  0
  185.6990  179.1350  144.0710 C   0  0  0  0  0  2  0  0  0  0  0  0
  184.9040  179.0830  140.3090 C   0  0  2  0  0  3  0  0  0  0  0  0
  182.4840  178.9390  141.5110 F   0  0  0  0  0  0  0  0  0  0  0  0
  188.7300  177.3010  142.6370 C   0  0  0  0  0  2  0  0  0  0  0  0
  186.8350  178.1090  143.9860 C   0  0  0  0  0  2  0  0  0  0  0  0
  184.2200  177.8450  140.4360 O   0  0  0  0  0  0  0  0  0  0  0  0
  188.2900  177.2010  136.7000 C   0  0  0  0  0  1  0  0  0  0  0  0
  187.9950  178.6230  137.1860 C   0  0  1  0  0  3  0  0  0  0  0  0
  187.2540  177.6900  142.5680 C   0  0  1  0  0  3  0  0  0  0  0  0
  186.0040  178.9490  139.3510 N   0  0  2  0  0  0  0  0  0  0  0  0
  184.1380  177.8780  142.7440 O   0  0  0  0  0  0  0  0  0  0  0  0
  189.5310  177.7870  140.3210 C   0  0  1  0  0  3  0  0  0  0  0  0
  182.6190  176.7050  141.5490 F   0  0  0  0  0  0  0  0  0  0  0  0
  186.5850  178.9980  137.0450 N   0  0  0  0  0  2  0  0  0  0  0  0
  185.7250  178.3440  138.0350 C   0  0  2  0  0  3  0  0  0  0  0  0
  189.2510  176.6930  141.3440 C   0  0  0  0  0  2  0  0  0  0  0  0
  190.7640  176.1640  138.8150 C   0  0  0  0  0  2  0  0  0  0  0  0
  190.8460  177.4730  139.5950 C   0  0  2  0  0  3  0  0  0  0  0  0
  192.0630  177.5040  140.5280 C   0  0  0  0  0  2  0  0  0  0  0  0
  194.4270  177.2390  140.3600 O   0  0  0  0  0  0  0  0  0  0  0  0
  193.2130  176.1590  138.6940 N   0  0  0  0  0  2  0  0  0  0  0  0
  193.3020  176.9980  139.8520 C   0  0  0  0  0  0  0  0  0  0  0  0
  191.9860  176.0490  137.9140 C   0  0  0  0  0  2  0  0  0  0  0  0
  184.2620  178.5410  137.5740 C   0  0  1  0  0  3  0  0  0  0  0  0
  183.8270  177.6850  136.4330 N   0  0  0  0  0  0  0  0  0  0  0  0
  183.4570  177.3470  137.8130 C   0  0  2  0  0  3  0  0  0  0  0  0
  182.0160  177.7480  138.0560 C   0  0  0  0  0  2  0  0  0  0  0  0
  181.3360  176.6940  138.6640 O   0  0  0  0  0  1  0  0  0  0  0  0
  185.3080  176.9870  134.7880 F   0  0  0  0  0  0  0  0  0  0  0  0
  184.7950  176.6690  136.0300 C   0  0  0  0  0  2  0  0  0  0  0  0
  1 18  1  0  0  0  0
  2  6  1  0  0  0  0
  2 16  1  0  0  0  0
  3  7  1  0  0  0  0
  4  8  1  0  0  0  0
  5  2  1  0  0  0  0
  6  4  1  0  0  0  0
  7  5  1  0  0  0  0
  7 19  1  0  0  0  0
  9 13  1  0  0  0  0
  9  6  1  0  0  0  0
 10  1  1  0  0  0  0
 12  8  1  0  0  0  0
 13  1  1  0  0  0  0
 14 15  1  0  0  0  0
 15  3  1  0  0  0  0
 16 11  1  0  0  0  0
 16 12  1  0  0  0  0
 17  5  1  0  0  0  0
 17  9  1  0  0  0  0
 18  4  1  0  0  0  0
 19 23  1  0  0  0  0
 20  1  1  0  0  0  0
 21 15  1  0  0  0  0
 21 22  1  0  0  0  0
 22 17  1  0  0  0  0
 23 11  1  0  0  0  0
 24 25  1  0  0  0  0
 25 19  1  0  0  0  0
 25 26  1  0  0  0  0
 28 29  1  0  0  0  0
 29 27  2  0  0  0  0
 29 26  1  0  0  0  0
 30 28  1  0  0  0  0
 30 24  1  0  0  0  0
 31 33  1  0  0  0  0
 31 22  1  0  0  0  0
 32 31  1  0  0  0  0
 32 33  1  0  0  0  0
 33 34  1  0  0  0  0
 34 35  1  0  0  0  0
 36 37  1  0  0  0  0
 37 32  1  0  0  0  0
M  END
>  <MODEL>
8

>  <REMARK>
 VINA RESULT:      -6.6      2.417      3.408
  Name = 
  4 active torsions:
  status: ('A' for Active; 'I' for Inactive)
    1  A    between atoms: C_1  and  C_27
    2  A    between atoms: N_4  and  C_37
    3  A    between atoms: C_8  and  C_12
    4  A    between atoms: C_23  and  C_30
                            x       y       z     vdW  Elec       q    Type
                         _______ _______ _______ _____ _____    ______ ____

>  <TORSDO>
F 4

$$$$
=
 OpenBabel11122411493D

 37 43  0  0  1  0  0  0  0  0999 V2000
  190.1150  176.7410  141.2090 C   0  0  0  0  0  0  0  0  0  0  0  0
  187.5460  178.2560  138.9260 C   0  0  1  0  0  3  0  0  0  0  0  0
  184.6880  179.5250  140.3580 O   0  0  0  0  0  0  0  0  0  0  0  0
  190.1100  177.8510  139.1990 C   0  0  2  0  0  3  0  0  0  0  0  0
  186.6000  178.0230  140.1050 C   0  0  2  0  0  3  0  0  0  0  0  0
  188.8610  178.6300  139.6290 C   0  0  2  0  0  3  0  0  0  0  0  0
  185.0990  178.2740  139.8600 C   0  0  2  0  0  3  0  0  0  0  0  0
  190.1160  177.7090  137.6850 C   0  0  0  0  0  2  0  0  0  0  0  0
  188.5820  178.4880  141.1250 C   0  0  2  0  0  3  0  0  0  0  0  0
  191.0840  177.6220  141.6840 F   0  0  0  0  0  0  0  0  0  0  0  0
  186.4320  176.8600  137.1290 C   0  0  0  0  0  2  0  0  0  0  0  0
  188.8920  176.9530  137.1560 C   0  0  0  0  0  2  0  0  0  0  0  0
  188.8170  177.1600  141.5690 O   0  0  0  0  0  0  0  0  0  0  0  0
  183.3780  178.2130  142.0580 C   0  0  0  0  0  1  0  0  0  0  0  0
  184.2980  179.3890  141.7170 C   0  0  1  0  0  3  0  0  0  0  0  0
  187.6430  176.9910  138.0510 C   0  0  1  0  0  3  0  0  0  0  0  0
  187.1530  178.7970  141.2120 N   0  0  2  0  0  0  0  0  0  0  0  0
  190.1970  176.5840  139.8080 O   0  0  0  0  0  0  0  0  0  0  0  0
  184.6460  178.0560  138.4030 C   0  0  1  0  0  3  0  0  0  0  0  0
  190.3460  175.5120  141.7930 F   0  0  0  0  0  0  0  0  0  0  0  0
  185.4140  179.5360  142.6560 N   0  0  0  0  0  2  0  0  0  0  0  0
  186.4440  178.5110  142.4750 C   0  0  2  0  0  3  0  0  0  0  0  0
  185.1200  176.7040  137.8820 C   0  0  0  0  0  2  0  0  0  0  0  0
  182.6630  177.3780  136.9770 C   0  0  0  0  0  2  0  0  0  0  0  0
  183.1300  178.1710  138.1950 C   0  0  2  0  0  3  0  0  0  0  0  0
  182.6440  179.6250  138.1480 C   0  0  0  0  0  2  0  0  0  0  0  0
  180.5750  180.7930  137.9480 O   0  0  0  0  0  0  0  0  0  0  0  0
  180.5690  178.6540  137.0330 N   0  0  0  0  0  2  0  0  0  0  0  0
  181.2040  179.7240  137.7420 C   0  0  0  0  0  0  0  0  0  0  0  0
  181.1420  177.3140  136.9840 C   0  0  0  0  0  2  0  0  0  0  0  0
  187.3670  178.5630  143.7140 C   0  0  1  0  0  3  0  0  0  0  0  0
  186.7070  178.2730  145.0200 N   0  0  0  0  0  0  0  0  0  0  0  0
  187.5080  177.2500  144.3360 C   0  0  2  0  0  3  0  0  0  0  0  0
  188.8640  177.1490  145.0040 C   0  0  0  0  0  2  0  0  0  0  0  0
  189.6650  178.2130  144.5950 O   0  0  0  0  0  1  0  0  0  0  0  0
  184.5000  178.6780  145.6130 F   0  0  0  0  0  0  0  0  0  0  0  0
  185.3240  177.8180  144.9140 C   0  0  0  0  0  2  0  0  0  0  0  0
  1 13  1  0  0  0  0
  1 10  1  0  0  0  0
  1 20  1  0  0  0  0
  2  6  1  0  0  0  0
  2  5  1  0  0  0  0
  3 15  1  0  0  0  0
  4  6  1  0  0  0  0
  4 18  1  0  0  0  0
  5 17  1  0  0  0  0
  6  9  1  0  0  0  0
  7  5  1  0  0  0  0
  7  3  1  0  0  0  0
  8  4  1  0  0  0  0
  9 17  1  0  0  0  0
  9 13  1  0  0  0  0
 11 23  1  0  0  0  0
 11 16  1  0  0  0  0
 12  8  1  0  0  0  0
 12 16  1  0  0  0  0
 15 14  1  0  0  0  0
 15 21  1  0  0  0  0
 16  2  1  0  0  0  0
 17 22  1  0  0  0  0
 18  1  1  0  0  0  0
 19  7  1  0  0  0  0
 22 21  1  0  0  0  0
 22 31  1  0  0  0  0
 23 19  1  0  0  0  0
 24 30  1  0  0  0  0
 24 25  1  0  0  0  0
 25 19  1  0  0  0  0
 26 25  1  0  0  0  0
 28 29  1  0  0  0  0
 29 27  2  0  0  0  0
 29 26  1  0  0  0  0
 30 28  1  0  0  0  0
 31 33  1  0  0  0  0
 31 32  1  0  0  0  0
 33 34  1  0  0  0  0
 33 32  1  0  0  0  0
 35 34  1  0  0  0  0
 37 32  1  0  0  0  0
 37 36  1  0  0  0  0
M  END
>  <MODEL>
9

>  <REMARK>
 VINA RESULT:      -6.4      2.788      8.147
  Name = 
  4 active torsions:
  status: ('A' for Active; 'I' for Inactive)
    1  A    between atoms: C_1  and  C_27
    2  A    between atoms: N_4  and  C_37
    3  A    between atoms: C_8  and  C_12
    4  A    between atoms: C_23  and  C_30
                            x       y       z     vdW  Elec       q    Type
                         _______ _______ _______ _____ _____    ______ ____

>  <TORSDO>
F 4

$$$$
