=
 OpenBabel11122411393D

 37 43  0  0  1  0  0  0  0  0999 V2000
  186.8240  177.7640  139.4520 O   0  0  0  0  0  0  0  0  0  0  0  0
  190.1050  177.6610  143.0600 C   0  0  0  0  0  0  0  0  0  0  0  0
  185.9620  177.7430  143.8900 C   0  0  0  0  0  0  0  0  0  0  0  0
  186.7010  178.3370  138.1780 C   0  0  2  0  0  3  0  0  0  0  0  0
  183.3640  177.6090  141.3830 O   0  0  0  0  0  0  0  0  0  0  0  0
  188.2380  177.6270  144.7220 C   0  0  0  0  0  0  0  0  0  0  0  0
  185.4300  178.0550  142.7100 C   0  0  0  0  0  0  0  0  0  0  0  0
  184.6080  176.9310  137.9690 C   0  0  0  0  0  0  0  0  0  0  0  0
  187.3750  177.6830  143.7360 C   0  0  0  0  0  0  0  0  0  0  0  0
  183.9640  178.2250  142.4890 C   0  0  0  0  0  0  0  0  0  0  0  0
  187.7090  177.5030  146.0990 C   0  0  0  0  0  3  0  0  0  0  0  0
  185.2610  178.2530  137.6570 C   0  0  0  0  0  2  0  0  0  0  0  0
  187.7090  177.9740  142.3910 C   0  0  0  0  0  0  0  0  0  0  0  0
  190.3580  176.2060  142.7080 C   0  0  0  0  0  1  0  0  0  0  0  0
  184.5880  178.9730  145.4750 C   0  0  0  0  0  3  0  0  0  0  0  0
  186.3760  177.5180  146.3340 C   0  0  0  0  0  3  0  0  0  0  0  0
  189.1300  178.2700  142.0130 C   0  0  0  0  0  2  0  0  0  0  0  0
  183.8060  176.7130  139.2260 C   0  0  1  0  0  3  0  0  0  0  0  0
  183.6910  177.9440  140.0480 C   0  0  1  0  0  3  0  0  0  0  0  0
  185.3200  177.6930  145.2410 C   0  0  2  0  0  3  0  0  0  0  0  0
  186.5680  178.2220  141.7460 C   0  0  0  0  0  0  0  0  0  0  0  0
  189.6050  177.7380  144.4170 O   0  0  0  0  0  0  0  0  0  0  0  0
  183.1600  178.8600  143.3860 C   0  0  0  0  0  0  0  0  0  0  0  0
  191.4240  178.4020  142.9820 C   0  0  0  0  0  1  0  0  0  0  0  0
  182.6540  177.5190  139.1950 O   0  0  0  0  0  0  0  0  0  0  0  0
  184.7480  176.0030  137.1910 O   0  0  0  0  0  0  0  0  0  0  0  0
  186.5150  178.7780  140.3630 C   0  0  0  0  0  2  0  0  0  0  0  0
  183.6400  179.4530  144.6650 C   0  0  0  0  0  3  0  0  0  0  0  0
  180.7430  178.6280  143.9830 C   0  0  0  0  0  3  0  0  0  0  0  0
  181.7220  179.0870  143.0900 C   0  0  0  0  0  0  0  0  0  0  0  0
  181.3140  179.7970  141.9510 C   0  0  0  0  0  3  0  0  0  0  0  0
  179.5400  180.7260  140.5580 N   0  0  0  0  0  1  0  0  0  0  0  0
  179.0300  179.5460  142.5960 N   0  0  0  0  0  0  0  0  0  0  0  0
  179.9560  180.0140  141.7160 C   0  0  0  0  0  0  0  0  0  0  0  0
  179.3930  178.8660  143.7160 C   0  0  0  0  0  3  0  0  0  0  0  0
  188.1690  176.4950  137.7990 O   0  0  0  0  0  1  0  0  0  0  0  0
  187.6460  177.6460  137.2100 C   0  0  0  0  0  2  0  0  0  0  0  0
  1 27  1  0  0  0  0
  2 22  1  0  0  0  0
  3 20  1  0  0  0  0
  4 37  1  6  0  0  0
  4  1  1  0  0  0  0
  5 10  1  0  0  0  0
  6 11  1  0  0  0  0
  7  3  2  0  0  0  0
  9  3  1  0  0  0  0
  9  6  2  0  0  0  0
 10  7  1  0  0  0  0
 10 23  2  0  0  0  0
 11 16  2  0  0  0  0
 12  8  1  0  0  0  0
 12  4  1  0  0  0  0
 13  9  1  0  0  0  0
 14  2  1  0  0  0  0
 17 13  1  0  0  0  0
 17  2  1  0  0  0  0
 18  8  1  6  0  0  0
 18 19  1  0  0  0  0
 19 25  1  6  0  0  0
 19  5  1  0  0  0  0
 20 15  1  1  0  0  0
 20 16  1  0  0  0  0
 21 13  2  0  0  0  0
 21  7  1  0  0  0  0
 22  6  1  0  0  0  0
 23 28  1  0  0  0  0
 24  2  1  0  0  0  0
 25 18  1  0  0  0  0
 26  8  2  0  0  0  0
 27 21  1  0  0  0  0
 28 15  2  0  0  0  0
 30 23  1  0  0  0  0
 30 29  2  0  0  0  0
 31 30  1  0  0  0  0
 32 34  1  0  0  0  0
 33 35  2  0  0  0  0
 34 31  2  0  0  0  0
 34 33  1  0  0  0  0
 35 29  1  0  0  0  0
 37 36  1  0  0  0  0
M  END
>  <MODEL>
1

>  <REMARK>
 VINA RESULT:      -9.8      0.000      0.000
  Name = 
  2 active torsions:
  status: ('A' for Active; 'I' for Inactive)
    1  A    between atoms: C_4  and  C_37
    2  A    between atoms: C_23  and  C_30
                            x       y       z     vdW  Elec       q    Type
                         _______ _______ _______ _____ _____    ______ ____

>  <TORSDO>
F 2

$$$$
=
 OpenBabel11122411393D

 37 43  0  0  1  0  0  0  0  0999 V2000
  189.0170  177.5060  139.0360 O   0  0  0  0  0  0  0  0  0  0  0  0
  190.5710  177.4760  143.6600 C   0  0  0  0  0  0  0  0  0  0  0  0
  186.4590  177.8300  142.7500 C   0  0  0  0  0  0  0  0  0  0  0  0
  189.4550  177.9970  137.7970 C   0  0  2  0  0  3  0  0  0  0  0  0
  185.0730  177.6620  139.4180 O   0  0  0  0  0  0  0  0  0  0  0  0
  188.1990  177.6520  144.4310 C   0  0  0  0  0  0  0  0  0  0  0  0
  186.4660  178.0890  141.4430 C   0  0  0  0  0  0  0  0  0  0  0  0
  187.5190  176.6910  136.8230 C   0  0  0  0  0  0  0  0  0  0  0  0
  187.8070  177.6850  143.1790 C   0  0  0  0  0  0  0  0  0  0  0  0
  185.2270  178.3190  140.6450 C   0  0  0  0  0  0  0  0  0  0  0  0
  187.1580  177.6490  145.4820 C   0  0  0  0  0  3  0  0  0  0  0  0
  188.3400  177.9520  136.7460 C   0  0  0  0  0  2  0  0  0  0  0  0
  188.6710  177.8680  142.0720 C   0  0  0  0  0  0  0  0  0  0  0  0
  190.8330  175.9890  143.4990 C   0  0  0  0  0  1  0  0  0  0  0  0
  184.6640  179.2340  143.5970 C   0  0  0  0  0  3  0  0  0  0  0  0
  185.8470  177.7500  145.1610 C   0  0  0  0  0  3  0  0  0  0  0  0
  190.1420  178.0630  142.2850 C   0  0  0  0  0  2  0  0  0  0  0  0
  186.2690  176.6000  137.6590 C   0  0  1  0  0  3  0  0  0  0  0  0
  185.9290  177.8880  138.3140 C   0  0  1  0  0  3  0  0  0  0  0  0
  185.3300  177.9050  143.7290 C   0  0  2  0  0  3  0  0  0  0  0  0
  187.9030  178.1300  141.0130 C   0  0  0  0  0  0  0  0  0  0  0  0
  189.5790  177.6710  144.6970 O   0  0  0  0  0  0  0  0  0  0  0  0
  184.1820  179.0550  141.1170 C   0  0  0  0  0  0  0  0  0  0  0  0
  191.8630  178.1400  144.0880 C   0  0  0  0  0  1  0  0  0  0  0  0
  185.2890  177.4620  137.1350 O   0  0  0  0  0  0  0  0  0  0  0  0
  187.8880  175.7050  136.2050 O   0  0  0  0  0  0  0  0  0  0  0  0
  188.4470  178.5930  139.7040 C   0  0  0  0  0  2  0  0  0  0  0  0
  184.1560  179.7070  142.4550 C   0  0  0  0  0  3  0  0  0  0  0  0
  183.1480  180.1210  139.1050 C   0  0  0  0  0  3  0  0  0  0  0  0
  183.0020  179.3360  140.2580 C   0  0  0  0  0  0  0  0  0  0  0  0
  181.7430  178.7930  140.5480 C   0  0  0  0  0  3  0  0  0  0  0  0
  179.3810  178.5140  140.0020 N   0  0  0  0  0  1  0  0  0  0  0  0
  180.8330  179.8300  138.6000 N   0  0  0  0  0  0  0  0  0  0  0  0
  180.6610  179.0570  139.7060 C   0  0  0  0  0  0  0  0  0  0  0  0
  182.0440  180.3610  138.2840 C   0  0  0  0  0  3  0  0  0  0  0  0
  190.8070  176.0570  138.1150 O   0  0  0  0  0  1  0  0  0  0  0  0
  190.6530  177.1930  137.3210 C   0  0  0  0  0  2  0  0  0  0  0  0
  1 27  1  0  0  0  0
  2 24  1  0  0  0  0
  2 22  1  0  0  0  0
  3  9  1  0  0  0  0
  3 20  1  0  0  0  0
  4 37  1  6  0  0  0
  4  1  1  0  0  0  0
  5 10  1  0  0  0  0
  6 22  1  0  0  0  0
  6 11  1  0  0  0  0
  7  3  2  0  0  0  0
  9  6  2  0  0  0  0
 10 23  2  0  0  0  0
 10  7  1  0  0  0  0
 12  8  1  0  0  0  0
 12  4  1  0  0  0  0
 13 17  1  0  0  0  0
 13  9  1  0  0  0  0
 14  2  1  0  0  0  0
 16 11  2  0  0  0  0
 17  2  1  0  0  0  0
 18  8  1  6  0  0  0
 18 19  1  0  0  0  0
 19 25  1  6  0  0  0
 19  5  1  0  0  0  0
 20 15  1  1  0  0  0
 20 16  1  0  0  0  0
 21  7  1  0  0  0  0
 21 13  2  0  0  0  0
 23 28  1  0  0  0  0
 25 18  1  0  0  0  0
 26  8  2  0  0  0  0
 27 21  1  0  0  0  0
 28 15  2  0  0  0  0
 29 30  1  0  0  0  0
 30 31  2  0  0  0  0
 30 23  1  0  0  0  0
 33 34  2  0  0  0  0
 34 32  1  0  0  0  0
 34 31  1  0  0  0  0
 35 33  1  0  0  0  0
 35 29  2  0  0  0  0
 37 36  1  0  0  0  0
M  END
>  <MODEL>
2

>  <REMARK>
 VINA RESULT:      -8.3      1.748      2.599
  Name = 
  2 active torsions:
  status: ('A' for Active; 'I' for Inactive)
    1  A    between atoms: C_4  and  C_37
    2  A    between atoms: C_23  and  C_30
                            x       y       z     vdW  Elec       q    Type
                         _______ _______ _______ _____ _____    ______ ____

>  <TORSDO>
F 2

$$$$
=
 OpenBabel11122411393D

 37 43  0  0  1  0  0  0  0  0999 V2000
  185.2290  177.9520  138.1740 O   0  0  0  0  0  0  0  0  0  0  0  0
  181.0270  178.6370  140.5560 C   0  0  0  0  0  0  0  0  0  0  0  0
  184.7290  178.7800  142.5900 C   0  0  0  0  0  0  0  0  0  0  0  0
  185.7050  177.1630  137.1160 C   0  0  2  0  0  3  0  0  0  0  0  0
  187.9580  178.5130  140.9950 O   0  0  0  0  0  0  0  0  0  0  0  0
  182.3140  179.0000  142.6680 C   0  0  0  0  0  0  0  0  0  0  0  0
  185.5770  178.2720  141.6980 C   0  0  0  0  0  0  0  0  0  0  0  0
  187.8150  178.5480  137.3010 C   0  0  0  0  0  0  0  0  0  0  0  0
  183.4290  178.7860  142.0110 C   0  0  0  0  0  0  0  0  0  0  0  0
  187.0350  178.0930  141.9590 C   0  0  0  0  0  0  0  0  0  0  0  0
  182.4120  179.3780  144.0960 C   0  0  0  0  0  3  0  0  0  0  0  0
  187.2370  177.1800  137.0450 C   0  0  0  0  0  2  0  0  0  0  0  0
  183.5010  178.2530  140.7010 C   0  0  0  0  0  0  0  0  0  0  0  0
  180.9440  180.0010  139.8940 C   0  0  0  0  0  1  0  0  0  0  0  0
  185.5210  177.8780  144.7040 C   0  0  0  0  0  3  0  0  0  0  0  0
  183.6130  179.4290  144.7180 C   0  0  0  0  0  3  0  0  0  0  0  0
  182.2470  177.8690  139.9730 C   0  0  0  0  0  2  0  0  0  0  0  0
  188.2130  179.0020  138.6820 C   0  0  1  0  0  3  0  0  0  0  0  0
  188.0330  177.9390  139.7030 C   0  0  1  0  0  3  0  0  0  0  0  0
  184.9400  179.0820  144.0410 C   0  0  2  0  0  3  0  0  0  0  0  0
  184.7720  177.9150  140.4820 C   0  0  0  0  0  0  0  0  0  0  0  0
  181.0970  178.8120  141.9910 O   0  0  0  0  0  0  0  0  0  0  0  0
  187.5110  177.6420  143.1540 C   0  0  0  0  0  0  0  0  0  0  0  0
  179.7660  177.8690  140.2170 C   0  0  0  0  0  1  0  0  0  0  0  0
  189.2910  178.2240  139.1400 O   0  0  0  0  0  0  0  0  0  0  0  0
  187.9470  179.3200  136.3660 O   0  0  0  0  0  0  0  0  0  0  0  0
  185.2150  177.1230  139.2990 C   0  0  0  0  0  2  0  0  0  0  0  0
  186.6500  177.2780  144.3130 C   0  0  0  0  0  3  0  0  0  0  0  0
  189.4990  176.1280  143.0630 C   0  0  0  0  0  3  0  0  0  0  0  0
  188.9630  177.3930  143.3470 C   0  0  0  0  0  0  0  0  0  0  0  0
  189.8300  178.4130  143.7650 C   0  0  0  0  0  3  0  0  0  0  0  0
  192.0720  179.1810  144.3440 N   0  0  0  0  0  1  0  0  0  0  0  0
  191.6800  176.9100  143.6390 N   0  0  0  0  0  0  0  0  0  0  0  0
  191.1930  178.1500  143.9110 C   0  0  0  0  0  0  0  0  0  0  0  0
  190.8680  175.9040  143.2190 C   0  0  0  0  0  3  0  0  0  0  0  0
  185.8260  177.1070  134.7340 O   0  0  0  0  0  1  0  0  0  0  0  0
  185.1170  177.6530  135.8040 C   0  0  0  0  0  2  0  0  0  0  0  0
  1 27  1  0  0  0  0
  2 22  1  0  0  0  0
  3 20  1  0  0  0  0
  4 37  1  6  0  0  0
  4  1  1  0  0  0  0
  5 10  1  0  0  0  0
  6 11  1  0  0  0  0
  7 10  1  0  0  0  0
  7  3  2  0  0  0  0
  9  3  1  0  0  0  0
  9  6  2  0  0  0  0
 10 23  2  0  0  0  0
 11 16  2  0  0  0  0
 12  4  1  0  0  0  0
 12  8  1  0  0  0  0
 13  9  1  0  0  0  0
 14  2  1  0  0  0  0
 17  2  1  0  0  0  0
 17 13  1  0  0  0  0
 18  8  1  6  0  0  0
 18 25  1  0  0  0  0
 18 19  1  0  0  0  0
 19 25  1  1  0  0  0
 19  5  1  0  0  0  0
 20 15  1  1  0  0  0
 20 16  1  0  0  0  0
 21 13  2  0  0  0  0
 21  7  1  0  0  0  0
 22  6  1  0  0  0  0
 23 30  1  0  0  0  0
 23 28  1  0  0  0  0
 24  2  1  0  0  0  0
 26  8  2  0  0  0  0
 27 21  1  0  0  0  0
 28 15  2  0  0  0  0
 29 35  2  0  0  0  0
 29 30  1  0  0  0  0
 30 31  2  0  0  0  0
 31 34  1  0  0  0  0
 33 34  2  0  0  0  0
 34 32  1  0  0  0  0
 35 33  1  0  0  0  0
 36 37  1  0  0  0  0
M  END
>  <MODEL>
3

>  <REMARK>
 VINA RESULT:      -8.0      3.445      6.757
  Name = 
  2 active torsions:
  status: ('A' for Active; 'I' for Inactive)
    1  A    between atoms: C_4  and  C_37
    2  A    between atoms: C_23  and  C_30
                            x       y       z     vdW  Elec       q    Type
                         _______ _______ _______ _____ _____    ______ ____

>  <TORSDO>
F 2

$$$$
=
 OpenBabel11122411393D

 37 43  0  0  1  0  0  0  0  0999 V2000
  190.6130  176.0660  137.0770 O   0  0  0  0  0  0  0  0  0  0  0  0
  185.9820  177.0340  135.8860 C   0  0  0  0  0  0  0  0  0  0  0  0
  187.5050  178.0450  139.6960 C   0  0  0  0  0  0  0  0  0  0  0  0
  191.5560  175.0560  136.8360 C   0  0  2  0  0  3  0  0  0  0  0  0
  190.9440  177.6150  140.7120 O   0  0  0  0  0  0  0  0  0  0  0  0
  185.6490  178.0770  138.1330 C   0  0  0  0  0  0  0  0  0  0  0  0
  188.6590  177.3820  139.7400 C   0  0  0  0  0  0  0  0  0  0  0  0
  193.2050  176.6080  137.9660 C   0  0  0  0  0  0  0  0  0  0  0  0
  186.8900  177.7820  138.4410 C   0  0  0  0  0  0  0  0  0  0  0  0
  189.5750  177.4050  140.9170 C   0  0  0  0  0  0  0  0  0  0  0  0
  184.8560  178.8440  139.1190 C   0  0  0  0  0  3  0  0  0  0  0  0
  192.7660  175.1800  137.7710 C   0  0  0  0  0  2  0  0  0  0  0  0
  187.7190  176.9140  137.6900 C   0  0  0  0  0  0  0  0  0  0  0  0
  186.5060  178.1490  134.9980 C   0  0  0  0  0  1  0  0  0  0  0  0
  186.6440  177.8370  141.9610 C   0  0  0  0  0  3  0  0  0  0  0  0
  185.3740  179.1660  140.3280 C   0  0  0  0  0  3  0  0  0  0  0  0
  187.1880  176.2390  136.4610 C   0  0  0  0  0  2  0  0  0  0  0  0
  192.6770  177.4600  139.0910 C   0  0  1  0  0  3  0  0  0  0  0  0
  191.7590  176.7120  139.9870 C   0  0  1  0  0  3  0  0  0  0  0  0
  186.7730  178.7560  140.7920 C   0  0  2  0  0  3  0  0  0  0  0  0
  188.7830  176.6350  138.4440 C   0  0  0  0  0  0  0  0  0  0  0  0
  185.1360  177.6070  136.9120 O   0  0  0  0  0  0  0  0  0  0  0  0
  189.1170  177.3460  142.1980 C   0  0  0  0  0  0  0  0  0  0  0  0
  185.1500  176.1010  135.0320 C   0  0  0  0  0  1  0  0  0  0  0  0
  193.1080  176.9330  140.3220 O   0  0  0  0  0  0  0  0  0  0  0  0
  193.9960  177.0980  137.1770 O   0  0  0  0  0  0  0  0  0  0  0  0
  189.7820  175.5840  138.0930 C   0  0  0  0  0  2  0  0  0  0  0  0
  187.6780  177.2480  142.5690 C   0  0  0  0  0  3  0  0  0  0  0  0
  190.2610  178.4090  144.1520 C   0  0  0  0  0  3  0  0  0  0  0  0
  190.0660  177.2810  143.3410 C   0  0  0  0  0  0  0  0  0  0  0  0
  190.7420  176.0960  143.6620 C   0  0  0  0  0  3  0  0  0  0  0  0
  192.3000  174.8650  145.0800 N   0  0  0  0  0  1  0  0  0  0  0  0
  191.7830  177.1770  145.5180 N   0  0  0  0  0  0  0  0  0  0  0  0
  191.6060  176.0630  144.7580 C   0  0  0  0  0  0  0  0  0  0  0  0
  191.1320  178.3380  145.2410 C   0  0  0  0  0  3  0  0  0  0  0  0
  191.3320  176.1300  134.7170 O   0  0  0  0  0  1  0  0  0  0  0  0
  192.0090  175.1110  135.3870 C   0  0  0  0  0  2  0  0  0  0  0  0
  1 27  1  0  0  0  0
  2 17  1  0  0  0  0
  2 22  1  0  0  0  0
  3  7  2  0  0  0  0
  3 20  1  0  0  0  0
  4 37  1  6  0  0  0
  4  1  1  0  0  0  0
  4 12  1  0  0  0  0
  5 10  1  0  0  0  0
  6  9  2  0  0  0  0
  6 11  1  0  0  0  0
  7 10  1  0  0  0  0
  9  3  1  0  0  0  0
 10 23  2  0  0  0  0
 11 16  2  0  0  0  0
 12  8  1  0  0  0  0
 13  9  1  0  0  0  0
 13 21  2  0  0  0  0
 14  2  1  0  0  0  0
 15 28  2  0  0  0  0
 17 13  1  0  0  0  0
 18  8  1  6  0  0  0
 18 19  1  0  0  0  0
 18 25  1  0  0  0  0
 19 25  1  1  0  0  0
 19  5  1  0  0  0  0
 20 16  1  6  0  0  0
 20 15  1  0  0  0  0
 21  7  1  0  0  0  0
 22  6  1  0  0  0  0
 23 28  1  0  0  0  0
 23 30  1  0  0  0  0
 24  2  1  0  0  0  0
 26  8  2  0  0  0  0
 27 21  1  0  0  0  0
 29 35  1  0  0  0  0
 30 31  1  0  0  0  0
 30 29  2  0  0  0  0
 31 34  2  0  0  0  0
 34 32  1  0  0  0  0
 34 33  1  0  0  0  0
 35 33  2  0  0  0  0
 36 37  1  0  0  0  0
M  END
>  <MODEL>
4

>  <REMARK>
 VINA RESULT:      -7.8      4.404      8.067
  Name = 
  2 active torsions:
  status: ('A' for Active; 'I' for Inactive)
    1  A    between atoms: C_4  and  C_37
    2  A    between atoms: C_23  and  C_30
                            x       y       z     vdW  Elec       q    Type
                         _______ _______ _______ _____ _____    ______ ____

>  <TORSDO>
F 2

$$$$
=
 OpenBabel11122411393D

 37 43  0  0  1  0  0  0  0  0999 V2000
  187.2630  177.8920  145.3360 O   0  0  0  0  0  0  0  0  0  0  0  0
  191.3300  176.5050  143.0250 C   0  0  0  0  0  0  0  0  0  0  0  0
  188.1330  178.2950  140.9180 C   0  0  0  0  0  0  0  0  0  0  0  0
  186.4670  177.4360  146.3970 C   0  0  2  0  0  3  0  0  0  0  0  0
  185.1300  179.5860  142.4550 O   0  0  0  0  0  0  0  0  0  0  0  0
  190.3770  177.3740  140.8830 C   0  0  0  0  0  0  0  0  0  0  0  0
  187.1370  178.2570  141.8020 C   0  0  1  0  0  3  0  0  0  0  0  0
  185.2370  179.6340  146.1500 C   0  0  0  0  0  0  0  0  0  0  0  0
  189.2820  177.7140  141.5210 C   0  0  0  0  0  0  0  0  0  0  0  0
  185.7640  178.7650  141.5150 C   0  0  0  0  0  0  0  0  0  0  0  0
  190.4780  177.7220  139.4480 C   0  0  0  0  0  3  0  0  0  0  0  0
  185.1150  178.1600  146.4380 C   0  0  0  0  0  2  0  0  0  0  0  0
  188.9600  177.3040  142.8380 C   0  0  0  0  0  0  0  0  0  0  0  0
  192.0270  177.6910  143.6660 C   0  0  0  0  0  1  0  0  0  0  0  0
  187.0340  177.8140  138.8030 C   0  0  0  0  0  3  0  0  0  0  0  0
  189.4430  178.3080  138.8020 C   0  0  0  0  0  3  0  0  0  0  0  0
  189.8870  176.4010  143.5960 C   0  0  0  0  0  2  0  0  0  0  0  0
  185.1070  180.1890  144.7550 C   0  0  1  0  0  3  0  0  0  0  0  0
  184.7860  179.1400  143.7540 C   0  0  1  0  0  3  0  0  0  0  0  0
  188.0990  178.6280  139.4590 C   0  0  0  0  0  0  0  0  0  0  0  0
  187.6740  177.5960  143.0380 C   0  0  0  0  0  0  0  0  0  0  0  0
  191.3630  176.6600  141.5850 O   0  0  0  0  0  0  0  0  0  0  0  0
  185.1460  178.5580  140.3190 C   0  0  0  0  0  0  0  0  0  0  0  0
  192.0900  175.2500  143.3990 C   0  0  0  0  0  1  0  0  0  0  0  0
  183.7960  179.9860  144.2880 O   0  0  0  0  0  0  0  0  0  0  0  0
  185.4680  180.4010  147.0700 O   0  0  0  0  0  0  0  0  0  0  0  0
  186.9030  177.1250  144.2240 C   0  0  0  0  0  2  0  0  0  0  0  0
  185.7520  177.8120  139.1820 C   0  0  0  0  0  3  0  0  0  0  0  0
  183.4540  179.9330  139.0930 C   0  0  0  0  0  3  0  0  0  0  0  0
  183.7440  179.0030  140.1020 C   0  0  0  0  0  0  0  0  0  0  0  0
  182.6860  178.4760  140.8570 C   0  0  0  0  0  3  0  0  0  0  0  0
  180.3060  178.3710  141.3790 N   0  0  0  0  0  1  0  0  0  0  0  0
  181.1310  179.8090  139.6310 N   0  0  0  0  0  0  0  0  0  0  0  0
  181.3790  178.8970  140.6100 C   0  0  0  0  0  0  0  0  0  0  0  0
  182.1330  180.3280  138.8730 C   0  0  0  0  0  3  0  0  0  0  0  0
  188.3690  176.8670  147.7180 O   0  0  0  0  0  1  0  0  0  0  0  0
  187.2010  177.6290  147.7120 C   0  0  0  0  0  2  0  0  0  0  0  0
  1  4  1  0  0  0  0
  2 24  1  0  0  0  0
  2 17  1  0  0  0  0
  2 14  1  0  0  0  0
  3  9  2  0  0  0  0
  4 12  1  0  0  0  0
  4 37  1  1  0  0  0
  6  9  1  0  0  0  0
  6 22  1  0  0  0  0
  7  3  1  6  0  0  0
  7 21  1  0  0  0  0
  8 12  1  0  0  0  0
  8 26  2  0  0  0  0
  9 13  1  0  0  0  0
 10  7  1  0  0  0  0
 10  5  1  0  0  0  0
 11  6  2  0  0  0  0
 13 21  2  0  0  0  0
 13 17  1  0  0  0  0
 15 28  2  0  0  0  0
 15 20  1  0  0  0  0
 16 11  1  0  0  0  0
 16 20  2  0  0  0  0
 18 25  1  1  0  0  0
 18  8  1  0  0  0  0
 19  5  1  6  0  0  0
 19 25  1  0  0  0  0
 19 18  1  0  0  0  0
 20  3  1  0  0  0  0
 21 27  1  0  0  0  0
 22  2  1  0  0  0  0
 23 10  2  0  0  0  0
 27  1  1  0  0  0  0
 28 23  1  0  0  0  0
 29 30  1  0  0  0  0
 30 23  1  0  0  0  0
 30 31  2  0  0  0  0
 33 34  2  0  0  0  0
 34 31  1  0  0  0  0
 34 32  1  0  0  0  0
 35 29  2  0  0  0  0
 35 33  1  0  0  0  0
 37 36  1  0  0  0  0
M  END
>  <MODEL>
5

>  <REMARK>
 VINA RESULT:      -7.2      2.360      5.616
  Name = 
  2 active torsions:
  status: ('A' for Active; 'I' for Inactive)
    1  A    between atoms: C_4  and  C_37
    2  A    between atoms: C_23  and  C_30
                            x       y       z     vdW  Elec       q    Type
                         _______ _______ _______ _____ _____    ______ ____

>  <TORSDO>
F 2

$$$$
=
 OpenBabel11122411393D

 37 43  0  0  1  0  0  0  0  0999 V2000
  190.7580  177.0170  138.7740 O   0  0  0  0  0  0  0  0  0  0  0  0
  186.4150  177.8590  136.7160 C   0  0  0  0  0  0  0  0  0  0  0  0
  187.0090  178.4470  140.8590 C   0  0  0  0  0  0  0  0  0  0  0  0
  191.8140  176.1060  138.6310 C   0  0  2  0  0  3  0  0  0  0  0  0
  190.1820  178.0900  142.5480 O   0  0  0  0  0  0  0  0  0  0  0  0
  185.5290  178.5750  138.9410 C   0  0  0  0  0  0  0  0  0  0  0  0
  188.1810  177.8530  141.0770 C   0  0  0  0  0  0  0  0  0  0  0  0
  193.0480  177.5900  140.2670 C   0  0  0  0  0  0  0  0  0  0  0  0
  186.6980  178.3160  139.4770 C   0  0  0  0  0  0  0  0  0  0  0  0
  188.8240  177.7740  142.4210 C   0  0  0  0  0  0  0  0  0  0  0  0
  184.4820  179.1570  139.8110 C   0  0  0  0  0  3  0  0  0  0  0  0
  192.7850  176.1770  139.8160 C   0  0  0  0  0  2  0  0  0  0  0  0
  187.7380  177.6050  138.8310 C   0  0  0  0  0  0  0  0  0  0  0  0
  187.0170  179.1110  136.1000 C   0  0  0  0  0  1  0  0  0  0  0  0
  185.7130  177.8910  142.8390 C   0  0  0  0  0  3  0  0  0  0  0  0
  184.7050  179.3470  141.1330 C   0  0  0  0  0  3  0  0  0  0  0  0
  187.5380  177.0680  137.4450 C   0  0  0  0  0  2  0  0  0  0  0  0
  192.2240  178.2530  141.3400 C   0  0  1  0  0  3  0  0  0  0  0  0
  191.2060  177.3410  141.9200 C   0  0  1  0  0  3  0  0  0  0  0  0
  186.0050  178.9620  141.8420 C   0  0  2  0  0  3  0  0  0  0  0  0
  188.6400  177.2930  139.7630 C   0  0  0  0  0  0  0  0  0  0  0  0
  185.3270  178.2410  137.5910 O   0  0  0  0  0  0  0  0  0  0  0  0
  188.1140  177.5200  143.5550 C   0  0  0  0  0  0  0  0  0  0  0  0
  185.8650  176.9990  135.5970 C   0  0  0  0  0  1  0  0  0  0  0  0
  192.4300  177.5950  142.5660 O   0  0  0  0  0  0  0  0  0  0  0  0
  193.9430  178.2250  139.7340 O   0  0  0  0  0  0  0  0  0  0  0  0
  189.7760  176.3580  139.5200 C   0  0  0  0  0  2  0  0  0  0  0  0
  186.6430  177.2900  143.5870 C   0  0  0  0  0  3  0  0  0  0  0  0
  190.0680  176.7610  144.9180 C   0  0  0  0  0  3  0  0  0  0  0  0
  188.8020  177.3610  144.8630 C   0  0  0  0  0  0  0  0  0  0  0  0
  188.2330  177.8440  146.0500 C   0  0  0  0  0  3  0  0  0  0  0  0
  188.3400  178.1820  148.4640 N   0  0  0  0  0  1  0  0  0  0  0  0
  190.1410  177.1040  147.2800 N   0  0  0  0  0  0  0  0  0  0  0  0
  188.9190  177.7010  147.2580 C   0  0  0  0  0  0  0  0  0  0  0  0
  190.7250  176.6380  146.1440 C   0  0  0  0  0  3  0  0  0  0  0  0
  193.8320  175.8200  137.3910 O   0  0  0  0  0  1  0  0  0  0  0  0
  192.5550  176.3780  137.3330 C   0  0  0  0  0  2  0  0  0  0  0  0
  1 27  1  0  0  0  0
  2 17  1  0  0  0  0
  2 22  1  0  0  0  0
  3  7  2  0  0  0  0
  3 20  1  0  0  0  0
  4 37  1  6  0  0  0
  4  1  1  0  0  0  0
  4 12  1  0  0  0  0
  6  9  2  0  0  0  0
  6 11  1  0  0  0  0
  7 10  1  0  0  0  0
  9  3  1  0  0  0  0
 10  5  1  0  0  0  0
 10 23  2  0  0  0  0
 11 16  2  0  0  0  0
 12  8  1  0  0  0  0
 13  9  1  0  0  0  0
 13 21  2  0  0  0  0
 14  2  1  0  0  0  0
 15 28  2  0  0  0  0
 17 13  1  0  0  0  0
 18  8  1  6  0  0  0
 18 19  1  0  0  0  0
 18 25  1  0  0  0  0
 19  5  1  1  0  0  0
 19 25  1  0  0  0  0
 20 16  1  6  0  0  0
 20 15  1  0  0  0  0
 21  7  1  0  0  0  0
 22  6  1  0  0  0  0
 23 28  1  0  0  0  0
 23 30  1  0  0  0  0
 24  2  1  0  0  0  0
 26  8  2  0  0  0  0
 27 21  1  0  0  0  0
 29 35  1  0  0  0  0
 30 29  2  0  0  0  0
 30 31  1  0  0  0  0
 31 34  2  0  0  0  0
 34 33  1  0  0  0  0
 34 32  1  0  0  0  0
 35 33  2  0  0  0  0
 37 36  1  0  0  0  0
M  END
>  <MODEL>
6

>  <REMARK>
 VINA RESULT:      -7.0      3.723      7.346
  Name = 
  2 active torsions:
  status: ('A' for Active; 'I' for Inactive)
    1  A    between atoms: C_4  and  C_37
    2  A    between atoms: C_23  and  C_30
                            x       y       z     vdW  Elec       q    Type
                         _______ _______ _______ _____ _____    ______ ____

>  <TORSDO>
F 2

$$$$
=
 OpenBabel11122411393D

 37 43  0  0  1  0  0  0  0  0999 V2000
  187.4130  176.8750  138.7140 O   0  0  0  0  0  0  0  0  0  0  0  0
  184.5160  173.8520  136.2090 C   0  0  0  0  0  0  0  0  0  0  0  0
  188.7040  173.2840  136.2900 C   0  0  0  0  0  0  0  0  0  0  0  0
  187.4730  178.2440  139.0120 C   0  0  2  0  0  3  0  0  0  0  0  0
  191.0060  175.2660  138.2430 O   0  0  0  0  0  0  0  0  0  0  0  0
  186.5230  172.5120  135.5560 C   0  0  0  0  0  0  0  0  0  0  0  0
  189.1480  174.4290  136.8040 C   0  0  1  0  0  3  0  0  0  0  0  0
  189.3600  177.6140  140.5760 C   0  0  0  0  0  0  0  0  0  0  0  0
  187.2850  173.3540  136.2140 C   0  0  0  0  0  0  0  0  0  0  0  0
  190.5940  174.7270  137.0180 C   0  0  0  0  0  0  0  0  0  0  0  0
  187.1690  171.3330  134.9380 C   0  0  0  0  0  3  0  0  0  0  0  0
  188.8350  178.6340  139.5990 C   0  0  0  0  0  2  0  0  0  0  0  0
  186.8540  174.6090  136.7090 C   0  0  0  0  0  0  0  0  0  0  0  0
  184.0650  173.2780  137.5410 C   0  0  0  0  0  1  0  0  0  0  0  0
  190.3600  172.7420  134.5940 C   0  0  0  0  0  3  0  0  0  0  0  0
  188.5120  171.1690  134.9910 C   0  0  0  0  0  3  0  0  0  0  0  0
  185.4460  175.0700  136.4760 C   0  0  0  0  0  2  0  0  0  0  0  0
  190.2520  176.4790  140.1440 C   0  0  1  0  0  3  0  0  0  0  0  0
  190.5890  176.5400  138.6990 C   0  0  1  0  0  3  0  0  0  0  0  0
  189.4670  172.1700  135.6440 C   0  0  0  0  0  0  0  0  0  0  0  0
  187.9460  175.2910  137.0570 C   0  0  0  0  0  0  0  0  0  0  0  0
  185.1550  172.8070  135.4370 O   0  0  0  0  0  0  0  0  0  0  0  0
  191.5510  174.3840  136.1110 C   0  0  0  0  0  0  0  0  0  0  0  0
  183.2910  174.3340  135.4620 C   0  0  0  0  0  1  0  0  0  0  0  0
  191.4800  176.9930  139.6900 O   0  0  0  0  0  0  0  0  0  0  0  0
  189.0370  177.6960  141.7490 O   0  0  0  0  0  0  0  0  0  0  0  0
  187.9250  176.7370  137.4210 C   0  0  0  0  0  2  0  0  0  0  0  0
  191.2720  173.6920  134.8220 C   0  0  0  0  0  3  0  0  0  0  0  0
  193.8360  173.9230  137.0160 C   0  0  0  0  0  3  0  0  0  0  0  0
  192.9690  174.7770  136.3180 C   0  0  0  0  0  0  0  0  0  0  0  0
  193.4820  175.9700  135.7890 C   0  0  0  0  0  3  0  0  0  0  0  0
  195.3450  177.5080  135.4530 N   0  0  0  0  0  1  0  0  0  0  0  0
  195.6380  175.4510  136.6720 N   0  0  0  0  0  0  0  0  0  0  0  0
  194.8250  176.2950  135.9810 C   0  0  0  0  0  0  0  0  0  0  0  0
  195.1750  174.2810  137.1860 C   0  0  0  0  0  3  0  0  0  0  0  0
  185.3150  179.2190  139.2970 O   0  0  0  0  0  1  0  0  0  0  0  0
  186.3630  178.6080  139.9830 C   0  0  0  0  0  2  0  0  0  0  0  0
  1  4  1  0  0  0  0
  2 17  1  0  0  0  0
  2 14  1  0  0  0  0
  4 12  1  0  0  0  0
  4 37  1  1  0  0  0
  6  9  1  0  0  0  0
  7  3  1  6  0  0  0
  7 10  1  0  0  0  0
  7 21  1  0  0  0  0
  8 26  2  0  0  0  0
  9  3  2  0  0  0  0
  9 13  1  0  0  0  0
 10  5  1  0  0  0  0
 11 16  1  0  0  0  0
 11  6  2  0  0  0  0
 12  8  1  0  0  0  0
 13 21  2  0  0  0  0
 15 28  2  0  0  0  0
 15 20  1  0  0  0  0
 16 20  2  0  0  0  0
 17 13  1  0  0  0  0
 18 25  1  1  0  0  0
 18  8  1  0  0  0  0
 19  5  1  1  0  0  0
 19 25  1  0  0  0  0
 19 18  1  0  0  0  0
 20  3  1  0  0  0  0
 21 27  1  0  0  0  0
 22  6  1  0  0  0  0
 22  2  1  0  0  0  0
 23 30  1  0  0  0  0
 23 10  2  0  0  0  0
 24  2  1  0  0  0  0
 27  1  1  0  0  0  0
 28 23  1  0  0  0  0
 29 35  1  0  0  0  0
 30 29  2  0  0  0  0
 31 34  2  0  0  0  0
 31 30  1  0  0  0  0
 32 34  1  0  0  0  0
 33 35  2  0  0  0  0
 34 33  1  0  0  0  0
 36 37  1  0  0  0  0
M  END
>  <MODEL>
7

>  <REMARK>
 VINA RESULT:      -7.0      5.925     10.644
  Name = 
  2 active torsions:
  status: ('A' for Active; 'I' for Inactive)
    1  A    between atoms: C_4  and  C_37
    2  A    between atoms: C_23  and  C_30
                            x       y       z     vdW  Elec       q    Type
                         _______ _______ _______ _____ _____    ______ ____

>  <TORSDO>
F 2

$$$$
