=
 OpenBabel11122410463D

 32 37  0  0  1  0  0  0  0  0999 V2000
  190.1160  177.6610  137.1130 C   0  0  0  0  0  3  0  0  0  0  0  0
  187.8900  176.9960  142.1050 C   0  0  0  0  0  0  0  0  0  0  0  0
  191.8740  176.4690  145.0320 C   0  0  0  0  0  3  0  0  0  0  0  0
  191.2240  177.1370  146.0710 C   0  0  0  0  0  3  0  0  0  0  0  0
  185.7910  177.8930  143.1900 C   0  0  0  0  0  0  0  0  0  0  0  0
  185.1630  178.4230  144.3100 C   0  0  0  0  0  0  0  0  0  0  0  0
  188.7930  177.5570  139.8830 N   0  0  2  0  0  0  0  0  0  0  0  0
  189.8730  175.8080  141.2870 C   0  0  0  0  0  2  0  0  0  0  0  0
  184.8880  179.1770  146.4610 C   0  0  1  0  0  3  0  0  0  0  0  0
  190.6610  176.1610  139.0050 C   0  0  0  0  0  2  0  0  0  0  0  0
  191.1990  176.2170  143.8350 C   0  0  0  0  0  3  0  0  0  0  0  0
  189.1700  176.3710  142.4310 N   0  0  0  0  0  0  0  0  0  0  0  0
  189.8690  176.6340  143.6640 C   0  0  1  0  0  3  0  0  0  0  0  0
  187.8120  177.7170  144.5560 C   0  0  0  0  0  0  0  0  0  0  0  0
  183.6670  179.2850  145.6480 N   0  0  0  0  0  0  0  0  0  0  0  0
  189.1300  178.4050  137.6220 C   0  0  0  0  0  3  0  0  0  0  0  0
  190.0740  176.8880  140.2170 C   0  0  1  0  0  3  0  0  0  0  0  0
  183.8290  178.8630  144.4540 N   0  0  0  0  0  0  0  0  0  0  0  0
  189.0760  178.7440  139.0800 C   0  0  0  0  0  2  0  0  0  0  0  0
  191.2250  177.1210  137.9640 C   0  0  1  0  0  3  0  0  0  0  0  0
  189.9000  177.5500  145.9130 C   0  0  0  0  0  3  0  0  0  0  0  0
  189.2160  177.3040  144.7130 C   0  0  0  0  0  0  0  0  0  0  0  0
  187.1340  178.2490  145.6210 N   0  0  0  0  0  0  0  0  0  0  0  0
  188.1600  178.0990  141.0910 C   0  0  0  0  0  2  0  0  0  0  0  0
  185.0940  177.7270  141.9990 O   0  0  0  0  0  1  0  0  0  0  0  0
  184.6680  178.2370  147.5470 N   0  0  0  0  0  1  0  0  0  0  0  0
  187.1520  177.5320  143.3080 C   0  0  0  0  0  0  0  0  0  0  0  0
  185.8300  178.5920  145.4770 C   0  0  0  0  0  0  0  0  0  0  0  0
  192.1790  176.4220  137.1160 N   0  0  0  0  0  2  0  0  0  0  0  0
  193.4970  176.0860  137.5540 C   0  0  0  0  0  0  0  0  0  0  0  0
  193.8950  176.4110  138.7040 O   0  0  0  0  0  0  0  0  0  0  0  0
  194.4090  175.3520  136.6410 C   0  0  0  0  0  1  0  0  0  0  0  0
  1 16  2  0  0  0  0
  1 20  1  0  0  0  0
  2 12  1  0  0  0  0
  2 27  2  0  0  0  0
  3  4  1  0  0  0  0
  5 27  1  0  0  0  0
  5  6  2  0  0  0  0
  6 18  1  0  0  0  0
  6 28  1  0  0  0  0
  7 19  1  6  0  0  0
  7 17  1  0  0  0  0
  7 24  1  0  0  0  0
  8 12  1  0  0  0  0
  9 26  1  1  0  0  0
 11  3  2  0  0  0  0
 12 13  1  0  0  0  0
 13 11  1  1  0  0  0
 13 22  1  0  0  0  0
 14 22  2  0  0  0  0
 14 23  1  0  0  0  0
 15  9  1  0  0  0  0
 16 19  1  0  0  0  0
 17 10  1  6  0  0  0
 17  8  1  0  0  0  0
 18 15  2  0  0  0  0
 20 29  1  6  0  0  0
 20 10  1  0  0  0  0
 21  4  2  0  0  0  0
 22 21  1  0  0  0  0
 24  2  1  0  0  0  0
 25  5  1  0  0  0  0
 27 14  1  0  0  0  0
 28 23  2  0  0  0  0
 28  9  1  0  0  0  0
 29 30  1  0  0  0  0
 30 31  2  0  0  0  0
 32 30  1  0  0  0  0
M  END
>  <MODEL>
1

>  <REMARK>
 VINA RESULT:      -8.7      0.000      0.000
  Name = 
  1 active torsions:
  status: ('A' for Active; 'I' for Inactive)
    1  A    between atoms: C_20  and  N_29
                            x       y       z     vdW  Elec       q    Type
                         _______ _______ _______ _____ _____    ______ ____

>  <TORSDO>
F 1

$$$$
=
 OpenBabel11122410463D

 32 37  0  0  1  0  0  0  0  0999 V2000
  190.2550  176.9880  143.8160 C   0  0  0  0  0  3  0  0  0  0  0  0
  185.3240  178.8600  142.2340 C   0  0  0  0  0  0  0  0  0  0  0  0
  185.2480  177.8100  137.3750 C   0  0  0  0  0  3  0  0  0  0  0  0
  183.8770  177.5530  137.4310 C   0  0  0  0  0  3  0  0  0  0  0  0
  183.0860  179.0230  143.3980 C   0  0  0  0  0  0  0  0  0  0  0  0
  181.7050  178.8850  143.3470 C   0  0  0  0  0  0  0  0  0  0  0  0
  187.3910  177.8260  143.0840 N   0  0  2  0  0  0  0  0  0  0  0  0
  187.3770  179.0270  140.9040 C   0  0  0  0  0  2  0  0  0  0  0  0
  179.6210  178.4610  142.4830 C   0  0  1  0  0  3  0  0  0  0  0  0
  189.4960  178.2260  141.8110 C   0  0  0  0  0  2  0  0  0  0  0  0
  185.9220  178.2500  138.5160 C   0  0  0  0  0  3  0  0  0  0  0  0
  185.9270  178.8940  140.9040 N   0  0  0  0  0  0  0  0  0  0  0  0
  185.2340  178.4360  139.7260 C   0  0  0  0  0  0  0  0  0  0  0  0
  183.1150  178.3990  141.0340 C   0  0  0  0  0  0  0  0  0  0  0  0
  179.5940  178.8360  143.9050 N   0  0  0  0  0  0  0  0  0  0  0  0
  189.1060  176.7740  144.4620 C   0  0  0  0  0  3  0  0  0  0  0  0
  188.0020  177.9000  141.7340 C   0  0  1  0  0  3  0  0  0  0  0  0
  180.7560  179.0710  144.3760 N   0  0  0  0  0  0  0  0  0  0  0  0
  187.8150  176.5840  143.7270 C   0  0  0  0  0  2  0  0  0  0  0  0
  190.3250  177.0520  142.3200 C   0  0  1  0  0  3  0  0  0  0  0  0
  183.1820  177.7400  138.6270 C   0  0  0  0  0  2  0  0  0  0  0  0
  183.8520  178.1790  139.7780 C   0  0  0  0  0  0  0  0  0  0  0  0
  181.7500  178.2790  141.0530 N   0  0  0  0  0  0  0  0  0  0  0  0
  185.9340  177.6860  142.9870 C   0  0  0  0  0  2  0  0  0  0  0  0
  183.7180  179.3950  144.5790 O   0  0  0  0  0  1  0  0  0  0  0  0
  178.9310  179.4710  141.6990 N   0  0  0  0  0  1  0  0  0  0  0  0
  183.8170  178.7700  142.2160 C   0  0  0  0  0  0  0  0  0  0  0  0
  181.0760  178.5210  142.2040 C   0  0  0  0  0  0  0  0  0  0  0  0
  191.7130  177.2190  141.9160 N   0  0  0  0  0  2  0  0  0  0  0  0
  192.1190  177.2300  140.5460 C   0  0  0  0  0  0  0  0  0  0  0  0
  191.2760  177.0700  139.6230 O   0  0  0  0  0  0  0  0  0  0  0  0
  193.5520  177.4270  140.2070 C   0  0  0  0  0  1  0  0  0  0  0  0
  1 16  2  0  0  0  0
  2 24  1  0  0  0  0
  3  4  2  0  0  0  0
  3 11  1  0  0  0  0
  4 21  1  0  0  0  0
  5 25  1  0  0  0  0
  6  5  2  0  0  0  0
  6 18  1  0  0  0  0
  7 24  1  6  0  0  0
  7 19  1  0  0  0  0
  8 12  1  0  0  0  0
  9 26  1  6  0  0  0
  9 15  1  0  0  0  0
 10 20  1  0  0  0  0
 11 13  2  0  0  0  0
 12  2  1  0  0  0  0
 13 22  1  0  0  0  0
 13 12  1  0  0  0  0
 14 23  1  0  0  0  0
 14 27  1  0  0  0  0
 15 18  2  0  0  0  0
 17  8  1  6  0  0  0
 17 10  1  0  0  0  0
 17  7  1  0  0  0  0
 19 16  1  0  0  0  0
 20 29  1  1  0  0  0
 20  1  1  0  0  0  0
 21 22  1  0  0  0  0
 22 14  2  0  0  0  0
 23 28  2  0  0  0  0
 27  2  2  0  0  0  0
 27  5  1  0  0  0  0
 28  9  1  0  0  0  0
 28  6  1  0  0  0  0
 30 29  1  0  0  0  0
 31 30  2  0  0  0  0
 32 30  1  0  0  0  0
M  END
>  <MODEL>
2

>  <REMARK>
 VINA RESULT:      -8.3      3.275      5.824
  Name = 
  1 active torsions:
  status: ('A' for Active; 'I' for Inactive)
    1  A    between atoms: C_20  and  N_29
                            x       y       z     vdW  Elec       q    Type
                         _______ _______ _______ _____ _____    ______ ____

>  <TORSDO>
F 1

$$$$
=
 OpenBabel11122410463D

 32 37  0  0  1  0  0  0  0  0999 V2000
  181.3710  178.8510  140.6870 C   0  0  0  0  0  3  0  0  0  0  0  0
  186.8650  178.6280  140.3980 C   0  0  0  0  0  0  0  0  0  0  0  0
  188.1530  177.1460  144.9670 C   0  0  0  0  0  3  0  0  0  0  0  0
  189.2230  176.4140  144.4490 C   0  0  0  0  0  3  0  0  0  0  0  0
  188.4730  178.0770  138.5280 C   0  0  0  0  0  0  0  0  0  0  0  0
  189.6320  177.4410  138.1040 C   0  0  0  0  0  0  0  0  0  0  0  0
  184.4050  178.5090  140.3530 N   0  0  2  0  0  0  0  0  0  0  0  0
  185.5960  179.4000  142.3500 C   0  0  0  0  0  2  0  0  0  0  0  0
  191.5620  176.2010  138.2090 C   0  0  1  0  0  3  0  0  0  0  0  0
  183.1610  179.5210  142.2600 C   0  0  0  0  0  2  0  0  0  0  0  0
  187.3560  177.9130  144.1140 C   0  0  0  0  0  3  0  0  0  0  0  0
  186.7990  178.7480  141.8540 N   0  0  0  0  0  0  0  0  0  0  0  0
  187.6180  177.9540  142.7340 C   0  0  1  0  0  3  0  0  0  0  0  0
  189.0010  177.2760  140.7770 C   0  0  0  0  0  0  0  0  0  0  0  0
  191.2530  176.6800  136.8530 N   0  0  0  0  0  0  0  0  0  0  0  0
  182.0680  178.2970  139.6910 C   0  0  0  0  0  3  0  0  0  0  0  0
  184.3540  178.6660  141.8270 C   0  0  1  0  0  3  0  0  0  0  0  0
  190.1790  177.3680  136.8040 N   0  0  0  0  0  0  0  0  0  0  0  0
  183.3570  177.5780  139.9420 C   0  0  0  0  0  2  0  0  0  0  0  0
  181.8320  178.7880  142.1110 C   0  0  1  0  0  3  0  0  0  0  0  0
  189.4960  176.4510  143.0810 C   0  0  0  0  0  3  0  0  0  0  0  0
  188.6980  177.2170  142.2170 C   0  0  0  0  0  0  0  0  0  0  0  0
  190.1290  176.6680  140.2920 N   0  0  0  0  0  0  0  0  0  0  0  0
  185.6450  177.8380  139.9460 C   0  0  0  0  0  2  0  0  0  0  0  0
  187.6730  178.7700  137.6250 O   0  0  0  0  0  1  0  0  0  0  0  0
  192.8000  176.8070  138.6690 N   0  0  0  0  0  1  0  0  0  0  0  0
  188.1400  177.9930  139.8980 C   0  0  0  0  0  0  0  0  0  0  0  0
  190.4190  176.7610  138.9710 C   0  0  0  0  0  0  0  0  0  0  0  0
  180.8290  179.4090  142.9640 N   0  0  0  0  0  2  0  0  0  0  0  0
  179.9170  178.6480  143.7580 C   0  0  0  0  0  0  0  0  0  0  0  0
  179.9340  177.3890  143.7290 O   0  0  0  0  0  0  0  0  0  0  0  0
  178.9340  179.3500  144.6220 C   0  0  0  0  0  1  0  0  0  0  0  0
  1 20  1  0  0  0  0
  2 12  1  0  0  0  0
  4  3  1  0  0  0  0
  5 27  1  0  0  0  0
  6  5  2  0  0  0  0
  6 28  1  0  0  0  0
  7 19  1  1  0  0  0
  7 17  1  0  0  0  0
  9 26  1  1  0  0  0
  9 28  1  0  0  0  0
 11  3  2  0  0  0  0
 12  8  1  0  0  0  0
 12 13  1  0  0  0  0
 13 11  1  1  0  0  0
 14 22  2  0  0  0  0
 15  9  1  0  0  0  0
 16 19  1  0  0  0  0
 16  1  2  0  0  0  0
 17 10  1  6  0  0  0
 17  8  1  0  0  0  0
 18 15  2  0  0  0  0
 18  6  1  0  0  0  0
 20 10  1  0  0  0  0
 20 29  1  1  0  0  0
 21  4  2  0  0  0  0
 22 13  1  0  0  0  0
 22 21  1  0  0  0  0
 23 14  1  0  0  0  0
 24  7  1  0  0  0  0
 24  2  1  0  0  0  0
 25  5  1  0  0  0  0
 27  2  2  0  0  0  0
 27 14  1  0  0  0  0
 28 23  2  0  0  0  0
 29 30  1  0  0  0  0
 30 32  1  0  0  0  0
 31 30  2  0  0  0  0
M  END
>  <MODEL>
3

>  <REMARK>
 VINA RESULT:      -8.0      3.044      8.384
  Name = 
  1 active torsions:
  status: ('A' for Active; 'I' for Inactive)
    1  A    between atoms: C_20  and  N_29
                            x       y       z     vdW  Elec       q    Type
                         _______ _______ _______ _____ _____    ______ ____

>  <TORSDO>
F 1

$$$$
=
 OpenBabel11122410463D

 32 37  0  0  1  0  0  0  0  0999 V2000
  189.3610  177.0720  146.1780 C   0  0  0  0  0  3  0  0  0  0  0  0
  189.1600  178.0610  140.7650 C   0  0  0  0  0  0  0  0  0  0  0  0
  193.5120  176.2800  139.1520 C   0  0  0  0  0  3  0  0  0  0  0  0
  192.9230  175.8690  137.9550 C   0  0  0  0  0  3  0  0  0  0  0  0
  187.2660  178.1250  139.0930 C   0  0  0  0  0  0  0  0  0  0  0  0
  186.7840  177.8130  137.8280 C   0  0  0  0  0  0  0  0  0  0  0  0
  189.0470  177.4300  143.1430 N   0  0  2  0  0  0  0  0  0  0  0  0
  191.1700  178.2740  142.1530 C   0  0  0  0  0  2  0  0  0  0  0  0
  186.7610  177.0090  135.6780 C   0  0  1  0  0  3  0  0  0  0  0  0
  191.0480  177.8860  144.5590 C   0  0  0  0  0  2  0  0  0  0  0  0
  192.7540  176.9690  140.1010 C   0  0  0  0  0  3  0  0  0  0  0  0
  190.6160  177.9660  140.8430 N   0  0  0  0  0  0  0  0  0  0  0  0
  191.3990  177.2510  139.8650 C   0  0  0  0  0  0  0  0  0  0  0  0
  189.3970  177.1560  138.3870 C   0  0  0  0  0  0  0  0  0  0  0  0
  185.4760  177.5910  136.0930 N   0  0  0  0  0  0  0  0  0  0  0  0
  188.3150  176.8190  145.3870 C   0  0  0  0  0  3  0  0  0  0  0  0
  190.5290  177.3720  143.2140 C   0  0  1  0  0  3  0  0  0  0  0  0
  185.4980  178.0360  137.2890 N   0  0  0  0  0  0  0  0  0  0  0  0
  188.4930  176.3630  143.9720 C   0  0  0  0  0  2  0  0  0  0  0  0
  190.7740  176.9140  145.7020 C   0  0  1  0  0  3  0  0  0  0  0  0
  191.5780  176.1490  137.7080 C   0  0  0  0  0  2  0  0  0  0  0  0
  190.8090  176.8380  138.6580 C   0  0  0  0  0  0  0  0  0  0  0  0
  188.8580  176.8730  137.1600 N   0  0  0  0  0  0  0  0  0  0  0  0
  188.5800  177.1000  141.7930 C   0  0  0  0  0  2  0  0  0  0  0  0
  186.4480  178.7480  140.0290 O   0  0  0  0  0  1  0  0  0  0  0  0
  187.3240  177.7950  134.5940 N   0  0  0  0  0  1  0  0  0  0  0  0
  188.6050  177.7860  139.3890 C   0  0  0  0  0  0  0  0  0  0  0  0
  187.5680  177.2040  136.9070 C   0  0  0  0  0  0  0  0  0  0  0  0
  191.6820  177.1860  146.8060 N   0  0  0  0  0  2  0  0  0  0  0  0
  192.1240  176.1690  147.7070 C   0  0  0  0  0  0  0  0  0  0  0  0
  191.7170  174.9830  147.5880 O   0  0  0  0  0  0  0  0  0  0  0  0
  193.0680  176.5160  148.7990 C   0  0  0  0  0  1  0  0  0  0  0  0
  2 12  1  0  0  0  0
  2 24  1  0  0  0  0
  3 11  1  0  0  0  0
  4  3  2  0  0  0  0
  5 27  1  0  0  0  0
  5 25  1  0  0  0  0
  6  5  2  0  0  0  0
  7 24  1  6  0  0  0
  7 17  1  0  0  0  0
  7 19  1  0  0  0  0
  9 26  1  6  0  0  0
  9 15  1  0  0  0  0
  9 28  1  0  0  0  0
 10 20  1  0  0  0  0
 12  8  1  0  0  0  0
 13 11  2  0  0  0  0
 13 12  1  0  0  0  0
 14 22  2  0  0  0  0
 14 27  1  0  0  0  0
 15 18  2  0  0  0  0
 16  1  2  0  0  0  0
 17  8  1  6  0  0  0
 17 10  1  0  0  0  0
 18  6  1  0  0  0  0
 19 16  1  0  0  0  0
 20  1  1  0  0  0  0
 20 29  1  1  0  0  0
 21  4  1  0  0  0  0
 21 22  1  0  0  0  0
 22 13  1  0  0  0  0
 23 14  1  0  0  0  0
 27  2  2  0  0  0  0
 28 23  2  0  0  0  0
 28  6  1  0  0  0  0
 29 30  1  0  0  0  0
 30 32  1  0  0  0  0
 31 30  2  0  0  0  0
M  END
>  <MODEL>
4

>  <REMARK>
 VINA RESULT:      -8.0      3.011      7.370
  Name = 
  1 active torsions:
  status: ('A' for Active; 'I' for Inactive)
    1  A    between atoms: C_20  and  N_29
                            x       y       z     vdW  Elec       q    Type
                         _______ _______ _______ _____ _____    ______ ____

>  <TORSDO>
F 1

$$$$
=
 OpenBabel11122410463D

 32 37  0  0  1  0  0  0  0  0999 V2000
  181.9780  178.5590  138.4480 C   0  0  0  0  0  3  0  0  0  0  0  0
  187.4310  178.3300  139.1760 C   0  0  0  0  0  0  0  0  0  0  0  0
  187.8580  177.2830  144.0180 C   0  0  0  0  0  3  0  0  0  0  0  0
  188.9930  176.5100  143.7710 C   0  0  0  0  0  3  0  0  0  0  0  0
  189.3410  177.6140  137.6840 C   0  0  0  0  0  0  0  0  0  0  0  0
  190.5500  176.9450  137.5360 C   0  0  0  0  0  0  0  0  0  0  0  0
  185.0180  178.1980  138.6990 N   0  0  2  0  0  0  0  0  0  0  0  0
  185.8420  179.2750  140.7870 C   0  0  0  0  0  2  0  0  0  0  0  0
  192.4120  175.7280  138.1010 C   0  0  1  0  0  3  0  0  0  0  0  0
  183.4640  179.3780  140.2500 C   0  0  0  0  0  2  0  0  0  0  0  0
  187.2370  177.9640  142.9690 C   0  0  0  0  0  3  0  0  0  0  0  0
  187.1060  178.5840  140.5780 N   0  0  0  0  0  0  0  0  0  0  0  0
  187.7430  177.8780  141.6610 C   0  0  1  0  0  3  0  0  0  0  0  0
  189.4460  177.0270  140.0560 C   0  0  0  0  0  0  0  0  0  0  0  0
  192.3590  176.0770  136.6730 N   0  0  0  0  0  0  0  0  0  0  0  0
  182.8350  177.9170  137.6490 C   0  0  0  0  0  3  0  0  0  0  0  0
  184.7050  178.4920  140.1190 C   0  0  1  0  0  3  0  0  0  0  0  0
  191.3210  176.7550  136.3680 N   0  0  0  0  0  0  0  0  0  0  0  0
  184.0490  177.2290  138.1930 C   0  0  0  0  0  2  0  0  0  0  0  0
  182.1750  178.6290  139.9320 C   0  0  1  0  0  3  0  0  0  0  0  0
  189.5080  176.4210  142.4770 C   0  0  0  0  0  3  0  0  0  0  0  0
  188.8890  177.1000  141.4170 C   0  0  0  0  0  0  0  0  0  0  0  0
  190.6350  176.3810  139.8400 N   0  0  0  0  0  0  0  0  0  0  0  0
  186.3020  177.4970  138.5850 C   0  0  0  0  0  2  0  0  0  0  0  0
  188.7260  178.2170  136.5930 O   0  0  0  0  0  1  0  0  0  0  0  0
  193.5560  176.3780  138.7190 N   0  0  0  0  0  1  0  0  0  0  0  0
  188.7660  177.6560  138.9740 C   0  0  0  0  0  0  0  0  0  0  0  0
  191.1590  176.3510  138.5900 C   0  0  0  0  0  0  0  0  0  0  0  0
  181.0430  179.3230  140.5290 N   0  0  0  0  0  2  0  0  0  0  0  0
  180.7750  179.2910  141.9320 C   0  0  0  0  0  0  0  0  0  0  0  0
  181.5090  178.6280  142.7130 O   0  0  0  0  0  0  0  0  0  0  0  0
  179.6130  180.0410  142.4750 C   0  0  0  0  0  1  0  0  0  0  0  0
  1 20  1  0  0  0  0
  2 12  1  0  0  0  0
  4  3  1  0  0  0  0
  5 27  1  0  0  0  0
  6  5  2  0  0  0  0
  6 28  1  0  0  0  0
  7 19  1  1  0  0  0
  7 17  1  0  0  0  0
  9 28  1  0  0  0  0
  9 26  1  1  0  0  0
 11  3  2  0  0  0  0
 12  8  1  0  0  0  0
 12 13  1  0  0  0  0
 13 11  1  1  0  0  0
 14 22  2  0  0  0  0
 15  9  1  0  0  0  0
 16 19  1  0  0  0  0
 16  1  2  0  0  0  0
 17 10  1  6  0  0  0
 17  8  1  0  0  0  0
 18 15  2  0  0  0  0
 18  6  1  0  0  0  0
 20 10  1  0  0  0  0
 20 29  1  1  0  0  0
 21  4  2  0  0  0  0
 22 13  1  0  0  0  0
 22 21  1  0  0  0  0
 23 14  1  0  0  0  0
 24  7  1  0  0  0  0
 24  2  1  0  0  0  0
 25  5  1  0  0  0  0
 27  2  2  0  0  0  0
 27 14  1  0  0  0  0
 28 23  2  0  0  0  0
 29 30  1  0  0  0  0
 30 32  1  0  0  0  0
 30 31  2  0  0  0  0
M  END
>  <MODEL>
5

>  <REMARK>
 VINA RESULT:      -7.7      3.307      8.280
  Name = 
  1 active torsions:
  status: ('A' for Active; 'I' for Inactive)
    1  A    between atoms: C_20  and  N_29
                            x       y       z     vdW  Elec       q    Type
                         _______ _______ _______ _____ _____    ______ ____

>  <TORSDO>
F 1

$$$$
=
 OpenBabel11122410463D

 32 37  0  0  1  0  0  0  0  0999 V2000
  188.8140  176.5000  137.0510 C   0  0  0  0  0  3  0  0  0  0  0  0
  188.9960  178.1170  142.3110 C   0  0  0  0  0  0  0  0  0  0  0  0
  184.1880  178.4700  143.5280 C   0  0  0  0  0  3  0  0  0  0  0  0
  184.4650  178.0410  144.8260 C   0  0  0  0  0  3  0  0  0  0  0  0
  190.6170  177.6700  144.1980 C   0  0  0  0  0  0  0  0  0  0  0  0
  190.8320  177.3830  145.5400 C   0  0  0  0  0  0  0  0  0  0  0  0
  189.0180  177.1490  140.0470 N   0  0  2  0  0  0  0  0  0  0  0  0
  187.3600  178.9020  140.6620 C   0  0  0  0  0  2  0  0  0  0  0  0
  190.3610  176.9640  147.7470 C   0  0  1  0  0  3  0  0  0  0  0  0
  187.4940  178.1470  138.3450 C   0  0  0  0  0  2  0  0  0  0  0  0
  185.2310  178.6520  142.6170 C   0  0  0  0  0  3  0  0  0  0  0  0
  187.6390  178.5970  142.0570 N   0  0  0  0  0  0  0  0  0  0  0  0
  186.5610  178.4050  142.9950 C   0  0  1  0  0  3  0  0  0  0  0  0
  188.2290  177.7430  144.7210 C   0  0  0  0  0  0  0  0  0  0  0  0
  191.7990  176.9200  147.4430 N   0  0  0  0  0  0  0  0  0  0  0  0
  189.6020  175.9730  137.9920 C   0  0  0  0  0  3  0  0  0  0  0  0
  187.6530  177.6730  139.7920 C   0  0  1  0  0  3  0  0  0  0  0  0
  192.0520  177.1550  146.2140 N   0  0  0  0  0  0  0  0  0  0  0  0
  189.1460  175.8400  139.4130 C   0  0  0  0  0  2  0  0  0  0  0  0
  187.4300  176.9890  137.3550 C   0  0  1  0  0  3  0  0  0  0  0  0
  185.7830  177.7970  145.2140 C   0  0  0  0  0  3  0  0  0  0  0  0
  186.8360  177.9760  144.3050 C   0  0  0  0  0  0  0  0  0  0  0  0
  188.5110  177.4540  146.0300 N   0  0  0  0  0  0  0  0  0  0  0  0
  189.2060  176.8640  141.4730 C   0  0  0  0  0  2  0  0  0  0  0  0
  191.6860  177.7720  143.3150 O   0  0  0  0  0  1  0  0  0  0  0  0
  190.0900  178.0600  148.6620 N   0  0  0  0  0  1  0  0  0  0  0  0
  189.2830  177.8510  143.7690 C   0  0  0  0  0  0  0  0  0  0  0  0
  189.8000  177.2790  146.4110 C   0  0  0  0  0  0  0  0  0  0  0  0
  186.8000  177.4320  136.1200 N   0  0  0  0  0  2  0  0  0  0  0  0
  185.4030  177.2720  135.8700 C   0  0  0  0  0  0  0  0  0  0  0  0
  184.6570  176.7090  136.7150 O   0  0  0  0  0  0  0  0  0  0  0  0
  184.8240  177.7680  134.5950 C   0  0  0  0  0  1  0  0  0  0  0  0
  1 20  1  0  0  0  0
  1 16  2  0  0  0  0
  2 27  2  0  0  0  0
  3  4  1  0  0  0  0
  4 21  2  0  0  0  0
  5  6  2  0  0  0  0
  6 18  1  0  0  0  0
  6 28  1  0  0  0  0
  7 19  1  6  0  0  0
  7 24  1  0  0  0  0
  8 12  1  0  0  0  0
  9 26  1  1  0  0  0
 11  3  2  0  0  0  0
 12  2  1  0  0  0  0
 12 13  1  0  0  0  0
 13 11  1  1  0  0  0
 13 22  1  0  0  0  0
 14 23  1  0  0  0  0
 15  9  1  0  0  0  0
 16 19  1  0  0  0  0
 17 10  1  6  0  0  0
 17  7  1  0  0  0  0
 17  8  1  0  0  0  0
 18 15  2  0  0  0  0
 20 29  1  6  0  0  0
 20 10  1  0  0  0  0
 22 14  2  0  0  0  0
 22 21  1  0  0  0  0
 23 28  2  0  0  0  0
 24  2  1  0  0  0  0
 25  5  1  0  0  0  0
 27  5  1  0  0  0  0
 27 14  1  0  0  0  0
 28  9  1  0  0  0  0
 30 29  1  0  0  0  0
 30 31  2  0  0  0  0
 32 30  1  0  0  0  0
M  END
>  <MODEL>
6

>  <REMARK>
 VINA RESULT:      -7.5      2.723      5.350
  Name = 
  1 active torsions:
  status: ('A' for Active; 'I' for Inactive)
    1  A    between atoms: C_20  and  N_29
                            x       y       z     vdW  Elec       q    Type
                         _______ _______ _______ _____ _____    ______ ____

>  <TORSDO>
F 1

$$$$
=
 OpenBabel11122410463D

 32 37  0  0  1  0  0  0  0  0999 V2000
  182.5330  177.2990  135.8670 C   0  0  0  0  0  3  0  0  0  0  0  0
  186.4150  178.5990  139.5480 C   0  0  0  0  0  0  0  0  0  0  0  0
  183.8850  178.7280  143.8260 C   0  0  0  0  0  3  0  0  0  0  0  0
  184.9900  178.2300  144.5180 C   0  0  0  0  0  3  0  0  0  0  0  0
  188.8860  178.0890  139.7020 C   0  0  0  0  0  0  0  0  0  0  0  0
  189.9800  177.7280  140.4770 C   0  0  0  0  0  0  0  0  0  0  0  0
  184.8090  177.7710  137.8750 N   0  0  2  0  0  0  0  0  0  0  0  0
  184.1090  179.4320  139.5930 C   0  0  0  0  0  2  0  0  0  0  0  0
  191.2000  177.1620  142.3380 C   0  0  1  0  0  3  0  0  0  0  0  0
  182.5500  178.8220  137.8180 C   0  0  0  0  0  2  0  0  0  0  0  0
  183.9820  178.9980  142.4590 C   0  0  0  0  0  3  0  0  0  0  0  0
  185.2870  179.0510  140.3590 N   0  0  0  0  0  0  0  0  0  0  0  0
  185.1840  178.7690  141.7690 C   0  0  1  0  0  3  0  0  0  0  0  0
  187.5700  178.0560  141.7630 C   0  0  0  0  0  0  0  0  0  0  0  0
  192.0000  177.1800  141.1040 N   0  0  0  0  0  0  0  0  0  0  0  0
  183.7440  176.7400  135.9390 C   0  0  0  0  0  3  0  0  0  0  0  0
  183.6750  178.2670  138.6940 C   0  0  1  0  0  3  0  0  0  0  0  0
  191.3140  177.4970  140.0750 N   0  0  0  0  0  0  0  0  0  0  0  0
  184.4230  176.5070  137.2530 C   0  0  0  0  0  2  0  0  0  0  0  0
  181.7800  177.7250  137.0910 C   0  0  1  0  0  3  0  0  0  0  0  0
  186.1910  178.0050  143.8430 C   0  0  0  0  0  3  0  0  0  0  0  0
  186.2960  178.2700  142.4700 C   0  0  0  0  0  0  0  0  0  0  0  0
  188.6890  177.6970  142.4670 N   0  0  0  0  0  0  0  0  0  0  0  0
  185.9440  177.4060  138.7290 C   0  0  0  0  0  2  0  0  0  0  0  0
  189.0190  178.2770  138.3310 O   0  0  0  0  0  1  0  0  0  0  0  0
  191.6790  178.1910  143.2440 N   0  0  0  0  0  1  0  0  0  0  0  0
  187.6440  178.2540  140.3550 C   0  0  0  0  0  0  0  0  0  0  0  0
  189.8650  177.5390  141.8130 C   0  0  0  0  0  0  0  0  0  0  0  0
  180.4710  178.2220  136.6950 N   0  0  0  0  0  2  0  0  0  0  0  0
  180.3000  179.2240  135.6910 C   0  0  0  0  0  0  0  0  0  0  0  0
  181.2970  179.7390  135.1190 O   0  0  0  0  0  0  0  0  0  0  0  0
  178.9310  179.6690  135.3230 C   0  0  0  0  0  1  0  0  0  0  0  0
  1 16  2  0  0  0  0
  1 20  1  0  0  0  0
  2 27  2  0  0  0  0
  2 12  1  0  0  0  0
  3  4  1  0  0  0  0
  5 27  1  0  0  0  0
  5  6  2  0  0  0  0
  6 28  1  0  0  0  0
  7 19  1  1  0  0  0
  7 17  1  0  0  0  0
  7 24  1  0  0  0  0
  8 12  1  0  0  0  0
  9 26  1  1  0  0  0
 11  3  2  0  0  0  0
 12 13  1  0  0  0  0
 13 11  1  1  0  0  0
 13 22  1  0  0  0  0
 14 23  1  0  0  0  0
 14 22  2  0  0  0  0
 15  9  1  0  0  0  0
 16 19  1  0  0  0  0
 17 10  1  6  0  0  0
 17  8  1  0  0  0  0
 18  6  1  0  0  0  0
 18 15  2  0  0  0  0
 20 29  1  6  0  0  0
 20 10  1  0  0  0  0
 21  4  2  0  0  0  0
 22 21  1  0  0  0  0
 24  2  1  0  0  0  0
 25  5  1  0  0  0  0
 27 14  1  0  0  0  0
 28  9  1  0  0  0  0
 28 23  2  0  0  0  0
 30 29  1  0  0  0  0
 31 30  2  0  0  0  0
 32 30  1  0  0  0  0
M  END
>  <MODEL>
7

>  <REMARK>
 VINA RESULT:      -7.2      4.693      7.726
  Name = 
  1 active torsions:
  status: ('A' for Active; 'I' for Inactive)
    1  A    between atoms: C_20  and  N_29
                            x       y       z     vdW  Elec       q    Type
                         _______ _______ _______ _____ _____    ______ ____

>  <TORSDO>
F 1

$$$$
=
 OpenBabel11122410463D

 32 37  0  0  1  0  0  0  0  0999 V2000
  182.4240  176.6130  136.8310 C   0  0  0  0  0  3  0  0  0  0  0  0
  187.8410  177.5390  137.1810 C   0  0  0  0  0  0  0  0  0  0  0  0
  188.5640  178.0420  142.0750 C   0  0  0  0  0  3  0  0  0  0  0  0
  189.8160  177.4360  141.9720 C   0  0  0  0  0  3  0  0  0  0  0  0
  189.8160  176.7550  135.8140 C   0  0  0  0  0  0  0  0  0  0  0  0
  191.1240  176.2890  135.7710 C   0  0  0  0  0  0  0  0  0  0  0  0
  185.4840  176.8650  136.9440 N   0  0  2  0  0  0  0  0  0  0  0  0
  186.1420  178.6290  138.5740 C   0  0  0  0  0  2  0  0  0  0  0  0
  193.1920  175.6260  136.5150 C   0  0  1  0  0  3  0  0  0  0  0  0
  183.7740  178.1640  138.2100 C   0  0  0  0  0  2  0  0  0  0  0  0
  187.8040  178.2710  140.9260 C   0  0  0  0  0  3  0  0  0  0  0  0
  187.5070  178.1330  138.4740 N   0  0  0  0  0  0  0  0  0  0  0  0
  188.2880  177.8940  139.6620 C   0  0  1  0  0  3  0  0  0  0  0  0
  190.0820  176.9140  138.2400 C   0  0  0  0  0  0  0  0  0  0  0  0
  193.0420  175.5280  135.0550 N   0  0  0  0  0  0  0  0  0  0  0  0
  183.3670  175.9220  136.1850 C   0  0  0  0  0  3  0  0  0  0  0  0
  185.1540  177.5030  138.2430 C   0  0  1  0  0  3  0  0  0  0  0  0
  191.8900  175.8990  134.6500 N   0  0  0  0  0  0  0  0  0  0  0  0
  184.7000  175.6410  136.8080 C   0  0  0  0  0  2  0  0  0  0  0  0
  182.6380  177.1470  138.2150 C   0  0  1  0  0  3  0  0  0  0  0  0
  190.3090  177.0620  140.7210 C   0  0  0  0  0  3  0  0  0  0  0  0
  189.5510  177.2860  139.5620 C   0  0  0  0  0  0  0  0  0  0  0  0
  191.3640  176.4450  138.1260 N   0  0  0  0  0  0  0  0  0  0  0  0
  186.8720  176.3910  136.9380 C   0  0  0  0  0  2  0  0  0  0  0  0
  189.0760  176.8990  134.6460 O   0  0  0  0  0  1  0  0  0  0  0  0
  194.2090  176.6120  136.8350 N   0  0  0  0  0  1  0  0  0  0  0  0
  189.2730  177.0740  137.0790 C   0  0  0  0  0  0  0  0  0  0  0  0
  191.8560  176.1410  136.9000 C   0  0  0  0  0  0  0  0  0  0  0  0
  181.4120  177.7820  138.6760 N   0  0  0  0  0  2  0  0  0  0  0  0
  180.5370  177.1680  139.6240 C   0  0  0  0  0  0  0  0  0  0  0  0
  180.7900  176.0230  140.0850 O   0  0  0  0  0  0  0  0  0  0  0  0
  179.3130  177.8850  140.0640 C   0  0  0  0  0  1  0  0  0  0  0  0
  1 20  1  0  0  0  0
  2 12  1  0  0  0  0
  4  3  1  0  0  0  0
  5 27  1  0  0  0  0
  6  5  2  0  0  0  0
  6 28  1  0  0  0  0
  7 19  1  1  0  0  0
  7 17  1  0  0  0  0
  9 26  1  6  0  0  0
  9 28  1  0  0  0  0
 10 20  1  0  0  0  0
 11  3  2  0  0  0  0
 12  8  1  0  0  0  0
 12 13  1  0  0  0  0
 13 11  1  6  0  0  0
 14 22  2  0  0  0  0
 15  9  1  0  0  0  0
 16 19  1  0  0  0  0
 16  1  2  0  0  0  0
 17 10  1  6  0  0  0
 17  8  1  0  0  0  0
 18 15  2  0  0  0  0
 18  6  1  0  0  0  0
 20 29  1  6  0  0  0
 21  4  2  0  0  0  0
 22 13  1  0  0  0  0
 22 21  1  0  0  0  0
 23 14  1  0  0  0  0
 24  7  1  0  0  0  0
 24  2  1  0  0  0  0
 25  5  1  0  0  0  0
 27  2  2  0  0  0  0
 27 14  1  0  0  0  0
 28 23  2  0  0  0  0
 29 30  1  0  0  0  0
 30 32  1  0  0  0  0
 30 31  2  0  0  0  0
M  END
>  <MODEL>
8

>  <REMARK>
 VINA RESULT:      -7.0      3.957      8.963
  Name = 
  1 active torsions:
  status: ('A' for Active; 'I' for Inactive)
    1  A    between atoms: C_20  and  N_29
                            x       y       z     vdW  Elec       q    Type
                         _______ _______ _______ _____ _____    ______ ____

>  <TORSDO>
F 1

$$$$
=
 OpenBabel11122410463D

 32 37  0  0  1  0  0  0  0  0999 V2000
  189.2320  177.3290  147.1700 C   0  0  0  0  0  3  0  0  0  0  0  0
  187.7320  178.6210  142.0320 C   0  0  0  0  0  0  0  0  0  0  0  0
  191.2270  176.4100  139.2700 C   0  0  0  0  0  3  0  0  0  0  0  0
  190.2920  176.1380  138.2700 C   0  0  0  0  0  3  0  0  0  0  0  0
  185.4880  179.0020  140.9340 C   0  0  0  0  0  0  0  0  0  0  0  0
  184.6510  178.8190  139.8410 C   0  0  0  0  0  0  0  0  0  0  0  0
  188.1730  177.8830  144.3400 N   0  0  2  0  0  0  0  0  0  0  0  0
  190.0490  178.5130  142.8280 C   0  0  0  0  0  2  0  0  0  0  0  0
  183.9530  178.1390  137.7630 C   0  0  1  0  0  3  0  0  0  0  0  0
  190.5190  178.0160  145.1710 C   0  0  0  0  0  2  0  0  0  0  0  0
  190.8460  177.1350  140.4020 C   0  0  0  0  0  3  0  0  0  0  0  0
  189.1310  178.3440  141.7110 N   0  0  0  0  0  0  0  0  0  0  0  0
  189.5250  177.5920  140.5460 C   0  0  0  0  0  0  0  0  0  0  0  0
  187.2090  177.8200  139.6620 C   0  0  0  0  0  0  0  0  0  0  0  0
  182.9120  178.8500  138.5200 N   0  0  0  0  0  0  0  0  0  0  0  0
  187.9890  177.2480  146.6870 C   0  0  0  0  0  3  0  0  0  0  0  0
  189.5990  177.6410  144.0070 C   0  0  1  0  0  3  0  0  0  0  0  0
  183.3090  179.2250  139.6740 N   0  0  0  0  0  0  0  0  0  0  0  0
  187.7230  176.8490  145.2680 C   0  0  0  0  0  2  0  0  0  0  0  0
  190.4330  177.0260  146.3270 C   0  0  1  0  0  3  0  0  0  0  0  0
  188.9790  176.5920  138.4010 C   0  0  0  0  0  2  0  0  0  0  0  0
  188.5880  177.3190  139.5350 C   0  0  0  0  0  0  0  0  0  0  0  0
  186.3310  177.6700  138.6200 N   0  0  0  0  0  0  0  0  0  0  0  0
  187.3250  177.6840  143.1600 C   0  0  0  0  0  2  0  0  0  0  0  0
  185.0380  179.6700  142.0680 O   0  0  0  0  0  1  0  0  0  0  0  0
  184.3060  178.9070  136.5810 N   0  0  0  0  0  1  0  0  0  0  0  0
  186.8010  178.4880  140.8510 C   0  0  0  0  0  0  0  0  0  0  0  0
  185.0750  178.1690  138.7320 C   0  0  0  0  0  0  0  0  0  0  0  0
  191.6290  177.1270  147.1500 N   0  0  0  0  0  2  0  0  0  0  0  0
  192.2060  175.9980  147.8110 C   0  0  0  0  0  0  0  0  0  0  0  0
  191.6740  174.8590  147.7210 O   0  0  0  0  0  0  0  0  0  0  0  0
  193.4400  176.1720  148.6180 C   0  0  0  0  0  1  0  0  0  0  0  0
  2 24  1  0  0  0  0
  3 11  1  0  0  0  0
  4 21  1  0  0  0  0
  4  3  2  0  0  0  0
  5 25  1  0  0  0  0
  6  5  2  0  0  0  0
  7 24  1  6  0  0  0
  7 19  1  0  0  0  0
  9 26  1  6  0  0  0
  9 15  1  0  0  0  0
  9 28  1  0  0  0  0
 10 20  1  0  0  0  0
 11 13  2  0  0  0  0
 12  2  1  0  0  0  0
 12  8  1  0  0  0  0
 13 12  1  0  0  0  0
 14 27  1  0  0  0  0
 15 18  2  0  0  0  0
 16  1  2  0  0  0  0
 17  8  1  6  0  0  0
 17  7  1  0  0  0  0
 17 10  1  0  0  0  0
 18  6  1  0  0  0  0
 19 16  1  0  0  0  0
 20 29  1  1  0  0  0
 20  1  1  0  0  0  0
 21 22  1  0  0  0  0
 22 14  2  0  0  0  0
 22 13  1  0  0  0  0
 23 28  2  0  0  0  0
 23 14  1  0  0  0  0
 27  5  1  0  0  0  0
 27  2  2  0  0  0  0
 28  6  1  0  0  0  0
 29 30  1  0  0  0  0
 30 32  1  0  0  0  0
 31 30  2  0  0  0  0
M  END
>  <MODEL>
9

>  <REMARK>
 VINA RESULT:      -6.6      3.200      6.798
  Name = 
  1 active torsions:
  status: ('A' for Active; 'I' for Inactive)
    1  A    between atoms: C_20  and  N_29
                            x       y       z     vdW  Elec       q    Type
                         _______ _______ _______ _____ _____    ______ ____

>  <TORSDO>
F 1

$$$$
