=
 OpenBabel11122411443D

 37 42  0  0  1  0  0  0  0  0999 V2000
  190.2770  178.6540  143.8350 C   0  0  0  0  0  0  0  0  0  0  0  0
  186.6640  177.5780  144.1080 C   0  0  1  0  0  3  0  0  0  0  0  0
  184.6150  177.7110  141.4200 O   0  0  0  0  0  0  0  0  0  0  0  0
  189.0580  177.1320  145.0500 C   0  0  2  0  0  3  0  0  0  0  0  0
  186.4170  178.4400  142.8690 C   0  0  2  0  0  3  0  0  0  0  0  0
  188.0710  176.9890  143.8890 C   0  0  2  0  0  3  0  0  0  0  0  0
  184.9420  178.6090  142.4480 C   0  0  2  0  0  3  0  0  0  0  0  0
  188.3270  176.8630  146.3540 C   0  0  0  0  0  2  0  0  0  0  0  0
  188.6280  177.5890  142.5980 C   0  0  2  0  0  3  0  0  0  0  0  0
  191.1790  177.6520  143.4920 F   0  0  0  0  0  0  0  0  0  0  0  0
  185.0760  178.5230  145.7400 N   0  0  0  0  0  2  0  0  0  0  0  0
  187.2470  177.9110  146.6250 C   0  0  0  0  0  2  0  0  0  0  0  0
  189.2880  178.8200  142.8410 O   0  0  0  0  0  0  0  0  0  0  0  0
  185.2100  179.0160  139.6840 C   0  0  0  0  0  2  0  0  0  0  0  0
  184.1370  178.4450  140.4210 O   0  0  0  0  0  0  0  0  0  0  0  0
  186.4900  178.4250  145.3890 C   0  0  1  0  0  3  0  0  0  0  0  0
  187.3470  177.8490  141.8070 C   0  0  2  0  0  3  0  0  0  0  0  0
  189.6700  178.4020  145.0840 O   0  0  0  0  0  0  0  0  0  0  0  0
  183.9160  178.5750  143.5990 C   0  0  1  0  0  3  0  0  0  0  0  0
  190.9850  179.8370  143.9360 F   0  0  0  0  0  0  0  0  0  0  0  0
  186.4860  178.1760  139.6510 C   0  0  0  0  0  2  0  0  0  0  0  0
  187.4620  178.6980  140.6050 N   0  0  0  0  0  0  0  0  0  0  0  0
  184.3930  179.3940  144.7950 C   0  0  0  0  0  2  0  0  0  0  0  0
  181.4560  178.6770  144.2200 C   0  0  0  0  0  2  0  0  0  0  0  0
  182.5230  179.0520  143.1810 C   0  0  2  0  0  3  0  0  0  0  0  0
  182.1630  178.6810  141.7210 C   0  0  0  0  0  2  0  0  0  0  0  0
  180.3680  178.1040  140.2380 O   0  0  0  0  0  1  0  0  0  0  0  0
  179.7650  178.7260  142.4440 C   0  0  0  0  0  3  0  0  0  0  0  0
  180.7750  178.0430  141.5690 C   0  0  2  0  0  3  0  0  0  0  0  0
  180.0890  179.0270  143.7070 C   0  0  0  0  0  3  0  0  0  0  0  0
  188.7620  178.5130  139.9500 C   0  0  0  0  0  2  0  0  0  0  0  0
  188.6470  177.6740  138.6700 C   0  0  1  0  0  3  0  0  0  0  0  0
  188.9750  179.7000  137.5050 O   0  0  0  0  0  0  0  0  0  0  0  0
  188.9080  178.4840  137.4410 C   0  0  0  0  0  3  0  0  0  0  0  0
  189.5660  176.4620  138.7000 C   0  0  0  0  0  2  0  0  0  0  0  0
  190.7890  176.7350  139.5590 C   0  0  0  0  0  2  0  0  0  0  0  0
  191.9370  176.7410  138.7670 O   0  0  0  0  0  1  0  0  0  0  0  0
  1 20  1  0  0  0  0
  1 18  1  0  0  0  0
  2 16  1  0  0  0  0
  3  7  1  0  0  0  0
  4 18  1  0  0  0  0
  4  8  1  0  0  0  0
  5  2  1  0  0  0  0
  6  2  1  0  0  0  0
  6  4  1  0  0  0  0
  7  5  1  0  0  0  0
  7 19  1  0  0  0  0
  8 12  1  0  0  0  0
  9 13  1  0  0  0  0
  9  6  1  0  0  0  0
 10  1  1  0  0  0  0
 13  1  1  0  0  0  0
 14 15  1  0  0  0  0
 15  3  1  0  0  0  0
 16 11  1  0  0  0  0
 16 12  1  0  0  0  0
 17  9  1  0  0  0  0
 17  5  1  0  0  0  0
 19 23  1  0  0  0  0
 21 14  1  0  0  0  0
 21 22  1  0  0  0  0
 22 17  1  0  0  0  0
 23 11  1  0  0  0  0
 25 19  1  0  0  0  0
 25 24  1  0  0  0  0
 26 25  1  0  0  0  0
 27 29  1  0  0  0  0
 28 30  2  0  0  0  0
 29 26  1  0  0  0  0
 29 28  1  0  0  0  0
 30 24  1  0  0  0  0
 31 22  1  0  0  0  0
 32 35  1  0  0  0  0
 32 31  1  0  0  0  0
 34 33  2  0  0  0  0
 34 32  1  0  0  0  0
 35 36  1  0  0  0  0
 37 36  1  0  0  0  0
M  END
>  <MODEL>
1

>  <REMARK>
 VINA RESULT:      -9.8      0.000      0.000
  Name = 
  6 active torsions:
  status: ('A' for Active; 'I' for Inactive)
    1  A    between atoms: C_1  and  C_4
    2  A    between atoms: C_1  and  N_27
    3  A    between atoms: C_4  and  C_12
    4  A    between atoms: C_4  and  C_37
    5  A    between atoms: C_8  and  C_12
    6  A    between atoms: C_23  and  C_30
                            x       y       z     vdW  Elec       q    Type
                         _______ _______ _______ _____ _____    ______ ____

>  <TORSDO>
F 6

$$$$
=
 OpenBabel11122411443D

 37 42  0  0  1  0  0  0  0  0999 V2000
  183.6140  178.0110  141.0040 C   0  0  0  0  0  0  0  0  0  0  0  0
  186.6110  178.8080  143.1670 C   0  0  1  0  0  3  0  0  0  0  0  0
  189.7460  178.6010  141.9170 O   0  0  0  0  0  0  0  0  0  0  0  0
  184.1000  179.4030  142.7670 C   0  0  2  0  0  3  0  0  0  0  0  0
  187.4210  177.9660  142.1810 C   0  0  2  0  0  3  0  0  0  0  0  0
  185.5510  179.5050  142.2920 C   0  0  2  0  0  3  0  0  0  0  0  0
  188.8910  177.7000  142.5700 C   0  0  2  0  0  3  0  0  0  0  0  0
  184.0610  179.5790  144.2750 C   0  0  0  0  0  2  0  0  0  0  0  0
  185.7150  178.9860  140.8640 C   0  0  2  0  0  3  0  0  0  0  0  0
  183.0710  179.0870  140.3090 F   0  0  0  0  0  0  0  0  0  0  0  0
  187.0740  177.7010  145.3200 N   0  0  0  0  0  2  0  0  0  0  0  0
  184.7910  178.4470  144.9970 C   0  0  0  0  0  2  0  0  0  0  0  0
  184.9670  177.8010  140.6540 O   0  0  0  0  0  0  0  0  0  0  0  0
  190.0750  177.3930  140.0450 C   0  0  0  0  0  2  0  0  0  0  0  0
  190.6370  177.8620  141.2630 O   0  0  0  0  0  0  0  0  0  0  0  0
  186.0540  177.9140  144.2980 C   0  0  1  0  0  3  0  0  0  0  0  0
  187.2070  178.6550  140.8310 C   0  0  2  0  0  3  0  0  0  0  0  0
  183.4980  178.1820  142.4000 O   0  0  0  0  0  0  0  0  0  0  0  0
  189.1710  177.6260  144.0850 C   0  0  1  0  0  3  0  0  0  0  0  0
  182.9000  176.8820  140.6510 F   0  0  0  0  0  0  0  0  0  0  0  0
  189.0430  178.3260  139.4120 C   0  0  0  0  0  2  0  0  0  0  0  0
  187.6900  177.8510  139.6910 N   0  0  0  0  0  0  0  0  0  0  0  0
  188.1050  176.8100  144.8100 C   0  0  0  0  0  2  0  0  0  0  0  0
  190.7090  175.6110  143.9280 C   0  0  0  0  0  2  0  0  0  0  0  0
  190.5550  177.0590  144.4160 C   0  0  2  0  0  3  0  0  0  0  0  0
  190.9760  177.2940  145.8880 C   0  0  0  0  0  2  0  0  0  0  0  0
  192.2280  176.4010  147.7280 O   0  0  0  0  0  1  0  0  0  0  0  0
  192.4030  175.2480  145.6640 C   0  0  0  0  0  3  0  0  0  0  0  0
  191.5190  176.0390  146.5840 C   0  0  2  0  0  3  0  0  0  0  0  0
  192.0160  175.0420  144.4000 C   0  0  0  0  0  3  0  0  0  0  0  0
  186.9290  178.1510  138.4730 C   0  0  0  0  0  2  0  0  0  0  0  0
  186.9350  176.9740  137.4870 C   0  0  1  0  0  3  0  0  0  0  0  0
  184.5800  177.1340  137.4520 O   0  0  0  0  0  0  0  0  0  0  0  0
  185.5600  176.4400  137.2410 C   0  0  0  0  0  3  0  0  0  0  0  0
  187.5940  177.3430  136.1660 C   0  0  0  0  0  2  0  0  0  0  0  0
  188.9870  176.7450  136.0740 C   0  0  0  0  0  2  0  0  0  0  0  0
  189.1120  175.6860  136.9730 O   0  0  0  0  0  1  0  0  0  0  0  0
  1 18  1  0  0  0  0
  2 16  1  0  0  0  0
  3  7  1  0  0  0  0
  4  8  1  0  0  0  0
  5  7  1  0  0  0  0
  5  2  1  0  0  0  0
  6  4  1  0  0  0  0
  6  2  1  0  0  0  0
  7 19  1  0  0  0  0
  8 12  1  0  0  0  0
  9  6  1  0  0  0  0
 10  1  1  0  0  0  0
 13  9  1  0  0  0  0
 13  1  1  0  0  0  0
 14 15  1  0  0  0  0
 15  3  1  0  0  0  0
 16 12  1  0  0  0  0
 16 11  1  0  0  0  0
 17  9  1  0  0  0  0
 17  5  1  0  0  0  0
 18  4  1  0  0  0  0
 19 25  1  0  0  0  0
 19 23  1  0  0  0  0
 20  1  1  0  0  0  0
 21 22  1  0  0  0  0
 21 14  1  0  0  0  0
 22 17  1  0  0  0  0
 23 11  1  0  0  0  0
 24 30  1  0  0  0  0
 24 25  1  0  0  0  0
 25 26  1  0  0  0  0
 26 29  1  0  0  0  0
 28 29  1  0  0  0  0
 29 27  1  0  0  0  0
 30 28  2  0  0  0  0
 31 22  1  0  0  0  0
 32 31  1  0  0  0  0
 34 33  2  0  0  0  0
 34 32  1  0  0  0  0
 35 32  1  0  0  0  0
 36 35  1  0  0  0  0
 36 37  1  0  0  0  0
M  END
>  <MODEL>
2

>  <REMARK>
 VINA RESULT:      -9.1      2.859      6.594
  Name = 
  6 active torsions:
  status: ('A' for Active; 'I' for Inactive)
    1  A    between atoms: C_1  and  C_4
    2  A    between atoms: C_1  and  N_27
    3  A    between atoms: C_4  and  C_12
    4  A    between atoms: C_4  and  C_37
    5  A    between atoms: C_8  and  C_12
    6  A    between atoms: C_23  and  C_30
                            x       y       z     vdW  Elec       q    Type
                         _______ _______ _______ _____ _____    ______ ____

>  <TORSDO>
F 6

$$$$
=
 OpenBabel11122411443D

 37 42  0  0  1  0  0  0  0  0999 V2000
  190.5020  176.3040  138.1240 C   0  0  0  0  0  0  0  0  0  0  0  0
  187.3210  178.2740  137.5860 C   0  0  1  0  0  3  0  0  0  0  0  0
  185.5470  179.4410  140.2180 O   0  0  0  0  0  0  0  0  0  0  0  0
  189.6580  177.7470  136.5460 C   0  0  2  0  0  3  0  0  0  0  0  0
  186.9480  177.8720  139.0130 C   0  0  2  0  0  3  0  0  0  0  0  0
  188.8490  178.4650  137.6300 C   0  0  2  0  0  3  0  0  0  0  0  0
  185.5250  178.2530  139.4710 C   0  0  2  0  0  3  0  0  0  0  0  0
  188.9250  177.8700  135.2220 C   0  0  0  0  0  2  0  0  0  0  0  0
  189.3230  178.0840  139.0330 C   0  0  2  0  0  3  0  0  0  0  0  0
  191.6730  177.0550  138.1780 F   0  0  0  0  0  0  0  0  0  0  0  0
  185.4030  177.4430  136.2790 N   0  0  0  0  0  2  0  0  0  0  0  0
  187.5780  177.1480  135.2510 C   0  0  0  0  0  2  0  0  0  0  0  0
  189.5920  176.6960  139.1300 O   0  0  0  0  0  0  0  0  0  0  0  0
  185.8970  178.5140  142.2410 C   0  0  0  0  0  2  0  0  0  0  0  0
  184.9680  179.1610  141.3810 O   0  0  0  0  0  0  0  0  0  0  0  0
  186.8120  177.2140  136.5840 C   0  0  1  0  0  3  0  0  0  0  0  0
  188.0910  178.4210  139.8710 C   0  0  2  0  0  3  0  0  0  0  0  0
  189.8880  176.3910  136.8550 O   0  0  0  0  0  0  0  0  0  0  0  0
  184.4570  178.2850  138.3580 C   0  0  1  0  0  3  0  0  0  0  0  0
  190.8420  174.9830  138.3430 F   0  0  0  0  0  0  0  0  0  0  0  0
  187.3540  178.9260  142.0380 C   0  0  0  0  0  2  0  0  0  0  0  0
  188.0640  177.9150  141.2570 N   0  0  0  0  0  0  0  0  0  0  0  0
  184.5850  177.0830  137.4280 C   0  0  0  0  0  2  0  0  0  0  0  0
  182.6800  177.1390  139.7640 C   0  0  0  0  0  2  0  0  0  0  0  0
  183.0260  178.3580  138.8970 C   0  0  2  0  0  3  0  0  0  0  0  0
  181.9780  178.6930  137.8060 C   0  0  0  0  0  2  0  0  0  0  0  0
  179.7090  178.3550  137.1060 O   0  0  0  0  0  1  0  0  0  0  0  0
  180.3110  177.4740  139.2230 C   0  0  0  0  0  3  0  0  0  0  0  0
  180.7530  177.7690  137.8190 C   0  0  2  0  0  3  0  0  0  0  0  0
  181.2290  177.1720  140.1480 C   0  0  0  0  0  3  0  0  0  0  0  0
  189.4140  177.8770  141.8310 C   0  0  0  0  0  2  0  0  0  0  0  0
  189.4740  177.0210  143.1040 C   0  0  1  0  0  3  0  0  0  0  0  0
  191.3140  175.6260  143.5930 O   0  0  0  0  0  0  0  0  0  0  0  0
  190.3130  175.7970  142.9190 C   0  0  0  0  0  3  0  0  0  0  0  0
  189.9730  177.8160  144.3020 C   0  0  0  0  0  2  0  0  0  0  0  0
  189.0080  177.6940  145.4680 C   0  0  0  0  0  2  0  0  0  0  0  0
  187.8080  177.1280  145.0380 O   0  0  0  0  0  1  0  0  0  0  0  0
  1 10  1  0  0  0  0
  1 20  1  0  0  0  0
  1 13  1  0  0  0  0
  2  6  1  0  0  0  0
  2  5  1  0  0  0  0
  3 15  1  0  0  0  0
  4 18  1  0  0  0  0
  4  6  1  0  0  0  0
  5  7  1  0  0  0  0
  5 17  1  0  0  0  0
  6  9  1  0  0  0  0
  7  3  1  0  0  0  0
  8 12  1  0  0  0  0
  8  4  1  0  0  0  0
  9 13  1  0  0  0  0
  9 17  1  0  0  0  0
 11 16  1  0  0  0  0
 11 23  1  0  0  0  0
 12 16  1  0  0  0  0
 15 14  1  0  0  0  0
 16  2  1  0  0  0  0
 17 22  1  0  0  0  0
 18  1  1  0  0  0  0
 19 25  1  0  0  0  0
 19  7  1  0  0  0  0
 21 14  1  0  0  0  0
 22 31  1  0  0  0  0
 22 21  1  0  0  0  0
 23 19  1  0  0  0  0
 24 30  1  0  0  0  0
 25 24  1  0  0  0  0
 26 29  1  0  0  0  0
 26 25  1  0  0  0  0
 27 29  1  0  0  0  0
 28 30  2  0  0  0  0
 29 28  1  0  0  0  0
 31 32  1  0  0  0  0
 32 35  1  0  0  0  0
 34 32  1  0  0  0  0
 34 33  2  0  0  0  0
 35 36  1  0  0  0  0
 37 36  1  0  0  0  0
M  END
>  <MODEL>
3

>  <REMARK>
 VINA RESULT:      -9.1      2.670      5.959
  Name = 
  6 active torsions:
  status: ('A' for Active; 'I' for Inactive)
    1  A    between atoms: C_1  and  C_4
    2  A    between atoms: C_1  and  N_27
    3  A    between atoms: C_4  and  C_12
    4  A    between atoms: C_4  and  C_37
    5  A    between atoms: C_8  and  C_12
    6  A    between atoms: C_23  and  C_30
                            x       y       z     vdW  Elec       q    Type
                         _______ _______ _______ _____ _____    ______ ____

>  <TORSDO>
F 6

$$$$
=
 OpenBabel11122411443D

 37 42  0  0  1  0  0  0  0  0999 V2000
  190.2770  175.6180  142.8600 C   0  0  0  0  0  0  0  0  0  0  0  0
  188.1500  178.3770  141.3930 C   0  0  1  0  0  3  0  0  0  0  0  0
  185.4920  179.5970  143.0920 O   0  0  0  0  0  0  0  0  0  0  0  0
  190.5780  177.4200  141.4660 C   0  0  2  0  0  3  0  0  0  0  0  0
  187.0500  177.8980  142.3410 C   0  0  2  0  0  3  0  0  0  0  0  0
  189.4550  178.1700  142.1860 C   0  0  2  0  0  3  0  0  0  0  0  0
  185.6690  178.5610  142.1610 C   0  0  2  0  0  3  0  0  0  0  0  0
  190.6440  177.8960  140.0260 C   0  0  0  0  0  2  0  0  0  0  0  0
  189.0890  177.5020  143.5110 C   0  0  2  0  0  3  0  0  0  0  0  0
  191.3590  176.0360  143.6290 F   0  0  0  0  0  0  0  0  0  0  0  0
  187.0550  178.2330  139.1890 N   0  0  0  0  0  2  0  0  0  0  0  0
  189.3750  177.5390  139.2520 C   0  0  0  0  0  2  0  0  0  0  0  0
  189.0560  176.0900  143.3890 O   0  0  0  0  0  0  0  0  0  0  0  0
  184.6250  178.3550  144.7590 C   0  0  0  0  0  2  0  0  0  0  0  0
  184.3700  179.3210  143.7490 O   0  0  0  0  0  0  0  0  0  0  0  0
  188.0620  177.6190  140.0490 C   0  0  1  0  0  3  0  0  0  0  0  0
  187.6710  178.0240  143.7350 C   0  0  2  0  0  3  0  0  0  0  0  0
  190.4090  176.0210  141.5140 O   0  0  0  0  0  0  0  0  0  0  0  0
  185.3290  179.0060  140.7240 C   0  0  1  0  0  3  0  0  0  0  0  0
  190.2520  174.2370  142.8900 F   0  0  0  0  0  0  0  0  0  0  0  0
  186.0280  178.4100  145.3610 C   0  0  0  0  0  2  0  0  0  0  0  0
  186.8710  177.3640  144.7840 N   0  0  0  0  0  0  0  0  0  0  0  0
  185.7240  177.9430  139.7040 C   0  0  0  0  0  2  0  0  0  0  0  0
  182.9250  178.2830  141.1070 C   0  0  0  0  0  2  0  0  0  0  0  0
  183.8530  179.3650  140.5360 C   0  0  2  0  0  3  0  0  0  0  0  0
  183.5120  179.8130  139.0930 C   0  0  0  0  0  2  0  0  0  0  0  0
  181.8060  179.8410  137.4070 O   0  0  0  0  0  1  0  0  0  0  0  0
  181.1850  178.9990  139.5350 C   0  0  0  0  0  3  0  0  0  0  0  0
  182.2720  179.1240  138.5070 C   0  0  2  0  0  3  0  0  0  0  0  0
  181.4960  178.5970  140.7720 C   0  0  0  0  0  3  0  0  0  0  0  0
  187.7210  176.9140  145.8920 C   0  0  0  0  0  2  0  0  0  0  0  0
  188.1740  178.0810  146.7800 C   0  0  1  0  0  3  0  0  0  0  0  0
  188.2270  178.2180  149.1360 O   0  0  0  0  0  0  0  0  0  0  0  0
  187.5510  178.0290  148.1380 C   0  0  0  0  0  3  0  0  0  0  0  0
  189.6890  178.1450  146.9050 C   0  0  0  0  0  2  0  0  0  0  0  0
  190.2940  176.7530  146.8450 C   0  0  0  0  0  2  0  0  0  0  0  0
  191.6850  176.8380  146.8090 O   0  0  0  0  0  1  0  0  0  0  0  0
  1 20  1  0  0  0  0
  1 13  1  0  0  0  0
  1 10  1  0  0  0  0
  2  6  1  0  0  0  0
  2  5  1  0  0  0  0
  3 15  1  0  0  0  0
  4 18  1  0  0  0  0
  4  6  1  0  0  0  0
  5 17  1  0  0  0  0
  6  9  1  0  0  0  0
  7  5  1  0  0  0  0
  7  3  1  0  0  0  0
  8  4  1  0  0  0  0
  9 17  1  0  0  0  0
 11 23  1  0  0  0  0
 11 16  1  0  0  0  0
 12  8  1  0  0  0  0
 12 16  1  0  0  0  0
 13  9  1  0  0  0  0
 14 21  1  0  0  0  0
 15 14  1  0  0  0  0
 16  2  1  0  0  0  0
 17 22  1  0  0  0  0
 18  1  1  0  0  0  0
 19  7  1  0  0  0  0
 22 21  1  0  0  0  0
 22 31  1  0  0  0  0
 23 19  1  0  0  0  0
 25 19  1  0  0  0  0
 25 24  1  0  0  0  0
 26 25  1  0  0  0  0
 27 29  1  0  0  0  0
 28 30  2  0  0  0  0
 29 26  1  0  0  0  0
 29 28  1  0  0  0  0
 30 24  1  0  0  0  0
 31 32  1  0  0  0  0
 32 35  1  0  0  0  0
 32 34  1  0  0  0  0
 34 33  2  0  0  0  0
 36 35  1  0  0  0  0
 37 36  1  0  0  0  0
M  END
>  <MODEL>
4

>  <REMARK>
 VINA RESULT:      -9.1      2.181      5.350
  Name = 
  6 active torsions:
  status: ('A' for Active; 'I' for Inactive)
    1  A    between atoms: C_1  and  C_4
    2  A    between atoms: C_1  and  N_27
    3  A    between atoms: C_4  and  C_12
    4  A    between atoms: C_4  and  C_37
    5  A    between atoms: C_8  and  C_12
    6  A    between atoms: C_23  and  C_30
                            x       y       z     vdW  Elec       q    Type
                         _______ _______ _______ _____ _____    ______ ____

>  <TORSDO>
F 6

$$$$
=
 OpenBabel11122411443D

 37 42  0  0  1  0  0  0  0  0999 V2000
  180.6400  177.0830  137.5530 C   0  0  0  0  0  0  0  0  0  0  0  0
  182.2630  179.2250  140.2110 C   0  0  1  0  0  3  0  0  0  0  0  0
  185.6300  179.4780  140.4050 O   0  0  0  0  0  0  0  0  0  0  0  0
  180.1400  179.0060  138.7060 C   0  0  2  0  0  3  0  0  0  0  0  0
  183.5130  178.3700  139.9950 C   0  0  2  0  0  3  0  0  0  0  0  0
  181.6310  179.3360  138.8100 C   0  0  2  0  0  3  0  0  0  0  0  0
  184.6770  178.6200  140.9760 C   0  0  2  0  0  3  0  0  0  0  0  0
  179.4190  179.6010  139.9040 C   0  0  0  0  0  2  0  0  0  0  0  0
  182.4650  178.4820  137.8560 C   0  0  2  0  0  3  0  0  0  0  0  0
  180.3460  177.7290  136.3560 F   0  0  0  0  0  0  0  0  0  0  0  0
  181.8440  178.9580  142.6250 N   0  0  0  0  0  2  0  0  0  0  0  0
  179.8740  178.9590  141.2150 C   0  0  0  0  0  2  0  0  0  0  0  0
  182.0210  177.1360  137.8420 O   0  0  0  0  0  0  0  0  0  0  0  0
  186.8830  177.9030  139.3950 C   0  0  0  0  0  2  0  0  0  0  0  0
  186.7920  178.8370  140.4620 O   0  0  0  0  0  0  0  0  0  0  0  0
  181.3650  178.5900  141.2960 C   0  0  1  0  0  3  0  0  0  0  0  0
  183.8440  178.5530  138.5120 C   0  0  2  0  0  3  0  0  0  0  0  0
  179.8990  177.6190  138.6280 O   0  0  0  0  0  0  0  0  0  0  0  0
  184.2650  179.0680  142.3930 C   0  0  1  0  0  3  0  0  0  0  0  0
  180.2820  175.7550  137.4100 F   0  0  0  0  0  0  0  0  0  0  0  0
  186.1420  178.3090  138.1210 C   0  0  0  0  0  2  0  0  0  0  0  0
  184.8650  177.6040  138.0290 N   0  0  0  0  0  0  0  0  0  0  0  0
  183.0850  178.2540  142.9140 C   0  0  0  0  0  2  0  0  0  0  0  0
  186.1130  177.6350  143.3840 C   0  0  0  0  0  2  0  0  0  0  0  0
  185.4130  179.0010  143.4050 C   0  0  2  0  0  3  0  0  0  0  0  0
  185.0140  179.5010  144.8160 C   0  0  0  0  0  2  0  0  0  0  0  0
  185.4050  179.2330  147.1670 O   0  0  0  0  0  1  0  0  0  0  0  0
  186.8060  177.9960  145.7080 C   0  0  0  0  0  3  0  0  0  0  0  0
  185.4340  178.5560  145.9500 C   0  0  2  0  0  3  0  0  0  0  0  0
  187.1280  177.5560  144.4870 C   0  0  0  0  0  3  0  0  0  0  0  0
  184.6940  177.3260  136.5980 C   0  0  0  0  0  2  0  0  0  0  0  0
  184.8330  175.8300  136.2820 C   0  0  1  0  0  3  0  0  0  0  0  0
  187.0620  175.1410  136.6340 O   0  0  0  0  0  0  0  0  0  0  0  0
  186.2120  175.4770  135.8270 C   0  0  0  0  0  3  0  0  0  0  0  0
  184.4370  174.9600  137.4670 C   0  0  0  0  0  2  0  0  0  0  0  0
  183.5350  173.8220  137.0210 C   0  0  0  0  0  2  0  0  0  0  0  0
  184.0930  172.5980  137.3890 O   0  0  0  0  0  1  0  0  0  0  0  0
  1 13  1  0  0  0  0
  1 18  1  0  0  0  0
  2 16  1  0  0  0  0
  3 15  1  0  0  0  0
  3  7  1  0  0  0  0
  4  6  1  0  0  0  0
  4  8  1  0  0  0  0
  5  2  1  0  0  0  0
  5  7  1  0  0  0  0
  6  2  1  0  0  0  0
  7 19  1  0  0  0  0
  8 12  1  0  0  0  0
  9 17  1  0  0  0  0
  9  6  1  0  0  0  0
 10  1  1  0  0  0  0
 11 23  1  0  0  0  0
 12 16  1  0  0  0  0
 13  9  1  0  0  0  0
 14 15  1  0  0  0  0
 16 11  1  0  0  0  0
 17  5  1  0  0  0  0
 18  4  1  0  0  0  0
 19 23  1  0  0  0  0
 19 25  1  0  0  0  0
 20  1  1  0  0  0  0
 21 14  1  0  0  0  0
 22 21  1  0  0  0  0
 22 17  1  0  0  0  0
 24 25  1  0  0  0  0
 24 30  1  0  0  0  0
 25 26  1  0  0  0  0
 26 29  1  0  0  0  0
 28 29  1  0  0  0  0
 29 27  1  0  0  0  0
 30 28  2  0  0  0  0
 31 22  1  0  0  0  0
 32 31  1  0  0  0  0
 32 35  1  0  0  0  0
 34 32  1  0  0  0  0
 34 33  2  0  0  0  0
 36 37  1  0  0  0  0
 36 35  1  0  0  0  0
M  END
>  <MODEL>
5

>  <REMARK>
 VINA RESULT:      -8.7      4.218      7.176
  Name = 
  6 active torsions:
  status: ('A' for Active; 'I' for Inactive)
    1  A    between atoms: C_1  and  C_4
    2  A    between atoms: C_1  and  N_27
    3  A    between atoms: C_4  and  C_12
    4  A    between atoms: C_4  and  C_37
    5  A    between atoms: C_8  and  C_12
    6  A    between atoms: C_23  and  C_30
                            x       y       z     vdW  Elec       q    Type
                         _______ _______ _______ _____ _____    ______ ____

>  <TORSDO>
F 6

$$$$
=
 OpenBabel11122411443D

 37 42  0  0  1  0  0  0  0  0999 V2000
  183.2120  177.8330  140.5790 C   0  0  0  0  0  0  0  0  0  0  0  0
  186.1770  178.7920  142.7180 C   0  0  1  0  0  3  0  0  0  0  0  0
  189.3110  178.7390  141.4480 O   0  0  0  0  0  0  0  0  0  0  0  0
  183.6370  179.2570  142.3320 C   0  0  2  0  0  3  0  0  0  0  0  0
  187.0230  177.9880  141.7310 C   0  0  2  0  0  3  0  0  0  0  0  0
  185.0780  179.4310  141.8470 C   0  0  2  0  0  3  0  0  0  0  0  0
  188.5070  177.8000  142.1120 C   0  0  2  0  0  3  0  0  0  0  0  0
  183.5990  179.4390  143.8390 C   0  0  0  0  0  2  0  0  0  0  0  0
  185.2590  178.9130  140.4200 C   0  0  2  0  0  3  0  0  0  0  0  0
  182.6090  178.8760  139.8820 F   0  0  0  0  0  0  0  0  0  0  0  0
  186.7100  177.7220  144.8740 N   0  0  0  0  0  2  0  0  0  0  0  0
  184.3900  178.3490  144.5620 C   0  0  0  0  0  2  0  0  0  0  0  0
  184.5710  177.6900  140.2210 O   0  0  0  0  0  0  0  0  0  0  0  0
  189.6890  177.5400  139.5800 C   0  0  0  0  0  2  0  0  0  0  0  0
  190.2340  178.0440  140.7920 O   0  0  0  0  0  0  0  0  0  0  0  0
  185.6740  177.8770  143.8570 C   0  0  1  0  0  3  0  0  0  0  0  0
  186.7650  178.6580  140.3790 C   0  0  2  0  0  3  0  0  0  0  0  0
  183.0950  178.0050  141.9750 O   0  0  0  0  0  0  0  0  0  0  0  0
  188.8010  177.7470  143.6250 C   0  0  1  0  0  3  0  0  0  0  0  0
  182.5530  176.6670  140.2370 F   0  0  0  0  0  0  0  0  0  0  0  0
  188.6070  178.4160  138.9490 C   0  0  0  0  0  2  0  0  0  0  0  0
  187.2810  177.8740  139.2400 N   0  0  0  0  0  0  0  0  0  0  0  0
  187.7820  176.8820  144.3610 C   0  0  0  0  0  2  0  0  0  0  0  0
  190.4180  175.7910  143.5260 C   0  0  0  0  0  2  0  0  0  0  0  0
  190.2130  177.2530  143.9490 C   0  0  2  0  0  3  0  0  0  0  0  0
  190.6560  177.5740  145.3980 C   0  0  0  0  0  2  0  0  0  0  0  0
  191.9830  176.8210  147.2490 O   0  0  0  0  0  1  0  0  0  0  0  0
  192.1620  175.5800  145.2360 C   0  0  0  0  0  3  0  0  0  0  0  0
  191.2660  176.3770  146.1390 C   0  0  2  0  0  3  0  0  0  0  0  0
  191.7570  175.2990  143.9930 C   0  0  0  0  0  3  0  0  0  0  0  0
  186.4980  178.1280  138.0260 C   0  0  0  0  0  2  0  0  0  0  0  0
  186.7160  177.0430  136.9620 C   0  0  1  0  0  3  0  0  0  0  0  0
  187.2250  174.7400  136.8710 O   0  0  0  0  0  0  0  0  0  0  0  0
  187.1220  175.7370  137.5670 C   0  0  0  0  0  3  0  0  0  0  0  0
  185.4880  176.8510  136.0850 C   0  0  0  0  0  2  0  0  0  0  0  0
  184.2160  177.0790  136.8830 C   0  0  0  0  0  2  0  0  0  0  0  0
  183.6910  175.8570  137.3050 O   0  0  0  0  0  1  0  0  0  0  0  0
  1 18  1  0  0  0  0
  2 16  1  0  0  0  0
  3  7  1  0  0  0  0
  4  8  1  0  0  0  0
  5  7  1  0  0  0  0
  5  2  1  0  0  0  0
  6  4  1  0  0  0  0
  6  2  1  0  0  0  0
  7 19  1  0  0  0  0
  8 12  1  0  0  0  0
  9  6  1  0  0  0  0
 10  1  1  0  0  0  0
 13  9  1  0  0  0  0
 13  1  1  0  0  0  0
 14 15  1  0  0  0  0
 15  3  1  0  0  0  0
 16 12  1  0  0  0  0
 16 11  1  0  0  0  0
 17  9  1  0  0  0  0
 17  5  1  0  0  0  0
 18  4  1  0  0  0  0
 19 25  1  0  0  0  0
 19 23  1  0  0  0  0
 20  1  1  0  0  0  0
 21 22  1  0  0  0  0
 21 14  1  0  0  0  0
 22 17  1  0  0  0  0
 23 11  1  0  0  0  0
 24 25  1  0  0  0  0
 24 30  1  0  0  0  0
 25 26  1  0  0  0  0
 26 29  1  0  0  0  0
 28 29  1  0  0  0  0
 29 27  1  0  0  0  0
 30 28  2  0  0  0  0
 31 22  1  0  0  0  0
 32 34  1  0  0  0  0
 32 31  1  0  0  0  0
 33 34  2  0  0  0  0
 35 36  1  0  0  0  0
 35 32  1  0  0  0  0
 36 37  1  0  0  0  0
M  END
>  <MODEL>
6

>  <REMARK>
 VINA RESULT:      -8.7      3.076      6.770
  Name = 
  6 active torsions:
  status: ('A' for Active; 'I' for Inactive)
    1  A    between atoms: C_1  and  C_4
    2  A    between atoms: C_1  and  N_27
    3  A    between atoms: C_4  and  C_12
    4  A    between atoms: C_4  and  C_37
    5  A    between atoms: C_8  and  C_12
    6  A    between atoms: C_23  and  C_30
                            x       y       z     vdW  Elec       q    Type
                         _______ _______ _______ _____ _____    ______ ____

>  <TORSDO>
F 6

$$$$
=
 OpenBabel11122411443D

 37 42  0  0  1  0  0  0  0  0999 V2000
  185.8450  179.1270  146.7840 C   0  0  0  0  0  0  0  0  0  0  0  0
  186.1960  177.8270  143.2520 C   0  0  1  0  0  3  0  0  0  0  0  0
  189.0200  176.2490  142.2660 O   0  0  0  0  0  0  0  0  0  0  0  0
  184.4630  178.2900  145.1500 C   0  0  2  0  0  3  0  0  0  0  0  0
  187.7050  177.8780  143.4890 C   0  0  2  0  0  3  0  0  0  0  0  0
  185.6080  177.4250  144.6190 C   0  0  2  0  0  3  0  0  0  0  0  0
  188.5910  177.5860  142.2600 C   0  0  2  0  0  3  0  0  0  0  0  0
  183.5280  178.6280  144.0020 C   0  0  0  0  0  2  0  0  0  0  0  0
  186.7650  177.3470  145.6150 C   0  0  2  0  0  3  0  0  0  0  0  0
  185.2930  178.2370  147.7010 F   0  0  0  0  0  0  0  0  0  0  0  0
  185.9220  179.2320  141.2450 N   0  0  0  0  0  2  0  0  0  0  0  0
  184.2160  179.4920  142.9460 C   0  0  0  0  0  2  0  0  0  0  0  0
  187.0250  178.6080  146.2080 O   0  0  0  0  0  0  0  0  0  0  0  0
  190.8920  176.5430  143.4840 C   0  0  0  0  0  2  0  0  0  0  0  0
  190.3470  176.2830  142.1970 O   0  0  0  0  0  0  0  0  0  0  0  0
  185.6990  179.1760  142.6870 C   0  0  1  0  0  3  0  0  0  0  0  0
  187.9290  176.9690  144.7000 C   0  0  2  0  0  3  0  0  0  0  0  0
  184.9220  179.4690  145.7720 O   0  0  0  0  0  0  0  0  0  0  0  0
  187.9940  178.0000  140.8990 C   0  0  1  0  0  3  0  0  0  0  0  0
  186.1740  180.2820  147.4690 F   0  0  0  0  0  0  0  0  0  0  0  0
  190.0660  176.0060  144.6520 C   0  0  0  0  0  2  0  0  0  0  0  0
  189.2890  177.0820  145.2630 N   0  0  0  0  0  0  0  0  0  0  0  0
  187.3450  179.3780  140.9720 C   0  0  0  0  0  2  0  0  0  0  0  0
  188.4590  178.6240  138.4820 C   0  0  0  0  0  2  0  0  0  0  0  0
  189.0170  177.9810  139.7600 C   0  0  2  0  0  3  0  0  0  0  0  0
  189.6740  176.5940  139.5520 C   0  0  0  0  0  2  0  0  0  0  0  0
  190.6200  175.1040  137.9270 O   0  0  0  0  0  1  0  0  0  0  0  0
  190.0190  177.2660  137.1640 C   0  0  0  0  0  3  0  0  0  0  0  0
  189.6910  176.1300  138.0890 C   0  0  2  0  0  3  0  0  0  0  0  0
  189.4310  178.4530  137.3500 C   0  0  0  0  0  3  0  0  0  0  0  0
  189.2930  176.7800  146.6980 C   0  0  0  0  0  2  0  0  0  0  0  0
  190.1390  177.7830  147.4950 C   0  0  1  0  0  3  0  0  0  0  0  0
  188.3060  177.8780  148.9780 O   0  0  0  0  0  0  0  0  0  0  0  0
  189.4380  178.2560  148.7280 C   0  0  0  0  0  3  0  0  0  0  0  0
  191.5030  177.2150  147.8580 C   0  0  0  0  0  2  0  0  0  0  0  0
  191.5160  175.7040  147.6990 C   0  0  0  0  0  2  0  0  0  0  0  0
  192.7940  175.2730  147.3440 O   0  0  0  0  0  1  0  0  0  0  0  0
  1 20  1  0  0  0  0
  1 10  1  0  0  0  0
  2  5  1  0  0  0  0
  2  6  1  0  0  0  0
  4 18  1  0  0  0  0
  5 17  1  0  0  0  0
  6  4  1  0  0  0  0
  6  9  1  0  0  0  0
  7  3  1  0  0  0  0
  7  5  1  0  0  0  0
  8  4  1  0  0  0  0
  9 13  1  0  0  0  0
 11 16  1  0  0  0  0
 12  8  1  0  0  0  0
 13  1  1  0  0  0  0
 14 21  1  0  0  0  0
 15  3  1  0  0  0  0
 15 14  1  0  0  0  0
 16 12  1  0  0  0  0
 16  2  1  0  0  0  0
 17 22  1  0  0  0  0
 17  9  1  0  0  0  0
 18  1  1  0  0  0  0
 19 23  1  0  0  0  0
 19  7  1  0  0  0  0
 21 22  1  0  0  0  0
 22 31  1  0  0  0  0
 23 11  1  0  0  0  0
 24 25  1  0  0  0  0
 25 19  1  0  0  0  0
 26 25  1  0  0  0  0
 27 29  1  0  0  0  0
 28 30  2  0  0  0  0
 28 29  1  0  0  0  0
 29 26  1  0  0  0  0
 30 24  1  0  0  0  0
 31 32  1  0  0  0  0
 32 35  1  0  0  0  0
 32 34  1  0  0  0  0
 34 33  2  0  0  0  0
 36 35  1  0  0  0  0
 37 36  1  0  0  0  0
M  END
>  <MODEL>
7

>  <REMARK>
 VINA RESULT:      -8.7      3.041      7.086
  Name = 
  6 active torsions:
  status: ('A' for Active; 'I' for Inactive)
    1  A    between atoms: C_1  and  C_4
    2  A    between atoms: C_1  and  N_27
    3  A    between atoms: C_4  and  C_12
    4  A    between atoms: C_4  and  C_37
    5  A    between atoms: C_8  and  C_12
    6  A    between atoms: C_23  and  C_30
                            x       y       z     vdW  Elec       q    Type
                         _______ _______ _______ _____ _____    ______ ____

>  <TORSDO>
F 6

$$$$
=
 OpenBabel11122411443D

 37 42  0  0  1  0  0  0  0  0999 V2000
  182.7420  177.3110  139.2070 C   0  0  0  0  0  0  0  0  0  0  0  0
  185.4900  178.8740  141.2800 C   0  0  1  0  0  3  0  0  0  0  0  0
  188.6680  178.9890  140.1290 O   0  0  0  0  0  0  0  0  0  0  0  0
  182.9350  179.0000  140.7530 C   0  0  2  0  0  3  0  0  0  0  0  0
  186.4590  178.0380  140.4430 C   0  0  2  0  0  3  0  0  0  0  0  0
  184.3710  179.2620  140.2930 C   0  0  2  0  0  3  0  0  0  0  0  0
  187.9350  178.0680  140.8930 C   0  0  2  0  0  3  0  0  0  0  0  0
  182.8090  179.3820  142.2170 C   0  0  0  0  0  2  0  0  0  0  0  0
  184.6710  178.5760  138.9610 C   0  0  2  0  0  3  0  0  0  0  0  0
  182.0670  178.1760  138.3510 F   0  0  0  0  0  0  0  0  0  0  0  0
  186.0310  178.1750  143.5810 N   0  0  0  0  0  2  0  0  0  0  0  0
  183.6760  178.4950  143.1110 C   0  0  0  0  0  2  0  0  0  0  0  0
  184.1230  177.2700  138.9150 O   0  0  0  0  0  0  0  0  0  0  0  0
  189.2540  177.5940  138.4610 C   0  0  0  0  0  2  0  0  0  0  0  0
  189.6870  178.3150  139.6060 O   0  0  0  0  0  0  0  0  0  0  0  0
  185.0330  178.0740  142.5210 C   0  0  1  0  0  3  0  0  0  0  0  0
  186.1960  178.4840  139.0020 C   0  0  2  0  0  3  0  0  0  0  0  0
  182.5440  177.6590  140.5600 O   0  0  0  0  0  0  0  0  0  0  0  0
  188.1630  178.2560  142.4070 C   0  0  1  0  0  3  0  0  0  0  0  0
  182.2250  176.0440  139.0130 F   0  0  0  0  0  0  0  0  0  0  0  0
  188.1170  178.2510  137.6800 C   0  0  0  0  0  2  0  0  0  0  0  0
  186.8430  177.6120  138.0030 N   0  0  0  0  0  0  0  0  0  0  0  0
  187.2070  177.3940  143.2260 C   0  0  0  0  0  2  0  0  0  0  0  0
  190.0930  176.6080  142.3280 C   0  0  0  0  0  2  0  0  0  0  0  0
  189.6030  177.9690  142.8410 C   0  0  2  0  0  3  0  0  0  0  0  0
  189.8470  178.2160  144.3510 C   0  0  0  0  0  2  0  0  0  0  0  0
  191.1050  177.5130  146.2680 O   0  0  0  0  0  1  0  0  0  0  0  0
  191.6800  176.5170  144.1950 C   0  0  0  0  0  3  0  0  0  0  0  0
  190.5810  177.0680  145.0560 C   0  0  2  0  0  3  0  0  0  0  0  0
  191.4470  176.2960  142.8960 C   0  0  0  0  0  3  0  0  0  0  0  0
  186.0940  177.6090  136.7410 C   0  0  0  0  0  2  0  0  0  0  0  0
  186.0040  176.2050  136.1280 C   0  0  1  0  0  3  0  0  0  0  0  0
  188.0210  175.5880  135.0690 O   0  0  0  0  0  0  0  0  0  0  0  0
  186.9000  176.0510  134.9410 C   0  0  0  0  0  3  0  0  0  0  0  0
  186.3040  175.1180  137.1500 C   0  0  0  0  0  2  0  0  0  0  0  0
  185.1630  174.1190  137.2240 C   0  0  0  0  0  2  0  0  0  0  0  0
  185.5550  173.0000  137.9590 O   0  0  0  0  0  1  0  0  0  0  0  0
  1 18  1  0  0  0  0
  2 16  1  0  0  0  0
  3  7  1  0  0  0  0
  4  8  1  0  0  0  0
  5  7  1  0  0  0  0
  5  2  1  0  0  0  0
  6  4  1  0  0  0  0
  6  2  1  0  0  0  0
  7 19  1  0  0  0  0
  8 12  1  0  0  0  0
  9 17  1  0  0  0  0
  9  6  1  0  0  0  0
 10  1  1  0  0  0  0
 13  9  1  0  0  0  0
 13  1  1  0  0  0  0
 14 15  1  0  0  0  0
 15  3  1  0  0  0  0
 16 12  1  0  0  0  0
 16 11  1  0  0  0  0
 17  5  1  0  0  0  0
 18  4  1  0  0  0  0
 19 25  1  0  0  0  0
 19 23  1  0  0  0  0
 20  1  1  0  0  0  0
 21 22  1  0  0  0  0
 21 14  1  0  0  0  0
 22 17  1  0  0  0  0
 23 11  1  0  0  0  0
 24 25  1  0  0  0  0
 24 30  1  0  0  0  0
 25 26  1  0  0  0  0
 26 29  1  0  0  0  0
 28 29  1  0  0  0  0
 29 27  1  0  0  0  0
 30 28  2  0  0  0  0
 31 22  1  0  0  0  0
 32 31  1  0  0  0  0
 32 35  1  0  0  0  0
 34 33  2  0  0  0  0
 34 32  1  0  0  0  0
 35 36  1  0  0  0  0
 36 37  1  0  0  0  0
M  END
>  <MODEL>
8

>  <REMARK>
 VINA RESULT:      -8.6      3.420      6.843
  Name = 
  6 active torsions:
  status: ('A' for Active; 'I' for Inactive)
    1  A    between atoms: C_1  and  C_4
    2  A    between atoms: C_1  and  N_27
    3  A    between atoms: C_4  and  C_12
    4  A    between atoms: C_4  and  C_37
    5  A    between atoms: C_8  and  C_12
    6  A    between atoms: C_23  and  C_30
                            x       y       z     vdW  Elec       q    Type
                         _______ _______ _______ _____ _____    ______ ____

>  <TORSDO>
F 6

$$$$
=
 OpenBabel11122411443D

 37 42  0  0  1  0  0  0  0  0999 V2000
  189.4920  176.1540  142.9270 C   0  0  0  0  0  0  0  0  0  0  0  0
  186.7760  178.7400  142.4460 C   0  0  1  0  0  3  0  0  0  0  0  0
  184.6920  179.5460  144.9840 O   0  0  0  0  0  0  0  0  0  0  0  0
  189.1790  178.0610  141.6820 C   0  0  2  0  0  3  0  0  0  0  0  0
  186.0780  178.0830  143.6370 C   0  0  2  0  0  3  0  0  0  0  0  0
  188.2770  178.6330  142.7770 C   0  0  2  0  0  3  0  0  0  0  0  0
  184.6570  178.5960  143.9520 C   0  0  2  0  0  3  0  0  0  0  0  0
  188.7460  178.6270  140.3410 C   0  0  0  0  0  2  0  0  0  0  0  0
  188.4080  177.8490  144.0830 C   0  0  2  0  0  3  0  0  0  0  0  0
  190.7190  176.6450  143.3620 F   0  0  0  0  0  0  0  0  0  0  0  0
  185.0610  178.6070  140.6810 N   0  0  0  0  0  2  0  0  0  0  0  0
  187.3350  178.1770  139.9640 C   0  0  0  0  0  2  0  0  0  0  0  0
  188.4620  176.4530  143.8460 O   0  0  0  0  0  0  0  0  0  0  0  0
  184.5060  178.1160  146.7130 C   0  0  0  0  0  2  0  0  0  0  0  0
  183.8620  179.1070  145.9240 O   0  0  0  0  0  0  0  0  0  0  0  0
  186.3370  178.0600  141.1300 C   0  0  1  0  0  3  0  0  0  0  0  0
  187.0920  178.1940  144.7780 C   0  0  2  0  0  3  0  0  0  0  0  0
  189.1580  176.6510  141.6480 O   0  0  0  0  0  0  0  0  0  0  0  0
  183.8450  179.0860  142.7350 C   0  0  1  0  0  3  0  0  0  0  0  0
  189.6000  174.7800  142.8350 F   0  0  0  0  0  0  0  0  0  0  0  0
  186.0170  178.2920  146.8590 C   0  0  0  0  0  2  0  0  0  0  0  0
  186.7240  177.3850  145.9560 N   0  0  0  0  0  0  0  0  0  0  0  0
  183.9910  178.1380  141.5490 C   0  0  0  0  0  2  0  0  0  0  0  0
  181.8330  178.2350  144.0310 C   0  0  0  0  0  2  0  0  0  0  0  0
  182.3580  179.2870  143.0430 C   0  0  2  0  0  3  0  0  0  0  0  0
  181.4910  179.4720  141.7740 C   0  0  0  0  0  2  0  0  0  0  0  0
  179.3260  179.0920  140.8140 O   0  0  0  0  0  1  0  0  0  0  0  0
  179.5830  178.5470  143.1070 C   0  0  0  0  0  3  0  0  0  0  0  0
  180.2290  178.5990  141.7530 C   0  0  2  0  0  3  0  0  0  0  0  0
  180.3460  178.3720  144.1910 C   0  0  0  0  0  3  0  0  0  0  0  0
  187.9150  176.9670  146.7030 C   0  0  0  0  0  2  0  0  0  0  0  0
  188.8850  178.1340  146.9390 C   0  0  1  0  0  3  0  0  0  0  0  0
  188.2980  177.9260  149.2150 O   0  0  0  0  0  0  0  0  0  0  0  0
  188.9760  178.5060  148.3840 C   0  0  0  0  0  3  0  0  0  0  0  0
  190.2730  177.8400  146.3890 C   0  0  0  0  0  2  0  0  0  0  0  0
  190.8300  176.5610  146.9890 C   0  0  0  0  0  2  0  0  0  0  0  0
  192.0300  176.8250  147.6470 O   0  0  0  0  0  1  0  0  0  0  0  0
  1 10  1  0  0  0  0
  1 13  1  0  0  0  0
  2  6  1  0  0  0  0
  2  5  1  0  0  0  0
  3 15  1  0  0  0  0
  4  6  1  0  0  0  0
  5  7  1  0  0  0  0
  5 17  1  0  0  0  0
  6  9  1  0  0  0  0
  7  3  1  0  0  0  0
  8  4  1  0  0  0  0
  9 17  1  0  0  0  0
 11 16  1  0  0  0  0
 11 23  1  0  0  0  0
 12  8  1  0  0  0  0
 12 16  1  0  0  0  0
 13  9  1  0  0  0  0
 14 21  1  0  0  0  0
 15 14  1  0  0  0  0
 16  2  1  0  0  0  0
 17 22  1  0  0  0  0
 18  4  1  0  0  0  0
 18  1  1  0  0  0  0
 19 25  1  0  0  0  0
 19  7  1  0  0  0  0
 20  1  1  0  0  0  0
 22 31  1  0  0  0  0
 22 21  1  0  0  0  0
 23 19  1  0  0  0  0
 24 30  1  0  0  0  0
 25 24  1  0  0  0  0
 26 25  1  0  0  0  0
 27 29  1  0  0  0  0
 28 30  2  0  0  0  0
 29 26  1  0  0  0  0
 29 28  1  0  0  0  0
 31 32  1  0  0  0  0
 32 34  1  0  0  0  0
 34 33  2  0  0  0  0
 35 32  1  0  0  0  0
 35 36  1  0  0  0  0
 36 37  1  0  0  0  0
M  END
>  <MODEL>
9

>  <REMARK>
 VINA RESULT:      -8.4      2.157      5.188
  Name = 
  6 active torsions:
  status: ('A' for Active; 'I' for Inactive)
    1  A    between atoms: C_1  and  C_4
    2  A    between atoms: C_1  and  N_27
    3  A    between atoms: C_4  and  C_12
    4  A    between atoms: C_4  and  C_37
    5  A    between atoms: C_8  and  C_12
    6  A    between atoms: C_23  and  C_30
                            x       y       z     vdW  Elec       q    Type
                         _______ _______ _______ _____ _____    ______ ____

>  <TORSDO>
F 6

$$$$
