=
 OpenBabel11122410533D

 31 35  0  0  1  0  0  0  0  0999 V2000
  183.5860  179.0110  144.5560 C   0  0  0  0  0  0  0  0  0  0  0  0
  186.7030  178.6250  142.4860 N   0  0  0  0  0  0  0  0  0  0  0  0
  187.6820  177.9300  143.2920 C   0  0  0  0  0  0  0  0  0  0  0  0
  184.2270  177.4750  137.9930 O   0  0  0  0  0  0  0  0  0  0  0  0
  185.4340  177.7320  137.7420 C   0  0  0  0  0  0  0  0  0  0  0  0
  188.4510  177.1910  145.4200 C   0  0  0  0  0  0  0  0  0  0  0  0
  185.3230  178.7220  142.8860 C   0  0  0  0  0  0  0  0  0  0  0  0
  182.6090  178.8480  143.5700 C   0  0  0  0  0  3  0  0  0  0  0  0
  187.5440  177.8460  144.6450 N   0  0  0  0  0  0  0  0  0  0  0  0
  185.9610  178.4530  140.1390 C   0  0  0  0  0  0  0  0  0  0  0  0
  183.2210  179.2250  145.8430 F   0  0  0  0  0  0  0  0  0  0  0  0
  188.9180  177.3510  141.1880 C   0  0  0  0  0  2  0  0  0  0  0  0
  188.2590  177.1280  146.8930 C   0  0  0  0  0  1  0  0  0  0  0  0
  184.7260  178.3320  140.5390 N   0  0  0  0  0  0  0  0  0  0  0  0
  187.0040  179.0030  141.0880 C   0  0  2  0  0  3  0  0  0  0  0  0
  186.3110  178.2160  138.7690 N   0  0  0  0  0  2  0  0  0  0  0  0
  184.9410  178.9450  144.2170 C   0  0  0  0  0  3  0  0  0  0  0  0
  189.5570  176.5730  144.8350 C   0  0  0  0  0  3  0  0  0  0  0  0
  184.3360  178.5740  141.8980 C   0  0  0  0  0  0  0  0  0  0  0  0
  182.9820  178.6280  142.2420 C   0  0  0  0  0  3  0  0  0  0  0  0
  188.4490  178.7000  140.6630 C   0  0  0  0  0  2  0  0  0  0  0  0
  188.7880  177.3260  142.6740 C   0  0  0  0  0  0  0  0  0  0  0  0
  189.7210  176.6370  143.4500 C   0  0  0  0  0  3  0  0  0  0  0  0
  187.4290  175.0090  136.1830 C   0  0  1  0  0  3  0  0  0  0  0  0
  185.3160  176.2720  135.6890 C   0  0  0  0  0  2  0  0  0  0  0  0
  188.0270  178.6280  136.8430 C   0  0  0  0  0  1  0  0  0  0  0  0
  187.9670  173.8300  136.8360 N   0  0  0  0  0  1  0  0  0  0  0  0
  185.9070  174.9840  136.2630 C   0  0  0  0  0  2  0  0  0  0  0  0
  187.4230  177.4560  136.2240 N   0  0  0  0  0  0  0  0  0  0  0  0
  185.9510  177.5070  136.3410 C   0  0  2  0  0  3  0  0  0  0  0  0
  187.9650  176.2610  136.8730 C   0  0  0  0  0  2  0  0  0  0  0  0
  1 11  1  0  0  0  0
  2  7  1  0  0  0  0
  2  3  1  0  0  0  0
  3  9  1  0  0  0  0
  5  4  2  0  0  0  0
  5 16  1  0  0  0  0
  6 13  1  0  0  0  0
  7 17  2  0  0  0  0
  8  1  2  0  0  0  0
  9  6  2  0  0  0  0
 10 14  2  0  0  0  0
 10 15  1  0  0  0  0
 12 22  1  0  0  0  0
 14 19  1  0  0  0  0
 15 21  1  6  0  0  0
 15  2  1  0  0  0  0
 16 10  1  0  0  0  0
 17  1  1  0  0  0  0
 18  6  1  0  0  0  0
 19 20  2  0  0  0  0
 19  7  1  0  0  0  0
 20  8  1  0  0  0  0
 21 12  1  0  0  0  0
 22  3  2  0  0  0  0
 22 23  1  0  0  0  0
 23 18  2  0  0  0  0
 24 28  1  0  0  0  0
 24 27  1  1  0  0  0
 24 31  1  0  0  0  0
 25 28  1  0  0  0  0
 25 30  1  0  0  0  0
 29 30  1  0  0  0  0
 29 26  1  0  0  0  0
 29 31  1  0  0  0  0
 30  5  1  1  0  0  0
M  END
>  <MODEL>
1

>  <REMARK>
 VINA RESULT:      -9.0      0.000      0.000
  Name = 
  1 active torsions:
  status: ('A' for Active; 'I' for Inactive)
    1  A    between atoms: C_5  and  C_30
                            x       y       z     vdW  Elec       q    Type
                         _______ _______ _______ _____ _____    ______ ____

>  <TORSDO>
F 1

$$$$
=
 OpenBabel11122410533D

 31 35  0  0  1  0  0  0  0  0999 V2000
  184.5960  178.5450  144.7270 C   0  0  0  0  0  0  0  0  0  0  0  0
  188.2530  178.4590  143.8530 N   0  0  0  0  0  0  0  0  0  0  0  0
  188.9430  177.7720  144.9230 C   0  0  0  0  0  0  0  0  0  0  0  0
  187.5630  177.4440  138.7410 O   0  0  0  0  0  0  0  0  0  0  0  0
  188.7610  177.7830  138.9340 C   0  0  0  0  0  0  0  0  0  0  0  0
  188.9860  176.9510  147.1560 C   0  0  0  0  0  0  0  0  0  0  0  0
  186.8160  178.4550  143.7530 C   0  0  0  0  0  0  0  0  0  0  0  0
  184.0310  178.3880  143.4580 C   0  0  0  0  0  3  0  0  0  0  0  0
  188.3560  177.6000  146.1400 N   0  0  0  0  0  0  0  0  0  0  0  0
  188.3780  178.3870  141.3910 C   0  0  0  0  0  0  0  0  0  0  0  0
  183.7960  178.6610  145.8150 F   0  0  0  0  0  0  0  0  0  0  0  0
  190.8660  177.3900  143.3590 C   0  0  0  0  0  2  0  0  0  0  0  0
  188.3060  176.7900  148.4680 C   0  0  0  0  0  1  0  0  0  0  0  0
  187.0930  178.1730  141.3330 N   0  0  0  0  0  0  0  0  0  0  0  0
  188.9880  178.9360  142.6610 C   0  0  2  0  0  3  0  0  0  0  0  0
  189.1940  178.2520  140.2190 N   0  0  0  0  0  2  0  0  0  0  0  0
  185.9860  178.5760  144.8770 C   0  0  0  0  0  3  0  0  0  0  0  0
  190.2690  176.4320  146.9690 C   0  0  0  0  0  3  0  0  0  0  0  0
  186.2430  178.3110  142.4790 C   0  0  0  0  0  0  0  0  0  0  0  0
  184.8530  178.2690  142.3340 C   0  0  0  0  0  3  0  0  0  0  0  0
  190.5090  178.7400  142.7530 C   0  0  0  0  0  2  0  0  0  0  0  0
  190.2360  177.2690  144.7050 C   0  0  0  0  0  0  0  0  0  0  0  0
  190.8930  176.5880  145.7300 C   0  0  0  0  0  3  0  0  0  0  0  0
  189.1990  175.2990  136.2020 C   0  0  1  0  0  3  0  0  0  0  0  0
  189.0500  177.7950  136.4290 C   0  0  0  0  0  2  0  0  0  0  0  0
  191.2600  176.3510  139.1230 C   0  0  0  0  0  1  0  0  0  0  0  0
  188.4250  174.0920  135.9790 N   0  0  0  0  0  1  0  0  0  0  0  0
  188.2880  176.5160  136.0820 C   0  0  0  0  0  2  0  0  0  0  0  0
  190.6020  176.4700  137.8290 N   0  0  0  0  0  0  0  0  0  0  0  0
  189.7420  177.6710  137.7920 C   0  0  2  0  0  3  0  0  0  0  0  0
  189.8230  175.2530  137.5930 C   0  0  0  0  0  2  0  0  0  0  0  0
  1 17  1  0  0  0  0
  1 11  1  0  0  0  0
  2  3  1  0  0  0  0
  3  9  1  0  0  0  0
  4  5  2  0  0  0  0
  5 16  1  0  0  0  0
  6 13  1  0  0  0  0
  7  2  1  0  0  0  0
  7 17  2  0  0  0  0
  8  1  2  0  0  0  0
  9  6  2  0  0  0  0
 10 15  1  0  0  0  0
 12 22  1  0  0  0  0
 14 10  2  0  0  0  0
 14 19  1  0  0  0  0
 15 21  1  1  0  0  0
 15  2  1  0  0  0  0
 16 10  1  0  0  0  0
 18  6  1  0  0  0  0
 19  7  1  0  0  0  0
 20 19  2  0  0  0  0
 20  8  1  0  0  0  0
 21 12  1  0  0  0  0
 22  3  2  0  0  0  0
 22 23  1  0  0  0  0
 23 18  2  0  0  0  0
 24 27  1  1  0  0  0
 24 31  1  0  0  0  0
 25 30  1  0  0  0  0
 28 24  1  0  0  0  0
 28 25  1  0  0  0  0
 29 26  1  0  0  0  0
 30 29  1  0  0  0  0
 30  5  1  1  0  0  0
 31 29  1  0  0  0  0
M  END
>  <MODEL>
2

>  <REMARK>
 VINA RESULT:      -8.8      1.885      2.595
  Name = 
  1 active torsions:
  status: ('A' for Active; 'I' for Inactive)
    1  A    between atoms: C_5  and  C_30
                            x       y       z     vdW  Elec       q    Type
                         _______ _______ _______ _____ _____    ______ ____

>  <TORSDO>
F 1

$$$$
=
 OpenBabel11122410533D

 31 35  0  0  1  0  0  0  0  0999 V2000
  185.1070  178.7200  146.0040 C   0  0  0  0  0  0  0  0  0  0  0  0
  187.1610  178.5160  142.8600 N   0  0  0  0  0  0  0  0  0  0  0  0
  188.3600  177.7660  143.1670 C   0  0  0  0  0  0  0  0  0  0  0  0
  183.1050  177.7030  139.6160 O   0  0  0  0  0  0  0  0  0  0  0  0
  184.1250  177.9870  138.9340 C   0  0  0  0  0  0  0  0  0  0  0  0
  189.8780  176.8680  144.7650 C   0  0  0  0  0  0  0  0  0  0  0  0
  186.0490  178.5730  143.7730 C   0  0  0  0  0  0  0  0  0  0  0  0
  183.8190  178.6280  145.4680 C   0  0  0  0  0  3  0  0  0  0  0  0
  188.7580  177.5760  144.4560 N   0  0  0  0  0  0  0  0  0  0  0  0
  185.5610  178.5220  140.9820 C   0  0  0  0  0  0  0  0  0  0  0  0
  185.2770  178.8310  147.3440 F   0  0  0  0  0  0  0  0  0  0  0  0
  188.6650  177.3600  140.7110 C   0  0  0  0  0  2  0  0  0  0  0  0
  190.2730  176.6910  146.1880 C   0  0  0  0  0  1  0  0  0  0  0  0
  184.5770  178.3620  141.8220 N   0  0  0  0  0  0  0  0  0  0  0  0
  186.9040  179.0030  141.4870 C   0  0  2  0  0  3  0  0  0  0  0  0
  185.3440  178.3940  139.5710 N   0  0  0  0  0  2  0  0  0  0  0  0
  186.2210  178.6890  145.1600 C   0  0  0  0  0  3  0  0  0  0  0  0
  190.6540  176.3050  143.7510 C   0  0  0  0  0  3  0  0  0  0  0  0
  184.7520  178.4960  143.2390 C   0  0  0  0  0  0  0  0  0  0  0  0
  183.6400  178.5140  144.0870 C   0  0  0  0  0  3  0  0  0  0  0  0
  188.0620  178.7430  140.5110 C   0  0  0  0  0  2  0  0  0  0  0  0
  189.1230  177.2190  142.1230 C   0  0  0  0  0  0  0  0  0  0  0  0
  190.2670  176.4780  142.4210 C   0  0  0  0  0  3  0  0  0  0  0  0
  183.1630  175.2200  136.6440 C   0  0  1  0  0  3  0  0  0  0  0  0
  182.6120  177.6510  136.9450 C   0  0  0  0  0  2  0  0  0  0  0  0
  186.3240  177.0820  137.2980 C   0  0  0  0  0  1  0  0  0  0  0  0
  182.7690  173.8730  137.0100 N   0  0  0  0  0  1  0  0  0  0  0  0
  182.1590  176.2160  137.2130 C   0  0  0  0  0  2  0  0  0  0  0  0
  184.9590  176.8710  136.8370 N   0  0  0  0  0  0  0  0  0  0  0  0
  184.0500  177.8750  137.4300 C   0  0  2  0  0  3  0  0  0  0  0  0
  184.5550  175.5110  137.1980 C   0  0  0  0  0  2  0  0  0  0  0  0
  1 11  1  0  0  0  0
  2  3  1  0  0  0  0
  2  7  1  0  0  0  0
  3  9  1  0  0  0  0
  5 16  1  0  0  0  0
  5  4  2  0  0  0  0
  6 13  1  0  0  0  0
  7 17  1  0  0  0  0
  8  1  1  0  0  0  0
  9  6  2  0  0  0  0
 10 15  1  0  0  0  0
 10 14  2  0  0  0  0
 12 22  1  0  0  0  0
 14 19  1  0  0  0  0
 15 21  1  6  0  0  0
 15  2  1  0  0  0  0
 16 10  1  0  0  0  0
 17  1  2  0  0  0  0
 18  6  1  0  0  0  0
 19  7  2  0  0  0  0
 19 20  1  0  0  0  0
 20  8  2  0  0  0  0
 21 12  1  0  0  0  0
 22 23  1  0  0  0  0
 22  3  2  0  0  0  0
 23 18  2  0  0  0  0
 24 27  1  1  0  0  0
 24 31  1  0  0  0  0
 24 28  1  0  0  0  0
 25 28  1  0  0  0  0
 25 30  1  0  0  0  0
 29 31  1  0  0  0  0
 29 26  1  0  0  0  0
 29 30  1  0  0  0  0
 30  5  1  1  0  0  0
M  END
>  <MODEL>
3

>  <REMARK>
 VINA RESULT:      -8.7      1.823      2.230
  Name = 
  1 active torsions:
  status: ('A' for Active; 'I' for Inactive)
    1  A    between atoms: C_5  and  C_30
                            x       y       z     vdW  Elec       q    Type
                         _______ _______ _______ _____ _____    ______ ____

>  <TORSDO>
F 1

$$$$
=
 OpenBabel11122410533D

 31 35  0  0  1  0  0  0  0  0999 V2000
  186.7440  178.2530  147.3100 C   0  0  0  0  0  0  0  0  0  0  0  0
  187.9600  178.2380  143.7500 N   0  0  0  0  0  0  0  0  0  0  0  0
  189.1540  177.4230  143.6990 C   0  0  0  0  0  0  0  0  0  0  0  0
  183.2000  177.8450  141.5550 O   0  0  0  0  0  0  0  0  0  0  0  0
  184.0380  178.1470  140.6650 C   0  0  0  0  0  0  0  0  0  0  0  0
  190.9620  176.3410  144.8050 C   0  0  0  0  0  0  0  0  0  0  0  0
  187.1070  178.2590  144.9110 C   0  0  0  0  0  0  0  0  0  0  0  0
  185.3610  178.2530  147.1020 C   0  0  0  0  0  3  0  0  0  0  0  0
  189.8410  177.1120  144.8330 N   0  0  0  0  0  0  0  0  0  0  0  0
  185.9550  178.4580  142.3300 C   0  0  0  0  0  0  0  0  0  0  0  0
  187.2400  178.2460  148.5710 F   0  0  0  0  0  0  0  0  0  0  0  0
  188.8320  177.2120  141.2200 C   0  0  0  0  0  2  0  0  0  0  0  0
  191.6810  176.0320  146.0700 C   0  0  0  0  0  1  0  0  0  0  0  0
  185.1970  178.2640  143.3730 N   0  0  0  0  0  0  0  0  0  0  0  0
  187.4050  178.8470  142.5220 C   0  0  2  0  0  3  0  0  0  0  0  0
  185.3960  178.4560  141.0100 N   0  0  0  0  0  2  0  0  0  0  0  0
  187.6170  178.2530  146.2170 C   0  0  0  0  0  3  0  0  0  0  0  0
  191.4370  175.8370  143.5930 C   0  0  0  0  0  3  0  0  0  0  0  0
  185.7170  178.2730  144.7090 C   0  0  0  0  0  0  0  0  0  0  0  0
  184.8470  178.2610  145.8030 C   0  0  0  0  0  3  0  0  0  0  0  0
  188.2760  178.6280  141.2750 C   0  0  0  0  0  2  0  0  0  0  0  0
  189.6100  176.9370  142.4620 C   0  0  0  0  0  0  0  0  0  0  0  0
  190.7490  176.1340  142.4160 C   0  0  0  0  0  3  0  0  0  0  0  0
  180.8780  179.1760  138.9960 C   0  0  1  0  0  3  0  0  0  0  0  0
  183.3390  179.5900  138.7190 C   0  0  0  0  0  2  0  0  0  0  0  0
  182.6800  175.9380  139.3970 C   0  0  0  0  0  1  0  0  0  0  0  0
  179.6700  179.6670  139.6300 N   0  0  0  0  0  1  0  0  0  0  0  0
  182.0260  180.1410  139.2730 C   0  0  0  0  0  2  0  0  0  0  0  0
  182.4400  177.2930  138.9180 N   0  0  0  0  0  0  0  0  0  0  0  0
  183.5950  178.1640  139.2220 C   0  0  2  0  0  3  0  0  0  0  0  0
  181.2180  177.7940  139.5490 C   0  0  0  0  0  2  0  0  0  0  0  0
  1 11  1  0  0  0  0
  2  7  1  0  0  0  0
  3  2  1  0  0  0  0
  3  9  1  0  0  0  0
  5 16  1  0  0  0  0
  5  4  2  0  0  0  0
  6  9  2  0  0  0  0
  6 13  1  0  0  0  0
  7 17  1  0  0  0  0
  8  1  1  0  0  0  0
 10 15  1  0  0  0  0
 10 14  2  0  0  0  0
 12 21  1  0  0  0  0
 12 22  1  0  0  0  0
 14 19  1  0  0  0  0
 15 21  1  6  0  0  0
 15  2  1  0  0  0  0
 16 10  1  0  0  0  0
 17  1  2  0  0  0  0
 18  6  1  0  0  0  0
 19  7  2  0  0  0  0
 19 20  1  0  0  0  0
 20  8  2  0  0  0  0
 22  3  2  0  0  0  0
 23 22  1  0  0  0  0
 23 18  2  0  0  0  0
 24 28  1  0  0  0  0
 24 31  1  0  0  0  0
 24 27  1  1  0  0  0
 25 30  1  0  0  0  0
 25 28  1  0  0  0  0
 29 30  1  0  0  0  0
 29 26  1  0  0  0  0
 29 31  1  0  0  0  0
 30  5  1  1  0  0  0
M  END
>  <MODEL>
4

>  <REMARK>
 VINA RESULT:      -8.7      3.077      4.376
  Name = 
  1 active torsions:
  status: ('A' for Active; 'I' for Inactive)
    1  A    between atoms: C_5  and  C_30
                            x       y       z     vdW  Elec       q    Type
                         _______ _______ _______ _____ _____    ______ ____

>  <TORSDO>
F 1

$$$$
=
 OpenBabel11122410533D

 31 35  0  0  1  0  0  0  0  0999 V2000
  184.8890  178.9720  139.3190 C   0  0  0  0  0  0  0  0  0  0  0  0
  188.1350  178.0000  140.9520 N   0  0  0  0  0  0  0  0  0  0  0  0
  187.8630  177.7450  142.3500 C   0  0  0  0  0  0  0  0  0  0  0  0
  189.8610  175.0110  136.9870 O   0  0  0  0  0  0  0  0  0  0  0  0
  190.8130  175.2250  137.7840 C   0  0  0  0  0  0  0  0  0  0  0  0
  186.4420  177.9590  144.2470 C   0  0  0  0  0  0  0  0  0  0  0  0
  187.0740  178.1590  139.9910 C   0  0  0  0  0  0  0  0  0  0  0  0
  185.0490  178.3700  138.0670 C   0  0  0  0  0  3  0  0  0  0  0  0
  186.7180  178.1940  142.9350 N   0  0  0  0  0  0  0  0  0  0  0  0
  189.4740  176.8680  139.2180 C   0  0  0  0  0  0  0  0  0  0  0  0
  183.7530  179.6530  139.6030 F   0  0  0  0  0  0  0  0  0  0  0  0
  190.0150  176.4630  142.4740 C   0  0  0  0  0  2  0  0  0  0  0  0
  185.1800  178.4720  144.8420 C   0  0  0  0  0  1  0  0  0  0  0  0
  188.4320  176.8350  138.4350 N   0  0  0  0  0  0  0  0  0  0  0  0
  189.4940  177.8130  140.3980 C   0  0  2  0  0  3  0  0  0  0  0  0
  190.6590  176.1310  138.8860 N   0  0  0  0  0  2  0  0  0  0  0  0
  185.8980  178.8650  140.2810 C   0  0  0  0  0  3  0  0  0  0  0  0
  187.3380  177.2330  145.0330 C   0  0  0  0  0  3  0  0  0  0  0  0
  187.2350  177.5690  138.7260 C   0  0  0  0  0  0  0  0  0  0  0  0
  186.2190  177.6670  137.7710 C   0  0  0  0  0  3  0  0  0  0  0  0
  190.5500  177.4610  141.4570 C   0  0  0  0  0  2  0  0  0  0  0  0
  188.7890  177.0180  143.1160 C   0  0  0  0  0  0  0  0  0  0  0  0
  188.5160  176.7550  144.4580 C   0  0  0  0  0  3  0  0  0  0  0  0
  193.7290  175.8520  135.5620 C   0  0  1  0  0  3  0  0  0  0  0  0
  193.3230  175.3520  137.9900 C   0  0  0  0  0  2  0  0  0  0  0  0
  191.1720  173.1520  135.8080 C   0  0  0  0  0  1  0  0  0  0  0  0
  193.8810  176.9210  134.5940 N   0  0  0  0  0  1  0  0  0  0  0  0
  193.6040  176.4470  136.9610 C   0  0  0  0  0  2  0  0  0  0  0  0
  192.3140  173.9620  136.2080 N   0  0  0  0  0  0  0  0  0  0  0  0
  192.1190  174.4990  137.5710 C   0  0  2  0  0  3  0  0  0  0  0  0
  192.4800  175.0400  135.2320 C   0  0  0  0  0  2  0  0  0  0  0  0
  1 11  1  0  0  0  0
  1 17  1  0  0  0  0
  2  3  1  0  0  0  0
  3  9  2  0  0  0  0
  3 22  1  0  0  0  0
  4  5  2  0  0  0  0
  5 16  1  0  0  0  0
  6 13  1  0  0  0  0
  6 18  2  0  0  0  0
  7 17  2  0  0  0  0
  7  2  1  0  0  0  0
  8  1  2  0  0  0  0
  9  6  1  0  0  0  0
 10 15  1  0  0  0  0
 12 22  1  0  0  0  0
 14 19  1  0  0  0  0
 14 10  2  0  0  0  0
 15  2  1  0  0  0  0
 15 21  1  1  0  0  0
 16 10  1  0  0  0  0
 19  7  1  0  0  0  0
 20  8  1  0  0  0  0
 20 19  2  0  0  0  0
 21 12  1  0  0  0  0
 22 23  2  0  0  0  0
 23 18  1  0  0  0  0
 24 27  1  6  0  0  0
 24 28  1  0  0  0  0
 26 29  1  0  0  0  0
 28 25  1  0  0  0  0
 29 30  1  0  0  0  0
 30  5  1  6  0  0  0
 30 25  1  0  0  0  0
 31 24  1  0  0  0  0
 31 29  1  0  0  0  0
M  END
>  <MODEL>
5

>  <REMARK>
 VINA RESULT:      -8.7      3.439      4.911
  Name = 
  1 active torsions:
  status: ('A' for Active; 'I' for Inactive)
    1  A    between atoms: C_5  and  C_30
                            x       y       z     vdW  Elec       q    Type
                         _______ _______ _______ _____ _____    ______ ____

>  <TORSDO>
F 1

$$$$
=
 OpenBabel11122410533D

 31 35  0  0  1  0  0  0  0  0999 V2000
  189.3450  177.6060  141.8440 C   0  0  0  0  0  0  0  0  0  0  0  0
  185.7280  177.8890  142.8350 N   0  0  0  0  0  0  0  0  0  0  0  0
  185.6830  178.1820  144.2500 C   0  0  0  0  0  0  0  0  0  0  0  0
  184.1940  180.5010  138.5380 O   0  0  0  0  0  0  0  0  0  0  0  0
  183.1750  180.0920  139.1550 C   0  0  0  0  0  0  0  0  0  0  0  0
  186.7470  178.2440  146.3790 C   0  0  0  0  0  0  0  0  0  0  0  0
  186.9560  177.9550  142.0860 C   0  0  0  0  0  0  0  0  0  0  0  0
  189.3000  178.1730  140.5670 C   0  0  0  0  0  3  0  0  0  0  0  0
  186.7670  177.9690  145.0460 N   0  0  0  0  0  0  0  0  0  0  0  0
  184.5290  178.7420  140.8550 C   0  0  0  0  0  0  0  0  0  0  0  0
  190.5230  177.1650  142.3490 F   0  0  0  0  0  0  0  0  0  0  0  0
  183.3330  179.0030  143.9460 C   0  0  0  0  0  2  0  0  0  0  0  0
  187.9550  177.9910  147.2070 C   0  0  0  0  0  1  0  0  0  0  0  0
  185.6700  178.9910  140.2730 N   0  0  0  0  0  0  0  0  0  0  0  0
  184.4840  177.8020  142.0390 C   0  0  2  0  0  3  0  0  0  0  0  0
  183.3030  179.2270  140.2930 N   0  0  0  0  0  2  0  0  0  0  0  0
  188.1770  177.4990  142.6050 C   0  0  0  0  0  3  0  0  0  0  0  0
  185.5950  178.7680  146.9680 C   0  0  0  0  0  3  0  0  0  0  0  0
  186.9160  178.5110  140.7970 C   0  0  0  0  0  0  0  0  0  0  0  0
  188.0870  178.6280  140.0440 C   0  0  0  0  0  3  0  0  0  0  0  0
  183.2030  177.9260  142.8790 C   0  0  0  0  0  2  0  0  0  0  0  0
  184.5060  178.7010  144.8150 C   0  0  0  0  0  0  0  0  0  0  0  0
  184.4700  179.0030  146.1760 C   0  0  0  0  0  3  0  0  0  0  0  0
  179.7270  178.9060  139.8850 C   0  0  1  0  0  3  0  0  0  0  0  0
  180.9640  181.0910  139.8430 C   0  0  0  0  0  2  0  0  0  0  0  0
  181.8560  179.0070  136.8280 C   0  0  0  0  0  1  0  0  0  0  0  0
  179.3420  177.7910  140.7300 N   0  0  0  0  0  1  0  0  0  0  0  0
  180.4410  179.9580  140.7270 C   0  0  0  0  0  2  0  0  0  0  0  0
  181.0520  179.5300  137.9250 N   0  0  0  0  0  0  0  0  0  0  0  0
  181.8110  180.5420  138.6880 C   0  0  2  0  0  3  0  0  0  0  0  0
  180.6540  178.4100  138.7790 C   0  0  0  0  0  2  0  0  0  0  0  0
  1 11  1  0  0  0  0
  1 17  1  0  0  0  0
  2  3  1  0  0  0  0
  3 22  2  0  0  0  0
  3  9  1  0  0  0  0
  4  5  2  0  0  0  0
  5 16  1  0  0  0  0
  6 18  1  0  0  0  0
  6 13  1  0  0  0  0
  7 17  2  0  0  0  0
  7  2  1  0  0  0  0
  8  1  2  0  0  0  0
  9  6  2  0  0  0  0
 10 15  1  0  0  0  0
 12 22  1  0  0  0  0
 14 19  1  0  0  0  0
 14 10  2  0  0  0  0
 15  2  1  0  0  0  0
 15 21  1  1  0  0  0
 16 10  1  0  0  0  0
 19  7  1  0  0  0  0
 20  8  1  0  0  0  0
 20 19  2  0  0  0  0
 21 12  1  0  0  0  0
 22 23  1  0  0  0  0
 23 18  2  0  0  0  0
 24 28  1  0  0  0  0
 24 27  1  1  0  0  0
 25 28  1  0  0  0  0
 26 29  1  0  0  0  0
 29 30  1  0  0  0  0
 29 31  1  0  0  0  0
 30  5  1  1  0  0  0
 30 25  1  0  0  0  0
 31 24  1  0  0  0  0
M  END
>  <MODEL>
6

>  <REMARK>
 VINA RESULT:      -8.6      3.194      5.556
  Name = 
  1 active torsions:
  status: ('A' for Active; 'I' for Inactive)
    1  A    between atoms: C_5  and  C_30
                            x       y       z     vdW  Elec       q    Type
                         _______ _______ _______ _____ _____    ______ ____

>  <TORSDO>
F 1

$$$$
=
 OpenBabel11122410533D

 31 35  0  0  1  0  0  0  0  0999 V2000
  185.1350  178.7450  146.0230 C   0  0  0  0  0  0  0  0  0  0  0  0
  186.9550  178.4710  142.7430 N   0  0  0  0  0  0  0  0  0  0  0  0
  188.1780  177.7370  142.9800 C   0  0  0  0  0  0  0  0  0  0  0  0
  182.6780  177.5490  139.8280 O   0  0  0  0  0  0  0  0  0  0  0  0
  183.6420  177.8210  139.0660 C   0  0  0  0  0  0  0  0  0  0  0  0
  189.8170  176.8910  144.4850 C   0  0  0  0  0  0  0  0  0  0  0  0
  185.9120  178.5460  143.7330 C   0  0  0  0  0  0  0  0  0  0  0  0
  183.8120  178.6320  145.5860 C   0  0  0  0  0  3  0  0  0  0  0  0
  188.6710  177.5830  144.2410 N   0  0  0  0  0  0  0  0  0  0  0  0
  185.2210  178.4190  140.9890 C   0  0  0  0  0  0  0  0  0  0  0  0
  185.4020  178.8930  147.3440 F   0  0  0  0  0  0  0  0  0  0  0  0
  188.3060  177.2690  140.5200 C   0  0  0  0  0  2  0  0  0  0  0  0
  190.3170  176.7530  145.8780 C   0  0  0  0  0  1  0  0  0  0  0  0
  184.3020  178.2750  141.9020 N   0  0  0  0  0  0  0  0  0  0  0  0
  186.5930  178.9210  141.3810 C   0  0  2  0  0  3  0  0  0  0  0  0
  184.9020  178.2530  139.6010 N   0  0  0  0  0  2  0  0  0  0  0  0
  186.1840  178.6990  145.1000 C   0  0  0  0  0  3  0  0  0  0  0  0
  190.5200  176.3050  143.4310 C   0  0  0  0  0  3  0  0  0  0  0  0
  184.5790  178.4470  143.2990 C   0  0  0  0  0  0  0  0  0  0  0  0
  183.5330  178.4810  144.2250 C   0  0  0  0  0  3  0  0  0  0  0  0
  187.6790  178.6420  140.3290 C   0  0  0  0  0  2  0  0  0  0  0  0
  188.8670  177.1670  141.8970 C   0  0  0  0  0  0  0  0  0  0  0  0
  190.0360  176.4410  142.1300 C   0  0  0  0  0  3  0  0  0  0  0  0
  180.9610  176.3020  136.9850 C   0  0  1  0  0  3  0  0  0  0  0  0
  182.2460  178.4580  137.0660 C   0  0  0  0  0  2  0  0  0  0  0  0
  184.5570  175.5220  137.5800 C   0  0  0  0  0  1  0  0  0  0  0  0
  179.7610  175.6330  137.4510 N   0  0  0  0  0  1  0  0  0  0  0  0
  180.9390  177.7570  137.4390 C   0  0  0  0  0  2  0  0  0  0  0  0
  183.4060  176.2720  137.0960 N   0  0  0  0  0  0  0  0  0  0  0  0
  183.4580  177.6690  137.5750 C   0  0  2  0  0  3  0  0  0  0  0  0
  182.1900  175.6000  137.5560 C   0  0  0  0  0  2  0  0  0  0  0  0
  1 11  1  0  0  0  0
  2  3  1  0  0  0  0
  2  7  1  0  0  0  0
  3  9  1  0  0  0  0
  5 16  1  0  0  0  0
  5  4  2  0  0  0  0
  6 13  1  0  0  0  0
  7 17  1  0  0  0  0
  8  1  1  0  0  0  0
  9  6  2  0  0  0  0
 10 15  1  0  0  0  0
 10 14  2  0  0  0  0
 12 22  1  0  0  0  0
 14 19  1  0  0  0  0
 15 21  1  6  0  0  0
 15  2  1  0  0  0  0
 16 10  1  0  0  0  0
 17  1  2  0  0  0  0
 18  6  1  0  0  0  0
 19  7  2  0  0  0  0
 19 20  1  0  0  0  0
 20  8  2  0  0  0  0
 21 12  1  0  0  0  0
 22 23  1  0  0  0  0
 22  3  2  0  0  0  0
 23 18  2  0  0  0  0
 24 28  1  0  0  0  0
 24 27  1  1  0  0  0
 24 31  1  0  0  0  0
 25 28  1  0  0  0  0
 25 30  1  0  0  0  0
 29 31  1  0  0  0  0
 29 30  1  0  0  0  0
 29 26  1  0  0  0  0
 30  5  1  1  0  0  0
M  END
>  <MODEL>
7

>  <REMARK>
 VINA RESULT:      -8.4      2.345      3.156
  Name = 
  1 active torsions:
  status: ('A' for Active; 'I' for Inactive)
    1  A    between atoms: C_5  and  C_30
                            x       y       z     vdW  Elec       q    Type
                         _______ _______ _______ _____ _____    ______ ____

>  <TORSDO>
F 1

$$$$
=
 OpenBabel11122410533D

 31 35  0  0  1  0  0  0  0  0999 V2000
  181.3970  178.9510  143.0630 C   0  0  0  0  0  0  0  0  0  0  0  0
  185.0440  178.8650  142.1490 N   0  0  0  0  0  0  0  0  0  0  0  0
  185.7750  178.3960  143.3050 C   0  0  0  0  0  0  0  0  0  0  0  0
  184.3390  176.9800  137.2920 O   0  0  0  0  0  0  0  0  0  0  0  0
  185.5230  177.3940  137.4040 C   0  0  0  0  0  0  0  0  0  0  0  0
  185.8790  177.9630  145.6440 C   0  0  0  0  0  0  0  0  0  0  0  0
  183.6080  178.7870  142.0780 C   0  0  0  0  0  0  0  0  0  0  0  0
  180.8250  178.5600  141.8490 C   0  0  0  0  0  3  0  0  0  0  0  0
  185.2100  178.4060  144.5450 N   0  0  0  0  0  0  0  0  0  0  0  0
  185.1440  178.3860  139.7310 C   0  0  0  0  0  0  0  0  0  0  0  0
  180.6060  179.2160  144.1310 F   0  0  0  0  0  0  0  0  0  0  0  0
  187.6940  177.8340  141.7920 C   0  0  0  0  0  2  0  0  0  0  0  0
  185.2210  177.9980  146.9760 C   0  0  0  0  0  1  0  0  0  0  0  0
  183.8680  178.1140  139.7340 N   0  0  0  0  0  0  0  0  0  0  0  0
  185.7440  179.1640  140.8810 C   0  0  2  0  0  3  0  0  0  0  0  0
  185.9510  178.0890  138.5840 N   0  0  0  0  0  2  0  0  0  0  0  0
  182.7860  179.0610  143.1800 C   0  0  0  0  0  3  0  0  0  0  0  0
  187.1800  177.4720  145.5220 C   0  0  0  0  0  3  0  0  0  0  0  0
  183.0260  178.4090  140.8560 C   0  0  0  0  0  0  0  0  0  0  0  0
  181.6380  178.2870  140.7460 C   0  0  0  0  0  3  0  0  0  0  0  0
  187.2740  179.0470  140.9760 C   0  0  0  0  0  2  0  0  0  0  0  0
  187.0860  177.9150  143.1510 C   0  0  0  0  0  0  0  0  0  0  0  0
  187.7820  177.4430  144.2630 C   0  0  0  0  0  3  0  0  0  0  0  0
  188.9930  176.0590  137.3120 C   0  0  1  0  0  3  0  0  0  0  0  0
  186.8150  175.6380  136.1360 C   0  0  0  0  0  2  0  0  0  0  0  0
  187.4400  179.3420  136.4750 C   0  0  0  0  0  1  0  0  0  0  0  0
  189.8120  175.6640  138.4420 N   0  0  0  0  0  1  0  0  0  0  0  0
  187.7570  175.1700  137.2450 C   0  0  0  0  0  2  0  0  0  0  0  0
  187.7410  177.9240  136.3380 N   0  0  0  0  0  0  0  0  0  0  0  0
  186.4950  177.1310  136.2790 C   0  0  2  0  0  3  0  0  0  0  0  0
  188.5740  177.5180  137.4720 C   0  0  0  0  0  2  0  0  0  0  0  0
  1 17  1  0  0  0  0
  1 11  1  0  0  0  0
  2  3  1  0  0  0  0
  3  9  1  0  0  0  0
  4  5  2  0  0  0  0
  5 16  1  0  0  0  0
  6 13  1  0  0  0  0
  7  2  1  0  0  0  0
  7 17  2  0  0  0  0
  8  1  2  0  0  0  0
  9  6  2  0  0  0  0
 10 14  2  0  0  0  0
 10 15  1  0  0  0  0
 12 22  1  0  0  0  0
 14 19  1  0  0  0  0
 15 21  1  1  0  0  0
 15  2  1  0  0  0  0
 16 10  1  0  0  0  0
 18  6  1  0  0  0  0
 19  7  1  0  0  0  0
 20 19  2  0  0  0  0
 20  8  1  0  0  0  0
 21 12  1  0  0  0  0
 22  3  2  0  0  0  0
 22 23  1  0  0  0  0
 23 18  2  0  0  0  0
 24 31  1  0  0  0  0
 24 27  1  1  0  0  0
 25 30  1  0  0  0  0
 25 28  1  0  0  0  0
 28 24  1  0  0  0  0
 29 26  1  0  0  0  0
 29 31  1  0  0  0  0
 30 29  1  0  0  0  0
 30  5  1  1  0  0  0
M  END
>  <MODEL>
8

>  <REMARK>
 VINA RESULT:      -8.3      1.515      1.959
  Name = 
  1 active torsions:
  status: ('A' for Active; 'I' for Inactive)
    1  A    between atoms: C_5  and  C_30
                            x       y       z     vdW  Elec       q    Type
                         _______ _______ _______ _____ _____    ______ ____

>  <TORSDO>
F 1

$$$$
=
 OpenBabel11122410533D

 31 35  0  0  1  0  0  0  0  0999 V2000
  191.2830  176.4150  144.5740 C   0  0  0  0  0  0  0  0  0  0  0  0
  187.6240  177.2450  144.3170 N   0  0  0  0  0  0  0  0  0  0  0  0
  187.2350  177.8970  145.5490 C   0  0  0  0  0  0  0  0  0  0  0  0
  187.7680  178.7760  139.2910 O   0  0  0  0  0  0  0  0  0  0  0  0
  186.5680  178.6280  139.6390 C   0  0  0  0  0  0  0  0  0  0  0  0
  187.6640  178.4180  147.8310 C   0  0  0  0  0  0  0  0  0  0  0  0
  189.0060  177.0130  143.9870 C   0  0  0  0  0  0  0  0  0  0  0  0
  191.6830  176.6340  143.2520 C   0  0  0  0  0  3  0  0  0  0  0  0
  188.0090  177.8070  146.6660 N   0  0  0  0  0  0  0  0  0  0  0  0
  187.1700  177.6550  141.9280 C   0  0  0  0  0  0  0  0  0  0  0  0
  192.1910  176.0230  145.5000 F   0  0  0  0  0  0  0  0  0  0  0  0
  185.2200  178.8040  144.3630 C   0  0  0  0  0  2  0  0  0  0  0  0
  188.5410  178.2880  149.0250 C   0  0  0  0  0  1  0  0  0  0  0  0
  188.4510  177.6490  141.6840 N   0  0  0  0  0  0  0  0  0  0  0  0
  186.6510  177.0600  143.2180 C   0  0  2  0  0  3  0  0  0  0  0  0
  186.2380  178.0790  140.9240 N   0  0  0  0  0  2  0  0  0  0  0  0
  189.9480  176.6060  144.9430 C   0  0  0  0  0  3  0  0  0  0  0  0
  186.4910  179.1710  147.9070 C   0  0  0  0  0  3  0  0  0  0  0  0
  189.4120  177.2180  142.6580 C   0  0  0  0  0  0  0  0  0  0  0  0
  190.7490  177.0380  142.2950 C   0  0  0  0  0  3  0  0  0  0  0  0
  185.2240  177.5030  143.5750 C   0  0  0  0  0  2  0  0  0  0  0  0
  186.0440  178.6400  145.5950 C   0  0  0  0  0  0  0  0  0  0  0  0
  185.6810  179.2860  146.7770 C   0  0  0  0  0  3  0  0  0  0  0  0
  183.2610  177.1700  138.7620 C   0  0  1  0  0  3  0  0  0  0  0  0
  184.1800  179.4100  139.4300 C   0  0  0  0  0  2  0  0  0  0  0  0
  186.4280  177.7620  136.8900 C   0  0  0  0  0  1  0  0  0  0  0  0
  182.6800  175.9410  139.2690 N   0  0  0  0  0  1  0  0  0  0  0  0
  183.4600  178.1510  139.9130 C   0  0  0  0  0  2  0  0  0  0  0  0
  185.2000  178.1010  137.5940 N   0  0  0  0  0  0  0  0  0  0  0  0
  185.4750  179.0540  138.6890 C   0  0  2  0  0  3  0  0  0  0  0  0
  184.6030  176.8650  138.1030 C   0  0  0  0  0  2  0  0  0  0  0  0
  1 17  1  0  0  0  0
  1 11  1  0  0  0  0
  2  3  1  0  0  0  0
  3 22  2  0  0  0  0
  3  9  1  0  0  0  0
  4  5  2  0  0  0  0
  5 16  1  0  0  0  0
  6 18  1  0  0  0  0
  6 13  1  0  0  0  0
  7  2  1  0  0  0  0
  7 17  2  0  0  0  0
  8  1  2  0  0  0  0
  9  6  2  0  0  0  0
 10 15  1  0  0  0  0
 12 22  1  0  0  0  0
 14 10  2  0  0  0  0
 14 19  1  0  0  0  0
 15 21  1  1  0  0  0
 15  2  1  0  0  0  0
 16 10  1  0  0  0  0
 19  7  1  0  0  0  0
 20 19  2  0  0  0  0
 20  8  1  0  0  0  0
 21 12  1  0  0  0  0
 22 23  1  0  0  0  0
 23 18  2  0  0  0  0
 24 27  1  1  0  0  0
 24 28  1  0  0  0  0
 25 28  1  0  0  0  0
 26 29  1  0  0  0  0
 29 31  1  0  0  0  0
 29 30  1  0  0  0  0
 30 25  1  0  0  0  0
 30  5  1  1  0  0  0
 31 24  1  0  0  0  0
M  END
>  <MODEL>
9

>  <REMARK>
 VINA RESULT:      -8.2      2.679      4.907
  Name = 
  1 active torsions:
  status: ('A' for Active; 'I' for Inactive)
    1  A    between atoms: C_5  and  C_30
                            x       y       z     vdW  Elec       q    Type
                         _______ _______ _______ _____ _____    ______ ____

>  <TORSDO>
F 1

$$$$
