=
 OpenBabel11122411063D

 31 35  0  0  1  0  0  0  0  0999 V2000
  190.0750  175.9910  142.8340 C   0  0  0  0  0  0  0  0  0  0  0  0
  186.4930  177.1550  143.3800 C   0  0  2  0  0  3  0  0  0  0  0  0
  186.4820  177.9010  144.7090 C   0  0  0  0  0  0  0  0  0  0  0  0
  187.4740  178.2930  146.9000 C   0  0  0  0  0  0  0  0  0  0  0  0
  187.8750  177.0200  142.7770 C   0  0  0  0  0  0  0  0  0  0  0  0
  190.4790  176.7820  141.7580 C   0  0  0  0  0  3  0  0  0  0  0  0
  187.5070  177.6840  145.6440 C   0  0  0  0  0  3  0  0  0  0  0  0
  186.0530  179.0070  141.7200 C   0  0  2  0  0  3  0  0  0  0  0  0
  190.9420  175.1120  143.3910 F   0  0  0  0  0  0  0  0  0  0  0  0
  184.2510  179.0030  144.1430 C   0  0  0  0  0  2  0  0  0  0  0  0
  188.5780  178.0610  147.8670 C   0  0  0  0  0  1  0  0  0  0  0  0
  187.3210  178.6870  140.9300 C   0  0  0  0  0  2  0  0  0  0  0  0
  185.4910  177.7300  142.3610 C   0  0  2  0  0  3  0  0  0  0  0  0
  188.7780  176.1080  143.3380 C   0  0  0  0  0  3  0  0  0  0  0  0
  186.4030  179.1160  147.2470 C   0  0  0  0  0  3  0  0  0  0  0  0
  188.2840  177.8130  141.6800 C   0  0  0  0  0  0  0  0  0  0  0  0
  189.5830  177.6820  141.1780 C   0  0  0  0  0  3  0  0  0  0  0  0
  184.1380  177.9600  143.0350 C   0  0  0  0  0  2  0  0  0  0  0  0
  185.3800  178.7070  145.0860 C   0  0  0  0  0  0  0  0  0  0  0  0
  185.3600  179.3230  146.3420 C   0  0  0  0  0  3  0  0  0  0  0  0
  184.7310  177.6610  139.5720 O   0  0  0  0  0  0  0  0  0  0  0  0
  184.4360  178.8700  139.7720 C   0  0  0  0  0  0  0  0  0  0  0  0
  185.0670  179.6000  140.8280 N   0  0  0  0  0  2  0  0  0  0  0  0
  180.8280  178.4160  139.4120 C   0  0  0  0  0  0  0  0  0  0  0  0
  182.3920  180.3290  139.6700 C   0  0  0  0  0  2  0  0  0  0  0  0
  183.7590  177.8190  137.0300 C   0  0  0  0  0  1  0  0  0  0  0  0
  179.6300  178.1920  139.3890 O   0  0  0  0  0  0  0  0  0  0  0  0
  181.3910  179.4130  140.3790 C   0  0  0  0  0  2  0  0  0  0  0  0
  182.7530  178.5920  137.8650 C   0  0  2  0  0  3  0  0  0  0  0  0
  183.4360  179.5390  138.8720 C   0  0  2  0  0  3  0  0  0  0  0  0
  181.7590  177.6410  138.5310 C   0  0  0  0  0  2  0  0  0  0  0  0
  1 14  1  0  0  0  0
  1  9  1  0  0  0  0
  2  5  1  6  0  0  0
  2  3  1  0  0  0  0
  3 19  2  0  0  0  0
  3  7  1  0  0  0  0
  4 15  1  0  0  0  0
  4 11  1  0  0  0  0
  5 14  2  0  0  0  0
  6  1  2  0  0  0  0
  7  4  2  0  0  0  0
  8 23  1  6  0  0  0
  8 13  1  0  0  0  0
 10 19  1  0  0  0  0
 12 16  1  0  0  0  0
 12  8  1  0  0  0  0
 13 18  1  1  0  0  0
 13  2  1  0  0  0  0
 16  5  1  0  0  0  0
 17 16  2  0  0  0  0
 17  6  1  0  0  0  0
 18 10  1  0  0  0  0
 19 20  1  0  0  0  0
 20 15  2  0  0  0  0
 21 22  2  0  0  0  0
 22 23  1  0  0  0  0
 24 28  1  0  0  0  0
 25 28  1  0  0  0  0
 27 24  2  0  0  0  0
 29 26  1  1  0  0  0
 29 31  1  0  0  0  0
 29 30  1  0  0  0  0
 30 25  1  0  0  0  0
 30 22  1  1  0  0  0
 31 24  1  0  0  0  0
M  END
>  <MODEL>
1

>  <REMARK>
 VINA RESULT:      -9.6      0.000      0.000
  Name = 
  2 active torsions:
  status: ('A' for Active; 'I' for Inactive)
    1  A    between atoms: C_5  and  C_30
    2  A    between atoms: C_10  and  N_16
                            x       y       z     vdW  Elec       q    Type
                         _______ _______ _______ _____ _____    ______ ____

>  <TORSDO>
F 2

$$$$
=
 OpenBabel11122411063D

 31 35  0  0  1  0  0  0  0  0999 V2000
  191.1590  176.3270  143.7040 C   0  0  0  0  0  0  0  0  0  0  0  0
  187.4200  177.0320  143.7960 C   0  0  2  0  0  3  0  0  0  0  0  0
  187.1570  177.7880  145.0930 C   0  0  0  0  0  0  0  0  0  0  0  0
  187.8250  178.3300  147.3730 C   0  0  0  0  0  0  0  0  0  0  0  0
  188.8700  177.0660  143.3620 C   0  0  0  0  0  0  0  0  0  0  0  0
  191.5860  177.1500  142.6610 C   0  0  0  0  0  3  0  0  0  0  0  0
  188.0830  177.7140  146.1480 C   0  0  0  0  0  3  0  0  0  0  0  0
  186.9530  178.7920  142.0450 C   0  0  2  0  0  3  0  0  0  0  0  0
  192.0560  175.5730  144.3830 F   0  0  0  0  0  0  0  0  0  0  0  0
  184.8900  178.5890  144.2410 C   0  0  0  0  0  2  0  0  0  0  0  0
  188.8250  178.2530  148.4680 C   0  0  0  0  0  1  0  0  0  0  0  0
  188.3360  178.6260  141.4180 C   0  0  0  0  0  2  0  0  0  0  0  0
  186.4830  177.4620  142.6510 C   0  0  2  0  0  3  0  0  0  0  0  0
  189.8070  176.2840  144.0500 C   0  0  0  0  0  3  0  0  0  0  0  0
  186.6250  179.0140  147.5710 C   0  0  0  0  0  3  0  0  0  0  0  0
  189.3050  177.8920  142.3000 C   0  0  0  0  0  0  0  0  0  0  0  0
  190.6600  177.9210  141.9560 C   0  0  0  0  0  3  0  0  0  0  0  0
  185.0410  177.5260  143.1570 C   0  0  0  0  0  2  0  0  0  0  0  0
  185.9260  178.4510  145.3170 C   0  0  0  0  0  0  0  0  0  0  0  0
  185.6800  179.0750  146.5450 C   0  0  0  0  0  3  0  0  0  0  0  0
  186.6490  177.6550  139.4400 O   0  0  0  0  0  0  0  0  0  0  0  0
  185.9070  178.6280  139.7420 C   0  0  0  0  0  0  0  0  0  0  0  0
  186.0150  179.2440  141.0290 N   0  0  0  0  0  2  0  0  0  0  0  0
  182.4840  177.6240  138.9510 C   0  0  0  0  0  0  0  0  0  0  0  0
  183.6880  179.7530  139.3890 C   0  0  0  0  0  2  0  0  0  0  0  0
  185.7360  177.5260  136.9420 C   0  0  0  0  0  1  0  0  0  0  0  0
  181.3470  177.2170  138.7840 O   0  0  0  0  0  0  0  0  0  0  0  0
  182.7640  178.6810  139.9750 C   0  0  0  0  0  2  0  0  0  0  0  0
  184.5290  178.1210  137.6460 C   0  0  2  0  0  3  0  0  0  0  0  0
  184.9310  179.1470  138.7250 C   0  0  2  0  0  3  0  0  0  0  0  0
  183.6230  177.0170  138.1910 C   0  0  0  0  0  2  0  0  0  0  0  0
  1 14  1  0  0  0  0
  1  9  1  0  0  0  0
  2  5  1  6  0  0  0
  2  3  1  0  0  0  0
  3 19  2  0  0  0  0
  3  7  1  0  0  0  0
  4 15  1  0  0  0  0
  4 11  1  0  0  0  0
  5 14  2  0  0  0  0
  6  1  2  0  0  0  0
  7  4  2  0  0  0  0
  8 23  1  6  0  0  0
  8 13  1  0  0  0  0
 10 19  1  0  0  0  0
 12  8  1  0  0  0  0
 12 16  1  0  0  0  0
 13 18  1  1  0  0  0
 13  2  1  0  0  0  0
 16  5  1  0  0  0  0
 17 16  2  0  0  0  0
 17  6  1  0  0  0  0
 18 10  1  0  0  0  0
 19 20  1  0  0  0  0
 20 15  2  0  0  0  0
 21 22  2  0  0  0  0
 22 23  1  0  0  0  0
 24 28  1  0  0  0  0
 25 28  1  0  0  0  0
 27 24  2  0  0  0  0
 29 26  1  1  0  0  0
 29 31  1  0  0  0  0
 29 30  1  0  0  0  0
 30 25  1  0  0  0  0
 30 22  1  1  0  0  0
 31 24  1  0  0  0  0
M  END
>  <MODEL>
2

>  <REMARK>
 VINA RESULT:      -9.5      1.172      1.332
  Name = 
  2 active torsions:
  status: ('A' for Active; 'I' for Inactive)
    1  A    between atoms: C_5  and  C_30
    2  A    between atoms: C_10  and  N_16
                            x       y       z     vdW  Elec       q    Type
                         _______ _______ _______ _____ _____    ______ ____

>  <TORSDO>
F 2

$$$$
=
 OpenBabel11122411063D

 31 35  0  0  1  0  0  0  0  0999 V2000
  191.3290  176.5740  144.9500 C   0  0  0  0  0  0  0  0  0  0  0  0
  187.7100  177.0270  143.8640 C   0  0  2  0  0  3  0  0  0  0  0  0
  187.0240  177.8160  144.9720 C   0  0  0  0  0  0  0  0  0  0  0  0
  186.9340  178.4980  147.3110 C   0  0  0  0  0  0  0  0  0  0  0  0
  189.2190  177.1410  143.8870 C   0  0  0  0  0  0  0  0  0  0  0  0
  192.0110  177.3800  144.0370 C   0  0  0  0  0  3  0  0  0  0  0  0
  187.5860  177.8500  146.2600 C   0  0  0  0  0  3  0  0  0  0  0  0
  187.7090  178.6760  141.9500 C   0  0  2  0  0  3  0  0  0  0  0  0
  192.0140  175.9120  145.9120 F   0  0  0  0  0  0  0  0  0  0  0  0
  185.0870  178.4250  143.4280 C   0  0  0  0  0  2  0  0  0  0  0  0
  187.5550  178.5350  148.6590 C   0  0  0  0  0  1  0  0  0  0  0  0
  189.2240  178.5780  141.7820 C   0  0  0  0  0  2  0  0  0  0  0  0
  187.1460  177.3430  142.4650 C   0  0  2  0  0  3  0  0  0  0  0  0
  189.9400  176.4540  144.8730 C   0  0  0  0  0  3  0  0  0  0  0  0
  185.6970  179.1060  147.0940 C   0  0  0  0  0  3  0  0  0  0  0  0
  189.9140  177.9490  142.9580 C   0  0  0  0  0  0  0  0  0  0  0  0
  191.3060  178.0560  143.0390 C   0  0  0  0  0  3  0  0  0  0  0  0
  185.6180  177.3310  142.5070 C   0  0  0  0  0  2  0  0  0  0  0  0
  185.7510  178.4040  144.7730 C   0  0  0  0  0  0  0  0  0  0  0  0
  185.1100  179.0600  145.8290 C   0  0  0  0  0  3  0  0  0  0  0  0
  188.0780  177.2520  139.5000 O   0  0  0  0  0  0  0  0  0  0  0  0
  187.3250  178.2620  139.4800 C   0  0  0  0  0  0  0  0  0  0  0  0
  187.1030  179.0200  140.6720 N   0  0  0  0  0  2  0  0  0  0  0  0
  186.3850  176.3210  136.5290 C   0  0  0  0  0  0  0  0  0  0  0  0
  185.3120  178.0170  137.9950 C   0  0  0  0  0  2  0  0  0  0  0  0
  188.9280  179.1230  137.0780 C   0  0  0  0  0  1  0  0  0  0  0  0
  186.1000  175.5750  135.6080 O   0  0  0  0  0  0  0  0  0  0  0  0
  185.4240  176.5270  137.6600 C   0  0  0  0  0  2  0  0  0  0  0  0
  187.5710  178.4550  136.9390 C   0  0  2  0  0  3  0  0  0  0  0  0
  186.6860  178.6730  138.1830 C   0  0  2  0  0  3  0  0  0  0  0  0
  187.7300  176.9780  136.5790 C   0  0  0  0  0  2  0  0  0  0  0  0
  1  9  1  0  0  0  0
  2  5  1  6  0  0  0
  2  3  1  0  0  0  0
  3  7  1  0  0  0  0
  4 11  1  0  0  0  0
  5 14  2  0  0  0  0
  6  1  2  0  0  0  0
  7  4  2  0  0  0  0
  8 23  1  6  0  0  0
  8 13  1  0  0  0  0
 10 19  1  0  0  0  0
 12  8  1  0  0  0  0
 12 16  1  0  0  0  0
 13 18  1  1  0  0  0
 13  2  1  0  0  0  0
 14  1  1  0  0  0  0
 15  4  1  0  0  0  0
 16 17  2  0  0  0  0
 16  5  1  0  0  0  0
 17  6  1  0  0  0  0
 18 10  1  0  0  0  0
 19  3  2  0  0  0  0
 19 20  1  0  0  0  0
 20 15  2  0  0  0  0
 22 21  2  0  0  0  0
 22 23  1  0  0  0  0
 24 31  1  0  0  0  0
 24 28  1  0  0  0  0
 25 30  1  0  0  0  0
 27 24  2  0  0  0  0
 28 25  1  0  0  0  0
 29 26  1  1  0  0  0
 29 30  1  0  0  0  0
 30 22  1  1  0  0  0
 31 29  1  0  0  0  0
M  END
>  <MODEL>
3

>  <REMARK>
 VINA RESULT:      -9.0      2.587      3.336
  Name = 
  2 active torsions:
  status: ('A' for Active; 'I' for Inactive)
    1  A    between atoms: C_5  and  C_30
    2  A    between atoms: C_10  and  N_16
                            x       y       z     vdW  Elec       q    Type
                         _______ _______ _______ _____ _____    ______ ____

>  <TORSDO>
F 2

$$$$
=
 OpenBabel11122411063D

 31 35  0  0  1  0  0  0  0  0999 V2000
  189.8270  176.3500  142.4280 C   0  0  0  0  0  0  0  0  0  0  0  0
  186.7030  177.0920  144.4710 C   0  0  2  0  0  3  0  0  0  0  0  0
  187.1830  177.6930  145.7870 C   0  0  0  0  0  0  0  0  0  0  0  0
  188.9430  177.9510  147.4530 C   0  0  0  0  0  0  0  0  0  0  0  0
  187.7360  177.1570  143.3670 C   0  0  0  0  0  0  0  0  0  0  0  0
  189.7300  177.2850  141.3950 C   0  0  0  0  0  3  0  0  0  0  0  0
  188.5050  177.4820  146.2130 C   0  0  0  0  0  3  0  0  0  0  0  0
  185.5480  179.0530  143.3760 C   0  0  2  0  0  3  0  0  0  0  0  0
  190.8870  175.5090  142.4820 F   0  0  0  0  0  0  0  0  0  0  0  0
  184.8590  178.6210  146.2840 C   0  0  0  0  0  2  0  0  0  0  0  0
  190.3500  177.7310  147.8750 C   0  0  0  0  0  1  0  0  0  0  0  0
  186.4120  178.9430  142.1210 C   0  0  0  0  0  2  0  0  0  0  0  0
  185.3520  177.6670  144.0070 C   0  0  2  0  0  3  0  0  0  0  0  0
  188.8330  176.2860  143.4060 C   0  0  0  0  0  3  0  0  0  0  0  0
  188.0580  178.6240  148.2960 C   0  0  0  0  0  3  0  0  0  0  0  0
  187.6370  178.0960  142.3150 C   0  0  0  0  0  0  0  0  0  0  0  0
  188.6330  178.1470  141.3350 C   0  0  0  0  0  3  0  0  0  0  0  0
  184.3680  177.6920  145.1780 C   0  0  0  0  0  2  0  0  0  0  0  0
  186.2830  178.3420  146.6660 C   0  0  0  0  0  0  0  0  0  0  0  0
  186.7330  178.8190  147.9020 C   0  0  0  0  0  3  0  0  0  0  0  0
  183.6000  177.8640  141.6550 O   0  0  0  0  0  0  0  0  0  0  0  0
  183.3250  178.9860  142.1600 C   0  0  0  0  0  0  0  0  0  0  0  0
  184.2600  179.6350  143.0250 N   0  0  0  0  0  2  0  0  0  0  0  0
  179.9980  177.5840  141.5900 C   0  0  0  0  0  0  0  0  0  0  0  0
  180.9750  179.4380  142.9260 C   0  0  0  0  0  2  0  0  0  0  0  0
  182.4360  179.4620  139.3190 C   0  0  0  0  0  1  0  0  0  0  0  0
  178.9340  177.0100  141.4360 O   0  0  0  0  0  0  0  0  0  0  0  0
  180.4380  178.0040  142.9590 C   0  0  0  0  0  2  0  0  0  0  0  0
  181.4410  179.2390  140.4460 C   0  0  2  0  0  3  0  0  0  0  0  0
  182.0160  179.6410  141.8190 C   0  0  2  0  0  3  0  0  0  0  0  0
  180.9130  177.8050  140.4240 C   0  0  0  0  0  2  0  0  0  0  0  0
  1  9  1  0  0  0  0
  1 14  1  0  0  0  0
  2  5  1  6  0  0  0
  2  3  1  0  0  0  0
  3  7  2  0  0  0  0
  3 19  1  0  0  0  0
  4 11  1  0  0  0  0
  4 15  2  0  0  0  0
  5 14  2  0  0  0  0
  6  1  2  0  0  0  0
  7  4  1  0  0  0  0
  8 23  1  6  0  0  0
  8 13  1  0  0  0  0
 10 19  1  0  0  0  0
 12 16  1  0  0  0  0
 12  8  1  0  0  0  0
 13  2  1  0  0  0  0
 13 18  1  1  0  0  0
 16  5  1  0  0  0  0
 17  6  1  0  0  0  0
 17 16  2  0  0  0  0
 18 10  1  0  0  0  0
 19 20  2  0  0  0  0
 20 15  1  0  0  0  0
 21 22  2  0  0  0  0
 22 23  1  0  0  0  0
 24 28  1  0  0  0  0
 25 28  1  0  0  0  0
 27 24  2  0  0  0  0
 29 26  1  6  0  0  0
 29 30  1  0  0  0  0
 30 22  1  1  0  0  0
 30 25  1  0  0  0  0
 31 29  1  0  0  0  0
 31 24  1  0  0  0  0
M  END
>  <MODEL>
4

>  <REMARK>
 VINA RESULT:      -8.9      1.453      2.060
  Name = 
  2 active torsions:
  status: ('A' for Active; 'I' for Inactive)
    1  A    between atoms: C_5  and  C_30
    2  A    between atoms: C_10  and  N_16
                            x       y       z     vdW  Elec       q    Type
                         _______ _______ _______ _____ _____    ______ ____

>  <TORSDO>
F 2

$$$$
=
 OpenBabel11122411063D

 31 35  0  0  1  0  0  0  0  0999 V2000
  193.2820  174.9940  135.7480 C   0  0  0  0  0  0  0  0  0  0  0  0
  190.0950  176.7690  136.8340 C   0  0  2  0  0  3  0  0  0  0  0  0
  188.9640  175.7610  136.6670 C   0  0  0  0  0  0  0  0  0  0  0  0
  188.0810  173.7640  135.5860 C   0  0  0  0  0  0  0  0  0  0  0  0
  191.4660  176.1320  136.8950 C   0  0  0  0  0  0  0  0  0  0  0  0
  193.9690  174.8620  136.9570 C   0  0  0  0  0  3  0  0  0  0  0  0
  189.1300  174.6540  135.8180 C   0  0  0  0  0  3  0  0  0  0  0  0
  190.2120  177.0370  139.3420 C   0  0  2  0  0  3  0  0  0  0  0  0
  193.8210  174.5050  134.6070 F   0  0  0  0  0  0  0  0  0  0  0  0
  187.4300  177.1390  138.1700 C   0  0  0  0  0  2  0  0  0  0  0  0
  188.2850  172.5910  134.6980 C   0  0  0  0  0  1  0  0  0  0  0  0
  191.6920  176.6620  139.3780 C   0  0  0  0  0  2  0  0  0  0  0  0
  189.8720  177.7310  138.0160 C   0  0  2  0  0  3  0  0  0  0  0  0
  192.0380  175.6290  135.7190 C   0  0  0  0  0  3  0  0  0  0  0  0
  186.8400  173.9780  136.1860 C   0  0  0  0  0  3  0  0  0  0  0  0
  192.1690  176.0040  138.1150 C   0  0  0  0  0  0  0  0  0  0  0  0
  193.4180  175.3740  138.1330 C   0  0  0  0  0  3  0  0  0  0  0  0
  188.4400  178.2680  137.9860 C   0  0  0  0  0  2  0  0  0  0  0  0
  187.6890  175.9910  137.2410 C   0  0  0  0  0  0  0  0  0  0  0  0
  186.6470  175.0870  137.0120 C   0  0  0  0  0  3  0  0  0  0  0  0
  190.0970  176.2470  142.0870 O   0  0  0  0  0  0  0  0  0  0  0  0
  189.8730  177.4580  141.8190 C   0  0  0  0  0  0  0  0  0  0  0  0
  189.9100  177.9150  140.4640 N   0  0  0  0  0  2  0  0  0  0  0  0
  190.2740  177.1590  145.4390 C   0  0  0  0  0  0  0  0  0  0  0  0
  190.7950  178.8520  143.6950 C   0  0  0  0  0  2  0  0  0  0  0  0
  187.1920  177.4700  143.1970 C   0  0  0  0  0  1  0  0  0  0  0  0
  190.4690  176.9570  146.6250 O   0  0  0  0  0  0  0  0  0  0  0  0
  191.3600  177.7390  144.5840 C   0  0  0  0  0  2  0  0  0  0  0  0
  188.4650  177.8870  143.9130 C   0  0  2  0  0  3  0  0  0  0  0  0
  189.5400  178.4060  142.9360 C   0  0  2  0  0  3  0  0  0  0  0  0
  188.9770  176.7580  144.8070 C   0  0  0  0  0  2  0  0  0  0  0  0
  1  6  1  0  0  0  0
  2  3  1  1  0  0  0
  2  5  1  0  0  0  0
  2 13  1  0  0  0  0
  3 19  1  0  0  0  0
  4  7  1  0  0  0  0
  4 15  2  0  0  0  0
  5 16  2  0  0  0  0
  6 17  2  0  0  0  0
  7  3  2  0  0  0  0
  8 12  1  0  0  0  0
  8 23  1  1  0  0  0
  9  1  1  0  0  0  0
 11  4  1  0  0  0  0
 13 18  1  1  0  0  0
 13  8  1  0  0  0  0
 14  1  2  0  0  0  0
 14  5  1  0  0  0  0
 15 20  1  0  0  0  0
 16 17  1  0  0  0  0
 16 12  1  0  0  0  0
 18 10  1  0  0  0  0
 19 10  1  0  0  0  0
 20 19  2  0  0  0  0
 22 21  2  0  0  0  0
 23 22  1  0  0  0  0
 24 27  2  0  0  0  0
 25 28  1  0  0  0  0
 28 24  1  0  0  0  0
 29 26  1  6  0  0  0
 29 31  1  0  0  0  0
 30 22  1  6  0  0  0
 30 25  1  0  0  0  0
 30 29  1  0  0  0  0
 31 24  1  0  0  0  0
M  END
>  <MODEL>
5

>  <REMARK>
 VINA RESULT:      -8.5      4.855      8.694
  Name = 
  2 active torsions:
  status: ('A' for Active; 'I' for Inactive)
    1  A    between atoms: C_5  and  C_30
    2  A    between atoms: C_10  and  N_16
                            x       y       z     vdW  Elec       q    Type
                         _______ _______ _______ _____ _____    ______ ____

>  <TORSDO>
F 2

$$$$
=
 OpenBabel11122411063D

 31 35  0  0  1  0  0  0  0  0999 V2000
  188.6150  178.1700  142.4410 C   0  0  0  0  0  0  0  0  0  0  0  0
  185.7740  179.0330  140.0600 C   0  0  2  0  0  3  0  0  0  0  0  0
  185.9170  178.0990  138.8640 C   0  0  0  0  0  0  0  0  0  0  0  0
  187.3270  176.6850  137.4680 C   0  0  0  0  0  0  0  0  0  0  0  0
  186.5070  178.5500  141.2920 C   0  0  0  0  0  0  0  0  0  0  0  0
  187.9320  177.5950  143.5140 C   0  0  0  0  0  3  0  0  0  0  0  0
  187.1500  177.4780  138.6020 C   0  0  0  0  0  3  0  0  0  0  0  0
  183.6360  178.2160  141.1270 C   0  0  2  0  0  3  0  0  0  0  0  0
  189.9650  178.2620  142.4680 F   0  0  0  0  0  0  0  0  0  0  0  0
  183.5190  178.5680  138.1300 C   0  0  0  0  0  2  0  0  0  0  0  0
  188.6350  176.0250  137.2200 C   0  0  0  0  0  1  0  0  0  0  0  0
  184.3200  177.9900  142.4740 C   0  0  0  0  0  2  0  0  0  0  0  0
  184.3070  179.3770  140.3800 C   0  0  2  0  0  3  0  0  0  0  0  0
  187.9040  178.6480  141.3370 C   0  0  0  0  0  3  0  0  0  0  0  0
  186.2780  176.5150  136.5640 C   0  0  0  0  0  3  0  0  0  0  0  0
  185.8180  177.9760  142.3850 C   0  0  0  0  0  0  0  0  0  0  0  0
  186.5390  177.5080  143.4890 C   0  0  0  0  0  3  0  0  0  0  0  0
  183.5680  179.7500  139.0940 C   0  0  0  0  0  2  0  0  0  0  0  0
  184.8700  177.9520  137.9210 C   0  0  0  0  0  0  0  0  0  0  0  0
  185.0530  177.1460  136.7920 C   0  0  0  0  0  3  0  0  0  0  0  0
  181.4530  176.6090  140.2180 O   0  0  0  0  0  0  0  0  0  0  0  0
  181.1780  177.6540  140.8670 C   0  0  0  0  0  0  0  0  0  0  0  0
  182.2250  178.5030  141.3450 N   0  0  0  0  0  2  0  0  0  0  0  0
  179.4580  180.8780  140.9050 C   0  0  0  0  0  0  0  0  0  0  0  0
  179.0960  178.6480  139.8700 C   0  0  0  0  0  2  0  0  0  0  0  0
  180.0870  178.2520  143.6120 C   0  0  0  0  0  1  0  0  0  0  0  0
  178.9880  182.0030  140.8770 O   0  0  0  0  0  0  0  0  0  0  0  0
  179.5840  180.0820  139.6420 C   0  0  0  0  0  2  0  0  0  0  0  0
  179.4950  178.8750  142.3590 C   0  0  2  0  0  3  0  0  0  0  0  0
  179.7370  178.0080  141.1070 C   0  0  2  0  0  3  0  0  0  0  0  0
  179.9870  180.3120  142.1860 C   0  0  0  0  0  2  0  0  0  0  0  0
  1  9  1  0  0  0  0
  1  6  1  0  0  0  0
  2  3  1  6  0  0  0
  2 13  1  0  0  0  0
  2  5  1  0  0  0  0
  4  7  2  0  0  0  0
  5 14  1  0  0  0  0
  5 16  2  0  0  0  0
  7  3  1  0  0  0  0
  8 23  1  1  0  0  0
  8 12  1  0  0  0  0
 10 18  1  0  0  0  0
 11  4  1  0  0  0  0
 13 18  1  6  0  0  0
 13  8  1  0  0  0  0
 14  1  2  0  0  0  0
 15 20  2  0  0  0  0
 15  4  1  0  0  0  0
 16 12  1  0  0  0  0
 16 17  1  0  0  0  0
 17  6  2  0  0  0  0
 19 10  1  0  0  0  0
 19  3  2  0  0  0  0
 20 19  1  0  0  0  0
 21 22  2  0  0  0  0
 22 23  1  0  0  0  0
 24 31  1  0  0  0  0
 25 30  1  0  0  0  0
 27 24  2  0  0  0  0
 28 25  1  0  0  0  0
 28 24  1  0  0  0  0
 29 26  1  1  0  0  0
 30 22  1  6  0  0  0
 30 29  1  0  0  0  0
 31 29  1  0  0  0  0
M  END
>  <MODEL>
6

>  <REMARK>
 VINA RESULT:      -8.2      2.266      5.510
  Name = 
  2 active torsions:
  status: ('A' for Active; 'I' for Inactive)
    1  A    between atoms: C_5  and  C_30
    2  A    between atoms: C_10  and  N_16
                            x       y       z     vdW  Elec       q    Type
                         _______ _______ _______ _____ _____    ______ ____

>  <TORSDO>
F 2

$$$$
=
 OpenBabel11122411063D

 31 35  0  0  1  0  0  0  0  0999 V2000
  190.6480  176.7580  146.1510 C   0  0  0  0  0  0  0  0  0  0  0  0
  187.8630  177.0930  143.5790 C   0  0  2  0  0  3  0  0  0  0  0  0
  186.7830  177.9530  144.2240 C   0  0  0  0  0  0  0  0  0  0  0  0
  185.7070  178.8000  146.2400 C   0  0  0  0  0  0  0  0  0  0  0  0
  189.2160  177.2240  144.2440 C   0  0  0  0  0  0  0  0  0  0  0  0
  191.6750  177.5030  145.5690 C   0  0  0  0  0  3  0  0  0  0  0  0
  186.7340  178.0850  145.6220 C   0  0  0  0  0  3  0  0  0  0  0  0
  188.7240  178.5990  141.7440 C   0  0  2  0  0  3  0  0  0  0  0  0
  190.8360  176.1740  147.3590 F   0  0  0  0  0  0  0  0  0  0  0  0
  185.7170  178.4280  141.9560 C   0  0  0  0  0  2  0  0  0  0  0  0
  185.6850  178.9410  147.7190 C   0  0  0  0  0  1  0  0  0  0  0  0
  190.1610  178.5050  142.2540 C   0  0  0  0  0  2  0  0  0  0  0  0
  187.9660  177.3010  142.0560 C   0  0  2  0  0  3  0  0  0  0  0  0
  189.4260  176.6170  145.4900 C   0  0  0  0  0  3  0  0  0  0  0  0
  184.6980  179.3780  145.4690 C   0  0  0  0  0  3  0  0  0  0  0  0
  190.2620  177.9700  143.6530 C   0  0  0  0  0  0  0  0  0  0  0  0
  191.4840  178.0970  144.3200 C   0  0  0  0  0  3  0  0  0  0  0  0
  186.5690  177.2750  141.4330 C   0  0  0  0  0  2  0  0  0  0  0  0
  185.7340  178.5100  143.4540 C   0  0  0  0  0  0  0  0  0  0  0  0
  184.7140  179.2340  144.0800 C   0  0  0  0  0  3  0  0  0  0  0  0
  189.8760  176.8760  139.7750 O   0  0  0  0  0  0  0  0  0  0  0  0
  189.3270  177.9370  139.3730 C   0  0  0  0  0  0  0  0  0  0  0  0
  188.7370  178.8430  140.3090 N   0  0  0  0  0  2  0  0  0  0  0  0
  187.5910  176.3570  136.5710 C   0  0  0  0  0  0  0  0  0  0  0  0
  187.9350  178.6700  137.4130 C   0  0  0  0  0  2  0  0  0  0  0  0
  191.2970  176.7100  137.4490 C   0  0  0  0  0  1  0  0  0  0  0  0
  186.9530  175.7640  135.7190 O   0  0  0  0  0  0  0  0  0  0  0  0
  186.9670  177.4870  137.3330 C   0  0  0  0  0  2  0  0  0  0  0  0
  189.9030  177.1280  137.0130 C   0  0  2  0  0  3  0  0  0  0  0  0
  189.3260  178.2480  137.9020 C   0  0  2  0  0  3  0  0  0  0  0  0
  188.9780  175.9130  136.9220 C   0  0  0  0  0  2  0  0  0  0  0  0
  1  9  1  0  0  0  0
  2  3  1  1  0  0  0
  2  5  1  0  0  0  0
  3  7  1  0  0  0  0
  4 11  1  0  0  0  0
  5 14  1  0  0  0  0
  6  1  1  0  0  0  0
  7  4  2  0  0  0  0
  8 23  1  6  0  0  0
  8 13  1  0  0  0  0
  8 12  1  0  0  0  0
 10 19  1  0  0  0  0
 12 16  1  0  0  0  0
 13 18  1  1  0  0  0
 13  2  1  0  0  0  0
 14  1  2  0  0  0  0
 15  4  1  0  0  0  0
 16  5  2  0  0  0  0
 16 17  1  0  0  0  0
 17  6  2  0  0  0  0
 18 10  1  0  0  0  0
 19 20  1  0  0  0  0
 19  3  2  0  0  0  0
 20 15  2  0  0  0  0
 22 21  2  0  0  0  0
 22 23  1  0  0  0  0
 24 31  1  0  0  0  0
 24 28  1  0  0  0  0
 25 30  1  0  0  0  0
 27 24  2  0  0  0  0
 28 25  1  0  0  0  0
 29 26  1  1  0  0  0
 29 30  1  0  0  0  0
 30 22  1  1  0  0  0
 31 29  1  0  0  0  0
M  END
>  <MODEL>
7

>  <REMARK>
 VINA RESULT:      -8.1      3.189      4.521
  Name = 
  2 active torsions:
  status: ('A' for Active; 'I' for Inactive)
    1  A    between atoms: C_5  and  C_30
    2  A    between atoms: C_10  and  N_16
                            x       y       z     vdW  Elec       q    Type
                         _______ _______ _______ _____ _____    ______ ____

>  <TORSDO>
F 2

$$$$
=
 OpenBabel11122411063D

 31 35  0  0  1  0  0  0  0  0999 V2000
  183.5660  179.0030  143.2460 C   0  0  0  0  0  0  0  0  0  0  0  0
  183.0840  177.7550  139.6830 C   0  0  2  0  0  3  0  0  0  0  0  0
  182.1730  178.7640  138.9940 C   0  0  0  0  0  0  0  0  0  0  0  0
  180.4640  180.4940  139.1530 C   0  0  0  0  0  0  0  0  0  0  0  0
  183.7520  178.2970  140.9280 C   0  0  0  0  0  0  0  0  0  0  0  0
  184.9110  179.3780  143.2440 C   0  0  0  0  0  3  0  0  0  0  0  0
  181.3660  179.6200  139.7620 C   0  0  0  0  0  3  0  0  0  0  0  0
  185.2750  178.0940  138.4730 C   0  0  2  0  0  3  0  0  0  0  0  0
  182.8190  179.1660  144.3630 F   0  0  0  0  0  0  0  0  0  0  0  0
  182.8450  177.8930  136.6910 C   0  0  0  0  0  2  0  0  0  0  0  0
  179.6330  181.4010  139.9850 C   0  0  0  0  0  1  0  0  0  0  0  0
  186.0240  178.3690  139.7760 C   0  0  0  0  0  2  0  0  0  0  0  0
  184.1120  177.1230  138.7260 C   0  0  2  0  0  3  0  0  0  0  0  0
  182.9920  178.4620  142.0930 C   0  0  0  0  0  3  0  0  0  0  0  0
  180.3420  180.5130  137.7640 C   0  0  0  0  0  3  0  0  0  0  0  0
  185.1160  178.6700  140.9330 C   0  0  0  0  0  0  0  0  0  0  0  0
  185.6840  179.2020  142.0940 C   0  0  0  0  0  3  0  0  0  0  0  0
  183.4210  176.6900  137.4320 C   0  0  0  0  0  2  0  0  0  0  0  0
  182.0130  178.7640  137.5860 C   0  0  0  0  0  0  0  0  0  0  0  0
  181.1150  179.6520  136.9840 C   0  0  0  0  0  3  0  0  0  0  0  0
  187.0990  179.5930  136.8630 O   0  0  0  0  0  0  0  0  0  0  0  0
  187.0910  178.3410  136.7230 C   0  0  0  0  0  0  0  0  0  0  0  0
  186.1970  177.5350  137.4960 N   0  0  0  0  0  2  0  0  0  0  0  0
  187.5940  174.8500  135.7640 C   0  0  0  0  0  0  0  0  0  0  0  0
  187.2320  177.0120  134.5940 C   0  0  0  0  0  2  0  0  0  0  0  0
  189.8810  177.4340  137.4120 C   0  0  0  0  0  1  0  0  0  0  0  0
  187.6670  173.6590  135.5140 O   0  0  0  0  0  0  0  0  0  0  0  0
  186.5830  175.7080  135.0660 C   0  0  0  0  0  2  0  0  0  0  0  0
  189.0650  176.7630  136.3210 C   0  0  2  0  0  3  0  0  0  0  0  0
  188.0110  177.7110  135.7150 C   0  0  2  0  0  3  0  0  0  0  0  0
  188.4600  175.4530  136.8270 C   0  0  0  0  0  2  0  0  0  0  0  0
  1  9  1  0  0  0  0
  2  3  1  6  0  0  0
  2  5  1  0  0  0  0
  3  7  1  0  0  0  0
  4  7  2  0  0  0  0
  4 11  1  0  0  0  0
  5 16  2  0  0  0  0
  5 14  1  0  0  0  0
  6  1  1  0  0  0  0
  8 23  1  6  0  0  0
  8 13  1  0  0  0  0
  8 12  1  0  0  0  0
 10 18  1  0  0  0  0
 10 19  1  0  0  0  0
 12 16  1  0  0  0  0
 13 18  1  6  0  0  0
 13  2  1  0  0  0  0
 14  1  2  0  0  0  0
 15  4  1  0  0  0  0
 16 17  1  0  0  0  0
 17  6  2  0  0  0  0
 19  3  2  0  0  0  0
 20 19  1  0  0  0  0
 20 15  2  0  0  0  0
 22 21  2  0  0  0  0
 22 23  1  0  0  0  0
 24 31  1  0  0  0  0
 25 28  1  0  0  0  0
 25 30  1  0  0  0  0
 27 24  2  0  0  0  0
 28 24  1  0  0  0  0
 29 31  1  0  0  0  0
 29 26  1  1  0  0  0
 30 29  1  0  0  0  0
 30 22  1  1  0  0  0
M  END
>  <MODEL>
8

>  <REMARK>
 VINA RESULT:      -7.6      3.692      7.260
  Name = 
  2 active torsions:
  status: ('A' for Active; 'I' for Inactive)
    1  A    between atoms: C_5  and  C_30
    2  A    between atoms: C_10  and  N_16
                            x       y       z     vdW  Elec       q    Type
                         _______ _______ _______ _____ _____    ______ ____

>  <TORSDO>
F 2

$$$$
=
 OpenBabel11122411063D

 31 35  0  0  1  0  0  0  0  0999 V2000
  179.5960  179.1950  143.2720 C   0  0  0  0  0  0  0  0  0  0  0  0
  182.8450  179.3830  141.2990 C   0  0  2  0  0  3  0  0  0  0  0  0
  183.9490  178.9210  142.2430 C   0  0  0  0  0  0  0  0  0  0  0  0
  184.7630  178.6090  144.5190 C   0  0  0  0  0  0  0  0  0  0  0  0
  181.4610  178.9520  141.7330 C   0  0  0  0  0  0  0  0  0  0  0  0
  178.9310  178.1420  142.6410 C   0  0  0  0  0  3  0  0  0  0  0  0
  183.7400  178.9480  143.6320 C   0  0  0  0  0  3  0  0  0  0  0  0
  182.7860  177.5220  139.5920 C   0  0  2  0  0  3  0  0  0  0  0  0
  179.0230  179.8220  144.3270 F   0  0  0  0  0  0  0  0  0  0  0  0
  185.5450  178.5330  140.2910 C   0  0  0  0  0  2  0  0  0  0  0  0
  184.5140  178.6280  145.9830 C   0  0  0  0  0  1  0  0  0  0  0  0
  181.2990  177.2680  139.8270 C   0  0  0  0  0  2  0  0  0  0  0  0
  183.1140  179.0030  139.8300 C   0  0  2  0  0  3  0  0  0  0  0  0
  180.8540  179.5990  142.8170 C   0  0  0  0  0  3  0  0  0  0  0  0
  186.0210  178.2560  144.0290 C   0  0  0  0  0  3  0  0  0  0  0  0
  180.7800  177.8920  141.0910 C   0  0  0  0  0  0  0  0  0  0  0  0
  179.5180  177.5010  141.5480 C   0  0  0  0  0  3  0  0  0  0  0  0
  184.5580  179.3490  139.4600 C   0  0  0  0  0  2  0  0  0  0  0  0
  185.2400  178.5990  141.7580 C   0  0  0  0  0  0  0  0  0  0  0  0
  186.2570  178.2500  142.6530 C   0  0  0  0  0  3  0  0  0  0  0  0
  183.4310  174.8780  138.7190 O   0  0  0  0  0  0  0  0  0  0  0  0
  183.4390  175.7950  137.8550 C   0  0  0  0  0  0  0  0  0  0  0  0
  183.1310  177.1410  138.2300 N   0  0  0  0  0  2  0  0  0  0  0  0
  185.3050  172.9910  136.4370 C   0  0  0  0  0  0  0  0  0  0  0  0
  183.1560  174.1500  135.9770 C   0  0  0  0  0  2  0  0  0  0  0  0
  185.9900  176.7510  136.5640 C   0  0  0  0  0  1  0  0  0  0  0  0
  185.9250  172.0060  136.0750 O   0  0  0  0  0  0  0  0  0  0  0  0
  183.8180  172.9240  136.6110 C   0  0  0  0  0  2  0  0  0  0  0  0
  185.3200  175.4510  136.1540 C   0  0  2  0  0  3  0  0  0  0  0  0
  183.8040  175.4620  136.4360 C   0  0  2  0  0  3  0  0  0  0  0  0
  186.0290  174.2540  136.7880 C   0  0  0  0  0  2  0  0  0  0  0  0
  1  9  1  0  0  0  0
  2  5  1  1  0  0  0
  2  3  1  0  0  0  0
  3  7  1  0  0  0  0
  4 11  1  0  0  0  0
  5 14  2  0  0  0  0
  6  1  2  0  0  0  0
  7  4  2  0  0  0  0
  8 23  1  6  0  0  0
  8 12  1  0  0  0  0
  8 13  1  0  0  0  0
 10 19  1  0  0  0  0
 12 16  1  0  0  0  0
 13 18  1  1  0  0  0
 13  2  1  0  0  0  0
 14  1  1  0  0  0  0
 15  4  1  0  0  0  0
 16 17  2  0  0  0  0
 16  5  1  0  0  0  0
 17  6  1  0  0  0  0
 18 10  1  0  0  0  0
 19  3  2  0  0  0  0
 19 20  1  0  0  0  0
 20 15  2  0  0  0  0
 22 23  1  0  0  0  0
 22 21  2  0  0  0  0
 24 28  1  0  0  0  0
 24 31  1  0  0  0  0
 25 30  1  0  0  0  0
 25 28  1  0  0  0  0
 27 24  2  0  0  0  0
 29 30  1  0  0  0  0
 29 26  1  1  0  0  0
 29 31  1  0  0  0  0
 30 22  1  1  0  0  0
M  END
>  <MODEL>
9

>  <REMARK>
 VINA RESULT:      -7.6      3.619      6.511
  Name = 
  2 active torsions:
  status: ('A' for Active; 'I' for Inactive)
    1  A    between atoms: C_5  and  C_30
    2  A    between atoms: C_10  and  N_16
                            x       y       z     vdW  Elec       q    Type
                         _______ _______ _______ _____ _____    ______ ____

>  <TORSDO>
F 2

$$$$
