=
 OpenBabel11122410523D

 32 37  0  0  1  0  0  0  0  0999 V2000
  182.1600  179.0530  140.1180 C   0  0  0  0  0  2  0  0  0  0  0  0
  187.4730  178.0940  141.4220 C   0  0  0  0  0  0  0  0  0  0  0  0
  190.1790  177.4500  137.4450 C   0  0  0  0  0  3  0  0  0  0  0  0
  191.1600  176.6730  138.2270 C   0  0  0  0  0  3  0  0  0  0  0  0
  188.2050  177.2640  143.6660 C   0  0  2  0  0  3  0  0  0  0  0  0
  189.3780  176.6170  144.4260 C   0  0  2  0  0  3  0  0  0  0  0  0
  185.0750  178.9660  141.2030 C   0  0  1  0  0  3  0  0  0  0  0  0
  186.6270  178.9070  139.2190 C   0  0  0  0  0  2  0  0  0  0  0  0
  191.3160  178.0950  144.1890 C   0  0  2  0  0  3  0  0  0  0  0  0
  184.1740  179.1370  138.7960 C   0  0  0  0  0  2  0  0  0  0  0  0
  188.9820  177.7600  137.9530 C   0  0  0  0  0  3  0  0  0  0  0  0
  187.6340  178.1810  139.9890 N   0  0  0  0  0  0  0  0  0  0  0  0
  188.5340  177.2460  139.3020 C   0  0  2  0  0  3  0  0  0  0  0  0
  189.5990  176.8870  141.5110 C   0  0  0  0  0  0  0  0  0  0  0  0
  190.6420  178.4040  145.5170 C   0  0  0  0  0  2  0  0  0  0  0  0
  182.7390  177.9010  140.9530 C   0  0  0  0  0  2  0  0  0  0  0  0
  185.2440  178.5380  139.7250 C   0  0  2  0  0  3  0  0  0  0  0  0
  189.5610  177.3490  145.7410 C   0  0  0  0  0  2  0  0  0  0  0  0
  183.8670  178.3240  141.9010 C   0  0  0  0  0  2  0  0  0  0  0  0
  183.1830  179.9260  139.5300 N   0  0  0  0  0  0  0  0  0  0  0  0
  190.9510  176.4050  139.5170 C   0  0  0  0  0  3  0  0  0  0  0  0
  189.7070  176.8570  140.1750 C   0  0  0  0  0  0  0  0  0  0  0  0
  190.7120  176.5150  142.3260 N   0  0  0  0  0  2  0  0  0  0  0  0
  186.3280  178.8260  142.0800 C   0  0  0  0  0  2  0  0  0  0  0  0
  186.9490  176.4660  143.9810 C   0  0  0  0  0  1  0  0  0  0  0  0
  191.0110  179.2200  143.2110 C   0  0  0  0  0  1  0  0  0  0  0  0
  188.3760  177.4130  142.1630 C   0  0  0  0  0  0  0  0  0  0  0  0
  190.7390  176.7480  143.7640 C   0  0  2  0  0  3  0  0  0  0  0  0
  182.5130  180.7700  138.5560 C   0  0  0  0  0  2  0  0  0  0  0  0
  181.0070  180.6080  138.6710 C   0  0  2  0  0  3  0  0  0  0  0  0
  180.3230  180.1980  137.0430 S   0  0  0  0  0  1  0  0  0  0  0  0
  180.4370  181.7970  139.1260 O   0  0  0  0  0  1  0  0  0  0  0  0
  1 16  1  0  0  0  0
  2 24  1  0  0  0  0
  2 27  2  0  0  0  0
  3 11  2  0  0  0  0
  3  4  1  0  0  0  0
  4 21  2  0  0  0  0
  5 25  1  6  0  0  0
  5  6  1  0  0  0  0
  6 18  1  1  0  0  0
  7 19  1  1  0  0  0
  7 24  1  0  0  0  0
  8 17  1  0  0  0  0
  8 12  1  0  0  0  0
  9 26  1  6  0  0  0
  9 15  1  0  0  0  0
 10 20  1  0  0  0  0
 12  2  1  0  0  0  0
 13 11  1  6  0  0  0
 13 12  1  0  0  0  0
 13 22  1  0  0  0  0
 14 27  1  0  0  0  0
 14 23  1  0  0  0  0
 15 18  1  0  0  0  0
 16 19  1  0  0  0  0
 17 10  1  6  0  0  0
 17  7  1  0  0  0  0
 20  1  1  0  0  0  0
 21 22  1  0  0  0  0
 22 14  2  0  0  0  0
 27  5  1  0  0  0  0
 28 23  1  6  0  0  0
 28  9  1  0  0  0  0
 28  6  1  0  0  0  0
 29 30  1  0  0  0  0
 29 20  1  0  0  0  0
 30 31  1  6  0  0  0
 30 32  1  0  0  0  0
M  END
>  <MODEL>
1

>  <REMARK>
 VINA RESULT:      -7.8      0.000      0.000
  Name = 
  2 active torsions:
  status: ('A' for Active; 'I' for Inactive)
    1  A    between atoms: N_20  and  C_29
    2  A    between atoms: C_29  and  C_30
                            x       y       z     vdW  Elec       q    Type
                         _______ _______ _______ _____ _____    ______ ____

>  <TORSDO>
F 2

$$$$
=
 OpenBabel11122410523D

 32 37  0  0  1  0  0  0  0  0999 V2000
  188.2000  178.0860  147.8810 C   0  0  0  0  0  2  0  0  0  0  0  0
  185.5530  178.0040  142.9990 C   0  0  0  0  0  0  0  0  0  0  0  0
  188.6830  177.7770  139.2970 C   0  0  0  0  0  3  0  0  0  0  0  0
  187.6820  178.3850  138.4000 C   0  0  0  0  0  3  0  0  0  0  0  0
  183.2080  178.8230  142.6980 C   0  0  2  0  0  3  0  0  0  0  0  0
  182.1750  179.2640  141.6430 C   0  0  2  0  0  3  0  0  0  0  0  0
  186.3850  177.6390  145.3940 C   0  0  1  0  0  3  0  0  0  0  0  0
  187.8890  177.2280  143.4140 C   0  0  0  0  0  2  0  0  0  0  0  0
  181.8690  177.3990  140.0850 C   0  0  2  0  0  3  0  0  0  0  0  0
  188.9410  177.4870  145.6670 C   0  0  0  0  0  2  0  0  0  0  0  0
  188.5050  177.7620  140.6210 C   0  0  0  0  0  3  0  0  0  0  0  0
  186.8910  177.7810  142.5020 N   0  0  0  0  0  0  0  0  0  0  0  0
  187.3300  178.4550  141.2730 C   0  0  2  0  0  3  0  0  0  0  0  0
  184.9240  178.7420  140.7530 C   0  0  0  0  0  0  0  0  0  0  0  0
  180.7620  177.3360  141.1260 C   0  0  0  0  0  2  0  0  0  0  0  0
  187.2590  179.1490  147.2940 C   0  0  0  0  0  2  0  0  0  0  0  0
  187.7720  177.9140  144.7640 C   0  0  2  0  0  3  0  0  0  0  0  0
  180.8480  178.6060  141.9670 C   0  0  0  0  0  2  0  0  0  0  0  0
  186.0400  178.5690  146.5670 C   0  0  0  0  0  2  0  0  0  0  0  0
  188.4830  176.9780  146.9620 N   0  0  0  0  0  0  0  0  0  0  0  0
  186.4970  178.7850  138.8670 C   0  0  0  0  0  3  0  0  0  0  0  0
  186.1840  178.6510  140.3050 C   0  0  0  0  0  0  0  0  0  0  0  0
  183.8490  178.9310  139.8310 N   0  0  0  0  0  2  0  0  0  0  0  0
  185.2100  177.5780  144.4060 C   0  0  0  0  0  2  0  0  0  0  0  0
  183.2480  179.8870  143.7840 C   0  0  0  0  0  1  0  0  0  0  0  0
  182.8760  176.2950  140.3720 C   0  0  0  0  0  1  0  0  0  0  0  0
  184.6100  178.5320  142.1870 C   0  0  0  0  0  0  0  0  0  0  0  0
  182.4510  178.8030  140.2220 C   0  0  2  0  0  3  0  0  0  0  0  0
  189.5870  176.2240  147.5310 C   0  0  0  0  0  2  0  0  0  0  0  0
  190.9110  176.8430  147.1190 C   0  0  2  0  0  3  0  0  0  0  0  0
  192.0340  175.5370  146.5540 S   0  0  0  0  0  1  0  0  0  0  0  0
  191.4810  177.5060  148.2060 O   0  0  0  0  0  1  0  0  0  0  0  0
  2 24  1  0  0  0  0
  3 11  2  0  0  0  0
  4 21  2  0  0  0  0
  4  3  1  0  0  0  0
  5 25  1  1  0  0  0
  6 18  1  1  0  0  0
  6  5  1  0  0  0  0
  7 24  1  6  0  0  0
  7 19  1  0  0  0  0
  9 28  1  0  0  0  0
  9 26  1  1  0  0  0
  9 15  1  0  0  0  0
 10 20  1  0  0  0  0
 12  2  1  0  0  0  0
 12  8  1  0  0  0  0
 13 11  1  6  0  0  0
 13 12  1  0  0  0  0
 14 27  1  0  0  0  0
 15 18  1  0  0  0  0
 16  1  1  0  0  0  0
 17  8  1  6  0  0  0
 17  7  1  0  0  0  0
 17 10  1  0  0  0  0
 19 16  1  0  0  0  0
 20 29  1  0  0  0  0
 20  1  1  0  0  0  0
 21 22  1  0  0  0  0
 22 14  2  0  0  0  0
 22 13  1  0  0  0  0
 23 14  1  0  0  0  0
 27  5  1  0  0  0  0
 27  2  2  0  0  0  0
 28 23  1  1  0  0  0
 28  6  1  0  0  0  0
 30 31  1  1  0  0  0
 30 29  1  0  0  0  0
 30 32  1  0  0  0  0
M  END
>  <MODEL>
2

>  <REMARK>
 VINA RESULT:      -7.3      4.293      7.978
  Name = 
  2 active torsions:
  status: ('A' for Active; 'I' for Inactive)
    1  A    between atoms: N_20  and  C_29
    2  A    between atoms: C_29  and  C_30
                            x       y       z     vdW  Elec       q    Type
                         _______ _______ _______ _____ _____    ______ ____

>  <TORSDO>
F 2

$$$$
=
 OpenBabel11122410523D

 32 37  0  0  1  0  0  0  0  0999 V2000
  189.1920  176.3900  137.4480 C   0  0  0  0  0  2  0  0  0  0  0  0
  184.2910  178.4850  139.0120 C   0  0  0  0  0  0  0  0  0  0  0  0
  184.1450  179.2470  143.8020 C   0  0  0  0  0  3  0  0  0  0  0  0
  182.6730  179.1490  143.7820 C   0  0  0  0  0  3  0  0  0  0  0  0
  182.2070  178.2620  137.6450 C   0  0  2  0  0  3  0  0  0  0  0  0
  180.6720  178.3760  137.6990 C   0  0  2  0  0  3  0  0  0  0  0  0
  186.5190  177.9230  137.8790 C   0  0  1  0  0  3  0  0  0  0  0  0
  186.4270  178.6340  140.2950 C   0  0  0  0  0  2  0  0  0  0  0  0
  180.1240  180.6530  138.4120 C   0  0  2  0  0  3  0  0  0  0  0  0
  188.4940  177.4940  139.4750 C   0  0  0  0  0  2  0  0  0  0  0  0
  184.8750  178.8850  142.7430 C   0  0  0  0  0  3  0  0  0  0  0  0
  184.9670  178.5910  140.2840 N   0  0  0  0  0  0  0  0  0  0  0  0
  184.2440  178.2610  141.5190 C   0  0  2  0  0  3  0  0  0  0  0  0
  182.1660  178.6130  140.2150 C   0  0  0  0  0  0  0  0  0  0  0  0
  180.0550  180.6010  136.8930 C   0  0  0  0  0  2  0  0  0  0  0  0
  187.7980  175.7620  137.2930 C   0  0  0  0  0  2  0  0  0  0  0  0
  186.9680  177.5990  139.3240 C   0  0  2  0  0  3  0  0  0  0  0  0
  180.2030  179.1410  136.4760 C   0  0  0  0  0  2  0  0  0  0  0  0
  186.7050  176.7600  136.8940 C   0  0  0  0  0  2  0  0  0  0  0  0
  189.1880  177.6530  138.1940 N   0  0  0  0  0  0  0  0  0  0  0  0
  182.0200  178.8590  142.6550 C   0  0  0  0  0  3  0  0  0  0  0  0
  182.7730  178.5960  141.4110 C   0  0  0  0  0  0  0  0  0  0  0  0
  180.7750  178.9280  140.1240 N   0  0  0  0  0  2  0  0  0  0  0  0
  185.1070  178.5110  137.7400 C   0  0  0  0  0  2  0  0  0  0  0  0
  182.5540  176.9270  137.0040 C   0  0  0  0  0  1  0  0  0  0  0  0
  181.3850  181.4010  138.8200 C   0  0  0  0  0  1  0  0  0  0  0  0
  182.9420  178.4240  138.9660 C   0  0  0  0  0  0  0  0  0  0  0  0
  180.1150  179.1930  138.8520 C   0  0  2  0  0  3  0  0  0  0  0  0
  190.5720  177.9690  138.5030 C   0  0  0  0  0  2  0  0  0  0  0  0
  191.2130  176.8210  139.2630 C   0  0  2  0  0  3  0  0  0  0  0  0
  191.7780  177.4140  140.8810 S   0  0  0  0  0  1  0  0  0  0  0  0
  192.3030  176.3280  138.5450 O   0  0  0  0  0  1  0  0  0  0  0  0
  1 20  1  0  0  0  0
  2 12  1  0  0  0  0
  4  3  1  0  0  0  0
  5 25  1  1  0  0  0
  5  6  1  0  0  0  0
  5 27  1  0  0  0  0
  6 18  1  6  0  0  0
  6 28  1  0  0  0  0
  7 19  1  6  0  0  0
  7 17  1  0  0  0  0
  9 26  1  6  0  0  0
  9 28  1  0  0  0  0
 11  3  2  0  0  0  0
 12  8  1  0  0  0  0
 12 13  1  0  0  0  0
 13 11  1  1  0  0  0
 14 22  2  0  0  0  0
 15  9  1  0  0  0  0
 16  1  1  0  0  0  0
 17 10  1  6  0  0  0
 17  8  1  0  0  0  0
 18 15  1  0  0  0  0
 19 16  1  0  0  0  0
 20 29  1  0  0  0  0
 20 10  1  0  0  0  0
 21  4  2  0  0  0  0
 22 13  1  0  0  0  0
 22 21  1  0  0  0  0
 23 14  1  0  0  0  0
 24  7  1  0  0  0  0
 24  2  1  0  0  0  0
 27  2  2  0  0  0  0
 27 14  1  0  0  0  0
 28 23  1  1  0  0  0
 29 30  1  0  0  0  0
 30 32  1  6  0  0  0
 30 31  1  0  0  0  0
M  END
>  <MODEL>
3

>  <REMARK>
 VINA RESULT:      -6.2      4.277      8.765
  Name = 
  2 active torsions:
  status: ('A' for Active; 'I' for Inactive)
    1  A    between atoms: N_20  and  C_29
    2  A    between atoms: C_29  and  C_30
                            x       y       z     vdW  Elec       q    Type
                         _______ _______ _______ _____ _____    ______ ____

>  <TORSDO>
F 2

$$$$
=
 OpenBabel11122410523D

 32 37  0  0  1  0  0  0  0  0999 V2000
  179.0380  179.1510  140.9200 C   0  0  0  0  0  2  0  0  0  0  0  0
  182.7490  176.0380  138.2010 C   0  0  0  0  0  0  0  0  0  0  0  0
  186.9500  178.3990  137.6250 C   0  0  0  0  0  3  0  0  0  0  0  0
  187.2700  177.5630  136.4520 C   0  0  0  0  0  3  0  0  0  0  0  0
  182.1130  174.1020  136.7500 C   0  0  2  0  0  3  0  0  0  0  0  0
  182.6270  173.1580  135.6460 C   0  0  2  0  0  3  0  0  0  0  0  0
  180.9560  176.9920  139.7620 C   0  0  1  0  0  3  0  0  0  0  0  0
  183.2650  177.9950  139.6610 C   0  0  0  0  0  2  0  0  0  0  0  0
  184.6230  172.0320  136.5080 C   0  0  2  0  0  3  0  0  0  0  0  0
  181.4290  179.3510  140.6800 C   0  0  0  0  0  2  0  0  0  0  0  0
  185.7250  178.3970  138.1610 C   0  0  0  0  0  3  0  0  0  0  0  0
  183.6200  177.1420  138.5290 N   0  0  0  0  0  0  0  0  0  0  0  0
  184.5860  177.6260  137.5340 C   0  0  2  0  0  3  0  0  0  0  0  0
  184.3230  175.4210  136.4330 C   0  0  0  0  0  0  0  0  0  0  0  0
  183.4300  171.1130  136.7200 C   0  0  0  0  0  2  0  0  0  0  0  0
  178.9310  178.5670  139.5030 C   0  0  0  0  0  2  0  0  0  0  0  0
  181.7770  178.2950  139.6170 C   0  0  2  0  0  3  0  0  0  0  0  0
  182.2350  171.7380  136.0060 C   0  0  0  0  0  2  0  0  0  0  0  0
  179.4780  177.1410  139.3730 C   0  0  0  0  0  2  0  0  0  0  0  0
  180.3390  178.9140  141.5560 N   0  0  0  0  0  0  0  0  0  0  0  0
  186.4010  176.6580  135.9970 C   0  0  0  0  0  3  0  0  0  0  0  0
  185.0830  176.5050  136.6490 C   0  0  0  0  0  0  0  0  0  0  0  0
  184.8010  174.3700  135.5930 N   0  0  0  0  0  2  0  0  0  0  0  0
  181.5580  175.7510  139.0840 C   0  0  0  0  0  2  0  0  0  0  0  0
  180.7620  174.6440  136.3080 C   0  0  0  0  0  1  0  0  0  0  0  0
  185.0310  172.6250  137.8490 C   0  0  0  0  0  1  0  0  0  0  0  0
  183.0370  175.2400  137.1490 C   0  0  0  0  0  0  0  0  0  0  0  0
  184.1370  173.0750  135.5060 C   0  0  2  0  0  3  0  0  0  0  0  0
  180.3910  179.7530  142.7410 C   0  0  0  0  0  2  0  0  0  0  0  0
  180.7060  178.9110  143.9650 C   0  0  2  0  0  3  0  0  0  0  0  0
  182.4940  178.6280  144.0550 S   0  0  0  0  0  1  0  0  0  0  0  0
  180.0480  177.6830  143.8750 O   0  0  0  0  0  1  0  0  0  0  0  0
  1 20  1  0  0  0  0
  2 12  1  0  0  0  0
  2 24  1  0  0  0  0
  3 11  2  0  0  0  0
  4  3  1  0  0  0  0
  5 25  1  6  0  0  0
  5 27  1  0  0  0  0
  6 18  1  1  0  0  0
  6  5  1  0  0  0  0
  7 24  1  6  0  0  0
  9 15  1  0  0  0  0
  9 26  1  1  0  0  0
 10 20  1  0  0  0  0
 12  8  1  0  0  0  0
 13 11  1  1  0  0  0
 13 12  1  0  0  0  0
 14 22  2  0  0  0  0
 14 27  1  0  0  0  0
 16  1  1  0  0  0  0
 17  8  1  1  0  0  0
 17  7  1  0  0  0  0
 17 10  1  0  0  0  0
 18 15  1  0  0  0  0
 19 16  1  0  0  0  0
 19  7  1  0  0  0  0
 20 29  1  0  0  0  0
 21  4  2  0  0  0  0
 21 22  1  0  0  0  0
 22 13  1  0  0  0  0
 23 14  1  0  0  0  0
 27  2  2  0  0  0  0
 28 23  1  1  0  0  0
 28  6  1  0  0  0  0
 28  9  1  0  0  0  0
 29 30  1  0  0  0  0
 30 32  1  6  0  0  0
 30 31  1  0  0  0  0
M  END
>  <MODEL>
4

>  <REMARK>
 VINA RESULT:      -5.9      5.079      7.430
  Name = 
  2 active torsions:
  status: ('A' for Active; 'I' for Inactive)
    1  A    between atoms: N_20  and  C_29
    2  A    between atoms: C_29  and  C_30
                            x       y       z     vdW  Elec       q    Type
                         _______ _______ _______ _____ _____    ______ ____

>  <TORSDO>
F 2

$$$$
=
 OpenBabel11122410523D

 32 37  0  0  1  0  0  0  0  0999 V2000
  187.8050  175.9910  136.0960 C   0  0  0  0  0  2  0  0  0  0  0  0
  183.6350  178.2840  138.9610 C   0  0  0  0  0  0  0  0  0  0  0  0
  185.0060  179.4110  143.4770 C   0  0  0  0  0  3  0  0  0  0  0  0
  183.6040  179.3380  143.9320 C   0  0  0  0  0  3  0  0  0  0  0  0
  181.2280  177.9950  138.3440 C   0  0  2  0  0  3  0  0  0  0  0  0
  179.7870  178.1390  138.8720 C   0  0  2  0  0  3  0  0  0  0  0  0
  185.3950  177.5990  137.2290 C   0  0  1  0  0  3  0  0  0  0  0  0
  186.0660  178.4930  139.4880 C   0  0  0  0  0  2  0  0  0  0  0  0
  179.4770  180.4740  139.5420 C   0  0  2  0  0  3  0  0  0  0  0  0
  187.7760  177.2580  138.1470 C   0  0  0  0  0  2  0  0  0  0  0  0
  185.3670  178.9570  142.2730 C   0  0  0  0  0  3  0  0  0  0  0  0
  184.6780  178.4750  139.9420 N   0  0  0  0  0  0  0  0  0  0  0  0
  184.3850  178.2530  141.3640 C   0  0  2  0  0  3  0  0  0  0  0  0
  181.9990  178.5410  140.7600 C   0  0  0  0  0  0  0  0  0  0  0  0
  178.9310  180.3070  138.1320 C   0  0  0  0  0  2  0  0  0  0  0  0
  186.4390  175.3780  136.4390 C   0  0  0  0  0  2  0  0  0  0  0  0
  186.2800  177.3770  138.4790 C   0  0  2  0  0  3  0  0  0  0  0  0
  178.9500  178.8170  137.8040 C   0  0  0  0  0  2  0  0  0  0  0  0
  185.2680  176.3610  136.3300 C   0  0  0  0  0  2  0  0  0  0  0  0
  188.0280  177.3080  136.7050 N   0  0  0  0  0  0  0  0  0  0  0  0
  182.6310  178.9740  143.0950 C   0  0  0  0  0  3  0  0  0  0  0  0
  182.9530  178.6040  141.7000 C   0  0  0  0  0  0  0  0  0  0  0  0
  180.6490  178.8720  141.0900 N   0  0  0  0  0  2  0  0  0  0  0  0
  184.0060  178.1990  137.4990 C   0  0  0  0  0  2  0  0  0  0  0  0
  181.3630  176.6090  137.7330 C   0  0  0  0  0  1  0  0  0  0  0  0
  180.7960  181.2280  139.4710 C   0  0  0  0  0  1  0  0  0  0  0  0
  182.3410  178.2440  139.3490 C   0  0  0  0  0  0  0  0  0  0  0  0
  179.6180  179.0510  140.0750 C   0  0  2  0  0  3  0  0  0  0  0  0
  189.4370  177.6210  136.5350 C   0  0  0  0  0  2  0  0  0  0  0  0
  190.2330  176.3470  136.3140 C   0  0  2  0  0  3  0  0  0  0  0  0
  191.3580  176.0930  137.7120 S   0  0  0  0  0  1  0  0  0  0  0  0
  190.9750  176.4520  135.1370 O   0  0  0  0  0  1  0  0  0  0  0  0
  1 16  1  0  0  0  0
  1 20  1  0  0  0  0
  2 27  2  0  0  0  0
  2 12  1  0  0  0  0
  3  4  1  0  0  0  0
  5 25  1  1  0  0  0
  5  6  1  0  0  0  0
  5 27  1  0  0  0  0
  6 18  1  6  0  0  0
  6 28  1  0  0  0  0
  7 19  1  1  0  0  0
  7 24  1  0  0  0  0
  7 17  1  0  0  0  0
  8 12  1  0  0  0  0
  9 26  1  6  0  0  0
  9 28  1  0  0  0  0
 11  3  2  0  0  0  0
 12 13  1  0  0  0  0
 13 22  1  0  0  0  0
 13 11  1  1  0  0  0
 14 23  1  0  0  0  0
 14 22  2  0  0  0  0
 15  9  1  0  0  0  0
 17 10  1  6  0  0  0
 17  8  1  0  0  0  0
 18 15  1  0  0  0  0
 19 16  1  0  0  0  0
 20 10  1  0  0  0  0
 21  4  2  0  0  0  0
 22 21  1  0  0  0  0
 24  2  1  0  0  0  0
 27 14  1  0  0  0  0
 28 23  1  1  0  0  0
 29 20  1  0  0  0  0
 30 32  1  6  0  0  0
 30 29  1  0  0  0  0
 30 31  1  0  0  0  0
M  END
>  <MODEL>
5

>  <REMARK>
 VINA RESULT:      -5.8      4.493      8.635
  Name = 
  2 active torsions:
  status: ('A' for Active; 'I' for Inactive)
    1  A    between atoms: N_20  and  C_29
    2  A    between atoms: C_29  and  C_30
                            x       y       z     vdW  Elec       q    Type
                         _______ _______ _______ _____ _____    ______ ____

>  <TORSDO>
F 2

$$$$
=
 OpenBabel11122410523D

 32 37  0  0  1  0  0  0  0  0999 V2000
  193.3900  175.6310  135.6840 C   0  0  0  0  0  2  0  0  0  0  0  0
  189.9730  176.8700  139.8820 C   0  0  0  0  0  0  0  0  0  0  0  0
  185.5410  178.0210  138.2720 C   0  0  0  0  0  3  0  0  0  0  0  0
  185.2890  178.8030  139.4970 C   0  0  0  0  0  3  0  0  0  0  0  0
  190.7790  177.5730  142.1440 C   0  0  2  0  0  3  0  0  0  0  0  0
  190.3450  178.2430  143.4620 C   0  0  2  0  0  3  0  0  0  0  0  0
  191.6850  175.8450  138.2770 C   0  0  1  0  0  3  0  0  0  0  0  0
  189.2830  176.1730  137.5870 C   0  0  0  0  0  2  0  0  0  0  0  0
  188.4910  176.9330  144.3800 C   0  0  2  0  0  3  0  0  0  0  0  0
  190.9880  175.7990  135.7980 C   0  0  0  0  0  2  0  0  0  0  0  0
  186.7690  177.5850  137.9720 C   0  0  0  0  0  3  0  0  0  0  0  0
  188.9980  176.9080  138.8170 N   0  0  0  0  0  0  0  0  0  0  0  0
  187.9710  177.9580  138.8100 C   0  0  2  0  0  3  0  0  0  0  0  0
  188.4390  178.2190  141.2300 C   0  0  0  0  0  0  0  0  0  0  0  0
  189.7760  176.4730  145.0510 C   0  0  0  0  0  2  0  0  0  0  0  0
  193.5320  176.7530  136.7240 C   0  0  0  0  0  2  0  0  0  0  0  0
  190.7320  176.3990  137.1900 C   0  0  2  0  0  3  0  0  0  0  0  0
  190.8880  177.4240  144.6180 C   0  0  0  0  0  2  0  0  0  0  0  0
  193.1320  176.3400  138.1450 C   0  0  0  0  0  2  0  0  0  0  0  0
  192.1320  174.8840  135.7920 N   0  0  0  0  0  0  0  0  0  0  0  0
  186.2380  178.9540  140.4220 C   0  0  0  0  0  3  0  0  0  0  0  0
  187.5760  178.3610  140.2130 C   0  0  0  0  0  0  0  0  0  0  0  0
  188.0570  178.6060  142.5510 N   0  0  0  0  0  2  0  0  0  0  0  0
  191.2020  176.0070  139.7260 C   0  0  0  0  0  2  0  0  0  0  0  0
  192.0590  178.2500  141.6770 C   0  0  0  0  0  1  0  0  0  0  0  0
  188.0480  175.8690  143.3860 C   0  0  0  0  0  1  0  0  0  0  0  0
  189.7490  177.5550  141.0270 C   0  0  0  0  0  0  0  0  0  0  0  0
  188.8490  178.2640  143.7250 C   0  0  2  0  0  3  0  0  0  0  0  0
  192.0150  174.0720  134.5940 C   0  0  0  0  0  2  0  0  0  0  0  0
  192.0780  172.5970  134.9530 C   0  0  2  0  0  3  0  0  0  0  0  0
  190.4670  171.8320  134.6300 S   0  0  0  0  0  1  0  0  0  0  0  0
  192.3970  172.4530  136.3030 O   0  0  0  0  0  1  0  0  0  0  0  0
  1 20  1  0  0  0  0
  1 16  1  0  0  0  0
  2 27  2  0  0  0  0
  3  4  1  0  0  0  0
  4 21  2  0  0  0  0
  5 25  1  6  0  0  0
  5  6  1  0  0  0  0
  6 28  1  0  0  0  0
  6 18  1  1  0  0  0
  7 19  1  1  0  0  0
  7 24  1  0  0  0  0
  8 12  1  0  0  0  0
  9 26  1  6  0  0  0
  9 15  1  0  0  0  0
 11  3  2  0  0  0  0
 12  2  1  0  0  0  0
 13 11  1  6  0  0  0
 13 12  1  0  0  0  0
 13 22  1  0  0  0  0
 14 23  1  0  0  0  0
 16 19  1  0  0  0  0
 17 10  1  6  0  0  0
 17  8  1  0  0  0  0
 17  7  1  0  0  0  0
 18 15  1  0  0  0  0
 20 10  1  0  0  0  0
 22 21  1  0  0  0  0
 22 14  2  0  0  0  0
 24  2  1  0  0  0  0
 27 14  1  0  0  0  0
 27  5  1  0  0  0  0
 28 23  1  6  0  0  0
 28  9  1  0  0  0  0
 29 30  1  0  0  0  0
 29 20  1  0  0  0  0
 30 31  1  1  0  0  0
 30 32  1  0  0  0  0
M  END
>  <MODEL>
6

>  <REMARK>
 VINA RESULT:      -5.8      4.280      7.371
  Name = 
  2 active torsions:
  status: ('A' for Active; 'I' for Inactive)
    1  A    between atoms: N_20  and  C_29
    2  A    between atoms: C_29  and  C_30
                            x       y       z     vdW  Elec       q    Type
                         _______ _______ _______ _____ _____    ______ ____

>  <TORSDO>
F 2

$$$$
=
 OpenBabel11122410523D

 32 37  0  0  1  0  0  0  0  0999 V2000
  186.0250  178.8780  146.6960 C   0  0  0  0  0  2  0  0  0  0  0  0
  185.4940  177.9550  141.2450 C   0  0  0  0  0  0  0  0  0  0  0  0
  189.8240  177.6920  139.0690 C   0  0  0  0  0  3  0  0  0  0  0  0
  189.2110  178.0780  137.7830 C   0  0  0  0  0  3  0  0  0  0  0  0
  183.4020  178.4570  139.9680 C   0  0  2  0  0  3  0  0  0  0  0  0
  182.8330  178.6560  138.5500 C   0  0  2  0  0  3  0  0  0  0  0  0
  185.3520  177.9540  143.8030 C   0  0  1  0  0  3  0  0  0  0  0  0
  187.5300  177.5070  142.6170 C   0  0  0  0  0  2  0  0  0  0  0  0
  183.2790  176.6100  137.2810 C   0  0  2  0  0  3  0  0  0  0  0  0
  187.6060  178.1320  145.0360 C   0  0  0  0  0  2  0  0  0  0  0  0
  189.1460  177.8010  140.2160 C   0  0  0  0  0  3  0  0  0  0  0  0
  186.9310  177.8370  141.3260 N   0  0  0  0  0  0  0  0  0  0  0  0
  187.7680  178.4190  140.2690 C   0  0  2  0  0  3  0  0  0  0  0  0
  185.7390  178.3650  138.8460 C   0  0  0  0  0  0  0  0  0  0  0  0
  181.8610  176.5310  137.8260 C   0  0  0  0  0  2  0  0  0  0  0  0
  185.3180  179.7530  145.6500 C   0  0  0  0  0  2  0  0  0  0  0  0
  186.8530  178.3180  143.7080 C   0  0  2  0  0  3  0  0  0  0  0  0
  181.5300  177.8870  138.4430 C   0  0  0  0  0  2  0  0  0  0  0  0
  184.5190  178.9590  144.6110 C   0  0  0  0  0  2  0  0  0  0  0  0
  186.7150  177.7170  146.1230 N   0  0  0  0  0  0  0  0  0  0  0  0
  187.9150  178.3840  137.7050 C   0  0  0  0  0  3  0  0  0  0  0  0
  187.0780  178.3740  138.9230 C   0  0  0  0  0  0  0  0  0  0  0  0
  185.0970  178.3250  137.5700 N   0  0  0  0  0  2  0  0  0  0  0  0
  184.6600  177.6480  142.4660 C   0  0  0  0  0  2  0  0  0  0  0  0
  182.9460  179.6300  140.8220 C   0  0  0  0  0  1  0  0  0  0  0  0
  184.1660  175.6690  138.0840 C   0  0  0  0  0  1  0  0  0  0  0  0
  184.9080  178.2780  140.0710 C   0  0  0  0  0  0  0  0  0  0  0  0
  183.6690  178.0780  137.4210 C   0  0  2  0  0  3  0  0  0  0  0  0
  187.5580  177.1640  147.1690 C   0  0  0  0  0  2  0  0  0  0  0  0
  188.8710  177.9240  147.2390 C   0  0  2  0  0  3  0  0  0  0  0  0
  190.2480  176.7590  147.0590 S   0  0  0  0  0  1  0  0  0  0  0  0
  188.9750  178.5770  148.4680 O   0  0  0  0  0  1  0  0  0  0  0  0
  2 12  1  0  0  0  0
  2 24  1  0  0  0  0
  3 11  2  0  0  0  0
  4  3  1  0  0  0  0
  5 27  1  0  0  0  0
  5 25  1  1  0  0  0
  6 18  1  1  0  0  0
  6  5  1  0  0  0  0
  7 24  1  6  0  0  0
  7 19  1  0  0  0  0
  9 28  1  0  0  0  0
  9 15  1  0  0  0  0
  9 26  1  1  0  0  0
 10 20  1  0  0  0  0
 12  8  1  0  0  0  0
 13 11  1  6  0  0  0
 13 12  1  0  0  0  0
 14 22  2  0  0  0  0
 14 27  1  0  0  0  0
 15 18  1  0  0  0  0
 16  1  1  0  0  0  0
 17  8  1  6  0  0  0
 17  7  1  0  0  0  0
 17 10  1  0  0  0  0
 19 16  1  0  0  0  0
 20  1  1  0  0  0  0
 20 29  1  0  0  0  0
 21  4  2  0  0  0  0
 21 22  1  0  0  0  0
 22 13  1  0  0  0  0
 23 14  1  0  0  0  0
 27  2  2  0  0  0  0
 28 23  1  1  0  0  0
 28  6  1  0  0  0  0
 29 30  1  0  0  0  0
 30 31  1  1  0  0  0
 30 32  1  0  0  0  0
M  END
>  <MODEL>
7

>  <REMARK>
 VINA RESULT:      -5.6      4.109      7.389
  Name = 
  2 active torsions:
  status: ('A' for Active; 'I' for Inactive)
    1  A    between atoms: N_20  and  C_29
    2  A    between atoms: C_29  and  C_30
                            x       y       z     vdW  Elec       q    Type
                         _______ _______ _______ _____ _____    ______ ____

>  <TORSDO>
F 2

$$$$
=
 OpenBabel11122410523D

 32 37  0  0  1  0  0  0  0  0999 V2000
  188.9700  177.1610  136.1010 C   0  0  0  0  0  2  0  0  0  0  0  0
  183.7690  175.5610  137.2160 C   0  0  0  0  0  0  0  0  0  0  0  0
  183.1980  170.7940  136.5090 C   0  0  0  0  0  3  0  0  0  0  0  0
  181.7510  170.9890  136.2970 C   0  0  0  0  0  3  0  0  0  0  0  0
  181.8250  177.1360  137.2330 C   0  0  2  0  0  3  0  0  0  0  0  0
  180.2860  177.2060  137.1950 C   0  0  2  0  0  3  0  0  0  0  0  0
  186.1200  176.5770  137.2060 C   0  0  1  0  0  3  0  0  0  0  0  0
  185.7780  174.0810  137.1580 C   0  0  0  0  0  2  0  0  0  0  0  0
  179.4410  175.9270  139.1040 C   0  0  2  0  0  3  0  0  0  0  0  0
  188.0120  174.9830  136.4920 C   0  0  0  0  0  2  0  0  0  0  0  0
  184.0370  171.8340  136.5400 C   0  0  0  0  0  3  0  0  0  0  0  0
  184.3360  174.2510  136.9970 N   0  0  0  0  0  0  0  0  0  0  0  0
  183.5680  173.2420  136.2560 C   0  0  2  0  0  3  0  0  0  0  0  0
  181.5620  174.5920  136.8020 C   0  0  0  0  0  0  0  0  0  0  0  0
  179.4870  177.3960  139.4990 C   0  0  0  0  0  2  0  0  0  0  0  0
  187.6690  177.6290  135.4320 C   0  0  0  0  0  2  0  0  0  0  0  0
  186.4980  175.2500  136.5070 C   0  0  2  0  0  3  0  0  0  0  0  0
  179.8250  178.1980  138.2450 C   0  0  0  0  0  2  0  0  0  0  0  0
  186.5040  177.8310  136.4070 C   0  0  0  0  0  2  0  0  0  0  0  0
  188.7740  176.0870  137.0820 N   0  0  0  0  0  0  0  0  0  0  0  0
  181.2160  172.2110  136.3000 C   0  0  0  0  0  3  0  0  0  0  0  0
  182.0800  173.3970  136.4830 C   0  0  0  0  0  0  0  0  0  0  0  0
  180.1550  174.7270  137.0100 N   0  0  0  0  0  2  0  0  0  0  0  0
  184.6650  176.6820  137.6860 C   0  0  0  0  0  2  0  0  0  0  0  0
  182.3610  178.0960  136.1820 C   0  0  0  0  0  1  0  0  0  0  0  0
  180.5800  175.1970  139.8010 C   0  0  0  0  0  1  0  0  0  0  0  0
  182.4410  175.7580  137.0570 C   0  0  0  0  0  0  0  0  0  0  0  0
  179.5620  175.9290  137.5830 C   0  0  2  0  0  3  0  0  0  0  0  0
  190.0890  175.5620  137.4070 C   0  0  0  0  0  2  0  0  0  0  0  0
  190.8090  176.5080  138.3520 C   0  0  2  0  0  3  0  0  0  0  0  0
  192.5960  176.3930  138.0690 S   0  0  0  0  0  1  0  0  0  0  0  0
  190.5270  176.1620  139.6740 O   0  0  0  0  0  1  0  0  0  0  0  0
  1 20  1  0  0  0  0
  2 24  1  0  0  0  0
  3 11  2  0  0  0  0
  4 21  2  0  0  0  0
  4  3  1  0  0  0  0
  5 25  1  6  0  0  0
  6  5  1  0  0  0  0
  6 28  1  0  0  0  0
  6 18  1  1  0  0  0
  7 19  1  6  0  0  0
  7 24  1  0  0  0  0
  9 15  1  0  0  0  0
  9 26  1  1  0  0  0
 10 20  1  0  0  0  0
 12  8  1  0  0  0  0
 12  2  1  0  0  0  0
 13 22  1  0  0  0  0
 13 11  1  1  0  0  0
 13 12  1  0  0  0  0
 14 23  1  0  0  0  0
 14 27  1  0  0  0  0
 16  1  1  0  0  0  0
 16 19  1  0  0  0  0
 17 10  1  1  0  0  0
 17  8  1  0  0  0  0
 17  7  1  0  0  0  0
 18 15  1  0  0  0  0
 20 29  1  0  0  0  0
 21 22  1  0  0  0  0
 22 14  2  0  0  0  0
 27  2  2  0  0  0  0
 27  5  1  0  0  0  0
 28 23  1  1  0  0  0
 28  9  1  0  0  0  0
 29 30  1  0  0  0  0
 30 31  1  1  0  0  0
 30 32  1  0  0  0  0
M  END
>  <MODEL>
8

>  <REMARK>
 VINA RESULT:      -5.4      5.557      9.425
  Name = 
  2 active torsions:
  status: ('A' for Active; 'I' for Inactive)
    1  A    between atoms: N_20  and  C_29
    2  A    between atoms: C_29  and  C_30
                            x       y       z     vdW  Elec       q    Type
                         _______ _______ _______ _____ _____    ______ ____

>  <TORSDO>
F 2

$$$$
=
 OpenBabel11122410523D

 32 37  0  0  1  0  0  0  0  0999 V2000
  180.9100  180.0960  139.6110 C   0  0  0  0  0  2  0  0  0  0  0  0
  186.1020  178.1770  139.1600 C   0  0  0  0  0  0  0  0  0  0  0  0
  188.2100  177.7460  143.5110 C   0  0  0  0  0  3  0  0  0  0  0  0
  189.5420  177.8620  142.8870 C   0  0  0  0  0  3  0  0  0  0  0  0
  187.4420  178.3320  137.0530 C   0  0  2  0  0  3  0  0  0  0  0  0
  188.8710  178.2430  136.4830 C   0  0  2  0  0  3  0  0  0  0  0  0
  183.5860  178.6310  139.0040 C   0  0  1  0  0  3  0  0  0  0  0  0
  184.6790  178.0890  141.2080 C   0  0  0  0  0  2  0  0  0  0  0  0
  189.7500  176.0270  137.0410 C   0  0  2  0  0  3  0  0  0  0  0  0
  182.4130  179.1430  141.2380 C   0  0  0  0  0  2  0  0  0  0  0  0
  187.0990  178.0260  142.8220 C   0  0  0  0  0  3  0  0  0  0  0  0
  186.0060  178.1500  140.6010 N   0  0  0  0  0  0  0  0  0  0  0  0
  187.1540  178.5730  141.4140 C   0  0  2  0  0  3  0  0  0  0  0  0
  188.5370  178.1590  139.3980 C   0  0  0  0  0  0  0  0  0  0  0  0
  189.1960  175.9760  135.6250 C   0  0  0  0  0  2  0  0  0  0  0  0
  182.0950  180.7300  138.8670 C   0  0  0  0  0  2  0  0  0  0  0  0
  183.7500  179.0480  140.4850 C   0  0  2  0  0  3  0  0  0  0  0  0
  188.8330  177.4020  135.2220 C   0  0  0  0  0  2  0  0  0  0  0  0
  182.9700  179.7220  138.1150 C   0  0  0  0  0  2  0  0  0  0  0  0
  181.2660  178.8870  140.3630 N   0  0  0  0  0  0  0  0  0  0  0  0
  189.6690  178.0830  141.5780 C   0  0  0  0  0  3  0  0  0  0  0  0
  188.4670  178.2500  140.7350 C   0  0  0  0  0  0  0  0  0  0  0  0
  189.7820  177.8560  138.7680 N   0  0  0  0  0  2  0  0  0  0  0  0
  184.8430  178.0530  138.3350 C   0  0  0  0  0  2  0  0  0  0  0  0
  186.8130  179.6160  136.5340 C   0  0  0  0  0  1  0  0  0  0  0  0
  188.7940  175.2930  137.9690 C   0  0  0  0  0  1  0  0  0  0  0  0
  187.3140  178.2520  138.5650 C   0  0  0  0  0  0  0  0  0  0  0  0
  189.8800  177.5140  137.3540 C   0  0  2  0  0  3  0  0  0  0  0  0
  180.1400  178.5760  141.2260 C   0  0  0  0  0  2  0  0  0  0  0  0
  180.2040  179.4140  142.4910 C   0  0  2  0  0  3  0  0  0  0  0  0
  180.0550  178.3300  143.9370 S   0  0  0  0  0  1  0  0  0  0  0  0
  179.1600  180.3390  142.4980 O   0  0  0  0  0  1  0  0  0  0  0  0
  1 20  1  0  0  0  0
  2 12  1  0  0  0  0
  4  3  1  0  0  0  0
  5 25  1  1  0  0  0
  5 27  1  0  0  0  0
  6 18  1  6  0  0  0
  6  5  1  0  0  0  0
  6 28  1  0  0  0  0
  7 19  1  6  0  0  0
  7 17  1  0  0  0  0
  9 28  1  0  0  0  0
  9 26  1  1  0  0  0
 11  3  2  0  0  0  0
 12  8  1  0  0  0  0
 12 13  1  0  0  0  0
 13 11  1  1  0  0  0
 14 22  2  0  0  0  0
 15  9  1  0  0  0  0
 16  1  1  0  0  0  0
 17  8  1  1  0  0  0
 17 10  1  0  0  0  0
 18 15  1  0  0  0  0
 19 16  1  0  0  0  0
 20 29  1  0  0  0  0
 20 10  1  0  0  0  0
 21  4  2  0  0  0  0
 22 13  1  0  0  0  0
 22 21  1  0  0  0  0
 23 14  1  0  0  0  0
 24  7  1  0  0  0  0
 24  2  1  0  0  0  0
 27  2  2  0  0  0  0
 27 14  1  0  0  0  0
 28 23  1  1  0  0  0
 29 30  1  0  0  0  0
 30 32  1  6  0  0  0
 30 31  1  0  0  0  0
M  END
>  <MODEL>
9

>  <REMARK>
 VINA RESULT:      -5.4      2.201      5.265
  Name = 
  2 active torsions:
  status: ('A' for Active; 'I' for Inactive)
    1  A    between atoms: N_20  and  C_29
    2  A    between atoms: C_29  and  C_30
                            x       y       z     vdW  Elec       q    Type
                         _______ _______ _______ _____ _____    ______ ____

>  <TORSDO>
F 2

$$$$
