=
 OpenBabel11122411593D

 28 32  0  0  1  0  0  0  0  0999 V2000
  186.2030  176.2590  136.7820 C   0  0  2  0  0  3  0  0  0  0  0  0
  188.6970  176.3370  138.2390 O   0  0  0  0  0  0  0  0  0  0  0  0
  181.8920  178.5730  140.9640 O   0  0  0  0  0  0  0  0  0  0  0  0
  187.0140  178.2170  134.7380 C   0  0  0  0  0  2  0  0  0  0  0  0
  184.2040  178.9040  141.3270 N   0  0  0  0  0  0  0  0  0  0  0  0
  185.1670  175.3750  137.4880 C   0  0  0  0  0  2  0  0  0  0  0  0
  189.4560  178.6760  138.4110 O   0  0  0  0  0  0  0  0  0  0  0  0
  188.6460  177.5910  139.0620 S   0  0  0  0  0  0  0  0  0  0  0  0
  188.5760  177.9870  141.7970 C   0  0  0  0  0  0  0  0  0  0  0  0
  187.0250  178.1200  139.2990 N   0  0  0  0  0  0  0  0  0  0  0  0
  182.8640  177.6140  136.3130 N   0  0  0  0  0  2  0  0  0  0  0  0
  184.8800  178.6960  139.1230 C   0  0  0  0  0  0  0  0  0  0  0  0
  187.3710  178.4760  141.7010 N   0  0  0  0  0  0  0  0  0  0  0  0
  189.2850  177.2410  140.6890 C   0  0  0  0  0  2  0  0  0  0  0  0
  183.1150  176.7580  137.2490 C   0  0  0  0  0  0  0  0  0  0  0  0
  185.9800  177.7740  136.9870 C   0  0  2  0  0  3  0  0  0  0  0  0
  183.0590  178.6720  140.5000 C   0  0  0  0  0  0  0  0  0  0  0  0
  189.2500  178.0320  143.1210 C   0  0  0  0  0  1  0  0  0  0  0  0
  183.0850  177.1570  138.6200 N   0  0  0  0  0  2  0  0  0  0  0  0
  187.0040  178.6040  136.2110 C   0  0  0  0  0  2  0  0  0  0  0  0
  186.2920  175.8970  135.2960 C   0  0  0  0  0  2  0  0  0  0  0  0
  187.3510  176.7390  134.5960 C   0  0  0  0  0  2  0  0  0  0  0  0
  183.7550  175.4600  136.8970 C   0  0  0  0  0  2  0  0  0  0  0  0
  185.2710  178.9040  140.4000 C   0  0  0  0  0  0  0  0  0  0  0  0
  183.3910  178.5180  139.0330 C   0  0  2  0  0  3  0  0  0  0  0  0
  186.5820  178.5070  140.5070 C   0  0  0  0  0  0  0  0  0  0  0  0
  184.3030  178.5670  142.7370 C   0  0  0  0  0  1  0  0  0  0  0  0
  185.9760  178.1900  138.4330 C   0  0  0  0  0  0  0  0  0  0  0  0
  1 21  1  6  0  0  0
  1 16  1  0  0  0  0
  1  6  1  0  0  0  0
  2  8  2  0  0  0  0
  4 20  1  0  0  0  0
  5 27  1  0  0  0  0
  7  8  2  0  0  0  0
  8 10  1  0  0  0  0
  8 14  1  0  0  0  0
  9 18  1  0  0  0  0
 10 26  1  0  0  0  0
 11 15  2  0  0  0  0
 12 24  1  0  0  0  0
 13  9  2  0  0  0  0
 14  9  1  0  0  0  0
 15 19  1  0  0  0  0
 16 20  1  6  0  0  0
 16 28  1  0  0  0  0
 17  3  2  0  0  0  0
 17  5  1  0  0  0  0
 22  4  1  0  0  0  0
 22 21  1  0  0  0  0
 23 15  1  0  0  0  0
 23  6  1  0  0  0  0
 24 26  2  0  0  0  0
 24  5  1  0  0  0  0
 25 19  1  1  0  0  0
 25 12  1  0  0  0  0
 25 17  1  0  0  0  0
 26 13  1  0  0  0  0
 28 12  2  0  0  0  0
 28 10  1  0  0  0  0
M  END
>  <MODEL>
1

>  <REMARK>
 VINA RESULT:      -6.9      0.000      0.000
  Name = 
  0 active torsions:
  status: ('A' for Active; 'I' for Inactive)
                            x       y       z     vdW  Elec       q    Type
                         _______ _______ _______ _____ _____    ______ ____

>  <TORSDO>
F 0

$$$$
=
 OpenBabel11122411593D

 28 32  0  0  1  0  0  0  0  0999 V2000
  188.0910  175.4910  136.7030 C   0  0  2  0  0  3  0  0  0  0  0  0
  190.1770  175.5360  138.7010 O   0  0  0  0  0  0  0  0  0  0  0  0
  183.1860  178.5710  139.5130 O   0  0  0  0  0  0  0  0  0  0  0  0
  189.5420  177.1470  134.7490 C   0  0  0  0  0  2  0  0  0  0  0  0
  185.3740  178.7600  140.3880 N   0  0  0  0  0  0  0  0  0  0  0  0
  186.8360  174.7710  137.2160 C   0  0  0  0  0  2  0  0  0  0  0  0
  191.1060  177.8150  138.8440 O   0  0  0  0  0  0  0  0  0  0  0  0
  190.0630  176.8730  139.3760 S   0  0  0  0  0  0  0  0  0  0  0  0
  189.4060  177.5680  141.9690 C   0  0  0  0  0  0  0  0  0  0  0  0
  188.4930  177.5470  139.1700 N   0  0  0  0  0  0  0  0  0  0  0  0
  185.1020  177.0390  135.3320 N   0  0  0  0  0  2  0  0  0  0  0  0
  186.5140  178.2630  138.4360 C   0  0  0  0  0  0  0  0  0  0  0  0
  188.3100  178.1340  141.5440 N   0  0  0  0  0  0  0  0  0  0  0  0
  190.2720  176.6540  141.1320 C   0  0  0  0  0  2  0  0  0  0  0  0
  185.0440  176.2730  136.3730 C   0  0  0  0  0  0  0  0  0  0  0  0
  187.9790  177.0320  136.7150 C   0  0  2  0  0  3  0  0  0  0  0  0
  184.4320  178.5290  139.3350 C   0  0  0  0  0  0  0  0  0  0  0  0
  189.7570  177.7050  143.4060 C   0  0  0  0  0  1  0  0  0  0  0  0
  184.7390  176.8200  137.6550 N   0  0  0  0  0  2  0  0  0  0  0  0
  189.2320  177.6910  136.1370 C   0  0  0  0  0  2  0  0  0  0  0  0
  188.4830  174.9640  135.3190 C   0  0  0  0  0  2  0  0  0  0  0  0
  189.7530  175.6400  134.8220 C   0  0  0  0  0  2  0  0  0  0  0  0
  185.6150  174.9000  136.2990 C   0  0  0  0  0  2  0  0  0  0  0  0
  186.6200  178.5780  139.7470 C   0  0  0  0  0  0  0  0  0  0  0  0
  185.0770  178.1900  138.0090 C   0  0  2  0  0  3  0  0  0  0  0  0
  187.8240  178.0960  140.1980 C   0  0  0  0  0  0  0  0  0  0  0  0
  185.1110  178.5720  141.8040 C   0  0  0  0  0  1  0  0  0  0  0  0
  187.6840  177.6020  138.0760 C   0  0  0  0  0  0  0  0  0  0  0  0
  1 21  1  6  0  0  0
  1 16  1  0  0  0  0
  1  6  1  0  0  0  0
  2  8  2  0  0  0  0
  4 22  1  0  0  0  0
  4 20  1  0  0  0  0
  5 27  1  0  0  0  0
  7  8  2  0  0  0  0
  8 14  1  0  0  0  0
  9 18  1  0  0  0  0
 10  8  1  0  0  0  0
 10 26  1  0  0  0  0
 11 15  2  0  0  0  0
 12 24  1  0  0  0  0
 13  9  2  0  0  0  0
 14  9  1  0  0  0  0
 15 19  1  0  0  0  0
 16 20  1  1  0  0  0
 16 28  1  0  0  0  0
 17  3  2  0  0  0  0
 17  5  1  0  0  0  0
 22 21  1  0  0  0  0
 23 15  1  0  0  0  0
 23  6  1  0  0  0  0
 24 26  2  0  0  0  0
 24  5  1  0  0  0  0
 25 19  1  1  0  0  0
 25 12  1  0  0  0  0
 25 17  1  0  0  0  0
 26 13  1  0  0  0  0
 28 12  2  0  0  0  0
 28 10  1  0  0  0  0
M  END
>  <MODEL>
2

>  <REMARK>
 VINA RESULT:      -6.6      1.663      1.875
  Name = 
  0 active torsions:
  status: ('A' for Active; 'I' for Inactive)
                            x       y       z     vdW  Elec       q    Type
                         _______ _______ _______ _____ _____    ______ ____

>  <TORSDO>
F 0

$$$$
=
 OpenBabel11122411593D

 28 32  0  0  1  0  0  0  0  0999 V2000
  182.3850  177.1540  138.8940 C   0  0  2  0  0  3  0  0  0  0  0  0
  182.2250  174.5030  137.7540 O   0  0  0  0  0  0  0  0  0  0  0  0
  188.6570  178.5820  138.6220 O   0  0  0  0  0  0  0  0  0  0  0  0
  180.7990  178.4590  136.7860 C   0  0  0  0  0  2  0  0  0  0  0  0
  187.7790  176.8020  137.3360 N   0  0  0  0  0  0  0  0  0  0  0  0
  183.2910  177.1800  140.1330 C   0  0  0  0  0  2  0  0  0  0  0  0
  182.5410  174.6560  135.3140 O   0  0  0  0  0  0  0  0  0  0  0  0
  183.2300  174.4810  136.6390 S   0  0  0  0  0  0  0  0  0  0  0  0
  185.5610  173.0360  136.3000 C   0  0  0  0  0  0  0  0  0  0  0  0
  184.4290  175.6970  136.8500 N   0  0  0  0  0  0  0  0  0  0  0  0
  184.1560  180.3210  139.0940 N   0  0  0  0  0  2  0  0  0  0  0  0
  185.5930  177.5560  137.2440 C   0  0  0  0  0  0  0  0  0  0  0  0
  186.2590  174.1360  136.3710 N   0  0  0  0  0  0  0  0  0  0  0  0
  184.1010  172.9270  136.6760 C   0  0  0  0  0  2  0  0  0  0  0  0
  184.5560  179.2850  139.7570 C   0  0  0  0  0  0  0  0  0  0  0  0
  183.0520  177.7150  137.6180 C   0  0  2  0  0  3  0  0  0  0  0  0
  187.6780  178.0470  138.0360 C   0  0  0  0  0  0  0  0  0  0  0  0
  186.2710  171.7740  135.9670 C   0  0  0  0  0  1  0  0  0  0  0  0
  185.7730  178.6280  139.4040 N   0  0  0  0  0  2  0  0  0  0  0  0
  182.0840  177.7200  136.4340 C   0  0  0  0  0  2  0  0  0  0  0  0
  181.0540  177.8510  139.1890 C   0  0  0  0  0  2  0  0  0  0  0  0
  180.1310  177.7900  137.9790 C   0  0  0  0  0  2  0  0  0  0  0  0
  183.6020  178.5850  140.6590 C   0  0  0  0  0  2  0  0  0  0  0  0
  186.4590  176.5820  136.8840 C   0  0  0  0  0  0  0  0  0  0  0  0
  186.2810  178.6280  138.0410 C   0  0  2  0  0  3  0  0  0  0  0  0
  185.7360  175.4310  136.6840 C   0  0  0  0  0  0  0  0  0  0  0  0
  188.7730  175.7740  137.5930 C   0  0  0  0  0  1  0  0  0  0  0  0
  184.3190  176.9980  137.2380 C   0  0  0  0  0  0  0  0  0  0  0  0
  1 21  1  1  0  0  0
  1  6  1  0  0  0  0
  4 22  1  0  0  0  0
  5 27  1  0  0  0  0
  5 17  1  0  0  0  0
  6 23  1  0  0  0  0
  7  8  2  0  0  0  0
  8 14  1  0  0  0  0
  8 10  1  0  0  0  0
  8  2  2  0  0  0  0
  9 13  2  0  0  0  0
  9 14  1  0  0  0  0
 10 28  1  0  0  0  0
 11 15  2  0  0  0  0
 13 26  1  0  0  0  0
 15 23  1  0  0  0  0
 16 20  1  6  0  0  0
 16  1  1  0  0  0  0
 17 25  1  0  0  0  0
 17  3  2  0  0  0  0
 18  9  1  0  0  0  0
 19 15  1  0  0  0  0
 20  4  1  0  0  0  0
 22 21  1  0  0  0  0
 24 12  1  0  0  0  0
 24  5  1  0  0  0  0
 25 12  1  6  0  0  0
 25 19  1  0  0  0  0
 26 10  1  0  0  0  0
 26 24  2  0  0  0  0
 28 12  2  0  0  0  0
 28 16  1  0  0  0  0
M  END
>  <MODEL>
3

>  <REMARK>
 VINA RESULT:      -6.2      2.954      5.896
  Name = 
  0 active torsions:
  status: ('A' for Active; 'I' for Inactive)
                            x       y       z     vdW  Elec       q    Type
                         _______ _______ _______ _____ _____    ______ ____

>  <TORSDO>
F 0

$$$$
=
 OpenBabel11122411593D

 28 32  0  0  1  0  0  0  0  0999 V2000
  182.6420  175.6680  136.9390 C   0  0  2  0  0  3  0  0  0  0  0  0
  185.3370  175.5790  135.9000 O   0  0  0  0  0  0  0  0  0  0  0  0
  183.2000  179.0170  142.4080 O   0  0  0  0  0  0  0  0  0  0  0  0
  181.5390  177.2460  134.7120 C   0  0  0  0  0  2  0  0  0  0  0  0
  184.9250  179.0720  140.7930 N   0  0  0  0  0  0  0  0  0  0  0  0
  182.5530  175.0210  138.3280 C   0  0  0  0  0  2  0  0  0  0  0  0
  185.9290  177.7980  135.0050 O   0  0  0  0  0  0  0  0  0  0  0  0
  185.9390  176.9160  136.2210 S   0  0  0  0  0  0  0  0  0  0  0  0
  188.0290  177.6340  137.8820 C   0  0  0  0  0  0  0  0  0  0  0  0
  185.1080  177.6830  137.5180 N   0  0  0  0  0  0  0  0  0  0  0  0
  180.1810  177.3980  138.9780 N   0  0  0  0  0  2  0  0  0  0  0  0
  183.6270  178.5190  138.9580 C   0  0  0  0  0  0  0  0  0  0  0  0
  187.1980  178.2660  138.6620 N   0  0  0  0  0  0  0  0  0  0  0  0
  187.6110  176.6750  136.7900 C   0  0  0  0  0  2  0  0  0  0  0  0
  181.0750  176.6320  139.5120 C   0  0  0  0  0  0  0  0  0  0  0  0
  182.6530  177.2130  136.9660 C   0  0  2  0  0  3  0  0  0  0  0  0
  183.5660  178.9030  141.2080 C   0  0  0  0  0  0  0  0  0  0  0  0
  189.4830  177.7420  138.1680 C   0  0  0  0  0  1  0  0  0  0  0  0
  182.1240  177.1890  140.3050 N   0  0  0  0  0  2  0  0  0  0  0  0
  182.6810  177.8010  135.5550 C   0  0  0  0  0  2  0  0  0  0  0  0
  181.5400  175.1270  136.0230 C   0  0  0  0  0  2  0  0  0  0  0  0
  181.6490  175.7300  134.6290 C   0  0  0  0  0  2  0  0  0  0  0  0
  181.2090  175.2270  139.0360 C   0  0  0  0  0  2  0  0  0  0  0  0
  184.8680  178.8200  139.4030 C   0  0  0  0  0  0  0  0  0  0  0  0
  182.6280  178.5340  140.0800 C   0  0  2  0  0  3  0  0  0  0  0  0
  185.7720  178.2650  138.5320 C   0  0  0  0  0  0  0  0  0  0  0  0
  186.0900  178.8920  141.6420 C   0  0  0  0  0  1  0  0  0  0  0  0
  183.7770  177.7920  137.7820 C   0  0  0  0  0  0  0  0  0  0  0  0
  1 21  1  6  0  0  0
  1 16  1  0  0  0  0
  1  6  1  0  0  0  0
  2  8  2  0  0  0  0
  4 20  1  0  0  0  0
  5 17  1  0  0  0  0
  5 27  1  0  0  0  0
  6 23  1  0  0  0  0
  7  8  2  0  0  0  0
  8 14  1  0  0  0  0
  8 10  1  0  0  0  0
  9 18  1  0  0  0  0
  9 13  2  0  0  0  0
 10 28  1  0  0  0  0
 10 26  1  0  0  0  0
 11 15  2  0  0  0  0
 12 24  1  0  0  0  0
 14  9  1  0  0  0  0
 15 19  1  0  0  0  0
 16 20  1  6  0  0  0
 16 28  1  0  0  0  0
 17  3  2  0  0  0  0
 22  4  1  0  0  0  0
 22 21  1  0  0  0  0
 23 15  1  0  0  0  0
 24  5  1  0  0  0  0
 25 12  1  6  0  0  0
 25 19  1  0  0  0  0
 25 17  1  0  0  0  0
 26 13  1  0  0  0  0
 26 24  2  0  0  0  0
 28 12  2  0  0  0  0
M  END
>  <MODEL>
4

>  <REMARK>
 VINA RESULT:      -5.8      2.298      3.466
  Name = 
  0 active torsions:
  status: ('A' for Active; 'I' for Inactive)
                            x       y       z     vdW  Elec       q    Type
                         _______ _______ _______ _____ _____    ______ ____

>  <TORSDO>
F 0

$$$$
=
 OpenBabel11122411593D

 28 32  0  0  1  0  0  0  0  0999 V2000
  187.9100  176.3110  137.3010 C   0  0  2  0  0  3  0  0  0  0  0  0
  189.9990  175.8990  139.2550 O   0  0  0  0  0  0  0  0  0  0  0  0
  183.0150  178.6860  140.7430 O   0  0  0  0  0  0  0  0  0  0  0  0
  189.3630  178.3620  135.7690 C   0  0  0  0  0  2  0  0  0  0  0  0
  185.2050  178.6690  141.6340 N   0  0  0  0  0  0  0  0  0  0  0  0
  186.6540  175.4960  137.6400 C   0  0  0  0  0  2  0  0  0  0  0  0
  190.9330  178.0860  139.9070 O   0  0  0  0  0  0  0  0  0  0  0  0
  189.8880  177.0500  140.2140 S   0  0  0  0  0  0  0  0  0  0  0  0
  189.2360  177.1420  142.8980 C   0  0  0  0  0  0  0  0  0  0  0  0
  188.3200  177.7560  140.1680 N   0  0  0  0  0  0  0  0  0  0  0  0
  184.9240  178.1340  136.3200 N   0  0  0  0  0  2  0  0  0  0  0  0
  186.3420  178.6230  139.6190 C   0  0  0  0  0  0  0  0  0  0  0  0
  188.1410  177.7920  142.6140 N   0  0  0  0  0  0  0  0  0  0  0  0
  190.0990  176.4390  141.8750 C   0  0  0  0  0  2  0  0  0  0  0  0
  184.8650  177.1540  137.1610 C   0  0  0  0  0  0  0  0  0  0  0  0
  187.8020  177.8100  137.6610 C   0  0  2  0  0  3  0  0  0  0  0  0
  184.2620  178.6840  140.5570 C   0  0  0  0  0  0  0  0  0  0  0  0
  189.5890  176.9510  144.3290 C   0  0  0  0  0  1  0  0  0  0  0  0
  184.5620  177.3980  138.5350 N   0  0  0  0  0  2  0  0  0  0  0  0
  189.0560  178.5800  137.2450 C   0  0  0  0  0  2  0  0  0  0  0  0
  188.2990  176.1090  135.8330 C   0  0  0  0  0  2  0  0  0  0  0  0
  189.5710  176.8780  135.5000 C   0  0  0  0  0  2  0  0  0  0  0  0
  185.4320  175.8310  136.7790 C   0  0  0  0  0  2  0  0  0  0  0  0
  186.4500  178.6340  140.9660 C   0  0  0  0  0  0  0  0  0  0  0  0
  184.9040  178.6520  139.1880 C   0  0  2  0  0  3  0  0  0  0  0  0
  187.6540  178.0600  141.2950 C   0  0  0  0  0  0  0  0  0  0  0  0
  184.9430  178.1670  142.9720 C   0  0  0  0  0  1  0  0  0  0  0  0
  187.5100  178.0580  139.1160 C   0  0  0  0  0  0  0  0  0  0  0  0
  1 21  1  6  0  0  0
  1  6  1  0  0  0  0
  1 16  1  0  0  0  0
  2  8  2  0  0  0  0
  4 20  1  0  0  0  0
  5 27  1  0  0  0  0
  7  8  2  0  0  0  0
  8 14  1  0  0  0  0
  9 18  1  0  0  0  0
 10  8  1  0  0  0  0
 10 26  1  0  0  0  0
 11 15  2  0  0  0  0
 12 24  1  0  0  0  0
 13  9  2  0  0  0  0
 14  9  1  0  0  0  0
 15 19  1  0  0  0  0
 16 20  1  1  0  0  0
 16 28  1  0  0  0  0
 17  3  2  0  0  0  0
 17  5  1  0  0  0  0
 22  4  1  0  0  0  0
 22 21  1  0  0  0  0
 23 15  1  0  0  0  0
 23  6  1  0  0  0  0
 24 26  2  0  0  0  0
 24  5  1  0  0  0  0
 25 19  1  1  0  0  0
 25 12  1  0  0  0  0
 25 17  1  0  0  0  0
 26 13  1  0  0  0  0
 28 12  2  0  0  0  0
 28 10  1  0  0  0  0
M  END
>  <MODEL>
5

>  <REMARK>
 VINA RESULT:      -5.6      1.556      1.723
  Name = 
  0 active torsions:
  status: ('A' for Active; 'I' for Inactive)
                            x       y       z     vdW  Elec       q    Type
                         _______ _______ _______ _____ _____    ______ ____

>  <TORSDO>
F 0

$$$$
=
 OpenBabel11122411593D

 28 32  0  0  1  0  0  0  0  0999 V2000
  182.4450  176.0050  137.6010 C   0  0  2  0  0  3  0  0  0  0  0  0
  184.5440  174.6940  136.1100 O   0  0  0  0  0  0  0  0  0  0  0  0
  185.6080  179.4840  141.9980 O   0  0  0  0  0  0  0  0  0  0  0  0
  181.4560  177.6060  135.3380 C   0  0  0  0  0  2  0  0  0  0  0  0
  186.7430  178.6280  140.1090 N   0  0  0  0  0  0  0  0  0  0  0  0
  182.4920  175.6290  139.0880 C   0  0  0  0  0  2  0  0  0  0  0  0
  185.6530  176.3470  134.6560 O   0  0  0  0  0  0  0  0  0  0  0  0
  185.6570  175.6970  136.0100 S   0  0  0  0  0  0  0  0  0  0  0  0
  188.2210  175.6980  137.0420 C   0  0  0  0  0  0  0  0  0  0  0  0
  185.5380  176.8910  137.2430 N   0  0  0  0  0  0  0  0  0  0  0  0
  181.4200  178.8280  139.6470 N   0  0  0  0  0  2  0  0  0  0  0  0
  184.9010  178.4310  138.7230 C   0  0  0  0  0  0  0  0  0  0  0  0
  187.9170  176.7070  137.8100 N   0  0  0  0  0  0  0  0  0  0  0  0
  187.2100  174.8660  136.2860 C   0  0  0  0  0  2  0  0  0  0  0  0
  182.0760  177.8350  140.1530 C   0  0  0  0  0  0  0  0  0  0  0  0
  183.0290  177.4010  137.2880 C   0  0  2  0  0  3  0  0  0  0  0  0
  185.5770  179.0820  140.8040 C   0  0  0  0  0  0  0  0  0  0  0  0
  189.6340  175.2370  137.0140 C   0  0  0  0  0  1  0  0  0  0  0  0
  183.4240  178.0090  140.5900 N   0  0  0  0  0  2  0  0  0  0  0  0
  182.8990  177.7460  135.8040 C   0  0  0  0  0  2  0  0  0  0  0  0
  181.0220  175.8530  137.0540 C   0  0  0  0  0  2  0  0  0  0  0  0
  180.9760  176.1800  135.5680 C   0  0  0  0  0  2  0  0  0  0  0  0
  181.5550  176.4520  139.9780 C   0  0  0  0  0  2  0  0  0  0  0  0
  186.2350  178.2510  138.8460 C   0  0  0  0  0  0  0  0  0  0  0  0
  184.3090  178.9920  139.9840 C   0  0  2  0  0  3  0  0  0  0  0  0
  186.6100  177.2720  137.9590 C   0  0  0  0  0  0  0  0  0  0  0  0
  187.9400  178.0950  140.7380 C   0  0  0  0  0  1  0  0  0  0  0  0
  184.4590  177.5660  137.7270 C   0  0  0  0  0  0  0  0  0  0  0  0
  1 21  1  1  0  0  0
  1  6  1  0  0  0  0
  4 22  1  0  0  0  0
  4 20  1  0  0  0  0
  5 27  1  0  0  0  0
  5 17  1  0  0  0  0
  6 23  1  0  0  0  0
  7  8  2  0  0  0  0
  8  2  2  0  0  0  0
  8 14  1  0  0  0  0
  8 10  1  0  0  0  0
  9 13  2  0  0  0  0
 10 28  1  0  0  0  0
 10 26  1  0  0  0  0
 11 15  2  0  0  0  0
 12 24  1  0  0  0  0
 13 26  1  0  0  0  0
 14  9  1  0  0  0  0
 15 19  1  0  0  0  0
 16 20  1  6  0  0  0
 16  1  1  0  0  0  0
 16 28  1  0  0  0  0
 17  3  2  0  0  0  0
 18  9  1  0  0  0  0
 22 21  1  0  0  0  0
 23 15  1  0  0  0  0
 24  5  1  0  0  0  0
 25 12  1  6  0  0  0
 25 19  1  0  0  0  0
 25 17  1  0  0  0  0
 26 24  2  0  0  0  0
 28 12  2  0  0  0  0
M  END
>  <MODEL>
6

>  <REMARK>
 VINA RESULT:      -5.6      2.489      4.121
  Name = 
  0 active torsions:
  status: ('A' for Active; 'I' for Inactive)
                            x       y       z     vdW  Elec       q    Type
                         _______ _______ _______ _____ _____    ______ ____

>  <TORSDO>
F 0

$$$$
=
 OpenBabel11122411593D

 28 32  0  0  1  0  0  0  0  0999 V2000
  181.7540  178.0820  140.4030 C   0  0  2  0  0  3  0  0  0  0  0  0
  179.9750  175.8370  140.0220 O   0  0  0  0  0  0  0  0  0  0  0  0
  186.8640  176.6440  136.7610 O   0  0  0  0  0  0  0  0  0  0  0  0
  179.9640  180.0670  139.1700 C   0  0  0  0  0  2  0  0  0  0  0  0
  184.8170  175.5030  136.4510 N   0  0  0  0  0  0  0  0  0  0  0  0
  183.1010  177.6390  140.9910 C   0  0  0  0  0  2  0  0  0  0  0  0
  178.9730  175.9760  137.7740 O   0  0  0  0  0  0  0  0  0  0  0  0
  180.1230  175.4430  138.5810 S   0  0  0  0  0  0  0  0  0  0  0  0
  181.1110  173.1480  137.4010 C   0  0  0  0  0  0  0  0  0  0  0  0
  181.6150  176.0000  137.9290 N   0  0  0  0  0  0  0  0  0  0  0  0
  184.4420  180.1420  139.0840 N   0  0  0  0  0  2  0  0  0  0  0  0
  183.4330  177.1380  137.3260 C   0  0  0  0  0  0  0  0  0  0  0  0
  182.1080  173.8270  136.9040 N   0  0  0  0  0  0  0  0  0  0  0  0
  180.1770  173.6650  138.4710 C   0  0  0  0  0  2  0  0  0  0  0  0
  184.6830  179.0000  139.6400 C   0  0  0  0  0  0  0  0  0  0  0  0
  181.7950  178.3680  138.8850 C   0  0  2  0  0  3  0  0  0  0  0  0
  185.6080  176.6240  136.8590 C   0  0  0  0  0  0  0  0  0  0  0  0
  180.9630  171.7230  137.0030 C   0  0  0  0  0  1  0  0  0  0  0  0
  185.1430  177.8980  138.8570 N   0  0  0  0  0  2  0  0  0  0  0  0
  180.4440  178.8630  138.3690 C   0  0  0  0  0  2  0  0  0  0  0  0
  181.1930  179.2720  141.1870 C   0  0  0  0  0  2  0  0  0  0  0  0
  179.8340  179.6890  140.6390 C   0  0  0  0  0  2  0  0  0  0  0  0
  184.1720  178.7350  141.0130 C   0  0  0  0  0  2  0  0  0  0  0  0
  183.5010  175.9060  136.7730 C   0  0  0  0  0  0  0  0  0  0  0  0
  184.7970  177.7550  137.4520 C   0  0  2  0  0  3  0  0  0  0  0  0
  182.3980  175.2000  137.1840 C   0  0  0  0  0  0  0  0  0  0  0  0
  185.2880  174.1310  136.3660 C   0  0  0  0  0  1  0  0  0  0  0  0
  182.2550  177.1930  138.0650 C   0  0  0  0  0  0  0  0  0  0  0  0
  1  6  1  1  0  0  0
  1 21  1  0  0  0  0
  3 17  2  0  0  0  0
  4 22  1  0  0  0  0
  5 24  1  0  0  0  0
  5 17  1  0  0  0  0
  6 23  1  0  0  0  0
  7  8  2  0  0  0  0
  8  2  2  0  0  0  0
  9 14  1  0  0  0  0
 10 28  1  0  0  0  0
 10  8  1  0  0  0  0
 11 15  2  0  0  0  0
 12 25  1  0  0  0  0
 12 28  2  0  0  0  0
 13 26  1  0  0  0  0
 13  9  2  0  0  0  0
 14  8  1  0  0  0  0
 15 23  1  0  0  0  0
 16 20  1  6  0  0  0
 16  1  1  0  0  0  0
 18  9  1  0  0  0  0
 19 15  1  0  0  0  0
 20  4  1  0  0  0  0
 22 21  1  0  0  0  0
 24 26  2  0  0  0  0
 24 12  1  0  0  0  0
 25 17  1  6  0  0  0
 25 19  1  0  0  0  0
 26 10  1  0  0  0  0
 27  5  1  0  0  0  0
 28 16  1  0  0  0  0
M  END
>  <MODEL>
7

>  <REMARK>
 VINA RESULT:      -5.5      3.086      7.130
  Name = 
  0 active torsions:
  status: ('A' for Active; 'I' for Inactive)
                            x       y       z     vdW  Elec       q    Type
                         _______ _______ _______ _____ _____    ______ ____

>  <TORSDO>
F 0

$$$$
=
 OpenBabel11122411593D

 28 32  0  0  1  0  0  0  0  0999 V2000
  187.7510  175.4830  137.0590 C   0  0  2  0  0  3  0  0  0  0  0  0
  188.8470  176.8690  139.3460 O   0  0  0  0  0  0  0  0  0  0  0  0
  181.4260  176.6160  137.4460 O   0  0  0  0  0  0  0  0  0  0  0  0
  189.1130  177.1450  135.0480 C   0  0  0  0  0  2  0  0  0  0  0  0
  182.9530  177.9310  138.6820 N   0  0  0  0  0  0  0  0  0  0  0  0
  186.7350  174.4130  137.4830 C   0  0  0  0  0  2  0  0  0  0  0  0
  188.8020  179.2950  138.9140 O   0  0  0  0  0  0  0  0  0  0  0  0
  188.0420  178.1290  139.4790 S   0  0  0  0  0  0  0  0  0  0  0  0
  186.3190  179.0030  141.4560 C   0  0  0  0  0  0  0  0  0  0  0  0
  186.5140  177.9820  138.7020 N   0  0  0  0  0  0  0  0  0  0  0  0
  185.0920  175.2250  134.5950 N   0  0  0  0  0  2  0  0  0  0  0  0
  184.8010  177.5800  137.3340 C   0  0  0  0  0  0  0  0  0  0  0  0
  185.3180  178.9240  140.6240 N   0  0  0  0  0  0  0  0  0  0  0  0
  187.6860  178.4070  141.2030 C   0  0  0  0  0  2  0  0  0  0  0  0
  184.9470  174.7550  135.7920 C   0  0  0  0  0  0  0  0  0  0  0  0
  187.1080  176.7800  136.5200 C   0  0  2  0  0  3  0  0  0  0  0  0
  182.5850  177.0890  137.5840 C   0  0  0  0  0  0  0  0  0  0  0  0
  186.0730  179.5860  142.8010 C   0  0  0  0  0  1  0  0  0  0  0  0
  184.0400  175.3730  136.7050 N   0  0  0  0  0  2  0  0  0  0  0  0
  188.1670  177.7820  136.0570 C   0  0  0  0  0  2  0  0  0  0  0  0
  188.7610  174.8980  136.0670 C   0  0  0  0  0  2  0  0  0  0  0  0
  189.8010  175.9400  135.6760 C   0  0  0  0  0  2  0  0  0  0  0  0
  185.9500  173.7920  136.3230 C   0  0  0  0  0  2  0  0  0  0  0  0
  184.3230  178.1820  138.4460 C   0  0  0  0  0  0  0  0  0  0  0  0
  183.7280  176.7920  136.6380 C   0  0  2  0  0  3  0  0  0  0  0  0
  185.3800  178.3880  139.2980 C   0  0  0  0  0  0  0  0  0  0  0  0
  182.2940  177.9550  139.9770 C   0  0  0  0  0  1  0  0  0  0  0  0
  186.1760  177.4400  137.4990 C   0  0  0  0  0  0  0  0  0  0  0  0
  1 21  1  6  0  0  0
  1  6  1  0  0  0  0
  2  8  2  0  0  0  0
  3 17  2  0  0  0  0
  4 22  1  0  0  0  0
  4 20  1  0  0  0  0
  5 27  1  0  0  0  0
  7  8  2  0  0  0  0
  8 14  1  0  0  0  0
  9 18  1  0  0  0  0
 10 26  1  0  0  0  0
 10  8  1  0  0  0  0
 11 15  2  0  0  0  0
 12 28  2  0  0  0  0
 12 24  1  0  0  0  0
 13  9  2  0  0  0  0
 14  9  1  0  0  0  0
 15 23  1  0  0  0  0
 15 19  1  0  0  0  0
 16 20  1  1  0  0  0
 16  1  1  0  0  0  0
 16 28  1  0  0  0  0
 17  5  1  0  0  0  0
 22 21  1  0  0  0  0
 23  6  1  0  0  0  0
 24  5  1  0  0  0  0
 24 26  2  0  0  0  0
 25 19  1  1  0  0  0
 25 12  1  0  0  0  0
 25 17  1  0  0  0  0
 26 13  1  0  0  0  0
 28 10  1  0  0  0  0
M  END
>  <MODEL>
8

>  <REMARK>
 VINA RESULT:      -5.4      1.811      2.505
  Name = 
  0 active torsions:
  status: ('A' for Active; 'I' for Inactive)
                            x       y       z     vdW  Elec       q    Type
                         _______ _______ _______ _____ _____    ______ ____

>  <TORSDO>
F 0

$$$$
=
 OpenBabel11122411593D

 28 32  0  0  1  0  0  0  0  0999 V2000
  187.4010  176.7930  135.6880 C   0  0  2  0  0  3  0  0  0  0  0  0
  189.5060  174.9160  135.0610 O   0  0  0  0  0  0  0  0  0  0  0  0
  182.2440  173.0670  136.6680 O   0  0  0  0  0  0  0  0  0  0  0  0
  188.6280  177.7650  138.1810 C   0  0  0  0  0  2  0  0  0  0  0  0
  184.4140  172.1300  136.6790 N   0  0  0  0  0  0  0  0  0  0  0  0
  186.2410  176.6920  134.6880 C   0  0  0  0  0  2  0  0  0  0  0  0
  190.1850  173.7490  137.1240 O   0  0  0  0  0  0  0  0  0  0  0  0
  189.2600  173.7240  135.9400 S   0  0  0  0  0  0  0  0  0  0  0  0
  188.5790  171.1130  135.3400 C   0  0  0  0  0  0  0  0  0  0  0  0
  187.6230  173.6590  136.4660 N   0  0  0  0  0  0  0  0  0  0  0  0
  184.2380  177.4310  137.3600 N   0  0  0  0  0  2  0  0  0  0  0  0
  185.5660  174.0620  137.2210 C   0  0  0  0  0  0  0  0  0  0  0  0
  187.4220  171.2770  135.9170 N   0  0  0  0  0  0  0  0  0  0  0  0
  189.5240  172.2400  134.9880 C   0  0  0  0  0  2  0  0  0  0  0  0
  184.2820  176.8390  136.2110 C   0  0  0  0  0  0  0  0  0  0  0  0
  187.1230  176.1030  137.0430 C   0  0  2  0  0  3  0  0  0  0  0  0
  183.4840  173.2060  136.8410 C   0  0  0  0  0  0  0  0  0  0  0  0
  188.9400  169.7530  134.8610 C   0  0  0  0  0  1  0  0  0  0  0  0
  183.9430  175.4570  136.0970 N   0  0  0  0  0  2  0  0  0  0  0  0
  188.2870  176.2900  138.0170 C   0  0  0  0  0  2  0  0  0  0  0  0
  187.8220  178.2540  135.8740 C   0  0  0  0  0  2  0  0  0  0  0  0
  189.0030  178.3590  136.8300 C   0  0  0  0  0  2  0  0  0  0  0  0
  184.9960  177.4950  135.0810 C   0  0  0  0  0  2  0  0  0  0  0  0
  185.6610  172.7450  136.9320 C   0  0  0  0  0  0  0  0  0  0  0  0
  184.1370  174.5230  137.1950 C   0  0  2  0  0  3  0  0  0  0  0  0
  186.9180  172.5160  136.4290 C   0  0  0  0  0  0  0  0  0  0  0  0
  184.1980  170.9520  135.8560 C   0  0  0  0  0  1  0  0  0  0  0  0
  186.7930  174.6410  136.9150 C   0  0  0  0  0  0  0  0  0  0  0  0
  1  6  1  6  0  0  0
  1 21  1  0  0  0  0
  1 16  1  0  0  0  0
  2  8  2  0  0  0  0
  3 17  2  0  0  0  0
  5 17  1  0  0  0  0
  5 24  1  0  0  0  0
  6 23  1  0  0  0  0
  8 10  1  0  0  0  0
  8  7  2  0  0  0  0
  9 13  2  0  0  0  0
 10 28  1  0  0  0  0
 13 26  1  0  0  0  0
 14  9  1  0  0  0  0
 14  8  1  0  0  0  0
 15 11  2  0  0  0  0
 16 20  1  1  0  0  0
 17 25  1  0  0  0  0
 18  9  1  0  0  0  0
 19 15  1  0  0  0  0
 20  4  1  0  0  0  0
 21 22  1  0  0  0  0
 22  4  1  0  0  0  0
 23 15  1  0  0  0  0
 24 12  1  0  0  0  0
 25 19  1  6  0  0  0
 25 12  1  0  0  0  0
 26 10  1  0  0  0  0
 26 24  2  0  0  0  0
 27  5  1  0  0  0  0
 28 16  1  0  0  0  0
 28 12  2  0  0  0  0
M  END
>  <MODEL>
9

>  <REMARK>
 VINA RESULT:      -5.1      3.784      5.904
  Name = 
  0 active torsions:
  status: ('A' for Active; 'I' for Inactive)
                            x       y       z     vdW  Elec       q    Type
                         _______ _______ _______ _____ _____    ______ ____

>  <TORSDO>
F 0

$$$$
