=
 OpenBabel11122410373D

 32 38  0  0  1  0  0  0  0  0999 V2000
  191.9970  176.0250  136.6380 C   0  0  2  0  0  3  0  0  0  0  0  0
  189.5600  177.1400  140.8980 C   0  0  1  0  0  3  0  0  0  0  0  0
  184.9970  179.0760  141.1690 C   0  0  0  0  0  3  0  0  0  0  0  0
  184.9300  178.6250  142.4850 C   0  0  0  0  0  3  0  0  0  0  0  0
  190.8020  176.5700  143.0720 C   0  0  2  0  0  3  0  0  0  0  0  0
  190.7000  176.7180  144.5590 C   0  0  0  0  0  0  0  0  0  0  0  0
  190.6730  176.8460  138.6840 C   0  0  1  0  0  3  0  0  0  0  0  0
  188.3360  177.7620  138.7990 C   0  0  0  0  0  2  0  0  0  0  0  0
  189.7930  177.0930  146.5950 C   0  0  0  0  0  0  0  0  0  0  0  0
  189.4310  177.4960  136.5530 C   0  0  0  0  0  2  0  0  0  0  0  0
  186.1780  178.8970  140.4510 C   0  0  0  0  0  3  0  0  0  0  0  0
  188.5720  178.1360  140.2670 C   0  0  1  0  0  3  0  0  0  0  0  0
  187.2790  178.2600  141.0380 C   0  0  0  0  0  0  0  0  0  0  0  0
  188.3280  177.1530  143.0740 C   0  0  2  0  0  3  0  0  0  0  0  0
  191.0750  177.4200  146.5960 C   0  0  0  0  0  3  0  0  0  0  0  0
  192.6160  175.4960  137.9270 C   0  0  0  0  0  2  0  0  0  0  0  0
  189.6580  177.8020  138.0360 C   0  0  2  0  0  3  0  0  0  0  0  0
  191.6340  177.2100  145.3050 N   0  0  0  0  0  0  0  0  0  0  0  0
  191.9930  176.8720  137.9250 C   0  0  1  0  0  3  0  0  0  0  0  0
  189.3280  175.9970  136.2890 C   0  0  0  0  0  2  0  0  0  0  0  0
  186.0090  178.0330  143.0590 N   0  0  0  0  0  0  0  0  0  0  0  0
  187.1870  177.8660  142.3910 C   0  0  0  0  0  0  0  0  0  0  0  0
  188.3850  177.4850  144.5730 C   0  0  0  0  0  2  0  0  0  0  0  0
  190.8890  177.2260  140.1450 C   0  0  0  0  0  2  0  0  0  0  0  0
  192.0590  176.9700  142.6490 F   0  0  0  0  0  0  0  0  0  0  0  0
  188.9090  177.1730  147.7890 C   0  0  0  0  0  1  0  0  0  0  0  0
  189.6980  177.4200  142.4010 C   0  0  2  0  0  3  0  0  0  0  0  0
  189.3950  176.5730  145.2590 C   0  0  1  0  0  3  0  0  0  0  0  0
  190.6870  175.2750  136.2490 C   0  0  2  0  0  3  0  0  0  0  0  0
  190.5970  173.8350  136.6470 C   0  0  0  0  0  0  0  0  0  0  0  0
  189.7800  173.4690  137.5340 O   0  0  0  0  0  0  0  0  0  0  0  0
  191.4540  172.8790  136.0380 N   0  0  0  0  0  1  0  0  0  0  0  0
  1 19  1  0  0  0  0
  1 16  1  1  0  0  0
  2 24  1  6  0  0  0
  2 27  1  0  0  0  0
  3  4  1  0  0  0  0
  4 21  2  0  0  0  0
  5 25  1  6  0  0  0
  5  6  1  0  0  0  0
  6 28  1  0  0  0  0
  6 18  2  0  0  0  0
  7 24  1  1  0  0  0
  9 15  2  0  0  0  0
  9 26  1  0  0  0  0
 11 13  1  0  0  0  0
 11  3  2  0  0  0  0
 12  8  1  6  0  0  0
 12  2  1  0  0  0  0
 12 13  1  0  0  0  0
 13 22  2  0  0  0  0
 14 23  1  1  0  0  0
 17 10  1  6  0  0  0
 17  7  1  0  0  0  0
 17  8  1  0  0  0  0
 18 15  1  0  0  0  0
 19 16  1  1  0  0  0
 19  7  1  0  0  0  0
 20 10  1  0  0  0  0
 22 21  1  0  0  0  0
 22 14  1  0  0  0  0
 23 28  1  0  0  0  0
 27  5  1  0  0  0  0
 27 14  1  0  0  0  0
 28  9  1  0  0  0  0
 29 20  1  0  0  0  0
 29  1  1  0  0  0  0
 29 30  1  0  0  0  0
 30 31  2  0  0  0  0
 32 30  1  0  0  0  0
M  END
>  <MODEL>
1

>  <REMARK>
 VINA RESULT:     -10.3      0.000      0.000
  Name = 
  1 active torsions:
  status: ('A' for Active; 'I' for Inactive)
    1  A    between atoms: C_29  and  C_30
                            x       y       z     vdW  Elec       q    Type
                         _______ _______ _______ _____ _____    ______ ____

>  <TORSDO>
F 1

$$$$
=
 OpenBabel11122410373D

 32 38  0  0  1  0  0  0  0  0999 V2000
  183.1810  178.3400  137.6950 C   0  0  2  0  0  3  0  0  0  0  0  0
  185.9330  178.0040  141.8960 C   0  0  1  0  0  3  0  0  0  0  0  0
  184.2350  178.7400  146.5030 C   0  0  0  0  0  3  0  0  0  0  0  0
  185.3390  178.0370  146.9770 C   0  0  0  0  0  3  0  0  0  0  0  0
  188.3860  177.3210  141.5680 C   0  0  2  0  0  3  0  0  0  0  0  0
  189.6690  177.1460  142.3200 C   0  0  0  0  0  0  0  0  0  0  0  0
  184.4530  178.4150  139.9290 C   0  0  1  0  0  3  0  0  0  0  0  0
  183.5570  178.7240  142.2560 C   0  0  0  0  0  2  0  0  0  0  0  0
  191.0900  176.8950  144.0590 C   0  0  0  0  0  0  0  0  0  0  0  0
  182.0440  179.1640  140.2990 C   0  0  0  0  0  2  0  0  0  0  0  0
  184.1220  178.9840  145.1350 C   0  0  0  0  0  3  0  0  0  0  0  0
  184.9940  178.8480  142.7760 C   0  0  1  0  0  3  0  0  0  0  0  0
  185.0980  178.5150  144.2460 C   0  0  0  0  0  0  0  0  0  0  0  0
  187.3030  177.3040  143.8670 C   0  0  2  0  0  3  0  0  0  0  0  0
  191.6980  177.5030  143.0530 C   0  0  0  0  0  3  0  0  0  0  0  0
  184.5690  177.7260  137.5450 C   0  0  0  0  0  2  0  0  0  0  0  0
  183.4850  179.2180  140.8130 C   0  0  2  0  0  3  0  0  0  0  0  0
  190.7920  177.6850  141.9720 N   0  0  0  0  0  0  0  0  0  0  0  0
  184.3820  178.8930  138.4850 C   0  0  1  0  0  3  0  0  0  0  0  0
  181.6540  177.7640  139.8360 C   0  0  0  0  0  2  0  0  0  0  0  0
  186.2980  177.6100  146.1140 N   0  0  0  0  0  0  0  0  0  0  0  0
  186.2290  177.8540  144.7730 C   0  0  0  0  0  0  0  0  0  0  0  0
  188.6830  177.3400  144.5420 C   0  0  0  0  0  2  0  0  0  0  0  0
  185.8760  178.5400  140.4650 C   0  0  0  0  0  2  0  0  0  0  0  0
  188.6120  178.0760  140.4290 F   0  0  0  0  0  0  0  0  0  0  0  0
  191.7530  176.5330  145.3410 C   0  0  0  0  0  1  0  0  0  0  0  0
  187.3490  178.0070  142.4880 C   0  0  2  0  0  3  0  0  0  0  0  0
  189.6860  176.5700  143.6910 C   0  0  1  0  0  3  0  0  0  0  0  0
  182.1850  177.3980  138.4380 C   0  0  2  0  0  3  0  0  0  0  0  0
  182.3940  175.9270  138.2580 C   0  0  0  0  0  0  0  0  0  0  0  0
  182.9750  175.2520  139.1490 O   0  0  0  0  0  0  0  0  0  0  0  0
  181.9540  175.2930  137.0640 N   0  0  0  0  0  1  0  0  0  0  0  0
  1 16  1  6  0  0  0
  1 29  1  0  0  0  0
  1 19  1  0  0  0  0
  2 24  1  6  0  0  0
  2 27  1  0  0  0  0
  2 12  1  0  0  0  0
  3  4  1  0  0  0  0
  5 25  1  6  0  0  0
  5  6  1  0  0  0  0
  5 27  1  0  0  0  0
  6 28  1  0  0  0  0
  7 24  1  1  0  0  0
  7 17  1  0  0  0  0
  9 26  1  0  0  0  0
 11  3  2  0  0  0  0
 12  8  1  6  0  0  0
 12 13  1  0  0  0  0
 13 22  2  0  0  0  0
 13 11  1  0  0  0  0
 14 23  1  1  0  0  0
 14 22  1  0  0  0  0
 15  9  2  0  0  0  0
 17 10  1  6  0  0  0
 17  8  1  0  0  0  0
 18  6  2  0  0  0  0
 18 15  1  0  0  0  0
 19 16  1  6  0  0  0
 19  7  1  0  0  0  0
 20 10  1  0  0  0  0
 21  4  2  0  0  0  0
 22 21  1  0  0  0  0
 27 14  1  0  0  0  0
 28  9  1  0  0  0  0
 28 23  1  0  0  0  0
 29 20  1  0  0  0  0
 30 29  1  0  0  0  0
 30 31  2  0  0  0  0
 32 30  1  0  0  0  0
M  END
>  <MODEL>
2

>  <REMARK>
 VINA RESULT:      -9.9      3.752      5.737
  Name = 
  1 active torsions:
  status: ('A' for Active; 'I' for Inactive)
    1  A    between atoms: C_29  and  C_30
                            x       y       z     vdW  Elec       q    Type
                         _______ _______ _______ _____ _____    ______ ____

>  <TORSDO>
F 1

$$$$
=
 OpenBabel11122410373D

 32 38  0  0  1  0  0  0  0  0999 V2000
  189.3800  177.0490  135.7220 C   0  0  2  0  0  3  0  0  0  0  0  0
  188.3450  177.5660  140.6200 C   0  0  1  0  0  3  0  0  0  0  0  0
  183.9960  179.0610  142.4890 C   0  0  0  0  0  3  0  0  0  0  0  0
  184.3710  178.4920  143.7040 C   0  0  0  0  0  3  0  0  0  0  0  0
  190.2360  176.9180  142.2310 C   0  0  2  0  0  3  0  0  0  0  0  0
  190.5980  176.9250  143.6840 C   0  0  0  0  0  0  0  0  0  0  0  0
  188.7210  177.5670  138.1530 C   0  0  1  0  0  3  0  0  0  0  0  0
  186.4910  178.2590  139.0790 C   0  0  0  0  0  2  0  0  0  0  0  0
  190.3560  177.0380  145.9290 C   0  0  0  0  0  0  0  0  0  0  0  0
  186.8390  178.2890  136.5910 C   0  0  0  0  0  2  0  0  0  0  0  0
  184.9000  179.0510  141.4280 C   0  0  0  0  0  3  0  0  0  0  0  0
  187.1550  178.5220  140.4360 C   0  0  1  0  0  3  0  0  0  0  0  0
  186.1630  178.4630  141.5750 C   0  0  0  0  0  0  0  0  0  0  0  0
  187.8600  177.2780  143.0560 C   0  0  2  0  0  3  0  0  0  0  0  0
  191.5540  177.4750  145.5730 C   0  0  0  0  0  3  0  0  0  0  0  0
  190.4020  176.4650  136.6920 C   0  0  0  0  0  2  0  0  0  0  0  0
  187.5020  178.4820  137.9570 C   0  0  2  0  0  3  0  0  0  0  0  0
  191.6900  177.4300  144.1580 N   0  0  0  0  0  0  0  0  0  0  0  0
  189.7330  177.7750  137.0340 C   0  0  1  0  0  3  0  0  0  0  0  0
  186.7430  176.8170  136.2070 C   0  0  0  0  0  2  0  0  0  0  0  0
  185.6080  177.9490  143.8500 N   0  0  0  0  0  0  0  0  0  0  0  0
  186.5240  177.9460  142.8390 C   0  0  0  0  0  0  0  0  0  0  0  0
  188.3650  177.4810  144.4920 C   0  0  0  0  0  2  0  0  0  0  0  0
  189.3640  177.8340  139.5100 C   0  0  0  0  0  2  0  0  0  0  0  0
  191.2730  177.4630  141.4910 F   0  0  0  0  0  0  0  0  0  0  0  0
  189.8890  176.9350  147.3370 C   0  0  0  0  0  1  0  0  0  0  0  0
  188.9310  177.7230  142.0300 C   0  0  2  0  0  3  0  0  0  0  0  0
  189.5890  176.6050  144.7300 C   0  0  1  0  0  3  0  0  0  0  0  0
  188.0590  176.2230  135.6720 C   0  0  2  0  0  3  0  0  0  0  0  0
  188.1800  174.7520  135.9160 C   0  0  0  0  0  0  0  0  0  0  0  0
  187.7950  174.2530  137.0080 O   0  0  0  0  0  0  0  0  0  0  0  0
  188.7530  173.9150  134.9200 N   0  0  0  0  0  1  0  0  0  0  0  0
  1 16  1  1  0  0  0
  1 19  1  0  0  0  0
  2 24  1  6  0  0  0
  2 27  1  0  0  0  0
  3  4  1  0  0  0  0
  4 21  2  0  0  0  0
  5 25  1  6  0  0  0
  5  6  1  0  0  0  0
  6 18  2  0  0  0  0
  6 28  1  0  0  0  0
  7 24  1  1  0  0  0
  9 26  1  0  0  0  0
 11 13  1  0  0  0  0
 11  3  2  0  0  0  0
 12  8  1  6  0  0  0
 12  2  1  0  0  0  0
 12 13  1  0  0  0  0
 13 22  2  0  0  0  0
 14 23  1  1  0  0  0
 15  9  2  0  0  0  0
 17 10  1  6  0  0  0
 17  7  1  0  0  0  0
 17  8  1  0  0  0  0
 18 15  1  0  0  0  0
 19 16  1  1  0  0  0
 19  7  1  0  0  0  0
 20 10  1  0  0  0  0
 22 14  1  0  0  0  0
 22 21  1  0  0  0  0
 23 28  1  0  0  0  0
 27  5  1  0  0  0  0
 27 14  1  0  0  0  0
 28  9  1  0  0  0  0
 29  1  1  0  0  0  0
 29 30  1  0  0  0  0
 29 20  1  0  0  0  0
 30 31  2  0  0  0  0
 32 30  1  0  0  0  0
M  END
>  <MODEL>
3

>  <REMARK>
 VINA RESULT:      -9.8      1.399      1.839
  Name = 
  1 active torsions:
  status: ('A' for Active; 'I' for Inactive)
    1  A    between atoms: C_29  and  C_30
                            x       y       z     vdW  Elec       q    Type
                         _______ _______ _______ _____ _____    ______ ____

>  <TORSDO>
F 1

$$$$
=
 OpenBabel11122410373D

 32 38  0  0  1  0  0  0  0  0999 V2000
  185.7330  177.6640  136.4570 C   0  0  2  0  0  3  0  0  0  0  0  0
  186.7560  177.9120  141.3790 C   0  0  1  0  0  3  0  0  0  0  0  0
  183.5370  179.2550  144.9120 C   0  0  0  0  0  3  0  0  0  0  0  0
  184.3620  178.6280  145.8420 C   0  0  0  0  0  3  0  0  0  0  0  0
  189.1280  177.2040  142.0600 C   0  0  2  0  0  3  0  0  0  0  0  0
  190.0420  177.1390  143.2440 C   0  0  0  0  0  0  0  0  0  0  0  0
  186.1100  178.0470  138.9720 C   0  0  1  0  0  3  0  0  0  0  0  0
  184.4460  178.6630  140.7500 C   0  0  0  0  0  2  0  0  0  0  0  0
  190.7220  177.1320  145.4000 C   0  0  0  0  0  0  0  0  0  0  0  0
  183.7670  178.8270  138.3370 C   0  0  0  0  0  2  0  0  0  0  0  0
  183.9390  179.3110  143.5780 C   0  0  0  0  0  3  0  0  0  0  0  0
  185.6010  178.8630  141.7390 C   0  0  1  0  0  3  0  0  0  0  0  0
  185.1500  178.7320  143.1750 C   0  0  0  0  0  0  0  0  0  0  0  0
  187.2850  177.4920  143.7860 C   0  0  2  0  0  3  0  0  0  0  0  0
  191.6810  177.6010  144.6170 C   0  0  0  0  0  3  0  0  0  0  0  0
  187.0530  177.0430  136.9040 C   0  0  0  0  0  2  0  0  0  0  0  0
  184.9250  178.9570  139.3300 C   0  0  2  0  0  3  0  0  0  0  0  0
  191.2370  177.6320  143.2660 N   0  0  0  0  0  0  0  0  0  0  0  0
  186.5900  178.3260  137.5540 C   0  0  1  0  0  3  0  0  0  0  0  0
  183.5100  177.3760  137.9470 C   0  0  0  0  0  2  0  0  0  0  0  0
  185.5480  178.0930  145.4510 N   0  0  0  0  0  0  0  0  0  0  0  0
  185.9820  178.1540  144.1590 C   0  0  0  0  0  0  0  0  0  0  0  0
  188.3260  177.6260  144.9080 C   0  0  0  0  0  2  0  0  0  0  0  0
  187.2460  178.2500  139.9700 C   0  0  0  0  0  2  0  0  0  0  0  0
  189.7850  177.7990  140.9960 F   0  0  0  0  0  0  0  0  0  0  0  0
  190.8580  176.9490  146.8700 C   0  0  0  0  0  1  0  0  0  0  0  0
  187.8600  178.0030  142.4420 C   0  0  2  0  0  3  0  0  0  0  0  0
  189.5350  176.7530  144.5880 C   0  0  1  0  0  3  0  0  0  0  0  0
  184.4950  176.8270  136.8980 C   0  0  2  0  0  3  0  0  0  0  0  0
  184.6890  175.3460  136.9960 C   0  0  0  0  0  0  0  0  0  0  0  0
  184.3010  174.7180  138.0170 O   0  0  0  0  0  0  0  0  0  0  0  0
  185.3360  174.6480  135.9400 N   0  0  0  0  0  1  0  0  0  0  0  0
  1 29  1  0  0  0  0
  1 16  1  1  0  0  0
  1 19  1  0  0  0  0
  2 24  1  6  0  0  0
  2 12  1  0  0  0  0
  2 27  1  0  0  0  0
  3  4  1  0  0  0  0
  5 25  1  6  0  0  0
  5 27  1  0  0  0  0
  5  6  1  0  0  0  0
  6 18  2  0  0  0  0
  6 28  1  0  0  0  0
  7 17  1  0  0  0  0
  7 24  1  1  0  0  0
  9 26  1  0  0  0  0
 11  3  2  0  0  0  0
 12  8  1  6  0  0  0
 12 13  1  0  0  0  0
 13 11  1  0  0  0  0
 13 22  2  0  0  0  0
 14 22  1  0  0  0  0
 14 23  1  1  0  0  0
 15  9  2  0  0  0  0
 17 10  1  6  0  0  0
 17  8  1  0  0  0  0
 18 15  1  0  0  0  0
 19 16  1  1  0  0  0
 19  7  1  0  0  0  0
 20 10  1  0  0  0  0
 21  4  2  0  0  0  0
 22 21  1  0  0  0  0
 27 14  1  0  0  0  0
 28 23  1  0  0  0  0
 28  9  1  0  0  0  0
 29 30  1  0  0  0  0
 29 20  1  0  0  0  0
 30 31  2  0  0  0  0
 32 30  1  0  0  0  0
M  END
>  <MODEL>
4

>  <REMARK>
 VINA RESULT:      -9.8      2.941      4.092
  Name = 
  1 active torsions:
  status: ('A' for Active; 'I' for Inactive)
    1  A    between atoms: C_29  and  C_30
                            x       y       z     vdW  Elec       q    Type
                         _______ _______ _______ _____ _____    ______ ____

>  <TORSDO>
F 1

$$$$
=
 OpenBabel11122410373D

 32 38  0  0  1  0  0  0  0  0999 V2000
  190.4230  176.6050  136.9200 C   0  0  2  0  0  3  0  0  0  0  0  0
  187.0990  177.8170  140.5000 C   0  0  1  0  0  3  0  0  0  0  0  0
  182.5030  179.5100  139.6910 C   0  0  0  0  0  3  0  0  0  0  0  0
  182.1800  179.1290  140.9910 C   0  0  0  0  0  3  0  0  0  0  0  0
  187.8790  177.4370  142.9170 C   0  0  2  0  0  3  0  0  0  0  0  0
  187.4590  177.6600  144.3370 C   0  0  0  0  0  0  0  0  0  0  0  0
  188.6640  177.4630  138.5890 C   0  0  1  0  0  3  0  0  0  0  0  0
  186.3190  178.2530  138.1570 C   0  0  0  0  0  2  0  0  0  0  0  0
  186.1290  178.0960  146.1120 C   0  0  0  0  0  0  0  0  0  0  0  0
  187.8730  177.9250  136.2090 C   0  0  0  0  0  2  0  0  0  0  0  0
  183.8160  179.3570  139.2470 C   0  0  0  0  0  3  0  0  0  0  0  0
  186.2250  178.7200  139.6140 C   0  0  1  0  0  3  0  0  0  0  0  0
  184.7940  178.8150  140.0900 C   0  0  0  0  0  0  0  0  0  0  0  0
  185.4370  177.8810  142.3680 C   0  0  2  0  0  3  0  0  0  0  0  0
  187.3680  178.4930  146.3570 C   0  0  0  0  0  3  0  0  0  0  0  0
  190.7790  176.1830  138.3420 C   0  0  0  0  0  2  0  0  0  0  0  0
  187.7690  178.3240  137.6840 C   0  0  2  0  0  3  0  0  0  0  0  0
  188.1940  178.2430  145.2270 N   0  0  0  0  0  0  0  0  0  0  0  0
  190.1120  177.5200  138.1200 C   0  0  1  0  0  3  0  0  0  0  0  0
  187.8910  176.4110  136.0280 C   0  0  0  0  0  2  0  0  0  0  0  0
  183.1380  178.6300  141.8140 N   0  0  0  0  0  0  0  0  0  0  0  0
  184.4370  178.4920  141.4180 C   0  0  0  0  0  0  0  0  0  0  0  0
  185.1630  178.2990  143.8200 C   0  0  0  0  0  2  0  0  0  0  0  0
  188.5520  177.9340  140.0350 C   0  0  0  0  0  2  0  0  0  0  0  0
  189.1780  177.8820  142.7390 F   0  0  0  0  0  0  0  0  0  0  0  0
  185.0120  178.1930  147.0890 C   0  0  0  0  0  1  0  0  0  0  0  0
  186.9050  178.1860  141.9780 C   0  0  2  0  0  3  0  0  0  0  0  0
  186.0440  177.4820  144.7600 C   0  0  1  0  0  3  0  0  0  0  0  0
  189.2570  175.7630  136.3180 C   0  0  2  0  0  3  0  0  0  0  0  0
  189.1470  174.3450  136.7820 C   0  0  0  0  0  0  0  0  0  0  0  0
  190.1540  173.5890  136.7670 O   0  0  0  0  0  0  0  0  0  0  0  0
  187.8910  173.8410  137.2200 N   0  0  0  0  0  1  0  0  0  0  0  0
  1 19  1  0  0  0  0
  1 16  1  1  0  0  0
  2 24  1  6  0  0  0
  2 27  1  0  0  0  0
  3  4  1  0  0  0  0
  4 21  2  0  0  0  0
  5 25  1  1  0  0  0
  5  6  1  0  0  0  0
  6 28  1  0  0  0  0
  6 18  2  0  0  0  0
  7 24  1  1  0  0  0
  9 15  2  0  0  0  0
  9 26  1  0  0  0  0
 11  3  2  0  0  0  0
 11 13  1  0  0  0  0
 12  8  1  6  0  0  0
 12 13  1  0  0  0  0
 12  2  1  0  0  0  0
 13 22  2  0  0  0  0
 14 23  1  1  0  0  0
 17 10  1  6  0  0  0
 17  8  1  0  0  0  0
 17  7  1  0  0  0  0
 18 15  1  0  0  0  0
 19 16  1  1  0  0  0
 19  7  1  0  0  0  0
 20 10  1  0  0  0  0
 20 29  1  0  0  0  0
 22 21  1  0  0  0  0
 22 14  1  0  0  0  0
 23 28  1  0  0  0  0
 27 14  1  0  0  0  0
 27  5  1  0  0  0  0
 28  9  1  0  0  0  0
 29 30  1  0  0  0  0
 29  1  1  0  0  0  0
 30 32  1  0  0  0  0
 31 30  2  0  0  0  0
M  END
>  <MODEL>
5

>  <REMARK>
 VINA RESULT:      -8.1      2.048      2.805
  Name = 
  1 active torsions:
  status: ('A' for Active; 'I' for Inactive)
    1  A    between atoms: C_29  and  C_30
                            x       y       z     vdW  Elec       q    Type
                         _______ _______ _______ _____ _____    ______ ____

>  <TORSDO>
F 1

$$$$
