=
 OpenBabel11122410503D

 32 37  0  0  1  0  0  0  0  0999 V2000
  183.3310  178.2980  140.9490 C   0  0  1  0  0  3  0  0  0  0  0  0
  186.5020  178.1840  137.2200 C   0  0  0  0  0  3  0  0  0  0  0  0
  185.6560  177.3040  136.5410 C   0  0  0  0  0  3  0  0  0  0  0  0
  180.9660  177.4130  140.7360 C   0  0  2  0  0  3  0  0  0  0  0  0
  180.1080  176.4940  139.8510 C   0  0  2  0  0  3  0  0  0  0  0  0
  184.0920  178.8610  142.9910 C   0  0  2  0  0  3  0  0  0  0  0  0
  185.4050  179.6640  141.0190 O   0  0  0  0  0  0  0  0  0  0  0  0
  179.7300  175.4200  137.7510 C   0  0  2  0  0  3  0  0  0  0  0  0
  186.0880  178.7700  138.4180 C   0  0  0  0  0  3  0  0  0  0  0  0
  184.3540  179.1520  140.2060 C   0  0  1  0  0  3  0  0  0  0  0  0
  184.8280  178.4720  138.9520 C   0  0  0  0  0  0  0  0  0  0  0  0
  182.6020  177.2150  138.8250 C   0  0  2  0  0  3  0  0  0  0  0  0
  180.3050  174.3650  138.6770 C   0  0  0  0  0  2  0  0  0  0  0  0
  185.4730  179.0530  142.3010 C   0  0  2  0  0  3  0  0  0  0  0  0
  180.4880  175.0330  140.0320 C   0  0  0  0  0  2  0  0  0  0  0  0
  184.3880  177.0170  137.0550 C   0  0  0  0  0  3  0  0  0  0  0  0
  183.9480  177.6160  138.2450 C   0  0  0  0  0  0  0  0  0  0  0  0
  181.4880  177.2550  137.7860 C   0  0  0  0  0  2  0  0  0  0  0  0
  182.9880  178.9850  142.1170 O   0  0  0  0  0  0  0  0  0  0  0  0
  180.1590  178.4020  141.2980 O   0  0  0  0  0  1  0  0  0  0  0  0
  180.1940  175.2420  136.4450 O   0  0  0  0  0  1  0  0  0  0  0  0
  182.1510  178.0690  140.0170 C   0  0  2  0  0  3  0  0  0  0  0  0
  180.1280  176.7680  138.3390 C   0  0  2  0  0  3  0  0  0  0  0  0
  187.5850  177.9520  141.5900 C   0  0  0  0  0  2  0  0  0  0  0  0
  186.2300  177.7350  142.2320 C   0  0  1  0  0  3  0  0  0  0  0  0
  187.4720  177.8270  143.0950 C   0  0  1  0  0  3  0  0  0  0  0  0
  187.8790  176.4310  143.5210 C   0  0  0  0  0  2  0  0  0  0  0  0
  189.3630  176.3330  143.5800 C   0  0  0  0  0  0  0  0  0  0  0  0
  190.0140  177.0840  144.3520 O   0  0  0  0  0  1  0  0  0  0  0  0
  190.0280  175.3850  142.8130 O   0  0  0  0  0  0  0  0  0  0  0  0
  183.6790  179.1780  145.3170 O   0  0  0  0  0  1  0  0  0  0  0  0
  183.9560  179.8530  144.1300 C   0  0  0  0  0  2  0  0  0  0  0  0
  1 19  1  1  0  0  0
  2  9  1  0  0  0  0
  3 16  1  0  0  0  0
  3  2  2  0  0  0  0
  4 20  1  6  0  0  0
  5 15  1  6  0  0  0
  5  4  1  0  0  0  0
  6 32  1  1  0  0  0
  8 21  1  6  0  0  0
  8 23  1  0  0  0  0
  8 13  1  0  0  0  0
  9 11  2  0  0  0  0
 10 11  1  6  0  0  0
 10  1  1  0  0  0  0
 10  7  1  0  0  0  0
 12 18  1  6  0  0  0
 12 22  1  0  0  0  0
 13 15  1  0  0  0  0
 14  7  1  6  0  0  0
 14  6  1  0  0  0  0
 16 17  2  0  0  0  0
 17 12  1  0  0  0  0
 17 11  1  0  0  0  0
 18 23  1  0  0  0  0
 19  6  1  0  0  0  0
 22  4  1  0  0  0  0
 22  1  1  0  0  0  0
 23  5  1  0  0  0  0
 24 25  1  0  0  0  0
 24 26  1  0  0  0  0
 25 14  1  0  0  0  0
 25 26  1  0  0  0  0
 26 27  1  0  0  0  0
 27 28  1  0  0  0  0
 28 29  1  0  0  0  0
 30 28  2  0  0  0  0
 32 31  1  0  0  0  0
M  END
>  <MODEL>
1

>  <REMARK>
 VINA RESULT:      -7.3      0.000      0.000
  Name = 
  4 active torsions:
  status: ('A' for Active; 'I' for Inactive)
    1  A    between atoms: C_7  and  C_19
    2  A    between atoms: C_10  and  C_17
    3  A    between atoms: C_20  and  C_29
    4  A    between atoms: C_29  and  C_30
                            x       y       z     vdW  Elec       q    Type
                         _______ _______ _______ _____ _____    ______ ____

>  <TORSDO>
F 4

$$$$
=
 OpenBabel11122410503D

 32 37  0  0  1  0  0  0  0  0999 V2000
  183.6440  178.1730  140.7080 C   0  0  1  0  0  3  0  0  0  0  0  0
  179.2560  178.8030  142.7870 C   0  0  0  0  0  3  0  0  0  0  0  0
  179.8580  178.7540  144.0460 C   0  0  0  0  0  3  0  0  0  0  0  0
  185.8040  178.4350  142.0090 C   0  0  2  0  0  3  0  0  0  0  0  0
  186.3340  178.4620  143.4520 C   0  0  2  0  0  3  0  0  0  0  0  0
  183.7360  177.3230  138.6260 C   0  0  2  0  0  3  0  0  0  0  0  0
  181.6160  178.4680  139.3030 O   0  0  0  0  0  0  0  0  0  0  0  0
  185.9490  178.8000  145.7850 C   0  0  2  0  0  3  0  0  0  0  0  0
  180.0440  178.8160  141.6350 C   0  0  0  0  0  3  0  0  0  0  0  0
  182.2930  178.8490  140.4960 C   0  0  1  0  0  3  0  0  0  0  0  0
  181.4410  178.7690  141.7320 C   0  0  0  0  0  0  0  0  0  0  0  0
  183.5650  178.6440  143.1560 C   0  0  2  0  0  3  0  0  0  0  0  0
  185.9740  177.2990  145.5650 C   0  0  0  0  0  2  0  0  0  0  0  0
  182.1810  177.3220  138.6780 C   0  0  2  0  0  3  0  0  0  0  0  0
  186.2800  177.0830  144.0910 C   0  0  0  0  0  2  0  0  0  0  0  0
  181.2510  178.7280  144.1550 C   0  0  0  0  0  3  0  0  0  0  0  0
  182.0570  178.7640  143.0080 C   0  0  0  0  0  0  0  0  0  0  0  0
  184.1220  179.5960  144.2070 C   0  0  0  0  0  2  0  0  0  0  0  0
  184.3420  178.2550  139.5000 O   0  0  0  0  0  0  0  0  0  0  0  0
  186.6190  179.2240  141.2000 O   0  0  0  0  0  1  0  0  0  0  0  0
  185.0120  179.1440  146.7620 O   0  0  0  0  0  1  0  0  0  0  0  0
  184.3450  178.8840  141.8570 C   0  0  2  0  0  3  0  0  0  0  0  0
  185.6440  179.4260  144.4300 C   0  0  2  0  0  3  0  0  0  0  0  0
  180.1550  176.1000  139.4400 C   0  0  0  0  0  2  0  0  0  0  0  0
  181.6640  176.0450  139.3250 C   0  0  1  0  0  3  0  0  0  0  0  0
  180.8000  175.2970  138.3300 C   0  0  1  0  0  3  0  0  0  0  0  0
  180.7900  173.8260  138.6950 C   0  0  0  0  0  2  0  0  0  0  0  0
  180.0360  173.0550  137.6690 C   0  0  0  0  0  0  0  0  0  0  0  0
  180.0780  171.7970  137.6700 O   0  0  0  0  0  1  0  0  0  0  0  0
  179.2530  173.7210  136.7350 O   0  0  0  0  0  0  0  0  0  0  0  0
  185.5840  177.5980  137.1460 O   0  0  0  0  0  1  0  0  0  0  0  0
  184.1910  177.5860  137.2040 C   0  0  0  0  0  2  0  0  0  0  0  0
  1 19  1  6  0  0  0
  1 22  1  0  0  0  0
  2  3  1  0  0  0  0
  3 16  2  0  0  0  0
  4 20  1  6  0  0  0
  4  5  1  0  0  0  0
  5 15  1  1  0  0  0
  5 23  1  0  0  0  0
  6 32  1  6  0  0  0
  6 14  1  0  0  0  0
  6 19  1  0  0  0  0
  8 21  1  1  0  0  0
  9 11  1  0  0  0  0
  9  2  2  0  0  0  0
 10  7  1  6  0  0  0
 10  1  1  0  0  0  0
 10 11  1  0  0  0  0
 11 17  2  0  0  0  0
 12 18  1  1  0  0  0
 13  8  1  0  0  0  0
 14  7  1  1  0  0  0
 14 25  1  0  0  0  0
 15 13  1  0  0  0  0
 17 12  1  0  0  0  0
 17 16  1  0  0  0  0
 18 23  1  0  0  0  0
 22  4  1  0  0  0  0
 22 12  1  0  0  0  0
 23  8  1  0  0  0  0
 25 24  1  0  0  0  0
 26 27  1  0  0  0  0
 26 25  1  0  0  0  0
 26 24  1  0  0  0  0
 28 29  1  0  0  0  0
 28 27  1  0  0  0  0
 30 28  2  0  0  0  0
 31 32  1  0  0  0  0
M  END
>  <MODEL>
2

>  <REMARK>
 VINA RESULT:      -7.0      2.027      7.774
  Name = 
  4 active torsions:
  status: ('A' for Active; 'I' for Inactive)
    1  A    between atoms: C_7  and  C_19
    2  A    between atoms: C_10  and  C_17
    3  A    between atoms: C_20  and  C_29
    4  A    between atoms: C_29  and  C_30
                            x       y       z     vdW  Elec       q    Type
                         _______ _______ _______ _____ _____    ______ ____

>  <TORSDO>
F 4

$$$$
=
 OpenBabel11122410503D

 32 37  0  0  1  0  0  0  0  0999 V2000
  189.4270  177.2200  139.3290 C   0  0  1  0  0  3  0  0  0  0  0  0
  184.9240  178.8280  140.3810 C   0  0  0  0  0  3  0  0  0  0  0  0
  185.2250  178.7490  141.7420 C   0  0  0  0  0  3  0  0  0  0  0  0
  191.2730  177.1470  141.0640 C   0  0  2  0  0  3  0  0  0  0  0  0
  191.4840  177.1700  142.5870 C   0  0  2  0  0  3  0  0  0  0  0  0
  189.7770  176.2280  137.3390 C   0  0  2  0  0  3  0  0  0  0  0  0
  187.8420  177.8050  137.5070 O   0  0  0  0  0  0  0  0  0  0  0  0
  190.6960  177.7340  144.7700 C   0  0  2  0  0  3  0  0  0  0  0  0
  185.9210  178.6090  139.4290 C   0  0  0  0  0  3  0  0  0  0  0  0
  188.3170  178.1290  138.8100 C   0  0  1  0  0  3  0  0  0  0  0  0
  187.2270  178.2990  139.8310 C   0  0  0  0  0  0  0  0  0  0  0  0
  188.9350  177.8630  141.6870 C   0  0  2  0  0  3  0  0  0  0  0  0
  190.4600  176.2450  144.5980 C   0  0  0  0  0  2  0  0  0  0  0  0
  188.2790  176.5320  137.0500 C   0  0  2  0  0  3  0  0  0  0  0  0
  191.0180  175.8740  143.2320 C   0  0  0  0  0  2  0  0  0  0  0  0
  186.5290  178.4620  142.1540 C   0  0  0  0  0  3  0  0  0  0  0  0
  187.5480  178.2630  141.2110 C   0  0  0  0  0  0  0  0  0  0  0  0
  189.4410  178.7590  142.8110 C   0  0  0  0  0  2  0  0  0  0  0  0
  190.3640  177.0830  138.3010 O   0  0  0  0  0  0  0  0  0  0  0  0
  192.3830  177.7060  140.4330 O   0  0  0  0  0  1  0  0  0  0  0  0
  189.6650  178.3190  145.5090 O   0  0  0  0  0  1  0  0  0  0  0  0
  190.0020  177.8580  140.5850 C   0  0  2  0  0  3  0  0  0  0  0  0
  190.8150  178.3130  143.3660 C   0  0  2  0  0  3  0  0  0  0  0  0
  186.0090  175.5220  136.9830 C   0  0  0  0  0  2  0  0  0  0  0  0
  187.3890  175.4260  137.5990 C   0  0  1  0  0  3  0  0  0  0  0  0
  186.9960  174.4950  136.4700 C   0  0  1  0  0  3  0  0  0  0  0  0
  186.6610  173.1350  137.0480 C   0  0  0  0  0  2  0  0  0  0  0  0
  185.4010  172.6240  136.4420 C   0  0  0  0  0  0  0  0  0  0  0  0
  185.2980  172.5240  135.1920 O   0  0  0  0  0  0  0  0  0  0  0  0
  184.3510  172.2220  137.2580 O   0  0  0  0  0  1  0  0  0  0  0  0
  189.7300  176.7120  135.0050 O   0  0  0  0  0  1  0  0  0  0  0  0
  190.5640  176.3000  136.0450 C   0  0  0  0  0  2  0  0  0  0  0  0
  1 19  1  6  0  0  0
  1 22  1  0  0  0  0
  2  3  1  0  0  0  0
  3 16  2  0  0  0  0
  4 20  1  6  0  0  0
  4  5  1  0  0  0  0
  5 15  1  1  0  0  0
  5 23  1  0  0  0  0
  6 32  1  6  0  0  0
  6 19  1  0  0  0  0
  8 21  1  6  0  0  0
  9 11  1  0  0  0  0
  9  2  2  0  0  0  0
 10  7  1  6  0  0  0
 10  1  1  0  0  0  0
 10 11  1  0  0  0  0
 11 17  2  0  0  0  0
 12 18  1  1  0  0  0
 13  8  1  0  0  0  0
 14  6  1  0  0  0  0
 14  7  1  1  0  0  0
 14 25  1  0  0  0  0
 15 13  1  0  0  0  0
 17 12  1  0  0  0  0
 17 16  1  0  0  0  0
 18 23  1  0  0  0  0
 22  4  1  0  0  0  0
 22 12  1  0  0  0  0
 23  8  1  0  0  0  0
 24 25  1  0  0  0  0
 26 24  1  0  0  0  0
 26 27  1  0  0  0  0
 26 25  1  0  0  0  0
 28 27  1  0  0  0  0
 28 30  1  0  0  0  0
 29 28  2  0  0  0  0
 31 32  1  0  0  0  0
M  END
>  <MODEL>
3

>  <REMARK>
 VINA RESULT:      -7.0      3.948      8.746
  Name = 
  4 active torsions:
  status: ('A' for Active; 'I' for Inactive)
    1  A    between atoms: C_7  and  C_19
    2  A    between atoms: C_10  and  C_17
    3  A    between atoms: C_20  and  C_29
    4  A    between atoms: C_29  and  C_30
                            x       y       z     vdW  Elec       q    Type
                         _______ _______ _______ _____ _____    ______ ____

>  <TORSDO>
F 4

$$$$
=
 OpenBabel11122410503D

 32 37  0  0  1  0  0  0  0  0999 V2000
  186.7320  178.3110  140.8010 C   0  0  1  0  0  3  0  0  0  0  0  0
  183.9300  179.1020  144.7380 C   0  0  0  0  0  3  0  0  0  0  0  0
  184.9120  178.5180  145.5410 C   0  0  0  0  0  3  0  0  0  0  0  0
  189.1790  177.6810  140.9920 C   0  0  2  0  0  3  0  0  0  0  0  0
  190.1950  177.1210  142.0020 C   0  0  2  0  0  3  0  0  0  0  0  0
  185.7420  178.1950  138.7830 C   0  0  2  0  0  3  0  0  0  0  0  0
  184.5400  179.4610  140.5760 O   0  0  0  0  0  0  0  0  0  0  0  0
  190.8570  176.7410  144.2650 C   0  0  2  0  0  3  0  0  0  0  0  0
  184.1790  179.3330  143.3840 C   0  0  0  0  0  3  0  0  0  0  0  0
  185.7040  179.2790  141.3780 C   0  0  1  0  0  3  0  0  0  0  0  0
  185.4090  178.9720  142.8190 C   0  0  0  0  0  0  0  0  0  0  0  0
  187.7450  177.9520  143.0510 C   0  0  2  0  0  3  0  0  0  0  0  0
  190.3030  175.4260  143.7520 C   0  0  0  0  0  2  0  0  0  0  0  0
  184.4170  178.4950  139.5390 C   0  0  2  0  0  3  0  0  0  0  0  0
  189.9380  175.6510  142.2920 C   0  0  0  0  0  2  0  0  0  0  0  0
  186.1500  178.1730  144.9920 C   0  0  0  0  0  3  0  0  0  0  0  0
  186.4250  178.4200  143.6390 C   0  0  0  0  0  0  0  0  0  0  0  0
  188.9380  178.3690  143.9030 C   0  0  0  0  0  2  0  0  0  0  0  0
  186.9040  178.6430  139.4550 O   0  0  0  0  0  0  0  0  0  0  0  0
  189.8370  178.5090  140.0830 O   0  0  0  0  0  1  0  0  0  0  0  0
  190.5290  176.9270  145.6100 O   0  0  0  0  0  1  0  0  0  0  0  0
  188.0070  178.4430  141.6210 C   0  0  2  0  0  3  0  0  0  0  0  0
  190.2840  177.8270  143.3640 C   0  0  2  0  0  3  0  0  0  0  0  0
  182.4760  177.5170  140.7460 C   0  0  0  0  0  2  0  0  0  0  0  0
  183.7960  177.2110  140.0690 C   0  0  1  0  0  3  0  0  0  0  0  0
  182.4920  176.9510  139.3420 C   0  0  1  0  0  3  0  0  0  0  0  0
  182.1900  175.4660  139.3900 C   0  0  0  0  0  2  0  0  0  0  0  0
  180.7180  175.2480  139.3630 C   0  0  0  0  0  0  0  0  0  0  0  0
  180.0480  175.5960  138.3560 O   0  0  0  0  0  0  0  0  0  0  0  0
  180.0880  174.6250  140.4320 O   0  0  0  0  0  1  0  0  0  0  0  0
  186.9720  179.1020  136.9530 O   0  0  0  0  0  1  0  0  0  0  0  0
  185.6830  178.8140  137.4000 C   0  0  0  0  0  2  0  0  0  0  0  0
  1 19  1  6  0  0  0
  1 10  1  0  0  0  0
  1 22  1  0  0  0  0
  2  3  1  0  0  0  0
  4 20  1  6  0  0  0
  4 22  1  0  0  0  0
  4  5  1  0  0  0  0
  5 15  1  1  0  0  0
  5 23  1  0  0  0  0
  6 32  1  6  0  0  0
  6 19  1  0  0  0  0
  6 14  1  0  0  0  0
  8 21  1  1  0  0  0
  9  2  2  0  0  0  0
 10  7  1  6  0  0  0
 10 11  1  0  0  0  0
 11  9  1  0  0  0  0
 11 17  2  0  0  0  0
 12 17  1  0  0  0  0
 12 18  1  1  0  0  0
 13  8  1  0  0  0  0
 14 25  1  0  0  0  0
 14  7  1  1  0  0  0
 15 13  1  0  0  0  0
 16  3  2  0  0  0  0
 17 16  1  0  0  0  0
 22 12  1  0  0  0  0
 23 18  1  0  0  0  0
 23  8  1  0  0  0  0
 25 24  1  0  0  0  0
 26 27  1  0  0  0  0
 26 25  1  0  0  0  0
 26 24  1  0  0  0  0
 28 27  1  0  0  0  0
 28 30  1  0  0  0  0
 29 28  2  0  0  0  0
 31 32  1  0  0  0  0
M  END
>  <MODEL>
4

>  <REMARK>
 VINA RESULT:      -7.0      1.855      8.130
  Name = 
  4 active torsions:
  status: ('A' for Active; 'I' for Inactive)
    1  A    between atoms: C_7  and  C_19
    2  A    between atoms: C_10  and  C_17
    3  A    between atoms: C_20  and  C_29
    4  A    between atoms: C_29  and  C_30
                            x       y       z     vdW  Elec       q    Type
                         _______ _______ _______ _____ _____    ______ ____

>  <TORSDO>
F 4

$$$$
=
 OpenBabel11122410503D

 32 37  0  0  1  0  0  0  0  0999 V2000
  184.2390  177.3320  137.9900 C   0  0  1  0  0  3  0  0  0  0  0  0
  189.0910  177.7520  138.5020 C   0  0  0  0  0  3  0  0  0  0  0  0
  189.2460  176.4650  137.9830 C   0  0  0  0  0  3  0  0  0  0  0  0
  183.1830  175.4920  136.6040 C   0  0  2  0  0  3  0  0  0  0  0  0
  183.5080  174.1190  135.9940 C   0  0  2  0  0  3  0  0  0  0  0  0
  182.9080  178.6160  139.2720 C   0  0  2  0  0  3  0  0  0  0  0  0
  185.2360  179.4360  138.8610 O   0  0  0  0  0  0  0  0  0  0  0  0
  185.1190  172.5400  135.2090 C   0  0  2  0  0  3  0  0  0  0  0  0
  187.8330  178.3570  138.5080 C   0  0  0  0  0  3  0  0  0  0  0  0
  185.3750  178.3500  137.9490 C   0  0  1  0  0  3  0  0  0  0  0  0
  186.7170  177.6760  138.0050 C   0  0  0  0  0  0  0  0  0  0  0  0
  185.6820  175.5900  136.9420 C   0  0  2  0  0  3  0  0  0  0  0  0
  184.7020  172.0780  136.5920 C   0  0  0  0  0  2  0  0  0  0  0  0
  184.2240  179.2230  139.8370 C   0  0  2  0  0  3  0  0  0  0  0  0
  183.6310  173.0480  137.0670 C   0  0  0  0  0  2  0  0  0  0  0  0
  188.1440  175.7850  137.4590 C   0  0  0  0  0  3  0  0  0  0  0  0
  186.8770  176.3880  137.4360 C   0  0  0  0  0  0  0  0  0  0  0  0
  185.9530  174.9090  135.6070 C   0  0  0  0  0  2  0  0  0  0  0  0
  183.0400  178.0500  137.9830 O   0  0  0  0  0  0  0  0  0  0  0  0
  182.2290  176.1350  135.8180 O   0  0  0  0  0  1  0  0  0  0  0  0
  186.4760  172.2880  134.9880 O   0  0  0  0  0  1  0  0  0  0  0  0
  184.3960  176.4120  136.7890 C   0  0  2  0  0  3  0  0  0  0  0  0
  184.7760  174.0230  135.1320 C   0  0  2  0  0  3  0  0  0  0  0  0
  186.0190  179.0050  141.5430 C   0  0  0  0  0  2  0  0  0  0  0  0
  184.7540  178.3820  140.9900 C   0  0  1  0  0  3  0  0  0  0  0  0
  184.7020  179.1970  142.2660 C   0  0  1  0  0  3  0  0  0  0  0  0
  184.6300  178.2530  143.4500 C   0  0  0  0  0  2  0  0  0  0  0  0
  183.6250  178.7460  144.4310 C   0  0  0  0  0  0  0  0  0  0  0  0
  182.4260  178.9020  144.0800 O   0  0  0  0  0  0  0  0  0  0  0  0
  184.0010  178.9980  145.7440 O   0  0  0  0  0  1  0  0  0  0  0  0
  182.1850  180.6990  138.3660 O   0  0  0  0  0  1  0  0  0  0  0  0
  181.8300  179.6840  139.2530 C   0  0  0  0  0  2  0  0  0  0  0  0
  1 19  1  6  0  0  0
  2  9  1  0  0  0  0
  3  2  2  0  0  0  0
  4 20  1  6  0  0  0
  4 22  1  0  0  0  0
  5  4  1  0  0  0  0
  5 15  1  1  0  0  0
  6 32  1  6  0  0  0
  6 14  1  0  0  0  0
  8 21  1  1  0  0  0
  8 13  1  0  0  0  0
 10  1  1  0  0  0  0
 10 11  1  1  0  0  0
 10  7  1  0  0  0  0
 11  9  2  0  0  0  0
 12 18  1  6  0  0  0
 12 17  1  0  0  0  0
 13 15  1  0  0  0  0
 14  7  1  6  0  0  0
 14 25  1  0  0  0  0
 16  3  1  0  0  0  0
 17 16  2  0  0  0  0
 17 11  1  0  0  0  0
 19  6  1  0  0  0  0
 22 12  1  0  0  0  0
 22  1  1  0  0  0  0
 23  8  1  0  0  0  0
 23 18  1  0  0  0  0
 23  5  1  0  0  0  0
 24 26  1  0  0  0  0
 25 24  1  0  0  0  0
 25 26  1  0  0  0  0
 26 27  1  0  0  0  0
 27 28  1  0  0  0  0
 28 30  1  0  0  0  0
 29 28  2  0  0  0  0
 31 32  1  0  0  0  0
M  END
>  <MODEL>
5

>  <REMARK>
 VINA RESULT:      -6.9      2.915      4.808
  Name = 
  4 active torsions:
  status: ('A' for Active; 'I' for Inactive)
    1  A    between atoms: C_7  and  C_19
    2  A    between atoms: C_10  and  C_17
    3  A    between atoms: C_20  and  C_29
    4  A    between atoms: C_29  and  C_30
                            x       y       z     vdW  Elec       q    Type
                         _______ _______ _______ _____ _____    ______ ____

>  <TORSDO>
F 4

$$$$
=
 OpenBabel11122410503D

 32 37  0  0  1  0  0  0  0  0999 V2000
  190.3680  176.6780  138.8700 C   0  0  1  0  0  3  0  0  0  0  0  0
  186.3260  178.1900  136.5570 C   0  0  0  0  0  3  0  0  0  0  0  0
  185.6660  178.2690  137.7840 C   0  0  0  0  0  3  0  0  0  0  0  0
  190.6360  176.8700  141.3830 C   0  0  2  0  0  3  0  0  0  0  0  0
  189.8060  177.0630  142.6620 C   0  0  2  0  0  3  0  0  0  0  0  0
  191.8930  175.4970  137.7100 C   0  0  2  0  0  3  0  0  0  0  0  0
  190.3730  176.9970  136.4050 O   0  0  0  0  0  0  0  0  0  0  0  0
  187.8080  177.8210  143.7290 C   0  0  2  0  0  3  0  0  0  0  0  0
  187.6940  177.9150  136.5130 C   0  0  0  0  0  3  0  0  0  0  0  0
  189.8970  177.4770  137.6580 C   0  0  1  0  0  3  0  0  0  0  0  0
  188.4120  177.7070  137.6990 C   0  0  0  0  0  0  0  0  0  0  0  0
  188.4830  177.5450  140.2520 C   0  0  2  0  0  3  0  0  0  0  0  0
  187.6870  176.3140  143.6090 C   0  0  0  0  0  2  0  0  0  0  0  0
  190.9560  175.7030  136.4850 C   0  0  2  0  0  3  0  0  0  0  0  0
  188.9850  175.8240  142.9850 C   0  0  0  0  0  2  0  0  0  0  0  0
  186.3770  178.0840  138.9730 C   0  0  0  0  0  3  0  0  0  0  0  0
  187.7560  177.8310  138.9490 C   0  0  0  0  0  0  0  0  0  0  0  0
  188.1680  178.5760  141.3290 C   0  0  0  0  0  2  0  0  0  0  0  0
  191.7420  176.4740  138.7210 O   0  0  0  0  0  0  0  0  0  0  0  0
  191.9090  177.4080  141.5700 O   0  0  0  0  0  1  0  0  0  0  0  0
  186.5650  178.4350  143.5510 O   0  0  0  0  0  1  0  0  0  0  0  0
  190.0090  177.4700  140.1180 C   0  0  2  0  0  3  0  0  0  0  0  0
  188.8330  178.2520  142.6880 C   0  0  2  0  0  3  0  0  0  0  0  0
  188.9950  174.8320  135.2300 C   0  0  0  0  0  2  0  0  0  0  0  0
  189.8840  174.6240  136.4390 C   0  0  1  0  0  3  0  0  0  0  0  0
  190.0810  173.7770  135.1970 C   0  0  1  0  0  3  0  0  0  0  0  0
  189.4700  172.4100  135.4320 C   0  0  0  0  0  2  0  0  0  0  0  0
  190.3430  171.3580  134.8450 C   0  0  0  0  0  0  0  0  0  0  0  0
  191.5510  171.6090  134.5940 O   0  0  0  0  0  0  0  0  0  0  0  0
  189.8370  170.0860  134.6090 O   0  0  0  0  0  1  0  0  0  0  0  0
  193.9260  176.7130  137.4420 O   0  0  0  0  0  1  0  0  0  0  0  0
  193.3350  175.4660  137.2400 C   0  0  0  0  0  2  0  0  0  0  0  0
  1 19  1  6  0  0  0
  1 22  1  0  0  0  0
  2  3  1  0  0  0  0
  3 16  2  0  0  0  0
  4 20  1  1  0  0  0
  4  5  1  0  0  0  0
  5 23  1  0  0  0  0
  5 15  1  6  0  0  0
  6 32  1  6  0  0  0
  6 19  1  0  0  0  0
  8 21  1  6  0  0  0
  9  2  2  0  0  0  0
  9 11  1  0  0  0  0
 10  7  1  6  0  0  0
 10 11  1  0  0  0  0
 10  1  1  0  0  0  0
 11 17  2  0  0  0  0
 12 18  1  1  0  0  0
 13  8  1  0  0  0  0
 14  7  1  1  0  0  0
 14  6  1  0  0  0  0
 15 13  1  0  0  0  0
 17 16  1  0  0  0  0
 17 12  1  0  0  0  0
 18 23  1  0  0  0  0
 22 12  1  0  0  0  0
 22  4  1  0  0  0  0
 23  8  1  0  0  0  0
 24 25  1  0  0  0  0
 25 14  1  0  0  0  0
 26 24  1  0  0  0  0
 26 27  1  0  0  0  0
 26 25  1  0  0  0  0
 28 27  1  0  0  0  0
 29 28  2  0  0  0  0
 30 28  1  0  0  0  0
 32 31  1  0  0  0  0
M  END
>  <MODEL>
6

>  <REMARK>
 VINA RESULT:      -6.7      4.569      8.591
  Name = 
  4 active torsions:
  status: ('A' for Active; 'I' for Inactive)
    1  A    between atoms: C_7  and  C_19
    2  A    between atoms: C_10  and  C_17
    3  A    between atoms: C_20  and  C_29
    4  A    between atoms: C_29  and  C_30
                            x       y       z     vdW  Elec       q    Type
                         _______ _______ _______ _____ _____    ______ ____

>  <TORSDO>
F 4

$$$$
=
 OpenBabel11122410503D

 32 37  0  0  1  0  0  0  0  0999 V2000
  185.2970  178.4140  140.1490 C   0  0  1  0  0  3  0  0  0  0  0  0
  180.4980  179.0840  140.8570 C   0  0  0  0  0  3  0  0  0  0  0  0
  180.6850  178.8970  142.2280 C   0  0  0  0  0  3  0  0  0  0  0  0
  186.9610  178.4530  142.0600 C   0  0  2  0  0  3  0  0  0  0  0  0
  187.0260  178.3300  143.5910 C   0  0  2  0  0  3  0  0  0  0  0  0
  186.0010  177.7410  138.1200 C   0  0  2  0  0  3  0  0  0  0  0  0
  183.8020  178.9300  138.2320 O   0  0  0  0  0  0  0  0  0  0  0  0
  185.9550  178.4850  145.7200 C   0  0  2  0  0  3  0  0  0  0  0  0
  181.6010  179.1550  140.0030 C   0  0  0  0  0  3  0  0  0  0  0  0
  184.0900  179.1720  139.6060 C   0  0  1  0  0  3  0  0  0  0  0  0
  182.9000  179.0300  140.5130 C   0  0  0  0  0  0  0  0  0  0  0  0
  184.4840  178.6760  142.4920 C   0  0  2  0  0  3  0  0  0  0  0  0
  186.0120  177.0100  145.3740 C   0  0  0  0  0  2  0  0  0  0  0  0
  184.5050  177.8140  137.7000 C   0  0  2  0  0  3  0  0  0  0  0  0
  186.7490  176.9060  144.0470 C   0  0  0  0  0  2  0  0  0  0  0  0
  181.9780  178.7910  142.7490 C   0  0  0  0  0  3  0  0  0  0  0  0
  183.0970  178.8850  141.9090 C   0  0  0  0  0  0  0  0  0  0  0  0
  184.7150  179.5050  143.7490 C   0  0  0  0  0  2  0  0  0  0  0  0
  186.3310  178.5640  139.2220 O   0  0  0  0  0  0  0  0  0  0  0  0
  188.0020  179.2670  141.6150 O   0  0  0  0  0  1  0  0  0  0  0  0
  184.7710  178.7920  146.3970 O   0  0  0  0  0  1  0  0  0  0  0  0
  185.6290  178.9870  141.5190 C   0  0  2  0  0  3  0  0  0  0  0  0
  186.0910  179.2400  144.4030 C   0  0  2  0  0  3  0  0  0  0  0  0
  182.3500  176.5830  137.5590 C   0  0  0  0  0  2  0  0  0  0  0  0
  183.7870  176.5150  138.0330 C   0  0  1  0  0  3  0  0  0  0  0  0
  183.3790  175.8260  136.7460 C   0  0  1  0  0  3  0  0  0  0  0  0
  183.2390  174.3400  137.0060 C   0  0  0  0  0  2  0  0  0  0  0  0
  184.1270  173.5790  136.0850 C   0  0  0  0  0  0  0  0  0  0  0  0
  185.1540  174.1250  135.6060 O   0  0  0  0  0  0  0  0  0  0  0  0
  183.8430  172.2530  135.7840 O   0  0  0  0  0  1  0  0  0  0  0  0
  187.2230  179.4500  136.9940 O   0  0  0  0  0  1  0  0  0  0  0  0
  186.8740  178.1020  136.9330 C   0  0  0  0  0  2  0  0  0  0  0  0
  1 19  1  6  0  0  0
  1 22  1  0  0  0  0
  2  3  1  0  0  0  0
  3 16  2  0  0  0  0
  4 20  1  1  0  0  0
  4  5  1  0  0  0  0
  5 15  1  6  0  0  0
  5 23  1  0  0  0  0
  6 32  1  6  0  0  0
  6 19  1  0  0  0  0
  8 21  1  6  0  0  0
  9 11  1  0  0  0  0
  9  2  2  0  0  0  0
 10  7  1  6  0  0  0
 10  1  1  0  0  0  0
 10 11  1  0  0  0  0
 11 17  2  0  0  0  0
 12 18  1  1  0  0  0
 13  8  1  0  0  0  0
 14 25  1  0  0  0  0
 14  6  1  0  0  0  0
 14  7  1  1  0  0  0
 15 13  1  0  0  0  0
 17 12  1  0  0  0  0
 17 16  1  0  0  0  0
 18 23  1  0  0  0  0
 22  4  1  0  0  0  0
 22 12  1  0  0  0  0
 23  8  1  0  0  0  0
 24 25  1  0  0  0  0
 26 27  1  0  0  0  0
 26 24  1  0  0  0  0
 26 25  1  0  0  0  0
 28 27  1  0  0  0  0
 29 28  2  0  0  0  0
 30 28  1  0  0  0  0
 32 31  1  0  0  0  0
M  END
>  <MODEL>
7

>  <REMARK>
 VINA RESULT:      -6.5      2.371      7.168
  Name = 
  4 active torsions:
  status: ('A' for Active; 'I' for Inactive)
    1  A    between atoms: C_7  and  C_19
    2  A    between atoms: C_10  and  C_17
    3  A    between atoms: C_20  and  C_29
    4  A    between atoms: C_29  and  C_30
                            x       y       z     vdW  Elec       q    Type
                         _______ _______ _______ _____ _____    ______ ____

>  <TORSDO>
F 4

$$$$
=
 OpenBabel11122410503D

 32 37  0  0  1  0  0  0  0  0999 V2000
  187.6540  177.1280  138.8540 C   0  0  1  0  0  3  0  0  0  0  0  0
  192.5400  176.7980  138.8790 C   0  0  0  0  0  3  0  0  0  0  0  0
  192.4560  175.6560  138.0810 C   0  0  0  0  0  3  0  0  0  0  0  0
  186.2210  175.8050  137.2370 C   0  0  2  0  0  3  0  0  0  0  0  0
  186.2840  174.5780  136.3110 C   0  0  2  0  0  3  0  0  0  0  0  0
  186.6430  178.2430  140.5280 C   0  0  2  0  0  3  0  0  0  0  0  0
  189.0250  178.8310  140.0360 O   0  0  0  0  0  0  0  0  0  0  0  0
  187.5680  173.0300  135.0240 C   0  0  2  0  0  3  0  0  0  0  0  0
  191.3920  177.5410  139.1610 C   0  0  0  0  0  3  0  0  0  0  0  0
  188.9220  177.9750  138.9020 C   0  0  1  0  0  3  0  0  0  0  0  0
  190.1480  177.1410  138.6550 C   0  0  0  0  0  0  0  0  0  0  0  0
  188.7260  175.5030  137.2960 C   0  0  2  0  0  3  0  0  0  0  0  0
  187.2040  172.3200  136.3140 C   0  0  0  0  0  2  0  0  0  0  0  0
  188.0780  178.5310  141.0540 C   0  0  2  0  0  3  0  0  0  0  0  0
  186.3350  173.2830  137.1070 C   0  0  0  0  0  2  0  0  0  0  0  0
  191.2230  175.2600  137.5540 C   0  0  0  0  0  3  0  0  0  0  0  0
  190.0650  176.0090  137.8080 C   0  0  0  0  0  0  0  0  0  0  0  0
  188.7770  175.1180  135.8230 C   0  0  0  0  0  2  0  0  0  0  0  0
  186.5800  177.9750  139.1410 O   0  0  0  0  0  0  0  0  0  0  0  0
  185.3110  176.7270  136.7230 O   0  0  0  0  0  1  0  0  0  0  0  0
  188.8480  172.6640  134.5990 O   0  0  0  0  0  1  0  0  0  0  0  0
  187.5690  176.4950  137.4730 C   0  0  2  0  0  3  0  0  0  0  0  0
  187.4460  174.5220  135.3080 C   0  0  2  0  0  3  0  0  0  0  0  0
  189.9720  177.6850  142.4250 C   0  0  0  0  0  2  0  0  0  0  0  0
  188.5720  177.3880  141.9290 C   0  0  1  0  0  3  0  0  0  0  0  0
  188.7840  177.8960  143.3410 C   0  0  1  0  0  3  0  0  0  0  0  0
  188.6720  176.7320  144.3050 C   0  0  0  0  0  2  0  0  0  0  0  0
  188.9750  177.1900  145.6880 C   0  0  0  0  0  0  0  0  0  0  0  0
  188.0600  177.6700  146.4070 O   0  0  0  0  0  1  0  0  0  0  0  0
  190.2580  177.0520  146.2010 O   0  0  0  0  0  0  0  0  0  0  0  0
  184.8290  179.6220  139.8290 O   0  0  0  0  0  1  0  0  0  0  0  0
  185.7400  179.4140  140.8640 C   0  0  0  0  0  2  0  0  0  0  0  0
  1 10  1  0  0  0  0
  1 19  1  6  0  0  0
  2  9  1  0  0  0  0
  3  2  2  0  0  0  0
  4 20  1  6  0  0  0
  4 22  1  0  0  0  0
  5 15  1  1  0  0  0
  5  4  1  0  0  0  0
  6 32  1  6  0  0  0
  6 14  1  0  0  0  0
  8 21  1  1  0  0  0
  8 23  1  0  0  0  0
  8 13  1  0  0  0  0
 10 11  1  1  0  0  0
 10  7  1  0  0  0  0
 11  9  2  0  0  0  0
 12 18  1  6  0  0  0
 12 22  1  0  0  0  0
 12 17  1  0  0  0  0
 13 15  1  0  0  0  0
 14  7  1  6  0  0  0
 14 25  1  0  0  0  0
 16 17  2  0  0  0  0
 16  3  1  0  0  0  0
 17 11  1  0  0  0  0
 19  6  1  0  0  0  0
 22  1  1  0  0  0  0
 23 18  1  0  0  0  0
 23  5  1  0  0  0  0
 24 26  1  0  0  0  0
 25 24  1  0  0  0  0
 25 26  1  0  0  0  0
 26 27  1  0  0  0  0
 27 28  1  0  0  0  0
 28 30  2  0  0  0  0
 28 29  1  0  0  0  0
 31 32  1  0  0  0  0
M  END
>  <MODEL>
8

>  <REMARK>
 VINA RESULT:      -6.3      3.820      5.755
  Name = 
  4 active torsions:
  status: ('A' for Active; 'I' for Inactive)
    1  A    between atoms: C_7  and  C_19
    2  A    between atoms: C_10  and  C_17
    3  A    between atoms: C_20  and  C_29
    4  A    between atoms: C_29  and  C_30
                            x       y       z     vdW  Elec       q    Type
                         _______ _______ _______ _____ _____    ______ ____

>  <TORSDO>
F 4

$$$$
=
 OpenBabel11122410503D

 32 37  0  0  1  0  0  0  0  0999 V2000
  188.1920  177.3100  138.6710 C   0  0  1  0  0  3  0  0  0  0  0  0
  183.8490  179.0730  140.0880 C   0  0  0  0  0  3  0  0  0  0  0  0
  184.2610  178.9880  141.4190 C   0  0  0  0  0  3  0  0  0  0  0  0
  190.1740  177.1800  140.2460 C   0  0  2  0  0  3  0  0  0  0  0  0
  190.5130  177.2000  141.7450 C   0  0  2  0  0  3  0  0  0  0  0  0
  188.3400  176.3010  136.6650 C   0  0  2  0  0  3  0  0  0  0  0  0
  186.4800  177.9430  136.9850 O   0  0  0  0  0  0  0  0  0  0  0  0
  189.9300  177.7970  143.9830 C   0  0  2  0  0  3  0  0  0  0  0  0
  184.7550  178.8170  139.0570 C   0  0  0  0  0  3  0  0  0  0  0  0
  187.0730  178.2540  138.2420 C   0  0  1  0  0  3  0  0  0  0  0  0
  186.0790  178.4650  139.3500 C   0  0  0  0  0  0  0  0  0  0  0  0
  187.9210  177.9770  141.0590 C   0  0  2  0  0  3  0  0  0  0  0  0
  189.6310  176.3170  143.8410 C   0  0  0  0  0  2  0  0  0  0  0  0
  186.8350  176.6540  136.5000 C   0  0  2  0  0  3  0  0  0  0  0  0
  190.0590  175.9230  142.4350 C   0  0  0  0  0  2  0  0  0  0  0  0
  185.5850  178.6580  141.7220 C   0  0  0  0  0  3  0  0  0  0  0  0
  186.5140  178.4220  140.6980 C   0  0  0  0  0  0  0  0  0  0  0  0
  188.5500  178.8580  142.1310 C   0  0  0  0  0  2  0  0  0  0  0  0
  189.0340  177.1390  137.5690 O   0  0  0  0  0  0  0  0  0  0  0  0
  191.2450  177.7000  139.5210 O   0  0  0  0  0  1  0  0  0  0  0  0
  188.9850  178.4200  144.8030 O   0  0  0  0  0  1  0  0  0  0  0  0
  188.8910  177.9320  139.8710 C   0  0  2  0  0  3  0  0  0  0  0  0
  189.9500  178.3680  142.5710 C   0  0  2  0  0  3  0  0  0  0  0  0
  184.5080  175.8150  136.7540 C   0  0  0  0  0  2  0  0  0  0  0  0
  185.9570  175.5810  137.1290 C   0  0  1  0  0  3  0  0  0  0  0  0
  185.3150  174.7570  136.0310 C   0  0  1  0  0  3  0  0  0  0  0  0
  184.9670  173.3890  136.5840 C   0  0  0  0  0  2  0  0  0  0  0  0
  184.0210  172.6980  135.6650 C   0  0  0  0  0  0  0  0  0  0  0  0
  184.4430  171.8160  134.8720 O   0  0  0  0  0  0  0  0  0  0  0  0
  182.6660  172.9970  135.7100 O   0  0  0  0  0  1  0  0  0  0  0  0
  189.1720  177.6650  134.8960 O   0  0  0  0  0  1  0  0  0  0  0  0
  189.0170  176.3420  135.3090 C   0  0  0  0  0  2  0  0  0  0  0  0
  1 19  1  6  0  0  0
  1 22  1  0  0  0  0
  2  3  1  0  0  0  0
  3 16  2  0  0  0  0
  4 20  1  6  0  0  0
  4  5  1  0  0  0  0
  5 15  1  1  0  0  0
  5 23  1  0  0  0  0
  6 32  1  6  0  0  0
  6 19  1  0  0  0  0
  8 21  1  1  0  0  0
  9 11  1  0  0  0  0
  9  2  2  0  0  0  0
 10  7  1  6  0  0  0
 10  1  1  0  0  0  0
 10 11  1  0  0  0  0
 11 17  2  0  0  0  0
 12 18  1  1  0  0  0
 13  8  1  0  0  0  0
 14  6  1  0  0  0  0
 14  7  1  1  0  0  0
 14 25  1  0  0  0  0
 15 13  1  0  0  0  0
 17 12  1  0  0  0  0
 17 16  1  0  0  0  0
 18 23  1  0  0  0  0
 22  4  1  0  0  0  0
 22 12  1  0  0  0  0
 23  8  1  0  0  0  0
 24 25  1  0  0  0  0
 26 27  1  0  0  0  0
 26 24  1  0  0  0  0
 26 25  1  0  0  0  0
 28 30  1  0  0  0  0
 28 27  1  0  0  0  0
 29 28  2  0  0  0  0
 31 32  1  0  0  0  0
M  END
>  <MODEL>
9

>  <REMARK>
 VINA RESULT:      -6.2      3.349      8.381
  Name = 
  4 active torsions:
  status: ('A' for Active; 'I' for Inactive)
    1  A    between atoms: C_7  and  C_19
    2  A    between atoms: C_10  and  C_17
    3  A    between atoms: C_20  and  C_29
    4  A    between atoms: C_29  and  C_30
                            x       y       z     vdW  Elec       q    Type
                         _______ _______ _______ _____ _____    ______ ____

>  <TORSDO>
F 4

$$$$
