=
 OpenBabel11122410223D

 30 35  0  0  1  0  0  0  0  0999 V2000
  189.2590  177.0220  143.7330 C   0  0  0  0  0  0  0  0  0  0  0  0
  191.3100  176.1330  144.8560 C   0  0  0  0  0  0  0  0  0  0  0  0
  187.5130  178.0650  147.4880 C   0  0  0  0  0  2  0  0  0  0  0  0
  187.9880  177.6620  143.8240 C   0  0  0  0  0  0  0  0  0  0  0  0
  189.7320  176.5490  142.3860 C   0  0  0  0  0  2  0  0  0  0  0  0
  187.6220  178.6410  140.3260 O   0  0  0  0  0  0  0  0  0  0  0  0
  184.9800  177.8960  143.3370 C   0  0  1  0  0  3  0  0  0  0  0  0
  188.0890  178.0970  141.3670 C   0  0  0  0  0  0  0  0  0  0  0  0
  185.0080  178.3400  144.7450 C   0  0  0  0  0  0  0  0  0  0  0  0
  186.1870  178.6250  146.9660 C   0  0  1  0  0  3  0  0  0  0  0  0
  189.3830  177.4930  141.3340 N   0  0  0  0  0  0  0  0  0  0  0  0
  187.3310  178.0960  142.5920 N   0  0  0  0  0  0  0  0  0  0  0  0
  192.0220  175.8930  146.0340 C   0  0  0  0  0  3  0  0  0  0  0  0
  183.8310  178.8000  145.1390 C   0  0  0  0  0  3  0  0  0  0  0  0
  183.5690  178.2090  142.9610 C   0  0  0  0  0  3  0  0  0  0  0  0
  191.9030  175.7820  143.6870 F   0  0  0  0  0  0  0  0  0  0  0  0
  188.2350  177.6640  146.2470 C   0  0  0  0  0  0  0  0  0  0  0  0
  191.4860  176.2410  147.2710 C   0  0  0  0  0  3  0  0  0  0  0  0
  190.0270  176.7400  144.9020 C   0  0  0  0  0  0  0  0  0  0  0  0
  187.4800  177.9140  145.1290 C   0  0  0  0  0  0  0  0  0  0  0  0
  186.1090  180.1090  147.2830 C   0  0  0  0  0  1  0  0  0  0  0  0
  186.2070  178.4270  145.5170 N   0  0  0  0  0  0  0  0  0  0  0  0
  182.9190  178.7030  144.0070 C   0  0  0  0  0  3  0  0  0  0  0  0
  186.0270  180.1890  142.7720 C   0  0  0  0  0  1  0  0  0  0  0  0
  190.2290  176.8360  147.3400 C   0  0  0  0  0  3  0  0  0  0  0  0
  189.4990  177.0880  146.1720 C   0  0  0  0  0  0  0  0  0  0  0  0
  185.9910  178.6820  142.5140 C   0  0  2  0  0  3  0  0  0  0  0  0
  190.2400  177.6650  140.1600 C   0  0  0  0  0  2  0  0  0  0  0  0
  189.8150  176.4150  138.3920 C   0  0  0  0  0  1  0  0  0  0  0  0
  190.5510  176.4350  139.5750 O   0  0  0  0  0  0  0  0  0  0  0  0
  1  4  2  0  0  0  0
  1 19  1  0  0  0  0
  2 19  2  0  0  0  0
  2 13  1  0  0  0  0
  4 20  1  0  0  0  0
  5  1  1  0  0  0  0
  6  8  2  0  0  0  0
  7 15  1  6  0  0  0
  7  9  1  0  0  0  0
  8 12  1  0  0  0  0
  9 14  2  0  0  0  0
  9 22  1  0  0  0  0
 10 21  1  6  0  0  0
 10  3  1  0  0  0  0
 11  8  1  0  0  0  0
 11  5  1  0  0  0  0
 12  4  1  0  0  0  0
 13 18  2  0  0  0  0
 15 23  2  0  0  0  0
 16  2  1  0  0  0  0
 17  3  1  0  0  0  0
 18 25  1  0  0  0  0
 19 26  1  0  0  0  0
 20 22  1  0  0  0  0
 20 17  2  0  0  0  0
 22 10  1  0  0  0  0
 23 14  1  0  0  0  0
 26 17  1  0  0  0  0
 26 25  2  0  0  0  0
 27 12  1  0  0  0  0
 27 24  1  1  0  0  0
 27  7  1  0  0  0  0
 28 11  1  0  0  0  0
 29 30  1  0  0  0  0
 30 28  1  0  0  0  0
M  END
>  <MODEL>
1

>  <REMARK>
 VINA RESULT:     -10.1      0.000      0.000
  Name = 
  2 active torsions:
  status: ('A' for Active; 'I' for Inactive)
    1  A    between atoms: N_11  and  C_28
    2  A    between atoms: C_28  and  O_30
                            x       y       z     vdW  Elec       q    Type
                         _______ _______ _______ _____ _____    ______ ____

>  <TORSDO>
F 2

$$$$
=
 OpenBabel11122410223D

 30 35  0  0  1  0  0  0  0  0999 V2000
  185.8120  178.1710  142.7160 C   0  0  0  0  0  0  0  0  0  0  0  0
  186.7530  178.2090  145.0340 C   0  0  0  0  0  0  0  0  0  0  0  0
  181.8610  178.8610  144.1820 C   0  0  0  0  0  2  0  0  0  0  0  0
  184.6940  178.3070  141.8410 C   0  0  0  0  0  0  0  0  0  0  0  0
  187.1400  177.7760  142.1310 C   0  0  0  0  0  2  0  0  0  0  0  0
  186.5100  178.7380  138.7040 O   0  0  0  0  0  0  0  0  0  0  0  0
  182.7870  177.3740  139.6430 C   0  0  1  0  0  3  0  0  0  0  0  0
  186.2830  178.5070  139.9250 C   0  0  0  0  0  0  0  0  0  0  0  0
  181.7880  177.9320  140.5760 C   0  0  0  0  0  0  0  0  0  0  0  0
  181.1230  178.8440  142.8410 C   0  0  1  0  0  3  0  0  0  0  0  0
  187.3720  178.4190  140.8460 N   0  0  0  0  0  0  0  0  0  0  0  0
  184.9320  178.3480  140.4000 N   0  0  0  0  0  0  0  0  0  0  0  0
  186.5470  178.3620  146.4080 C   0  0  0  0  0  3  0  0  0  0  0  0
  180.5790  177.9650  140.0390 C   0  0  0  0  0  3  0  0  0  0  0  0
  181.9450  177.1100  138.4380 C   0  0  0  0  0  3  0  0  0  0  0  0
  188.0240  177.9870  144.6150 F   0  0  0  0  0  0  0  0  0  0  0  0
  183.2840  178.6350  143.8000 C   0  0  0  0  0  0  0  0  0  0  0  0
  185.2730  178.6080  146.9120 C   0  0  0  0  0  3  0  0  0  0  0  0
  185.6630  178.3050  144.1290 C   0  0  0  0  0  0  0  0  0  0  0  0
  183.4170  178.4800  142.4430 C   0  0  0  0  0  0  0  0  0  0  0  0
  180.5360  180.2190  142.5720 C   0  0  0  0  0  1  0  0  0  0  0  0
  182.1300  178.5270  141.8300 N   0  0  0  0  0  0  0  0  0  0  0  0
  180.6820  177.4310  138.6880 C   0  0  0  0  0  3  0  0  0  0  0  0
  183.4160  179.8240  139.1220 C   0  0  0  0  0  1  0  0  0  0  0  0
  184.1900  178.7050  146.0440 C   0  0  0  0  0  3  0  0  0  0  0  0
  184.3730  178.5570  144.6630 C   0  0  0  0  0  0  0  0  0  0  0  0
  183.8870  178.3910  139.3750 C   0  0  2  0  0  3  0  0  0  0  0  0
  188.7240  178.7780  140.4150 C   0  0  0  0  0  2  0  0  0  0  0  0
  189.8000  177.2740  139.2100 C   0  0  0  0  0  1  0  0  0  0  0  0
  189.5960  177.6920  140.5240 O   0  0  0  0  0  0  0  0  0  0  0  0
  1 19  1  0  0  0  0
  2 13  1  0  0  0  0
  4 20  1  0  0  0  0
  4  1  2  0  0  0  0
  5  1  1  0  0  0  0
  6  8  2  0  0  0  0
  7 15  1  6  0  0  0
  7  9  1  0  0  0  0
  8 12  1  0  0  0  0
  8 11  1  0  0  0  0
  9 22  1  0  0  0  0
 10 21  1  6  0  0  0
 10  3  1  0  0  0  0
 11  5  1  0  0  0  0
 12  4  1  0  0  0  0
 13 18  2  0  0  0  0
 14  9  2  0  0  0  0
 15 23  2  0  0  0  0
 16  2  1  0  0  0  0
 17  3  1  0  0  0  0
 17 26  1  0  0  0  0
 19 26  1  0  0  0  0
 19  2  2  0  0  0  0
 20 17  2  0  0  0  0
 22 20  1  0  0  0  0
 22 10  1  0  0  0  0
 23 14  1  0  0  0  0
 25 18  1  0  0  0  0
 26 25  2  0  0  0  0
 27 24  1  1  0  0  0
 27  7  1  0  0  0  0
 27 12  1  0  0  0  0
 28 30  1  0  0  0  0
 28 11  1  0  0  0  0
 29 30  1  0  0  0  0
M  END
>  <MODEL>
2

>  <REMARK>
 VINA RESULT:      -9.0      2.760      4.814
  Name = 
  2 active torsions:
  status: ('A' for Active; 'I' for Inactive)
    1  A    between atoms: N_11  and  C_28
    2  A    between atoms: C_28  and  O_30
                            x       y       z     vdW  Elec       q    Type
                         _______ _______ _______ _____ _____    ______ ____

>  <TORSDO>
F 2

$$$$
=
 OpenBabel11122410223D

 30 35  0  0  1  0  0  0  0  0999 V2000
  185.9710  178.5400  141.9300 C   0  0  0  0  0  0  0  0  0  0  0  0
  183.5110  178.9770  142.0570 C   0  0  0  0  0  0  0  0  0  0  0  0
  186.2240  178.0570  146.1660 C   0  0  0  0  0  2  0  0  0  0  0  0
  187.1960  178.2100  142.5810 C   0  0  0  0  0  0  0  0  0  0  0  0
  185.9990  178.8440  140.4570 C   0  0  0  0  0  2  0  0  0  0  0  0
  189.1220  177.2170  139.6440 O   0  0  0  0  0  0  0  0  0  0  0  0
  190.1280  178.6510  143.3230 C   0  0  1  0  0  3  0  0  0  0  0  0
  188.1800  177.6760  140.3490 C   0  0  0  0  0  0  0  0  0  0  0  0
  189.6220  178.2630  144.6550 C   0  0  0  0  0  0  0  0  0  0  0  0
  187.7290  177.7950  146.2680 C   0  0  1  0  0  3  0  0  0  0  0  0
  186.9190  177.9680  139.7460 N   0  0  0  0  0  0  0  0  0  0  0  0
  188.3640  177.8930  141.7610 N   0  0  0  0  0  0  0  0  0  0  0  0
  182.3530  179.0900  142.8310 C   0  0  0  0  0  3  0  0  0  0  0  0
  190.6050  178.0970  145.5250 C   0  0  0  0  0  3  0  0  0  0  0  0
  191.6020  178.6550  143.5610 C   0  0  0  0  0  3  0  0  0  0  0  0
  183.3840  179.1420  140.7170 F   0  0  0  0  0  0  0  0  0  0  0  0
  185.9990  178.2370  144.7030 C   0  0  0  0  0  0  0  0  0  0  0  0
  182.4020  178.9170  144.2120 C   0  0  0  0  0  3  0  0  0  0  0  0
  184.7580  178.6810  142.6690 C   0  0  0  0  0  0  0  0  0  0  0  0
  187.1740  178.1270  144.0010 C   0  0  0  0  0  0  0  0  0  0  0  0
  187.9600  176.3810  146.7710 C   0  0  0  0  0  1  0  0  0  0  0  0
  188.2550  177.9320  144.9100 N   0  0  0  0  0  0  0  0  0  0  0  0
  191.8580  178.3590  144.8290 C   0  0  0  0  0  3  0  0  0  0  0  0
  189.8650  176.1610  142.6870 C   0  0  0  0  0  1  0  0  0  0  0  0
  183.6140  178.6280  144.8330 C   0  0  0  0  0  3  0  0  0  0  0  0
  184.7870  178.5070  144.0760 C   0  0  0  0  0  0  0  0  0  0  0  0
  189.7080  177.6270  142.2780 C   0  0  2  0  0  3  0  0  0  0  0  0
  186.6580  177.5640  138.3640 C   0  0  0  0  0  2  0  0  0  0  0  0
  187.6430  178.6510  136.7150 C   0  0  0  0  0  1  0  0  0  0  0  0
  186.5120  178.6740  137.5290 O   0  0  0  0  0  0  0  0  0  0  0  0
  1  4  2  0  0  0  0
  1 19  1  0  0  0  0
  2 19  2  0  0  0  0
  2 13  1  0  0  0  0
  3 10  1  0  0  0  0
  4 20  1  0  0  0  0
  5  1  1  0  0  0  0
  6  8  2  0  0  0  0
  7 15  1  1  0  0  0
  7  9  1  0  0  0  0
  8 12  1  0  0  0  0
  9 22  1  0  0  0  0
  9 14  2  0  0  0  0
 10 21  1  6  0  0  0
 11  8  1  0  0  0  0
 11  5  1  0  0  0  0
 12 27  1  0  0  0  0
 12  4  1  0  0  0  0
 13 18  2  0  0  0  0
 15 23  2  0  0  0  0
 16  2  1  0  0  0  0
 17  3  1  0  0  0  0
 18 25  1  0  0  0  0
 19 26  1  0  0  0  0
 20 17  2  0  0  0  0
 20 22  1  0  0  0  0
 22 10  1  0  0  0  0
 23 14  1  0  0  0  0
 26 17  1  0  0  0  0
 26 25  2  0  0  0  0
 27 24  1  1  0  0  0
 27  7  1  0  0  0  0
 28 11  1  0  0  0  0
 29 30  1  0  0  0  0
 30 28  1  0  0  0  0
M  END
>  <MODEL>
3

>  <REMARK>
 VINA RESULT:      -8.9      2.477      5.593
  Name = 
  2 active torsions:
  status: ('A' for Active; 'I' for Inactive)
    1  A    between atoms: N_11  and  C_28
    2  A    between atoms: C_28  and  O_30
                            x       y       z     vdW  Elec       q    Type
                         _______ _______ _______ _____ _____    ______ ____

>  <TORSDO>
F 2

$$$$
=
 OpenBabel11122410223D

 30 35  0  0  1  0  0  0  0  0999 V2000
  187.2440  178.1940  140.2510 C   0  0  0  0  0  0  0  0  0  0  0  0
  185.0400  178.8630  139.2760 C   0  0  0  0  0  0  0  0  0  0  0  0
  185.6790  178.3850  144.2200 C   0  0  0  0  0  2  0  0  0  0  0  0
  188.0350  177.8660  141.3910 C   0  0  0  0  0  0  0  0  0  0  0  0
  187.9130  178.2510  138.9050 C   0  0  0  0  0  2  0  0  0  0  0  0
  190.8170  176.2410  139.6760 O   0  0  0  0  0  0  0  0  0  0  0  0
  190.4420  178.1580  143.2510 C   0  0  1  0  0  3  0  0  0  0  0  0
  189.7500  176.8910  139.8600 C   0  0  0  0  0  0  0  0  0  0  0  0
  189.3880  178.0380  144.2770 C   0  0  0  0  0  0  0  0  0  0  0  0
  186.9550  178.0090  144.9780 C   0  0  1  0  0  3  0  0  0  0  0  0
  188.9000  177.1930  138.7510 N   0  0  0  0  0  0  0  0  0  0  0  0
  189.3730  177.3170  141.1840 N   0  0  0  0  0  0  0  0  0  0  0  0
  183.6990  179.2040  139.4690 C   0  0  0  0  0  3  0  0  0  0  0  0
  189.8960  177.9290  145.4940 C   0  0  0  0  0  3  0  0  0  0  0  0
  191.6750  178.0690  144.0890 C   0  0  0  0  0  3  0  0  0  0  0  0
  185.4940  178.8200  137.9980 F   0  0  0  0  0  0  0  0  0  0  0  0
  186.0980  178.3450  142.7900 C   0  0  0  0  0  0  0  0  0  0  0  0
  183.1560  179.2540  140.7500 C   0  0  0  0  0  3  0  0  0  0  0  0
  185.8720  178.5610  140.3860 C   0  0  0  0  0  0  0  0  0  0  0  0
  187.4260  178.0180  142.6680 C   0  0  0  0  0  0  0  0  0  0  0  0
  186.7490  176.6810  145.6840 C   0  0  0  0  0  1  0  0  0  0  0  0
  188.0020  177.8760  143.9650 N   0  0  0  0  0  0  0  0  0  0  0  0
  191.3470  177.9610  145.3700 C   0  0  0  0  0  3  0  0  0  0  0  0
  190.0930  175.6320  142.8420 C   0  0  0  0  0  1  0  0  0  0  0  0
  183.9530  178.9620  141.8530 C   0  0  0  0  0  3  0  0  0  0  0  0
  185.3000  178.6160  141.6830 C   0  0  0  0  0  0  0  0  0  0  0  0
  190.3350  177.0190  142.2470 C   0  0  2  0  0  3  0  0  0  0  0  0
  189.1670  176.5940  137.4430 C   0  0  0  0  0  2  0  0  0  0  0  0
  189.0320  177.4600  135.4180 C   0  0  0  0  0  1  0  0  0  0  0  0
  189.7910  177.5040  136.5860 O   0  0  0  0  0  0  0  0  0  0  0  0
  1 19  2  0  0  0  0
  1  4  1  0  0  0  0
  2 13  2  0  0  0  0
  2 19  1  0  0  0  0
  3 10  1  0  0  0  0
  4 20  2  0  0  0  0
  5  1  1  0  0  0  0
  6  8  2  0  0  0  0
  7 15  1  1  0  0  0
  7  9  1  0  0  0  0
  8 12  1  0  0  0  0
  9 14  2  0  0  0  0
 10 21  1  6  0  0  0
 11  5  1  0  0  0  0
 11  8  1  0  0  0  0
 12  4  1  0  0  0  0
 12 27  1  0  0  0  0
 13 18  1  0  0  0  0
 15 23  2  0  0  0  0
 16  2  1  0  0  0  0
 17  3  1  0  0  0  0
 18 25  2  0  0  0  0
 19 26  1  0  0  0  0
 20 17  1  0  0  0  0
 20 22  1  0  0  0  0
 22  9  1  0  0  0  0
 22 10  1  0  0  0  0
 23 14  1  0  0  0  0
 26 25  1  0  0  0  0
 26 17  2  0  0  0  0
 27 24  1  1  0  0  0
 27  7  1  0  0  0  0
 28 11  1  0  0  0  0
 29 30  1  0  0  0  0
 30 28  1  0  0  0  0
M  END
>  <MODEL>
4

>  <REMARK>
 VINA RESULT:      -8.7      2.470      5.827
  Name = 
  2 active torsions:
  status: ('A' for Active; 'I' for Inactive)
    1  A    between atoms: N_11  and  C_28
    2  A    between atoms: C_28  and  O_30
                            x       y       z     vdW  Elec       q    Type
                         _______ _______ _______ _____ _____    ______ ____

>  <TORSDO>
F 2

$$$$
=
 OpenBabel11122410223D

 30 35  0  0  1  0  0  0  0  0999 V2000
  187.9300  177.5720  142.5220 C   0  0  0  0  0  0  0  0  0  0  0  0
  187.0850  177.8030  144.8650 C   0  0  0  0  0  0  0  0  0  0  0  0
  184.2090  178.9260  140.9220 C   0  0  0  0  0  2  0  0  0  0  0  0
  187.7210  177.7260  141.1200 C   0  0  0  0  0  0  0  0  0  0  0  0
  189.2120  176.9450  142.9940 C   0  0  0  0  0  2  0  0  0  0  0  0
  191.1980  177.5140  140.0280 O   0  0  0  0  0  0  0  0  0  0  0  0
  187.6250  176.7490  138.2260 C   0  0  1  0  0  3  0  0  0  0  0  0
  190.1830  177.4760  140.7780 C   0  0  0  0  0  0  0  0  0  0  0  0
  186.3800  177.5430  138.2290 C   0  0  0  0  0  0  0  0  0  0  0  0
  184.5580  178.8210  139.4350 C   0  0  1  0  0  3  0  0  0  0  0  0
  190.3480  177.3790  142.1940 N   0  0  0  0  0  0  0  0  0  0  0  0
  188.8570  177.5470  140.2180 N   0  0  0  0  0  0  0  0  0  0  0  0
  186.0520  178.1600  145.7360 C   0  0  0  0  0  3  0  0  0  0  0  0
  185.8620  177.6510  137.0160 C   0  0  0  0  0  3  0  0  0  0  0  0
  187.7630  176.4320  136.7730 C   0  0  0  0  0  3  0  0  0  0  0  0
  188.2470  177.3740  145.4190 F   0  0  0  0  0  0  0  0  0  0  0  0
  185.4560  178.4800  141.6050 C   0  0  0  0  0  0  0  0  0  0  0  0
  184.8350  178.6240  145.2430 C   0  0  0  0  0  3  0  0  0  0  0  0
  186.9090  177.9090  143.4610 C   0  0  0  0  0  0  0  0  0  0  0  0
  186.4250  178.1310  140.6970 C   0  0  0  0  0  0  0  0  0  0  0  0
  184.5550  180.2090  138.8180 C   0  0  0  0  0  1  0  0  0  0  0  0
  185.9040  178.2530  139.3750 N   0  0  0  0  0  0  0  0  0  0  0  0
  186.7380  176.9340  136.0980 C   0  0  0  0  0  3  0  0  0  0  0  0
  188.8660  179.0140  138.2280 C   0  0  0  0  0  1  0  0  0  0  0  0
  184.6410  178.7360  143.8700 C   0  0  0  0  0  3  0  0  0  0  0  0
  185.6620  178.3850  142.9780 C   0  0  0  0  0  0  0  0  0  0  0  0
  188.7840  177.5810  138.7550 C   0  0  2  0  0  3  0  0  0  0  0  0
  191.6810  177.5110  142.7840 C   0  0  0  0  0  2  0  0  0  0  0  0
  191.3750  179.3470  143.9690 C   0  0  0  0  0  1  0  0  0  0  0  0
  191.6090  177.9790  144.0980 O   0  0  0  0  0  0  0  0  0  0  0  0
  1  5  1  0  0  0  0
  1 19  1  0  0  0  0
  2 16  1  0  0  0  0
  2 13  1  0  0  0  0
  3 17  1  0  0  0  0
  4  1  2  0  0  0  0
  6  8  2  0  0  0  0
  7 15  1  6  0  0  0
  7  9  1  0  0  0  0
  7 27  1  0  0  0  0
  8 11  1  0  0  0  0
  9 22  1  0  0  0  0
 10 21  1  1  0  0  0
 10  3  1  0  0  0  0
 11 28  1  0  0  0  0
 11  5  1  0  0  0  0
 12  8  1  0  0  0  0
 12  4  1  0  0  0  0
 14  9  2  0  0  0  0
 17 26  1  0  0  0  0
 18 13  2  0  0  0  0
 19  2  2  0  0  0  0
 20  4  1  0  0  0  0
 20 17  2  0  0  0  0
 22 10  1  0  0  0  0
 22 20  1  0  0  0  0
 23 15  2  0  0  0  0
 23 14  1  0  0  0  0
 25 18  1  0  0  0  0
 26 19  1  0  0  0  0
 26 25  2  0  0  0  0
 27 24  1  1  0  0  0
 27 12  1  0  0  0  0
 28 30  1  0  0  0  0
 29 30  1  0  0  0  0
M  END
>  <MODEL>
5

>  <REMARK>
 VINA RESULT:      -7.9      2.519      5.649
  Name = 
  2 active torsions:
  status: ('A' for Active; 'I' for Inactive)
    1  A    between atoms: N_11  and  C_28
    2  A    between atoms: C_28  and  O_30
                            x       y       z     vdW  Elec       q    Type
                         _______ _______ _______ _____ _____    ______ ____

>  <TORSDO>
F 2

$$$$
=
 OpenBabel11122410223D

 30 35  0  0  1  0  0  0  0  0999 V2000
  186.7760  177.9090  142.6970 C   0  0  0  0  0  0  0  0  0  0  0  0
  187.9800  177.8210  144.8880 C   0  0  0  0  0  0  0  0  0  0  0  0
  183.0480  178.6580  144.6410 C   0  0  0  0  0  2  0  0  0  0  0  0
  185.5700  178.1150  141.9640 C   0  0  0  0  0  0  0  0  0  0  0  0
  188.0120  177.4980  141.9450 C   0  0  0  0  0  2  0  0  0  0  0  0
  187.0230  178.6230  138.6550 O   0  0  0  0  0  0  0  0  0  0  0  0
  183.3890  177.3350  139.9710 C   0  0  1  0  0  3  0  0  0  0  0  0
  186.9320  178.3480  139.8840 C   0  0  0  0  0  0  0  0  0  0  0  0
  182.5250  177.8830  141.0350 C   0  0  0  0  0  0  0  0  0  0  0  0
  182.1590  178.7190  143.3970 C   0  0  1  0  0  3  0  0  0  0  0  0
  188.1160  178.1870  140.6670 N   0  0  0  0  0  0  0  0  0  0  0  0
  185.6400  178.2100  140.5080 N   0  0  0  0  0  0  0  0  0  0  0  0
  187.9400  177.9220  146.2810 C   0  0  0  0  0  3  0  0  0  0  0  0
  181.2640  177.9760  140.6460 C   0  0  0  0  0  3  0  0  0  0  0  0
  182.4040  177.1480  138.8640 C   0  0  0  0  0  3  0  0  0  0  0  0
  189.1850  177.5780  144.3140 F   0  0  0  0  0  0  0  0  0  0  0  0
  184.4080  178.4040  144.0870 C   0  0  0  0  0  0  0  0  0  0  0  0
  186.7430  178.1860  146.9410 C   0  0  0  0  0  3  0  0  0  0  0  0
  186.7960  177.9880  144.1220 C   0  0  0  0  0  0  0  0  0  0  0  0
  184.3780  178.3020  142.7180 C   0  0  0  0  0  0  0  0  0  0  0  0
  181.5940  180.1210  143.2510 C   0  0  0  0  0  1  0  0  0  0  0  0
  183.0310  178.4150  142.2620 N   0  0  0  0  0  0  0  0  0  0  0  0
  181.1910  177.4960  139.2720 C   0  0  0  0  0  3  0  0  0  0  0  0
  184.0390  179.7840  139.4740 C   0  0  0  0  0  1  0  0  0  0  0  0
  185.5700  178.3520  146.2090 C   0  0  0  0  0  3  0  0  0  0  0  0
  185.5860  178.2570  144.8120 C   0  0  0  0  0  0  0  0  0  0  0  0
  184.4860  178.3290  139.6150 C   0  0  2  0  0  3  0  0  0  0  0  0
  189.4210  178.5230  140.0950 C   0  0  0  0  0  2  0  0  0  0  0  0
  190.4300  176.9690  138.8960 C   0  0  0  0  0  1  0  0  0  0  0  0
  190.3110  177.4510  140.1980 O   0  0  0  0  0  0  0  0  0  0  0  0
  1 19  1  0  0  0  0
  2 13  1  0  0  0  0
  4  1  2  0  0  0  0
  4 20  1  0  0  0  0
  5  1  1  0  0  0  0
  6  8  2  0  0  0  0
  7 15  1  6  0  0  0
  7  9  1  0  0  0  0
  8 12  1  0  0  0  0
  8 11  1  0  0  0  0
  9 22  1  0  0  0  0
 10 21  1  6  0  0  0
 10  3  1  0  0  0  0
 11  5  1  0  0  0  0
 12  4  1  0  0  0  0
 13 18  2  0  0  0  0
 14  9  2  0  0  0  0
 15 23  2  0  0  0  0
 16  2  1  0  0  0  0
 17  3  1  0  0  0  0
 17 26  1  0  0  0  0
 19 26  1  0  0  0  0
 19  2  2  0  0  0  0
 20 17  2  0  0  0  0
 22 20  1  0  0  0  0
 22 10  1  0  0  0  0
 23 14  1  0  0  0  0
 25 18  1  0  0  0  0
 26 25  2  0  0  0  0
 27 24  1  1  0  0  0
 27  7  1  0  0  0  0
 27 12  1  0  0  0  0
 28 30  1  0  0  0  0
 28 11  1  0  0  0  0
 29 30  1  0  0  0  0
M  END
>  <MODEL>
6

>  <REMARK>
 VINA RESULT:      -7.9      2.261      3.892
  Name = 
  2 active torsions:
  status: ('A' for Active; 'I' for Inactive)
    1  A    between atoms: N_11  and  C_28
    2  A    between atoms: C_28  and  O_30
                            x       y       z     vdW  Elec       q    Type
                         _______ _______ _______ _____ _____    ______ ____

>  <TORSDO>
F 2

$$$$
=
 OpenBabel11122410223D

 30 35  0  0  1  0  0  0  0  0999 V2000
  189.1910  177.1960  139.1020 C   0  0  0  0  0  0  0  0  0  0  0  0
  190.9960  176.6030  137.4750 C   0  0  0  0  0  0  0  0  0  0  0  0
  192.0090  177.4970  142.2980 C   0  0  0  0  0  2  0  0  0  0  0  0
  188.8000  177.5700  140.4220 C   0  0  0  0  0  0  0  0  0  0  0  0
  188.1190  176.9620  138.0740 C   0  0  0  0  0  2  0  0  0  0  0  0
  185.4540  178.8140  139.6650 O   0  0  0  0  0  0  0  0  0  0  0  0
  187.2010  177.2760  143.0090 C   0  0  1  0  0  3  0  0  0  0  0  0
  186.5810  178.2650  139.5130 C   0  0  0  0  0  0  0  0  0  0  0  0
  188.5200  177.5700  143.6020 C   0  0  0  0  0  0  0  0  0  0  0  0
  191.0300  177.8460  143.4220 C   0  0  1  0  0  3  0  0  0  0  0  0
  187.0350  177.9250  138.2020 N   0  0  0  0  0  0  0  0  0  0  0  0
  187.4210  177.9950  140.6520 N   0  0  0  0  0  0  0  0  0  0  0  0
  192.3520  176.3830  137.2180 C   0  0  0  0  0  3  0  0  0  0  0  0
  188.4420  177.7550  144.9100 C   0  0  0  0  0  3  0  0  0  0  0  0
  186.3180  177.3510  144.2120 C   0  0  0  0  0  3  0  0  0  0  0  0
  190.1370  176.4920  136.4310 F   0  0  0  0  0  0  0  0  0  0  0  0
  191.1320  177.3710  141.0980 C   0  0  0  0  0  0  0  0  0  0  0  0
  193.2960  176.4950  138.2360 C   0  0  0  0  0  3  0  0  0  0  0  0
  190.5590  176.9460  138.7810 C   0  0  0  0  0  0  0  0  0  0  0  0
  189.8150  177.5850  141.4190 C   0  0  0  0  0  0  0  0  0  0  0  0
  191.3250  179.2460  143.9290 C   0  0  0  0  0  1  0  0  0  0  0  0
  189.6960  177.8040  142.8230 N   0  0  0  0  0  0  0  0  0  0  0  0
  187.0450  177.6030  145.2930 C   0  0  0  0  0  3  0  0  0  0  0  0
  187.1320  179.7710  142.3460 C   0  0  0  0  0  1  0  0  0  0  0  0
  192.8890  176.8290  139.5240 C   0  0  0  0  0  3  0  0  0  0  0  0
  191.5360  177.0560  139.8050 C   0  0  0  0  0  0  0  0  0  0  0  0
  186.8470  178.3190  141.9590 C   0  0  2  0  0  3  0  0  0  0  0  0
  186.2850  178.3760  137.0290 C   0  0  0  0  0  2  0  0  0  0  0  0
  184.5220  177.1320  136.5670 C   0  0  0  0  0  1  0  0  0  0  0  0
  185.8680  177.2960  136.2470 O   0  0  0  0  0  0  0  0  0  0  0  0
  1  4  1  0  0  0  0
  2 19  1  0  0  0  0
  3 10  1  0  0  0  0
  4 12  1  0  0  0  0
  4 20  2  0  0  0  0
  5 11  1  0  0  0  0
  5  1  1  0  0  0  0
  7  9  1  0  0  0  0
  7 15  1  1  0  0  0
  8  6  2  0  0  0  0
  8 12  1  0  0  0  0
  9 14  2  0  0  0  0
 10 21  1  6  0  0  0
 11  8  1  0  0  0  0
 12 27  1  0  0  0  0
 13  2  2  0  0  0  0
 13 18  1  0  0  0  0
 14 23  1  0  0  0  0
 15 23  2  0  0  0  0
 16  2  1  0  0  0  0
 17 20  1  0  0  0  0
 17  3  1  0  0  0  0
 18 25  2  0  0  0  0
 19  1  2  0  0  0  0
 19 26  1  0  0  0  0
 20 22  1  0  0  0  0
 22 10  1  0  0  0  0
 22  9  1  0  0  0  0
 25 26  1  0  0  0  0
 26 17  2  0  0  0  0
 27 24  1  1  0  0  0
 27  7  1  0  0  0  0
 28 11  1  0  0  0  0
 30 29  1  0  0  0  0
 30 28  1  0  0  0  0
M  END
>  <MODEL>
7

>  <REMARK>
 VINA RESULT:      -7.5      2.836      5.396
  Name = 
  2 active torsions:
  status: ('A' for Active; 'I' for Inactive)
    1  A    between atoms: N_11  and  C_28
    2  A    between atoms: C_28  and  O_30
                            x       y       z     vdW  Elec       q    Type
                         _______ _______ _______ _____ _____    ______ ____

>  <TORSDO>
F 2

$$$$
=
 OpenBabel11122410223D

 30 35  0  0  1  0  0  0  0  0999 V2000
  184.1540  178.5970  140.9310 C   0  0  0  0  0  0  0  0  0  0  0  0
  183.2430  178.9280  143.2370 C   0  0  0  0  0  0  0  0  0  0  0  0
  188.1290  178.1800  142.4350 C   0  0  0  0  0  2  0  0  0  0  0  0
  185.2630  178.3290  140.0740 C   0  0  0  0  0  0  0  0  0  0  0  0
  182.8160  178.8840  140.3070 C   0  0  0  0  0  2  0  0  0  0  0  0
  183.4120  177.3840  137.0730 O   0  0  0  0  0  0  0  0  0  0  0  0
  187.1340  178.9060  137.7280 C   0  0  1  0  0  3  0  0  0  0  0  0
  183.6520  177.8110  138.2370 C   0  0  0  0  0  0  0  0  0  0  0  0
  188.1500  178.5140  138.7250 C   0  0  0  0  0  0  0  0  0  0  0  0
  188.8510  177.9840  141.0990 C   0  0  1  0  0  3  0  0  0  0  0  0
  182.5740  178.0400  139.1460 N   0  0  0  0  0  0  0  0  0  0  0  0
  185.0070  178.0530  138.6620 N   0  0  0  0  0  0  0  0  0  0  0  0
  183.4670  179.0010  144.6140 C   0  0  0  0  0  3  0  0  0  0  0  0
  189.3520  178.4020  138.1850 C   0  0  0  0  0  3  0  0  0  0  0  0
  187.9590  178.9770  136.4850 C   0  0  0  0  0  3  0  0  0  0  0  0
  181.9650  179.0710  142.8040 F   0  0  0  0  0  0  0  0  0  0  0  0
  186.7000  178.3320  142.0410 C   0  0  0  0  0  0  0  0  0  0  0  0
  184.7490  178.8480  145.1350 C   0  0  0  0  0  3  0  0  0  0  0  0
  184.3230  178.6950  142.3450 C   0  0  0  0  0  0  0  0  0  0  0  0
  186.5490  178.2640  140.6790 C   0  0  0  0  0  0  0  0  0  0  0  0
  189.4470  176.5880  141.0480 C   0  0  0  0  0  1  0  0  0  0  0  0
  187.8280  178.1270  140.0630 N   0  0  0  0  0  0  0  0  0  0  0  0
  189.2280  178.7100  136.7660 C   0  0  0  0  0  3  0  0  0  0  0  0
  186.5200  176.4000  137.6190 C   0  0  0  0  0  1  0  0  0  0  0  0
  185.8230  178.6190  144.2780 C   0  0  0  0  0  3  0  0  0  0  0  0
  185.6210  178.5410  142.8940 C   0  0  0  0  0  0  0  0  0  0  0  0
  186.0400  177.8520  137.6430 C   0  0  2  0  0  3  0  0  0  0  0  0
  181.2200  177.6070  138.7980 C   0  0  0  0  0  2  0  0  0  0  0  0
  180.9400  175.5580  139.5680 C   0  0  0  0  0  1  0  0  0  0  0  0
  180.6330  176.8890  139.8430 O   0  0  0  0  0  0  0  0  0  0  0  0
  1 19  1  0  0  0  0
  2 13  1  0  0  0  0
  4 20  1  0  0  0  0
  4  1  2  0  0  0  0
  5  1  1  0  0  0  0
  6  8  2  0  0  0  0
  7 15  1  6  0  0  0
  7  9  1  0  0  0  0
  8 12  1  0  0  0  0
  8 11  1  0  0  0  0
  9 22  1  0  0  0  0
 10 21  1  1  0  0  0
 10  3  1  0  0  0  0
 11  5  1  0  0  0  0
 12  4  1  0  0  0  0
 13 18  2  0  0  0  0
 14  9  2  0  0  0  0
 15 23  2  0  0  0  0
 16  2  1  0  0  0  0
 17  3  1  0  0  0  0
 17 26  1  0  0  0  0
 19 26  1  0  0  0  0
 19  2  2  0  0  0  0
 20 17  2  0  0  0  0
 22 20  1  0  0  0  0
 22 10  1  0  0  0  0
 23 14  1  0  0  0  0
 25 18  1  0  0  0  0
 26 25  2  0  0  0  0
 27 24  1  1  0  0  0
 27  7  1  0  0  0  0
 27 12  1  0  0  0  0
 28 11  1  0  0  0  0
 28 30  1  0  0  0  0
 29 30  1  0  0  0  0
M  END
>  <MODEL>
8

>  <REMARK>
 VINA RESULT:      -7.2      3.888      7.133
  Name = 
  2 active torsions:
  status: ('A' for Active; 'I' for Inactive)
    1  A    between atoms: N_11  and  C_28
    2  A    between atoms: C_28  and  O_30
                            x       y       z     vdW  Elec       q    Type
                         _______ _______ _______ _____ _____    ______ ____

>  <TORSDO>
F 2

$$$$
=
 OpenBabel11122410223D

 30 35  0  0  1  0  0  0  0  0999 V2000
  185.7040  178.1730  142.2980 C   0  0  0  0  0  0  0  0  0  0  0  0
  185.6190  178.2760  139.8000 C   0  0  0  0  0  0  0  0  0  0  0  0
  189.9750  178.1410  142.2670 C   0  0  0  0  0  2  0  0  0  0  0  0
  186.4690  178.1550  143.5020 C   0  0  0  0  0  0  0  0  0  0  0  0
  184.2110  178.0260  142.3920 C   0  0  0  0  0  2  0  0  0  0  0  0
  183.8050  179.0030  145.8490 O   0  0  0  0  0  0  0  0  0  0  0  0
  187.3390  177.0050  146.1960 C   0  0  1  0  0  3  0  0  0  0  0  0
  184.3870  178.6900  144.7720 C   0  0  0  0  0  0  0  0  0  0  0  0
  188.6730  177.3520  145.6670 C   0  0  0  0  0  0  0  0  0  0  0  0
  190.2050  178.0530  143.7780 C   0  0  1  0  0  3  0  0  0  0  0  0
  183.6720  178.7480  143.5360 N   0  0  0  0  0  0  0  0  0  0  0  0
  185.7710  178.2910  144.7790 N   0  0  0  0  0  0  0  0  0  0  0  0
  186.2970  178.3400  138.5800 C   0  0  0  0  0  3  0  0  0  0  0  0
  189.6180  177.2060  146.5810 C   0  0  0  0  0  3  0  0  0  0  0  0
  187.6700  176.6520  147.6090 C   0  0  0  0  0  3  0  0  0  0  0  0
  184.2630  178.2850  139.7610 F   0  0  0  0  0  0  0  0  0  0  0  0
  188.4900  178.1690  142.1410 C   0  0  0  0  0  0  0  0  0  0  0  0
  187.6890  178.3520  138.5400 C   0  0  0  0  0  3  0  0  0  0  0  0
  186.3410  178.2250  141.0210 C   0  0  0  0  0  0  0  0  0  0  0  0
  187.8840  178.0910  143.3710 C   0  0  0  0  0  0  0  0  0  0  0  0
  190.8910  179.3210  144.2570 C   0  0  0  0  0  1  0  0  0  0  0  0
  188.8780  177.9470  144.3830 N   0  0  0  0  0  0  0  0  0  0  0  0
  188.9780  176.7490  147.8070 C   0  0  0  0  0  3  0  0  0  0  0  0
  186.9950  179.5440  146.5230 C   0  0  0  0  0  1  0  0  0  0  0  0
  188.4170  178.3010  139.7260 C   0  0  0  0  0  3  0  0  0  0  0  0
  187.7580  178.2390  140.9600 C   0  0  0  0  0  0  0  0  0  0  0  0
  186.4020  178.2000  146.0970 C   0  0  2  0  0  3  0  0  0  0  0  0
  182.3360  179.3420  143.4920 C   0  0  0  0  0  2  0  0  0  0  0  0
  180.3910  178.6320  142.7290 C   0  0  0  0  0  1  0  0  0  0  0  0
  181.6690  179.0030  142.3120 O   0  0  0  0  0  0  0  0  0  0  0  0
  1  5  1  0  0  0  0
  1  4  1  0  0  0  0
  2 19  1  0  0  0  0
  3 10  1  0  0  0  0
  4 12  1  0  0  0  0
  5 11  1  0  0  0  0
  7 15  1  1  0  0  0
  8 12  1  0  0  0  0
  8  6  2  0  0  0  0
  9  7  1  0  0  0  0
  9 14  2  0  0  0  0
 10 21  1  1  0  0  0
 10 22  1  0  0  0  0
 11  8  1  0  0  0  0
 12 27  1  0  0  0  0
 13  2  2  0  0  0  0
 14 23  1  0  0  0  0
 15 23  2  0  0  0  0
 16  2  1  0  0  0  0
 17  3  1  0  0  0  0
 17 20  1  0  0  0  0
 18 13  1  0  0  0  0
 18 25  2  0  0  0  0
 19  1  2  0  0  0  0
 20  4  2  0  0  0  0
 20 22  1  0  0  0  0
 22  9  1  0  0  0  0
 25 26  1  0  0  0  0
 26 19  1  0  0  0  0
 26 17  2  0  0  0  0
 27  7  1  0  0  0  0
 27 24  1  6  0  0  0
 28 11  1  0  0  0  0
 30 29  1  0  0  0  0
 30 28  1  0  0  0  0
M  END
>  <MODEL>
9

>  <REMARK>
 VINA RESULT:      -7.1      3.070      6.383
  Name = 
  2 active torsions:
  status: ('A' for Active; 'I' for Inactive)
    1  A    between atoms: N_11  and  C_28
    2  A    between atoms: C_28  and  O_30
                            x       y       z     vdW  Elec       q    Type
                         _______ _______ _______ _____ _____    ______ ____

>  <TORSDO>
F 2

$$$$
