=
 OpenBabel11122411513D

 28 32  0  0  1  0  0  0  0  0999 V2000
  181.3360  176.5020  137.0910 C   0  0  0  0  0  0  0  0  0  0  0  0
  185.6810  178.1860  138.9020 O   0  0  0  0  0  0  0  0  0  0  0  0
  179.1380  181.2530  140.7640 O   0  0  0  0  0  0  0  0  0  0  0  0
  183.6050  174.8910  137.4290 C   0  0  0  0  0  3  0  0  0  0  0  0
  180.3110  179.4350  141.6790 N   0  0  0  0  0  0  0  0  0  0  0  0
  180.0650  177.2490  136.8680 C   0  0  0  0  0  2  0  0  0  0  0  0
  184.4870  180.3430  139.0800 O   0  0  0  0  0  0  0  0  0  0  0  0
  184.7470  179.0160  139.7360 S   0  0  0  0  0  0  0  0  0  0  0  0
  184.6160  178.8890  142.4950 C   0  0  0  0  0  0  0  0  0  0  0  0
  183.2390  178.1490  140.0380 C   0  0  1  0  0  3  0  0  0  0  0  0
  179.5060  180.9120  136.6480 O   0  0  0  0  0  1  0  0  0  0  0  0
  180.8540  178.2950  139.6550 C   0  0  1  0  0  3  0  0  0  0  0  0
  183.3330  178.6510  142.4160 N   0  0  0  0  0  0  0  0  0  0  0  0
  185.3920  179.2420  141.3310 N   0  0  0  0  0  2  0  0  0  0  0  0
  179.2060  179.5810  136.9390 C   0  0  2  0  0  3  0  0  0  0  0  0
  182.2930  176.8540  138.0830 C   0  0  0  0  0  0  0  0  0  0  0  0
  179.7990  180.1920  140.6050 C   0  0  0  0  0  0  0  0  0  0  0  0
  185.3010  178.7480  143.8060 C   0  0  0  0  0  1  0  0  0  0  0  0
  178.9310  179.4210  138.4380 C   0  0  0  0  0  2  0  0  0  0  0  0
  183.4290  176.0280  138.2160 C   0  0  0  0  0  3  0  0  0  0  0  0
  181.5210  175.3540  136.3110 C   0  0  0  0  0  3  0  0  0  0  0  0
  182.6500  174.5530  136.4760 C   0  0  0  0  0  3  0  0  0  0  0  0
  180.3330  178.6830  136.4490 C   0  0  0  0  0  2  0  0  0  0  0  0
  181.1690  178.3830  141.1700 C   0  0  1  0  0  3  0  0  0  0  0  0
  180.1790  179.6400  139.2850 C   0  0  2  0  0  3  0  0  0  0  0  0
  182.5970  178.8650  141.1740 C   0  0  2  0  0  3  0  0  0  0  0  0
  180.2260  179.8200  143.0780 C   0  0  0  0  0  1  0  0  0  0  0  0
  182.2030  178.1370  138.9170 C   0  0  2  0  0  3  0  0  0  0  0  0
  1 16  1  0  0  0  0
  2  8  2  0  0  0  0
  4 20  1  0  0  0  0
  5 27  1  0  0  0  0
  6  1  1  0  0  0  0
  7  8  2  0  0  0  0
  8 14  1  0  0  0  0
  9 18  1  0  0  0  0
 10  8  1  6  0  0  0
 10 26  1  0  0  0  0
 11 15  1  0  0  0  0
 12 24  1  0  0  0  0
 13  9  2  0  0  0  0
 14  9  1  0  0  0  0
 15 19  1  0  0  0  0
 16 20  2  0  0  0  0
 16 28  1  0  0  0  0
 17  3  2  0  0  0  0
 17  5  1  0  0  0  0
 19 25  1  0  0  0  0
 21 22  1  0  0  0  0
 21  1  2  0  0  0  0
 22  4  2  0  0  0  0
 23  6  1  0  0  0  0
 23 15  1  0  0  0  0
 24 26  1  0  0  0  0
 24  5  1  0  0  0  0
 25 12  1  0  0  0  0
 25 17  1  0  0  0  0
 26 13  1  0  0  0  0
 28 12  1  0  0  0  0
 28 10  1  0  0  0  0
M  END
>  <MODEL>
1

>  <REMARK>
 VINA RESULT:      -6.4      0.000      0.000
  Name = 
  0 active torsions:
  status: ('A' for Active; 'I' for Inactive)
                            x       y       z     vdW  Elec       q    Type
                         _______ _______ _______ _____ _____    ______ ____

>  <TORSDO>
F 0

$$$$
=
 OpenBabel11122411513D

 28 32  0  0  1  0  0  0  0  0999 V2000
  190.4820  177.1050  140.1480 C   0  0  0  0  0  0  0  0  0  0  0  0
  187.2520  179.0260  136.8490 O   0  0  0  0  0  0  0  0  0  0  0  0
  191.8790  173.4390  135.0970 O   0  0  0  0  0  0  0  0  0  0  0  0
  188.0470  178.2900  140.8700 C   0  0  0  0  0  3  0  0  0  0  0  0
  189.7390  173.4300  136.0670 N   0  0  0  0  0  0  0  0  0  0  0  0
  191.7960  176.4490  139.8930 C   0  0  0  0  0  2  0  0  0  0  0  0
  188.9050  178.2800  135.1700 O   0  0  0  0  0  0  0  0  0  0  0  0
  187.7490  177.8650  136.0360 S   0  0  0  0  0  0  0  0  0  0  0  0
  186.1360  175.8060  135.1400 C   0  0  0  0  0  0  0  0  0  0  0  0
  188.1890  176.5110  137.0800 C   0  0  1  0  0  3  0  0  0  0  0  0
  193.9350  176.5780  136.8610 O   0  0  0  0  0  1  0  0  0  0  0  0
  190.0750  175.1300  137.7060 C   0  0  1  0  0  3  0  0  0  0  0  0
  186.9330  174.9420  135.7100 N   0  0  0  0  0  0  0  0  0  0  0  0
  186.4690  177.2080  135.0660 N   0  0  0  0  0  2  0  0  0  0  0  0
  193.3680  176.0300  138.0120 C   0  0  2  0  0  3  0  0  0  0  0  0
  189.4090  177.1050  139.2140 C   0  0  0  0  0  0  0  0  0  0  0  0
  191.0600  173.9080  135.9310 C   0  0  0  0  0  0  0  0  0  0  0  0
  184.8340  175.3420  134.5940 C   0  0  0  0  0  1  0  0  0  0  0  0
  192.5870  174.7590  137.6590 C   0  0  0  0  0  2  0  0  0  0  0  0
  188.2030  177.7230  139.6060 C   0  0  0  0  0  3  0  0  0  0  0  0
  190.3110  177.6730  141.4160 C   0  0  0  0  0  3  0  0  0  0  0  0
  189.1020  178.2650  141.7770 C   0  0  0  0  0  3  0  0  0  0  0  0
  192.5070  177.0750  138.7080 C   0  0  0  0  0  2  0  0  0  0  0  0
  189.0010  174.2850  136.9750 C   0  0  1  0  0  3  0  0  0  0  0  0
  191.3460  175.0530  136.8230 C   0  0  2  0  0  3  0  0  0  0  0  0
  188.2600  175.3280  136.1780 C   0  0  2  0  0  3  0  0  0  0  0  0
  189.1340  172.4170  135.2180 C   0  0  0  0  0  1  0  0  0  0  0  0
  189.5440  176.5800  137.7800 C   0  0  2  0  0  3  0  0  0  0  0  0
  1 21  1  0  0  0  0
  3 17  2  0  0  0  0
  4 22  1  0  0  0  0
  5 24  1  0  0  0  0
  6  1  1  0  0  0  0
  7  8  2  0  0  0  0
  8  2  2  0  0  0  0
  9 13  2  0  0  0  0
 10  8  1  6  0  0  0
 10 28  1  0  0  0  0
 11 15  1  0  0  0  0
 12 28  1  0  0  0  0
 13 26  1  0  0  0  0
 14  9  1  0  0  0  0
 14  8  1  0  0  0  0
 15 23  1  0  0  0  0
 16 20  1  0  0  0  0
 16  1  2  0  0  0  0
 17  5  1  0  0  0  0
 17 25  1  0  0  0  0
 18  9  1  0  0  0  0
 19 15  1  0  0  0  0
 20  4  2  0  0  0  0
 21 22  2  0  0  0  0
 23  6  1  0  0  0  0
 24 12  1  0  0  0  0
 25 19  1  0  0  0  0
 25 12  1  0  0  0  0
 26 24  1  0  0  0  0
 26 10  1  0  0  0  0
 27  5  1  0  0  0  0
 28 16  1  0  0  0  0
M  END
>  <MODEL>
2

>  <REMARK>
 VINA RESULT:      -5.8      6.575     10.379
  Name = 
  0 active torsions:
  status: ('A' for Active; 'I' for Inactive)
                            x       y       z     vdW  Elec       q    Type
                         _______ _______ _______ _____ _____    ______ ____

>  <TORSDO>
F 0

$$$$
=
 OpenBabel11122411513D

 28 32  0  0  1  0  0  0  0  0999 V2000
  179.8770  180.8270  139.4890 C   0  0  0  0  0  0  0  0  0  0  0  0
  184.7880  180.1370  138.8460 O   0  0  0  0  0  0  0  0  0  0  0  0
  180.1810  174.5400  140.6180 O   0  0  0  0  0  0  0  0  0  0  0  0
  181.4600  182.4140  137.8060 C   0  0  0  0  0  3  0  0  0  0  0  0
  180.7880  175.4450  138.5370 N   0  0  0  0  0  0  0  0  0  0  0  0
  178.9310  180.0560  140.3440 C   0  0  0  0  0  2  0  0  0  0  0  0
  184.4770  178.2530  140.4150 O   0  0  0  0  0  0  0  0  0  0  0  0
  184.3700  178.7010  138.9850 S   0  0  0  0  0  0  0  0  0  0  0  0
  184.7010  176.7990  137.0050 C   0  0  0  0  0  0  0  0  0  0  0  0
  182.7340  178.4620  138.3640 C   0  0  1  0  0  3  0  0  0  0  0  0
  179.6590  177.7640  143.1730 O   0  0  0  0  0  1  0  0  0  0  0  0
  180.5240  177.7590  139.0540 C   0  0  1  0  0  3  0  0  0  0  0  0
  183.4250  176.5260  137.0640 N   0  0  0  0  0  0  0  0  0  0  0  0
  185.3290  177.6850  137.9560 N   0  0  0  0  0  2  0  0  0  0  0  0
  178.9700  178.2630  142.0670 C   0  0  2  0  0  3  0  0  0  0  0  0
  181.0590  180.2720  138.9230 C   0  0  0  0  0  0  0  0  0  0  0  0
  180.3890  175.5440  139.8860 C   0  0  0  0  0  0  0  0  0  0  0  0
  185.5180  176.2220  135.9060 C   0  0  0  0  0  1  0  0  0  0  0  0
  178.9310  177.2110  140.9530 C   0  0  0  0  0  2  0  0  0  0  0  0
  181.8390  181.1030  138.0930 C   0  0  0  0  0  3  0  0  0  0  0  0
  179.5060  182.1430  139.1890 C   0  0  0  0  0  3  0  0  0  0  0  0
  180.2930  182.9350  138.3530 C   0  0  0  0  0  3  0  0  0  0  0  0
  179.6030  179.5720  141.6160 C   0  0  0  0  0  2  0  0  0  0  0  0
  181.1170  176.7610  138.0260 C   0  0  1  0  0  3  0  0  0  0  0  0
  180.3070  176.9450  140.3550 C   0  0  2  0  0  3  0  0  0  0  0  0
  182.5990  176.9920  138.1730 C   0  0  2  0  0  3  0  0  0  0  0  0
  181.0960  174.1990  137.8540 C   0  0  0  0  0  1  0  0  0  0  0  0
  181.5760  178.8710  139.2700 C   0  0  2  0  0  3  0  0  0  0  0  0
  1  6  1  0  0  0  0
  2  8  2  0  0  0  0
  4 20  2  0  0  0  0
  4 22  1  0  0  0  0
  5 17  1  0  0  0  0
  6 23  1  0  0  0  0
  8  7  2  0  0  0  0
  9 13  2  0  0  0  0
  9 14  1  0  0  0  0
 10  8  1  1  0  0  0
 10 28  1  0  0  0  0
 12 28  1  0  0  0  0
 12 25  1  0  0  0  0
 13 26  1  0  0  0  0
 14  8  1  0  0  0  0
 15 11  1  0  0  0  0
 16 28  1  0  0  0  0
 16  1  2  0  0  0  0
 17 25  1  0  0  0  0
 17  3  2  0  0  0  0
 18  9  1  0  0  0  0
 19 15  1  0  0  0  0
 20 16  1  0  0  0  0
 21  1  1  0  0  0  0
 22 21  2  0  0  0  0
 23 15  1  0  0  0  0
 24 26  1  0  0  0  0
 24  5  1  0  0  0  0
 24 12  1  0  0  0  0
 25 19  1  0  0  0  0
 26 10  1  0  0  0  0
 27  5  1  0  0  0  0
M  END
>  <MODEL>
3

>  <REMARK>
 VINA RESULT:      -5.6      2.866      5.222
  Name = 
  0 active torsions:
  status: ('A' for Active; 'I' for Inactive)
                            x       y       z     vdW  Elec       q    Type
                         _______ _______ _______ _____ _____    ______ ____

>  <TORSDO>
F 0

$$$$
=
 OpenBabel11122411513D

 28 32  0  0  1  0  0  0  0  0999 V2000
  181.6840  178.7600  142.8480 C   0  0  0  0  0  0  0  0  0  0  0  0
  179.8850  181.8390  139.3420 O   0  0  0  0  0  0  0  0  0  0  0  0
  186.3000  178.1280  138.4680 O   0  0  0  0  0  0  0  0  0  0  0  0
  178.9530  179.2840  142.4960 C   0  0  0  0  0  3  0  0  0  0  0  0
  184.0800  177.5100  138.0110 N   0  0  0  0  0  0  0  0  0  0  0  0
  183.1010  178.3970  143.1320 C   0  0  0  0  0  2  0  0  0  0  0  0
  182.2610  182.1150  138.7180 O   0  0  0  0  0  0  0  0  0  0  0  0
  181.0350  181.2580  138.5700 S   0  0  0  0  0  0  0  0  0  0  0  0
  180.7490  179.8020  136.2370 C   0  0  0  0  0  0  0  0  0  0  0  0
  181.3560  179.5970  139.0780 C   0  0  1  0  0  3  0  0  0  0  0  0
  186.2190  180.1270  142.1000 O   0  0  0  0  0  1  0  0  0  0  0  0
  183.0780  178.2090  140.0590 C   0  0  1  0  0  3  0  0  0  0  0  0
  181.4270  178.8220  136.7740 N   0  0  0  0  0  0  0  0  0  0  0  0
  180.6170  181.0790  136.8960 N   0  0  0  0  0  2  0  0  0  0  0  0
  185.3970  179.0510  142.4370 C   0  0  2  0  0  3  0  0  0  0  0  0
  181.2130  179.1490  141.5620 C   0  0  0  0  0  0  0  0  0  0  0  0
  185.0910  178.0760  138.8160 C   0  0  0  0  0  0  0  0  0  0  0  0
  180.0600  179.5830  134.9390 C   0  0  0  0  0  1  0  0  0  0  0  0
  185.3080  178.0690  141.2640 C   0  0  0  0  0  2  0  0  0  0  0  0
  179.8360  179.4180  141.4250 C   0  0  0  0  0  3  0  0  0  0  0  0
  180.7860  178.6230  143.9130 C   0  0  0  0  0  3  0  0  0  0  0  0
  179.4270  178.8850  143.7410 C   0  0  0  0  0  3  0  0  0  0  0  0
  184.0330  179.5660  142.8770 C   0  0  0  0  0  2  0  0  0  0  0  0
  182.7820  177.7640  138.6040 C   0  0  1  0  0  3  0  0  0  0  0  0
  184.5620  178.6550  140.0710 C   0  0  2  0  0  3  0  0  0  0  0  0
  182.1970  179.0130  137.9980 C   0  0  2  0  0  3  0  0  0  0  0  0
  184.2820  177.0060  136.6620 C   0  0  0  0  0  1  0  0  0  0  0  0
  182.1440  179.4010  140.3700 C   0  0  2  0  0  3  0  0  0  0  0  0
  1  6  1  0  0  0  0
  1 21  1  0  0  0  0
  3 17  2  0  0  0  0
  4 22  1  0  0  0  0
  5 24  1  0  0  0  0
  5 17  1  0  0  0  0
  8  7  2  0  0  0  0
  8  2  2  0  0  0  0
  9 13  2  0  0  0  0
  9 14  1  0  0  0  0
 10  8  1  6  0  0  0
 10 28  1  0  0  0  0
 11 15  1  0  0  0  0
 12 25  1  0  0  0  0
 12 28  1  0  0  0  0
 13 26  1  0  0  0  0
 14  8  1  0  0  0  0
 15 23  1  0  0  0  0
 16  1  2  0  0  0  0
 17 25  1  0  0  0  0
 18  9  1  0  0  0  0
 19 15  1  0  0  0  0
 20 16  1  0  0  0  0
 20  4  2  0  0  0  0
 22 21  2  0  0  0  0
 23  6  1  0  0  0  0
 24 12  1  0  0  0  0
 25 19  1  0  0  0  0
 26 24  1  0  0  0  0
 26 10  1  0  0  0  0
 27  5  1  0  0  0  0
 28 16  1  0  0  0  0
M  END
>  <MODEL>
4

>  <REMARK>
 VINA RESULT:      -5.4      2.454      6.500
  Name = 
  0 active torsions:
  status: ('A' for Active; 'I' for Inactive)
                            x       y       z     vdW  Elec       q    Type
                         _______ _______ _______ _____ _____    ______ ____

>  <TORSDO>
F 0

$$$$
=
 OpenBabel11122411513D

 28 32  0  0  1  0  0  0  0  0999 V2000
  184.0920  175.8820  135.6430 C   0  0  0  0  0  0  0  0  0  0  0  0
  186.5010  178.7890  138.9210 O   0  0  0  0  0  0  0  0  0  0  0  0
  179.0610  178.7660  138.3390 O   0  0  0  0  0  0  0  0  0  0  0  0
  186.5820  175.2340  136.7550 C   0  0  0  0  0  3  0  0  0  0  0  0
  180.5200  177.4150  139.5910 N   0  0  0  0  0  0  0  0  0  0  0  0
  182.7730  176.1100  134.9870 C   0  0  0  0  0  2  0  0  0  0  0  0
  184.5310  180.2630  138.6850 O   0  0  0  0  0  0  0  0  0  0  0  0
  185.0920  179.0510  139.3730 S   0  0  0  0  0  0  0  0  0  0  0  0
  184.1430  178.4400  141.8970 C   0  0  0  0  0  0  0  0  0  0  0  0
  184.0740  177.6350  139.0990 C   0  0  1  0  0  3  0  0  0  0  0  0
  180.8440  179.2610  134.6280 O   0  0  0  0  0  1  0  0  0  0  0  0
  182.1090  176.9140  137.8840 C   0  0  1  0  0  3  0  0  0  0  0  0
  183.1780  177.7440  141.3580 N   0  0  0  0  0  0  0  0  0  0  0  0
  185.0320  179.2470  141.0960 N   0  0  0  0  0  2  0  0  0  0  0  0
  181.0490  177.8890  134.7740 C   0  0  2  0  0  3  0  0  0  0  0  0
  184.4390  176.4090  136.9180 C   0  0  0  0  0  0  0  0  0  0  0  0
  180.1160  178.0810  138.4150 C   0  0  0  0  0  0  0  0  0  0  0  0
  184.3620  178.3640  143.3650 C   0  0  0  0  0  1  0  0  0  0  0  0
  180.3980  177.3950  136.0710 C   0  0  0  0  0  2  0  0  0  0  0  0
  185.7050  176.0740  137.4410 C   0  0  0  0  0  3  0  0  0  0  0  0
  184.9790  175.0350  134.9670 C   0  0  0  0  0  3  0  0  0  0  0  0
  186.2190  174.7130  135.5170 C   0  0  0  0  0  3  0  0  0  0  0  0
  182.5390  177.5830  134.7120 C   0  0  0  0  0  2  0  0  0  0  0  0
  181.8510  176.8710  139.4130 C   0  0  1  0  0  3  0  0  0  0  0  0
  181.0940  177.9370  137.3140 C   0  0  2  0  0  3  0  0  0  0  0  0
  182.8630  177.8560  139.9370 C   0  0  2  0  0  3  0  0  0  0  0  0
  179.8360  177.5070  140.8710 C   0  0  0  0  0  1  0  0  0  0  0  0
  183.5600  177.4070  137.6800 C   0  0  2  0  0  3  0  0  0  0  0  0
  1 16  1  0  0  0  0
  2  8  2  0  0  0  0
  3 17  2  0  0  0  0
  4 20  1  0  0  0  0
  5 27  1  0  0  0  0
  6  1  1  0  0  0  0
  7  8  2  0  0  0  0
  8 14  1  0  0  0  0
  9 18  1  0  0  0  0
 10  8  1  6  0  0  0
 10 26  1  0  0  0  0
 11 15  1  0  0  0  0
 12 24  1  0  0  0  0
 13  9  2  0  0  0  0
 14  9  1  0  0  0  0
 15 19  1  0  0  0  0
 16 20  2  0  0  0  0
 16 28  1  0  0  0  0
 17  5  1  0  0  0  0
 19 25  1  0  0  0  0
 21 22  1  0  0  0  0
 21  1  2  0  0  0  0
 22  4  2  0  0  0  0
 23 15  1  0  0  0  0
 23  6  1  0  0  0  0
 24  5  1  0  0  0  0
 24 26  1  0  0  0  0
 25 12  1  0  0  0  0
 25 17  1  0  0  0  0
 26 13  1  0  0  0  0
 28 12  1  0  0  0  0
 28 10  1  0  0  0  0
M  END
>  <MODEL>
5

>  <REMARK>
 VINA RESULT:      -5.3      1.897      2.577
  Name = 
  0 active torsions:
  status: ('A' for Active; 'I' for Inactive)
                            x       y       z     vdW  Elec       q    Type
                         _______ _______ _______ _____ _____    ______ ____

>  <TORSDO>
F 0

$$$$
=
 OpenBabel11122411513D

 28 32  0  0  1  0  0  0  0  0999 V2000
  179.8060  179.6200  138.5450 C   0  0  0  0  0  0  0  0  0  0  0  0
  184.5930  180.0780  139.9170 O   0  0  0  0  0  0  0  0  0  0  0  0
  181.7220  173.5930  137.5940 O   0  0  0  0  0  0  0  0  0  0  0  0
  181.2600  182.0070  138.3320 C   0  0  0  0  0  3  0  0  0  0  0  0
  182.6640  175.3850  136.4010 N   0  0  0  0  0  0  0  0  0  0  0  0
  178.9310  178.4150  138.6040 C   0  0  0  0  0  2  0  0  0  0  0  0
  184.4000  177.6810  140.4910 O   0  0  0  0  0  0  0  0  0  0  0  0
  184.6390  178.6730  139.3870 S   0  0  0  0  0  0  0  0  0  0  0  0
  186.2060  177.8790  137.2520 C   0  0  0  0  0  0  0  0  0  0  0  0
  183.4740  178.4590  138.0770 C   0  0  1  0  0  3  0  0  0  0  0  0
  179.3680  175.2880  140.5560 O   0  0  0  0  0  1  0  0  0  0  0  0
  181.5130  177.1800  137.4690 C   0  0  1  0  0  3  0  0  0  0  0  0
  185.1440  177.4030  136.6580 N   0  0  0  0  0  0  0  0  0  0  0  0
  186.1590  178.3630  138.6110 N   0  0  0  0  0  2  0  0  0  0  0  0
  178.9660  176.0920  139.4880 C   0  0  2  0  0  3  0  0  0  0  0  0
  181.2210  179.5590  138.4040 C   0  0  0  0  0  0  0  0  0  0  0  0
  181.8270  174.8330  137.3930 C   0  0  0  0  0  0  0  0  0  0  0  0
  187.4830  177.9660  136.4970 C   0  0  0  0  0  1  0  0  0  0  0  0
  179.6420  175.6230  138.1950 C   0  0  0  0  0  2  0  0  0  0  0  0
  181.9220  180.7790  138.3140 C   0  0  0  0  0  3  0  0  0  0  0  0
  179.1540  180.8580  138.5570 C   0  0  0  0  0  3  0  0  0  0  0  0
  179.8750  182.0470  138.4530 C   0  0  0  0  0  3  0  0  0  0  0  0
  179.2570  177.5520  139.8080 C   0  0  0  0  0  2  0  0  0  0  0  0
  182.7030  176.8270  136.5400 C   0  0  1  0  0  3  0  0  0  0  0  0
  181.1470  175.8660  138.2050 C   0  0  2  0  0  3  0  0  0  0  0  0
  183.8920  177.2110  137.3820 C   0  0  2  0  0  3  0  0  0  0  0  0
  183.5670  174.6170  135.5580 C   0  0  0  0  0  1  0  0  0  0  0  0
  182.0140  178.2480  138.4670 C   0  0  2  0  0  3  0  0  0  0  0  0
  1 21  1  0  0  0  0
  1  6  1  0  0  0  0
  4 22  1  0  0  0  0
  5 24  1  0  0  0  0
  5 17  1  0  0  0  0
  6 23  1  0  0  0  0
  8  2  2  0  0  0  0
  8  7  2  0  0  0  0
  9 14  1  0  0  0  0
 10 28  1  0  0  0  0
 10  8  1  1  0  0  0
 12 25  1  0  0  0  0
 12 28  1  0  0  0  0
 13  9  2  0  0  0  0
 13 26  1  0  0  0  0
 14  8  1  0  0  0  0
 15 23  1  0  0  0  0
 15 11  1  0  0  0  0
 16 28  1  0  0  0  0
 16  1  2  0  0  0  0
 17  3  2  0  0  0  0
 17 25  1  0  0  0  0
 18  9  1  0  0  0  0
 19 25  1  0  0  0  0
 19 15  1  0  0  0  0
 20  4  2  0  0  0  0
 20 16  1  0  0  0  0
 22 21  2  0  0  0  0
 24 26  1  0  0  0  0
 24 12  1  0  0  0  0
 26 10  1  0  0  0  0
 27  5  1  0  0  0  0
M  END
>  <MODEL>
6

>  <REMARK>
 VINA RESULT:      -5.2      3.119      5.346
  Name = 
  0 active torsions:
  status: ('A' for Active; 'I' for Inactive)
                            x       y       z     vdW  Elec       q    Type
                         _______ _______ _______ _____ _____    ______ ____

>  <TORSDO>
F 0

$$$$
=
 OpenBabel11122411513D

 28 32  0  0  1  0  0  0  0  0999 V2000
  184.8510  176.3580  137.0540 C   0  0  0  0  0  0  0  0  0  0  0  0
  182.7190  180.5870  138.6580 O   0  0  0  0  0  0  0  0  0  0  0  0
  178.9330  174.1800  138.1130 O   0  0  0  0  0  0  0  0  0  0  0  0
  186.2540  178.4080  138.3520 C   0  0  0  0  0  3  0  0  0  0  0  0
  180.2480  175.0570  139.8510 N   0  0  0  0  0  0  0  0  0  0  0  0
  184.2190  175.2000  136.3600 C   0  0  0  0  0  2  0  0  0  0  0  0
  180.6420  179.5860  137.7660 O   0  0  0  0  0  0  0  0  0  0  0  0
  181.5860  179.6390  138.9340 S   0  0  0  0  0  0  0  0  0  0  0  0
  180.5550  179.1590  141.4540 C   0  0  0  0  0  0  0  0  0  0  0  0
  182.1980  178.0310  139.3310 C   0  0  1  0  0  3  0  0  0  0  0  0
  180.9590  175.0160  134.5940 O   0  0  0  0  0  1  0  0  0  0  0  0
  182.1410  175.7350  138.5680 C   0  0  1  0  0  3  0  0  0  0  0  0
  180.7600  177.8790  141.2870 N   0  0  0  0  0  0  0  0  0  0  0  0
  180.7420  180.1020  140.3780 N   0  0  0  0  0  2  0  0  0  0  0  0
  182.0390  174.5600  135.3510 C   0  0  2  0  0  3  0  0  0  0  0  0
  184.1530  177.2150  137.9500 C   0  0  0  0  0  0  0  0  0  0  0  0
  179.9860  174.7530  138.4980 C   0  0  0  0  0  0  0  0  0  0  0  0
  180.1640  179.6620  142.7970 C   0  0  0  0  0  1  0  0  0  0  0  0
  181.5550  174.0890  136.7260 C   0  0  0  0  0  2  0  0  0  0  0  0
  184.8880  178.2440  138.5750 C   0  0  0  0  0  3  0  0  0  0  0  0
  186.2240  176.5300  136.8430 C   0  0  0  0  0  3  0  0  0  0  0  0
  186.9240  177.5500  137.4860 C   0  0  0  0  0  3  0  0  0  0  0  0
  183.0980  175.6500  135.4420 C   0  0  0  0  0  2  0  0  0  0  0  0
  181.4450  175.8690  139.9470 C   0  0  1  0  0  3  0  0  0  0  0  0
  181.0480  175.2390  137.5890 C   0  0  2  0  0  3  0  0  0  0  0  0
  181.0540  177.3240  139.9700 C   0  0  2  0  0  3  0  0  0  0  0  0
  179.3150  174.8370  140.9440 C   0  0  0  0  0  1  0  0  0  0  0  0
  182.6370  177.1440  138.1690 C   0  0  2  0  0  3  0  0  0  0  0  0
  1 16  1  0  0  0  0
  2  8  2  0  0  0  0
  3 17  2  0  0  0  0
  4 20  1  0  0  0  0
  5 24  1  0  0  0  0
  5 27  1  0  0  0  0
  6  1  1  0  0  0  0
  7  8  2  0  0  0  0
  8 14  1  0  0  0  0
  9 18  1  0  0  0  0
 10  8  1  6  0  0  0
 10 26  1  0  0  0  0
 11 15  1  0  0  0  0
 12 24  1  0  0  0  0
 13  9  2  0  0  0  0
 14  9  1  0  0  0  0
 15 23  1  0  0  0  0
 15 19  1  0  0  0  0
 16 28  1  0  0  0  0
 16 20  2  0  0  0  0
 17  5  1  0  0  0  0
 19 25  1  0  0  0  0
 21  1  2  0  0  0  0
 21 22  1  0  0  0  0
 22  4  2  0  0  0  0
 23  6  1  0  0  0  0
 24 26  1  0  0  0  0
 25 17  1  0  0  0  0
 25 12  1  0  0  0  0
 26 13  1  0  0  0  0
 28 12  1  0  0  0  0
 28 10  1  0  0  0  0
M  END
>  <MODEL>
7

>  <REMARK>
 VINA RESULT:      -5.2      2.827      4.489
  Name = 
  0 active torsions:
  status: ('A' for Active; 'I' for Inactive)
                            x       y       z     vdW  Elec       q    Type
                         _______ _______ _______ _____ _____    ______ ____

>  <TORSDO>
F 0

$$$$
=
 OpenBabel11122411513D

 28 32  0  0  1  0  0  0  0  0999 V2000
  180.6900  180.4130  136.6950 C   0  0  0  0  0  0  0  0  0  0  0  0
  180.5080  179.4970  141.6080 O   0  0  0  0  0  0  0  0  0  0  0  0
  185.2030  175.8980  137.0590 O   0  0  0  0  0  0  0  0  0  0  0  0
  179.9160  182.3170  138.6020 C   0  0  0  0  0  3  0  0  0  0  0  0
  185.4150  177.9410  138.2000 N   0  0  0  0  0  0  0  0  0  0  0  0
  181.0850  179.4960  135.5890 C   0  0  0  0  0  2  0  0  0  0  0  0
  181.3050  177.2470  140.9660 O   0  0  0  0  0  0  0  0  0  0  0  0
  181.7090  178.6640  141.2620 S   0  0  0  0  0  0  0  0  0  0  0  0
  184.2370  179.0990  142.2950 C   0  0  0  0  0  0  0  0  0  0  0  0
  182.5930  179.3700  139.9070 C   0  0  1  0  0  3  0  0  0  0  0  0
  181.3290  175.7920  135.5870 O   0  0  0  0  0  1  0  0  0  0  0  0
  183.2990  178.8900  137.6420 C   0  0  1  0  0  3  0  0  0  0  0  0
  184.7140  179.1680  141.0800 N   0  0  0  0  0  0  0  0  0  0  0  0
  182.8720  178.7080  142.5500 N   0  0  0  0  0  2  0  0  0  0  0  0
  181.6500  177.1010  135.2290 C   0  0  2  0  0  3  0  0  0  0  0  0
  181.1820  180.3010  138.0260 C   0  0  0  0  0  0  0  0  0  0  0  0
  184.7150  177.0040  137.4100 C   0  0  0  0  0  0  0  0  0  0  0  0
  185.1070  179.4760  143.4390 C   0  0  0  0  0  1  0  0  0  0  0  0
  183.1080  177.4030  135.5930 C   0  0  0  0  0  2  0  0  0  0  0  0
  180.7600  181.2680  138.9620 C   0  0  0  0  0  3  0  0  0  0  0  0
  179.8470  181.4750  136.3450 C   0  0  0  0  0  3  0  0  0  0  0  0
  179.4590  182.4220  137.2920 C   0  0  0  0  0  3  0  0  0  0  0  0
  180.6690  178.0660  135.8810 C   0  0  0  0  0  2  0  0  0  0  0  0
  184.5270  179.0210  138.5800 C   0  0  1  0  0  3  0  0  0  0  0  0
  183.3340  177.4390  137.1000 C   0  0  2  0  0  3  0  0  0  0  0  0
  183.9320  178.7210  139.9320 C   0  0  2  0  0  3  0  0  0  0  0  0
  186.7290  177.7160  138.7800 C   0  0  0  0  0  1  0  0  0  0  0  0
  182.0380  179.1230  138.5060 C   0  0  2  0  0  3  0  0  0  0  0  0
  1 16  1  0  0  0  0
  3 17  2  0  0  0  0
  4 20  1  0  0  0  0
  5 24  1  0  0  0  0
  5 27  1  0  0  0  0
  6 23  1  0  0  0  0
  6  1  1  0  0  0  0
  7  8  2  0  0  0  0
  8  2  2  0  0  0  0
  8 14  1  0  0  0  0
  9 14  1  0  0  0  0
  9 18  1  0  0  0  0
 10 26  1  0  0  0  0
 10  8  1  1  0  0  0
 12 28  1  0  0  0  0
 12 24  1  0  0  0  0
 13  9  2  0  0  0  0
 15 11  1  0  0  0  0
 15 19  1  0  0  0  0
 15 23  1  0  0  0  0
 16 28  1  0  0  0  0
 16 20  2  0  0  0  0
 17  5  1  0  0  0  0
 19 25  1  0  0  0  0
 21  1  2  0  0  0  0
 21 22  1  0  0  0  0
 22  4  2  0  0  0  0
 24 26  1  0  0  0  0
 25 17  1  0  0  0  0
 25 12  1  0  0  0  0
 26 13  1  0  0  0  0
 28 10  1  0  0  0  0
M  END
>  <MODEL>
8

>  <REMARK>
 VINA RESULT:      -5.1      2.424      4.996
  Name = 
  0 active torsions:
  status: ('A' for Active; 'I' for Inactive)
                            x       y       z     vdW  Elec       q    Type
                         _______ _______ _______ _____ _____    ______ ____

>  <TORSDO>
F 0

$$$$
=
 OpenBabel11122411513D

 28 32  0  0  1  0  0  0  0  0999 V2000
  181.9440  178.3920  135.4590 C   0  0  0  0  0  0  0  0  0  0  0  0
  181.2440  178.2130  140.4070 O   0  0  0  0  0  0  0  0  0  0  0  0
  187.3500  175.4220  137.1480 O   0  0  0  0  0  0  0  0  0  0  0  0
  180.4230  180.2690  136.8800 C   0  0  0  0  0  3  0  0  0  0  0  0
  186.8520  177.5900  137.9020 N   0  0  0  0  0  0  0  0  0  0  0  0
  182.7280  177.4650  134.5940 C   0  0  0  0  0  2  0  0  0  0  0  0
  182.6800  176.2040  140.2870 O   0  0  0  0  0  0  0  0  0  0  0  0
  182.6580  177.7050  140.3560 S   0  0  0  0  0  0  0  0  0  0  0  0
  184.7980  178.9780  141.5560 C   0  0  0  0  0  0  0  0  0  0  0  0
  183.5300  178.4170  138.9950 C   0  0  1  0  0  3  0  0  0  0  0  0
  183.9080  174.0190  135.3100 O   0  0  0  0  0  1  0  0  0  0  0  0
  184.6770  177.8170  136.9510 C   0  0  1  0  0  3  0  0  0  0  0  0
  185.4240  178.9930  140.4080 N   0  0  0  0  0  0  0  0  0  0  0  0
  183.5560  178.2650  141.7300 N   0  0  0  0  0  2  0  0  0  0  0  0
  183.9350  175.2970  134.7510 C   0  0  2  0  0  3  0  0  0  0  0  0
  182.2360  178.6230  136.8320 C   0  0  0  0  0  0  0  0  0  0  0  0
  186.5460  176.3880  137.2300 C   0  0  0  0  0  0  0  0  0  0  0  0
  185.3550  179.7510  142.6960 C   0  0  0  0  0  1  0  0  0  0  0  0
  185.1920  176.0440  135.2080 C   0  0  0  0  0  2  0  0  0  0  0  0
  181.4420  179.5640  137.5200 C   0  0  0  0  0  3  0  0  0  0  0  0
  180.9230  179.1110  134.8270 C   0  0  0  0  0  3  0  0  0  0  0  0
  180.1640  180.0440  135.5330 C   0  0  0  0  0  3  0  0  0  0  0  0
  182.6510  176.0370  135.1000 C   0  0  0  0  0  2  0  0  0  0  0  0
  185.6700  178.4250  137.9750 C   0  0  1  0  0  3  0  0  0  0  0  0
  185.1660  176.3690  136.6970 C   0  0  2  0  0  3  0  0  0  0  0  0
  184.9700  178.1790  139.2860 C   0  0  2  0  0  3  0  0  0  0  0  0
  188.0740  177.8310  138.6520 C   0  0  0  0  0  1  0  0  0  0  0  0
  183.2810  177.8170  137.6140 C   0  0  2  0  0  3  0  0  0  0  0  0
  1 16  1  0  0  0  0
  3 17  2  0  0  0  0
  4 20  1  0  0  0  0
  5 24  1  0  0  0  0
  5 27  1  0  0  0  0
  6 23  1  0  0  0  0
  6  1  1  0  0  0  0
  7  8  2  0  0  0  0
  8  2  2  0  0  0  0
  8 14  1  0  0  0  0
  9 14  1  0  0  0  0
  9 18  1  0  0  0  0
 10 26  1  0  0  0  0
 10  8  1  1  0  0  0
 12 28  1  0  0  0  0
 12 24  1  0  0  0  0
 13  9  2  0  0  0  0
 15 23  1  0  0  0  0
 15 19  1  0  0  0  0
 15 11  1  0  0  0  0
 16 20  2  0  0  0  0
 16 28  1  0  0  0  0
 17  5  1  0  0  0  0
 19 25  1  0  0  0  0
 21  1  2  0  0  0  0
 21 22  1  0  0  0  0
 22  4  2  0  0  0  0
 24 26  1  0  0  0  0
 25 12  1  0  0  0  0
 25 17  1  0  0  0  0
 26 13  1  0  0  0  0
 28 10  1  0  0  0  0
M  END
>  <MODEL>
9

>  <REMARK>
 VINA RESULT:      -5.0      2.748      5.444
  Name = 
  0 active torsions:
  status: ('A' for Active; 'I' for Inactive)
                            x       y       z     vdW  Elec       q    Type
                         _______ _______ _______ _____ _____    ______ ____

>  <TORSDO>
F 0

$$$$
