=
 OpenBabel11122411113D

 31 35  0  0  1  0  0  0  0  0999 V2000
  191.7310  176.5830  138.1570 C   0  0  0  0  0  0  0  0  0  0  0  0
  188.2420  176.9510  136.6920 C   0  0  2  0  0  3  0  0  0  0  0  0
  187.4400  175.6650  136.7040 C   0  0  0  0  0  0  0  0  0  0  0  0
  187.3220  173.2440  136.8710 C   0  0  0  0  0  0  0  0  0  0  0  0
  189.3870  176.9400  137.6640 C   0  0  0  0  0  0  0  0  0  0  0  0
  191.4990  176.9070  139.4980 C   0  0  0  0  0  3  0  0  0  0  0  0
  188.0680  174.4240  136.8950 C   0  0  0  0  0  3  0  0  0  0  0  0
  187.0250  178.4790  138.4460 C   0  0  1  0  0  3  0  0  0  0  0  0
  192.9790  176.2530  137.7460 F   0  0  0  0  0  0  0  0  0  0  0  0
  185.4070  176.9210  136.2090 O   0  0  0  0  0  0  0  0  0  0  0  0
  187.9940  171.9370  137.0890 C   0  0  0  0  0  1  0  0  0  0  0  0
  187.7700  177.5900  139.4560 C   0  0  0  0  0  2  0  0  0  0  0  0
  187.3470  178.1840  136.9460 C   0  0  2  0  0  3  0  0  0  0  0  0
  190.6760  176.5970  137.2400 C   0  0  0  0  0  3  0  0  0  0  0  0
  185.9440  173.2910  136.6430 C   0  0  0  0  0  3  0  0  0  0  0  0
  189.1580  177.2740  139.0060 C   0  0  0  0  0  0  0  0  0  0  0  0
  190.2120  177.2480  139.9240 C   0  0  0  0  0  3  0  0  0  0  0  0
  186.1270  178.1380  136.0220 C   0  0  0  0  0  2  0  0  0  0  0  0
  186.0550  175.7030  136.4400 C   0  0  0  0  0  0  0  0  0  0  0  0
  185.3130  174.5180  136.4250 C   0  0  0  0  0  3  0  0  0  0  0  0
  185.7290  179.5440  140.7730 O   0  0  0  0  0  0  0  0  0  0  0  0
  185.0110  178.9620  139.9180 C   0  0  0  0  0  0  0  0  0  0  0  0
  185.5940  178.4370  138.7230 N   0  0  0  0  0  2  0  0  0  0  0  0
  182.1620  177.2780  138.0630 C   0  0  1  0  0  3  0  0  0  0  0  0
  183.1350  177.3550  140.3730 C   0  0  0  0  0  2  0  0  0  0  0  0
  183.0760  180.8060  138.8680 O   0  0  0  0  0  1  0  0  0  0  0  0
  182.1400  176.5050  136.7620 C   0  0  0  0  0  1  0  0  0  0  0  0
  183.1020  176.5900  139.0480 C   0  0  0  0  0  2  0  0  0  0  0  0
  182.6560  179.4970  139.1070 C   0  0  2  0  0  3  0  0  0  0  0  0
  183.5380  178.8200  140.1710 C   0  0  2  0  0  3  0  0  0  0  0  0
  182.6280  178.7060  137.8000 C   0  0  0  0  0  2  0  0  0  0  0  0
  1  6  1  0  0  0  0
  2  3  1  1  0  0  0
  2 13  1  0  0  0  0
  2  5  1  0  0  0  0
  3  7  1  0  0  0  0
  4  7  2  0  0  0  0
  4 11  1  0  0  0  0
  5 16  2  0  0  0  0
  6 17  2  0  0  0  0
  8 23  1  6  0  0  0
  8 12  1  0  0  0  0
  9  1  1  0  0  0  0
 10 19  1  0  0  0  0
 13 18  1  6  0  0  0
 13  8  1  0  0  0  0
 14  5  1  0  0  0  0
 14  1  2  0  0  0  0
 15  4  1  0  0  0  0
 16 12  1  0  0  0  0
 16 17  1  0  0  0  0
 18 10  1  0  0  0  0
 19  3  2  0  0  0  0
 20 19  1  0  0  0  0
 20 15  2  0  0  0  0
 22 21  2  0  0  0  0
 23 22  1  0  0  0  0
 24 27  1  6  0  0  0
 24 28  1  0  0  0  0
 28 25  1  0  0  0  0
 29 26  1  6  0  0  0
 29 30  1  0  0  0  0
 30 22  1  6  0  0  0
 30 25  1  0  0  0  0
 31 24  1  0  0  0  0
 31 29  1  0  0  0  0
M  END
>  <MODEL>
1

>  <REMARK>
 VINA RESULT:      -6.4      0.000      0.000
  Name = 
  2 active torsions:
  status: ('A' for Active; 'I' for Inactive)
    1  A    between atoms: C_5  and  C_30
    2  A    between atoms: C_10  and  N_16
                            x       y       z     vdW  Elec       q    Type
                         _______ _______ _______ _____ _____    ______ ____

>  <TORSDO>
F 2

$$$$
=
 OpenBabel11122411113D

 31 35  0  0  1  0  0  0  0  0999 V2000
  181.6290  178.6860  143.5330 C   0  0  0  0  0  0  0  0  0  0  0  0
  181.8600  178.0080  139.7990 C   0  0  2  0  0  3  0  0  0  0  0  0
  181.4100  179.1740  138.9410 C   0  0  0  0  0  0  0  0  0  0  0  0
  180.2190  181.2750  138.6790 C   0  0  0  0  0  0  0  0  0  0  0  0
  182.2190  178.4120  141.2000 C   0  0  0  0  0  0  0  0  0  0  0  0
  182.9070  179.1910  143.7970 C   0  0  0  0  0  3  0  0  0  0  0  0
  180.6540  180.2230  139.4880 C   0  0  0  0  0  3  0  0  0  0  0  0
  184.4480  177.8700  139.3840 C   0  0  1  0  0  3  0  0  0  0  0  0
  180.7230  178.5760  144.5340 F   0  0  0  0  0  0  0  0  0  0  0  0
  182.4010  178.1180  136.9760 O   0  0  0  0  0  0  0  0  0  0  0  0
  179.4320  182.3880  139.2710 C   0  0  0  0  0  1  0  0  0  0  0  0
  184.4750  179.0690  140.3480 C   0  0  0  0  0  2  0  0  0  0  0  0
  183.0360  177.2430  139.1530 C   0  0  2  0  0  3  0  0  0  0  0  0
  181.2830  178.3000  142.2340 C   0  0  0  0  0  3  0  0  0  0  0  0
  180.5220  181.2810  137.3150 C   0  0  0  0  0  3  0  0  0  0  0  0
  183.5030  178.9070  141.4690 C   0  0  0  0  0  0  0  0  0  0  0  0
  183.8430  179.3050  142.7650 C   0  0  0  0  0  3  0  0  0  0  0  0
  182.7060  176.9230  137.6920 C   0  0  0  0  0  2  0  0  0  0  0  0
  181.6830  179.1690  137.5570 C   0  0  0  0  0  0  0  0  0  0  0  0
  181.2490  180.2290  136.7560 C   0  0  0  0  0  3  0  0  0  0  0  0
  187.2400  177.5710  138.7950 O   0  0  0  0  0  0  0  0  0  0  0  0
  186.5070  178.0880  137.9110 C   0  0  0  0  0  0  0  0  0  0  0  0
  185.1030  178.2370  138.1330 N   0  0  0  0  0  2  0  0  0  0  0  0
  189.1400  176.6650  135.5790 C   0  0  1  0  0  3  0  0  0  0  0  0
  186.8150  177.5980  135.4670 C   0  0  0  0  0  2  0  0  0  0  0  0
  188.9240  179.6360  137.8280 O   0  0  0  0  0  1  0  0  0  0  0  0
  189.9520  175.3900  135.6540 C   0  0  0  0  0  1  0  0  0  0  0  0
  187.6540  176.3210  135.5460 C   0  0  0  0  0  2  0  0  0  0  0  0
  188.6360  178.8300  136.7250 C   0  0  2  0  0  3  0  0  0  0  0  0
  187.1260  178.5530  136.6240 C   0  0  2  0  0  3  0  0  0  0  0  0
  189.4510  177.5400  136.7890 C   0  0  0  0  0  2  0  0  0  0  0  0
  1  6  1  0  0  0  0
  1  9  1  0  0  0  0
  2  3  1  6  0  0  0
  2  5  1  0  0  0  0
  3  7  1  0  0  0  0
  4 11  1  0  0  0  0
  4  7  2  0  0  0  0
  5 16  2  0  0  0  0
  5 14  1  0  0  0  0
  8 23  1  6  0  0  0
  8 12  1  0  0  0  0
 10 19  1  0  0  0  0
 10 18  1  0  0  0  0
 12 16  1  0  0  0  0
 13 18  1  6  0  0  0
 13  8  1  0  0  0  0
 13  2  1  0  0  0  0
 14  1  2  0  0  0  0
 15  4  1  0  0  0  0
 16 17  1  0  0  0  0
 17  6  2  0  0  0  0
 19  3  2  0  0  0  0
 20 15  2  0  0  0  0
 20 19  1  0  0  0  0
 22 23  1  0  0  0  0
 22 21  2  0  0  0  0
 24 27  1  1  0  0  0
 24 31  1  0  0  0  0
 25 28  1  0  0  0  0
 25 30  1  0  0  0  0
 28 24  1  0  0  0  0
 29 31  1  0  0  0  0
 29 26  1  1  0  0  0
 30 29  1  0  0  0  0
 30 22  1  1  0  0  0
M  END
>  <MODEL>
2

>  <REMARK>
 VINA RESULT:      -6.4      3.410      7.673
  Name = 
  2 active torsions:
  status: ('A' for Active; 'I' for Inactive)
    1  A    between atoms: C_5  and  C_30
    2  A    between atoms: C_10  and  N_16
                            x       y       z     vdW  Elec       q    Type
                         _______ _______ _______ _____ _____    ______ ____

>  <TORSDO>
F 2

$$$$
=
 OpenBabel11122411113D

 31 35  0  0  1  0  0  0  0  0999 V2000
  184.4780  172.5290  135.2970 C   0  0  0  0  0  0  0  0  0  0  0  0
  185.3740  176.1360  136.0980 C   0  0  2  0  0  3  0  0  0  0  0  0
  184.6840  176.6720  137.3370 C   0  0  0  0  0  0  0  0  0  0  0  0
  182.9250  176.5370  139.0080 C   0  0  0  0  0  0  0  0  0  0  0  0
  185.4090  174.6350  136.0470 C   0  0  0  0  0  0  0  0  0  0  0  0
  185.4840  171.8400  135.9820 C   0  0  0  0  0  3  0  0  0  0  0  0
  183.5710  176.0150  137.8860 C   0  0  0  0  0  3  0  0  0  0  0  0
  187.9010  175.9750  136.7920 C   0  0  1  0  0  3  0  0  0  0  0  0
  183.5390  171.8430  134.6030 F   0  0  0  0  0  0  0  0  0  0  0  0
  186.1960  178.5880  137.3570 O   0  0  0  0  0  0  0  0  0  0  0  0
  181.7570  175.8260  139.5890 C   0  0  0  0  0  1  0  0  0  0  0  0
  187.4230  174.7090  137.5240 C   0  0  0  0  0  2  0  0  0  0  0  0
  186.8030  176.7020  135.9500 C   0  0  2  0  0  3  0  0  0  0  0  0
  184.4380  173.9260  135.3310 C   0  0  0  0  0  3  0  0  0  0  0  0
  183.3770  177.7270  139.5850 C   0  0  0  0  0  3  0  0  0  0  0  0
  186.4220  173.9430  136.7240 C   0  0  0  0  0  0  0  0  0  0  0  0
  186.4540  172.5460  136.7000 C   0  0  0  0  0  3  0  0  0  0  0  0
  186.7760  178.2250  136.1050 C   0  0  0  0  0  2  0  0  0  0  0  0
  185.1130  177.8910  137.9040 C   0  0  0  0  0  0  0  0  0  0  0  0
  184.4660  178.4030  139.0320 C   0  0  0  0  0  3  0  0  0  0  0  0
  190.2640  175.3870  138.3080 O   0  0  0  0  0  0  0  0  0  0  0  0
  189.7160  176.5060  138.4890 C   0  0  0  0  0  0  0  0  0  0  0  0
  188.5530  176.8700  137.7410 N   0  0  0  0  0  2  0  0  0  0  0  0
  188.6030  177.7160  141.9080 C   0  0  1  0  0  3  0  0  0  0  0  0
  190.6350  176.7360  140.8150 C   0  0  0  0  0  2  0  0  0  0  0  0
  189.0500  179.2980  138.5560 O   0  0  0  0  0  1  0  0  0  0  0  0
  187.3690  177.3970  142.7240 C   0  0  0  0  0  1  0  0  0  0  0  0
  189.3810  176.4330  141.6370 C   0  0  0  0  0  2  0  0  0  0  0  0
  189.4260  178.6950  139.7580 C   0  0  2  0  0  3  0  0  0  0  0  0
  190.2940  177.4510  139.5030 C   0  0  2  0  0  3  0  0  0  0  0  0
  188.1890  178.3690  140.5920 C   0  0  0  0  0  2  0  0  0  0  0  0
  1 14  2  0  0  0  0
  1  6  1  0  0  0  0
  2  5  1  1  0  0  0
  2  3  1  0  0  0  0
  3  7  2  0  0  0  0
  3 19  1  0  0  0  0
  4 15  2  0  0  0  0
  4 11  1  0  0  0  0
  5 16  2  0  0  0  0
  6 17  2  0  0  0  0
  7  4  1  0  0  0  0
  8 12  1  0  0  0  0
  8 23  1  1  0  0  0
  9  1  1  0  0  0  0
 10 19  1  0  0  0  0
 13  2  1  0  0  0  0
 13 18  1  1  0  0  0
 13  8  1  0  0  0  0
 14  5  1  0  0  0  0
 16 12  1  0  0  0  0
 17 16  1  0  0  0  0
 18 10  1  0  0  0  0
 19 20  2  0  0  0  0
 20 15  1  0  0  0  0
 21 22  2  0  0  0  0
 23 22  1  0  0  0  0
 24 27  1  1  0  0  0
 25 28  1  0  0  0  0
 28 24  1  0  0  0  0
 29 26  1  6  0  0  0
 29 31  1  0  0  0  0
 30 22  1  6  0  0  0
 30 29  1  0  0  0  0
 30 25  1  0  0  0  0
 31 24  1  0  0  0  0
M  END
>  <MODEL>
3

>  <REMARK>
 VINA RESULT:      -6.2      2.788      6.032
  Name = 
  2 active torsions:
  status: ('A' for Active; 'I' for Inactive)
    1  A    between atoms: C_5  and  C_30
    2  A    between atoms: C_10  and  N_16
                            x       y       z     vdW  Elec       q    Type
                         _______ _______ _______ _____ _____    ______ ____

>  <TORSDO>
F 2

$$$$
=
 OpenBabel11122411113D

 31 35  0  0  1  0  0  0  0  0999 V2000
  179.8150  178.2780  142.3170 C   0  0  0  0  0  0  0  0  0  0  0  0
  183.0840  179.2060  140.6110 C   0  0  2  0  0  3  0  0  0  0  0  0
  184.3150  178.8210  141.4070 C   0  0  0  0  0  0  0  0  0  0  0  0
  185.3690  178.1790  143.5000 C   0  0  0  0  0  0  0  0  0  0  0  0
  181.8550  178.4460  141.0230 C   0  0  0  0  0  0  0  0  0  0  0  0
  179.5850  177.0030  141.7890 C   0  0  0  0  0  3  0  0  0  0  0  0
  184.2220  178.5010  142.7710 C   0  0  0  0  0  3  0  0  0  0  0  0
  183.1390  177.6030  138.5320 C   0  0  1  0  0  3  0  0  0  0  0  0
  178.9400  178.8130  143.2010 F   0  0  0  0  0  0  0  0  0  0  0  0
  185.7130  179.2130  139.4450 O   0  0  0  0  0  0  0  0  0  0  0  0
  185.2570  177.8280  144.9390 C   0  0  0  0  0  1  0  0  0  0  0  0
  182.6140  176.5750  139.5490 C   0  0  0  0  0  2  0  0  0  0  0  0
  183.3140  179.0510  139.0910 C   0  0  2  0  0  3  0  0  0  0  0  0
  180.9510  178.9990  141.9370 C   0  0  0  0  0  3  0  0  0  0  0  0
  186.6200  178.1880  142.8780 C   0  0  0  0  0  3  0  0  0  0  0  0
  181.6160  177.1730  140.4860 C   0  0  0  0  0  0  0  0  0  0  0  0
  180.4870  176.4490  140.8760 C   0  0  0  0  0  3  0  0  0  0  0  0
  184.6220  179.7410  138.6930 C   0  0  0  0  0  2  0  0  0  0  0  0
  185.5840  178.8610  140.7930 C   0  0  0  0  0  0  0  0  0  0  0  0
  186.7270  178.5310  141.5280 C   0  0  0  0  0  3  0  0  0  0  0  0
  183.6480  177.4160  135.7150 O   0  0  0  0  0  0  0  0  0  0  0  0
  184.5420  177.0020  136.5000 C   0  0  0  0  0  0  0  0  0  0  0  0
  184.3590  177.0960  137.9150 N   0  0  0  0  0  2  0  0  0  0  0  0
  188.2050  177.1330  137.4760 C   0  0  1  0  0  3  0  0  0  0  0  0
  186.4540  175.4280  136.9160 C   0  0  0  0  0  2  0  0  0  0  0  0
  186.1880  178.3800  134.5940 O   0  0  0  0  0  1  0  0  0  0  0  0
  188.9090  177.8480  138.6100 C   0  0  0  0  0  1  0  0  0  0  0  0
  187.1750  176.1640  138.0470 C   0  0  0  0  0  2  0  0  0  0  0  0
  186.8070  177.4460  135.4260 C   0  0  2  0  0  3  0  0  0  0  0  0
  185.7970  176.4040  135.9340 C   0  0  2  0  0  3  0  0  0  0  0  0
  187.5230  178.1560  136.5730 C   0  0  0  0  0  2  0  0  0  0  0  0
  1  9  1  0  0  0  0
  2  5  1  1  0  0  0
  2  3  1  0  0  0  0
  3  7  1  0  0  0  0
  4 11  1  0  0  0  0
  5 14  2  0  0  0  0
  6  1  2  0  0  0  0
  7  4  2  0  0  0  0
  8 23  1  1  0  0  0
  8 13  1  0  0  0  0
  8 12  1  0  0  0  0
 10 19  1  0  0  0  0
 12 16  1  0  0  0  0
 13 18  1  1  0  0  0
 13  2  1  0  0  0  0
 14  1  1  0  0  0  0
 15  4  1  0  0  0  0
 16 17  2  0  0  0  0
 16  5  1  0  0  0  0
 17  6  1  0  0  0  0
 18 10  1  0  0  0  0
 19  3  2  0  0  0  0
 19 20  1  0  0  0  0
 20 15  2  0  0  0  0
 21 22  2  0  0  0  0
 22 23  1  0  0  0  0
 24 28  1  0  0  0  0
 24 27  1  1  0  0  0
 25 28  1  0  0  0  0
 29 26  1  1  0  0  0
 29 30  1  0  0  0  0
 29 31  1  0  0  0  0
 30 22  1  1  0  0  0
 30 25  1  0  0  0  0
 31 24  1  0  0  0  0
M  END
>  <MODEL>
4

>  <REMARK>
 VINA RESULT:      -6.1      3.523      7.537
  Name = 
  2 active torsions:
  status: ('A' for Active; 'I' for Inactive)
    1  A    between atoms: C_5  and  C_30
    2  A    between atoms: C_10  and  N_16
                            x       y       z     vdW  Elec       q    Type
                         _______ _______ _______ _____ _____    ______ ____

>  <TORSDO>
F 2

$$$$
=
 OpenBabel11122411113D

 31 35  0  0  1  0  0  0  0  0999 V2000
  188.1660  177.4790  148.4420 C   0  0  0  0  0  0  0  0  0  0  0  0
  187.9960  176.7120  144.7220 C   0  0  2  0  0  3  0  0  0  0  0  0
  187.0300  177.6010  143.9620 C   0  0  0  0  0  0  0  0  0  0  0  0
  185.1540  179.1440  143.9240 C   0  0  0  0  0  0  0  0  0  0  0  0
  188.4190  177.2950  146.0400 C   0  0  0  0  0  0  0  0  0  0  0  0
  189.2120  178.4080  148.4810 C   0  0  0  0  0  3  0  0  0  0  0  0
  186.0580  178.3550  144.6380 C   0  0  0  0  0  3  0  0  0  0  0  0
  190.3620  177.4530  143.8590 C   0  0  1  0  0  3  0  0  0  0  0  0
  187.5360  177.1200  149.5860 F   0  0  0  0  0  0  0  0  0  0  0  0
  187.9870  176.8430  141.8490 O   0  0  0  0  0  0  0  0  0  0  0  0
  184.1380  179.9490  144.6500 C   0  0  0  0  0  1  0  0  0  0  0  0
  190.1270  178.6400  144.8090 C   0  0  0  0  0  2  0  0  0  0  0  0
  189.2400  176.3650  143.8750 C   0  0  2  0  0  3  0  0  0  0  0  0
  187.7670  176.9250  147.2220 C   0  0  0  0  0  3  0  0  0  0  0  0
  185.2040  179.1770  142.5280 C   0  0  0  0  0  3  0  0  0  0  0  0
  189.4730  178.2160  146.0830 C   0  0  0  0  0  0  0  0  0  0  0  0
  189.8630  178.7800  147.3010 C   0  0  0  0  0  3  0  0  0  0  0  0
  188.8050  175.8680  142.4940 C   0  0  0  0  0  2  0  0  0  0  0  0
  187.0540  177.6120  142.5520 C   0  0  0  0  0  0  0  0  0  0  0  0
  186.1500  178.4110  141.8440 C   0  0  0  0  0  3  0  0  0  0  0  0
  192.1370  176.2630  141.9440 O   0  0  0  0  0  0  0  0  0  0  0  0
  191.5480  177.3270  141.6150 C   0  0  0  0  0  0  0  0  0  0  0  0
  190.6290  177.9520  142.5140 N   0  0  0  0  0  2  0  0  0  0  0  0
  191.4530  176.0250  138.0530 C   0  0  1  0  0  3  0  0  0  0  0  0
  190.5780  177.9600  139.3870 C   0  0  0  0  0  2  0  0  0  0  0  0
  194.1330  177.2020  140.3700 O   0  0  0  0  0  1  0  0  0  0  0  0
  191.1150  174.6560  137.5020 C   0  0  0  0  0  1  0  0  0  0  0  0
  190.2570  176.5740  138.8240 C   0  0  0  0  0  2  0  0  0  0  0  0
  193.0180  177.2940  139.5350 C   0  0  2  0  0  3  0  0  0  0  0  0
  191.8290  177.9360  140.2710 C   0  0  2  0  0  3  0  0  0  0  0  0
  192.6670  175.9190  138.9710 C   0  0  0  0  0  2  0  0  0  0  0  0
  1  6  1  0  0  0  0
  1  9  1  0  0  0  0
  2  3  1  6  0  0  0
  2  5  1  0  0  0  0
  3  7  1  0  0  0  0
  4  7  2  0  0  0  0
  4 11  1  0  0  0  0
  5 16  2  0  0  0  0
  5 14  1  0  0  0  0
  8 23  1  6  0  0  0
  8 13  1  0  0  0  0
  8 12  1  0  0  0  0
 10 18  1  0  0  0  0
 10 19  1  0  0  0  0
 12 16  1  0  0  0  0
 13 18  1  6  0  0  0
 13  2  1  0  0  0  0
 14  1  2  0  0  0  0
 15  4  1  0  0  0  0
 16 17  1  0  0  0  0
 17  6  2  0  0  0  0
 19  3  2  0  0  0  0
 20 15  2  0  0  0  0
 20 19  1  0  0  0  0
 22 21  2  0  0  0  0
 22 23  1  0  0  0  0
 24 27  1  1  0  0  0
 24 28  1  0  0  0  0
 24 31  1  0  0  0  0
 25 30  1  0  0  0  0
 28 25  1  0  0  0  0
 29 30  1  0  0  0  0
 29 26  1  1  0  0  0
 30 22  1  1  0  0  0
 31 29  1  0  0  0  0
M  END
>  <MODEL>
5

>  <REMARK>
 VINA RESULT:      -5.7      5.454      8.659
  Name = 
  2 active torsions:
  status: ('A' for Active; 'I' for Inactive)
    1  A    between atoms: C_5  and  C_30
    2  A    between atoms: C_10  and  N_16
                            x       y       z     vdW  Elec       q    Type
                         _______ _______ _______ _____ _____    ______ ____

>  <TORSDO>
F 2

$$$$
=
 OpenBabel11122411113D

 31 35  0  0  1  0  0  0  0  0999 V2000
  181.6160  172.5180  136.5010 C   0  0  0  0  0  0  0  0  0  0  0  0
  183.9580  175.4560  135.9180 C   0  0  2  0  0  3  0  0  0  0  0  0
  184.0260  176.4190  137.0860 C   0  0  0  0  0  0  0  0  0  0  0  0
  183.1060  177.3160  139.1490 C   0  0  0  0  0  0  0  0  0  0  0  0
  183.4400  174.0990  136.3030 C   0  0  0  0  0  0  0  0  0  0  0  0
  182.4940  171.5740  137.0460 C   0  0  0  0  0  3  0  0  0  0  0  0
  183.0500  176.4010  138.0950 C   0  0  0  0  0  3  0  0  0  0  0  0
  186.3270  174.3240  135.8840 C   0  0  1  0  0  3  0  0  0  0  0  0
  180.3080  172.2100  136.3350 F   0  0  0  0  0  0  0  0  0  0  0  0
  186.0030  177.4690  136.1130 O   0  0  0  0  0  0  0  0  0  0  0  0
  182.0760  177.2790  140.2180 C   0  0  0  0  0  1  0  0  0  0  0  0
  185.7490  173.5180  137.0610 C   0  0  0  0  0  2  0  0  0  0  0  0
  185.3250  175.3160  135.2120 C   0  0  2  0  0  3  0  0  0  0  0  0
  182.0880  173.7820  136.1320 C   0  0  0  0  0  3  0  0  0  0  0  0
  184.1310  178.2650  139.1980 C   0  0  0  0  0  3  0  0  0  0  0  0
  184.3200  173.1490  136.8380 C   0  0  0  0  0  0  0  0  0  0  0  0
  183.8450  171.8910  137.2180 C   0  0  0  0  0  3  0  0  0  0  0  0
  185.8980  176.7050  134.9130 C   0  0  0  0  0  2  0  0  0  0  0  0
  185.0380  177.4020  137.1240 C   0  0  0  0  0  0  0  0  0  0  0  0
  185.0920  178.3090  138.1860 C   0  0  0  0  0  3  0  0  0  0  0  0
  188.9270  173.1150  135.9840 O   0  0  0  0  0  0  0  0  0  0  0  0
  188.8230  174.3140  136.3580 C   0  0  0  0  0  0  0  0  0  0  0  0
  187.5600  174.9800  136.3040 N   0  0  0  0  0  2  0  0  0  0  0  0
  189.5760  177.9190  137.2680 C   0  0  1  0  0  3  0  0  0  0  0  0
  189.8050  175.6270  138.2600 C   0  0  0  0  0  2  0  0  0  0  0  0
  190.7280  175.5640  134.6100 O   0  0  0  0  0  1  0  0  0  0  0  0
  188.7110  179.1600  137.2210 C   0  0  0  0  0  1  0  0  0  0  0  0
  188.9420  176.8890  138.1970 C   0  0  0  0  0  2  0  0  0  0  0  0
  190.5900  176.0890  135.8960 C   0  0  2  0  0  3  0  0  0  0  0  0
  190.0400  175.0310  136.8680 C   0  0  2  0  0  3  0  0  0  0  0  0
  189.7190  177.3430  135.8620 C   0  0  0  0  0  2  0  0  0  0  0  0
  1  6  1  0  0  0  0
  2  5  1  1  0  0  0
  2  3  1  0  0  0  0
  3 19  2  0  0  0  0
  3  7  1  0  0  0  0
  4 15  1  0  0  0  0
  4 11  1  0  0  0  0
  5 16  2  0  0  0  0
  6 17  2  0  0  0  0
  7  4  2  0  0  0  0
  8 23  1  1  0  0  0
  8 12  1  0  0  0  0
  9  1  1  0  0  0  0
 10 19  1  0  0  0  0
 13 18  1  1  0  0  0
 13  8  1  0  0  0  0
 13  2  1  0  0  0  0
 14  5  1  0  0  0  0
 14  1  2  0  0  0  0
 16 12  1  0  0  0  0
 16 17  1  0  0  0  0
 18 10  1  0  0  0  0
 19 20  1  0  0  0  0
 20 15  2  0  0  0  0
 21 22  2  0  0  0  0
 23 22  1  0  0  0  0
 24 27  1  6  0  0  0
 24 28  1  0  0  0  0
 28 25  1  0  0  0  0
 29 26  1  6  0  0  0
 29 30  1  0  0  0  0
 30 22  1  6  0  0  0
 30 25  1  0  0  0  0
 31 29  1  0  0  0  0
 31 24  1  0  0  0  0
M  END
>  <MODEL>
6

>  <REMARK>
 VINA RESULT:      -5.6      3.375      7.229
  Name = 
  2 active torsions:
  status: ('A' for Active; 'I' for Inactive)
    1  A    between atoms: C_5  and  C_30
    2  A    between atoms: C_10  and  N_16
                            x       y       z     vdW  Elec       q    Type
                         _______ _______ _______ _____ _____    ______ ____

>  <TORSDO>
F 2

$$$$
=
 OpenBabel11122411113D

 31 35  0  0  1  0  0  0  0  0999 V2000
  179.7020  178.6420  142.9350 C   0  0  0  0  0  0  0  0  0  0  0  0
  182.7240  179.4640  140.7790 C   0  0  2  0  0  3  0  0  0  0  0  0
  184.0390  179.0030  141.3750 C   0  0  0  0  0  0  0  0  0  0  0  0
  185.3580  178.2610  143.2760 C   0  0  0  0  0  0  0  0  0  0  0  0
  181.5340  178.7500  141.3550 C   0  0  0  0  0  0  0  0  0  0  0  0
  179.3340  177.3930  142.4230 C   0  0  0  0  0  3  0  0  0  0  0  0
  184.1330  178.6530  142.7320 C   0  0  0  0  0  3  0  0  0  0  0  0
  182.3930  177.9140  138.6860 C   0  0  1  0  0  3  0  0  0  0  0  0
  178.9940  179.1940  143.9490 F   0  0  0  0  0  0  0  0  0  0  0  0
  185.1490  179.3810  139.2350 O   0  0  0  0  0  0  0  0  0  0  0  0
  185.4430  177.8780  144.7090 C   0  0  0  0  0  1  0  0  0  0  0  0
  181.9750  176.8850  139.7500 C   0  0  0  0  0  2  0  0  0  0  0  0
  182.7200  179.3380  139.2390 C   0  0  2  0  0  3  0  0  0  0  0  0
  180.8030  179.3200  142.4030 C   0  0  0  0  0  3  0  0  0  0  0  0
  186.5020  178.2290  142.4750 C   0  0  0  0  0  3  0  0  0  0  0  0
  181.1570  177.5040  140.8360 C   0  0  0  0  0  0  0  0  0  0  0  0
  180.0640  176.8220  141.3760 C   0  0  0  0  0  3  0  0  0  0  0  0
  183.9860  179.9780  138.6640 C   0  0  0  0  0  2  0  0  0  0  0  0
  185.2040  179.0010  140.5810 C   0  0  0  0  0  0  0  0  0  0  0  0
  186.4250  178.6010  141.1310 C   0  0  0  0  0  3  0  0  0  0  0  0
  182.3520  177.5020  135.8470 O   0  0  0  0  0  0  0  0  0  0  0  0
  183.3910  177.1610  136.4730 C   0  0  0  0  0  0  0  0  0  0  0  0
  183.4830  177.3690  137.8840 N   0  0  0  0  0  2  0  0  0  0  0  0
  184.7630  173.6320  136.2400 C   0  0  1  0  0  3  0  0  0  0  0  0
  184.0290  175.4840  134.7170 C   0  0  0  0  0  2  0  0  0  0  0  0
  186.0180  176.8770  137.5940 O   0  0  0  0  0  1  0  0  0  0  0  0
  184.3300  172.3490  136.9150 C   0  0  0  0  0  1  0  0  0  0  0  0
  183.6100  174.1860  135.4110 C   0  0  0  0  0  2  0  0  0  0  0  0
  185.6240  175.9490  136.6290 C   0  0  2  0  0  3  0  0  0  0  0  0
  184.5260  176.5290  135.7220 C   0  0  2  0  0  3  0  0  0  0  0  0
  185.1860  174.6470  137.2980 C   0  0  0  0  0  2  0  0  0  0  0  0
  1  9  1  0  0  0  0
  2  5  1  1  0  0  0
  2  3  1  0  0  0  0
  3  7  1  0  0  0  0
  4 11  1  0  0  0  0
  5 14  1  0  0  0  0
  6  1  1  0  0  0  0
  7  4  2  0  0  0  0
  8 23  1  1  0  0  0
  8 13  1  0  0  0  0
  8 12  1  0  0  0  0
 10 19  1  0  0  0  0
 12 16  1  0  0  0  0
 13 18  1  1  0  0  0
 13  2  1  0  0  0  0
 14  1  2  0  0  0  0
 15  4  1  0  0  0  0
 16  5  2  0  0  0  0
 16 17  1  0  0  0  0
 17  6  2  0  0  0  0
 18 10  1  0  0  0  0
 19 20  1  0  0  0  0
 19  3  2  0  0  0  0
 20 15  2  0  0  0  0
 21 22  2  0  0  0  0
 22 23  1  0  0  0  0
 24 27  1  1  0  0  0
 24 31  1  0  0  0  0
 25 28  1  0  0  0  0
 25 30  1  0  0  0  0
 28 24  1  0  0  0  0
 29 31  1  0  0  0  0
 29 26  1  1  0  0  0
 30 22  1  1  0  0  0
 30 29  1  0  0  0  0
M  END
>  <MODEL>
7

>  <REMARK>
 VINA RESULT:      -5.6      3.956      7.617
  Name = 
  2 active torsions:
  status: ('A' for Active; 'I' for Inactive)
    1  A    between atoms: C_5  and  C_30
    2  A    between atoms: C_10  and  N_16
                            x       y       z     vdW  Elec       q    Type
                         _______ _______ _______ _____ _____    ______ ____

>  <TORSDO>
F 2

$$$$
=
 OpenBabel11122411113D

 31 35  0  0  1  0  0  0  0  0999 V2000
  180.9050  179.0060  143.0930 C   0  0  0  0  0  0  0  0  0  0  0  0
  180.7320  177.8210  139.4850 C   0  0  2  0  0  3  0  0  0  0  0  0
  180.7320  178.9510  138.4740 C   0  0  0  0  0  0  0  0  0  0  0  0
  180.4250  181.2970  137.9190 C   0  0  0  0  0  0  0  0  0  0  0  0
  181.2660  178.2330  140.8270 C   0  0  0  0  0  0  0  0  0  0  0  0
  182.2870  179.0120  143.3120 C   0  0  0  0  0  3  0  0  0  0  0  0
  180.4530  180.2710  138.8650 C   0  0  0  0  0  3  0  0  0  0  0  0
  183.0560  176.6520  139.1360 C   0  0  1  0  0  3  0  0  0  0  0  0
  180.0610  179.3790  144.0850 F   0  0  0  0  0  0  0  0  0  0  0  0
  181.1770  177.3560  136.6820 O   0  0  0  0  0  0  0  0  0  0  0  0
  180.1440  182.6920  138.3460 C   0  0  0  0  0  1  0  0  0  0  0  0
  183.5710  177.8610  139.9350 C   0  0  0  0  0  2  0  0  0  0  0  0
  181.5040  176.5890  138.9640 C   0  0  2  0  0  3  0  0  0  0  0  0
  180.3940  178.6190  141.8510 C   0  0  0  0  0  3  0  0  0  0  0  0
  180.6600  181.0130  136.5710 C   0  0  0  0  0  3  0  0  0  0  0  0
  182.6500  178.2280  141.0510 C   0  0  0  0  0  0  0  0  0  0  0  0
  183.1600  178.6270  142.2890 C   0  0  0  0  0  3  0  0  0  0  0  0
  181.0260  176.2370  137.5530 C   0  0  0  0  0  2  0  0  0  0  0  0
  180.9340  178.6660  137.1070 C   0  0  0  0  0  0  0  0  0  0  0  0
  180.9120  179.7000  136.1670 C   0  0  0  0  0  3  0  0  0  0  0  0
  184.1800  174.2850  137.9680 O   0  0  0  0  0  0  0  0  0  0  0  0
  184.3210  175.3690  137.3440 C   0  0  0  0  0  0  0  0  0  0  0  0
  183.7570  176.5780  137.8600 N   0  0  0  0  0  2  0  0  0  0  0  0
  187.1640  173.2780  135.9510 C   0  0  1  0  0  3  0  0  0  0  0  0
  184.8910  174.0830  135.2630 C   0  0  0  0  0  2  0  0  0  0  0  0
  186.7690  176.8330  137.0200 O   0  0  0  0  0  1  0  0  0  0  0  0
  187.9300  172.1170  136.5460 C   0  0  0  0  0  1  0  0  0  0  0  0
  185.6830  172.9220  135.8660 C   0  0  0  0  0  2  0  0  0  0  0  0
  186.5870  175.6960  136.2300 C   0  0  2  0  0  3  0  0  0  0  0  0
  185.0930  175.3790  136.0560 C   0  0  2  0  0  3  0  0  0  0  0  0
  187.3580  174.5170  136.8200 C   0  0  0  0  0  2  0  0  0  0  0  0
  1  6  1  0  0  0  0
  1  9  1  0  0  0  0
  2  3  1  6  0  0  0
  2  5  1  0  0  0  0
  3  7  1  0  0  0  0
  4 11  1  0  0  0  0
  4  7  2  0  0  0  0
  5 16  2  0  0  0  0
  5 14  1  0  0  0  0
  8 23  1  6  0  0  0
  8 12  1  0  0  0  0
 10 19  1  0  0  0  0
 10 18  1  0  0  0  0
 12 16  1  0  0  0  0
 13 18  1  6  0  0  0
 13  8  1  0  0  0  0
 13  2  1  0  0  0  0
 14  1  2  0  0  0  0
 15  4  1  0  0  0  0
 16 17  1  0  0  0  0
 17  6  2  0  0  0  0
 19  3  2  0  0  0  0
 20 15  2  0  0  0  0
 20 19  1  0  0  0  0
 22 23  1  0  0  0  0
 22 21  2  0  0  0  0
 24 27  1  1  0  0  0
 24 31  1  0  0  0  0
 25 28  1  0  0  0  0
 25 30  1  0  0  0  0
 28 24  1  0  0  0  0
 29 31  1  0  0  0  0
 29 26  1  1  0  0  0
 30 29  1  0  0  0  0
 30 22  1  1  0  0  0
M  END
>  <MODEL>
8

>  <REMARK>
 VINA RESULT:      -5.5      3.848      7.969
  Name = 
  2 active torsions:
  status: ('A' for Active; 'I' for Inactive)
    1  A    between atoms: C_5  and  C_30
    2  A    between atoms: C_10  and  N_16
                            x       y       z     vdW  Elec       q    Type
                         _______ _______ _______ _____ _____    ______ ____

>  <TORSDO>
F 2

$$$$
=
 OpenBabel11122411113D

 31 35  0  0  1  0  0  0  0  0999 V2000
  180.9030  178.9980  143.0960 C   0  0  0  0  0  0  0  0  0  0  0  0
  180.7270  177.8060  139.4890 C   0  0  2  0  0  3  0  0  0  0  0  0
  180.7200  178.9340  138.4770 C   0  0  0  0  0  0  0  0  0  0  0  0
  180.4020  181.2770  137.9180 C   0  0  0  0  0  0  0  0  0  0  0  0
  181.2630  178.2220  140.8300 C   0  0  0  0  0  0  0  0  0  0  0  0
  182.2850  179.0110  143.3110 C   0  0  0  0  0  3  0  0  0  0  0  0
  180.4370  180.2530  138.8660 C   0  0  0  0  0  3  0  0  0  0  0  0
  183.0560  176.6460  139.1380 C   0  0  1  0  0  3  0  0  0  0  0  0
  180.0590  179.3690  144.0880 F   0  0  0  0  0  0  0  0  0  0  0  0
  181.1690  177.3370  136.6860 O   0  0  0  0  0  0  0  0  0  0  0  0
  180.1150  182.6720  138.3440 C   0  0  0  0  0  1  0  0  0  0  0  0
  183.5670  177.8590  139.9340 C   0  0  0  0  0  2  0  0  0  0  0  0
  181.5040  176.5770  138.9700 C   0  0  2  0  0  3  0  0  0  0  0  0
  180.3910  178.6070  141.8550 C   0  0  0  0  0  3  0  0  0  0  0  0
  180.6360  180.9920  136.5700 C   0  0  0  0  0  3  0  0  0  0  0  0
  182.6470  178.2240  141.0510 C   0  0  0  0  0  0  0  0  0  0  0  0
  183.1580  178.6280  142.2870 C   0  0  0  0  0  3  0  0  0  0  0  0
  181.0250  176.2190  137.5600 C   0  0  0  0  0  2  0  0  0  0  0  0
  180.9210  178.6480  137.1100 C   0  0  0  0  0  0  0  0  0  0  0  0
  180.8920  179.6800  136.1680 C   0  0  0  0  0  3  0  0  0  0  0  0
  184.1800  174.2800  137.9690 O   0  0  0  0  0  0  0  0  0  0  0  0
  184.3190  175.3650  137.3430 C   0  0  0  0  0  0  0  0  0  0  0  0
  183.7550  176.5720  137.8600 N   0  0  0  0  0  2  0  0  0  0  0  0
  187.6710  176.7870  136.2800 C   0  0  1  0  0  3  0  0  0  0  0  0
  186.4150  174.6190  136.1790 C   0  0  0  0  0  2  0  0  0  0  0  0
  184.1060  177.4980  135.4340 O   0  0  0  0  0  1  0  0  0  0  0  0
  188.7100  177.5730  137.0520 C   0  0  0  0  0  1  0  0  0  0  0  0
  187.4600  175.4310  136.9470 C   0  0  0  0  0  2  0  0  0  0  0  0
  185.3040  176.7830  135.4720 C   0  0  2  0  0  3  0  0  0  0  0  0
  185.0880  175.3760  136.0540 C   0  0  2  0  0  3  0  0  0  0  0  0
  186.3610  177.5670  136.2470 C   0  0  0  0  0  2  0  0  0  0  0  0
  1  6  1  0  0  0  0
  1  9  1  0  0  0  0
  2  3  1  6  0  0  0
  2  5  1  0  0  0  0
  3  7  1  0  0  0  0
  4 11  1  0  0  0  0
  4  7  2  0  0  0  0
  5 16  2  0  0  0  0
  5 14  1  0  0  0  0
  8 23  1  6  0  0  0
  8 12  1  0  0  0  0
 10 19  1  0  0  0  0
 10 18  1  0  0  0  0
 12 16  1  0  0  0  0
 13 18  1  6  0  0  0
 13  8  1  0  0  0  0
 13  2  1  0  0  0  0
 14  1  2  0  0  0  0
 15  4  1  0  0  0  0
 16 17  1  0  0  0  0
 17  6  2  0  0  0  0
 19  3  2  0  0  0  0
 20 15  2  0  0  0  0
 20 19  1  0  0  0  0
 22 23  1  0  0  0  0
 22 21  2  0  0  0  0
 24 28  1  0  0  0  0
 24 27  1  1  0  0  0
 25 28  1  0  0  0  0
 29 26  1  1  0  0  0
 29 30  1  0  0  0  0
 29 31  1  0  0  0  0
 30 25  1  0  0  0  0
 30 22  1  1  0  0  0
 31 24  1  0  0  0  0
M  END
>  <MODEL>
9

>  <REMARK>
 VINA RESULT:      -5.4      3.504      7.822
  Name = 
  2 active torsions:
  status: ('A' for Active; 'I' for Inactive)
    1  A    between atoms: C_5  and  C_30
    2  A    between atoms: C_10  and  N_16
                            x       y       z     vdW  Elec       q    Type
                         _______ _______ _______ _____ _____    ______ ____

>  <TORSDO>
F 2

$$$$
