=
 OpenBabel11122410513D

 32 36  0  0  1  0  0  0  0  0999 V2000
  185.3210  178.5880  140.6860 C   0  0  1  0  0  3  0  0  0  0  0  0
  184.3280  178.5060  145.5000 C   0  0  0  0  0  3  0  0  0  0  0  0
  185.5390  177.8510  145.7260 C   0  0  0  0  0  3  0  0  0  0  0  0
  187.6890  178.0920  139.8130 C   0  0  2  0  0  3  0  0  0  0  0  0
  189.1830  178.1520  140.1640 C   0  0  2  0  0  3  0  0  0  0  0  0
  183.4950  178.9190  139.2010 C   0  0  2  0  0  3  0  0  0  0  0  0
  183.1980  179.5550  141.5810 O   0  0  0  0  0  0  0  0  0  0  0  0
  190.1300  176.4600  141.4320 C   0  0  0  0  0  0  0  0  0  0  0  0
  184.0140  178.9730  144.2230 C   0  0  0  0  0  3  0  0  0  0  0  0
  184.5920  179.3430  141.8000 C   0  0  1  0  0  3  0  0  0  0  0  0
  184.9060  178.7810  143.1580 C   0  0  0  0  0  0  0  0  0  0  0  0
  187.1140  177.8720  142.2520 C   0  0  2  0  0  3  0  0  0  0  0  0
  190.4970  176.1290  140.1130 N   0  0  0  0  0  0  0  0  0  0  0  0
  182.6780  178.7750  140.5120 C   0  0  2  0  0  3  0  0  0  0  0  0
  189.9720  177.1860  139.2520 C   0  0  0  0  0  3  0  0  0  0  0  0
  186.4450  177.6740  144.6780 C   0  0  0  0  0  3  0  0  0  0  0  0
  186.1560  178.1620  143.3940 C   0  0  0  0  0  0  0  0  0  0  0  0
  188.5740  178.0590  142.6470 C   0  0  0  0  0  2  0  0  0  0  0  0
  184.9220  179.1920  139.4250 N   0  0  0  0  0  2  0  0  0  0  0  0
  187.4860  178.8110  138.6330 O   0  0  0  0  0  1  0  0  0  0  0  0
  190.4020  175.7360  142.4250 O   0  0  0  0  0  0  0  0  0  0  0  0
  186.8250  178.6640  140.9560 C   0  0  2  0  0  3  0  0  0  0  0  0
  189.4070  177.6650  141.5210 N   0  0  0  0  0  0  0  0  0  0  0  0
  181.0120  177.0370  141.1840 C   0  0  0  0  0  1  0  0  0  0  0  0
  182.4850  177.3120  140.9290 C   0  0  1  0  0  3  0  0  0  0  0  0
  182.9500  176.4510  139.9320 O   0  0  0  0  0  0  0  0  0  0  0  0
  181.8120  175.7810  139.4750 C   0  0  0  0  0  2  0  0  0  0  0  0
  182.1080  175.0990  138.1850 C   0  0  0  0  0  0  0  0  0  0  0  0
  181.1790  174.8590  137.3700 O   0  0  0  0  0  0  0  0  0  0  0  0
  183.4140  174.7560  137.8660 O   0  0  0  0  0  1  0  0  0  0  0  0
  183.3810  181.2580  138.7530 O   0  0  0  0  0  1  0  0  0  0  0  0
  182.8930  180.0170  138.3450 C   0  0  0  0  0  2  0  0  0  0  0  0
  1 19  1  6  0  0  0
  1 22  1  0  0  0  0
  1 10  1  0  0  0  0
  2  3  1  0  0  0  0
  4 20  1  6  0  0  0
  4  5  1  0  0  0  0
  4 22  1  0  0  0  0
  5 15  1  6  0  0  0
  5 23  1  0  0  0  0
  6 32  1  6  0  0  0
  6 19  1  0  0  0  0
  6 14  1  0  0  0  0
  8 23  1  0  0  0  0
  8 21  2  0  0  0  0
  9  2  2  0  0  0  0
 10  7  1  6  0  0  0
 10 11  1  0  0  0  0
 11 17  2  0  0  0  0
 11  9  1  0  0  0  0
 12 18  1  1  0  0  0
 12 17  1  0  0  0  0
 13  8  1  0  0  0  0
 14 25  1  1  0  0  0
 14  7  1  0  0  0  0
 15 13  2  0  0  0  0
 16  3  2  0  0  0  0
 17 16  1  0  0  0  0
 22 12  1  0  0  0  0
 23 18  1  0  0  0  0
 25 24  1  0  0  0  0
 26 25  1  0  0  0  0
 27 26  1  0  0  0  0
 28 27  1  0  0  0  0
 29 28  2  0  0  0  0
 30 28  1  0  0  0  0
 32 31  1  0  0  0  0
M  END
>  <MODEL>
1

>  <REMARK>
 VINA RESULT:      -7.0      0.000      0.000
  Name = 
  5 active torsions:
  status: ('A' for Active; 'I' for Inactive)
    1  A    between atoms: CA_7  and  C_19
    2  A    between atoms: C_10  and  C_17
    3  A    between atoms: C_10  and  O_20
    4  A    between atoms: O_20  and  C_29
    5  A    between atoms: C_29  and  C_30
                            x       y       z     vdW  Elec       q    Type
                         _______ _______ _______ _____ _____    ______ ____

>  <TORSDO>
F 5

$$$$
=
 OpenBabel11122410513D

 32 36  0  0  1  0  0  0  0  0999 V2000
  190.4400  176.8670  139.1320 C   0  0  1  0  0  3  0  0  0  0  0  0
  186.4080  178.1840  136.6450 C   0  0  0  0  0  3  0  0  0  0  0  0
  185.7060  178.2610  137.8490 C   0  0  0  0  0  3  0  0  0  0  0  0
  190.5790  177.1630  141.6830 C   0  0  2  0  0  3  0  0  0  0  0  0
  190.0680  177.9940  142.8690 C   0  0  2  0  0  3  0  0  0  0  0  0
  192.1680  175.7830  137.9120 C   0  0  2  0  0  3  0  0  0  0  0  0
  190.4690  177.0710  136.6410 O   0  0  0  0  0  0  0  0  0  0  0  0
  188.0110  177.5010  143.8120 C   0  0  0  0  0  0  0  0  0  0  0  0
  187.7830  177.9470  136.6530 C   0  0  0  0  0  3  0  0  0  0  0  0
  189.9580  177.5870  137.8700 C   0  0  1  0  0  3  0  0  0  0  0  0
  188.4670  177.7760  137.8650 C   0  0  0  0  0  0  0  0  0  0  0  0
  188.4610  177.6520  140.4160 C   0  0  2  0  0  3  0  0  0  0  0  0
  188.9300  176.8930  144.6890 N   0  0  0  0  0  0  0  0  0  0  0  0
  191.0970  175.8050  136.7890 C   0  0  2  0  0  3  0  0  0  0  0  0
  190.2640  177.2040  144.1820 C   0  0  0  0  0  3  0  0  0  0  0  0
  186.3810  178.1140  139.0630 C   0  0  0  0  0  3  0  0  0  0  0  0
  187.7680  177.9040  139.0880 C   0  0  0  0  0  0  0  0  0  0  0  0
  187.9800  178.5890  141.5170 C   0  0  0  0  0  2  0  0  0  0  0  0
  191.8800  176.7120  139.0140 N   0  0  0  0  0  2  0  0  0  0  0  0
  191.9740  177.2170  141.6760 O   0  0  0  0  0  1  0  0  0  0  0  0
  186.7630  177.4020  143.9450 O   0  0  0  0  0  0  0  0  0  0  0  0
  190.0050  177.6860  140.3490 C   0  0  2  0  0  3  0  0  0  0  0  0
  188.6290  178.2050  142.7610 N   0  0  0  0  0  0  0  0  0  0  0  0
  189.1670  174.6390  135.7120 C   0  0  0  0  0  1  0  0  0  0  0  0
  190.0640  174.6820  136.9370 C   0  0  1  0  0  3  0  0  0  0  0  0
  190.6990  173.4460  137.0890 O   0  0  0  0  0  0  0  0  0  0  0  0
  190.9630  173.0150  135.7860 C   0  0  0  0  0  2  0  0  0  0  0  0
  192.2890  172.3400  135.7340 C   0  0  0  0  0  0  0  0  0  0  0  0
  193.2260  172.7330  136.4770 O   0  0  0  0  0  1  0  0  0  0  0  0
  192.4830  171.2570  134.8890 O   0  0  0  0  0  0  0  0  0  0  0  0
  194.5320  175.5890  138.1490 O   0  0  0  0  0  1  0  0  0  0  0  0
  193.5290  176.0960  137.3220 C   0  0  0  0  0  2  0  0  0  0  0  0
  1 19  1  6  0  0  0
  1 22  1  0  0  0  0
  2  9  2  0  0  0  0
  2  3  1  0  0  0  0
  3 16  2  0  0  0  0
  4 20  1  6  0  0  0
  4  5  1  0  0  0  0
  5 15  1  1  0  0  0
  6 32  1  6  0  0  0
  6 19  1  0  0  0  0
  7 14  1  0  0  0  0
  8 21  2  0  0  0  0
  8 13  1  0  0  0  0
  9 11  1  0  0  0  0
 10  7  1  6  0  0  0
 10  1  1  0  0  0  0
 11 10  1  0  0  0  0
 11 17  2  0  0  0  0
 12 18  1  1  0  0  0
 14 25  1  1  0  0  0
 14  6  1  0  0  0  0
 15 13  2  0  0  0  0
 16 17  1  0  0  0  0
 17 12  1  0  0  0  0
 18 23  1  0  0  0  0
 22 12  1  0  0  0  0
 22  4  1  0  0  0  0
 23  5  1  0  0  0  0
 23  8  1  0  0  0  0
 24 25  1  0  0  0  0
 25 26  1  0  0  0  0
 27 26  1  0  0  0  0
 28 27  1  0  0  0  0
 28 29  1  0  0  0  0
 30 28  2  0  0  0  0
 32 31  1  0  0  0  0
M  END
>  <MODEL>
2

>  <REMARK>
 VINA RESULT:      -7.0      4.034      7.672
  Name = 
  5 active torsions:
  status: ('A' for Active; 'I' for Inactive)
    1  A    between atoms: CA_7  and  C_19
    2  A    between atoms: C_10  and  C_17
    3  A    between atoms: C_10  and  O_20
    4  A    between atoms: O_20  and  C_29
    5  A    between atoms: C_29  and  C_30
                            x       y       z     vdW  Elec       q    Type
                         _______ _______ _______ _____ _____    ______ ____

>  <TORSDO>
F 5

$$$$
=
 OpenBabel11122410513D

 32 36  0  0  1  0  0  0  0  0999 V2000
  185.7900  178.2240  140.0060 C   0  0  1  0  0  3  0  0  0  0  0  0
  181.0610  179.0710  141.0490 C   0  0  0  0  0  3  0  0  0  0  0  0
  181.3150  178.7720  142.3880 C   0  0  0  0  0  3  0  0  0  0  0  0
  187.5520  178.0690  141.8740 C   0  0  2  0  0  3  0  0  0  0  0  0
  187.9050  178.5370  143.2930 C   0  0  2  0  0  3  0  0  0  0  0  0
  186.3450  177.7840  137.7380 C   0  0  2  0  0  3  0  0  0  0  0  0
  184.1730  178.8850  138.2190 O   0  0  0  0  0  0  0  0  0  0  0  0
  186.9920  177.4460  145.1210 C   0  0  0  0  0  0  0  0  0  0  0  0
  182.1140  179.1410  140.1370 C   0  0  0  0  0  3  0  0  0  0  0  0
  184.5680  179.0430  139.5810 C   0  0  1  0  0  3  0  0  0  0  0  0
  183.4310  178.9020  140.5540 C   0  0  0  0  0  0  0  0  0  0  0  0
  185.1020  178.3130  142.3930 C   0  0  2  0  0  3  0  0  0  0  0  0
  188.2870  176.9000  145.0240 N   0  0  0  0  0  0  0  0  0  0  0  0
  184.8010  177.7800  137.5830 C   0  0  2  0  0  3  0  0  0  0  0  0
  188.9480  177.5810  143.9130 C   0  0  0  0  0  3  0  0  0  0  0  0
  182.6260  178.5540  142.8200 C   0  0  0  0  0  3  0  0  0  0  0  0
  183.6990  178.6480  141.9200 C   0  0  0  0  0  0  0  0  0  0  0  0
  185.4170  178.9050  143.7630 C   0  0  0  0  0  2  0  0  0  0  0  0
  186.8080  178.4090  138.9850 N   0  0  0  0  0  2  0  0  0  0  0  0
  188.5980  178.4250  141.0200 O   0  0  0  0  0  1  0  0  0  0  0  0
  186.1410  177.0560  145.9640 O   0  0  0  0  0  0  0  0  0  0  0  0
  186.2220  178.6910  141.3980 C   0  0  2  0  0  3  0  0  0  0  0  0
  186.7390  178.4480  144.1650 N   0  0  0  0  0  0  0  0  0  0  0  0
  182.7160  176.4010  137.5740 C   0  0  0  0  0  1  0  0  0  0  0  0
  184.1680  176.4520  138.0170 C   0  0  1  0  0  3  0  0  0  0  0  0
  184.8590  175.3720  137.4590 O   0  0  0  0  0  0  0  0  0  0  0  0
  183.9160  174.3440  137.3780 C   0  0  0  0  0  2  0  0  0  0  0  0
  184.5820  173.0270  137.5810 C   0  0  0  0  0  0  0  0  0  0  0  0
  183.9560  171.9620  137.3440 O   0  0  0  0  0  0  0  0  0  0  0  0
  185.9030  172.9770  138.0010 O   0  0  0  0  0  1  0  0  0  0  0  0
  188.0250  179.2960  136.9790 O   0  0  0  0  0  1  0  0  0  0  0  0
  186.9720  178.4870  136.5500 C   0  0  0  0  0  2  0  0  0  0  0  0
  1 19  1  6  0  0  0
  1 22  1  0  0  0  0
  2  3  1  0  0  0  0
  3 16  2  0  0  0  0
  4 20  1  6  0  0  0
  4  5  1  0  0  0  0
  5 15  1  1  0  0  0
  5 23  1  0  0  0  0
  6 32  1  6  0  0  0
  6 19  1  0  0  0  0
  8 21  2  0  0  0  0
  9 11  1  0  0  0  0
  9  2  2  0  0  0  0
 10  7  1  6  0  0  0
 10  1  1  0  0  0  0
 10 11  1  0  0  0  0
 11 17  2  0  0  0  0
 12 18  1  1  0  0  0
 13  8  1  0  0  0  0
 14  6  1  0  0  0  0
 14 25  1  1  0  0  0
 14  7  1  0  0  0  0
 15 13  2  0  0  0  0
 17 12  1  0  0  0  0
 17 16  1  0  0  0  0
 18 23  1  0  0  0  0
 22  4  1  0  0  0  0
 22 12  1  0  0  0  0
 23  8  1  0  0  0  0
 24 25  1  0  0  0  0
 26 25  1  0  0  0  0
 27 26  1  0  0  0  0
 27 28  1  0  0  0  0
 28 30  1  0  0  0  0
 29 28  2  0  0  0  0
 32 31  1  0  0  0  0
M  END
>  <MODEL>
3

>  <REMARK>
 VINA RESULT:      -6.6      2.319      3.819
  Name = 
  5 active torsions:
  status: ('A' for Active; 'I' for Inactive)
    1  A    between atoms: CA_7  and  C_19
    2  A    between atoms: C_10  and  C_17
    3  A    between atoms: C_10  and  O_20
    4  A    between atoms: O_20  and  C_29
    5  A    between atoms: C_29  and  C_30
                            x       y       z     vdW  Elec       q    Type
                         _______ _______ _______ _____ _____    ______ ____

>  <TORSDO>
F 5

$$$$
=
 OpenBabel11122410513D

 32 36  0  0  1  0  0  0  0  0999 V2000
  183.9470  178.1930  139.5650 C   0  0  1  0  0  3  0  0  0  0  0  0
  182.0760  178.9250  144.0520 C   0  0  0  0  0  3  0  0  0  0  0  0
  183.3290  178.6540  144.6050 C   0  0  0  0  0  3  0  0  0  0  0  0
  186.4900  178.1170  139.1860 C   0  0  2  0  0  3  0  0  0  0  0  0
  187.8420  178.6180  139.7130 C   0  0  2  0  0  3  0  0  0  0  0  0
  182.4160  177.7320  137.8070 C   0  0  2  0  0  3  0  0  0  0  0  0
  181.5380  178.7790  139.8780 O   0  0  0  0  0  0  0  0  0  0  0  0
  188.8510  177.5320  141.4930 C   0  0  0  0  0  0  0  0  0  0  0  0
  181.9280  179.0090  142.6670 C   0  0  0  0  0  3  0  0  0  0  0  0
  182.8760  178.9710  140.3350 C   0  0  1  0  0  3  0  0  0  0  0  0
  183.0290  178.8140  141.8220 C   0  0  0  0  0  0  0  0  0  0  0  0
  185.5090  178.3010  141.4950 C   0  0  2  0  0  3  0  0  0  0  0  0
  189.5270  177.0210  140.3670 N   0  0  0  0  0  0  0  0  0  0  0  0
  181.4070  177.6820  138.9850 C   0  0  2  0  0  3  0  0  0  0  0  0
  188.9740  177.7010  139.1990 C   0  0  0  0  0  3  0  0  0  0  0  0
  184.4370  178.4800  143.7730 C   0  0  0  0  0  3  0  0  0  0  0  0
  184.3090  178.5890  142.3800 C   0  0  0  0  0  0  0  0  0  0  0  0
  186.7950  178.9240  142.0270 C   0  0  0  0  0  2  0  0  0  0  0  0
  183.6840  178.3900  138.1490 N   0  0  0  0  0  2  0  0  0  0  0  0
  186.3760  178.4880  137.8440 O   0  0  0  0  0  1  0  0  0  0  0  0
  189.0680  177.1320  142.6670 O   0  0  0  0  0  0  0  0  0  0  0  0
  185.3210  178.6950  140.0120 C   0  0  2  0  0  3  0  0  0  0  0  0
  187.8930  178.5110  141.1670 N   0  0  0  0  0  0  0  0  0  0  0  0
  180.0920  176.0800  140.3810 C   0  0  0  0  0  1  0  0  0  0  0  0
  181.4400  176.3440  139.7340 C   0  0  1  0  0  3  0  0  0  0  0  0
  181.7460  175.2980  138.8580 O   0  0  0  0  0  0  0  0  0  0  0  0
  180.5190  174.6870  138.5860 C   0  0  0  0  0  2  0  0  0  0  0  0
  180.4980  174.1940  137.1810 C   0  0  0  0  0  0  0  0  0  0  0  0
  180.9840  174.8990  136.2590 O   0  0  0  0  0  0  0  0  0  0  0  0
  179.9710  172.9430  136.8930 O   0  0  0  0  0  1  0  0  0  0  0  0
  180.4020  178.2090  136.6210 O   0  0  0  0  0  1  0  0  0  0  0  0
  181.7790  178.4330  136.6220 C   0  0  0  0  0  2  0  0  0  0  0  0
  1 19  1  6  0  0  0
  1 22  1  0  0  0  0
  1 10  1  0  0  0  0
  2  3  1  0  0  0  0
  4 20  1  6  0  0  0
  4  5  1  0  0  0  0
  4 22  1  0  0  0  0
  5 15  1  6  0  0  0
  5 23  1  0  0  0  0
  6 32  1  6  0  0  0
  6 19  1  0  0  0  0
  6 14  1  0  0  0  0
  8 21  2  0  0  0  0
  9  2  2  0  0  0  0
 10  7  1  6  0  0  0
 10 11  1  0  0  0  0
 11 17  2  0  0  0  0
 11  9  1  0  0  0  0
 12 18  1  1  0  0  0
 12 17  1  0  0  0  0
 13  8  1  0  0  0  0
 14 25  1  1  0  0  0
 14  7  1  0  0  0  0
 15 13  2  0  0  0  0
 16  3  2  0  0  0  0
 17 16  1  0  0  0  0
 22 12  1  0  0  0  0
 23  8  1  0  0  0  0
 23 18  1  0  0  0  0
 25 24  1  0  0  0  0
 26 25  1  0  0  0  0
 27 26  1  0  0  0  0
 28 27  1  0  0  0  0
 29 28  2  0  0  0  0
 30 28  1  0  0  0  0
 31 32  1  0  0  0  0
M  END
>  <MODEL>
4

>  <REMARK>
 VINA RESULT:      -6.6      1.673      2.228
  Name = 
  5 active torsions:
  status: ('A' for Active; 'I' for Inactive)
    1  A    between atoms: CA_7  and  C_19
    2  A    between atoms: C_10  and  C_17
    3  A    between atoms: C_10  and  O_20
    4  A    between atoms: O_20  and  C_29
    5  A    between atoms: C_29  and  C_30
                            x       y       z     vdW  Elec       q    Type
                         _______ _______ _______ _____ _____    ______ ____

>  <TORSDO>
F 5

$$$$
=
 OpenBabel11122410513D

 32 36  0  0  1  0  0  0  0  0999 V2000
  186.9650  178.0570  139.7720 C   0  0  1  0  0  3  0  0  0  0  0  0
  182.8560  178.9530  142.3190 C   0  0  0  0  0  3  0  0  0  0  0  0
  183.5060  178.5470  143.4860 C   0  0  0  0  0  3  0  0  0  0  0  0
  189.2170  177.7140  140.9680 C   0  0  2  0  0  3  0  0  0  0  0  0
  190.0240  178.0650  142.2260 C   0  0  2  0  0  3  0  0  0  0  0  0
  186.7510  177.7730  137.4220 C   0  0  2  0  0  3  0  0  0  0  0  0
  184.9010  178.8940  138.6390 O   0  0  0  0  0  0  0  0  0  0  0  0
  189.6820  176.8650  144.1770 C   0  0  0  0  0  0  0  0  0  0  0  0
  183.5700  179.0620  141.1250 C   0  0  0  0  0  3  0  0  0  0  0  0
  185.7140  178.9390  139.8110 C   0  0  1  0  0  3  0  0  0  0  0  0
  184.9370  178.7560  141.0850 C   0  0  0  0  0  0  0  0  0  0  0  0
  187.0720  177.9860  142.2550 C   0  0  2  0  0  3  0  0  0  0  0  0
  190.8510  176.2940  143.6380 N   0  0  0  0  0  0  0  0  0  0  0  0
  185.2390  177.8230  137.7680 C   0  0  2  0  0  3  0  0  0  0  0  0
  191.1600  177.0370  142.4200 C   0  0  0  0  0  3  0  0  0  0  0  0
  184.8730  178.2620  143.4620 C   0  0  0  0  0  3  0  0  0  0  0  0
  185.6100  178.3930  142.2750 C   0  0  0  0  0  0  0  0  0  0  0  0
  187.8330  178.4640  143.4860 C   0  0  0  0  0  2  0  0  0  0  0  0
  187.6150  178.2910  138.4930 N   0  0  0  0  0  2  0  0  0  0  0  0
  189.9550  178.1040  139.8480 O   0  0  0  0  0  1  0  0  0  0  0  0
  189.1230  176.4370  145.2210 O   0  0  0  0  0  0  0  0  0  0  0  0
  187.8380  178.4070  140.9800 C   0  0  2  0  0  3  0  0  0  0  0  0
  189.1900  177.9430  143.4160 N   0  0  0  0  0  0  0  0  0  0  0  0
  183.1930  176.5040  138.3340 C   0  0  0  0  0  1  0  0  0  0  0  0
  184.7110  176.4840  138.2970 C   0  0  1  0  0  3  0  0  0  0  0  0
  185.1400  175.4300  137.4850 O   0  0  0  0  0  0  0  0  0  0  0  0
  184.1040  174.4940  137.5330 C   0  0  0  0  0  2  0  0  0  0  0  0
  184.6660  173.1180  137.6240 C   0  0  0  0  0  0  0  0  0  0  0  0
  185.8660  172.9490  137.9640 O   0  0  0  0  0  1  0  0  0  0  0  0
  183.8580  172.0200  137.3660 O   0  0  0  0  0  0  0  0  0  0  0  0
  187.4970  179.8160  136.4440 O   0  0  0  0  0  1  0  0  0  0  0  0
  187.0050  178.5460  136.1420 C   0  0  0  0  0  2  0  0  0  0  0  0
  1 19  1  6  0  0  0
  1 10  1  0  0  0  0
  1 22  1  0  0  0  0
  2  3  1  0  0  0  0
  4 20  1  6  0  0  0
  4 22  1  0  0  0  0
  4  5  1  0  0  0  0
  5 15  1  1  0  0  0
  5 23  1  0  0  0  0
  6 32  1  6  0  0  0
  6 14  1  0  0  0  0
  6 19  1  0  0  0  0
  8 21  2  0  0  0  0
  9  2  2  0  0  0  0
 10  7  1  6  0  0  0
 10 11  1  0  0  0  0
 11  9  1  0  0  0  0
 11 17  2  0  0  0  0
 12 17  1  0  0  0  0
 12 18  1  1  0  0  0
 13  8  1  0  0  0  0
 14 25  1  1  0  0  0
 14  7  1  0  0  0  0
 15 13  2  0  0  0  0
 16  3  2  0  0  0  0
 17 16  1  0  0  0  0
 22 12  1  0  0  0  0
 23 18  1  0  0  0  0
 23  8  1  0  0  0  0
 25 24  1  0  0  0  0
 26 27  1  0  0  0  0
 26 25  1  0  0  0  0
 27 28  1  0  0  0  0
 28 29  1  0  0  0  0
 30 28  2  0  0  0  0
 32 31  1  0  0  0  0
M  END
>  <MODEL>
5

>  <REMARK>
 VINA RESULT:      -6.5      2.189      3.105
  Name = 
  5 active torsions:
  status: ('A' for Active; 'I' for Inactive)
    1  A    between atoms: CA_7  and  C_19
    2  A    between atoms: C_10  and  C_17
    3  A    between atoms: C_10  and  O_20
    4  A    between atoms: O_20  and  C_29
    5  A    between atoms: C_29  and  C_30
                            x       y       z     vdW  Elec       q    Type
                         _______ _______ _______ _____ _____    ______ ____

>  <TORSDO>
F 5

$$$$
=
 OpenBabel11122410513D

 32 36  0  0  1  0  0  0  0  0999 V2000
  190.2240  176.9630  139.3850 C   0  0  1  0  0  3  0  0  0  0  0  0
  185.7790  178.5610  138.0200 C   0  0  0  0  0  3  0  0  0  0  0  0
  185.3970  178.6070  139.3620 C   0  0  0  0  0  3  0  0  0  0  0  0
  190.9970  177.1280  141.8330 C   0  0  2  0  0  3  0  0  0  0  0  0
  190.8350  177.9190  143.1380 C   0  0  2  0  0  3  0  0  0  0  0  0
  191.5440  175.8730  137.7370 C   0  0  2  0  0  3  0  0  0  0  0  0
  189.6540  177.2890  136.9730 O   0  0  0  0  0  0  0  0  0  0  0  0
  189.0480  177.4630  144.5400 C   0  0  0  0  0  0  0  0  0  0  0  0
  187.1010  178.2700  137.6800 C   0  0  0  0  0  3  0  0  0  0  0  0
  189.4860  177.7640  138.3090 C   0  0  1  0  0  3  0  0  0  0  0  0
  188.0500  178.0120  138.6780 C   0  0  0  0  0  0  0  0  0  0  0  0
  188.6620  177.7630  141.1450 C   0  0  2  0  0  3  0  0  0  0  0  0
  190.1220  176.7760  145.1390 N   0  0  0  0  0  0  0  0  0  0  0  0
  190.2340  175.9930  136.9130 C   0  0  2  0  0  3  0  0  0  0  0  0
  191.3050  177.0580  144.3320 C   0  0  0  0  0  3  0  0  0  0  0  0
  186.3400  178.3740  140.3660 C   0  0  0  0  0  3  0  0  0  0  0  0
  187.6790  178.1070  140.0400 C   0  0  0  0  0  0  0  0  0  0  0  0
  188.5120  178.6630  142.3660 C   0  0  0  0  0  2  0  0  0  0  0  0
  191.5820  176.7570  138.9100 N   0  0  0  0  0  2  0  0  0  0  0  0
  192.3490  177.1270  141.4840 O   0  0  0  0  0  1  0  0  0  0  0  0
  187.8670  177.4070  144.9720 O   0  0  0  0  0  0  0  0  0  0  0  0
  190.1420  177.7380  140.7020 C   0  0  2  0  0  3  0  0  0  0  0  0
  189.4260  178.1930  143.3960 N   0  0  0  0  0  0  0  0  0  0  0  0
  187.9960  175.0250  136.3670 C   0  0  0  0  0  1  0  0  0  0  0  0
  189.2130  174.9060  137.2690 C   0  0  1  0  0  3  0  0  0  0  0  0
  189.7750  173.6350  137.1220 O   0  0  0  0  0  0  0  0  0  0  0  0
  188.7620  172.8560  136.5560 C   0  0  0  0  0  2  0  0  0  0  0  0
  189.2750  172.1580  135.3440 C   0  0  0  0  0  0  0  0  0  0  0  0
  188.4850  171.5110  134.6080 O   0  0  0  0  0  0  0  0  0  0  0  0
  190.6180  172.2490  135.0090 O   0  0  0  0  0  1  0  0  0  0  0  0
  193.7550  176.7530  137.5850 O   0  0  0  0  0  1  0  0  0  0  0  0
  192.7350  176.1600  136.8420 C   0  0  0  0  0  2  0  0  0  0  0  0
  1 19  1  6  0  0  0
  1 22  1  0  0  0  0
  2  3  1  0  0  0  0
  3 16  2  0  0  0  0
  4 20  1  6  0  0  0
  4  5  1  0  0  0  0
  5 23  1  0  0  0  0
  5 15  1  1  0  0  0
  6 32  1  6  0  0  0
  6 19  1  0  0  0  0
  8 21  2  0  0  0  0
  8 13  1  0  0  0  0
  9  2  2  0  0  0  0
  9 11  1  0  0  0  0
 10  7  1  6  0  0  0
 10 11  1  0  0  0  0
 10  1  1  0  0  0  0
 11 17  2  0  0  0  0
 12 18  1  1  0  0  0
 14  7  1  0  0  0  0
 14 25  1  1  0  0  0
 14  6  1  0  0  0  0
 15 13  2  0  0  0  0
 17 16  1  0  0  0  0
 17 12  1  0  0  0  0
 18 23  1  0  0  0  0
 22 12  1  0  0  0  0
 22  4  1  0  0  0  0
 23  8  1  0  0  0  0
 24 25  1  0  0  0  0
 26 25  1  0  0  0  0
 27 26  1  0  0  0  0
 28 27  1  0  0  0  0
 29 28  2  0  0  0  0
 30 28  1  0  0  0  0
 32 31  1  0  0  0  0
M  END
>  <MODEL>
6

>  <REMARK>
 VINA RESULT:      -6.4      4.041      6.699
  Name = 
  5 active torsions:
  status: ('A' for Active; 'I' for Inactive)
    1  A    between atoms: CA_7  and  C_19
    2  A    between atoms: C_10  and  C_17
    3  A    between atoms: C_10  and  O_20
    4  A    between atoms: O_20  and  C_29
    5  A    between atoms: C_29  and  C_30
                            x       y       z     vdW  Elec       q    Type
                         _______ _______ _______ _____ _____    ______ ____

>  <TORSDO>
F 5

$$$$
=
 OpenBabel11122410513D

 32 36  0  0  1  0  0  0  0  0999 V2000
  189.0450  177.0240  138.8920 C   0  0  1  0  0  3  0  0  0  0  0  0
  184.5430  178.9880  139.1160 C   0  0  0  0  0  3  0  0  0  0  0  0
  184.6240  178.9820  140.5100 C   0  0  0  0  0  3  0  0  0  0  0  0
  190.5830  176.9970  140.9540 C   0  0  2  0  0  3  0  0  0  0  0  0
  190.9190  177.7210  142.2650 C   0  0  2  0  0  3  0  0  0  0  0  0
  189.6640  175.9440  136.8680 C   0  0  2  0  0  3  0  0  0  0  0  0
  187.7500  177.5230  136.8140 O   0  0  0  0  0  0  0  0  0  0  0  0
  189.6540  177.3060  144.1610 C   0  0  0  0  0  0  0  0  0  0  0  0
  185.6540  178.6290  138.3510 C   0  0  0  0  0  3  0  0  0  0  0  0
  188.0650  177.9310  138.1450 C   0  0  1  0  0  3  0  0  0  0  0  0
  186.8520  178.2530  138.9730 C   0  0  0  0  0  0  0  0  0  0  0  0
  188.2110  177.8240  141.0930 C   0  0  2  0  0  3  0  0  0  0  0  0
  190.8050  176.5160  144.3510 N   0  0  0  0  0  0  0  0  0  0  0  0
  188.1720  176.1970  136.5250 C   0  0  2  0  0  3  0  0  0  0  0  0
  191.6810  176.7650  143.2090 C   0  0  0  0  0  3  0  0  0  0  0  0
  185.8200  178.6300  141.1400 C   0  0  0  0  0  3  0  0  0  0  0  0
  186.9530  178.2940  140.3840 C   0  0  0  0  0  0  0  0  0  0  0  0
  188.5400  178.6610  142.3240 C   0  0  0  0  0  2  0  0  0  0  0  0
  190.1540  176.7550  137.9910 N   0  0  0  0  0  2  0  0  0  0  0  0
  191.7430  176.9260  140.1800 O   0  0  0  0  0  1  0  0  0  0  0  0
  188.6770  177.3040  144.9550 O   0  0  0  0  0  0  0  0  0  0  0  0
  189.4590  177.7260  140.1870 C   0  0  2  0  0  3  0  0  0  0  0  0
  189.6970  178.0730  142.9810 N   0  0  0  0  0  0  0  0  0  0  0  0
  185.8290  175.3320  136.6170 C   0  0  0  0  0  1  0  0  0  0  0  0
  187.2370  175.1620  137.1620 C   0  0  1  0  0  3  0  0  0  0  0  0
  187.6830  173.8650  136.8920 O   0  0  0  0  0  0  0  0  0  0  0  0
  186.8760  173.4180  135.8420 C   0  0  0  0  0  2  0  0  0  0  0  0
  186.8780  171.9290  135.7980 C   0  0  0  0  0  0  0  0  0  0  0  0
  187.9310  171.2930  136.0640 O   0  0  0  0  0  1  0  0  0  0  0  0
  185.7110  171.2430  135.4960 O   0  0  0  0  0  0  0  0  0  0  0  0
  191.8640  176.0050  135.9500 O   0  0  0  0  0  1  0  0  0  0  0  0
  190.5180  176.2020  135.6410 C   0  0  0  0  0  2  0  0  0  0  0  0
  1 19  1  6  0  0  0
  1 22  1  0  0  0  0
  2  3  1  0  0  0  0
  3 16  2  0  0  0  0
  4 20  1  6  0  0  0
  4  5  1  0  0  0  0
  5 23  1  0  0  0  0
  5 15  1  1  0  0  0
  6 32  1  6  0  0  0
  6 19  1  0  0  0  0
  8 13  1  0  0  0  0
  8 21  2  0  0  0  0
  9 11  1  0  0  0  0
  9  2  2  0  0  0  0
 10  7  1  6  0  0  0
 10  1  1  0  0  0  0
 10 11  1  0  0  0  0
 11 17  2  0  0  0  0
 12 18  1  1  0  0  0
 14  7  1  0  0  0  0
 14  6  1  0  0  0  0
 14 25  1  1  0  0  0
 15 13  2  0  0  0  0
 17 12  1  0  0  0  0
 17 16  1  0  0  0  0
 18 23  1  0  0  0  0
 22  4  1  0  0  0  0
 22 12  1  0  0  0  0
 23  8  1  0  0  0  0
 24 25  1  0  0  0  0
 26 25  1  0  0  0  0
 27 26  1  0  0  0  0
 28 27  1  0  0  0  0
 28 29  1  0  0  0  0
 30 28  2  0  0  0  0
 32 31  1  0  0  0  0
M  END
>  <MODEL>
7

>  <REMARK>
 VINA RESULT:      -6.3      3.456      5.538
  Name = 
  5 active torsions:
  status: ('A' for Active; 'I' for Inactive)
    1  A    between atoms: CA_7  and  C_19
    2  A    between atoms: C_10  and  C_17
    3  A    between atoms: C_10  and  O_20
    4  A    between atoms: O_20  and  C_29
    5  A    between atoms: C_29  and  C_30
                            x       y       z     vdW  Elec       q    Type
                         _______ _______ _______ _____ _____    ______ ____

>  <TORSDO>
F 5

$$$$
=
 OpenBabel11122410513D

 32 36  0  0  1  0  0  0  0  0999 V2000
  182.5660  178.3980  139.8320 C   0  0  1  0  0  3  0  0  0  0  0  0
  179.0620  178.8830  143.2470 C   0  0  0  0  0  3  0  0  0  0  0  0
  180.0240  178.7020  144.2420 C   0  0  0  0  0  3  0  0  0  0  0  0
  185.0570  178.5340  140.4610 C   0  0  2  0  0  3  0  0  0  0  0  0
  186.0560  179.1310  141.4620 C   0  0  2  0  0  3  0  0  0  0  0  0
  181.8700  177.8520  137.6260 C   0  0  2  0  0  3  0  0  0  0  0  0
  180.1820  178.7820  139.1890 O   0  0  0  0  0  0  0  0  0  0  0  0
  186.3910  178.0920  143.5050 C   0  0  0  0  0  0  0  0  0  0  0  0
  179.4510  178.9840  141.9110 C   0  0  0  0  0  3  0  0  0  0  0  0
  181.2220  179.0710  140.1230 C   0  0  1  0  0  3  0  0  0  0  0  0
  180.8040  178.8950  141.5560 C   0  0  0  0  0  0  0  0  0  0  0  0
  183.2530  178.5910  142.2140 C   0  0  2  0  0  3  0  0  0  0  0  0
  187.4870  177.6610  142.7310 N   0  0  0  0  0  0  0  0  0  0  0  0
  180.4940  177.6970  138.3270 C   0  0  2  0  0  3  0  0  0  0  0  0
  187.3710  178.3190  141.4330 C   0  0  0  0  0  3  0  0  0  0  0  0
  181.3780  178.6350  143.9030 C   0  0  0  0  0  3  0  0  0  0  0  0
  181.7860  178.7630  142.5660 C   0  0  0  0  0  0  0  0  0  0  0  0
  184.1800  179.3030  143.1920 C   0  0  0  0  0  2  0  0  0  0  0  0
  182.8520  178.6030  138.4220 N   0  0  0  0  0  2  0  0  0  0  0  0
  185.4370  178.9230  139.1740 O   0  0  0  0  0  1  0  0  0  0  0  0
  186.1720  177.6860  144.6760 O   0  0  0  0  0  0  0  0  0  0  0  0
  183.6170  178.9990  140.7680 C   0  0  2  0  0  3  0  0  0  0  0  0
  185.5540  178.9980  142.8250 N   0  0  0  0  0  0  0  0  0  0  0  0
  178.9310  176.1970  139.5730 C   0  0  0  0  0  1  0  0  0  0  0  0
  180.3480  176.3500  139.0460 C   0  0  1  0  0  3  0  0  0  0  0  0
  180.6340  175.2940  138.1770 O   0  0  0  0  0  0  0  0  0  0  0  0
  179.7860  174.2580  138.5770 C   0  0  0  0  0  2  0  0  0  0  0  0
  179.8790  173.1260  137.6140 C   0  0  0  0  0  0  0  0  0  0  0  0
  179.3400  173.2170  136.4800 O   0  0  0  0  0  0  0  0  0  0  0  0
  180.5870  171.9830  137.9560 O   0  0  0  0  0  1  0  0  0  0  0  0
  181.1530  179.8030  136.4580 O   0  0  0  0  0  1  0  0  0  0  0  0
  181.6820  178.5250  136.2800 C   0  0  0  0  0  2  0  0  0  0  0  0
  1 19  1  6  0  0  0
  1 10  1  0  0  0  0
  1 22  1  0  0  0  0
  2  3  1  0  0  0  0
  4 20  1  6  0  0  0
  4 22  1  0  0  0  0
  4  5  1  0  0  0  0
  5 15  1  1  0  0  0
  5 23  1  0  0  0  0
  6 32  1  6  0  0  0
  6 14  1  0  0  0  0
  6 19  1  0  0  0  0
  8 21  2  0  0  0  0
  9  2  2  0  0  0  0
 10  7  1  6  0  0  0
 10 11  1  0  0  0  0
 11  9  1  0  0  0  0
 11 17  2  0  0  0  0
 12 17  1  0  0  0  0
 12 18  1  1  0  0  0
 13  8  1  0  0  0  0
 14 25  1  1  0  0  0
 14  7  1  0  0  0  0
 15 13  2  0  0  0  0
 16  3  2  0  0  0  0
 17 16  1  0  0  0  0
 22 12  1  0  0  0  0
 23 18  1  0  0  0  0
 23  8  1  0  0  0  0
 25 24  1  0  0  0  0
 26 27  1  0  0  0  0
 26 25  1  0  0  0  0
 28 30  1  0  0  0  0
 28 27  1  0  0  0  0
 29 28  2  0  0  0  0
 32 31  1  0  0  0  0
M  END
>  <MODEL>
8

>  <REMARK>
 VINA RESULT:      -6.3      2.470      3.849
  Name = 
  5 active torsions:
  status: ('A' for Active; 'I' for Inactive)
    1  A    between atoms: CA_7  and  C_19
    2  A    between atoms: C_10  and  C_17
    3  A    between atoms: C_10  and  O_20
    4  A    between atoms: O_20  and  C_29
    5  A    between atoms: C_29  and  C_30
                            x       y       z     vdW  Elec       q    Type
                         _______ _______ _______ _____ _____    ______ ____

>  <TORSDO>
F 5

$$$$
=
 OpenBabel11122410513D

 32 36  0  0  1  0  0  0  0  0999 V2000
  183.8780  178.2240  141.0770 C   0  0  1  0  0  3  0  0  0  0  0  0
  179.2200  179.2710  142.2500 C   0  0  0  0  0  3  0  0  0  0  0  0
  179.5470  179.1540  143.6020 C   0  0  0  0  0  3  0  0  0  0  0  0
  185.7410  178.3020  142.8490 C   0  0  2  0  0  3  0  0  0  0  0  0
  186.1760  178.9550  144.1690 C   0  0  2  0  0  3  0  0  0  0  0  0
  184.3020  177.4690  138.8630 C   0  0  2  0  0  3  0  0  0  0  0  0
  182.1680  178.6550  139.3070 O   0  0  0  0  0  0  0  0  0  0  0  0
  185.3600  178.1370  146.1760 C   0  0  0  0  0  0  0  0  0  0  0  0
  180.2210  179.2000  141.2810 C   0  0  0  0  0  3  0  0  0  0  0  0
  182.6400  178.9930  140.6110 C   0  0  1  0  0  3  0  0  0  0  0  0
  181.5580  179.0030  141.6540 C   0  0  0  0  0  0  0  0  0  0  0  0
  183.3250  178.6480  143.4630 C   0  0  2  0  0  3  0  0  0  0  0  0
  186.6440  177.5660  146.0840 N   0  0  0  0  0  0  0  0  0  0  0  0
  182.7520  177.4650  138.7950 C   0  0  2  0  0  3  0  0  0  0  0  0
  187.2460  178.0780  144.8560 C   0  0  0  0  0  3  0  0  0  0  0  0
  180.8790  178.9790  143.9870 C   0  0  0  0  0  3  0  0  0  0  0  0
  181.9000  178.9340  143.0250 C   0  0  0  0  0  0  0  0  0  0  0  0
  183.7210  179.4170  144.7180 C   0  0  0  0  0  2  0  0  0  0  0  0
  184.8380  178.2530  139.9850 N   0  0  0  0  0  2  0  0  0  0  0  0
  186.7390  178.5230  141.8980 O   0  0  0  0  0  1  0  0  0  0  0  0
  184.5560  177.8780  147.1100 O   0  0  0  0  0  0  0  0  0  0  0  0
  184.3900  178.8710  142.3650 C   0  0  2  0  0  3  0  0  0  0  0  0
  185.0600  179.0020  145.1060 N   0  0  0  0  0  0  0  0  0  0  0  0
  180.6260  176.2420  139.2780 C   0  0  0  0  0  1  0  0  0  0  0  0
  182.1370  176.2180  139.4420 C   0  0  1  0  0  3  0  0  0  0  0  0
  182.6470  175.0570  138.8540 O   0  0  0  0  0  0  0  0  0  0  0  0
  181.9400  174.9180  137.6570 C   0  0  0  0  0  2  0  0  0  0  0  0
  181.9570  173.4950  137.2190 C   0  0  0  0  0  0  0  0  0  0  0  0
  183.0190  172.9860  136.7740 O   0  0  0  0  0  0  0  0  0  0  0  0
  180.8110  172.7220  137.3310 O   0  0  0  0  0  1  0  0  0  0  0  0
  186.0890  178.6260  137.7880 O   0  0  0  0  0  1  0  0  0  0  0  0
  184.8670  177.9940  137.5570 C   0  0  0  0  0  2  0  0  0  0  0  0
  1 19  1  6  0  0  0
  1 22  1  0  0  0  0
  2  3  1  0  0  0  0
  3 16  2  0  0  0  0
  4 20  1  6  0  0  0
  4  5  1  0  0  0  0
  5 15  1  1  0  0  0
  5 23  1  0  0  0  0
  6 32  1  6  0  0  0
  6 19  1  0  0  0  0
  8 21  2  0  0  0  0
  9 11  1  0  0  0  0
  9  2  2  0  0  0  0
 10  7  1  6  0  0  0
 10  1  1  0  0  0  0
 10 11  1  0  0  0  0
 11 17  2  0  0  0  0
 12 18  1  1  0  0  0
 13  8  1  0  0  0  0
 14  6  1  0  0  0  0
 14  7  1  0  0  0  0
 14 25  1  1  0  0  0
 15 13  2  0  0  0  0
 17 12  1  0  0  0  0
 17 16  1  0  0  0  0
 18 23  1  0  0  0  0
 22  4  1  0  0  0  0
 22 12  1  0  0  0  0
 23  8  1  0  0  0  0
 24 25  1  0  0  0  0
 26 25  1  0  0  0  0
 27 26  1  0  0  0  0
 28 30  1  0  0  0  0
 28 27  1  0  0  0  0
 29 28  2  0  0  0  0
 32 31  1  0  0  0  0
M  END
>  <MODEL>
9

>  <REMARK>
 VINA RESULT:      -6.2      2.698      4.298
  Name = 
  5 active torsions:
  status: ('A' for Active; 'I' for Inactive)
    1  A    between atoms: CA_7  and  C_19
    2  A    between atoms: C_10  and  C_17
    3  A    between atoms: C_10  and  O_20
    4  A    between atoms: O_20  and  C_29
    5  A    between atoms: C_29  and  C_30
                            x       y       z     vdW  Elec       q    Type
                         _______ _______ _______ _____ _____    ______ ____

>  <TORSDO>
F 5

$$$$
