=
 OpenBabel11122411273D

 37 43  0  0  1  0  0  0  0  0999 V2000
  187.8340  177.4390  142.0340 C   0  0  0  0  0  3  0  0  0  0  0  0
  185.3600  178.7540  145.9490 C   0  0  1  0  0  0  0  0  0  0  0  0
  183.6120  178.5470  142.0770 N   0  0  0  0  0  0  0  0  0  0  0  0
  189.1930  176.9520  141.6190 C   0  0  2  0  0  3  0  0  0  0  0  0
  185.7430  178.7580  138.9100 C   0  0  0  0  0  2  0  0  0  0  0  0
  183.2740  178.5940  144.4570 C   0  0  0  0  0  0  0  0  0  0  0  0
  184.6950  178.9880  141.2020 C   0  0  2  0  0  3  0  0  0  0  0  0
  189.4250  178.0000  139.3430 C   0  0  2  0  0  3  0  0  0  0  0  0
  184.0840  178.4270  143.4040 C   0  0  2  0  0  3  0  0  0  0  0  0
  184.8570  178.0880  139.9540 C   0  0  1  0  0  3  0  0  0  0  0  0
  181.8420  178.8330  144.2160 C   0  0  0  0  0  3  0  0  0  0  0  0
  189.2610  176.6900  140.1200 C   0  0  0  0  0  2  0  0  0  0  0  0
  185.5570  178.4450  143.4820 C   0  0  2  0  0  3  0  0  0  0  0  0
  185.7680  177.4410  146.1890 O   0  0  0  0  0  1  0  0  0  0  0  0
  181.6800  177.3910  141.0420 C   0  0  0  0  0  2  0  0  0  0  0  0
  181.3380  178.8740  142.9770 C   0  0  0  0  0  3  0  0  0  0  0  0
  186.0240  179.2780  144.6700 C   0  0  0  0  0  2  0  0  0  0  0  0
  188.1950  178.8040  139.2860 N   0  0  1  0  0  0  0  0  0  0  0  0
  187.0540  177.9990  138.8170 C   0  0  0  0  0  2  0  0  0  0  0  0
  182.1850  178.6490  141.7480 C   0  0  0  0  0  0  0  0  0  0  0  0
  185.9480  179.0660  142.1360 C   0  0  1  0  0  3  0  0  0  0  0  0
  183.8240  178.8010  145.8490 C   0  0  0  0  0  2  0  0  0  0  0  0
  183.5510  177.6200  139.2840 C   0  0  1  0  0  3  0  0  0  0  0  0
  185.7950  179.6190  147.1130 C   0  0  0  0  0  1  0  0  0  0  0  0
  187.9830  179.4590  140.5900 C   0  0  0  0  0  2  0  0  0  0  0  0
  189.9430  177.7170  137.9430 C   0  0  0  0  0  1  0  0  0  0  0  0
  187.2800  178.5850  141.5970 C   0  0  0  0  0  0  0  0  0  0  0  0
  182.7100  176.6870  140.1550 C   0  0  0  0  0  2  0  0  0  0  0  0
  182.0870  178.2100  137.3370 C   0  0  0  0  0  3  0  0  0  0  0  0
  182.7690  178.6330  138.4840 C   0  0  0  0  0  0  0  0  0  0  0  0
  182.6920  179.9800  138.8720 C   0  0  0  0  0  3  0  0  0  0  0  0
  181.8810  182.1880  138.4970 F   0  0  0  0  0  0  0  0  0  0  0  0
  181.2740  180.4610  136.9720 C   0  0  0  0  0  3  0  0  0  0  0  0
  181.9490  180.8900  138.1170 C   0  0  0  0  0  0  0  0  0  0  0  0
  181.3430  179.1200  136.5820 C   0  0  0  0  0  3  0  0  0  0  0  0
  190.6870  175.8330  143.1070 O   0  0  0  0  0  1  0  0  0  0  0  0
  189.5080  175.6770  142.3790 C   0  0  0  0  0  2  0  0  0  0  0  0
  2 14  1  0  0  0  0
  2 24  1  1  0  0  0
  3  9  1  0  0  0  0
  4  1  1  0  0  0  0
  4 37  1  1  0  0  0
  6 22  1  0  0  0  0
  7  3  1  1  0  0  0
  7 21  1  0  0  0  0
  8 26  1  6  0  0  0
  8 12  1  0  0  0  0
  9 13  1  0  0  0  0
  9  6  1  1  0  0  0
 10  5  1  6  0  0  0
 10  7  1  0  0  0  0
 11  6  2  0  0  0  0
 12  4  1  0  0  0  0
 13 17  1  1  0  0  0
 15 20  1  0  0  0  0
 16 11  1  0  0  0  0
 17  2  1  0  0  0  0
 18 19  1  1  0  0  0
 18  8  1  0  0  0  0
 18 25  1  0  0  0  0
 19  5  1  0  0  0  0
 20  3  1  0  0  0  0
 20 16  2  0  0  0  0
 21 27  1  6  0  0  0
 21 13  1  0  0  0  0
 22  2  1  0  0  0  0
 23 30  1  1  0  0  0
 23 10  1  0  0  0  0
 23 28  1  0  0  0  0
 25 27  1  0  0  0  0
 27  1  2  0  0  0  0
 28 15  1  0  0  0  0
 29 30  1  0  0  0  0
 30 31  2  0  0  0  0
 33 34  2  0  0  0  0
 34 32  1  0  0  0  0
 34 31  1  0  0  0  0
 35 33  1  0  0  0  0
 35 29  2  0  0  0  0
 37 36  1  0  0  0  0
M  END
>  <MODEL>
1

>  <REMARK>
 VINA RESULT:      -7.5      0.000      0.000
  Name = 
  2 active torsions:
  status: ('A' for Active; 'I' for Inactive)
    1  A    between atoms: C_4  and  C_37
    2  A    between atoms: C_23  and  C_30
                            x       y       z     vdW  Elec       q    Type
                         _______ _______ _______ _____ _____    ______ ____

>  <TORSDO>
F 2

$$$$
=
 OpenBabel11122411273D

 37 43  0  0  1  0  0  0  0  0999 V2000
  188.8840  176.9230  139.1250 C   0  0  0  0  0  3  0  0  0  0  0  0
  188.7530  177.6910  143.8760 C   0  0  1  0  0  0  0  0  0  0  0  0
  185.3770  178.2630  141.3540 N   0  0  0  0  0  0  0  0  0  0  0  0
  189.8060  176.4330  138.0460 C   0  0  2  0  0  3  0  0  0  0  0  0
  185.7700  178.8870  137.6020 C   0  0  0  0  0  2  0  0  0  0  0  0
  186.2100  177.9190  143.5820 C   0  0  0  0  0  0  0  0  0  0  0  0
  185.9690  178.7820  140.1230 C   0  0  2  0  0  3  0  0  0  0  0  0
  189.0780  177.8420  136.0910 C   0  0  2  0  0  3  0  0  0  0  0  0
  186.3980  177.8870  142.2570 C   0  0  2  0  0  3  0  0  0  0  0  0
  185.3980  178.1020  138.8550 C   0  0  1  0  0  3  0  0  0  0  0  0
  184.8820  178.2830  144.1000 C   0  0  0  0  0  3  0  0  0  0  0  0
  189.1220  176.4300  136.6840 C   0  0  0  0  0  2  0  0  0  0  0  0
  187.7190  177.8010  141.6090 C   0  0  2  0  0  3  0  0  0  0  0  0
  189.0410  176.3340  143.7250 O   0  0  0  0  0  1  0  0  0  0  0  0
  183.0470  177.4240  141.2580 C   0  0  0  0  0  2  0  0  0  0  0  0
  183.8640  178.5680  143.2790 C   0  0  0  0  0  3  0  0  0  0  0  0
  188.8010  178.3870  142.5110 C   0  0  0  0  0  2  0  0  0  0  0  0
  188.0900  178.7180  136.7380 N   0  0  1  0  0  0  0  0  0  0  0  0
  186.7640  178.0770  136.7910 C   0  0  0  0  0  2  0  0  0  0  0  0
  183.9920  178.5080  141.7760 C   0  0  0  0  0  0  0  0  0  0  0  0
  187.5110  178.6200  140.3300 C   0  0  1  0  0  3  0  0  0  0  0  0
  187.3730  177.8480  144.5430 C   0  0  0  0  0  2  0  0  0  0  0  0
  183.8800  177.8390  138.8550 C   0  0  1  0  0  3  0  0  0  0  0  0
  189.7990  178.3130  144.7770 C   0  0  0  0  0  1  0  0  0  0  0  0
  188.6100  179.1490  138.0500 C   0  0  0  0  0  2  0  0  0  0  0  0
  188.8310  177.7730  134.5940 C   0  0  0  0  0  1  0  0  0  0  0  0
  188.3520  178.1580  139.1570 C   0  0  0  0  0  0  0  0  0  0  0  0
  183.4310  176.8220  139.9040 C   0  0  0  0  0  2  0  0  0  0  0  0
  181.6050  178.7890  138.4110 C   0  0  0  0  0  3  0  0  0  0  0  0
  182.9620  179.0200  138.6660 C   0  0  0  0  0  0  0  0  0  0  0  0
  183.4280  180.3410  138.7620 C   0  0  0  0  0  3  0  0  0  0  0  0
  183.0060  182.6840  138.6880 F   0  0  0  0  0  0  0  0  0  0  0  0
  181.1960  181.1750  138.3380 C   0  0  0  0  0  3  0  0  0  0  0  0
  182.5490  181.4130  138.5960 C   0  0  0  0  0  0  0  0  0  0  0  0
  180.7240  179.8620  138.2460 C   0  0  0  0  0  3  0  0  0  0  0  0
  191.6450  174.9240  138.2400 O   0  0  0  0  0  1  0  0  0  0  0  0
  190.2630  175.0290  138.3940 C   0  0  0  0  0  2  0  0  0  0  0  0
  1 27  2  0  0  0  0
  2 22  1  0  0  0  0
  2 24  1  1  0  0  0
  3 20  1  0  0  0  0
  3  9  1  0  0  0  0
  4 37  1  1  0  0  0
  4  1  1  0  0  0  0
  6 11  2  0  0  0  0
  6 22  1  0  0  0  0
  7 21  1  0  0  0  0
  7  3  1  1  0  0  0
  8 26  1  6  0  0  0
  8 12  1  0  0  0  0
  8 18  1  0  0  0  0
  9  6  1  1  0  0  0
 10  5  1  6  0  0  0
 10  7  1  0  0  0  0
 12  4  1  0  0  0  0
 13  9  1  0  0  0  0
 13 17  1  1  0  0  0
 14  2  1  0  0  0  0
 15 20  1  0  0  0  0
 16 11  1  0  0  0  0
 17  2  1  0  0  0  0
 18 19  1  1  0  0  0
 18 25  1  0  0  0  0
 19  5  1  0  0  0  0
 20 16  2  0  0  0  0
 21 27  1  6  0  0  0
 21 13  1  0  0  0  0
 23 30  1  1  0  0  0
 23 10  1  0  0  0  0
 23 28  1  0  0  0  0
 25 27  1  0  0  0  0
 28 15  1  0  0  0  0
 29 30  1  0  0  0  0
 30 31  2  0  0  0  0
 33 34  2  0  0  0  0
 34 32  1  0  0  0  0
 34 31  1  0  0  0  0
 35 33  1  0  0  0  0
 35 29  2  0  0  0  0
 36 37  1  0  0  0  0
M  END
>  <MODEL>
2

>  <REMARK>
 VINA RESULT:      -7.1      1.805      2.783
  Name = 
  2 active torsions:
  status: ('A' for Active; 'I' for Inactive)
    1  A    between atoms: C_4  and  C_37
    2  A    between atoms: C_23  and  C_30
                            x       y       z     vdW  Elec       q    Type
                         _______ _______ _______ _____ _____    ______ ____

>  <TORSDO>
F 2

$$$$
=
 OpenBabel11122411273D

 37 43  0  0  1  0  0  0  0  0999 V2000
  182.8680  179.4110  138.9310 C   0  0  0  0  0  3  0  0  0  0  0  0
  185.1640  179.0070  143.1440 C   0  0  1  0  0  0  0  0  0  0  0  0
  186.9490  177.9450  139.4330 N   0  0  0  0  0  0  0  0  0  0  0  0
  181.5710  179.8960  138.3490 C   0  0  2  0  0  3  0  0  0  0  0  0
  184.8280  177.0680  136.3740 C   0  0  0  0  0  2  0  0  0  0  0  0
  187.2650  178.5330  141.7420 C   0  0  0  0  0  0  0  0  0  0  0  0
  185.8310  177.3860  138.6770 C   0  0  2  0  0  3  0  0  0  0  0  0
  181.2440  178.2800  136.4470 C   0  0  2  0  0  3  0  0  0  0  0  0
  186.4830  178.4790  140.6560 C   0  0  2  0  0  3  0  0  0  0  0  0
  185.7730  177.9120  137.2220 C   0  0  1  0  0  3  0  0  0  0  0  0
  188.6650  178.0950  141.6280 C   0  0  0  0  0  3  0  0  0  0  0  0
  181.5410  179.7330  136.8350 C   0  0  0  0  0  2  0  0  0  0  0  0
  185.0170  178.6310  140.6820 C   0  0  2  0  0  3  0  0  0  0  0  0
  184.8960  180.3690  142.9940 O   0  0  0  0  0  1  0  0  0  0  0  0
  188.9990  178.5660  138.1860 C   0  0  0  0  0  2  0  0  0  0  0  0
  189.1700  177.6580  140.4690 C   0  0  0  0  0  3  0  0  0  0  0  0
  184.4560  178.2140  142.0380 C   0  0  0  0  0  2  0  0  0  0  0  0
  182.3820  177.3730  136.6600 N   0  0  1  0  0  0  0  0  0  0  0  0
  183.6060  177.8970  136.0270 C   0  0  0  0  0  2  0  0  0  0  0  0
  188.3600  177.6130  139.1960 C   0  0  0  0  0  0  0  0  0  0  0  0
  184.5710  177.6990  139.5490 C   0  0  1  0  0  3  0  0  0  0  0  0
  186.6870  178.7810  143.1150 C   0  0  0  0  0  2  0  0  0  0  0  0
  187.1260  178.0400  136.4960 C   0  0  1  0  0  3  0  0  0  0  0  0
  184.6320  178.5520  144.4860 C   0  0  0  0  0  1  0  0  0  0  0  0
  182.5160  177.0930  138.1020 C   0  0  0  0  0  2  0  0  0  0  0  0
  180.7680  178.2100  135.0060 C   0  0  0  0  0  1  0  0  0  0  0  0
  183.3010  178.1400  138.8510 C   0  0  0  0  0  0  0  0  0  0  0  0
  188.0550  179.0920  137.1030 C   0  0  0  0  0  2  0  0  0  0  0  0
  188.7820  176.8470  135.0410 C   0  0  0  0  0  3  0  0  0  0  0  0
  187.8010  176.7710  136.0380 C   0  0  0  0  0  0  0  0  0  0  0  0
  187.4860  175.5230  136.5990 C   0  0  0  0  0  3  0  0  0  0  0  0
  187.8300  173.1680  136.7070 F   0  0  0  0  0  0  0  0  0  0  0  0
  189.1150  174.4520  135.1650 C   0  0  0  0  0  3  0  0  0  0  0  0
  188.1400  174.3690  136.1620 C   0  0  0  0  0  0  0  0  0  0  0  0
  189.4360  175.6920  134.6040 C   0  0  0  0  0  3  0  0  0  0  0  0
  182.6250  182.0010  138.7380 O   0  0  0  0  0  1  0  0  0  0  0  0
  181.3880  181.3570  138.7120 C   0  0  0  0  0  2  0  0  0  0  0  0
  2 24  1  1  0  0  0
  3  9  1  0  0  0  0
  4 37  1  6  0  0  0
  4  1  1  0  0  0  0
  6 22  1  0  0  0  0
  7  3  1  1  0  0  0
  7 21  1  0  0  0  0
  8 26  1  6  0  0  0
  8 18  1  0  0  0  0
  8 12  1  0  0  0  0
  9 13  1  0  0  0  0
  9  6  1  1  0  0  0
 10  5  1  6  0  0  0
 10  7  1  0  0  0  0
 11  6  2  0  0  0  0
 12  4  1  0  0  0  0
 13 17  1  1  0  0  0
 14  2  1  0  0  0  0
 15 20  1  0  0  0  0
 16 11  1  0  0  0  0
 17  2  1  0  0  0  0
 18 19  1  1  0  0  0
 18 25  1  0  0  0  0
 19  5  1  0  0  0  0
 20  3  1  0  0  0  0
 20 16  2  0  0  0  0
 21 27  1  6  0  0  0
 21 13  1  0  0  0  0
 22  2  1  0  0  0  0
 23 30  1  1  0  0  0
 23 28  1  0  0  0  0
 23 10  1  0  0  0  0
 25 27  1  0  0  0  0
 27  1  2  0  0  0  0
 28 15  1  0  0  0  0
 29 30  1  0  0  0  0
 30 31  2  0  0  0  0
 33 34  2  0  0  0  0
 34 31  1  0  0  0  0
 34 32  1  0  0  0  0
 35 29  2  0  0  0  0
 35 33  1  0  0  0  0
 37 36  1  0  0  0  0
M  END
>  <MODEL>
3

>  <REMARK>
 VINA RESULT:      -5.7      3.270      6.795
  Name = 
  2 active torsions:
  status: ('A' for Active; 'I' for Inactive)
    1  A    between atoms: C_4  and  C_37
    2  A    between atoms: C_23  and  C_30
                            x       y       z     vdW  Elec       q    Type
                         _______ _______ _______ _____ _____    ______ ____

>  <TORSDO>
F 2

$$$$
=
 OpenBabel11122411273D

 37 43  0  0  1  0  0  0  0  0999 V2000
  184.9020  177.7770  140.0110 C   0  0  0  0  0  3  0  0  0  0  0  0
  188.8690  178.0540  137.2970 C   0  0  1  0  0  0  0  0  0  0  0  0
  188.9860  177.3370  141.4870 N   0  0  0  0  0  0  0  0  0  0  0  0
  183.4040  177.8050  139.8980 C   0  0  2  0  0  3  0  0  0  0  0  0
  186.0910  178.3510  143.7700 C   0  0  0  0  0  2  0  0  0  0  0  0
  190.1240  177.2090  139.3740 C   0  0  0  0  0  0  0  0  0  0  0  0
  187.8820  178.1490  141.9920 C   0  0  2  0  0  3  0  0  0  0  0  0
  182.7620  178.9190  142.0620 C   0  0  2  0  0  3  0  0  0  0  0  0
  188.9930  177.3600  140.0740 C   0  0  2  0  0  3  0  0  0  0  0  0
  187.0050  177.3900  143.0170 C   0  0  1  0  0  3  0  0  0  0  0  0
  191.3750  176.9370  140.1000 C   0  0  0  0  0  3  0  0  0  0  0  0
  182.7360  177.6170  141.2540 C   0  0  0  0  0  2  0  0  0  0  0  0
  187.7360  177.8890  139.5130 C   0  0  2  0  0  3  0  0  0  0  0  0
  188.1540  176.9610  136.8030 O   0  0  0  0  0  1  0  0  0  0  0  0
  189.9320  175.6020  142.9840 C   0  0  0  0  0  2  0  0  0  0  0  0
  191.4000  176.8280  141.4340 C   0  0  0  0  0  3  0  0  0  0  0  0
  188.0190  178.8060  138.3280 C   0  0  0  0  0  2  0  0  0  0  0  0
  184.0890  179.2440  142.6060 N   0  0  1  0  0  0  0  0  0  0  0  0
  184.6560  178.1010  143.3440 C   0  0  0  0  0  2  0  0  0  0  0  0
  190.1560  176.9410  142.2820 C   0  0  0  0  0  0  0  0  0  0  0  0
  187.1350  178.6390  140.7080 C   0  0  1  0  0  3  0  0  0  0  0  0
  190.1950  177.5630  137.9070 C   0  0  0  0  0  2  0  0  0  0  0  0
  187.7600  176.5110  144.0330 C   0  0  1  0  0  3  0  0  0  0  0  0
  189.1820  178.9900  136.1480 C   0  0  0  0  0  1  0  0  0  0  0  0
  184.9480  179.7530  141.5200 C   0  0  0  0  0  2  0  0  0  0  0  0
  181.7280  178.8660  143.1730 C   0  0  0  0  0  1  0  0  0  0  0  0
  185.6200  178.6650  140.7210 C   0  0  0  0  0  0  0  0  0  0  0  0
  188.4850  175.3230  143.4010 C   0  0  0  0  0  2  0  0  0  0  0  0
  189.6450  177.9550  144.8320 C   0  0  0  0  0  3  0  0  0  0  0  0
  188.5060  177.2050  145.1450 C   0  0  0  0  0  0  0  0  0  0  0  0
  188.0750  177.1340  146.4800 C   0  0  0  0  0  3  0  0  0  0  0  0
  188.3590  177.7250  148.7700 F   0  0  0  0  0  0  0  0  0  0  0  0
  189.9180  178.5440  147.1650 C   0  0  0  0  0  3  0  0  0  0  0  0
  188.7800  177.7990  147.4850 C   0  0  0  0  0  0  0  0  0  0  0  0
  190.3510  178.6220  145.8370 C   0  0  0  0  0  3  0  0  0  0  0  0
  182.2960  175.7050  139.6600 O   0  0  0  0  0  1  0  0  0  0  0  0
  182.9650  176.7030  138.9520 C   0  0  0  0  0  2  0  0  0  0  0  0
  1 27  2  0  0  0  0
  2 24  1  6  0  0  0
  2 22  1  0  0  0  0
  2 17  1  0  0  0  0
  3 20  1  0  0  0  0
  4 37  1  6  0  0  0
  4  1  1  0  0  0  0
  4 12  1  0  0  0  0
  6 11  2  0  0  0  0
  7  3  1  6  0  0  0
  7 10  1  0  0  0  0
  8 18  1  0  0  0  0
  8 26  1  1  0  0  0
  9  6  1  1  0  0  0
  9  3  1  0  0  0  0
 10  5  1  1  0  0  0
 10 23  1  0  0  0  0
 11 16  1  0  0  0  0
 12  8  1  0  0  0  0
 13 17  1  6  0  0  0
 13  9  1  0  0  0  0
 13 21  1  0  0  0  0
 14  2  1  0  0  0  0
 15 28  1  0  0  0  0
 16 20  2  0  0  0  0
 18 25  1  6  0  0  0
 18 19  1  0  0  0  0
 19  5  1  0  0  0  0
 20 15  1  0  0  0  0
 21 27  1  1  0  0  0
 21  7  1  0  0  0  0
 22  6  1  0  0  0  0
 23 30  1  6  0  0  0
 27 25  1  0  0  0  0
 28 23  1  0  0  0  0
 29 30  2  0  0  0  0
 29 35  1  0  0  0  0
 30 31  1  0  0  0  0
 31 34  2  0  0  0  0
 33 34  1  0  0  0  0
 34 32  1  0  0  0  0
 35 33  2  0  0  0  0
 37 36  1  0  0  0  0
M  END
>  <MODEL>
4

>  <REMARK>
 VINA RESULT:      -5.5      3.302      8.262
  Name = 
  2 active torsions:
  status: ('A' for Active; 'I' for Inactive)
    1  A    between atoms: C_4  and  C_37
    2  A    between atoms: C_23  and  C_30
                            x       y       z     vdW  Elec       q    Type
                         _______ _______ _______ _____ _____    ______ ____

>  <TORSDO>
F 2

$$$$
=
 OpenBabel11122411273D

 37 43  0  0  1  0  0  0  0  0999 V2000
  183.0350  179.5310  138.5900 C   0  0  0  0  0  3  0  0  0  0  0  0
  187.5800  178.4280  137.4500 C   0  0  1  0  0  0  0  0  0  0  0  0
  184.3020  175.8560  136.6040 N   0  0  0  0  0  0  0  0  0  0  0  0
  182.2150  180.6420  139.1810 C   0  0  2  0  0  3  0  0  0  0  0  0
  181.0210  176.0940  138.5540 C   0  0  0  0  0  2  0  0  0  0  0  0
  186.5780  176.4660  136.1290 C   0  0  0  0  0  0  0  0  0  0  0  0
  183.4220  176.0530  137.7540 C   0  0  2  0  0  3  0  0  0  0  0  0
  180.4190  179.3520  140.3820 C   0  0  2  0  0  3  0  0  0  0  0  0
  185.3880  176.7580  136.6690 C   0  0  2  0  0  3  0  0  0  0  0  0
  181.9400  176.2350  137.3460 C   0  0  1  0  0  3  0  0  0  0  0  0
  186.7260  175.2050  135.3850 C   0  0  0  0  0  3  0  0  0  0  0  0
  180.7330  180.2890  139.2120 C   0  0  0  0  0  2  0  0  0  0  0  0
  185.1650  177.8380  137.6490 C   0  0  2  0  0  3  0  0  0  0  0  0
  187.2820  179.5810  136.7220 O   0  0  0  0  0  1  0  0  0  0  0  0
  183.3570  174.7570  134.5940 C   0  0  0  0  0  2  0  0  0  0  0  0
  185.7010  174.3590  135.2300 C   0  0  0  0  0  3  0  0  0  0  0  0
  186.4420  178.1260  138.4320 C   0  0  0  0  0  2  0  0  0  0  0  0
  180.8840  177.9730  140.1690 N   0  0  1  0  0  0  0  0  0  0  0  0
  180.4170  177.4480  138.8730 C   0  0  0  0  0  2  0  0  0  0  0  0
  184.3220  174.6450  135.7730 C   0  0  0  0  0  0  0  0  0  0  0  0
  184.0530  177.2560  138.5290 C   0  0  1  0  0  3  0  0  0  0  0  0
  187.8160  177.2570  136.4790 C   0  0  0  0  0  2  0  0  0  0  0  0
  181.4330  175.3190  136.2150 C   0  0  1  0  0  3  0  0  0  0  0  0
  188.8520  178.6670  138.2380 C   0  0  0  0  0  1  0  0  0  0  0  0
  182.3460  177.9200  140.3550 C   0  0  0  0  0  2  0  0  0  0  0  0
  178.9310  179.3720  140.6850 C   0  0  0  0  0  1  0  0  0  0  0  0
  183.1260  178.2990  139.1210 C   0  0  0  0  0  0  0  0  0  0  0  0
  182.0970  175.5840  134.8640 C   0  0  0  0  0  2  0  0  0  0  0  0
  179.8820  173.3740  136.5100 C   0  0  0  0  0  3  0  0  0  0  0  0
  181.1920  173.8670  136.5420 C   0  0  0  0  0  0  0  0  0  0  0  0
  182.2470  172.9950  136.8540 C   0  0  0  0  0  3  0  0  0  0  0  0
  183.0150  170.8170  137.4400 F   0  0  0  0  0  0  0  0  0  0  0  0
  180.6810  171.1680  137.1080 C   0  0  0  0  0  3  0  0  0  0  0  0
  181.9920  171.6510  137.1380 C   0  0  0  0  0  0  0  0  0  0  0  0
  179.6260  172.0300  136.7940 C   0  0  0  0  0  3  0  0  0  0  0  0
  181.1950  182.4440  137.9930 O   0  0  0  0  0  1  0  0  0  0  0  0
  182.4260  181.8980  138.3560 C   0  0  0  0  0  2  0  0  0  0  0  0
  1 27  2  0  0  0  0
  1  4  1  0  0  0  0
  2 24  1  1  0  0  0
  2 17  1  0  0  0  0
  3  9  1  0  0  0  0
  4 37  1  6  0  0  0
  4 12  1  0  0  0  0
  5 19  1  0  0  0  0
  6 22  1  0  0  0  0
  7  3  1  6  0  0  0
  7 21  1  0  0  0  0
  8 26  1  6  0  0  0
  9  6  1  1  0  0  0
  9 13  1  0  0  0  0
 10  7  1  0  0  0  0
 10  5  1  1  0  0  0
 11  6  2  0  0  0  0
 12  8  1  0  0  0  0
 13 17  1  1  0  0  0
 13 21  1  0  0  0  0
 14  2  1  0  0  0  0
 15 28  1  0  0  0  0
 15 20  1  0  0  0  0
 16 11  1  0  0  0  0
 16 20  2  0  0  0  0
 18 19  1  6  0  0  0
 18 25  1  0  0  0  0
 18  8  1  0  0  0  0
 20  3  1  0  0  0  0
 21 27  1  6  0  0  0
 22  2  1  0  0  0  0
 23 30  1  1  0  0  0
 23 10  1  0  0  0  0
 27 25  1  0  0  0  0
 28 23  1  0  0  0  0
 29 30  2  0  0  0  0
 29 35  1  0  0  0  0
 30 31  1  0  0  0  0
 31 34  2  0  0  0  0
 33 34  1  0  0  0  0
 34 32  1  0  0  0  0
 35 33  2  0  0  0  0
 36 37  1  0  0  0  0
M  END
>  <MODEL>
5

>  <REMARK>
 VINA RESULT:      -5.2      4.470      8.017
  Name = 
  2 active torsions:
  status: ('A' for Active; 'I' for Inactive)
    1  A    between atoms: C_4  and  C_37
    2  A    between atoms: C_23  and  C_30
                            x       y       z     vdW  Elec       q    Type
                         _______ _______ _______ _____ _____    ______ ____

>  <TORSDO>
F 2

$$$$
=
 OpenBabel11122411273D

 37 43  0  0  1  0  0  0  0  0999 V2000
  184.5020  177.4970  139.5070 C   0  0  0  0  0  3  0  0  0  0  0  0
  188.9520  178.1020  137.7710 C   0  0  1  0  0  0  0  0  0  0  0  0
  188.1370  177.6490  141.9200 N   0  0  0  0  0  0  0  0  0  0  0  0
  183.0810  177.3350  139.0480 C   0  0  2  0  0  3  0  0  0  0  0  0
  184.6890  178.4300  143.3750 C   0  0  0  0  0  2  0  0  0  0  0  0
  189.7550  177.5400  140.1450 C   0  0  0  0  0  0  0  0  0  0  0  0
  186.8640  178.3470  142.0840 C   0  0  2  0  0  3  0  0  0  0  0  0
  181.8250  178.4840  140.9020 C   0  0  2  0  0  3  0  0  0  0  0  0
  188.4800  177.5900  140.5490 C   0  0  2  0  0  3  0  0  0  0  0  0
  185.8530  177.5470  142.9400 C   0  0  1  0  0  3  0  0  0  0  0  0
  190.8170  177.4660  141.1620 C   0  0  0  0  0  3  0  0  0  0  0  0
  182.1310  177.1450  140.2250 C   0  0  0  0  0  2  0  0  0  0  0  0
  187.3450  177.9280  139.6700 C   0  0  2  0  0  3  0  0  0  0  0  0
  188.4960  176.9030  137.2200 O   0  0  0  0  0  1  0  0  0  0  0  0
  188.8740  176.1330  143.7360 C   0  0  0  0  0  2  0  0  0  0  0  0
  190.5330  177.4380  142.4690 C   0  0  0  0  0  3  0  0  0  0  0  0
  187.8050  178.8030  138.5090 C   0  0  0  0  0  2  0  0  0  0  0  0
  182.9410  179.0010  141.7090 N   0  0  1  0  0  0  0  0  0  0  0  0
  183.4330  177.9810  142.6520 C   0  0  0  0  0  2  0  0  0  0  0  0
  189.1170  177.4460  142.9940 C   0  0  0  0  0  0  0  0  0  0  0  0
  186.3990  178.6660  140.6250 C   0  0  1  0  0  3  0  0  0  0  0  0
  190.1370  177.8140  138.7100 C   0  0  0  0  0  2  0  0  0  0  0  0
  186.4310  176.8270  144.1730 C   0  0  1  0  0  3  0  0  0  0  0  0
  189.4300  179.0010  136.6500 C   0  0  0  0  0  1  0  0  0  0  0  0
  183.9760  179.5490  140.8110 C   0  0  0  0  0  2  0  0  0  0  0  0
  180.5660  178.3700  141.7440 C   0  0  0  0  0  1  0  0  0  0  0  0
  184.9310  178.5070  140.2850 C   0  0  0  0  0  0  0  0  0  0  0  0
  187.4080  175.7030  143.8300 C   0  0  0  0  0  2  0  0  0  0  0  0
  185.9090  178.6360  145.8270 C   0  0  0  0  0  3  0  0  0  0  0  0
  186.8110  177.6700  145.3650 C   0  0  0  0  0  0  0  0  0  0  0  0
  188.0330  177.4960  146.0330 C   0  0  0  0  0  3  0  0  0  0  0  0
  189.5310  178.1100  147.7810 F   0  0  0  0  0  0  0  0  0  0  0  0
  187.4450  179.2480  147.5950 C   0  0  0  0  0  3  0  0  0  0  0  0
  188.3490  178.2830  147.1430 C   0  0  0  0  0  0  0  0  0  0  0  0
  186.2240  179.4240  146.9370 C   0  0  0  0  0  3  0  0  0  0  0  0
  181.9420  175.3100  138.5040 O   0  0  0  0  0  1  0  0  0  0  0  0
  183.0000  176.1340  138.1240 C   0  0  0  0  0  2  0  0  0  0  0  0
  1 27  2  0  0  0  0
  2 24  1  6  0  0  0
  2 17  1  0  0  0  0
  2 22  1  0  0  0  0
  3 20  1  0  0  0  0
  4 37  1  6  0  0  0
  4  1  1  0  0  0  0
  4 12  1  0  0  0  0
  6 11  2  0  0  0  0
  7  3  1  6  0  0  0
  7 10  1  0  0  0  0
  8 18  1  0  0  0  0
  8 26  1  1  0  0  0
  9  6  1  1  0  0  0
  9  3  1  0  0  0  0
 10  5  1  1  0  0  0
 10 23  1  0  0  0  0
 11 16  1  0  0  0  0
 12  8  1  0  0  0  0
 13 17  1  6  0  0  0
 13  9  1  0  0  0  0
 13 21  1  0  0  0  0
 14  2  1  0  0  0  0
 15 28  1  0  0  0  0
 16 20  2  0  0  0  0
 18 25  1  6  0  0  0
 18 19  1  0  0  0  0
 19  5  1  0  0  0  0
 20 15  1  0  0  0  0
 21 27  1  1  0  0  0
 21  7  1  0  0  0  0
 22  6  1  0  0  0  0
 23 30  1  1  0  0  0
 27 25  1  0  0  0  0
 28 23  1  0  0  0  0
 29 35  1  0  0  0  0
 30 29  2  0  0  0  0
 30 31  1  0  0  0  0
 31 34  2  0  0  0  0
 34 33  1  0  0  0  0
 34 32  1  0  0  0  0
 35 33  2  0  0  0  0
 37 36  1  0  0  0  0
M  END
>  <MODEL>
6

>  <REMARK>
 VINA RESULT:      -5.0      3.225      7.857
  Name = 
  2 active torsions:
  status: ('A' for Active; 'I' for Inactive)
    1  A    between atoms: C_4  and  C_37
    2  A    between atoms: C_23  and  C_30
                            x       y       z     vdW  Elec       q    Type
                         _______ _______ _______ _____ _____    ______ ____

>  <TORSDO>
F 2

$$$$
=
 OpenBabel11122411273D

 37 43  0  0  1  0  0  0  0  0999 V2000
  187.5810  177.5890  139.5210 C   0  0  0  0  0  3  0  0  0  0  0  0
  185.0280  179.2540  143.2480 C   0  0  1  0  0  0  0  0  0  0  0  0
  183.2220  177.6840  139.7320 N   0  0  0  0  0  0  0  0  0  0  0  0
  188.9990  177.3350  139.0960 C   0  0  2  0  0  3  0  0  0  0  0  0
  185.1000  177.5660  136.4040 C   0  0  0  0  0  2  0  0  0  0  0  0
  182.9830  178.2530  142.0560 C   0  0  0  0  0  0  0  0  0  0  0  0
  184.1260  178.1240  138.6720 C   0  0  2  0  0  3  0  0  0  0  0  0
  188.8700  177.7980  136.6260 C   0  0  2  0  0  3  0  0  0  0  0  0
  183.7650  178.0140  140.9950 C   0  0  2  0  0  3  0  0  0  0  0  0
  184.4500  176.9980  137.6610 C   0  0  1  0  0  3  0  0  0  0  0  0
  181.5280  178.0910  141.9120 C   0  0  0  0  0  3  0  0  0  0  0  0
  189.0660  176.7250  137.7020 C   0  0  0  0  0  2  0  0  0  0  0  0
  185.1900  178.3840  140.9160 C   0  0  2  0  0  3  0  0  0  0  0  0
  185.7550  178.1710  143.7470 O   0  0  0  0  0  1  0  0  0  0  0  0
  181.5900  175.8970  139.2000 C   0  0  0  0  0  2  0  0  0  0  0  0
  180.9770  177.7030  140.7560 C   0  0  0  0  0  3  0  0  0  0  0  0
  185.4890  179.5740  141.8210 C   0  0  0  0  0  2  0  0  0  0  0  0
  187.4800  178.2610  136.5070 N   0  0  1  0  0  0  0  0  0  0  0  0
  186.5520  177.1260  136.3590 C   0  0  0  0  0  2  0  0  0  0  0  0
  181.8000  177.3730  139.5340 C   0  0  0  0  0  0  0  0  0  0  0  0
  185.3590  178.7170  139.4290 C   0  0  1  0  0  3  0  0  0  0  0  0
  183.5240  178.9230  143.2960 C   0  0  0  0  0  2  0  0  0  0  0  0
  183.2710  176.0930  137.2560 C   0  0  1  0  0  3  0  0  0  0  0  0
  185.2870  180.4600  144.1260 C   0  0  0  0  0  1  0  0  0  0  0  0
  187.1690  179.1580  137.6350 C   0  0  0  0  0  2  0  0  0  0  0  0
  189.3820  177.2960  135.2870 C   0  0  0  0  0  1  0  0  0  0  0  0
  186.7450  178.4300  138.8860 C   0  0  0  0  0  0  0  0  0  0  0  0
  182.7230  175.2450  138.4030 C   0  0  0  0  0  2  0  0  0  0  0  0
  181.4580  175.7910  135.5520 C   0  0  0  0  0  3  0  0  0  0  0  0
  182.2320  176.6660  136.3240 C   0  0  0  0  0  0  0  0  0  0  0  0
  182.0090  178.0490  136.2280 C   0  0  0  0  0  3  0  0  0  0  0  0
  180.8210  179.8820  135.2780 F   0  0  0  0  0  0  0  0  0  0  0  0
  180.2630  177.6680  134.5960 C   0  0  0  0  0  3  0  0  0  0  0  0
  181.0300  178.5470  135.3660 C   0  0  0  0  0  0  0  0  0  0  0  0
  180.4780  176.2890  134.6900 C   0  0  0  0  0  3  0  0  0  0  0  0
  189.6860  176.9980  141.3570 O   0  0  0  0  0  1  0  0  0  0  0  0
  189.6480  176.3990  140.0980 C   0  0  0  0  0  2  0  0  0  0  0  0
  2 22  1  0  0  0  0
  2 14  1  0  0  0  0
  2 24  1  1  0  0  0
  3  9  1  0  0  0  0
  4  1  1  0  0  0  0
  4 37  1  1  0  0  0
  6 22  1  0  0  0  0
  7 21  1  0  0  0  0
  7  3  1  1  0  0  0
  8 26  1  6  0  0  0
  8 12  1  0  0  0  0
  9  6  1  6  0  0  0
 10  5  1  6  0  0  0
 10  7  1  0  0  0  0
 11  6  2  0  0  0  0
 12  4  1  0  0  0  0
 13  9  1  0  0  0  0
 13 17  1  1  0  0  0
 15 20  1  0  0  0  0
 16 11  1  0  0  0  0
 17  2  1  0  0  0  0
 18 19  1  1  0  0  0
 18  8  1  0  0  0  0
 18 25  1  0  0  0  0
 19  5  1  0  0  0  0
 20  3  1  0  0  0  0
 20 16  2  0  0  0  0
 21 27  1  6  0  0  0
 21 13  1  0  0  0  0
 23 30  1  1  0  0  0
 23 10  1  0  0  0  0
 23 28  1  0  0  0  0
 25 27  1  0  0  0  0
 27  1  2  0  0  0  0
 28 15  1  0  0  0  0
 29 30  1  0  0  0  0
 31 30  2  0  0  0  0
 32 34  1  0  0  0  0
 33 35  1  0  0  0  0
 33 34  2  0  0  0  0
 34 31  1  0  0  0  0
 35 29  2  0  0  0  0
 37 36  1  0  0  0  0
M  END
>  <MODEL>
7

>  <REMARK>
 VINA RESULT:      -4.8      1.956      2.827
  Name = 
  2 active torsions:
  status: ('A' for Active; 'I' for Inactive)
    1  A    between atoms: C_4  and  C_37
    2  A    between atoms: C_23  and  C_30
                            x       y       z     vdW  Elec       q    Type
                         _______ _______ _______ _____ _____    ______ ____

>  <TORSDO>
F 2

$$$$
=
 OpenBabel11122411273D

 37 43  0  0  1  0  0  0  0  0999 V2000
  187.0950  177.6650  141.6700 C   0  0  0  0  0  3  0  0  0  0  0  0
  183.4550  178.8920  138.7680 C   0  0  1  0  0  0  0  0  0  0  0  0
  186.8880  176.7900  137.3980 N   0  0  0  0  0  0  0  0  0  0  0  0
  187.5070  177.7150  143.1130 C   0  0  2  0  0  3  0  0  0  0  0  0
  190.2070  176.9350  139.2910 C   0  0  0  0  0  2  0  0  0  0  0  0
  184.5960  177.4030  137.0130 C   0  0  0  0  0  0  0  0  0  0  0  0
  187.9690  177.3700  138.1920 C   0  0  2  0  0  3  0  0  0  0  0  0
  189.9970  178.0170  142.9110 C   0  0  2  0  0  3  0  0  0  0  0  0
  185.6430  177.2940  137.8400 C   0  0  2  0  0  3  0  0  0  0  0  0
  188.9230  176.2980  138.7710 C   0  0  1  0  0  3  0  0  0  0  0  0
  184.7310  176.9120  135.6320 C   0  0  0  0  0  3  0  0  0  0  0  0
  188.8690  177.0680  143.3300 C   0  0  0  0  0  2  0  0  0  0  0  0
  185.7410  177.9700  139.1460 C   0  0  2  0  0  3  0  0  0  0  0  0
  182.9030  178.0260  139.7140 O   0  0  0  0  0  1  0  0  0  0  0  0
  187.3310  174.6590  136.2130 C   0  0  0  0  0  2  0  0  0  0  0  0
  185.8660  176.3550  135.1950 C   0  0  0  0  0  3  0  0  0  0  0  0
  184.8960  179.2390  139.1610 C   0  0  0  0  0  2  0  0  0  0  0  0
  190.1390  178.1510  141.4530 N   0  0  1  0  0  0  0  0  0  0  0  0
  190.2300  176.8310  140.8050 C   0  0  0  0  0  2  0  0  0  0  0  0
  187.0700  176.1590  136.0840 C   0  0  0  0  0  0  0  0  0  0  0  0
  187.2430  178.2600  139.2530 C   0  0  1  0  0  3  0  0  0  0  0  0
  183.3900  178.2360  137.3760 C   0  0  0  0  0  2  0  0  0  0  0  0
  189.2820  175.1330  137.8290 C   0  0  1  0  0  3  0  0  0  0  0  0
  182.6370  180.1670  138.7410 C   0  0  0  0  0  1  0  0  0  0  0  0
  189.0560  179.0090  140.9370 C   0  0  0  0  0  2  0  0  0  0  0  0
  191.3100  177.5780  143.5370 C   0  0  0  0  0  1  0  0  0  0  0  0
  187.7710  178.2660  140.6730 C   0  0  0  0  0  0  0  0  0  0  0  0
  188.0950  174.2400  137.4730 C   0  0  0  0  0  2  0  0  0  0  0  0
  189.9500  176.4510  135.8050 C   0  0  0  0  0  3  0  0  0  0  0  0
  190.2410  175.4130  136.6990 C   0  0  0  0  0  0  0  0  0  0  0  0
  191.4250  174.6750  136.5350 C   0  0  0  0  0  3  0  0  0  0  0  0
  193.4380  174.2520  135.3330 F   0  0  0  0  0  0  0  0  0  0  0  0
  192.0000  176.0040  134.5960 C   0  0  0  0  0  3  0  0  0  0  0  0
  192.2990  174.9690  135.4860 C   0  0  0  0  0  0  0  0  0  0  0  0
  190.8250  176.7450  134.7560 C   0  0  0  0  0  3  0  0  0  0  0  0
  186.5020  177.4530  145.2620 O   0  0  0  0  0  1  0  0  0  0  0  0
  186.4600  176.9970  143.9450 C   0  0  0  0  0  2  0  0  0  0  0  0
  1  4  1  0  0  0  0
  2 24  1  6  0  0  0
  2 17  1  0  0  0  0
  2 14  1  0  0  0  0
  3  9  1  0  0  0  0
  4 12  1  0  0  0  0
  4 37  1  1  0  0  0
  5 19  1  0  0  0  0
  6 22  1  0  0  0  0
  7  3  1  1  0  0  0
  7 10  1  0  0  0  0
  7 21  1  0  0  0  0
  8 12  1  0  0  0  0
  8 26  1  6  0  0  0
  9  6  1  6  0  0  0
  9 13  1  0  0  0  0
 10  5  1  6  0  0  0
 11  6  2  0  0  0  0
 13 17  1  6  0  0  0
 13 21  1  0  0  0  0
 15 28  1  0  0  0  0
 16 11  1  0  0  0  0
 16 20  2  0  0  0  0
 18 19  1  6  0  0  0
 18  8  1  0  0  0  0
 20 15  1  0  0  0  0
 20  3  1  0  0  0  0
 21 27  1  1  0  0  0
 22  2  1  0  0  0  0
 23 30  1  6  0  0  0
 23 10  1  0  0  0  0
 25 18  1  0  0  0  0
 27 25  1  0  0  0  0
 27  1  2  0  0  0  0
 28 23  1  0  0  0  0
 29 30  1  0  0  0  0
 31 30  2  0  0  0  0
 32 34  1  0  0  0  0
 33 35  1  0  0  0  0
 33 34  2  0  0  0  0
 34 31  1  0  0  0  0
 35 29  2  0  0  0  0
 37 36  1  0  0  0  0
M  END
>  <MODEL>
8

>  <REMARK>
 VINA RESULT:      -4.6      3.583      7.103
  Name = 
  2 active torsions:
  status: ('A' for Active; 'I' for Inactive)
    1  A    between atoms: C_4  and  C_37
    2  A    between atoms: C_23  and  C_30
                            x       y       z     vdW  Elec       q    Type
                         _______ _______ _______ _____ _____    ______ ____

>  <TORSDO>
F 2

$$$$
