=
 OpenBabel11122411503D

 28 32  0  0  1  0  0  0  0  0999 V2000
  188.0750  177.1540  142.4350 C   0  0  0  0  0  0  0  0  0  0  0  0
  186.4930  178.4870  138.1090 O   0  0  0  0  0  0  0  0  0  0  0  0
  193.6810  177.8780  139.8430 O   0  0  0  0  0  0  0  0  0  0  0  0
  186.0540  178.9940  141.7950 C   0  0  0  0  0  3  0  0  0  0  0  0
  192.0900  176.4330  138.8920 N   0  0  0  0  0  0  0  0  0  0  0  0
  189.1690  176.2790  142.9540 C   0  0  0  0  0  2  0  0  0  0  0  0
  188.7090  179.5430  137.8730 O   0  0  0  0  0  0  0  0  0  0  0  0
  187.9410  178.2530  137.7850 S   0  0  0  0  0  0  0  0  0  0  0  0
  188.7420  176.3700  135.9370 C   0  0  0  0  0  0  0  0  0  0  0  0
  188.6120  177.0630  138.8600 N   0  0  1  0  0  0  0  0  0  0  0  0
  191.9190  178.3900  144.1340 O   0  0  0  0  0  0  0  0  0  0  0  0
  190.3440  176.7530  140.4650 C   0  0  1  0  0  3  0  0  0  0  0  0
  189.4010  175.6060  137.0530 C   0  0  0  0  0  2  0  0  0  0  0  0
  188.0570  177.6070  136.1810 N   0  0  0  0  0  2  0  0  0  0  0  0
  191.3430  177.5170  143.4340 C   0  0  0  0  0  0  0  0  0  0  0  0
  188.1080  177.8230  141.1730 C   0  0  0  0  0  0  0  0  0  0  0  0
  192.5430  177.3350  139.8790 C   0  0  0  0  0  0  0  0  0  0  0  0
  188.7710  175.9000  134.7710 O   0  0  0  0  0  0  0  0  0  0  0  0
  192.0550  176.9610  142.2430 C   0  0  0  0  0  2  0  0  0  0  0  0
  187.0950  178.7550  140.8990 C   0  0  0  0  0  3  0  0  0  0  0  0
  187.0200  177.4040  143.3250 C   0  0  0  0  0  3  0  0  0  0  0  0
  186.0110  178.3090  143.0060 C   0  0  0  0  0  3  0  0  0  0  0  0
  190.0410  177.0630  143.8160 N   0  0  0  0  0  2  0  0  0  0  0  0
  190.7360  176.0070  139.1870 C   0  0  1  0  0  3  0  0  0  0  0  0
  191.5470  177.5720  140.9460 C   0  0  2  0  0  3  0  0  0  0  0  0
  189.7870  176.5720  138.1600 C   0  0  2  0  0  3  0  0  0  0  0  0
  192.8950  175.9270  137.7920 C   0  0  0  0  0  1  0  0  0  0  0  0
  189.1660  177.6470  140.0860 C   0  0  2  0  0  3  0  0  0  0  0  0
  1  6  1  0  0  0  0
  1 21  1  0  0  0  0
  3 17  2  0  0  0  0
  4 22  1  0  0  0  0
  5 24  1  0  0  0  0
  5 17  1  0  0  0  0
  6 23  1  0  0  0  0
  8  7  2  0  0  0  0
  8  2  2  0  0  0  0
  9 14  1  0  0  0  0
  9 13  1  0  0  0  0
 10  8  1  6  0  0  0
 10 28  1  0  0  0  0
 12 25  1  0  0  0  0
 13 26  1  0  0  0  0
 14  8  1  0  0  0  0
 15 23  1  0  0  0  0
 15 11  2  0  0  0  0
 16  1  2  0  0  0  0
 17 25  1  0  0  0  0
 18  9  2  0  0  0  0
 19 15  1  0  0  0  0
 20 16  1  0  0  0  0
 20  4  2  0  0  0  0
 22 21  2  0  0  0  0
 24 12  1  0  0  0  0
 25 19  1  0  0  0  0
 26 10  1  0  0  0  0
 26 24  1  0  0  0  0
 27  5  1  0  0  0  0
 28 12  1  0  0  0  0
 28 16  1  0  0  0  0
M  END
>  <MODEL>
1

>  <REMARK>
 VINA RESULT:      -9.3      0.000      0.000
  Name = 
  0 active torsions:
  status: ('A' for Active; 'I' for Inactive)
                            x       y       z     vdW  Elec       q    Type
                         _______ _______ _______ _____ _____    ______ ____

>  <TORSDO>
F 0

$$$$
=
 OpenBabel11122411503D

 28 32  0  0  1  0  0  0  0  0999 V2000
  185.6920  179.2110  145.5240 C   0  0  0  0  0  0  0  0  0  0  0  0
  189.5640  176.6990  144.2210 O   0  0  0  0  0  0  0  0  0  0  0  0
  183.3630  177.0820  140.1650 O   0  0  0  0  0  0  0  0  0  0  0  0
  187.2710  177.4880  147.0780 C   0  0  0  0  0  3  0  0  0  0  0  0
  185.3770  178.2910  140.2080 N   0  0  0  0  0  0  0  0  0  0  0  0
  184.7000  180.0870  144.8310 C   0  0  0  0  0  2  0  0  0  0  0  0
  187.9790  175.3960  142.8520 O   0  0  0  0  0  0  0  0  0  0  0  0
  188.7930  176.6580  142.9320 S   0  0  0  0  0  0  0  0  0  0  0  0
  189.7910  177.7290  140.5950 C   0  0  0  0  0  0  0  0  0  0  0  0
  187.7720  178.0590  142.7980 N   0  0  1  0  0  0  0  0  0  0  0  0
  181.5970  178.2050  144.3360 O   0  0  0  0  0  0  0  0  0  0  0  0
  185.4910  178.6960  142.5430 C   0  0  1  0  0  3  0  0  0  0  0  0
  188.6820  178.7440  140.6280 C   0  0  0  0  0  2  0  0  0  0  0  0
  189.9120  176.7220  141.6100 N   0  0  0  0  0  2  0  0  0  0  0  0
  182.6260  178.8540  144.0120 C   0  0  0  0  0  0  0  0  0  0  0  0
  186.4240  178.1630  144.8860 C   0  0  0  0  0  0  0  0  0  0  0  0
  184.2350  177.7230  140.8120 C   0  0  0  0  0  0  0  0  0  0  0  0
  190.6440  177.7820  139.6720 O   0  0  0  0  0  0  0  0  0  0  0  0
  183.0240  178.9070  142.5720 C   0  0  0  0  0  2  0  0  0  0  0  0
  187.1830  177.3060  145.6980 C   0  0  0  0  0  3  0  0  0  0  0  0
  185.7930  179.3820  146.9110 C   0  0  0  0  0  3  0  0  0  0  0  0
  186.5840  178.5350  147.6840 C   0  0  0  0  0  3  0  0  0  0  0  0
  183.3630  179.5440  145.0260 N   0  0  0  0  0  2  0  0  0  0  0  0
  186.2070  178.9320  141.2090 C   0  0  1  0  0  3  0  0  0  0  0  0
  184.1750  177.9590  142.2700 C   0  0  2  0  0  3  0  0  0  0  0  0
  187.4940  178.1630  141.3760 C   0  0  2  0  0  3  0  0  0  0  0  0
  185.6400  178.3180  138.7790 C   0  0  0  0  0  1  0  0  0  0  0  0
  186.4450  177.8570  143.3890 C   0  0  2  0  0  3  0  0  0  0  0  0
  1 21  1  0  0  0  0
  3 17  2  0  0  0  0
  4 22  1  0  0  0  0
  5 17  1  0  0  0  0
  5 24  1  0  0  0  0
  6 23  1  0  0  0  0
  6  1  1  0  0  0  0
  7  8  2  0  0  0  0
  8  2  2  0  0  0  0
  9 13  1  0  0  0  0
  9 14  1  0  0  0  0
 10  8  1  6  0  0  0
 10 28  1  0  0  0  0
 12 28  1  0  0  0  0
 13 26  1  0  0  0  0
 14  8  1  0  0  0  0
 15 11  2  0  0  0  0
 15 23  1  0  0  0  0
 16  1  2  0  0  0  0
 16 20  1  0  0  0  0
 17 25  1  0  0  0  0
 18  9  2  0  0  0  0
 19 15  1  0  0  0  0
 20  4  2  0  0  0  0
 21 22  2  0  0  0  0
 24 26  1  0  0  0  0
 24 12  1  0  0  0  0
 25 12  1  0  0  0  0
 25 19  1  0  0  0  0
 26 10  1  0  0  0  0
 27  5  1  0  0  0  0
 28 16  1  0  0  0  0
M  END
>  <MODEL>
2

>  <REMARK>
 VINA RESULT:      -8.5      3.532      6.520
  Name = 
  0 active torsions:
  status: ('A' for Active; 'I' for Inactive)
                            x       y       z     vdW  Elec       q    Type
                         _______ _______ _______ _____ _____    ______ ____

>  <TORSDO>
F 0

$$$$
=
 OpenBabel11122411503D

 28 32  0  0  1  0  0  0  0  0999 V2000
  190.5700  176.5540  139.4670 C   0  0  0  0  0  0  0  0  0  0  0  0
  192.2800  177.7680  143.7790 O   0  0  0  0  0  0  0  0  0  0  0  0
  185.6430  179.9060  141.2460 O   0  0  0  0  0  0  0  0  0  0  0  0
  193.1330  177.4760  140.1420 C   0  0  0  0  0  3  0  0  0  0  0  0
  186.4050  178.1010  142.5430 N   0  0  0  0  0  0  0  0  0  0  0  0
  189.2440  176.1370  138.9180 C   0  0  0  0  0  2  0  0  0  0  0  0
  190.7110  179.6640  143.6180 O   0  0  0  0  0  0  0  0  0  0  0  0
  190.8520  178.2020  143.9450 S   0  0  0  0  0  0  0  0  0  0  0  0
  189.2100  177.1240  145.8790 C   0  0  0  0  0  0  0  0  0  0  0  0
  189.8120  177.2430  142.9350 N   0  0  1  0  0  0  0  0  0  0  0  0
  187.7320  178.9830  137.1770 O   0  0  0  0  0  0  0  0  0  0  0  0
  188.2210  177.4290  141.1720 C   0  0  1  0  0  3  0  0  0  0  0  0
  188.3640  176.5360  144.7830 C   0  0  0  0  0  2  0  0  0  0  0  0
  190.3680  177.9170  145.5840 N   0  0  0  0  0  2  0  0  0  0  0  0
  187.8360  178.0690  138.0360 C   0  0  0  0  0  0  0  0  0  0  0  0
  190.7400  177.3640  140.6320 C   0  0  0  0  0  0  0  0  0  0  0  0
  186.4430  178.9460  141.4130 C   0  0  0  0  0  0  0  0  0  0  0  0
  188.9070  176.8920  147.0770 O   0  0  0  0  0  0  0  0  0  0  0  0
  186.8790  178.0450  139.1840 C   0  0  0  0  0  2  0  0  0  0  0  0
  192.0330  177.8270  140.9230 C   0  0  0  0  0  3  0  0  0  0  0  0
  191.6860  176.2090  138.6920 C   0  0  0  0  0  3  0  0  0  0  0  0
  192.9610  176.6570  139.0300 C   0  0  0  0  0  3  0  0  0  0  0  0
  188.8450  177.0680  137.8720 N   0  0  0  0  0  2  0  0  0  0  0  0
  187.4660  177.1160  142.4680 C   0  0  1  0  0  3  0  0  0  0  0  0
  187.5130  178.5850  140.4580 C   0  0  2  0  0  3  0  0  0  0  0  0
  188.4960  177.3930  143.5340 C   0  0  2  0  0  3  0  0  0  0  0  0
  185.3920  178.1450  143.5840 C   0  0  0  0  0  1  0  0  0  0  0  0
  189.6390  177.8070  141.5930 C   0  0  2  0  0  3  0  0  0  0  0  0
  1 16  1  0  0  0  0
  2  8  2  0  0  0  0
  3 17  2  0  0  0  0
  4 20  1  0  0  0  0
  5 27  1  0  0  0  0
  6  1  1  0  0  0  0
  7  8  2  0  0  0  0
  8 14  1  0  0  0  0
  9 18  2  0  0  0  0
 10 26  1  0  0  0  0
 10  8  1  1  0  0  0
 11 15  2  0  0  0  0
 12 28  1  0  0  0  0
 12 24  1  0  0  0  0
 13  9  1  0  0  0  0
 14  9  1  0  0  0  0
 15 19  1  0  0  0  0
 16 20  2  0  0  0  0
 16 28  1  0  0  0  0
 17  5  1  0  0  0  0
 19 25  1  0  0  0  0
 21 22  1  0  0  0  0
 21  1  2  0  0  0  0
 22  4  2  0  0  0  0
 23 15  1  0  0  0  0
 23  6  1  0  0  0  0
 24  5  1  0  0  0  0
 24 26  1  0  0  0  0
 25 12  1  0  0  0  0
 25 17  1  0  0  0  0
 26 13  1  0  0  0  0
 28 10  1  0  0  0  0
M  END
>  <MODEL>
3

>  <REMARK>
 VINA RESULT:      -7.6      2.241      6.876
  Name = 
  0 active torsions:
  status: ('A' for Active; 'I' for Inactive)
                            x       y       z     vdW  Elec       q    Type
                         _______ _______ _______ _____ _____    ______ ____

>  <TORSDO>
F 0

$$$$
