=
 OpenBabel11122412263D

 34 41  0  0  1  0  0  0  0  0999 V2000
  186.3590  178.0880  140.3530 C   0  0  2  0  0  3  0  0  0  0  0  0
  183.8690  178.1890  140.1990 C   0  0  0  0  0  2  0  0  0  0  0  0
  191.3710  178.1000  144.4360 C   0  0  2  0  0  3  0  0  0  0  0  0
  188.6540  177.4730  141.0530 C   0  0  1  0  0  3  0  0  0  0  0  0
  189.0290  177.8340  143.6020 C   0  0  2  0  0  3  0  0  0  0  0  0
  189.4950  178.2250  145.9160 O   0  0  0  0  0  1  0  0  0  0  0  0
  191.3440  179.4620  144.1230 O   0  0  0  0  0  1  0  0  0  0  0  0
  191.0680  177.1530  142.0410 C   0  0  1  0  0  3  0  0  0  0  0  0
  184.8060  179.1400  142.1870 C   0  0  2  0  0  3  0  0  0  0  0  0
  183.1390  179.4200  144.7430 C   0  0  0  0  0  2  0  0  0  0  0  0
  187.7180  177.2090  143.8240 N   0  0  0  0  0  2  0  0  0  0  0  0
  190.1580  176.1040  142.2960 O   0  0  0  0  0  0  0  0  0  0  0  0
  185.4460  178.1450  143.1950 C   0  0  1  0  0  3  0  0  0  0  0  0
  182.8640  178.3350  141.0520 C   0  0  0  0  0  2  0  0  0  0  0  0
  189.6060  177.3960  142.2430 C   0  0  2  0  0  0  0  0  0  0  0  0
  191.9700  177.3020  143.2780 C   0  0  0  0  0  2  0  0  0  0  0  0
  182.6140  178.6490  143.5380 C   0  0  2  0  0  3  0  0  0  0  0  0
  187.3600  178.1610  141.4900 C   0  0  2  0  0  3  0  0  0  0  0  0
  189.9740  177.5840  144.7730 C   0  0  2  0  0  3  0  0  0  0  0  0
  186.7610  177.4820  142.7250 C   0  0  1  0  0  3  0  0  0  0  0  0
  188.3700  177.9550  138.8680 C   0  0  0  0  0  2  0  0  0  0  0  0
  184.3190  178.6930  145.3720 C   0  0  0  0  0  2  0  0  0  0  0  0
  189.2140  178.1850  139.9760 O   0  0  0  0  0  0  0  0  0  0  0  0
  185.5880  178.8440  144.5440 C   0  0  0  0  0  2  0  0  0  0  0  0
  183.2660  179.1480  142.2400 C   0  0  1  0  0  3  0  0  0  0  0  0
  187.0030  178.6260  139.0750 C   0  0  0  0  0  2  0  0  0  0  0  0
  185.0930  178.8770  140.6920 C   0  0  1  0  0  3  0  0  0  0  0  0
  181.1040  178.8250  143.4610 C   0  0  0  0  0  2  0  0  0  0  0  0
  180.7960  180.1370  143.0930 O   0  0  0  0  0  0  0  0  0  0  0  0
  179.8970  180.3550  140.2320 O   0  0  0  0  0  0  0  0  0  0  0  0
  179.2410  178.4050  141.8830 S   0  0  0  0  0  0  0  0  0  0  0  0
  179.5120  180.0620  142.5490 C   0  0  2  0  0  3  0  0  0  0  0  0
  179.2400  179.1180  140.2130 C   0  0  0  0  0  2  0  0  0  0  0  0
  179.4080  181.0050  141.3700 C   0  0  0  0  0  2  0  0  0  0  0  0
  1 26  1  6  0  0  0
  1 27  1  0  0  0  0
  1 18  1  0  0  0  0
  2 27  1  0  0  0  0
  2 14  1  0  0  0  0
  3  7  1  6  0  0  0
  3 19  1  0  0  0  0
  4 23  1  6  0  0  0
  4 18  1  0  0  0  0
  4 15  1  0  0  0  0
  5 11  1  1  0  0  0
  5 19  1  0  0  0  0
  8 15  1  0  0  0  0
  8 12  1  0  0  0  0
  8 16  1  1  0  0  0
  9 25  1  0  0  0  0
  9 13  1  0  0  0  0
 10 22  1  0  0  0  0
 13 24  1  0  0  0  0
 14 25  1  0  0  0  0
 15 12  1  0  0  0  0
 15  5  1  0  0  0  0
 16  3  1  0  0  0  0
 17 10  1  0  0  0  0
 18 20  1  0  0  0  0
 19  6  1  0  0  0  0
 20 13  1  0  0  0  0
 20 11  1  0  0  0  0
 21 26  1  0  0  0  0
 21 23  1  0  0  0  0
 24 22  1  0  0  0  0
 25 17  1  0  0  0  0
 27  9  1  0  0  0  0
 28 17  1  0  0  0  0
 29 28  1  0  0  0  0
 30 34  1  0  0  0  0
 31 32  1  0  0  0  0
 32 29  1  0  0  0  0
 33 30  1  0  0  0  0
 33 31  1  0  0  0  0
 34 32  1  0  0  0  0
M  END
>  <MODEL>
1

>  <REMARK>
 VINA RESULT:      -9.1      0.000      0.000
  Name = 
  3 active torsions:
  status: ('A' for Active; 'I' for Inactive)
    1  A    between atoms: C_17  and  C_28
    2  A    between atoms: C_28  and  O_29
    3  A    between atoms: O_29  and  C_32
                            x       y       z     vdW  Elec       q    Type
                         _______ _______ _______ _____ _____    ______ ____

>  <TORSDO>
F 3

$$$$
=
 OpenBabel11122412263D

 34 41  0  0  1  0  0  0  0  0999 V2000
  188.4940  177.7100  138.1400 C   0  0  2  0  0  3  0  0  0  0  0  0
  187.1150  178.1830  140.1660 C   0  0  0  0  0  2  0  0  0  0  0  0
  194.2970  175.7410  136.0790 C   0  0  2  0  0  3  0  0  0  0  0  0
  190.0230  176.6050  136.5340 C   0  0  1  0  0  3  0  0  0  0  0  0
  192.3370  176.0700  137.5960 C   0  0  2  0  0  3  0  0  0  0  0  0
  194.5240  175.6280  138.4590 O   0  0  0  0  0  1  0  0  0  0  0  0
  194.5050  177.1220  136.0240 O   0  0  0  0  0  1  0  0  0  0  0  0
  191.9400  175.6680  135.0000 C   0  0  1  0  0  3  0  0  0  0  0  0
  189.4840  178.3080  140.4940 C   0  0  2  0  0  3  0  0  0  0  0  0
  190.7160  177.9650  143.2790 C   0  0  0  0  0  2  0  0  0  0  0  0
  191.6160  175.5860  138.7810 N   0  0  0  0  0  2  0  0  0  0  0  0
  191.3080  174.7220  135.8360 O   0  0  0  0  0  0  0  0  0  0  0  0
  190.2640  176.9650  140.4250 C   0  0  1  0  0  3  0  0  0  0  0  0
  187.3110  178.1770  141.4780 C   0  0  0  0  0  2  0  0  0  0  0  0
  191.4220  176.0230  136.3580 C   0  0  2  0  0  0  0  0  0  0  0  0
  193.4280  175.2880  134.9070 C   0  0  0  0  0  2  0  0  0  0  0  0
  189.2350  177.7000  143.0320 C   0  0  2  0  0  3  0  0  0  0  0  0
  189.9290  177.2790  137.9030 C   0  0  2  0  0  3  0  0  0  0  0  0
  193.6580  175.3330  137.4050 C   0  0  2  0  0  3  0  0  0  0  0  0
  190.3520  176.3220  139.0220 C   0  0  1  0  0  3  0  0  0  0  0  0
  188.3300  177.8000  135.6430 C   0  0  0  0  0  2  0  0  0  0  0  0
  191.5710  176.9240  142.5700 C   0  0  0  0  0  2  0  0  0  0  0  0
  189.7140  177.5460  135.5340 O   0  0  0  0  0  0  0  0  0  0  0  0
  191.6340  177.1660  141.0680 C   0  0  0  0  0  2  0  0  0  0  0  0
  188.7290  178.5010  141.8230 C   0  0  1  0  0  3  0  0  0  0  0  0
  188.0120  178.5420  136.9500 C   0  0  0  0  0  2  0  0  0  0  0  0
  188.3720  178.5070  139.4390 C   0  0  1  0  0  3  0  0  0  0  0  0
  188.4510  178.0900  144.2770 C   0  0  0  0  0  2  0  0  0  0  0  0
  189.3060  178.1470  145.3800 O   0  0  0  0  0  0  0  0  0  0  0  0
  189.4510  178.0880  148.3820 O   0  0  0  0  0  0  0  0  0  0  0  0
  187.2370  177.8610  146.9660 S   0  0  0  0  0  0  0  0  0  0  0  0
  188.7820  177.2210  146.2850 C   0  0  2  0  0  3  0  0  0  0  0  0
  188.0640  178.0380  148.5740 C   0  0  0  0  0  2  0  0  0  0  0  0
  189.7250  177.0750  147.4590 C   0  0  0  0  0  2  0  0  0  0  0  0
  1 26  1  6  0  0  0
  1 27  1  0  0  0  0
  2 14  1  0  0  0  0
  3  7  1  1  0  0  0
  3 19  1  0  0  0  0
  4 23  1  6  0  0  0
  4 18  1  0  0  0  0
  5 11  1  1  0  0  0
  8 16  1  1  0  0  0
  8 12  1  0  0  0  0
  8 15  1  0  0  0  0
  9 25  1  0  0  0  0
 11 20  1  0  0  0  0
 12 15  1  0  0  0  0
 13  9  1  0  0  0  0
 13 24  1  0  0  0  0
 14 25  1  0  0  0  0
 15  4  1  0  0  0  0
 15  5  1  0  0  0  0
 16  3  1  0  0  0  0
 17 10  1  0  0  0  0
 17 28  1  0  0  0  0
 18  1  1  0  0  0  0
 18 20  1  0  0  0  0
 19  5  1  0  0  0  0
 19  6  1  0  0  0  0
 20 13  1  0  0  0  0
 21 26  1  0  0  0  0
 22 10  1  0  0  0  0
 23 21  1  0  0  0  0
 24 22  1  0  0  0  0
 25 17  1  0  0  0  0
 27  2  1  0  0  0  0
 27  9  1  0  0  0  0
 28 29  1  0  0  0  0
 29 32  1  0  0  0  0
 30 33  1  0  0  0  0
 31 33  1  0  0  0  0
 32 31  1  0  0  0  0
 32 34  1  0  0  0  0
 34 30  1  0  0  0  0
M  END
>  <MODEL>
2

>  <REMARK>
 VINA RESULT:      -8.7      4.794      7.491
  Name = 
  3 active torsions:
  status: ('A' for Active; 'I' for Inactive)
    1  A    between atoms: C_17  and  C_28
    2  A    between atoms: C_28  and  O_29
    3  A    between atoms: O_29  and  C_32
                            x       y       z     vdW  Elec       q    Type
                         _______ _______ _______ _____ _____    ______ ____

>  <TORSDO>
F 3

$$$$
=
 OpenBabel11122412263D

 34 41  0  0  1  0  0  0  0  0999 V2000
  189.0080  177.4730  144.1130 C   0  0  2  0  0  3  0  0  0  0  0  0
  187.0680  178.3030  145.4470 C   0  0  0  0  0  2  0  0  0  0  0  0
  191.2090  176.4590  138.1200 C   0  0  2  0  0  3  0  0  0  0  0  0
  190.7910  177.3010  142.4020 C   0  0  1  0  0  3  0  0  0  0  0  0
  189.8380  177.4080  139.9830 C   0  0  2  0  0  3  0  0  0  0  0  0
  189.0440  177.4010  137.7260 O   0  0  0  0  0  1  0  0  0  0  0  0
  190.7150  175.1800  138.3880 O   0  0  0  0  0  1  0  0  0  0  0  0
  192.4130  176.8830  140.3770 C   0  0  1  0  0  3  0  0  0  0  0  0
  186.5350  177.5400  143.2410 C   0  0  2  0  0  3  0  0  0  0  0  0
  184.0080  178.5050  141.8020 C   0  0  0  0  0  2  0  0  0  0  0  0
  188.9900  178.5210  140.4290 N   0  0  0  0  0  2  0  0  0  0  0  0
  192.0540  178.2300  140.6070 O   0  0  0  0  0  0  0  0  0  0  0  0
  187.0530  178.4130  142.0630 C   0  0  1  0  0  3  0  0  0  0  0  0
  185.8480  178.7500  145.1830 C   0  0  0  0  0  2  0  0  0  0  0  0
  191.0670  177.2730  140.9020 C   0  0  2  0  0  0  0  0  0  0  0  0
  192.5290  176.6830  138.8560 C   0  0  0  0  0  2  0  0  0  0  0  0
  184.4510  179.1260  143.1220 C   0  0  2  0  0  3  0  0  0  0  0  0
  189.2800  177.2800  142.6340 C   0  0  2  0  0  3  0  0  0  0  0  0
  190.1940  177.5340  138.5050 C   0  0  2  0  0  3  0  0  0  0  0  0
  188.5830  178.3970  141.8500 C   0  0  1  0  0  3  0  0  0  0  0  0
  191.2850  176.4860  144.4460 C   0  0  0  0  0  2  0  0  0  0  0  0
  184.9920  178.8460  140.6920 C   0  0  0  0  0  2  0  0  0  0  0  0
  191.3750  176.2060  143.0650 O   0  0  0  0  0  0  0  0  0  0  0  0
  186.2770  178.0370  140.8030 C   0  0  0  0  0  2  0  0  0  0  0  0
  185.2970  178.1370  143.9370 C   0  0  1  0  0  3  0  0  0  0  0  0
  189.8210  176.4560  144.9150 C   0  0  0  0  0  2  0  0  0  0  0  0
  187.5160  177.3290  144.4160 C   0  0  1  0  0  3  0  0  0  0  0  0
  183.2170  179.5300  143.9150 C   0  0  0  0  0  2  0  0  0  0  0  0
  182.1530  178.6780  143.6090 O   0  0  0  0  0  0  0  0  0  0  0  0
  179.9860  178.6100  141.5250 O   0  0  0  0  0  0  0  0  0  0  0  0
  179.5840  178.7570  144.1290 S   0  0  0  0  0  0  0  0  0  0  0  0
  181.0590  179.5260  143.4260 C   0  0  2  0  0  3  0  0  0  0  0  0
  178.9310  178.5610  142.4450 C   0  0  0  0  0  2  0  0  0  0  0  0
  180.7820  179.6800  141.9460 C   0  0  0  0  0  2  0  0  0  0  0  0
  1 27  1  0  0  0  0
  1 26  1  1  0  0  0
  3  7  1  1  0  0  0
  3 19  1  0  0  0  0
  3 16  1  0  0  0  0
  4 18  1  0  0  0  0
  4 23  1  1  0  0  0
  5 11  1  1  0  0  0
  5 15  1  0  0  0  0
  6 19  1  0  0  0  0
  8 16  1  6  0  0  0
  8 12  1  0  0  0  0
  8 15  1  0  0  0  0
  9 25  1  0  0  0  0
  9 27  1  0  0  0  0
 10 17  1  0  0  0  0
 11 20  1  0  0  0  0
 12 15  1  0  0  0  0
 13  9  1  0  0  0  0
 14  2  1  0  0  0  0
 15  4  1  0  0  0  0
 17 28  1  0  0  0  0
 17 25  1  0  0  0  0
 18  1  1  0  0  0  0
 19  5  1  0  0  0  0
 20 13  1  0  0  0  0
 20 18  1  0  0  0  0
 21 26  1  0  0  0  0
 22 24  1  0  0  0  0
 22 10  1  0  0  0  0
 23 21  1  0  0  0  0
 24 13  1  0  0  0  0
 25 14  1  0  0  0  0
 27  2  1  0  0  0  0
 29 28  1  0  0  0  0
 30 34  1  0  0  0  0
 30 33  1  0  0  0  0
 32 29  1  0  0  0  0
 32 31  1  0  0  0  0
 33 31  1  0  0  0  0
 34 32  1  0  0  0  0
M  END
>  <MODEL>
3

>  <REMARK>
 VINA RESULT:      -8.6      1.859      4.214
  Name = 
  3 active torsions:
  status: ('A' for Active; 'I' for Inactive)
    1  A    between atoms: C_17  and  C_28
    2  A    between atoms: C_28  and  O_29
    3  A    between atoms: O_29  and  C_32
                            x       y       z     vdW  Elec       q    Type
                         _______ _______ _______ _____ _____    ______ ____

>  <TORSDO>
F 3

$$$$
=
 OpenBabel11122412263D

 34 41  0  0  1  0  0  0  0  0999 V2000
  187.6620  177.9090  140.5900 C   0  0  2  0  0  3  0  0  0  0  0  0
  185.3570  178.3550  139.7420 C   0  0  0  0  0  2  0  0  0  0  0  0
  191.2020  176.9350  145.9100 C   0  0  2  0  0  3  0  0  0  0  0  0
  189.5650  176.9390  141.8440 C   0  0  1  0  0  3  0  0  0  0  0  0
  189.2000  177.0510  144.4170 C   0  0  2  0  0  3  0  0  0  0  0  0
  188.9940  177.1980  146.7960 O   0  0  0  0  0  1  0  0  0  0  0  0
  191.4140  178.3080  145.7580 O   0  0  0  0  0  1  0  0  0  0  0  0
  191.5270  176.2230  143.4380 C   0  0  1  0  0  3  0  0  0  0  0  0
  185.7540  179.0170  142.0080 C   0  0  2  0  0  3  0  0  0  0  0  0
  183.4410  179.3240  143.9950 C   0  0  0  0  0  2  0  0  0  0  0  0
  187.8240  176.5930  144.1830 N   0  0  0  0  0  2  0  0  0  0  0  0
  190.4770  175.2890  143.3030 O   0  0  0  0  0  0  0  0  0  0  0  0
  185.9560  177.8710  143.0390 C   0  0  1  0  0  3  0  0  0  0  0  0
  184.1650  178.5700  140.2820 C   0  0  0  0  0  2  0  0  0  0  0  0
  190.1060  176.6440  143.2390 C   0  0  2  0  0  0  0  0  0  0  0  0
  192.0300  176.1540  144.8910 C   0  0  0  0  0  2  0  0  0  0  0  0
  183.2200  178.7240  142.6110 C   0  0  2  0  0  3  0  0  0  0  0  0
  188.2810  177.7590  141.9660 C   0  0  2  0  0  3  0  0  0  0  0  0
  189.7210  176.5870  145.7740 C   0  0  2  0  0  3  0  0  0  0  0  0
  187.2720  177.0750  142.8940 C   0  0  1  0  0  3  0  0  0  0  0  0
  189.9980  177.6200  139.7370 C   0  0  0  0  0  2  0  0  0  0  0  0
  184.2960  178.3980  144.8490 C   0  0  0  0  0  2  0  0  0  0  0  0
  190.4930  177.6490  141.0590 O   0  0  0  0  0  0  0  0  0  0  0  0
  185.7620  178.4400  144.4420 C   0  0  0  0  0  2  0  0  0  0  0  0
  184.2780  179.2280  141.6190 C   0  0  1  0  0  3  0  0  0  0  0  0
  188.7110  178.4510  139.6180 C   0  0  0  0  0  2  0  0  0  0  0  0
  186.4440  178.8330  140.6380 C   0  0  1  0  0  3  0  0  0  0  0  0
  181.8290  179.1070  142.1260 C   0  0  0  0  0  2  0  0  0  0  0  0
  180.9590  179.2180  143.2120 O   0  0  0  0  0  0  0  0  0  0  0  0
  179.3010  181.3320  141.8610 O   0  0  0  0  0  0  0  0  0  0  0  0
  179.8220  178.9450  140.8640 S   0  0  0  0  0  0  0  0  0  0  0  0
  179.6810  179.1350  142.6540 C   0  0  2  0  0  3  0  0  0  0  0  0
  179.1260  180.6120  140.6720 C   0  0  0  0  0  2  0  0  0  0  0  0
  178.9480  180.4400  142.8770 C   0  0  0  0  0  2  0  0  0  0  0  0
  1 26  1  6  0  0  0
  1 27  1  0  0  0  0
  1 18  1  0  0  0  0
  2 14  1  0  0  0  0
  2 27  1  0  0  0  0
  3  7  1  6  0  0  0
  4 23  1  6  0  0  0
  4 18  1  0  0  0  0
  4 15  1  0  0  0  0
  5 11  1  6  0  0  0
  5 19  1  0  0  0  0
  8 16  1  1  0  0  0
  9 13  1  0  0  0  0
 10 22  1  0  0  0  0
 12  8  1  0  0  0  0
 13 24  1  0  0  0  0
 14 25  1  0  0  0  0
 15 12  1  0  0  0  0
 15  8  1  0  0  0  0
 15  5  1  0  0  0  0
 16  3  1  0  0  0  0
 17 10  1  0  0  0  0
 18 20  1  0  0  0  0
 19  3  1  0  0  0  0
 19  6  1  0  0  0  0
 20 13  1  0  0  0  0
 20 11  1  0  0  0  0
 21 23  1  0  0  0  0
 24 22  1  0  0  0  0
 25  9  1  0  0  0  0
 25 17  1  0  0  0  0
 26 21  1  0  0  0  0
 27  9  1  0  0  0  0
 28 17  1  0  0  0  0
 28 29  1  0  0  0  0
 30 34  1  0  0  0  0
 31 32  1  0  0  0  0
 32 34  1  0  0  0  0
 32 29  1  0  0  0  0
 33 31  1  0  0  0  0
 33 30  1  0  0  0  0
M  END
>  <MODEL>
4

>  <REMARK>
 VINA RESULT:      -8.6      1.193      1.393
  Name = 
  3 active torsions:
  status: ('A' for Active; 'I' for Inactive)
    1  A    between atoms: C_17  and  C_28
    2  A    between atoms: C_28  and  O_29
    3  A    between atoms: O_29  and  C_32
                            x       y       z     vdW  Elec       q    Type
                         _______ _______ _______ _____ _____    ______ ____

>  <TORSDO>
F 3

$$$$
=
 OpenBabel11122412263D

 34 41  0  0  1  0  0  0  0  0999 V2000
  187.8240  178.2520  140.7660 C   0  0  2  0  0  3  0  0  0  0  0  0
  189.5710  178.2290  142.5490 C   0  0  0  0  0  2  0  0  0  0  0  0
  181.4590  178.4680  139.6540 C   0  0  2  0  0  3  0  0  0  0  0  0
  185.8210  178.8490  139.4360 C   0  0  1  0  0  3  0  0  0  0  0  0
  183.6390  178.7350  140.8490 C   0  0  2  0  0  3  0  0  0  0  0  0
  181.5730  178.5640  142.0430 O   0  0  0  0  0  1  0  0  0  0  0  0
  181.6410  177.0830  139.6000 O   0  0  0  0  0  1  0  0  0  0  0  0
  183.5080  179.1770  138.2320 C   0  0  1  0  0  3  0  0  0  0  0  0
  187.4110  177.4500  143.2290 C   0  0  2  0  0  3  0  0  0  0  0  0
  186.5700  177.4930  146.1760 C   0  0  0  0  0  2  0  0  0  0  0  0
  184.3660  179.4270  141.9200 N   0  0  0  0  0  2  0  0  0  0  0  0
  183.9690  180.2800  138.9830 O   0  0  0  0  0  0  0  0  0  0  0  0
  186.2840  178.5180  143.3090 C   0  0  1  0  0  3  0  0  0  0  0  0
  189.5830  178.2070  143.8740 C   0  0  0  0  0  2  0  0  0  0  0  0
  184.3050  179.0110  139.4870 C   0  0  2  0  0  0  0  0  0  0  0  0
  181.9770  179.1210  138.3740 C   0  0  0  0  0  2  0  0  0  0  0  0
  187.8620  178.1580  145.7130 C   0  0  2  0  0  3  0  0  0  0  0  0
  186.3070  178.2580  140.7600 C   0  0  2  0  0  3  0  0  0  0  0  0
  182.1510  179.0670  140.8770 C   0  0  2  0  0  3  0  0  0  0  0  0
  185.8080  179.0810  141.9510 C   0  0  1  0  0  3  0  0  0  0  0  0
  187.6250  178.1580  138.2710 C   0  0  0  0  0  2  0  0  0  0  0  0
  185.3600  178.2370  145.6280 C   0  0  0  0  0  2  0  0  0  0  0  0
  186.2250  178.0110  138.3800 O   0  0  0  0  0  0  0  0  0  0  0  0
  185.1400  177.9550  144.1480 C   0  0  0  0  0  2  0  0  0  0  0  0
  188.3820  177.5050  144.4230 C   0  0  1  0  0  3  0  0  0  0  0  0
  188.3330  177.5630  139.4990 C   0  0  0  0  0  2  0  0  0  0  0  0
  188.3600  177.5490  142.0140 C   0  0  1  0  0  3  0  0  0  0  0  0
  188.9030  178.0300  146.8150 C   0  0  0  0  0  2  0  0  0  0  0  0
  189.5550  176.8000  146.7150 O   0  0  0  0  0  0  0  0  0  0  0  0
  191.9140  175.3740  147.9170 O   0  0  0  0  0  0  0  0  0  0  0  0
  191.7190  176.1250  145.3950 S   0  0  0  0  0  0  0  0  0  0  0  0
  190.9140  177.1190  146.6700 C   0  0  2  0  0  3  0  0  0  0  0  0
  192.6040  175.2310  146.7060 C   0  0  0  0  0  2  0  0  0  0  0  0
  191.5680  176.7260  147.9780 C   0  0  0  0  0  2  0  0  0  0  0  0
  1 26  1  6  0  0  0
  1 27  1  0  0  0  0
  2 14  1  0  0  0  0
  3  7  1  6  0  0  0
  3 19  1  0  0  0  0
  4 23  1  6  0  0  0
  4 15  1  0  0  0  0
  4 18  1  0  0  0  0
  5 19  1  0  0  0  0
  5 11  1  1  0  0  0
  8 16  1  1  0  0  0
  8 12  1  0  0  0  0
  8 15  1  0  0  0  0
  9 13  1  0  0  0  0
  9 25  1  0  0  0  0
 11 20  1  0  0  0  0
 12 15  1  0  0  0  0
 13 24  1  0  0  0  0
 14 25  1  0  0  0  0
 15  5  1  0  0  0  0
 16  3  1  0  0  0  0
 17 10  1  0  0  0  0
 17 28  1  0  0  0  0
 18  1  1  0  0  0  0
 18 20  1  0  0  0  0
 19  6  1  0  0  0  0
 20 13  1  0  0  0  0
 21 23  1  0  0  0  0
 21 26  1  0  0  0  0
 22 10  1  0  0  0  0
 24 22  1  0  0  0  0
 25 17  1  0  0  0  0
 27  2  1  0  0  0  0
 27  9  1  0  0  0  0
 29 28  1  0  0  0  0
 30 34  1  0  0  0  0
 31 32  1  0  0  0  0
 31 33  1  0  0  0  0
 32 29  1  0  0  0  0
 32 34  1  0  0  0  0
 33 30  1  0  0  0  0
M  END
>  <MODEL>
5

>  <REMARK>
 VINA RESULT:      -8.3      3.180      8.005
  Name = 
  3 active torsions:
  status: ('A' for Active; 'I' for Inactive)
    1  A    between atoms: C_17  and  C_28
    2  A    between atoms: C_28  and  O_29
    3  A    between atoms: O_29  and  C_32
                            x       y       z     vdW  Elec       q    Type
                         _______ _______ _______ _____ _____    ______ ____

>  <TORSDO>
F 3

$$$$
=
 OpenBabel11122412263D

 34 41  0  0  1  0  0  0  0  0999 V2000
  185.5500  178.5390  144.9040 C   0  0  2  0  0  3  0  0  0  0  0  0
  183.2930  179.3760  144.2430 C   0  0  0  0  0  2  0  0  0  0  0  0
  191.2370  176.4400  142.6570 C   0  0  2  0  0  3  0  0  0  0  0  0
  188.0040  178.2200  145.0230 C   0  0  1  0  0  3  0  0  0  0  0  0
  189.0230  177.6010  142.7110 C   0  0  2  0  0  3  0  0  0  0  0  0
  190.0340  176.9340  140.6470 O   0  0  0  0  0  1  0  0  0  0  0  0
  190.6110  175.2050  142.8480 O   0  0  0  0  0  1  0  0  0  0  0  0
  190.5450  177.5670  144.8880 C   0  0  1  0  0  3  0  0  0  0  0  0
  184.4030  178.0340  142.6000 C   0  0  2  0  0  3  0  0  0  0  0  0
  183.6750  178.2460  139.6310 C   0  0  0  0  0  2  0  0  0  0  0  0
  188.1820  178.6530  142.1240 N   0  0  0  0  0  2  0  0  0  0  0  0
  190.2210  178.8620  144.4280 O   0  0  0  0  0  0  0  0  0  0  0  0
  185.6540  178.6620  141.9230 C   0  0  1  0  0  3  0  0  0  0  0  0
  182.6390  179.5630  143.1050 C   0  0  0  0  0  2  0  0  0  0  0  0
  189.2470  177.8710  144.2110 C   0  0  2  0  0  0  0  0  0  0  0  0
  191.6780  177.0240  143.9980 C   0  0  0  0  0  2  0  0  0  0  0  0
  183.1100  179.2240  140.6540 C   0  0  2  0  0  3  0  0  0  0  0  0
  186.7640  178.0360  144.1470 C   0  0  2  0  0  3  0  0  0  0  0  0
  190.3180  177.4170  141.9260 C   0  0  2  0  0  3  0  0  0  0  0  0
  186.8910  178.8170  142.8360 C   0  0  1  0  0  3  0  0  0  0  0  0
  186.8720  178.0030  146.9620 C   0  0  0  0  0  2  0  0  0  0  0  0
  185.1740  178.4480  139.4670 C   0  0  0  0  0  2  0  0  0  0  0  0
  187.8820  177.4140  146.1700 O   0  0  0  0  0  0  0  0  0  0  0  0
  185.9570  177.8850  140.6450 C   0  0  0  0  0  2  0  0  0  0  0  0
  183.0760  178.5940  142.0550 C   0  0  1  0  0  3  0  0  0  0  0  0
  185.5000  177.8740  146.2810 C   0  0  0  0  0  2  0  0  0  0  0  0
  184.2660  178.2570  144.1230 C   0  0  1  0  0  3  0  0  0  0  0  0
  181.7050  179.6230  140.2300 C   0  0  0  0  0  2  0  0  0  0  0  0
  180.9420  178.4820  139.9730 O   0  0  0  0  0  0  0  0  0  0  0  0
  179.2420  178.0470  142.4150 O   0  0  0  0  0  0  0  0  0  0  0  0
  179.6270  180.3720  141.2290 S   0  0  0  0  0  0  0  0  0  0  0  0
  179.6250  178.8690  140.2290 C   0  0  2  0  0  3  0  0  0  0  0  0
  178.9610  179.4050  142.6150 C   0  0  0  0  0  2  0  0  0  0  0  0
  178.9430  177.8110  141.0700 C   0  0  0  0  0  2  0  0  0  0  0  0
  1 26  1  1  0  0  0
  3  7  1  1  0  0  0
  3 16  1  0  0  0  0
  4 23  1  1  0  0  0
  5 11  1  6  0  0  0
  5 15  1  0  0  0  0
  6 19  1  0  0  0  0
  8 16  1  6  0  0  0
  9 27  1  0  0  0  0
 10 17  1  0  0  0  0
 11 20  1  0  0  0  0
 12  8  1  0  0  0  0
 13  9  1  0  0  0  0
 13 20  1  0  0  0  0
 14  2  1  0  0  0  0
 15 12  1  0  0  0  0
 15  8  1  0  0  0  0
 15  4  1  0  0  0  0
 17 25  1  0  0  0  0
 18  1  1  0  0  0  0
 18  4  1  0  0  0  0
 19  3  1  0  0  0  0
 19  5  1  0  0  0  0
 20 18  1  0  0  0  0
 22 10  1  0  0  0  0
 22 24  1  0  0  0  0
 23 21  1  0  0  0  0
 24 13  1  0  0  0  0
 25  9  1  0  0  0  0
 25 14  1  0  0  0  0
 26 21  1  0  0  0  0
 27  2  1  0  0  0  0
 27  1  1  0  0  0  0
 28 17  1  0  0  0  0
 29 32  1  0  0  0  0
 29 28  1  0  0  0  0
 30 33  1  0  0  0  0
 31 33  1  0  0  0  0
 32 34  1  0  0  0  0
 32 31  1  0  0  0  0
 34 30  1  0  0  0  0
M  END
>  <MODEL>
6

>  <REMARK>
 VINA RESULT:      -8.0      1.452      3.827
  Name = 
  3 active torsions:
  status: ('A' for Active; 'I' for Inactive)
    1  A    between atoms: C_17  and  C_28
    2  A    between atoms: C_28  and  O_29
    3  A    between atoms: O_29  and  C_32
                            x       y       z     vdW  Elec       q    Type
                         _______ _______ _______ _____ _____    ______ ____

>  <TORSDO>
F 3

$$$$
=
 OpenBabel11122412263D

 34 41  0  0  1  0  0  0  0  0999 V2000
  189.8710  177.6440  141.1720 C   0  0  2  0  0  3  0  0  0  0  0  0
  190.3210  178.0120  143.6000 C   0  0  0  0  0  2  0  0  0  0  0  0
  185.2410  177.4230  136.6650 C   0  0  2  0  0  3  0  0  0  0  0  0
  188.9990  177.9150  138.8690 C   0  0  1  0  0  3  0  0  0  0  0  0
  186.3990  177.9830  138.8090 C   0  0  2  0  0  3  0  0  0  0  0  0
  184.0120  177.9600  138.6470 O   0  0  0  0  0  1  0  0  0  0  0  0
  185.3200  176.0600  136.9610 O   0  0  0  0  0  1  0  0  0  0  0  0
  187.7810  177.9320  136.5410 C   0  0  1  0  0  3  0  0  0  0  0  0
  188.0980  177.2940  143.0730 C   0  0  2  0  0  3  0  0  0  0  0  0
  185.7640  177.8480  144.9810 C   0  0  0  0  0  2  0  0  0  0  0  0
  186.4540  178.8870  139.9660 N   0  0  0  0  0  2  0  0  0  0  0  0
  187.8250  179.1710  137.2180 O   0  0  0  0  0  0  0  0  0  0  0  0
  187.2000  178.3180  142.3230 C   0  0  1  0  0  3  0  0  0  0  0  0
  189.5910  178.2350  144.6840 C   0  0  0  0  0  2  0  0  0  0  0  0
  187.7280  178.0280  138.0330 C   0  0  2  0  0  0  0  0  0  0  0  0
  186.4320  177.8490  135.8060 C   0  0  0  0  0  2  0  0  0  0  0  0
  187.1390  178.4620  145.2160 C   0  0  2  0  0  3  0  0  0  0  0  0
  188.6200  177.5950  140.3160 C   0  0  2  0  0  3  0  0  0  0  0  0
  185.1770  178.2610  137.9400 C   0  0  2  0  0  3  0  0  0  0  0  0
  187.6040  178.6040  140.8590 C   0  0  1  0  0  3  0  0  0  0  0  0
  191.0890  177.0880  139.0570 C   0  0  0  0  0  2  0  0  0  0  0  0
  185.1230  178.4340  143.7310 C   0  0  0  0  0  2  0  0  0  0  0  0
  189.8600  176.9120  138.3850 O   0  0  0  0  0  0  0  0  0  0  0  0
  185.7450  177.8770  142.4580 C   0  0  0  0  0  2  0  0  0  0  0  0
  188.2400  177.6030  144.5760 C   0  0  1  0  0  3  0  0  0  0  0  0
  190.9470  176.7540  140.5500 C   0  0  0  0  0  2  0  0  0  0  0  0
  189.5680  177.2030  142.6050 C   0  0  1  0  0  3  0  0  0  0  0  0
  187.3770  178.5770  146.7150 C   0  0  0  0  0  2  0  0  0  0  0  0
  186.9400  177.4160  147.3570 O   0  0  0  0  0  0  0  0  0  0  0  0
  189.7590  176.3720  147.3420 O   0  0  0  0  0  0  0  0  0  0  0  0
  188.9840  178.6280  148.4690 S   0  0  0  0  0  0  0  0  0  0  0  0
  187.8340  177.2360  148.4140 C   0  0  2  0  0  3  0  0  0  0  0  0
  190.3140  177.5000  147.9610 C   0  0  0  0  0  2  0  0  0  0  0  0
  188.6810  176.0080  148.1540 C   0  0  0  0  0  2  0  0  0  0  0  0
  1 26  1  6  0  0  0
  1 27  1  0  0  0  0
  2 14  1  0  0  0  0
  3  7  1  1  0  0  0
  3 19  1  0  0  0  0
  4 23  1  6  0  0  0
  4 18  1  0  0  0  0
  5 11  1  1  0  0  0
  8 16  1  6  0  0  0
  8 12  1  0  0  0  0
  8 15  1  0  0  0  0
  9 25  1  0  0  0  0
 10 17  1  0  0  0  0
 11 20  1  0  0  0  0
 12 15  1  0  0  0  0
 13 24  1  0  0  0  0
 13  9  1  0  0  0  0
 15  5  1  0  0  0  0
 15  4  1  0  0  0  0
 16  3  1  0  0  0  0
 17 28  1  0  0  0  0
 18 20  1  0  0  0  0
 18  1  1  0  0  0  0
 19  6  1  0  0  0  0
 19  5  1  0  0  0  0
 20 13  1  0  0  0  0
 21 26  1  0  0  0  0
 22 10  1  0  0  0  0
 23 21  1  0  0  0  0
 24 22  1  0  0  0  0
 25 14  1  0  0  0  0
 25 17  1  0  0  0  0
 27  9  1  0  0  0  0
 27  2  1  0  0  0  0
 28 29  1  0  0  0  0
 29 32  1  0  0  0  0
 30 33  1  0  0  0  0
 30 34  1  0  0  0  0
 32 31  1  0  0  0  0
 33 31  1  0  0  0  0
 34 32  1  0  0  0  0
M  END
>  <MODEL>
7

>  <REMARK>
 VINA RESULT:      -8.0      3.705      7.178
  Name = 
  3 active torsions:
  status: ('A' for Active; 'I' for Inactive)
    1  A    between atoms: C_17  and  C_28
    2  A    between atoms: C_28  and  O_29
    3  A    between atoms: O_29  and  C_32
                            x       y       z     vdW  Elec       q    Type
                         _______ _______ _______ _____ _____    ______ ____

>  <TORSDO>
F 3

$$$$
=
 OpenBabel11122412263D

 34 41  0  0  1  0  0  0  0  0999 V2000
  189.8020  177.4760  142.7470 C   0  0  2  0  0  3  0  0  0  0  0  0
  189.6420  177.1800  140.2730 C   0  0  0  0  0  2  0  0  0  0  0  0
  186.4540  178.8880  148.0930 C   0  0  2  0  0  3  0  0  0  0  0  0
  189.3290  177.3290  145.1740 C   0  0  1  0  0  3  0  0  0  0  0  0
  186.9280  178.1470  145.7530 C   0  0  2  0  0  3  0  0  0  0  0  0
  184.7740  178.9690  146.3910 O   0  0  0  0  0  1  0  0  0  0  0  0
  186.9500  180.1620  147.8060 O   0  0  0  0  0  1  0  0  0  0  0  0
  188.6310  177.5340  147.6990 C   0  0  1  0  0  3  0  0  0  0  0  0
  187.9490  178.5660  141.2450 C   0  0  2  0  0  3  0  0  0  0  0  0
  185.2620  179.0030  139.8370 C   0  0  0  0  0  2  0  0  0  0  0  0
  186.4500  177.3780  144.5970 N   0  0  0  0  0  2  0  0  0  0  0  0
  188.1130  176.4160  147.0090 O   0  0  0  0  0  0  0  0  0  0  0  0
  186.9030  177.8520  142.1460 C   0  0  1  0  0  3  0  0  0  0  0  0
  188.6950  177.3100  139.3550 C   0  0  0  0  0  2  0  0  0  0  0  0
  188.2750  177.5860  146.2470 C   0  0  2  0  0  0  0  0  0  0  0  0
  187.5550  178.0120  148.6900 C   0  0  0  0  0  2  0  0  0  0  0  0
  186.2660  177.9780  139.3220 C   0  0  2  0  0  3  0  0  0  0  0  0
  188.8280  177.8780  143.8370 C   0  0  2  0  0  3  0  0  0  0  0  0
  185.8670  178.2310  146.8460 C   0  0  2  0  0  3  0  0  0  0  0  0
  187.4420  177.3250  143.4950 C   0  0  1  0  0  3  0  0  0  0  0  0
  191.5040  177.4060  144.5820 C   0  0  0  0  0  2  0  0  0  0  0  0
  184.6960  178.5690  141.1820 C   0  0  0  0  0  2  0  0  0  0  0  0
  190.5600  177.9330  145.4890 O   0  0  0  0  0  0  0  0  0  0  0  0
  185.6960  178.7720  142.3120 C   0  0  0  0  0  2  0  0  0  0  0  0
  187.6960  178.3530  139.7400 C   0  0  1  0  0  3  0  0  0  0  0  0
  191.2170  177.8910  143.1520 C   0  0  0  0  0  2  0  0  0  0  0  0
  189.4160  178.1120  141.4100 C   0  0  1  0  0  3  0  0  0  0  0  0
  186.1700  177.9140  137.8050 C   0  0  0  0  0  2  0  0  0  0  0  0
  187.1650  178.7070  137.2290 O   0  0  0  0  0  0  0  0  0  0  0  0
  188.9390  176.5770  136.0630 O   0  0  0  0  0  0  0  0  0  0  0  0
  186.3240  176.7200  135.7370 S   0  0  0  0  0  0  0  0  0  0  0  0
  187.2700  178.2480  135.9150 C   0  0  2  0  0  3  0  0  0  0  0  0
  187.8890  175.8220  135.5230 C   0  0  0  0  0  2  0  0  0  0  0  0
  188.7090  177.8830  135.6210 C   0  0  0  0  0  2  0  0  0  0  0  0
  1 26  1  1  0  0  0
  1 18  1  0  0  0  0
  2 27  1  0  0  0  0
  3  7  1  6  0  0  0
  3 16  1  0  0  0  0
  4 23  1  1  0  0  0
  4 15  1  0  0  0  0
  5 11  1  6  0  0  0
  5 15  1  0  0  0  0
  5 19  1  0  0  0  0
  6 19  1  0  0  0  0
  8 16  1  1  0  0  0
  9 27  1  0  0  0  0
  9 13  1  0  0  0  0
 10 22  1  0  0  0  0
 12  8  1  0  0  0  0
 13 24  1  0  0  0  0
 13 20  1  0  0  0  0
 14 25  1  0  0  0  0
 14  2  1  0  0  0  0
 15 12  1  0  0  0  0
 15  8  1  0  0  0  0
 17 25  1  0  0  0  0
 17 10  1  0  0  0  0
 18  4  1  0  0  0  0
 19  3  1  0  0  0  0
 20 18  1  0  0  0  0
 20 11  1  0  0  0  0
 21 23  1  0  0  0  0
 22 24  1  0  0  0  0
 25  9  1  0  0  0  0
 26 21  1  0  0  0  0
 27  1  1  0  0  0  0
 28 17  1  0  0  0  0
 29 28  1  0  0  0  0
 31 32  1  0  0  0  0
 32 29  1  0  0  0  0
 33 31  1  0  0  0  0
 33 30  1  0  0  0  0
 34 32  1  0  0  0  0
 34 30  1  0  0  0  0
M  END
>  <MODEL>
8

>  <REMARK>
 VINA RESULT:      -7.9      3.355      6.216
  Name = 
  3 active torsions:
  status: ('A' for Active; 'I' for Inactive)
    1  A    between atoms: C_17  and  C_28
    2  A    between atoms: C_28  and  O_29
    3  A    between atoms: O_29  and  C_32
                            x       y       z     vdW  Elec       q    Type
                         _______ _______ _______ _____ _____    ______ ____

>  <TORSDO>
F 3

$$$$
=
 OpenBabel11122412263D

 34 41  0  0  1  0  0  0  0  0999 V2000
  189.8950  177.5790  142.7160 C   0  0  2  0  0  3  0  0  0  0  0  0
  189.6330  177.3390  140.2450 C   0  0  0  0  0  2  0  0  0  0  0  0
  186.7430  178.7270  148.2420 C   0  0  2  0  0  3  0  0  0  0  0  0
  189.5380  177.3530  145.1570 C   0  0  1  0  0  3  0  0  0  0  0  0
  187.1370  178.0630  145.8640 C   0  0  2  0  0  3  0  0  0  0  0  0
  184.9850  178.7860  146.6190 O   0  0  0  0  0  1  0  0  0  0  0  0
  187.1780  180.0260  147.9680 O   0  0  0  0  0  1  0  0  0  0  0  0
  188.9490  177.4680  147.7150 C   0  0  1  0  0  3  0  0  0  0  0  0
  187.9360  178.6340  141.3280 C   0  0  2  0  0  3  0  0  0  0  0  0
  185.1730  179.0030  140.0530 C   0  0  0  0  0  2  0  0  0  0  0  0
  186.6360  177.3060  144.7100 N   0  0  0  0  0  2  0  0  0  0  0  0
  188.4420  176.3490  147.0200 O   0  0  0  0  0  0  0  0  0  0  0  0
  186.9590  177.8580  142.2550 C   0  0  1  0  0  3  0  0  0  0  0  0
  188.6410  177.4560  139.3740 C   0  0  0  0  0  2  0  0  0  0  0  0
  188.5260  177.5430  146.2820 C   0  0  2  0  0  0  0  0  0  0  0  0
  187.9020  177.8790  148.7660 C   0  0  0  0  0  2  0  0  0  0  0  0
  186.1910  178.0300  139.4670 C   0  0  2  0  0  3  0  0  0  0  0  0
  188.9570  177.9160  143.8590 C   0  0  2  0  0  3  0  0  0  0  0  0
  186.1250  178.0790  147.0050 C   0  0  2  0  0  3  0  0  0  0  0  0
  187.5780  177.3180  143.5640 C   0  0  1  0  0  3  0  0  0  0  0  0
  191.6800  177.5280  144.4710 C   0  0  0  0  0  2  0  0  0  0  0  0
  184.6860  178.5140  141.4100 C   0  0  0  0  0  2  0  0  0  0  0  0
  190.7590  177.9960  145.4330 O   0  0  0  0  0  0  0  0  0  0  0  0
  185.7280  178.7270  142.5000 C   0  0  0  0  0  2  0  0  0  0  0  0
  187.6230  178.4500  139.8310 C   0  0  1  0  0  3  0  0  0  0  0  0
  191.3110  178.0380  143.0690 C   0  0  0  0  0  2  0  0  0  0  0  0
  189.4250  178.2330  141.4160 C   0  0  1  0  0  3  0  0  0  0  0  0
  186.0280  178.0010  137.9540 C   0  0  0  0  0  2  0  0  0  0  0  0
  185.0990  177.0220  137.5940 O   0  0  0  0  0  0  0  0  0  0  0  0
  186.3110  174.2960  137.2190 O   0  0  0  0  0  0  0  0  0  0  0  0
  184.4020  175.3270  135.7170 S   0  0  0  0  0  0  0  0  0  0  0  0
  185.6330  176.4280  136.4480 C   0  0  2  0  0  3  0  0  0  0  0  0
  185.4440  173.9150  136.1860 C   0  0  0  0  0  2  0  0  0  0  0  0
  186.8010  175.5470  136.8350 C   0  0  0  0  0  2  0  0  0  0  0  0
  1 26  1  1  0  0  0
  1 18  1  0  0  0  0
  2 27  1  0  0  0  0
  3  7  1  6  0  0  0
  3 16  1  0  0  0  0
  4 23  1  1  0  0  0
  4 15  1  0  0  0  0
  5 11  1  6  0  0  0
  5 15  1  0  0  0  0
  5 19  1  0  0  0  0
  6 19  1  0  0  0  0
  8 16  1  1  0  0  0
  9 27  1  0  0  0  0
  9 13  1  0  0  0  0
 10 22  1  0  0  0  0
 12  8  1  0  0  0  0
 13 24  1  0  0  0  0
 13 20  1  0  0  0  0
 14 25  1  0  0  0  0
 14  2  1  0  0  0  0
 15 12  1  0  0  0  0
 15  8  1  0  0  0  0
 17 25  1  0  0  0  0
 17 10  1  0  0  0  0
 18  4  1  0  0  0  0
 19  3  1  0  0  0  0
 20 18  1  0  0  0  0
 20 11  1  0  0  0  0
 21 23  1  0  0  0  0
 22 24  1  0  0  0  0
 25  9  1  0  0  0  0
 26 21  1  0  0  0  0
 27  1  1  0  0  0  0
 28 17  1  0  0  0  0
 29 28  1  0  0  0  0
 31 33  1  0  0  0  0
 31 32  1  0  0  0  0
 32 34  1  0  0  0  0
 32 29  1  0  0  0  0
 33 30  1  0  0  0  0
 34 30  1  0  0  0  0
M  END
>  <MODEL>
9

>  <REMARK>
 VINA RESULT:      -7.9      3.261      5.836
  Name = 
  3 active torsions:
  status: ('A' for Active; 'I' for Inactive)
    1  A    between atoms: C_17  and  C_28
    2  A    between atoms: C_28  and  O_29
    3  A    between atoms: O_29  and  C_32
                            x       y       z     vdW  Elec       q    Type
                         _______ _______ _______ _____ _____    ______ ____

>  <TORSDO>
F 3

$$$$
