=
 OpenBabel11122411163D

 31 35  0  0  1  0  0  0  0  0999 V2000
  193.5390  175.2090  135.7220 C   0  0  0  0  0  0  0  0  0  0  0  0
  190.1580  176.6160  136.7470 C   0  0  2  0  0  3  0  0  0  0  0  0
  189.1640  175.4640  136.6760 C   0  0  0  0  0  0  0  0  0  0  0  0
  188.5500  173.2370  135.9090 C   0  0  0  0  0  0  0  0  0  0  0  0
  191.5940  176.1510  136.8300 C   0  0  0  0  0  0  0  0  0  0  0  0
  194.2210  175.1730  136.9390 C   0  0  0  0  0  3  0  0  0  0  0  0
  189.4800  174.2750  135.9990 C   0  0  0  0  0  3  0  0  0  0  0  0
  190.2110  176.9680  139.2430 C   0  0  2  0  0  3  0  0  0  0  0  0
  194.1430  174.7660  134.5940 F   0  0  0  0  0  0  0  0  0  0  0  0
  187.5030  176.8220  137.8870 N   0  0  0  0  0  2  0  0  0  0  0  0
  188.8820  172.0620  135.2480 O   0  0  0  0  0  1  0  0  0  0  0  0
  191.7180  176.7270  139.3110 C   0  0  0  0  0  2  0  0  0  0  0  0
  189.8350  177.5960  137.8950 C   0  0  2  0  0  3  0  0  0  0  0  0
  192.2310  175.6970  135.6670 C   0  0  0  0  0  3  0  0  0  0  0  0
  187.2860  173.3800  136.4840 C   0  0  0  0  0  3  0  0  0  0  0  0
  192.2880  176.1170  138.0610 C   0  0  0  0  0  0  0  0  0  0  0  0
  193.6010  175.6350  138.1020 C   0  0  0  0  0  3  0  0  0  0  0  0
  188.3600  178.0010  137.8370 C   0  0  0  0  0  2  0  0  0  0  0  0
  187.8700  175.6120  137.2210 C   0  0  0  0  0  0  0  0  0  0  0  0
  186.9460  174.5660  137.1380 C   0  0  0  0  0  3  0  0  0  0  0  0
  190.0350  176.1940  141.9810 O   0  0  0  0  0  0  0  0  0  0  0  0
  189.7540  177.3890  141.6950 C   0  0  0  0  0  0  0  0  0  0  0  0
  189.8120  177.8390  140.3410 N   0  0  0  0  0  2  0  0  0  0  0  0
  189.6950  177.0970  145.3410 C   0  0  0  0  0  0  0  0  0  0  0  0
  190.5110  178.7520  143.6770 C   0  0  0  0  0  2  0  0  0  0  0  0
  187.0720  177.5120  142.7600 O   0  0  0  0  0  1  0  0  0  0  0  0
  189.7180  176.9040  146.5450 O   0  0  0  0  0  0  0  0  0  0  0  0
  190.9060  177.6260  144.6360 C   0  0  0  0  0  2  0  0  0  0  0  0
  188.1300  177.8830  143.5930 C   0  0  2  0  0  3  0  0  0  0  0  0
  189.3400  178.3560  142.7670 C   0  0  2  0  0  3  0  0  0  0  0  0
  188.4810  176.7370  144.5400 C   0  0  0  0  0  2  0  0  0  0  0  0
  1  6  1  0  0  0  0
  2  3  1  1  0  0  0
  2  5  1  0  0  0  0
  2 13  1  0  0  0  0
  3 19  1  0  0  0  0
  4  7  1  0  0  0  0
  4 15  2  0  0  0  0
  5 16  2  0  0  0  0
  6 17  2  0  0  0  0
  7  3  2  0  0  0  0
  8 12  1  0  0  0  0
  8 23  1  1  0  0  0
  9  1  1  0  0  0  0
 11  4  1  0  0  0  0
 13 18  1  1  0  0  0
 13  8  1  0  0  0  0
 14  1  2  0  0  0  0
 14  5  1  0  0  0  0
 15 20  1  0  0  0  0
 16 17  1  0  0  0  0
 16 12  1  0  0  0  0
 18 10  1  0  0  0  0
 19 10  1  0  0  0  0
 20 19  2  0  0  0  0
 22 21  2  0  0  0  0
 23 22  1  0  0  0  0
 24 27  2  0  0  0  0
 25 28  1  0  0  0  0
 28 24  1  0  0  0  0
 29 26  1  6  0  0  0
 29 31  1  0  0  0  0
 30 22  1  6  0  0  0
 30 29  1  0  0  0  0
 30 25  1  0  0  0  0
 31 24  1  0  0  0  0
M  END
>  <MODEL>
1

>  <REMARK>
 VINA RESULT:      -7.9      0.000      0.000
  Name = 
  2 active torsions:
  status: ('A' for Active; 'I' for Inactive)
    1  A    between atoms: C_5  and  C_30
    2  A    between atoms: C_10  and  N_16
                            x       y       z     vdW  Elec       q    Type
                         _______ _______ _______ _____ _____    ______ ____

>  <TORSDO>
F 2

$$$$
=
 OpenBabel11122411163D

 31 35  0  0  1  0  0  0  0  0999 V2000
  190.0080  175.8720  142.8360 C   0  0  0  0  0  0  0  0  0  0  0  0
  186.6240  177.0420  144.1160 C   0  0  2  0  0  3  0  0  0  0  0  0
  186.8800  177.7770  145.4250 C   0  0  0  0  0  0  0  0  0  0  0  0
  188.3210  178.3010  147.3150 C   0  0  0  0  0  0  0  0  0  0  0  0
  187.8600  176.9250  143.2530 C   0  0  0  0  0  0  0  0  0  0  0  0
  190.2260  176.7310  141.7590 C   0  0  0  0  0  3  0  0  0  0  0  0
  188.1060  177.6520  146.0980 C   0  0  0  0  0  3  0  0  0  0  0  0
  185.9030  178.9850  142.6810 C   0  0  2  0  0  3  0  0  0  0  0  0
  190.9420  174.9470  143.1640 F   0  0  0  0  0  0  0  0  0  0  0  0
  184.5770  178.6500  145.3860 N   0  0  0  0  0  2  0  0  0  0  0  0
  189.5430  178.1790  147.9610 O   0  0  0  0  0  1  0  0  0  0  0  0
  187.0190  178.7350  141.6660 C   0  0  0  0  0  2  0  0  0  0  0  0
  185.4580  177.6620  143.3160 C   0  0  2  0  0  3  0  0  0  0  0  0
  188.8290  175.9670  143.5800 C   0  0  0  0  0  3  0  0  0  0  0  0
  187.3070  179.0750  147.8820 C   0  0  0  0  0  3  0  0  0  0  0  0
  188.0800  177.7920  142.1590 C   0  0  0  0  0  0  0  0  0  0  0  0
  189.2610  177.6810  141.4160 C   0  0  0  0  0  3  0  0  0  0  0  0
  184.2380  177.8380  144.2230 C   0  0  0  0  0  2  0  0  0  0  0  0
  185.8490  178.5300  146.0260 C   0  0  0  0  0  0  0  0  0  0  0  0
  186.0720  179.1870  147.2400 C   0  0  0  0  0  3  0  0  0  0  0  0
  184.1510  177.7360  140.8100 O   0  0  0  0  0  0  0  0  0  0  0  0
  183.9350  178.9460  141.0920 C   0  0  0  0  0  0  0  0  0  0  0  0
  184.7820  179.6340  142.0130 N   0  0  0  0  0  2  0  0  0  0  0  0
  181.6260  178.0190  138.4110 C   0  0  0  0  0  0  0  0  0  0  0  0
  181.4470  178.9960  140.6880 C   0  0  0  0  0  2  0  0  0  0  0  0
  184.2480  180.6110  138.7520 O   0  0  0  0  0  1  0  0  0  0  0  0
  180.9030  177.6150  137.5150 O   0  0  0  0  0  0  0  0  0  0  0  0
  181.2910  177.7300  139.8420 C   0  0  0  0  0  2  0  0  0  0  0  0
  183.0140  179.9920  138.9610 C   0  0  2  0  0  3  0  0  0  0  0  0
  182.7960  179.6890  140.4540 C   0  0  2  0  0  3  0  0  0  0  0  0
  182.8960  178.7430  138.0890 C   0  0  0  0  0  2  0  0  0  0  0  0
  1  9  1  0  0  0  0
  1 14  1  0  0  0  0
  2  5  1  6  0  0  0
  2  3  1  0  0  0  0
  3 19  2  0  0  0  0
  3  7  1  0  0  0  0
  4 15  1  0  0  0  0
  4 11  1  0  0  0  0
  5 14  2  0  0  0  0
  6  1  2  0  0  0  0
  7  4  2  0  0  0  0
  8 23  1  6  0  0  0
  8 13  1  0  0  0  0
 10 19  1  0  0  0  0
 12 16  1  0  0  0  0
 12  8  1  0  0  0  0
 13  2  1  0  0  0  0
 13 18  1  1  0  0  0
 16  5  1  0  0  0  0
 17  6  1  0  0  0  0
 17 16  2  0  0  0  0
 18 10  1  0  0  0  0
 19 20  1  0  0  0  0
 20 15  2  0  0  0  0
 21 22  2  0  0  0  0
 22 23  1  0  0  0  0
 24 28  1  0  0  0  0
 27 24  2  0  0  0  0
 28 25  1  0  0  0  0
 29 26  1  1  0  0  0
 29 30  1  0  0  0  0
 30 25  1  0  0  0  0
 30 22  1  6  0  0  0
 31 24  1  0  0  0  0
 31 29  1  0  0  0  0
M  END
>  <MODEL>
2

>  <REMARK>
 VINA RESULT:      -7.5      5.081      8.856
  Name = 
  2 active torsions:
  status: ('A' for Active; 'I' for Inactive)
    1  A    between atoms: C_5  and  C_30
    2  A    between atoms: C_10  and  N_16
                            x       y       z     vdW  Elec       q    Type
                         _______ _______ _______ _____ _____    ______ ____

>  <TORSDO>
F 2

$$$$
=
 OpenBabel11122411163D

 31 35  0  0  1  0  0  0  0  0999 V2000
  191.3630  176.6980  145.2560 C   0  0  0  0  0  0  0  0  0  0  0  0
  187.7940  176.9880  143.9750 C   0  0  2  0  0  3  0  0  0  0  0  0
  187.0230  177.8050  145.0050 C   0  0  0  0  0  0  0  0  0  0  0  0
  186.8140  178.7440  147.2400 C   0  0  0  0  0  0  0  0  0  0  0  0
  189.2910  177.1690  144.0790 C   0  0  0  0  0  0  0  0  0  0  0  0
  192.0520  177.5510  144.3930 C   0  0  0  0  0  3  0  0  0  0  0  0
  187.5420  178.0230  146.2910 C   0  0  0  0  0  3  0  0  0  0  0  0
  187.8060  178.6310  142.0640 C   0  0  2  0  0  3  0  0  0  0  0  0
  192.0260  176.0590  146.2480 F   0  0  0  0  0  0  0  0  0  0  0  0
  185.1570  178.0470  143.4150 N   0  0  0  0  0  2  0  0  0  0  0  0
  187.3470  178.9640  148.5030 O   0  0  0  0  0  1  0  0  0  0  0  0
  189.3330  178.6480  142.0020 C   0  0  0  0  0  2  0  0  0  0  0  0
  187.3100  177.2580  142.5350 C   0  0  2  0  0  3  0  0  0  0  0  0
  189.9880  176.5070  145.0990 C   0  0  0  0  0  3  0  0  0  0  0  0
  185.5510  179.2440  146.9190 C   0  0  0  0  0  3  0  0  0  0  0  0
  189.9920  178.0290  143.2040 C   0  0  0  0  0  0  0  0  0  0  0  0
  191.3700  178.2060  143.3640 C   0  0  0  0  0  3  0  0  0  0  0  0
  185.7860  177.1390  142.4640 C   0  0  0  0  0  2  0  0  0  0  0  0
  185.7300  178.2820  144.7040 C   0  0  0  0  0  0  0  0  0  0  0  0
  185.0090  179.0120  145.6540 C   0  0  0  0  0  3  0  0  0  0  0  0
  188.4790  177.2820  139.6430 O   0  0  0  0  0  0  0  0  0  0  0  0
  187.6400  178.2210  139.5730 C   0  0  0  0  0  0  0  0  0  0  0  0
  187.2680  178.9450  140.7470 N   0  0  0  0  0  2  0  0  0  0  0  0
  187.6670  176.5730  136.3080 C   0  0  0  0  0  0  0  0  0  0  0  0
  185.9640  177.6040  137.7940 C   0  0  0  0  0  2  0  0  0  0  0  0
  189.0400  179.7690  137.5770 O   0  0  0  0  0  1  0  0  0  0  0  0
  187.7300  175.9440  135.2650 O   0  0  0  0  0  0  0  0  0  0  0  0
  186.5780  176.2930  137.2970 C   0  0  0  0  0  2  0  0  0  0  0  0
  188.0650  178.8670  137.1470 C   0  0  2  0  0  3  0  0  0  0  0  0
  187.0300  178.6060  138.2560 C   0  0  2  0  0  3  0  0  0  0  0  0
  188.7220  177.5800  136.6480 C   0  0  0  0  0  2  0  0  0  0  0  0
  1  9  1  0  0  0  0
  2  5  1  6  0  0  0
  2  3  1  0  0  0  0
  3  7  1  0  0  0  0
  4 11  1  0  0  0  0
  5 14  2  0  0  0  0
  6  1  2  0  0  0  0
  7  4  2  0  0  0  0
  8 23  1  6  0  0  0
  8 13  1  0  0  0  0
 10 19  1  0  0  0  0
 12  8  1  0  0  0  0
 12 16  1  0  0  0  0
 13 18  1  1  0  0  0
 13  2  1  0  0  0  0
 14  1  1  0  0  0  0
 15  4  1  0  0  0  0
 16 17  2  0  0  0  0
 16  5  1  0  0  0  0
 17  6  1  0  0  0  0
 18 10  1  0  0  0  0
 19  3  2  0  0  0  0
 19 20  1  0  0  0  0
 20 15  2  0  0  0  0
 22 21  2  0  0  0  0
 22 23  1  0  0  0  0
 24 31  1  0  0  0  0
 24 28  1  0  0  0  0
 25 30  1  0  0  0  0
 27 24  2  0  0  0  0
 28 25  1  0  0  0  0
 29 26  1  1  0  0  0
 29 30  1  0  0  0  0
 30 22  1  1  0  0  0
 31 29  1  0  0  0  0
M  END
>  <MODEL>
3

>  <REMARK>
 VINA RESULT:      -7.3      3.730      8.353
  Name = 
  2 active torsions:
  status: ('A' for Active; 'I' for Inactive)
    1  A    between atoms: C_5  and  C_30
    2  A    between atoms: C_10  and  N_16
                            x       y       z     vdW  Elec       q    Type
                         _______ _______ _______ _____ _____    ______ ____

>  <TORSDO>
F 2

$$$$
=
 OpenBabel11122411163D

 31 35  0  0  1  0  0  0  0  0999 V2000
  191.2260  176.1540  143.7170 C   0  0  0  0  0  0  0  0  0  0  0  0
  187.5070  176.9390  143.8360 C   0  0  2  0  0  3  0  0  0  0  0  0
  187.2610  177.7030  145.1310 C   0  0  0  0  0  0  0  0  0  0  0  0
  187.9740  178.3940  147.3530 C   0  0  0  0  0  0  0  0  0  0  0  0
  188.9560  176.9590  143.4050 C   0  0  0  0  0  0  0  0  0  0  0  0
  191.6760  177.0290  142.7280 C   0  0  0  0  0  3  0  0  0  0  0  0
  188.2220  177.7200  146.1550 C   0  0  0  0  0  3  0  0  0  0  0  0
  187.0690  178.7820  142.1740 C   0  0  2  0  0  3  0  0  0  0  0  0
  192.1030  175.3430  144.3540 F   0  0  0  0  0  0  0  0  0  0  0  0
  185.0060  178.3090  144.3450 N   0  0  0  0  0  2  0  0  0  0  0  0
  188.9390  178.4130  148.3510 O   0  0  0  0  0  1  0  0  0  0  0  0
  188.4650  178.6560  141.5670 C   0  0  0  0  0  2  0  0  0  0  0  0
  186.5910  177.4200  142.6910 C   0  0  2  0  0  3  0  0  0  0  0  0
  189.8700  176.1180  144.0530 C   0  0  0  0  0  3  0  0  0  0  0  0
  186.7570  179.0500  147.5470 C   0  0  0  0  0  3  0  0  0  0  0  0
  189.4130  177.8410  142.4010 C   0  0  0  0  0  0  0  0  0  0  0  0
  190.7720  177.8620  142.0650 C   0  0  0  0  0  3  0  0  0  0  0  0
  185.1360  177.4600  143.1670 C   0  0  0  0  0  2  0  0  0  0  0  0
  186.0200  178.3360  145.3530 C   0  0  0  0  0  0  0  0  0  0  0  0
  185.7810  179.0190  146.5490 C   0  0  0  0  0  3  0  0  0  0  0  0
  186.6950  177.6870  139.5680 O   0  0  0  0  0  0  0  0  0  0  0  0
  186.0030  178.6940  139.8810 C   0  0  0  0  0  0  0  0  0  0  0  0
  186.1500  179.2980  141.1670 N   0  0  0  0  0  2  0  0  0  0  0  0
  182.7890  177.4840  138.6240 C   0  0  0  0  0  0  0  0  0  0  0  0
  183.6770  179.6090  139.5580 C   0  0  0  0  0  2  0  0  0  0  0  0
  186.0730  178.1420  137.0470 O   0  0  0  0  0  1  0  0  0  0  0  0
  181.7270  176.9990  138.2700 O   0  0  0  0  0  0  0  0  0  0  0  0
  182.8560  178.3490  139.8450 C   0  0  0  0  0  2  0  0  0  0  0  0
  184.8410  178.4440  137.6290 C   0  0  2  0  0  3  0  0  0  0  0  0
  185.0280  179.2850  138.9050 C   0  0  2  0  0  3  0  0  0  0  0  0
  184.0510  177.1620  137.8860 C   0  0  0  0  0  2  0  0  0  0  0  0
  1 14  1  0  0  0  0
  1  9  1  0  0  0  0
  2  5  1  6  0  0  0
  2  3  1  0  0  0  0
  3 19  2  0  0  0  0
  3  7  1  0  0  0  0
  4 15  1  0  0  0  0
  4 11  1  0  0  0  0
  5 14  2  0  0  0  0
  6  1  2  0  0  0  0
  7  4  2  0  0  0  0
  8 23  1  6  0  0  0
  8 13  1  0  0  0  0
 10 19  1  0  0  0  0
 12  8  1  0  0  0  0
 12 16  1  0  0  0  0
 13 18  1  1  0  0  0
 13  2  1  0  0  0  0
 16  5  1  0  0  0  0
 17 16  2  0  0  0  0
 17  6  1  0  0  0  0
 18 10  1  0  0  0  0
 19 20  1  0  0  0  0
 20 15  2  0  0  0  0
 21 22  2  0  0  0  0
 22 23  1  0  0  0  0
 24 28  1  0  0  0  0
 25 28  1  0  0  0  0
 27 24  2  0  0  0  0
 29 26  1  1  0  0  0
 29 31  1  0  0  0  0
 29 30  1  0  0  0  0
 30 25  1  0  0  0  0
 30 22  1  1  0  0  0
 31 24  1  0  0  0  0
M  END
>  <MODEL>
4

>  <REMARK>
 VINA RESULT:      -7.1      4.760      8.309
  Name = 
  2 active torsions:
  status: ('A' for Active; 'I' for Inactive)
    1  A    between atoms: C_5  and  C_30
    2  A    between atoms: C_10  and  N_16
                            x       y       z     vdW  Elec       q    Type
                         _______ _______ _______ _____ _____    ______ ____

>  <TORSDO>
F 2

$$$$
=
 OpenBabel11122411163D

 31 35  0  0  1  0  0  0  0  0999 V2000
  183.4780  178.9310  144.2570 C   0  0  0  0  0  0  0  0  0  0  0  0
  182.5370  178.0140  140.6890 C   0  0  2  0  0  3  0  0  0  0  0  0
  181.4750  179.0130  140.2450 C   0  0  0  0  0  0  0  0  0  0  0  0
  179.8060  180.7050  140.7670 C   0  0  0  0  0  0  0  0  0  0  0  0
  183.3440  178.4990  141.8710 C   0  0  0  0  0  0  0  0  0  0  0  0
  184.7480  179.4840  144.0910 C   0  0  0  0  0  3  0  0  0  0  0  0
  180.8020  179.8170  141.1790 C   0  0  0  0  0  3  0  0  0  0  0  0
  184.4360  178.7340  139.1960 C   0  0  2  0  0  3  0  0  0  0  0  0
  182.9200  178.8750  145.4900 F   0  0  0  0  0  0  0  0  0  0  0  0
  181.7320  178.2500  137.9160 N   0  0  0  0  0  2  0  0  0  0  0  0
  179.1590  181.5040  141.7000 O   0  0  0  0  0  1  0  0  0  0  0  0
  185.3540  179.0110  140.3870 C   0  0  0  0  0  2  0  0  0  0  0  0
  183.4650  177.5950  139.5300 C   0  0  2  0  0  3  0  0  0  0  0  0
  182.7790  178.4390  143.1520 C   0  0  0  0  0  3  0  0  0  0  0  0
  179.4600  180.7910  139.4170 C   0  0  0  0  0  3  0  0  0  0  0  0
  184.6330  179.0550  141.7050 C   0  0  0  0  0  0  0  0  0  0  0  0
  185.3270  179.5360  142.8210 C   0  0  0  0  0  3  0  0  0  0  0  0
  182.6300  177.1740  138.3170 C   0  0  0  0  0  2  0  0  0  0  0  0
  181.0910  179.0790  138.8890 C   0  0  0  0  0  0  0  0  0  0  0  0
  180.1010  179.9780  138.4800 C   0  0  0  0  0  3  0  0  0  0  0  0
  187.2580  178.3260  139.2140 O   0  0  0  0  0  0  0  0  0  0  0  0
  186.6570  178.1920  138.1140 C   0  0  0  0  0  0  0  0  0  0  0  0
  185.2460  178.3920  138.0340 N   0  0  0  0  0  2  0  0  0  0  0  0
  189.4700  175.9240  137.5450 C   0  0  0  0  0  0  0  0  0  0  0  0
  187.2580  176.3530  136.4970 C   0  0  0  0  0  2  0  0  0  0  0  0
  189.0340  179.5890  137.2530 O   0  0  0  0  0  1  0  0  0  0  0  0
  190.4020  175.1410  137.4570 O   0  0  0  0  0  0  0  0  0  0  0  0
  188.0590  175.4360  137.4260 C   0  0  0  0  0  2  0  0  0  0  0  0
  188.8970  178.2440  136.9040 C   0  0  2  0  0  3  0  0  0  0  0  0
  187.4140  177.8340  136.8670 C   0  0  2  0  0  3  0  0  0  0  0  0
  189.7220  177.3690  137.8470 C   0  0  0  0  0  2  0  0  0  0  0  0
  1  9  1  0  0  0  0
  2  3  1  6  0  0  0
  2  5  1  0  0  0  0
  3  7  1  0  0  0  0
  4  7  2  0  0  0  0
  4 11  1  0  0  0  0
  5 14  1  0  0  0  0
  6  1  1  0  0  0  0
  8 23  1  6  0  0  0
  8 13  1  0  0  0  0
  8 12  1  0  0  0  0
 10 18  1  0  0  0  0
 10 19  1  0  0  0  0
 12 16  1  0  0  0  0
 13 18  1  6  0  0  0
 13  2  1  0  0  0  0
 14  1  2  0  0  0  0
 15  4  1  0  0  0  0
 16  5  2  0  0  0  0
 16 17  1  0  0  0  0
 17  6  2  0  0  0  0
 19  3  2  0  0  0  0
 20 19  1  0  0  0  0
 20 15  2  0  0  0  0
 22 21  2  0  0  0  0
 23 22  1  0  0  0  0
 24 31  1  0  0  0  0
 25 30  1  0  0  0  0
 25 28  1  0  0  0  0
 27 24  2  0  0  0  0
 28 24  1  0  0  0  0
 29 26  1  1  0  0  0
 29 31  1  0  0  0  0
 30 29  1  0  0  0  0
 30 22  1  1  0  0  0
M  END
>  <MODEL>
5

>  <REMARK>
 VINA RESULT:      -7.1      6.029      9.333
  Name = 
  2 active torsions:
  status: ('A' for Active; 'I' for Inactive)
    1  A    between atoms: C_5  and  C_30
    2  A    between atoms: C_10  and  N_16
                            x       y       z     vdW  Elec       q    Type
                         _______ _______ _______ _____ _____    ______ ____

>  <TORSDO>
F 2

$$$$
=
 OpenBabel11122411163D

 31 35  0  0  1  0  0  0  0  0999 V2000
  191.4590  177.3780  141.0620 C   0  0  0  0  0  0  0  0  0  0  0  0
  189.2190  177.9090  138.0350 C   0  0  2  0  0  3  0  0  0  0  0  0
  189.1280  176.5690  137.3160 C   0  0  0  0  0  0  0  0  0  0  0  0
  189.9610  174.3180  136.9150 C   0  0  0  0  0  0  0  0  0  0  0  0
  189.6660  177.7780  139.4730 C   0  0  0  0  0  0  0  0  0  0  0  0
  190.5420  177.4160  142.1130 C   0  0  0  0  0  3  0  0  0  0  0  0
  190.0290  175.5310  137.6020 C   0  0  0  0  0  3  0  0  0  0  0  0
  186.8490  178.0960  138.8710 C   0  0  2  0  0  3  0  0  0  0  0  0
  192.7710  177.1600  141.3160 F   0  0  0  0  0  0  0  0  0  0  0  0
  187.2730  177.4310  135.9440 N   0  0  0  0  0  2  0  0  0  0  0  0
  190.8500  173.2960  137.2180 O   0  0  0  0  0  1  0  0  0  0  0  0
  187.3000  178.1990  140.3270 C   0  0  0  0  0  2  0  0  0  0  0  0
  187.9040  178.7120  137.9440 C   0  0  2  0  0  3  0  0  0  0  0  0
  191.0230  177.5590  139.7470 C   0  0  0  0  0  3  0  0  0  0  0  0
  188.9970  174.1310  135.9220 C   0  0  0  0  0  3  0  0  0  0  0  0
  188.7400  177.8200  140.5400 C   0  0  0  0  0  0  0  0  0  0  0  0
  189.1890  177.6460  141.8530 C   0  0  0  0  0  3  0  0  0  0  0  0
  187.4300  178.7740  136.4890 C   0  0  0  0  0  2  0  0  0  0  0  0
  188.1830  176.3830  136.2850 C   0  0  0  0  0  0  0  0  0  0  0  0
  188.1110  175.1630  135.6060 C   0  0  0  0  0  3  0  0  0  0  0  0
  184.3700  176.8320  138.2470 O   0  0  0  0  0  0  0  0  0  0  0  0
  184.3610  178.0820  138.4100 C   0  0  0  0  0  0  0  0  0  0  0  0
  185.5700  178.7780  138.7140 N   0  0  0  0  0  2  0  0  0  0  0  0
  180.9320  177.3370  139.4420 C   0  0  0  0  0  0  0  0  0  0  0  0
  182.4970  179.2580  139.6330 C   0  0  0  0  0  2  0  0  0  0  0  0
  182.5750  177.8050  136.1570 O   0  0  0  0  0  1  0  0  0  0  0  0
  179.8260  177.0000  139.8300 O   0  0  0  0  0  0  0  0  0  0  0  0
  181.8650  178.0670  140.3590 C   0  0  0  0  0  2  0  0  0  0  0  0
  182.0300  178.1740  137.3890 C   0  0  2  0  0  3  0  0  0  0  0  0
  183.0860  178.8630  138.2730 C   0  0  2  0  0  3  0  0  0  0  0  0
  181.4000  176.9600  138.0710 C   0  0  0  0  0  2  0  0  0  0  0  0
  1  9  1  0  0  0  0
  1  6  1  0  0  0  0
  2  3  1  1  0  0  0
  2  5  1  0  0  0  0
  3  7  1  0  0  0  0
  4 11  1  0  0  0  0
  4  7  2  0  0  0  0
  5 14  1  0  0  0  0
  5 16  2  0  0  0  0
  8 23  1  1  0  0  0
  8 12  1  0  0  0  0
 10 19  1  0  0  0  0
 10 18  1  0  0  0  0
 12 16  1  0  0  0  0
 13 18  1  6  0  0  0
 13  2  1  0  0  0  0
 13  8  1  0  0  0  0
 14  1  2  0  0  0  0
 15  4  1  0  0  0  0
 16 17  1  0  0  0  0
 17  6  2  0  0  0  0
 19  3  2  0  0  0  0
 20 15  2  0  0  0  0
 20 19  1  0  0  0  0
 21 22  2  0  0  0  0
 22 23  1  0  0  0  0
 24 27  2  0  0  0  0
 24 28  1  0  0  0  0
 25 28  1  0  0  0  0
 29 26  1  6  0  0  0
 29 31  1  0  0  0  0
 29 30  1  0  0  0  0
 30 22  1  1  0  0  0
 30 25  1  0  0  0  0
 31 24  1  0  0  0  0
M  END
>  <MODEL>
6

>  <REMARK>
 VINA RESULT:      -6.7      4.085      6.080
  Name = 
  2 active torsions:
  status: ('A' for Active; 'I' for Inactive)
    1  A    between atoms: C_5  and  C_30
    2  A    between atoms: C_10  and  N_16
                            x       y       z     vdW  Elec       q    Type
                         _______ _______ _______ _____ _____    ______ ____

>  <TORSDO>
F 2

$$$$
=
 OpenBabel11122411163D

 31 35  0  0  1  0  0  0  0  0999 V2000
  188.6420  178.2780  142.4740 C   0  0  0  0  0  0  0  0  0  0  0  0
  185.8320  179.0350  140.0270 C   0  0  2  0  0  3  0  0  0  0  0  0
  185.9810  178.0540  138.8700 C   0  0  0  0  0  0  0  0  0  0  0  0
  187.3100  176.4550  137.6050 C   0  0  0  0  0  0  0  0  0  0  0  0
  186.5510  178.5850  141.2780 C   0  0  0  0  0  0  0  0  0  0  0  0
  187.9560  177.6700  143.5270 C   0  0  0  0  0  3  0  0  0  0  0  0
  187.1680  177.3260  138.6870 C   0  0  0  0  0  3  0  0  0  0  0  0
  183.6930  178.1650  141.0380 C   0  0  2  0  0  3  0  0  0  0  0  0
  189.9870  178.4210  142.5360 F   0  0  0  0  0  0  0  0  0  0  0  0
  183.7440  178.6800  138.0510 N   0  0  0  0  0  2  0  0  0  0  0  0
  188.4840  175.7320  137.4440 O   0  0  0  0  0  1  0  0  0  0  0  0
  184.3560  177.9190  142.3920 C   0  0  0  0  0  2  0  0  0  0  0  0
  184.3540  179.3560  140.3330 C   0  0  2  0  0  3  0  0  0  0  0  0
  187.9420  178.7350  141.3550 C   0  0  0  0  0  3  0  0  0  0  0  0
  186.2700  176.3100  136.6850 C   0  0  0  0  0  3  0  0  0  0  0  0
  185.8570  177.9730  142.3470 C   0  0  0  0  0  0  0  0  0  0  0  0
  186.5680  177.5280  143.4670 C   0  0  0  0  0  3  0  0  0  0  0  0
  183.6250  179.7420  139.0430 C   0  0  0  0  0  2  0  0  0  0  0  0
  184.9520  177.9280  137.9130 C   0  0  0  0  0  0  0  0  0  0  0  0
  185.0940  177.0470  136.8380 C   0  0  0  0  0  3  0  0  0  0  0  0
  181.5770  176.6120  139.9240 O   0  0  0  0  0  0  0  0  0  0  0  0
  181.2590  177.5890  140.6550 C   0  0  0  0  0  0  0  0  0  0  0  0
  182.2700  178.4140  141.2350 N   0  0  0  0  0  2  0  0  0  0  0  0
  179.4930  180.7800  140.9220 C   0  0  0  0  0  0  0  0  0  0  0  0
  179.1570  178.6270  139.7300 C   0  0  0  0  0  2  0  0  0  0  0  0
  180.1950  178.0330  143.3030 O   0  0  0  0  0  1  0  0  0  0  0  0
  178.9960  181.8920  140.9870 O   0  0  0  0  0  0  0  0  0  0  0  0
  179.6150  180.0820  139.6030 C   0  0  0  0  0  2  0  0  0  0  0  0
  179.5820  178.6810  142.2290 C   0  0  2  0  0  3  0  0  0  0  0  0
  179.8170  177.9120  140.9170 C   0  0  2  0  0  3  0  0  0  0  0  0
  180.0570  180.1310  142.1480 C   0  0  0  0  0  2  0  0  0  0  0  0
  1  9  1  0  0  0  0
  1  6  1  0  0  0  0
  2  3  1  6  0  0  0
  2 13  1  0  0  0  0
  2  5  1  0  0  0  0
  4  7  2  0  0  0  0
  5 14  1  0  0  0  0
  5 16  2  0  0  0  0
  7  3  1  0  0  0  0
  8 23  1  1  0  0  0
  8 12  1  0  0  0  0
 10 18  1  0  0  0  0
 11  4  1  0  0  0  0
 13 18  1  6  0  0  0
 13  8  1  0  0  0  0
 14  1  2  0  0  0  0
 15 20  2  0  0  0  0
 15  4  1  0  0  0  0
 16 12  1  0  0  0  0
 16 17  1  0  0  0  0
 17  6  2  0  0  0  0
 19 10  1  0  0  0  0
 19  3  2  0  0  0  0
 20 19  1  0  0  0  0
 21 22  2  0  0  0  0
 22 23  1  0  0  0  0
 24 27  2  0  0  0  0
 24 31  1  0  0  0  0
 25 30  1  0  0  0  0
 28 25  1  0  0  0  0
 28 24  1  0  0  0  0
 29 26  1  1  0  0  0
 30 22  1  6  0  0  0
 30 29  1  0  0  0  0
 31 29  1  0  0  0  0
M  END
>  <MODEL>
7

>  <REMARK>
 VINA RESULT:      -6.6      5.803      8.000
  Name = 
  2 active torsions:
  status: ('A' for Active; 'I' for Inactive)
    1  A    between atoms: C_5  and  C_30
    2  A    between atoms: C_10  and  N_16
                            x       y       z     vdW  Elec       q    Type
                         _______ _______ _______ _____ _____    ______ ____

>  <TORSDO>
F 2

$$$$
=
 OpenBabel11122411163D

 31 35  0  0  1  0  0  0  0  0999 V2000
  179.7070  178.4660  141.9340 C   0  0  0  0  0  0  0  0  0  0  0  0
  183.0890  179.0030  140.2790 C   0  0  2  0  0  3  0  0  0  0  0  0
  184.1460  178.7280  141.3410 C   0  0  0  0  0  0  0  0  0  0  0  0
  184.7850  178.4480  143.6720 C   0  0  0  0  0  0  0  0  0  0  0  0
  181.7450  178.3980  140.6140 C   0  0  0  0  0  0  0  0  0  0  0  0
  179.2890  177.2660  141.3590 C   0  0  0  0  0  3  0  0  0  0  0  0
  183.8050  178.6660  142.7020 C   0  0  0  0  0  3  0  0  0  0  0  0
  183.5060  177.0390  138.7560 C   0  0  2  0  0  3  0  0  0  0  0  0
  178.9310  179.0820  142.8560 F   0  0  0  0  0  0  0  0  0  0  0  0
  185.8890  178.7110  139.6010 N   0  0  0  0  0  2  0  0  0  0  0  0
  184.4320  178.3750  145.0130 O   0  0  0  0  0  1  0  0  0  0  0  0
  182.0700  176.5370  138.9010 C   0  0  0  0  0  2  0  0  0  0  0  0
  183.5480  178.5680  138.8710 C   0  0  2  0  0  3  0  0  0  0  0  0
  180.9300  179.0310  141.5620 C   0  0  0  0  0  3  0  0  0  0  0  0
  186.1220  178.3020  143.2950 C   0  0  0  0  0  3  0  0  0  0  0  0
  181.3170  177.1840  140.0290 C   0  0  0  0  0  0  0  0  0  0  0  0
  180.0860  176.6330  140.4030 C   0  0  0  0  0  3  0  0  0  0  0  0
  184.9400  179.1320  138.5780 C   0  0  0  0  0  2  0  0  0  0  0  0
  185.5040  178.6180  140.9740 C   0  0  0  0  0  0  0  0  0  0  0  0
  186.4800  178.3890  141.9480 C   0  0  0  0  0  3  0  0  0  0  0  0
  184.2010  174.3590  138.0710 O   0  0  0  0  0  0  0  0  0  0  0  0
  184.3580  175.2450  137.1880 C   0  0  0  0  0  0  0  0  0  0  0  0
  184.0390  176.6090  137.4700 N   0  0  0  0  0  2  0  0  0  0  0  0
  186.1520  172.2940  135.9860 C   0  0  0  0  0  0  0  0  0  0  0  0
  184.2080  173.6500  135.2420 C   0  0  0  0  0  2  0  0  0  0  0  0
  187.0490  175.8680  136.3420 O   0  0  0  0  0  1  0  0  0  0  0  0
  186.7390  171.2680  135.6820 O   0  0  0  0  0  0  0  0  0  0  0  0
  184.6570  172.3560  135.9270 C   0  0  0  0  0  2  0  0  0  0  0  0
  186.4280  174.7450  135.7920 C   0  0  2  0  0  3  0  0  0  0  0  0
  184.8960  174.8880  135.8330 C   0  0  2  0  0  3  0  0  0  0  0  0
  186.9140  173.4780  136.4950 C   0  0  0  0  0  2  0  0  0  0  0  0
  1  9  1  0  0  0  0
  2  5  1  1  0  0  0
  2  3  1  0  0  0  0
  3  7  1  0  0  0  0
  4 11  1  0  0  0  0
  5 14  2  0  0  0  0
  6  1  2  0  0  0  0
  7  4  2  0  0  0  0
  8 23  1  6  0  0  0
  8 13  1  0  0  0  0
  8 12  1  0  0  0  0
 10 19  1  0  0  0  0
 12 16  1  0  0  0  0
 13 18  1  1  0  0  0
 13  2  1  0  0  0  0
 14  1  1  0  0  0  0
 15  4  1  0  0  0  0
 16 17  2  0  0  0  0
 16  5  1  0  0  0  0
 17  6  1  0  0  0  0
 18 10  1  0  0  0  0
 19  3  2  0  0  0  0
 19 20  1  0  0  0  0
 20 15  2  0  0  0  0
 22 23  1  0  0  0  0
 22 21  2  0  0  0  0
 24 31  1  0  0  0  0
 25 30  1  0  0  0  0
 25 28  1  0  0  0  0
 27 24  2  0  0  0  0
 28 24  1  0  0  0  0
 29 30  1  0  0  0  0
 29 26  1  1  0  0  0
 29 31  1  0  0  0  0
 30 22  1  1  0  0  0
M  END
>  <MODEL>
8

>  <REMARK>
 VINA RESULT:      -6.6      5.750     10.186
  Name = 
  2 active torsions:
  status: ('A' for Active; 'I' for Inactive)
    1  A    between atoms: C_5  and  C_30
    2  A    between atoms: C_10  and  N_16
                            x       y       z     vdW  Elec       q    Type
                         _______ _______ _______ _____ _____    ______ ____

>  <TORSDO>
F 2

$$$$
=
 OpenBabel11122411163D

 31 35  0  0  1  0  0  0  0  0999 V2000
  185.9530  177.8680  137.9600 C   0  0  0  0  0  0  0  0  0  0  0  0
  189.5480  177.7250  139.1900 C   0  0  2  0  0  3  0  0  0  0  0  0
  189.4940  177.3270  140.6590 C   0  0  0  0  0  0  0  0  0  0  0  0
  188.2580  177.0630  142.7390 C   0  0  0  0  0  0  0  0  0  0  0  0
  188.2830  177.3790  138.4380 C   0  0  0  0  0  0  0  0  0  0  0  0
  185.8740  176.7290  137.1570 C   0  0  0  0  0  3  0  0  0  0  0  0
  188.2930  177.3960  141.3840 C   0  0  0  0  0  3  0  0  0  0  0  0
  190.5930  175.6400  138.2320 C   0  0  2  0  0  3  0  0  0  0  0  0
  184.8640  178.6560  138.1250 F   0  0  0  0  0  0  0  0  0  0  0  0
  191.9230  176.9170  140.6380 N   0  0  0  0  0  2  0  0  0  0  0  0
  187.0610  177.1220  143.4390 O   0  0  0  0  0  1  0  0  0  0  0  0
  189.4140  175.4030  137.2900 C   0  0  0  0  0  2  0  0  0  0  0  0
  190.7850  177.1430  138.4720 C   0  0  2  0  0  3  0  0  0  0  0  0
  187.1530  178.1920  138.5970 C   0  0  0  0  0  3  0  0  0  0  0  0
  189.4280  176.6680  143.3920 C   0  0  0  0  0  3  0  0  0  0  0  0
  188.2020  176.2290  137.6200 C   0  0  0  0  0  0  0  0  0  0  0  0
  186.9970  175.9190  136.9800 C   0  0  0  0  0  3  0  0  0  0  0  0
  192.0480  177.4420  139.2840 C   0  0  0  0  0  2  0  0  0  0  0  0
  190.6770  176.9650  141.3370 C   0  0  0  0  0  0  0  0  0  0  0  0
  190.6360  176.6210  142.6920 C   0  0  0  0  0  3  0  0  0  0  0  0
  191.5550  176.1260  135.5920 O   0  0  0  0  0  0  0  0  0  0  0  0
  192.2290  175.3520  136.3240 C   0  0  0  0  0  0  0  0  0  0  0  0
  191.7970  175.0580  137.6530 N   0  0  0  0  0  2  0  0  0  0  0  0
  194.7640  173.2950  137.9750 C   0  0  0  0  0  0  0  0  0  0  0  0
  193.4320  173.1810  135.8800 C   0  0  0  0  0  2  0  0  0  0  0  0
  194.8080  176.6490  136.4080 O   0  0  0  0  0  1  0  0  0  0  0  0
  195.5490  172.6140  138.6130 O   0  0  0  0  0  0  0  0  0  0  0  0
  193.5780  172.6620  137.3130 C   0  0  0  0  0  2  0  0  0  0  0  0
  194.7700  175.2550  136.4650 C   0  0  2  0  0  3  0  0  0  0  0  0
  193.4870  174.7130  135.8090 C   0  0  2  0  0  3  0  0  0  0  0  0
  194.9320  174.7810  137.9080 C   0  0  0  0  0  2  0  0  0  0  0  0
  1  9  1  0  0  0  0
  1 14  1  0  0  0  0
  2  5  1  6  0  0  0
  2  3  1  0  0  0  0
  3 19  2  0  0  0  0
  3  7  1  0  0  0  0
  4 15  1  0  0  0  0
  4 11  1  0  0  0  0
  5 14  2  0  0  0  0
  6  1  2  0  0  0  0
  7  4  2  0  0  0  0
  8 23  1  6  0  0  0
  8 13  1  0  0  0  0
 10 19  1  0  0  0  0
 12 16  1  0  0  0  0
 12  8  1  0  0  0  0
 13  2  1  0  0  0  0
 13 18  1  1  0  0  0
 16  5  1  0  0  0  0
 17  6  1  0  0  0  0
 17 16  2  0  0  0  0
 18 10  1  0  0  0  0
 19 20  1  0  0  0  0
 20 15  2  0  0  0  0
 21 22  2  0  0  0  0
 22 23  1  0  0  0  0
 24 27  2  0  0  0  0
 25 28  1  0  0  0  0
 28 24  1  0  0  0  0
 29 26  1  1  0  0  0
 29 31  1  0  0  0  0
 30 25  1  0  0  0  0
 30 22  1  1  0  0  0
 30 29  1  0  0  0  0
 31 24  1  0  0  0  0
M  END
>  <MODEL>
9

>  <REMARK>
 VINA RESULT:      -6.5      3.222      7.323
  Name = 
  2 active torsions:
  status: ('A' for Active; 'I' for Inactive)
    1  A    between atoms: C_5  and  C_30
    2  A    between atoms: C_10  and  N_16
                            x       y       z     vdW  Elec       q    Type
                         _______ _______ _______ _____ _____    ______ ____

>  <TORSDO>
F 2

$$$$
