=
 OpenBabel11122412123D

 34 41  0  0  1  0  0  0  0  0999 V2000
  188.0270  177.9470  141.8250 C   0  0  0  0  0  0  0  0  0  0  0  0
  186.1360  178.5580  140.1970 C   0  0  0  0  0  2  0  0  0  0  0  0
  190.5690  177.7230  147.5970 C   0  0  1  0  0  3  0  0  0  0  0  0
  189.7080  177.3450  143.4820 C   0  0  0  0  0  0  0  0  0  0  0  0
  188.9650  177.4170  145.8210 C   0  0  0  0  0  0  0  0  0  0  0  0
  188.5950  177.8010  148.3830 C   0  0  0  0  0  2  0  0  0  0  0  0
  189.9760  178.1890  148.9070 C   0  0  0  0  0  2  0  0  0  0  0  0
  191.6880  175.9780  146.3910 C   0  0  0  0  0  2  0  0  0  0  0  0
  185.7250  178.6020  142.5250 C   0  0  0  0  0  0  0  0  0  0  0  0
  182.9060  179.1890  143.7800 C   0  0  0  0  0  2  0  0  0  0  0  0
  187.7540  177.7640  145.4890 N   0  0  0  0  0  0  0  0  0  0  0  0
  191.4780  176.8610  145.1360 C   0  0  0  0  0  2  0  0  0  0  0  0
  186.0270  178.4010  143.8280 C   0  0  0  0  0  0  0  0  0  0  0  0
  184.6420  178.8020  140.4250 C   0  0  0  0  0  2  0  0  0  0  0  0
  190.0230  177.1660  144.7750 C   0  0  0  0  0  0  0  0  0  0  0  0
  191.6220  176.7170  147.6710 N   0  0  0  0  0  2  0  0  0  0  0  0
  183.2370  178.4160  142.5230 C   0  0  2  0  0  3  0  0  0  0  0  0
  188.3490  177.7640  143.1120 C   0  0  0  0  0  0  0  0  0  0  0  0
  189.2650  177.0660  147.2390 C   0  0  2  0  0  3  0  0  0  0  0  0
  187.3750  177.9850  144.1490 N   0  0  0  0  0  0  0  0  0  0  0  0
  190.2810  177.3540  141.0640 C   0  0  0  0  0  3  0  0  0  0  0  0
  183.7500  178.7910  144.9460 C   0  0  0  0  0  3  0  0  0  0  0  0
  190.6670  177.1530  142.4320 N   0  0  0  0  0  2  0  0  0  0  0  0
  185.0550  178.4940  144.9490 C   0  0  0  0  0  3  0  0  0  0  0  0
  184.4600  179.0930  141.9240 C   0  0  1  0  0  3  0  0  0  0  0  0
  189.0330  177.7290  140.7590 C   0  0  0  0  0  3  0  0  0  0  0  0
  186.6930  178.3610  141.5190 N   0  0  0  0  0  0  0  0  0  0  0  0
  182.1490  178.5050  141.6480 O   0  0  0  0  0  0  0  0  0  0  0  0
  181.0630  178.8390  142.4620 C   0  0  0  0  0  2  0  0  0  0  0  0
  179.4350  181.5420  141.5370 O   0  0  0  0  0  0  0  0  0  0  0  0
  180.3320  179.7560  140.2850 C   0  0  0  0  0  2  0  0  0  0  0  0
  179.8670  179.2100  141.6040 C   0  0  2  0  0  3  0  0  0  0  0  0
  179.7090  181.1300  140.2260 C   0  0  0  0  0  2  0  0  0  0  0  0
  179.1270  180.3660  142.2380 C   0  0  0  0  0  2  0  0  0  0  0  0
  1 18  2  0  0  0  0
  2 14  1  0  0  0  0
  2 27  1  0  0  0  0
  3 16  1  0  0  0  0
  3  7  1  1  0  0  0
  4 15  2  0  0  0  0
  5 19  1  0  0  0  0
  6  7  1  0  0  0  0
  8 16  1  0  0  0  0
  9 13  2  0  0  0  0
 10 22  1  0  0  0  0
 11  5  2  0  0  0  0
 12  8  1  0  0  0  0
 13 20  1  0  0  0  0
 13 24  1  0  0  0  0
 15 12  1  0  0  0  0
 15  5  1  0  0  0  0
 17 28  1  6  0  0  0
 17 10  1  0  0  0  0
 18  4  1  0  0  0  0
 18 20  1  0  0  0  0
 19  3  1  0  0  0  0
 19  6  1  1  0  0  0
 20 11  1  0  0  0  0
 21 23  1  0  0  0  0
 22 24  2  0  0  0  0
 23  4  1  0  0  0  0
 25 14  1  6  0  0  0
 25 17  1  0  0  0  0
 25  9  1  0  0  0  0
 26 21  2  0  0  0  0
 26  1  1  0  0  0  0
 27  1  1  0  0  0  0
 27  9  1  0  0  0  0
 28 29  1  0  0  0  0
 30 34  1  0  0  0  0
 31 32  1  0  0  0  0
 32 34  1  0  0  0  0
 32 29  1  1  0  0  0
 33 31  1  0  0  0  0
 33 30  1  0  0  0  0
M  END
>  <MODEL>
1

>  <REMARK>
 VINA RESULT:     -10.8      0.000      0.000
  Name = 
  3 active torsions:
  status: ('A' for Active; 'I' for Inactive)
    1  A    between atoms: C_17  and  O_28
    2  A    between atoms: O_28  and  C_29
    3  A    between atoms: C_29  and  C_32
                            x       y       z     vdW  Elec       q    Type
                         _______ _______ _______ _____ _____    ______ ____

>  <TORSDO>
F 3

$$$$
=
 OpenBabel11122412123D

 34 41  0  0  1  0  0  0  0  0999 V2000
  188.5780  177.8410  141.3630 C   0  0  0  0  0  0  0  0  0  0  0  0
  186.9520  178.3720  139.4470 C   0  0  0  0  0  2  0  0  0  0  0  0
  190.1700  177.7450  147.4690 C   0  0  1  0  0  3  0  0  0  0  0  0
  189.9920  177.3100  143.2740 C   0  0  0  0  0  0  0  0  0  0  0  0
  188.8820  177.3700  145.4640 C   0  0  0  0  0  0  0  0  0  0  0  0
  188.0950  177.7560  147.9290 C   0  0  0  0  0  2  0  0  0  0  0  0
  189.3600  178.1980  148.6620 C   0  0  0  0  0  2  0  0  0  0  0  0
  191.5280  176.0340  146.4780 C   0  0  0  0  0  2  0  0  0  0  0  0
  186.1720  178.4170  141.6790 C   0  0  0  0  0  0  0  0  0  0  0  0
  183.1700  178.9090  142.4600 C   0  0  0  0  0  2  0  0  0  0  0  0
  187.7280  177.6710  144.9380 N   0  0  0  0  0  0  0  0  0  0  0  0
  191.4900  176.9010  145.1950 C   0  0  0  0  0  2  0  0  0  0  0  0
  186.2680  178.2350  143.0160 C   0  0  0  0  0  0  0  0  0  0  0  0
  185.4320  178.5630  139.4310 C   0  0  0  0  0  2  0  0  0  0  0  0
  190.1020  177.1510  144.6030 C   0  0  0  0  0  0  0  0  0  0  0  0
  191.2320  176.7780  147.7220 N   0  0  0  0  0  2  0  0  0  0  0  0
  183.7240  178.1400  141.2810 C   0  0  2  0  0  3  0  0  0  0  0  0
  188.6960  177.6780  142.6870 C   0  0  0  0  0  0  0  0  0  0  0  0
  188.9640  177.0390  146.9150 C   0  0  2  0  0  3  0  0  0  0  0  0
  187.5620  177.8700  143.5530 N   0  0  0  0  0  0  0  0  0  0  0  0
  190.9440  177.3250  140.9790 C   0  0  0  0  0  3  0  0  0  0  0  0
  183.8300  178.5490  143.7510 C   0  0  0  0  0  3  0  0  0  0  0  0
  191.1120  177.1470  142.3930 N   0  0  0  0  0  2  0  0  0  0  0  0
  185.1270  178.2990  143.9660 C   0  0  0  0  0  3  0  0  0  0  0  0
  185.0030  178.8570  140.8770 C   0  0  1  0  0  3  0  0  0  0  0  0
  189.7490  177.6530  140.4730 C   0  0  0  0  0  3  0  0  0  0  0  0
  187.2960  178.2050  140.8430 N   0  0  0  0  0  0  0  0  0  0  0  0
  182.7880  178.1840  140.2440 O   0  0  0  0  0  0  0  0  0  0  0  0
  181.5450  178.1790  140.8830 C   0  0  0  0  0  2  0  0  0  0  0  0
  180.5400  175.1340  140.1560 O   0  0  0  0  0  0  0  0  0  0  0  0
  179.3450  177.0510  140.8310 C   0  0  0  0  0  2  0  0  0  0  0  0
  180.5120  177.5010  140.0010 C   0  0  2  0  0  3  0  0  0  0  0  0
  179.2750  175.5650  140.5760 C   0  0  0  0  0  2  0  0  0  0  0  0
  181.0840  176.2160  139.4470 C   0  0  0  0  0  2  0  0  0  0  0  0
  1 18  2  0  0  0  0
  2 27  1  0  0  0  0
  3 16  1  0  0  0  0
  3  7  1  1  0  0  0
  4 15  2  0  0  0  0
  5 19  1  0  0  0  0
  6  7  1  0  0  0  0
  8 16  1  0  0  0  0
  9 13  2  0  0  0  0
 10 22  1  0  0  0  0
 11  5  2  0  0  0  0
 12  8  1  0  0  0  0
 13 20  1  0  0  0  0
 13 24  1  0  0  0  0
 14  2  1  0  0  0  0
 15 12  1  0  0  0  0
 15  5  1  0  0  0  0
 17 28  1  6  0  0  0
 17 10  1  0  0  0  0
 18  4  1  0  0  0  0
 18 20  1  0  0  0  0
 19  3  1  0  0  0  0
 19  6  1  1  0  0  0
 20 11  1  0  0  0  0
 21 23  1  0  0  0  0
 22 24  2  0  0  0  0
 23  4  1  0  0  0  0
 25 14  1  6  0  0  0
 25 17  1  0  0  0  0
 25  9  1  0  0  0  0
 26 21  2  0  0  0  0
 26  1  1  0  0  0  0
 27  1  1  0  0  0  0
 27  9  1  0  0  0  0
 28 29  1  0  0  0  0
 30 33  1  0  0  0  0
 32 31  1  0  0  0  0
 32 29  1  1  0  0  0
 33 31  1  0  0  0  0
 34 32  1  0  0  0  0
 34 30  1  0  0  0  0
M  END
>  <MODEL>
2

>  <REMARK>
 VINA RESULT:     -10.4      1.507      2.045
  Name = 
  3 active torsions:
  status: ('A' for Active; 'I' for Inactive)
    1  A    between atoms: C_17  and  O_28
    2  A    between atoms: O_28  and  C_29
    3  A    between atoms: C_29  and  C_32
                            x       y       z     vdW  Elec       q    Type
                         _______ _______ _______ _____ _____    ______ ____

>  <TORSDO>
F 3

$$$$
=
 OpenBabel11122412123D

 34 41  0  0  1  0  0  0  0  0999 V2000
  185.5680  178.4030  142.3480 C   0  0  0  0  0  0  0  0  0  0  0  0
  185.0620  178.5400  139.8330 C   0  0  0  0  0  2  0  0  0  0  0  0
  189.2540  176.8270  147.2220 C   0  0  1  0  0  3  0  0  0  0  0  0
  186.2050  178.2890  144.6960 C   0  0  0  0  0  0  0  0  0  0  0  0
  188.5750  177.8220  145.1320 C   0  0  0  0  0  0  0  0  0  0  0  0
  190.9140  176.9360  145.8990 C   0  0  0  0  0  2  0  0  0  0  0  0
  190.6250  176.1900  147.2010 C   0  0  0  0  0  2  0  0  0  0  0  0
  187.8450  178.5650  148.0860 C   0  0  0  0  0  2  0  0  0  0  0  0
  187.2590  178.0400  140.5510 C   0  0  0  0  0  0  0  0  0  0  0  0
  189.6930  177.7110  138.5930 C   0  0  0  0  0  2  0  0  0  0  0  0
  188.8640  177.7890  143.8610 N   0  0  0  0  0  0  0  0  0  0  0  0
  186.7800  178.0470  147.0860 C   0  0  0  0  0  2  0  0  0  0  0  0
  188.2440  177.8780  141.4630 C   0  0  0  0  0  0  0  0  0  0  0  0
  185.9850  178.5300  138.6110 C   0  0  0  0  0  2  0  0  0  0  0  0
  187.1720  178.1060  145.6090 C   0  0  0  0  0  0  0  0  0  0  0  0
  188.8950  177.5770  148.4190 N   0  0  0  0  0  2  0  0  0  0  0  0
  188.5320  178.6780  138.5020 C   0  0  2  0  0  3  0  0  0  0  0  0
  186.5280  178.2230  143.2640 C   0  0  1  0  0  3  0  0  0  0  0  0
  189.6760  177.7770  146.1360 C   0  0  2  0  0  3  0  0  0  0  0  0
  187.8840  177.9540  142.8620 N   0  0  0  0  0  0  0  0  0  0  0  0
  183.8430  178.7280  144.0590 C   0  0  0  0  0  3  0  0  0  0  0  0
  190.3090  177.6690  139.9530 C   0  0  0  0  0  3  0  0  0  0  0  0
  184.8420  178.5360  145.0720 N   0  0  0  0  0  0  0  0  0  0  0  0
  189.6850  177.7120  141.1360 C   0  0  0  0  0  3  0  0  0  0  0  0
  187.3290  177.9420  139.0710 C   0  0  1  0  0  3  0  0  0  0  0  0
  184.1700  178.6700  142.7630 C   0  0  0  0  0  3  0  0  0  0  0  0
  185.9340  178.3220  140.9670 N   0  0  0  0  0  0  0  0  0  0  0  0
  188.3230  178.9930  137.1560 O   0  0  0  0  0  0  0  0  0  0  0  0
  189.1490  178.1140  136.4500 C   0  0  0  0  0  2  0  0  0  0  0  0
  186.6250  176.0510  136.0220 O   0  0  0  0  0  0  0  0  0  0  0  0
  187.0640  178.1850  135.1230 C   0  0  0  0  0  2  0  0  0  0  0  0
  188.3770  177.4820  135.3060 C   0  0  2  0  0  3  0  0  0  0  0  0
  186.0420  177.0860  135.2790 C   0  0  0  0  0  2  0  0  0  0  0  0
  187.9850  176.0690  135.6780 C   0  0  0  0  0  2  0  0  0  0  0  0
  1 26  2  0  0  0  0
  2 27  1  0  0  0  0
  3  7  1  1  0  0  0
  3 16  1  0  0  0  0
  4 23  1  0  0  0  0
  4 15  2  0  0  0  0
  5 15  1  0  0  0  0
  5 19  1  0  0  0  0
  6  7  1  0  0  0  0
  8 16  1  0  0  0  0
  9 27  1  0  0  0  0
  9 13  2  0  0  0  0
 10 22  1  0  0  0  0
 11  5  2  0  0  0  0
 12  8  1  0  0  0  0
 13 20  1  0  0  0  0
 14  2  1  0  0  0  0
 15 12  1  0  0  0  0
 17 28  1  6  0  0  0
 17 10  1  0  0  0  0
 17 25  1  0  0  0  0
 18  1  1  1  0  0  0
 18  4  1  0  0  0  0
 19  6  1  6  0  0  0
 19  3  1  0  0  0  0
 20 18  1  0  0  0  0
 20 11  1  0  0  0  0
 21 23  2  0  0  0  0
 22 24  2  0  0  0  0
 24 13  1  0  0  0  0
 25 14  1  6  0  0  0
 25  9  1  0  0  0  0
 26 21  1  0  0  0  0
 27  1  1  0  0  0  0
 29 28  1  0  0  0  0
 31 33  1  0  0  0  0
 31 32  1  0  0  0  0
 32 34  1  0  0  0  0
 32 29  1  1  0  0  0
 33 30  1  0  0  0  0
 34 30  1  0  0  0  0
M  END
>  <MODEL>
3

>  <REMARK>
 VINA RESULT:     -10.0      3.100      5.941
  Name = 
  3 active torsions:
  status: ('A' for Active; 'I' for Inactive)
    1  A    between atoms: C_17  and  O_28
    2  A    between atoms: O_28  and  C_29
    3  A    between atoms: C_29  and  C_32
                            x       y       z     vdW  Elec       q    Type
                         _______ _______ _______ _____ _____    ______ ____

>  <TORSDO>
F 3

$$$$
=
 OpenBabel11122412123D

 34 41  0  0  1  0  0  0  0  0999 V2000
  190.6480  177.4850  142.8160 C   0  0  0  0  0  0  0  0  0  0  0  0
  192.3420  177.2260  140.9020 C   0  0  0  0  0  2  0  0  0  0  0  0
  185.0080  179.1770  145.0880 C   0  0  1  0  0  3  0  0  0  0  0  0
  188.9240  177.7050  144.5230 C   0  0  0  0  0  0  0  0  0  0  0  0
  186.6480  178.0940  143.6870 C   0  0  0  0  0  0  0  0  0  0  0  0
  184.2300  178.9210  143.1260 C   0  0  0  0  0  2  0  0  0  0  0  0
  183.8250  179.7520  144.3420 C   0  0  0  0  0  2  0  0  0  0  0  0
  185.8140  177.5540  146.6580 C   0  0  0  0  0  2  0  0  0  0  0  0
  190.0760  177.6710  140.3960 C   0  0  0  0  0  0  0  0  0  0  0  0
  188.9400  177.7820  137.4690 C   0  0  0  0  0  2  0  0  0  0  0  0
  187.0310  178.0420  142.4430 N   0  0  0  0  0  0  0  0  0  0  0  0
  187.2310  178.0590  146.2860 C   0  0  0  0  0  2  0  0  0  0  0  0
  188.7650  177.8420  140.6830 C   0  0  0  0  0  0  0  0  0  0  0  0
  192.1510  177.1260  139.3860 C   0  0  0  0  0  2  0  0  0  0  0  0
  187.6280  177.8990  144.8180 C   0  0  0  0  0  0  0  0  0  0  0  0
  184.7290  178.5120  146.3550 N   0  0  0  0  0  2  0  0  0  0  0  0
  190.0000  176.8630  138.0360 C   0  0  2  0  0  3  0  0  0  0  0  0
  189.3570  177.6750  143.1190 C   0  0  1  0  0  3  0  0  0  0  0  0
  185.1930  178.1490  144.0060 C   0  0  2  0  0  3  0  0  0  0  0  0
  188.3800  177.8620  142.0780 N   0  0  0  0  0  0  0  0  0  0  0  0
  191.2920  177.3330  145.1760 C   0  0  0  0  0  3  0  0  0  0  0  0
  187.7270  177.8750  138.3370 C   0  0  0  0  0  3  0  0  0  0  0  0
  189.9200  177.5390  145.5420 N   0  0  0  0  0  0  0  0  0  0  0  0
  187.6780  177.9270  139.6730 C   0  0  0  0  0  3  0  0  0  0  0  0
  190.7520  177.6810  139.0740 C   0  0  1  0  0  3  0  0  0  0  0  0
  191.6550  177.3030  143.8890 C   0  0  0  0  0  3  0  0  0  0  0  0
  191.0180  177.4700  141.4340 N   0  0  0  0  0  0  0  0  0  0  0  0
  190.8560  176.4810  136.9990 O   0  0  0  0  0  0  0  0  0  0  0  0
  191.0030  175.0990  137.1470 C   0  0  0  0  0  2  0  0  0  0  0  0
  194.1120  176.1350  136.8860 O   0  0  0  0  0  0  0  0  0  0  0  0
  193.2100  174.0630  137.5580 C   0  0  0  0  0  2  0  0  0  0  0  0
  192.3050  174.6450  136.5120 C   0  0  2  0  0  3  0  0  0  0  0  0
  194.4590  174.9060  137.4600 C   0  0  0  0  0  2  0  0  0  0  0  0
  193.0640  175.8470  135.9980 C   0  0  0  0  0  2  0  0  0  0  0  0
  1 26  2  0  0  0  0
  2 27  1  0  0  0  0
  3  7  1  6  0  0  0
  3 16  1  0  0  0  0
  4 15  2  0  0  0  0
  4 23  1  0  0  0  0
  5 19  1  0  0  0  0
  5 15  1  0  0  0  0
  6  7  1  0  0  0  0
  9 13  2  0  0  0  0
  9 27  1  0  0  0  0
 10 17  1  0  0  0  0
 10 22  1  0  0  0  0
 11  5  2  0  0  0  0
 12  8  1  0  0  0  0
 13 20  1  0  0  0  0
 14  2  1  0  0  0  0
 15 12  1  0  0  0  0
 16  8  1  0  0  0  0
 17 28  1  6  0  0  0
 17 25  1  0  0  0  0
 18  1  1  1  0  0  0
 18  4  1  0  0  0  0
 19  6  1  6  0  0  0
 19  3  1  0  0  0  0
 20 11  1  0  0  0  0
 20 18  1  0  0  0  0
 21 23  2  0  0  0  0
 22 24  2  0  0  0  0
 24 13  1  0  0  0  0
 25 14  1  1  0  0  0
 25  9  1  0  0  0  0
 26 21  1  0  0  0  0
 27  1  1  0  0  0  0
 28 29  1  0  0  0  0
 30 33  1  0  0  0  0
 32 29  1  1  0  0  0
 32 31  1  0  0  0  0
 33 31  1  0  0  0  0
 34 32  1  0  0  0  0
 34 30  1  0  0  0  0
M  END
>  <MODEL>
4

>  <REMARK>
 VINA RESULT:      -9.7      3.899      8.158
  Name = 
  3 active torsions:
  status: ('A' for Active; 'I' for Inactive)
    1  A    between atoms: C_17  and  O_28
    2  A    between atoms: O_28  and  C_29
    3  A    between atoms: C_29  and  C_32
                            x       y       z     vdW  Elec       q    Type
                         _______ _______ _______ _____ _____    ______ ____

>  <TORSDO>
F 3

$$$$
=
 OpenBabel11122412123D

 34 41  0  0  1  0  0  0  0  0999 V2000
  189.8140  177.6260  141.4960 C   0  0  0  0  0  0  0  0  0  0  0  0
  189.8140  177.8440  138.9360 C   0  0  0  0  0  2  0  0  0  0  0  0
  187.1950  178.4950  147.1720 C   0  0  1  0  0  3  0  0  0  0  0  0
  189.6520  177.4080  143.9170 C   0  0  0  0  0  0  0  0  0  0  0  0
  187.4260  177.8050  144.8720 C   0  0  0  0  0  0  0  0  0  0  0  0
  185.3060  178.5690  146.2010 C   0  0  0  0  0  2  0  0  0  0  0  0
  185.8630  179.1250  147.5090 C   0  0  0  0  0  2  0  0  0  0  0  0
  188.7010  176.6560  147.4920 C   0  0  0  0  0  2  0  0  0  0  0  0
  187.8140  178.2340  140.1360 C   0  0  0  0  0  0  0  0  0  0  0  0
  185.0540  178.8300  138.7610 C   0  0  0  0  0  2  0  0  0  0  0  0
  186.8950  178.0150  143.7000 N   0  0  0  0  0  0  0  0  0  0  0  0
  189.5620  177.3110  146.3830 C   0  0  0  0  0  2  0  0  0  0  0  0
  187.0310  178.2640  141.2380 C   0  0  0  0  0  0  0  0  0  0  0  0
  188.6710  178.0240  137.9350 C   0  0  0  0  0  2  0  0  0  0  0  0
  188.8870  177.4590  145.0190 C   0  0  0  0  0  0  0  0  0  0  0  0
  187.7620  177.5850  148.1600 N   0  0  0  0  0  2  0  0  0  0  0  0
  186.1480  177.8880  138.3100 C   0  0  2  0  0  3  0  0  0  0  0  0
  189.0570  177.6730  142.6000 C   0  0  1  0  0  3  0  0  0  0  0  0
  186.5450  177.7060  146.0700 C   0  0  2  0  0  3  0  0  0  0  0  0
  187.6560  177.9940  142.5140 N   0  0  0  0  0  0  0  0  0  0  0  0
  191.8320  177.0670  142.7710 C   0  0  0  0  0  3  0  0  0  0  0  0
  184.7170  178.6790  140.2090 C   0  0  0  0  0  3  0  0  0  0  0  0
  191.0560  177.1130  143.9780 N   0  0  0  0  0  0  0  0  0  0  0  0
  185.5590  178.4710  141.2280 C   0  0  0  0  0  3  0  0  0  0  0  0
  187.4580  178.5380  138.7270 C   0  0  1  0  0  3  0  0  0  0  0  0
  191.2590  177.3060  141.5860 C   0  0  0  0  0  3  0  0  0  0  0  0
  189.1870  177.8990  140.2400 N   0  0  0  0  0  0  0  0  0  0  0  0
  186.0820  177.7650  136.9190 O   0  0  0  0  0  0  0  0  0  0  0  0
  184.8800  177.0960  136.6760 C   0  0  0  0  0  2  0  0  0  0  0  0
  187.1890  174.7610  136.8450 O   0  0  0  0  0  0  0  0  0  0  0  0
  184.8460  174.6580  137.0890 C   0  0  0  0  0  2  0  0  0  0  0  0
  185.1600  175.7260  136.0830 C   0  0  2  0  0  3  0  0  0  0  0  0
  186.1480  173.9080  137.2340 C   0  0  0  0  0  2  0  0  0  0  0  0
  186.6450  175.5740  135.8390 C   0  0  0  0  0  2  0  0  0  0  0  0
  1 26  2  0  0  0  0
  2 27  1  0  0  0  0
  3  7  1  1  0  0  0
  3 16  1  0  0  0  0
  4 23  1  0  0  0  0
  4 15  2  0  0  0  0
  5 15  1  0  0  0  0
  5 19  1  0  0  0  0
  6  7  1  0  0  0  0
  8 16  1  0  0  0  0
  9 27  1  0  0  0  0
  9 13  2  0  0  0  0
 10 22  1  0  0  0  0
 11  5  2  0  0  0  0
 12  8  1  0  0  0  0
 13 20  1  0  0  0  0
 14  2  1  0  0  0  0
 15 12  1  0  0  0  0
 17 28  1  6  0  0  0
 17 25  1  0  0  0  0
 17 10  1  0  0  0  0
 18  1  1  1  0  0  0
 18  4  1  0  0  0  0
 19  6  1  6  0  0  0
 19  3  1  0  0  0  0
 20 18  1  0  0  0  0
 20 11  1  0  0  0  0
 21 23  2  0  0  0  0
 22 24  2  0  0  0  0
 24 13  1  0  0  0  0
 25 14  1  6  0  0  0
 25  9  1  0  0  0  0
 26 21  1  0  0  0  0
 27  1  1  0  0  0  0
 29 28  1  0  0  0  0
 30 33  1  0  0  0  0
 31 33  1  0  0  0  0
 32 29  1  1  0  0  0
 32 31  1  0  0  0  0
 34 32  1  0  0  0  0
 34 30  1  0  0  0  0
M  END
>  <MODEL>
5

>  <REMARK>
 VINA RESULT:      -9.7      3.148      5.043
  Name = 
  3 active torsions:
  status: ('A' for Active; 'I' for Inactive)
    1  A    between atoms: C_17  and  O_28
    2  A    between atoms: O_28  and  C_29
    3  A    between atoms: C_29  and  C_32
                            x       y       z     vdW  Elec       q    Type
                         _______ _______ _______ _____ _____    ______ ____

>  <TORSDO>
F 3

$$$$
=
 OpenBabel11122412123D

 34 41  0  0  1  0  0  0  0  0999 V2000
  190.5960  177.4670  142.7000 C   0  0  0  0  0  0  0  0  0  0  0  0
  192.2580  177.2070  140.7590 C   0  0  0  0  0  2  0  0  0  0  0  0
  185.0000  179.1720  145.0680 C   0  0  1  0  0  3  0  0  0  0  0  0
  188.9010  177.6890  144.4350 C   0  0  0  0  0  0  0  0  0  0  0  0
  186.6130  178.0880  143.6390 C   0  0  0  0  0  0  0  0  0  0  0  0
  184.1890  178.9240  143.1190 C   0  0  0  0  0  2  0  0  0  0  0  0
  183.8070  179.7530  144.3430 C   0  0  0  0  0  2  0  0  0  0  0  0
  185.8260  177.5430  146.6210 C   0  0  0  0  0  2  0  0  0  0  0  0
  189.9850  177.6610  140.2900 C   0  0  0  0  0  0  0  0  0  0  0  0
  188.8020  177.7830  137.3830 C   0  0  0  0  0  2  0  0  0  0  0  0
  186.9760  178.0370  142.3880 N   0  0  0  0  0  0  0  0  0  0  0  0
  187.2380  178.0440  146.2270 C   0  0  0  0  0  2  0  0  0  0  0  0
  188.6800  177.8360  140.5990 C   0  0  0  0  0  0  0  0  0  0  0  0
  192.0420  177.1120  139.2460 C   0  0  0  0  0  2  0  0  0  0  0  0
  187.6110  177.8860  144.7520 C   0  0  0  0  0  0  0  0  0  0  0  0
  184.7390  178.5060  146.3380 N   0  0  0  0  0  2  0  0  0  0  0  0
  189.8680  176.8590  137.9300 C   0  0  2  0  0  3  0  0  0  0  0  0
  189.3110  177.6610  143.0240 C   0  0  1  0  0  3  0  0  0  0  0  0
  185.1630  178.1460  143.9810 C   0  0  2  0  0  3  0  0  0  0  0  0
  188.3180  177.8540  142.0000 N   0  0  0  0  0  0  0  0  0  0  0  0
  191.2790  177.3070  145.0490 C   0  0  0  0  0  3  0  0  0  0  0  0
  187.6040  177.8780  138.2700 C   0  0  0  0  0  3  0  0  0  0  0  0
  189.9130  177.5170  145.4380 N   0  0  0  0  0  0  0  0  0  0  0  0
  187.5770  177.9270  139.6070 C   0  0  0  0  0  3  0  0  0  0  0  0
  190.6400  177.6720  138.9580 C   0  0  1  0  0  3  0  0  0  0  0  0
  191.6200  177.2790  143.7560 C   0  0  0  0  0  3  0  0  0  0  0  0
  190.9440  177.4550  141.3130 N   0  0  0  0  0  0  0  0  0  0  0  0
  190.7050  176.4770  136.8780 O   0  0  0  0  0  0  0  0  0  0  0  0
  189.8540  176.3240  135.7800 C   0  0  0  0  0  2  0  0  0  0  0  0
  190.1010  173.3780  137.2190 O   0  0  0  0  0  0  0  0  0  0  0  0
  188.4360  174.2980  135.8260 C   0  0  0  0  0  2  0  0  0  0  0  0
  189.7600  174.8580  135.3960 C   0  0  2  0  0  3  0  0  0  0  0  0
  188.8090  173.1480  136.7290 C   0  0  0  0  0  2  0  0  0  0  0  0
  190.7700  174.0610  136.1910 C   0  0  0  0  0  2  0  0  0  0  0  0
  1 26  2  0  0  0  0
  2 27  1  0  0  0  0
  3  7  1  6  0  0  0
  3 16  1  0  0  0  0
  4 15  2  0  0  0  0
  4 23  1  0  0  0  0
  5 19  1  0  0  0  0
  5 15  1  0  0  0  0
  6  7  1  0  0  0  0
  9 13  2  0  0  0  0
  9 27  1  0  0  0  0
 10 17  1  0  0  0  0
 10 22  1  0  0  0  0
 11  5  2  0  0  0  0
 12  8  1  0  0  0  0
 13 20  1  0  0  0  0
 14  2  1  0  0  0  0
 15 12  1  0  0  0  0
 16  8  1  0  0  0  0
 17 28  1  6  0  0  0
 17 25  1  0  0  0  0
 18  1  1  1  0  0  0
 18  4  1  0  0  0  0
 19  6  1  6  0  0  0
 19  3  1  0  0  0  0
 20 11  1  0  0  0  0
 20 18  1  0  0  0  0
 21 23  2  0  0  0  0
 22 24  2  0  0  0  0
 24 13  1  0  0  0  0
 25 14  1  1  0  0  0
 25  9  1  0  0  0  0
 26 21  1  0  0  0  0
 27  1  1  0  0  0  0
 29 28  1  0  0  0  0
 31 33  1  0  0  0  0
 32 29  1  1  0  0  0
 32 31  1  0  0  0  0
 32 34  1  0  0  0  0
 33 30  1  0  0  0  0
 34 30  1  0  0  0  0
M  END
>  <MODEL>
6

>  <REMARK>
 VINA RESULT:      -9.6      3.734      7.458
  Name = 
  3 active torsions:
  status: ('A' for Active; 'I' for Inactive)
    1  A    between atoms: C_17  and  O_28
    2  A    between atoms: O_28  and  C_29
    3  A    between atoms: C_29  and  C_32
                            x       y       z     vdW  Elec       q    Type
                         _______ _______ _______ _____ _____    ______ ____

>  <TORSDO>
F 3

$$$$
=
 OpenBabel11122412123D

 34 41  0  0  1  0  0  0  0  0999 V2000
  183.8910  178.6250  144.0100 C   0  0  0  0  0  0  0  0  0  0  0  0
  181.5830  179.1380  143.0060 C   0  0  0  0  0  2  0  0  0  0  0  0
  189.8290  176.5310  143.5730 C   0  0  1  0  0  3  0  0  0  0  0  0
  186.1440  178.1720  144.8180 C   0  0  0  0  0  0  0  0  0  0  0  0
  187.8400  177.8060  143.0810 C   0  0  0  0  0  0  0  0  0  0  0  0
  189.7470  176.9710  141.4950 C   0  0  0  0  0  2  0  0  0  0  0  0
  190.5550  176.0040  142.3570 C   0  0  0  0  0  2  0  0  0  0  0  0
  189.8590  178.0010  145.4680 C   0  0  0  0  0  2  0  0  0  0  0  0
  183.4020  178.6810  141.5650 C   0  0  0  0  0  0  0  0  0  0  0  0
  183.2210  178.8480  138.4340 C   0  0  0  0  0  2  0  0  0  0  0  0
  186.9840  178.0020  142.1180 N   0  0  0  0  0  0  0  0  0  0  0  0
  188.3830  177.5820  145.6780 C   0  0  0  0  0  2  0  0  0  0  0  0
  184.6980  178.4410  141.2650 C   0  0  0  0  0  0  0  0  0  0  0  0
  181.1400  179.3930  141.5620 C   0  0  0  0  0  2  0  0  0  0  0  0
  187.4290  177.9090  144.5290 C   0  0  0  0  0  0  0  0  0  0  0  0
  190.6520  177.0480  144.6600 N   0  0  0  0  0  2  0  0  0  0  0  0
  182.5580  179.7330  139.4660 C   0  0  2  0  0  3  0  0  0  0  0  0
  185.1750  178.3650  143.7300 C   0  0  1  0  0  3  0  0  0  0  0  0
  189.2900  177.6740  142.7580 C   0  0  2  0  0  3  0  0  0  0  0  0
  185.6210  178.2600  142.3650 N   0  0  0  0  0  0  0  0  0  0  0  0
  184.2880  178.5450  146.4280 C   0  0  0  0  0  3  0  0  0  0  0  0
  184.6730  178.6260  138.7060 C   0  0  0  0  0  3  0  0  0  0  0  0
  185.6710  178.2590  146.1690 N   0  0  0  0  0  0  0  0  0  0  0  0
  185.2640  178.4310  139.8900 C   0  0  0  0  0  3  0  0  0  0  0  0
  182.2430  178.8330  140.6500 C   0  0  1  0  0  3  0  0  0  0  0  0
  183.4310  178.7220  145.4160 C   0  0  0  0  0  3  0  0  0  0  0  0
  182.9870  178.7980  142.9150 N   0  0  0  0  0  0  0  0  0  0  0  0
  181.3800  180.2490  138.9160 O   0  0  0  0  0  0  0  0  0  0  0  0
  181.7570  181.4680  138.3440 C   0  0  0  0  0  2  0  0  0  0  0  0
  181.1800  183.9130  136.2230 O   0  0  0  0  0  0  0  0  0  0  0  0
  180.5950  181.6300  136.1670 C   0  0  0  0  0  2  0  0  0  0  0  0
  180.5820  182.0770  137.6000 C   0  0  2  0  0  3  0  0  0  0  0  0
  180.6460  182.9230  135.3890 C   0  0  0  0  0  2  0  0  0  0  0  0
  180.7560  183.5760  137.5180 C   0  0  0  0  0  2  0  0  0  0  0  0
  1 26  2  0  0  0  0
  3  7  1  6  0  0  0
  3 16  1  0  0  0  0
  4 23  1  0  0  0  0
  5 15  1  0  0  0  0
  6  7  1  0  0  0  0
  8 12  1  0  0  0  0
  9 27  1  0  0  0  0
 10 22  1  0  0  0  0
 10 17  1  0  0  0  0
 11 20  1  0  0  0  0
 11  5  2  0  0  0  0
 13  9  2  0  0  0  0
 13 20  1  0  0  0  0
 14  2  1  0  0  0  0
 15  4  2  0  0  0  0
 15 12  1  0  0  0  0
 16  8  1  0  0  0  0
 17 28  1  6  0  0  0
 17 25  1  0  0  0  0
 18  1  1  1  0  0  0
 18  4  1  0  0  0  0
 19  6  1  6  0  0  0
 19  5  1  0  0  0  0
 19  3  1  0  0  0  0
 20 18  1  0  0  0  0
 22 24  2  0  0  0  0
 23 21  2  0  0  0  0
 24 13  1  0  0  0  0
 25 14  1  1  0  0  0
 25  9  1  0  0  0  0
 26 21  1  0  0  0  0
 27  2  1  0  0  0  0
 27  1  1  0  0  0  0
 29 28  1  0  0  0  0
 30 34  1  0  0  0  0
 31 32  1  0  0  0  0
 32 29  1  1  0  0  0
 33 31  1  0  0  0  0
 33 30  1  0  0  0  0
 34 32  1  0  0  0  0
M  END
>  <MODEL>
7

>  <REMARK>
 VINA RESULT:      -9.4      2.374      4.772
  Name = 
  3 active torsions:
  status: ('A' for Active; 'I' for Inactive)
    1  A    between atoms: C_17  and  O_28
    2  A    between atoms: O_28  and  C_29
    3  A    between atoms: C_29  and  C_32
                            x       y       z     vdW  Elec       q    Type
                         _______ _______ _______ _____ _____    ______ ____

>  <TORSDO>
F 3

$$$$
=
 OpenBabel11122412123D

 34 41  0  0  1  0  0  0  0  0999 V2000
  185.2990  178.3060  144.8920 C   0  0  0  0  0  0  0  0  0  0  0  0
  183.1960  178.8690  143.5290 C   0  0  0  0  0  2  0  0  0  0  0  0
  191.1620  176.0330  145.4270 C   0  0  1  0  0  3  0  0  0  0  0  0
  187.3810  177.8010  146.0520 C   0  0  0  0  0  0  0  0  0  0  0  0
  189.3180  177.3570  144.6100 C   0  0  0  0  0  0  0  0  0  0  0  0
  191.4240  176.4420  143.3570 C   0  0  0  0  0  2  0  0  0  0  0  0
  192.0560  175.4650  144.3470 C   0  0  0  0  0  2  0  0  0  0  0  0
  190.9390  177.5330  147.2850 C   0  0  0  0  0  2  0  0  0  0  0  0
  185.2040  178.3360  142.4000 C   0  0  0  0  0  0  0  0  0  0  0  0
  185.5260  178.4570  139.2780 C   0  0  0  0  0  2  0  0  0  0  0  0
  188.6310  177.5620  143.5220 N   0  0  0  0  0  0  0  0  0  0  0  0
  189.4360  177.1600  147.2640 C   0  0  0  0  0  2  0  0  0  0  0  0
  186.5240  178.0530  142.3120 C   0  0  0  0  0  0  0  0  0  0  0  0
  182.9950  179.1130  142.0310 C   0  0  0  0  0  2  0  0  0  0  0  0
  188.6860  177.4960  145.9740 C   0  0  0  0  0  0  0  0  0  0  0  0
  191.8190  176.5440  146.6240 N   0  0  0  0  0  2  0  0  0  0  0  0
  184.7360  179.3780  140.1820 C   0  0  2  0  0  3  0  0  0  0  0  0
  186.6020  178.0040  144.8220 C   0  0  1  0  0  3  0  0  0  0  0  0
  190.7950  177.1780  144.5230 C   0  0  2  0  0  3  0  0  0  0  0  0
  187.2540  177.8640  143.5470 N   0  0  0  0  0  0  0  0  0  0  0  0
  185.3060  178.2530  147.3430 C   0  0  0  0  0  3  0  0  0  0  0  0
  186.9100  178.1980  139.7790 C   0  0  0  0  0  3  0  0  0  0  0  0
  186.7030  177.9230  147.3110 N   0  0  0  0  0  0  0  0  0  0  0  0
  187.2990  178.0050  141.0450 C   0  0  0  0  0  3  0  0  0  0  0  0
  184.2100  178.5060  141.3110 C   0  0  1  0  0  3  0  0  0  0  0  0
  184.6260  178.4390  146.2060 C   0  0  0  0  0  3  0  0  0  0  0  0
  184.5860  178.4870  143.6660 N   0  0  0  0  0  0  0  0  0  0  0  0
  183.6770  179.9190  139.4460 O   0  0  0  0  0  0  0  0  0  0  0  0
  183.4900  179.0320  138.3830 C   0  0  0  0  0  2  0  0  0  0  0  0
  180.5650  178.3320  139.7100 O   0  0  0  0  0  0  0  0  0  0  0  0
  181.3270  180.2210  138.5240 C   0  0  0  0  0  2  0  0  0  0  0  0
  182.0290  179.0150  137.9730 C   0  0  2  0  0  3  0  0  0  0  0  0
  180.2080  179.6380  139.3530 C   0  0  0  0  0  2  0  0  0  0  0  0
  181.3300  177.8500  138.6370 C   0  0  0  0  0  2  0  0  0  0  0  0
  1 26  2  0  0  0  0
  2 27  1  0  0  0  0
  3  7  1  6  0  0  0
  3 16  1  0  0  0  0
  4 23  1  0  0  0  0
  5 15  1  0  0  0  0
  6  7  1  0  0  0  0
  9 27  1  0  0  0  0
 10 22  1  0  0  0  0
 10 17  1  0  0  0  0
 11 20  1  0  0  0  0
 11  5  2  0  0  0  0
 12  8  1  0  0  0  0
 13  9  2  0  0  0  0
 13 20  1  0  0  0  0
 14  2  1  0  0  0  0
 15  4  2  0  0  0  0
 15 12  1  0  0  0  0
 16  8  1  0  0  0  0
 17 28  1  6  0  0  0
 17 25  1  0  0  0  0
 18  1  1  6  0  0  0
 18  4  1  0  0  0  0
 19  6  1  6  0  0  0
 19  5  1  0  0  0  0
 19  3  1  0  0  0  0
 20 18  1  0  0  0  0
 22 24  2  0  0  0  0
 23 21  2  0  0  0  0
 24 13  1  0  0  0  0
 25 14  1  1  0  0  0
 25  9  1  0  0  0  0
 26 21  1  0  0  0  0
 27  1  1  0  0  0  0
 29 28  1  0  0  0  0
 31 33  1  0  0  0  0
 32 29  1  1  0  0  0
 32 31  1  0  0  0  0
 32 34  1  0  0  0  0
 33 30  1  0  0  0  0
 34 30  1  0  0  0  0
M  END
>  <MODEL>
8

>  <REMARK>
 VINA RESULT:      -9.1      1.661      3.938
  Name = 
  3 active torsions:
  status: ('A' for Active; 'I' for Inactive)
    1  A    between atoms: C_17  and  O_28
    2  A    between atoms: O_28  and  C_29
    3  A    between atoms: C_29  and  C_32
                            x       y       z     vdW  Elec       q    Type
                         _______ _______ _______ _____ _____    ______ ____

>  <TORSDO>
F 3

$$$$
=
 OpenBabel11122412123D

 34 41  0  0  1  0  0  0  0  0999 V2000
  187.6190  177.8510  138.6170 C   0  0  0  0  0  0  0  0  0  0  0  0
  186.2040  178.6530  140.6050 C   0  0  0  0  0  2  0  0  0  0  0  0
  193.0580  175.9480  136.0430 C   0  0  1  0  0  3  0  0  0  0  0  0
  189.0490  177.0040  136.8360 C   0  0  0  0  0  0  0  0  0  0  0  0
  191.1850  176.0340  137.5610 C   0  0  0  0  0  0  0  0  0  0  0  0
  193.6700  175.3340  137.9840 C   0  0  0  0  0  2  0  0  0  0  0  0
  194.4010  175.7550  136.7110 C   0  0  0  0  0  2  0  0  0  0  0  0
  191.3730  175.0480  134.5940 C   0  0  0  0  0  2  0  0  0  0  0  0
  188.3440  177.7270  141.0000 C   0  0  0  0  0  0  0  0  0  0  0  0
  189.5180  177.2300  143.8700 C   0  0  0  0  0  2  0  0  0  0  0  0
  190.9190  176.2380  138.8210 N   0  0  0  0  0  0  0  0  0  0  0  0
  190.5270  176.2830  134.9920 C   0  0  0  0  0  2  0  0  0  0  0  0
  189.4960  177.1080  140.6540 C   0  0  0  0  0  0  0  0  0  0  0  0
  186.3980  178.4950  142.1160 C   0  0  0  0  0  2  0  0  0  0  0  0
  190.2010  176.4120  136.4810 C   0  0  0  0  0  0  0  0  0  0  0  0
  192.8280  175.2160  134.8030 N   0  0  0  0  0  2  0  0  0  0  0  0
  188.0900  177.0730  143.3950 C   0  0  2  0  0  3  0  0  0  0  0  0
  188.7650  177.2590  138.2550 C   0  0  0  0  0  0  0  0  0  0  0  0
  192.3860  175.2360  137.1840 C   0  0  2  0  0  3  0  0  0  0  0  0
  189.7350  176.8740  139.2460 N   0  0  0  0  0  0  0  0  0  0  0  0
  186.8590  178.0450  136.2940 C   0  0  0  0  0  3  0  0  0  0  0  0
  190.5090  176.5910  142.9540 C   0  0  0  0  0  3  0  0  0  0  0  0
  188.0770  177.4180  135.8660 N   0  0  0  0  0  2  0  0  0  0  0  0
  190.4960  176.5750  141.6160 C   0  0  0  0  0  3  0  0  0  0  0  0
  187.8790  178.1520  142.3440 C   0  0  1  0  0  3  0  0  0  0  0  0
  186.6250  178.2570  137.5950 C   0  0  0  0  0  3  0  0  0  0  0  0
  187.3940  178.0820  140.0100 N   0  0  0  0  0  0  0  0  0  0  0  0
  187.2360  177.2750  144.4830 O   0  0  0  0  0  0  0  0  0  0  0  0
  188.0260  177.9100  145.4450 C   0  0  0  0  0  2  0  0  0  0  0  0
  189.4800  177.8440  148.3930 O   0  0  0  0  0  0  0  0  0  0  0  0
  187.2400  178.2300  147.7670 C   0  0  0  0  0  2  0  0  0  0  0  0
  187.8290  177.2480  146.7970 C   0  0  2  0  0  3  0  0  0  0  0  0
  188.2420  178.2640  148.8960 C   0  0  0  0  0  2  0  0  0  0  0  0
  189.1750  176.9060  147.3940 C   0  0  0  0  0  2  0  0  0  0  0  0
  1 27  1  0  0  0  0
  2 14  1  0  0  0  0
  3  7  1  1  0  0  0
  3 19  1  0  0  0  0
  4 18  1  0  0  0  0
  5 11  2  0  0  0  0
  7  6  1  0  0  0  0
  8 16  1  0  0  0  0
  8 12  1  0  0  0  0
  9 25  1  0  0  0  0
 11 20  1  0  0  0  0
 12 15  1  0  0  0  0
 13  9  2  0  0  0  0
 13 24  1  0  0  0  0
 15  4  2  0  0  0  0
 15  5  1  0  0  0  0
 16  3  1  0  0  0  0
 17 10  1  0  0  0  0
 17 28  1  1  0  0  0
 18  1  2  0  0  0  0
 18 20  1  0  0  0  0
 19  5  1  0  0  0  0
 19  6  1  1  0  0  0
 20 13  1  0  0  0  0
 21 26  2  0  0  0  0
 22 10  1  0  0  0  0
 23 21  1  0  0  0  0
 23  4  1  0  0  0  0
 24 22  2  0  0  0  0
 25 14  1  6  0  0  0
 25 17  1  0  0  0  0
 26  1  1  0  0  0  0
 27  2  1  0  0  0  0
 27  9  1  0  0  0  0
 28 29  1  0  0  0  0
 30 33  1  0  0  0  0
 31 33  1  0  0  0  0
 32 29  1  6  0  0  0
 32 34  1  0  0  0  0
 32 31  1  0  0  0  0
 34 30  1  0  0  0  0
M  END
>  <MODEL>
9

>  <REMARK>
 VINA RESULT:      -9.0      4.101      8.360
  Name = 
  3 active torsions:
  status: ('A' for Active; 'I' for Inactive)
    1  A    between atoms: C_17  and  O_28
    2  A    between atoms: O_28  and  C_29
    3  A    between atoms: C_29  and  C_32
                            x       y       z     vdW  Elec       q    Type
                         _______ _______ _______ _____ _____    ______ ____

>  <TORSDO>
F 3

$$$$
