=
 OpenBabel11122412143D

 34 41  0  0  1  0  0  0  0  0999 V2000
  183.3390  178.6660  143.6920 C   0  0  0  0  0  0  0  0  0  0  0  0
  184.6920  178.5240  145.8730 C   0  0  0  0  0  3  0  0  0  0  0  0
  182.4410  177.1850  137.4200 C   0  0  2  0  0  3  0  0  0  0  0  0
  182.1640  178.7710  141.5470 C   0  0  0  0  0  0  0  0  0  0  0  0
  183.4030  178.0170  139.4850 C   0  0  1  0  0  3  0  0  0  0  0  0
  184.5360  177.4600  137.1930 C   0  0  0  0  0  2  0  0  0  0  0  0
  183.4700  176.6740  136.4380 C   0  0  0  0  0  2  0  0  0  0  0  0
  180.5980  178.8080  137.9990 C   0  0  0  0  0  2  0  0  0  0  0  0
  185.7350  178.3720  143.7500 C   0  0  0  0  0  0  0  0  0  0  0  0
  187.9360  176.5440  143.2850 C   0  0  0  0  0  2  0  0  0  0  0  0
  184.6700  178.5950  140.1010 C   0  0  0  0  0  2  0  0  0  0  0  0
  180.8290  178.2910  139.4340 C   0  0  0  0  0  2  0  0  0  0  0  0
  185.8160  178.3730  142.3440 C   0  0  0  0  0  0  0  0  0  0  0  0
  186.2040  178.4430  146.0880 C   0  0  0  0  0  3  0  0  0  0  0  0
  182.1710  178.7850  140.0310 C   0  0  1  0  0  3  0  0  0  0  0  0
  181.2360  177.9390  136.8900 C   0  0  0  0  0  2  0  0  0  0  0  0
  187.5130  176.9260  144.6450 N   0  0  0  0  0  0  0  0  0  0  0  0
  183.3740  178.6550  142.2740 C   0  0  0  0  0  0  0  0  0  0  0  0
  183.4410  178.1620  137.9750 C   0  0  1  0  0  3  0  0  0  0  0  0
  184.6180  178.5140  141.6040 C   0  0  0  0  0  0  0  0  0  0  0  0
  180.9390  178.9900  143.6410 C   0  0  0  0  0  3  0  0  0  0  0  0
  188.3260  177.7400  142.4150 C   0  0  0  0  0  2  0  0  0  0  0  0
  180.9610  178.9650  142.2460 C   0  0  0  0  0  3  0  0  0  0  0  0
  187.1320  178.2470  141.6030 C   0  0  0  0  0  2  0  0  0  0  0  0
  186.8690  178.2510  144.7140 C   0  0  1  0  0  3  0  0  0  0  0  0
  182.1220  178.8350  144.3620 C   0  0  0  0  0  3  0  0  0  0  0  0
  184.5350  178.5220  144.4000 C   0  0  0  0  0  0  0  0  0  0  0  0
  188.7220  176.9750  145.4580 C   0  0  0  0  0  2  0  0  0  0  0  0
  189.4630  178.2750  145.1990 C   0  0  0  0  0  2  0  0  0  0  0  0
  191.7520  176.3320  143.5280 N   0  0  0  0  0  0  0  0  0  0  0  0
  191.3930  178.6050  143.6460 C   0  0  0  0  0  2  0  0  0  0  0  0
  190.9400  178.0050  144.9730 C   0  0  2  0  0  3  0  0  0  0  0  0
  191.8800  177.4270  142.8870 C   0  0  0  0  0  3  0  0  0  0  0  0
  191.1680  176.5060  144.8260 C   0  0  0  0  0  2  0  0  0  0  0  0
  1 26  1  0  0  0  0
  1 27  1  0  0  0  0
  2 14  2  0  0  0  0
  3  7  1  6  0  0  0
  3 19  1  0  0  0  0
  4 23  2  0  0  0  0
  4 18  1  0  0  0  0
  5 15  1  0  0  0  0
  5 11  1  1  0  0  0
  7  6  1  0  0  0  0
  8 12  1  0  0  0  0
  9 27  2  0  0  0  0
  9 25  1  0  0  0  0
 10 17  1  0  0  0  0
 11 20  1  0  0  0  0
 13  9  1  0  0  0  0
 15 12  1  6  0  0  0
 15  4  1  0  0  0  0
 16  3  1  0  0  0  0
 16  8  1  0  0  0  0
 17 25  1  0  0  0  0
 17 28  1  0  0  0  0
 18  1  2  0  0  0  0
 19  6  1  6  0  0  0
 19  5  1  0  0  0  0
 20 18  1  0  0  0  0
 20 13  2  0  0  0  0
 21 26  2  0  0  0  0
 22 10  1  0  0  0  0
 23 21  1  0  0  0  0
 24 13  1  0  0  0  0
 24 22  1  0  0  0  0
 25 14  1  1  0  0  0
 27  2  1  0  0  0  0
 29 28  1  0  0  0  0
 30 34  1  0  0  0  0
 31 32  1  0  0  0  0
 32 29  1  6  0  0  0
 33 30  2  0  0  0  0
 33 31  1  0  0  0  0
 34 32  1  0  0  0  0
M  END
>  <MODEL>
1

>  <REMARK>
 VINA RESULT:     -10.9      0.000      0.000
  Name = 
  3 active torsions:
  status: ('A' for Active; 'I' for Inactive)
    1  A    between atoms: N_17  and  C_28
    2  A    between atoms: C_28  and  C_29
    3  A    between atoms: C_29  and  C_32
                            x       y       z     vdW  Elec       q    Type
                         _______ _______ _______ _____ _____    ______ ____

>  <TORSDO>
F 3

$$$$
=
 OpenBabel11122412143D

 34 41  0  0  1  0  0  0  0  0999 V2000
  188.9290  177.5310  143.4980 C   0  0  0  0  0  0  0  0  0  0  0  0
  191.3040  176.8390  142.7980 C   0  0  0  0  0  3  0  0  0  0  0  0
  182.5790  178.2070  142.2560 C   0  0  2  0  0  3  0  0  0  0  0  0
  186.6370  178.2010  144.0320 C   0  0  0  0  0  0  0  0  0  0  0  0
  184.9930  178.4010  142.1320 C   0  0  1  0  0  3  0  0  0  0  0  0
  183.1620  178.8490  140.3150 C   0  0  0  0  0  2  0  0  0  0  0  0
  181.9010  178.2270  140.9040 C   0  0  0  0  0  2  0  0  0  0  0  0
  182.9330  179.2380  144.5310 C   0  0  0  0  0  2  0  0  0  0  0  0
  189.7100  177.5900  141.2140 C   0  0  0  0  0  0  0  0  0  0  0  0
  189.5210  176.3820  138.5850 C   0  0  0  0  0  2  0  0  0  0  0  0
  186.1380  178.9080  141.2660 C   0  0  0  0  0  2  0  0  0  0  0  0
  184.1520  178.2940  144.5770 C   0  0  0  0  0  2  0  0  0  0  0  0
  188.4760  178.0920  140.7560 C   0  0  0  0  0  0  0  0  0  0  0  0
  191.9870  176.9120  141.4310 C   0  0  0  0  0  3  0  0  0  0  0  0
  185.2820  178.7410  143.6160 C   0  0  1  0  0  3  0  0  0  0  0  0
  181.9080  178.9130  143.4190 C   0  0  0  0  0  2  0  0  0  0  0  0
  190.7060  176.2010  139.4430 N   0  0  0  0  0  0  0  0  0  0  0  0
  187.6660  178.0180  143.0760 C   0  0  0  0  0  0  0  0  0  0  0  0
  183.6920  179.0660  141.7210 C   0  0  1  0  0  3  0  0  0  0  0  0
  187.4460  178.3030  141.7030 C   0  0  0  0  0  0  0  0  0  0  0  0
  188.1630  177.4950  145.7940 C   0  0  0  0  0  3  0  0  0  0  0  0
  189.2110  177.8500  138.2840 C   0  0  0  0  0  2  0  0  0  0  0  0
  186.9110  177.9600  145.3880 C   0  0  0  0  0  3  0  0  0  0  0  0
  188.2220  178.4260  139.2990 C   0  0  0  0  0  2  0  0  0  0  0  0
  190.9250  177.3090  140.3920 C   0  0  1  0  0  3  0  0  0  0  0  0
  189.1660  177.2750  144.8530 C   0  0  0  0  0  3  0  0  0  0  0  0
  189.9290  177.3260  142.5430 C   0  0  0  0  0  0  0  0  0  0  0  0
  191.8590  176.1420  138.5530 C   0  0  0  0  0  2  0  0  0  0  0  0
  191.7430  174.9320  137.6420 C   0  0  0  0  0  2  0  0  0  0  0  0
  194.9840  175.8160  136.9210 N   0  0  0  0  0  0  0  0  0  0  0  0
  193.8100  173.8400  136.7590 C   0  0  0  0  0  2  0  0  0  0  0  0
  192.8120  174.9780  136.5660 C   0  0  2  0  0  3  0  0  0  0  0  0
  195.1020  174.5470  136.9480 C   0  0  0  0  0  3  0  0  0  0  0  0
  193.6330  176.2520  136.7160 C   0  0  0  0  0  2  0  0  0  0  0  0
  1 26  2  0  0  0  0
  3  7  1  6  0  0  0
  3 16  1  0  0  0  0
  4 23  1  0  0  0  0
  5 11  1  6  0  0  0
  5 15  1  0  0  0  0
  6  7  1  0  0  0  0
  8 12  1  0  0  0  0
  9 27  2  0  0  0  0
 10 17  1  0  0  0  0
 11 20  1  0  0  0  0
 13  9  1  0  0  0  0
 13 20  2  0  0  0  0
 14  2  2  0  0  0  0
 15  4  1  0  0  0  0
 15 12  1  1  0  0  0
 16  8  1  0  0  0  0
 17 25  1  0  0  0  0
 18  1  1  0  0  0  0
 18  4  2  0  0  0  0
 19  6  1  6  0  0  0
 19  5  1  0  0  0  0
 19  3  1  0  0  0  0
 20 18  1  0  0  0  0
 22 10  1  0  0  0  0
 22 24  1  0  0  0  0
 23 21  2  0  0  0  0
 24 13  1  0  0  0  0
 25  9  1  0  0  0  0
 25 14  1  1  0  0  0
 26 21  1  0  0  0  0
 27  2  1  0  0  0  0
 27  1  1  0  0  0  0
 28 17  1  0  0  0  0
 29 28  1  0  0  0  0
 30 33  2  0  0  0  0
 31 33  1  0  0  0  0
 32 34  1  0  0  0  0
 32 31  1  0  0  0  0
 32 29  1  1  0  0  0
 34 30  1  0  0  0  0
M  END
>  <MODEL>
2

>  <REMARK>
 VINA RESULT:     -10.8      3.410      6.092
  Name = 
  3 active torsions:
  status: ('A' for Active; 'I' for Inactive)
    1  A    between atoms: N_17  and  C_28
    2  A    between atoms: C_28  and  C_29
    3  A    between atoms: C_29  and  C_32
                            x       y       z     vdW  Elec       q    Type
                         _______ _______ _______ _____ _____    ______ ____

>  <TORSDO>
F 3

$$$$
=
 OpenBabel11122412143D

 34 41  0  0  1  0  0  0  0  0999 V2000
  182.6800  178.7180  143.3910 C   0  0  0  0  0  0  0  0  0  0  0  0
  183.8680  178.7980  145.6690 C   0  0  0  0  0  3  0  0  0  0  0  0
  182.3960  176.8720  137.1590 C   0  0  2  0  0  3  0  0  0  0  0  0
  181.6680  178.6180  141.1640 C   0  0  0  0  0  0  0  0  0  0  0  0
  183.1220  177.8820  139.2400 C   0  0  1  0  0  3  0  0  0  0  0  0
  184.4720  177.3220  137.0690 C   0  0  0  0  0  2  0  0  0  0  0  0
  183.5370  176.4100  136.2820 C   0  0  0  0  0  2  0  0  0  0  0  0
  180.3830  178.3500  137.5150 C   0  0  0  0  0  2  0  0  0  0  0  0
  185.0800  178.6410  143.6390 C   0  0  0  0  0  0  0  0  0  0  0  0
  187.4580  176.9950  143.4320 C   0  0  0  0  0  2  0  0  0  0  0  0
  184.2840  178.5980  139.9150 C   0  0  0  0  0  2  0  0  0  0  0  0
  180.5460  177.9230  138.9880 C   0  0  0  0  0  2  0  0  0  0  0  0
  185.2690  178.5840  142.2440 C   0  0  0  0  0  0  0  0  0  0  0  0
  185.3610  178.8620  145.9970 C   0  0  0  0  0  3  0  0  0  0  0  0
  181.7910  178.5610  139.6540 C   0  0  1  0  0  3  0  0  0  0  0  0
  181.1760  177.4910  136.5020 C   0  0  0  0  0  2  0  0  0  0  0  0
  186.9010  177.4010  144.7360 N   0  0  0  0  0  0  0  0  0  0  0  0
  182.8250  178.6440  141.9820 C   0  0  0  0  0  0  0  0  0  0  0  0
  183.2640  177.9590  137.7320 C   0  0  1  0  0  3  0  0  0  0  0  0
  184.1240  178.5830  141.4120 C   0  0  0  0  0  0  0  0  0  0  0  0
  180.2730  178.8240  143.1490 C   0  0  0  0  0  3  0  0  0  0  0  0
  187.8110  178.1790  142.5300 C   0  0  0  0  0  2  0  0  0  0  0  0
  180.4040  178.7370  141.7630 C   0  0  0  0  0  3  0  0  0  0  0  0
  186.6450  178.5410  141.6080 C   0  0  0  0  0  2  0  0  0  0  0  0
  186.1430  178.6650  144.6880 C   0  0  1  0  0  3  0  0  0  0  0  0
  181.4050  178.8090  143.9610 C   0  0  0  0  0  3  0  0  0  0  0  0
  183.8260  178.7130  144.1910 C   0  0  0  0  0  0  0  0  0  0  0  0
  188.0360  177.5950  145.6300 C   0  0  0  0  0  2  0  0  0  0  0  0
  189.2400  176.8310  145.1070 C   0  0  0  0  0  2  0  0  0  0  0  0
  191.4220  176.1540  147.6730 N   0  0  0  0  0  0  0  0  0  0  0  0
  191.6870  176.4170  145.4000 C   0  0  0  0  0  2  0  0  0  0  0  0
  190.5010  177.2800  145.8200 C   0  0  2  0  0  3  0  0  0  0  0  0
  192.1390  175.8110  146.6770 C   0  0  0  0  0  3  0  0  0  0  0  0
  190.3530  177.0430  147.3180 C   0  0  0  0  0  2  0  0  0  0  0  0
  1 26  1  0  0  0  0
  1 27  1  0  0  0  0
  2 14  2  0  0  0  0
  3  7  1  6  0  0  0
  3 19  1  0  0  0  0
  4 23  2  0  0  0  0
  4 18  1  0  0  0  0
  5 15  1  0  0  0  0
  5 11  1  1  0  0  0
  7  6  1  0  0  0  0
  8 12  1  0  0  0  0
  9 27  2  0  0  0  0
  9 25  1  0  0  0  0
 10 17  1  0  0  0  0
 11 20  1  0  0  0  0
 13  9  1  0  0  0  0
 15 12  1  6  0  0  0
 15  4  1  0  0  0  0
 16  3  1  0  0  0  0
 16  8  1  0  0  0  0
 17 28  1  0  0  0  0
 18  1  2  0  0  0  0
 19  6  1  1  0  0  0
 19  5  1  0  0  0  0
 20 18  1  0  0  0  0
 20 13  2  0  0  0  0
 21 26  2  0  0  0  0
 22 10  1  0  0  0  0
 23 21  1  0  0  0  0
 24 13  1  0  0  0  0
 24 22  1  0  0  0  0
 25 17  1  0  0  0  0
 25 14  1  1  0  0  0
 27  2  1  0  0  0  0
 29 28  1  0  0  0  0
 31 32  1  0  0  0  0
 31 33  1  0  0  0  0
 32 29  1  6  0  0  0
 32 34  1  0  0  0  0
 33 30  2  0  0  0  0
 34 30  1  0  0  0  0
M  END
>  <MODEL>
3

>  <REMARK>
 VINA RESULT:     -10.7      1.184      1.389
  Name = 
  3 active torsions:
  status: ('A' for Active; 'I' for Inactive)
    1  A    between atoms: N_17  and  C_28
    2  A    between atoms: C_28  and  C_29
    3  A    between atoms: C_29  and  C_32
                            x       y       z     vdW  Elec       q    Type
                         _______ _______ _______ _____ _____    ______ ____

>  <TORSDO>
F 3

$$$$
=
 OpenBabel11122412143D

 34 41  0  0  1  0  0  0  0  0999 V2000
  184.2930  178.5300  144.1770 C   0  0  0  0  0  0  0  0  0  0  0  0
  182.0520  179.1200  143.0650 C   0  0  0  0  0  3  0  0  0  0  0  0
  190.7910  178.2050  144.1090 C   0  0  2  0  0  3  0  0  0  0  0  0
  186.4830  177.9610  145.1110 C   0  0  0  0  0  0  0  0  0  0  0  0
  188.4540  177.8930  143.5410 C   0  0  1  0  0  3  0  0  0  0  0  0
  190.6060  177.5850  142.0840 C   0  0  0  0  0  2  0  0  0  0  0  0
  191.7030  178.2540  142.9040 C   0  0  0  0  0  2  0  0  0  0  0  0
  190.0840  177.0980  146.2620 C   0  0  0  0  0  2  0  0  0  0  0  0
  183.9460  178.4920  141.7870 C   0  0  0  0  0  0  0  0  0  0  0  0
  184.5450  179.7760  139.2590 C   0  0  0  0  0  2  0  0  0  0  0  0
  187.5140  177.3530  142.4710 C   0  0  0  0  0  2  0  0  0  0  0  0
  188.8280  177.9780  146.1010 C   0  0  0  0  0  2  0  0  0  0  0  0
  185.2680  178.0640  141.5550 C   0  0  0  0  0  0  0  0  0  0  0  0
  181.6340  179.0490  141.5950 C   0  0  0  0  0  3  0  0  0  0  0  0
  187.9170  177.5010  144.9410 C   0  0  1  0  0  3  0  0  0  0  0  0
  191.2750  177.5030  145.3640 C   0  0  0  0  0  2  0  0  0  0  0  0
  183.2150  179.8750  139.8880 N   0  0  0  0  0  0  0  0  0  0  0  0
  185.6360  178.1180  143.9860 C   0  0  0  0  0  0  0  0  0  0  0  0
  189.8410  177.3060  143.3650 C   0  0  1  0  0  3  0  0  0  0  0  0
  186.1180  177.8800  142.6710 C   0  0  0  0  0  0  0  0  0  0  0  0
  184.6250  178.5430  146.5750 C   0  0  0  0  0  3  0  0  0  0  0  0
  184.9840  178.3350  138.9950 C   0  0  0  0  0  2  0  0  0  0  0  0
  185.9530  178.1520  146.3980 C   0  0  0  0  0  3  0  0  0  0  0  0
  185.8010  177.7820  140.1640 C   0  0  0  0  0  2  0  0  0  0  0  0
  182.8870  178.7330  140.7610 C   0  0  1  0  0  3  0  0  0  0  0  0
  183.8000  178.7380  145.4690 C   0  0  0  0  0  3  0  0  0  0  0  0
  183.4740  178.7090  143.0580 C   0  0  0  0  0  0  0  0  0  0  0  0
  182.2430  179.9000  138.8020 C   0  0  0  0  0  2  0  0  0  0  0  0
  181.9370  181.3380  138.4190 C   0  0  0  0  0  2  0  0  0  0  0  0
  180.5810  182.5470  135.5030 N   0  0  0  0  0  0  0  0  0  0  0  0
  180.8040  180.4310  136.3850 C   0  0  0  0  0  2  0  0  0  0  0  0
  180.6890  181.4000  137.5570 C   0  0  2  0  0  3  0  0  0  0  0  0
  180.6980  181.3150  135.1980 C   0  0  0  0  0  3  0  0  0  0  0  0
  180.5790  182.7790  136.9190 C   0  0  0  0  0  2  0  0  0  0  0  0
  1 26  2  0  0  0  0
  3  7  1  6  0  0  0
  3 16  1  0  0  0  0
  4 23  1  0  0  0  0
  5 11  1  6  0  0  0
  5 15  1  0  0  0  0
  6  7  1  0  0  0  0
  9 27  2  0  0  0  0
 10 17  1  0  0  0  0
 11 20  1  0  0  0  0
 12  8  1  0  0  0  0
 13  9  1  0  0  0  0
 13 20  2  0  0  0  0
 14  2  2  0  0  0  0
 15  4  1  0  0  0  0
 15 12  1  1  0  0  0
 16  8  1  0  0  0  0
 17 25  1  0  0  0  0
 18  1  1  0  0  0  0
 18  4  2  0  0  0  0
 19  6  1  6  0  0  0
 19  5  1  0  0  0  0
 19  3  1  0  0  0  0
 20 18  1  0  0  0  0
 22 10  1  0  0  0  0
 22 24  1  0  0  0  0
 23 21  2  0  0  0  0
 24 13  1  0  0  0  0
 25 14  1  1  0  0  0
 25  9  1  0  0  0  0
 26 21  1  0  0  0  0
 27  2  1  0  0  0  0
 27  1  1  0  0  0  0
 28 17  1  0  0  0  0
 29 28  1  0  0  0  0
 30 34  1  0  0  0  0
 31 32  1  0  0  0  0
 32 29  1  1  0  0  0
 33 30  2  0  0  0  0
 33 31  1  0  0  0  0
 34 32  1  0  0  0  0
M  END
>  <MODEL>
4

>  <REMARK>
 VINA RESULT:     -10.3      2.946      8.462
  Name = 
  3 active torsions:
  status: ('A' for Active; 'I' for Inactive)
    1  A    between atoms: N_17  and  C_28
    2  A    between atoms: C_28  and  C_29
    3  A    between atoms: C_29  and  C_32
                            x       y       z     vdW  Elec       q    Type
                         _______ _______ _______ _____ _____    ______ ____

>  <TORSDO>
F 3

$$$$
=
 OpenBabel11122412143D

 34 41  0  0  1  0  0  0  0  0999 V2000
  185.4240  178.6600  142.4240 C   0  0  0  0  0  0  0  0  0  0  0  0
  185.0290  179.0230  139.9100 C   0  0  0  0  0  3  0  0  0  0  0  0
  189.3780  178.0470  147.5540 C   0  0  2  0  0  3  0  0  0  0  0  0
  185.9250  178.2720  144.7880 C   0  0  0  0  0  0  0  0  0  0  0  0
  188.2990  177.6950  145.4110 C   0  0  1  0  0  3  0  0  0  0  0  0
  190.6410  176.9090  146.2770 C   0  0  0  0  0  2  0  0  0  0  0  0
  190.8550  177.7280  147.5460 C   0  0  0  0  0  2  0  0  0  0  0  0
  187.0570  177.5980  148.4360 C   0  0  0  0  0  2  0  0  0  0  0  0
  187.0010  177.9900  140.7220 C   0  0  0  0  0  0  0  0  0  0  0  0
  189.5810  178.5130  139.5080 C   0  0  0  0  0  2  0  0  0  0  0  0
  188.3990  176.9260  144.1010 C   0  0  0  0  0  2  0  0  0  0  0  0
  186.6210  178.4550  147.2300 C   0  0  0  0  0  2  0  0  0  0  0  0
  187.8830  177.4590  141.6840 C   0  0  0  0  0  0  0  0  0  0  0  0
  185.8630  178.5740  138.7090 C   0  0  0  0  0  3  0  0  0  0  0  0
  186.8210  177.7200  145.8800 C   0  0  1  0  0  3  0  0  0  0  0  0
  188.5610  177.6910  148.7830 C   0  0  0  0  0  2  0  0  0  0  0  0
  188.3160  178.8360  138.8230 N   0  0  0  0  0  0  0  0  0  0  0  0
  186.2920  178.1530  143.4240 C   0  0  0  0  0  0  0  0  0  0  0  0
  189.1400  177.0210  146.4790 C   0  0  1  0  0  3  0  0  0  0  0  0
  187.5190  177.5470  143.0480 C   0  0  0  0  0  0  0  0  0  0  0  0
  183.8250  179.3100  144.1220 C   0  0  0  0  0  3  0  0  0  0  0  0
  189.7020  177.0360  139.8890 C   0  0  0  0  0  2  0  0  0  0  0  0
  184.6780  178.8270  145.1160 C   0  0  0  0  0  3  0  0  0  0  0  0
  189.1890  176.7860  141.3090 C   0  0  0  0  0  2  0  0  0  0  0  0
  187.1830  177.9900  139.2400 C   0  0  1  0  0  3  0  0  0  0  0  0
  184.1980  179.2330  142.7820 C   0  0  0  0  0  3  0  0  0  0  0  0
  185.8070  178.5640  141.0830 C   0  0  0  0  0  0  0  0  0  0  0  0
  188.5440  178.6080  137.4010 C   0  0  0  0  0  2  0  0  0  0  0  0
  188.6580  177.1180  137.1310 C   0  0  0  0  0  2  0  0  0  0  0  0
  185.7520  176.1950  135.5470 N   0  0  0  0  0  0  0  0  0  0  0  0
  187.2140  177.9550  135.2720 C   0  0  0  0  0  2  0  0  0  0  0  0
  188.0220  176.7730  135.7970 C   0  0  2  0  0  3  0  0  0  0  0  0
  185.8380  177.4080  135.1630 C   0  0  0  0  0  3  0  0  0  0  0  0
  187.0050  175.6550  135.9920 C   0  0  0  0  0  2  0  0  0  0  0  0
  1 26  2  0  0  0  0
  1 18  1  0  0  0  0
  2 27  1  0  0  0  0
  3  7  1  1  0  0  0
  3 16  1  0  0  0  0
  4 23  1  0  0  0  0
  4 15  1  0  0  0  0
  5 11  1  6  0  0  0
  5 15  1  0  0  0  0
  5 19  1  0  0  0  0
  6  7  1  0  0  0  0
  8 16  1  0  0  0  0
  9 27  2  0  0  0  0
  9 13  1  0  0  0  0
 10 22  1  0  0  0  0
 12  8  1  0  0  0  0
 13 20  2  0  0  0  0
 14  2  2  0  0  0  0
 15 12  1  1  0  0  0
 17 25  1  0  0  0  0
 17 10  1  0  0  0  0
 18  4  2  0  0  0  0
 19  6  1  6  0  0  0
 19  3  1  0  0  0  0
 20 18  1  0  0  0  0
 20 11  1  0  0  0  0
 21 23  2  0  0  0  0
 22 24  1  0  0  0  0
 24 13  1  0  0  0  0
 25 14  1  6  0  0  0
 25  9  1  0  0  0  0
 26 21  1  0  0  0  0
 27  1  1  0  0  0  0
 28 17  1  0  0  0  0
 29 28  1  0  0  0  0
 30 34  1  0  0  0  0
 31 32  1  0  0  0  0
 32 34  1  0  0  0  0
 32 29  1  1  0  0  0
 33 31  1  0  0  0  0
 33 30  2  0  0  0  0
M  END
>  <MODEL>
5

>  <REMARK>
 VINA RESULT:     -10.2      2.872      7.803
  Name = 
  3 active torsions:
  status: ('A' for Active; 'I' for Inactive)
    1  A    between atoms: N_17  and  C_28
    2  A    between atoms: C_28  and  C_29
    3  A    between atoms: C_29  and  C_32
                            x       y       z     vdW  Elec       q    Type
                         _______ _______ _______ _____ _____    ______ ____

>  <TORSDO>
F 3

$$$$
=
 OpenBabel11122412143D

 34 41  0  0  1  0  0  0  0  0999 V2000
  188.3230  177.7860  140.4960 C   0  0  0  0  0  0  0  0  0  0  0  0
  186.7600  178.0450  138.4720 C   0  0  0  0  0  3  0  0  0  0  0  0
  189.3460  176.5440  146.8000 C   0  0  2  0  0  3  0  0  0  0  0  0
  189.7050  177.5620  142.5040 C   0  0  0  0  0  0  0  0  0  0  0  0
  188.5410  177.5390  144.7400 C   0  0  1  0  0  3  0  0  0  0  0  0
  187.5810  177.6690  147.1720 C   0  0  0  0  0  2  0  0  0  0  0  0
  188.3320  176.5740  147.9220 C   0  0  0  0  0  2  0  0  0  0  0  0
  191.5920  177.2220  145.8750 C   0  0  0  0  0  2  0  0  0  0  0  0
  186.0220  178.4940  140.6780 C   0  0  0  0  0  0  0  0  0  0  0  0
  183.3540  177.7680  141.5470 C   0  0  0  0  0  2  0  0  0  0  0  0
  187.5420  178.5360  144.1700 C   0  0  0  0  0  2  0  0  0  0  0  0
  190.9940  176.7380  144.5380 C   0  0  0  0  0  2  0  0  0  0  0  0
  186.1280  178.6350  142.0760 C   0  0  0  0  0  0  0  0  0  0  0  0
  185.3270  178.5750  138.3980 C   0  0  0  0  0  3  0  0  0  0  0  0
  189.8960  177.6910  144.0030 C   0  0  1  0  0  3  0  0  0  0  0  0
  190.8080  176.7760  147.1310 C   0  0  0  0  0  2  0  0  0  0  0  0
  183.7170  177.8400  140.1200 N   0  0  0  0  0  0  0  0  0  0  0  0
  188.4670  177.8970  141.9020 C   0  0  0  0  0  0  0  0  0  0  0  0
  188.7560  177.8000  146.2190 C   0  0  1  0  0  3  0  0  0  0  0  0
  187.3660  178.3280  142.6890 C   0  0  0  0  0  0  0  0  0  0  0  0
  190.6380  177.1020  140.3020 C   0  0  0  0  0  3  0  0  0  0  0  0
  183.5860  179.0800  142.2970 C   0  0  0  0  0  2  0  0  0  0  0  0
  190.7860  177.1930  141.6870 C   0  0  0  0  0  3  0  0  0  0  0  0
  184.9750  179.1140  142.9370 C   0  0  0  0  0  2  0  0  0  0  0  0
  184.8210  178.7750  139.8370 C   0  0  1  0  0  3  0  0  0  0  0  0
  189.4110  177.3910  139.7090 C   0  0  0  0  0  3  0  0  0  0  0  0
  187.0890  178.0910  139.9150 C   0  0  0  0  0  0  0  0  0  0  0  0
  182.5350  178.3180  139.4140 C   0  0  0  0  0  2  0  0  0  0  0  0
  181.3580  177.4020  139.7020 C   0  0  0  0  0  2  0  0  0  0  0  0
  179.5980  179.0610  142.1420 N   0  0  0  0  0  0  0  0  0  0  0  0
  180.4640  179.7000  140.1050 C   0  0  0  0  0  2  0  0  0  0  0  0
  180.1150  178.2180  140.0040 C   0  0  2  0  0  3  0  0  0  0  0  0
  180.0590  180.0530  141.4890 C   0  0  0  0  0  3  0  0  0  0  0  0
  179.5820  177.8450  141.3820 C   0  0  0  0  0  2  0  0  0  0  0  0
  1 18  1  0  0  0  0
  2 27  1  0  0  0  0
  3 16  1  1  0  0  0
  3  7  1  0  0  0  0
  4 15  1  0  0  0  0
  5 11  1  6  0  0  0
  5 19  1  0  0  0  0
  6  7  1  0  0  0  0
  8 16  1  0  0  0  0
  9 13  2  0  0  0  0
 10 22  1  0  0  0  0
 12  8  1  0  0  0  0
 13 20  1  0  0  0  0
 13 24  1  0  0  0  0
 14  2  2  0  0  0  0
 15 12  1  1  0  0  0
 15  5  1  0  0  0  0
 17 10  1  0  0  0  0
 18  4  1  0  0  0  0
 18 20  2  0  0  0  0
 19  3  1  0  0  0  0
 19  6  1  1  0  0  0
 20 11  1  0  0  0  0
 21 23  1  0  0  0  0
 22 24  1  0  0  0  0
 23  4  2  0  0  0  0
 25 14  1  6  0  0  0
 25 17  1  0  0  0  0
 25  9  1  0  0  0  0
 26 21  2  0  0  0  0
 26  1  1  0  0  0  0
 27  1  2  0  0  0  0
 27  9  1  0  0  0  0
 28 29  1  0  0  0  0
 28 17  1  0  0  0  0
 31 33  1  0  0  0  0
 32 29  1  1  0  0  0
 32 31  1  0  0  0  0
 32 34  1  0  0  0  0
 33 30  2  0  0  0  0
 34 30  1  0  0  0  0
M  END
>  <MODEL>
6

>  <REMARK>
 VINA RESULT:      -9.8      2.472      9.014
  Name = 
  3 active torsions:
  status: ('A' for Active; 'I' for Inactive)
    1  A    between atoms: N_17  and  C_28
    2  A    between atoms: C_28  and  C_29
    3  A    between atoms: C_29  and  C_32
                            x       y       z     vdW  Elec       q    Type
                         _______ _______ _______ _____ _____    ______ ____

>  <TORSDO>
F 3

$$$$
=
 OpenBabel11122412143D

 34 41  0  0  1  0  0  0  0  0999 V2000
  189.8590  177.0160  141.8170 C   0  0  0  0  0  0  0  0  0  0  0  0
  191.1730  176.3780  139.7020 C   0  0  0  0  0  3  0  0  0  0  0  0
  184.2630  178.1150  144.9500 C   0  0  2  0  0  3  0  0  0  0  0  0
  188.5030  177.6590  143.7510 C   0  0  0  0  0  0  0  0  0  0  0  0
  186.0840  178.2460  143.3530 C   0  0  1  0  0  3  0  0  0  0  0  0
  183.6060  179.0680  143.1670 C   0  0  0  0  0  2  0  0  0  0  0  0
  182.9070  178.3950  144.3430 C   0  0  0  0  0  2  0  0  0  0  0  0
  186.0820  178.7170  146.5900 C   0  0  0  0  0  2  0  0  0  0  0  0
  189.0630  177.4490  139.5790 C   0  0  0  0  0  0  0  0  0  0  0  0
  187.1290  176.7290  137.5420 C   0  0  0  0  0  2  0  0  0  0  0  0
  186.5070  178.8580  142.0250 C   0  0  0  0  0  2  0  0  0  0  0  0
  186.9270  177.7400  145.7470 C   0  0  0  0  0  2  0  0  0  0  0  0
  187.8930  178.0650  140.0640 C   0  0  0  0  0  0  0  0  0  0  0  0
  190.8690  176.6670  138.2310 C   0  0  0  0  0  3  0  0  0  0  0  0
  187.2710  178.3100  144.3490 C   0  0  1  0  0  3  0  0  0  0  0  0
  184.5580  178.6280  146.3470 C   0  0  0  0  0  2  0  0  0  0  0  0
  188.5520  176.3600  137.4320 N   0  0  0  0  0  0  0  0  0  0  0  0
  188.6860  177.6130  142.3470 C   0  0  0  0  0  0  0  0  0  0  0  0
  184.9140  179.0160  143.9360 C   0  0  1  0  0  3  0  0  0  0  0  0
  187.7070  178.1420  141.4650 C   0  0  0  0  0  0  0  0  0  0  0  0
  190.6770  176.6040  144.0580 C   0  0  0  0  0  3  0  0  0  0  0  0
  186.9030  178.2360  137.6760 C   0  0  0  0  0  2  0  0  0  0  0  0
  189.5200  177.1750  144.5900 C   0  0  0  0  0  3  0  0  0  0  0  0
  186.8420  178.6590  139.1460 C   0  0  0  0  0  2  0  0  0  0  0  0
  189.4590  177.2760  138.1490 C   0  0  1  0  0  3  0  0  0  0  0  0
  190.8430  176.5180  142.6770 C   0  0  0  0  0  3  0  0  0  0  0  0
  190.0170  176.9490  140.4300 C   0  0  0  0  0  0  0  0  0  0  0  0
  188.8880  176.4190  136.0150 C   0  0  0  0  0  2  0  0  0  0  0  0
  188.2820  175.2280  135.2930 C   0  0  0  0  0  2  0  0  0  0  0  0
  191.5760  174.3340  135.6870 N   0  0  0  0  0  0  0  0  0  0  0  0
  189.5880  173.1970  135.9350 C   0  0  0  0  0  2  0  0  0  0  0  0
  189.3700  174.2610  134.8640 C   0  0  2  0  0  3  0  0  0  0  0  0
  191.0110  173.3790  136.3140 C   0  0  0  0  0  3  0  0  0  0  0  0
  190.6990  175.0000  134.7670 C   0  0  0  0  0  2  0  0  0  0  0  0
  1 18  1  0  0  0  0
  1 26  2  0  0  0  0
  2 27  1  0  0  0  0
  3  7  1  6  0  0  0
  3 16  1  0  0  0  0
  4 15  1  0  0  0  0
  4 23  1  0  0  0  0
  5 11  1  6  0  0  0
  5 19  1  0  0  0  0
  5 15  1  0  0  0  0
  6  7  1  0  0  0  0
  9 13  1  0  0  0  0
  9 27  2  0  0  0  0
 10 22  1  0  0  0  0
 12  8  1  0  0  0  0
 13 20  2  0  0  0  0
 14  2  2  0  0  0  0
 15 12  1  1  0  0  0
 16  8  1  0  0  0  0
 17 10  1  0  0  0  0
 17 25  1  0  0  0  0
 18  4  2  0  0  0  0
 19  6  1  6  0  0  0
 19  3  1  0  0  0  0
 20 11  1  0  0  0  0
 20 18  1  0  0  0  0
 21 23  2  0  0  0  0
 22 24  1  0  0  0  0
 24 13  1  0  0  0  0
 25 14  1  1  0  0  0
 25  9  1  0  0  0  0
 26 21  1  0  0  0  0
 27  1  1  0  0  0  0
 28 17  1  0  0  0  0
 29 28  1  0  0  0  0
 30 33  2  0  0  0  0
 31 33  1  0  0  0  0
 32 29  1  1  0  0  0
 32 31  1  0  0  0  0
 34 32  1  0  0  0  0
 34 30  1  0  0  0  0
M  END
>  <MODEL>
7

>  <REMARK>
 VINA RESULT:      -9.7      3.668      7.722
  Name = 
  3 active torsions:
  status: ('A' for Active; 'I' for Inactive)
    1  A    between atoms: N_17  and  C_28
    2  A    between atoms: C_28  and  C_29
    3  A    between atoms: C_29  and  C_32
                            x       y       z     vdW  Elec       q    Type
                         _______ _______ _______ _____ _____    ______ ____

>  <TORSDO>
F 3

$$$$
=
 OpenBabel11122412143D

 34 41  0  0  1  0  0  0  0  0999 V2000
  189.5680  176.9160  137.3870 C   0  0  0  0  0  0  0  0  0  0  0  0
  187.5880  177.8890  138.7050 C   0  0  0  0  0  3  0  0  0  0  0  0
  195.0940  173.4950  137.0780 C   0  0  2  0  0  3  0  0  0  0  0  0
  191.5230  175.9820  136.2480 C   0  0  0  0  0  0  0  0  0  0  0  0
  193.4380  175.1650  137.6700 C   0  0  1  0  0  3  0  0  0  0  0  0
  195.6140  174.4200  138.9200 C   0  0  0  0  0  2  0  0  0  0  0  0
  196.0140  173.1260  138.2190 C   0  0  0  0  0  2  0  0  0  0  0  0
  194.7630  174.4490  134.7670 C   0  0  0  0  0  2  0  0  0  0  0  0
  189.6970  177.5220  139.7210 C   0  0  0  0  0  0  0  0  0  0  0  0
  189.9040  176.5440  142.4420 C   0  0  0  0  0  2  0  0  0  0  0  0
  193.1380  176.3040  138.6340 C   0  0  0  0  0  2  0  0  0  0  0  0
  193.2770  174.4790  135.1790 C   0  0  0  0  0  2  0  0  0  0  0  0
  191.0540  177.1520  139.7890 C   0  0  0  0  0  0  0  0  0  0  0  0
  187.5260  178.4170  140.1400 C   0  0  0  0  0  3  0  0  0  0  0  0
  192.9810  175.5650  136.2440 C   0  0  1  0  0  3  0  0  0  0  0  0
  195.6690  173.5870  135.6770 C   0  0  0  0  0  2  0  0  0  0  0  0
  188.6540  177.1210  141.9130 N   0  0  0  0  0  0  0  0  0  0  0  0
  190.9280  176.5150  137.4180 C   0  0  0  0  0  0  0  0  0  0  0  0
  194.9270  174.8780  137.6460 C   0  0  1  0  0  3  0  0  0  0  0  0
  191.6700  176.6410  138.6220 C   0  0  0  0  0  0  0  0  0  0  0  0
  189.4390  176.3370  135.0390 C   0  0  0  0  0  3  0  0  0  0  0  0
  191.0950  177.5000  142.3560 C   0  0  0  0  0  2  0  0  0  0  0  0
  190.7730  175.9260  135.0630 C   0  0  0  0  0  3  0  0  0  0  0  0
  191.8760  177.2970  141.0560 C   0  0  0  0  0  2  0  0  0  0  0  0
  188.8650  178.0910  140.8230 C   0  0  1  0  0  3  0  0  0  0  0  0
  188.8370  176.8240  136.1980 C   0  0  0  0  0  3  0  0  0  0  0  0
  188.9820  177.4140  138.5540 C   0  0  0  0  0  0  0  0  0  0  0  0
  188.0200  177.8250  143.0210 C   0  0  0  0  0  2  0  0  0  0  0  0
  188.0900  176.9750  144.2780 C   0  0  0  0  0  2  0  0  0  0  0  0
  188.3070  177.0710  147.7050 N   0  0  0  0  0  0  0  0  0  0  0  0
  189.8090  177.5030  146.0130 C   0  0  0  0  0  2  0  0  0  0  0  0
  188.4190  177.8380  145.4810 C   0  0  2  0  0  3  0  0  0  0  0  0
  189.5460  177.0620  147.4050 C   0  0  0  0  0  3  0  0  0  0  0  0
  187.4690  177.5030  146.6240 C   0  0  0  0  0  2  0  0  0  0  0  0
  1 18  2  0  0  0  0
  1 27  1  0  0  0  0
  2 14  2  0  0  0  0
  3 16  1  6  0  0  0
  3 19  1  0  0  0  0
  3  7  1  0  0  0  0
  4 18  1  0  0  0  0
  5 11  1  1  0  0  0
  7  6  1  0  0  0  0
  8 12  1  0  0  0  0
  8 16  1  0  0  0  0
  9 13  1  0  0  0  0
  9 25  1  0  0  0  0
 13 24  1  0  0  0  0
 15 12  1  6  0  0  0
 15  4  1  0  0  0  0
 15  5  1  0  0  0  0
 17 10  1  0  0  0  0
 17 28  1  0  0  0  0
 18 20  1  0  0  0  0
 19  5  1  0  0  0  0
 19  6  1  1  0  0  0
 20 11  1  0  0  0  0
 20 13  2  0  0  0  0
 21 23  1  0  0  0  0
 21 26  2  0  0  0  0
 22 10  1  0  0  0  0
 23  4  2  0  0  0  0
 24 22  1  0  0  0  0
 25 14  1  6  0  0  0
 25 17  1  0  0  0  0
 26  1  1  0  0  0  0
 27  2  1  0  0  0  0
 27  9  2  0  0  0  0
 28 29  1  0  0  0  0
 31 33  1  0  0  0  0
 32 29  1  6  0  0  0
 32 31  1  0  0  0  0
 32 34  1  0  0  0  0
 33 30  2  0  0  0  0
 34 30  1  0  0  0  0
M  END
>  <MODEL>
8

>  <REMARK>
 VINA RESULT:      -9.7      4.972      9.023
  Name = 
  3 active torsions:
  status: ('A' for Active; 'I' for Inactive)
    1  A    between atoms: N_17  and  C_28
    2  A    between atoms: C_28  and  C_29
    3  A    between atoms: C_29  and  C_32
                            x       y       z     vdW  Elec       q    Type
                         _______ _______ _______ _____ _____    ______ ____

>  <TORSDO>
F 3

$$$$
=
 OpenBabel11122412143D

 34 41  0  0  1  0  0  0  0  0999 V2000
  184.3320  178.4940  144.1930 C   0  0  0  0  0  0  0  0  0  0  0  0
  182.1010  179.0740  143.0550 C   0  0  0  0  0  3  0  0  0  0  0  0
  190.8310  178.2040  144.2060 C   0  0  2  0  0  3  0  0  0  0  0  0
  186.5130  177.9350  145.1540 C   0  0  0  0  0  0  0  0  0  0  0  0
  188.5030  177.8810  143.6080 C   0  0  1  0  0  3  0  0  0  0  0  0
  190.6750  177.5870  142.1770 C   0  0  0  0  0  2  0  0  0  0  0  0
  191.7580  178.2610  143.0130 C   0  0  0  0  0  2  0  0  0  0  0  0
  190.1040  177.0890  146.3480 C   0  0  0  0  0  2  0  0  0  0  0  0
  184.0140  178.4580  141.8000 C   0  0  0  0  0  0  0  0  0  0  0  0
  184.6380  179.7510  139.2810 C   0  0  0  0  0  2  0  0  0  0  0  0
  187.5800  177.3370  142.5260 C   0  0  0  0  0  2  0  0  0  0  0  0
  188.8450  177.9630  146.1720 C   0  0  0  0  0  2  0  0  0  0  0  0
  185.3410  178.0380  141.5840 C   0  0  0  0  0  0  0  0  0  0  0  0
  181.7020  179.0030  141.5800 C   0  0  0  0  0  3  0  0  0  0  0  0
  187.9520  177.4830  145.0010 C   0  0  1  0  0  3  0  0  0  0  0  0
  191.3040  177.5020  145.4650 C   0  0  0  0  0  2  0  0  0  0  0  0
  183.3000  179.8410  139.8940 N   0  0  0  0  0  0  0  0  0  0  0  0
  185.6790  178.0890  144.0180 C   0  0  0  0  0  0  0  0  0  0  0  0
  189.8960  177.3010  143.4480 C   0  0  1  0  0  3  0  0  0  0  0  0
  186.1790  177.8560  142.7090 C   0  0  0  0  0  0  0  0  0  0  0  0
  184.6340  178.5040  146.5960 C   0  0  0  0  0  3  0  0  0  0  0  0
  185.0880  178.3120  139.0200 C   0  0  0  0  0  2  0  0  0  0  0  0
  185.9660  178.1210  146.4340 C   0  0  0  0  0  3  0  0  0  0  0  0
  185.8930  177.7610  140.1990 C   0  0  0  0  0  2  0  0  0  0  0  0
  182.9670  178.6960  140.7610 C   0  0  1  0  0  3  0  0  0  0  0  0
  183.8210  178.6970  145.4800 C   0  0  0  0  0  3  0  0  0  0  0  0
  183.5260  178.6700  143.0650 C   0  0  0  0  0  0  0  0  0  0  0  0
  182.3410  179.8630  138.7970 C   0  0  0  0  0  2  0  0  0  0  0  0
  182.2280  178.4780  138.1850 C   0  0  0  0  0  2  0  0  0  0  0  0
  179.2350  177.1040  139.1660 N   0  0  0  0  0  0  0  0  0  0  0  0
  179.8480  179.1990  138.4310 C   0  0  0  0  0  2  0  0  0  0  0  0
  180.7930  178.1960  137.7780 C   0  0  2  0  0  3  0  0  0  0  0  0
  178.9440  178.3430  139.2380 C   0  0  0  0  0  3  0  0  0  0  0  0
  180.3650  176.8390  138.3230 C   0  0  0  0  0  2  0  0  0  0  0  0
  1 26  2  0  0  0  0
  2 27  1  0  0  0  0
  3  7  1  6  0  0  0
  3 16  1  0  0  0  0
  4 23  1  0  0  0  0
  5 11  1  6  0  0  0
  5 15  1  0  0  0  0
  6  7  1  0  0  0  0
  9 27  2  0  0  0  0
 10 17  1  0  0  0  0
 11 20  1  0  0  0  0
 12  8  1  0  0  0  0
 13  9  1  0  0  0  0
 13 20  2  0  0  0  0
 14  2  2  0  0  0  0
 15  4  1  0  0  0  0
 15 12  1  1  0  0  0
 16  8  1  0  0  0  0
 17 25  1  0  0  0  0
 18  1  1  0  0  0  0
 18  4  2  0  0  0  0
 19  6  1  6  0  0  0
 19  5  1  0  0  0  0
 19  3  1  0  0  0  0
 20 18  1  0  0  0  0
 22 10  1  0  0  0  0
 22 24  1  0  0  0  0
 23 21  2  0  0  0  0
 24 13  1  0  0  0  0
 25 14  1  1  0  0  0
 25  9  1  0  0  0  0
 26 21  1  0  0  0  0
 27  1  1  0  0  0  0
 28 17  1  0  0  0  0
 29 28  1  0  0  0  0
 30 33  2  0  0  0  0
 31 33  1  0  0  0  0
 32 29  1  1  0  0  0
 32 34  1  0  0  0  0
 32 31  1  0  0  0  0
 34 30  1  0  0  0  0
M  END
>  <MODEL>
9

>  <REMARK>
 VINA RESULT:      -9.5      2.358      8.202
  Name = 
  3 active torsions:
  status: ('A' for Active; 'I' for Inactive)
    1  A    between atoms: N_17  and  C_28
    2  A    between atoms: C_28  and  C_29
    3  A    between atoms: C_29  and  C_32
                            x       y       z     vdW  Elec       q    Type
                         _______ _______ _______ _____ _____    ______ ____

>  <TORSDO>
F 3

$$$$
