=
 OpenBabel11122412283D

 34 37  0  0  1  0  0  0  0  0999 V2000
  189.0100  177.1700  145.3850 C   0  0  2  0  0  3  0  0  0  0  0  0
  190.3980  175.9850  143.8070 O   0  0  0  0  0  0  0  0  0  0  0  0
  186.8420  177.6960  146.4940 C   0  0  0  0  0  2  0  0  0  0  0  0
  189.2980  177.8970  142.9090 C   0  0  2  0  0  3  0  0  0  0  0  0
  189.0070  178.3620  140.0350 C   0  0  0  0  0  2  0  0  0  0  0  0
  187.7970  177.5860  142.6760 C   0  0  1  0  0  3  0  0  0  0  0  0
  190.7080  176.0330  142.4330 C   0  0  0  0  0  2  0  0  0  0  0  0
  189.5480  177.1020  140.5330 N   0  0  0  0  0  0  0  0  0  0  0  0
  187.6820  177.9170  145.2310 C   0  0  2  0  0  3  0  0  0  0  0  0
  186.9790  177.3830  143.9790 C   0  0  1  0  0  3  0  0  0  0  0  0
  188.9240  177.4910  147.8660 C   0  0  0  0  0  2  0  0  0  0  0  0
  187.5110  178.4140  140.3040 C   0  0  0  0  0  2  0  0  0  0  0  0
  187.5890  178.2170  147.7180 C   0  0  0  0  0  2  0  0  0  0  0  0
  187.2220  178.6810  141.7750 C   0  0  0  0  0  2  0  0  0  0  0  0
  190.2050  177.3380  141.8270 C   0  0  1  0  0  3  0  0  0  0  0  0
  189.7690  177.6760  146.6090 C   0  0  0  0  0  2  0  0  0  0  0  0
  189.9060  177.2540  144.1470 C   0  0  1  0  0  3  0  0  0  0  0  0
  185.4780  177.6930  143.8770 C   0  0  0  0  0  2  0  0  0  0  0  0
  185.1950  179.1900  143.8640 C   0  0  0  0  0  2  0  0  0  0  0  0
  183.4010  179.1150  145.4500 O   0  0  0  0  0  1  0  0  0  0  0  0
  183.7220  179.4490  144.1280 C   0  0  2  0  0  3  0  0  0  0  0  0
  182.9020  178.7000  143.1740 N   0  0  0  0  0  0  0  0  0  0  0  0
  181.6080  179.0830  143.3160 O   0  0  0  0  0  1  0  0  0  0  0  0
  183.3150  179.0720  141.8280 C   0  0  0  0  0  2  0  0  0  0  0  0
  183.1680  177.8850  140.8900 C   0  0  0  0  0  2  0  0  0  0  0  0
  184.0100  178.0400  139.7890 O   0  0  0  0  0  0  0  0  0  0  0  0
  183.9830  179.4070  139.5180 C   0  0  0  0  0  1  0  0  0  0  0  0
  190.5740  176.7090  139.5760 C   0  0  0  0  0  2  0  0  0  0  0  0
  190.2240  177.2450  138.1990 C   0  0  0  0  0  2  0  0  0  0  0  0
  190.2390  176.1120  137.1730 C   0  0  1  0  0  3  0  0  0  0  0  0
  190.3670  173.7220  137.5130 O   0  0  0  0  0  1  0  0  0  0  0  0
  191.0920  174.9130  137.5940 C   0  0  0  0  0  2  0  0  0  0  0  0
  188.9670  175.7570  136.6670 O   0  0  0  0  0  0  0  0  0  0  0  0
  188.1170  176.8740  136.7160 C   0  0  0  0  0  1  0  0  0  0  0  0
  1 16  1  1  0  0  0
  2 17  1  0  0  0  0
  3 13  1  0  0  0  0
  4 17  1  0  0  0  0
  5 12  1  0  0  0  0
  5  8  1  0  0  0  0
  6  4  1  0  0  0  0
  6 10  1  0  0  0  0
  7  2  1  0  0  0  0
  8 15  1  0  0  0  0
  9  1  1  0  0  0  0
  9  3  1  0  0  0  0
 10  9  1  0  0  0  0
 12 14  1  0  0  0  0
 13 11  1  0  0  0  0
 14  6  1  0  0  0  0
 15  7  1  0  0  0  0
 15  4  1  0  0  0  0
 16 11  1  0  0  0  0
 17  1  1  0  0  0  0
 18 10  1  0  0  0  0
 19 18  1  0  0  0  0
 19 21  1  0  0  0  0
 21 20  1  0  0  0  0
 22 23  1  0  0  0  0
 22 21  1  0  0  0  0
 24 22  1  0  0  0  0
 25 24  1  0  0  0  0
 26 25  1  0  0  0  0
 27 26  1  0  0  0  0
 28  8  1  0  0  0  0
 29 28  1  0  0  0  0
 30 32  1  0  0  0  0
 30 29  1  0  0  0  0
 31 32  1  0  0  0  0
 33 34  1  0  0  0  0
 33 30  1  0  0  0  0
M  END
>  <MODEL>
1

>  <REMARK>
 VINA RESULT:      -7.8      0.000      0.000
  Name = 
  12 active torsions:
  status: ('A' for Active; 'I' for Inactive)
    1  A    between atoms: N_3  and  C_16
    2  A    between atoms: N_3  and  C_19
    3  A    between atoms: C_5  and  C_11
    4  A    between atoms: C_5  and  C_19
    5  A    between atoms: C_8  and  O_12
    6  A    between atoms: C_8  and  C_16
    7  A    between atoms: C_11  and  C_20
    8  A    between atoms: N_17  and  C_28
    9  A    between atoms: C_28  and  C_29
   10  A    between atoms: C_29  and  C_32
   11  A    between atoms: O_31  and  C_32
   12  A    between atoms: C_32  and  C_34
                            x       y       z     vdW  Elec       q    Type
                         _______ _______ _______ _____ _____    ______ ____

>  <TORSDO>
F 12

$$$$
=
 OpenBabel11122412283D

 34 37  0  0  1  0  0  0  0  0999 V2000
  188.9430  177.2590  145.5170 C   0  0  2  0  0  3  0  0  0  0  0  0
  190.4140  176.0880  144.0050 O   0  0  0  0  0  0  0  0  0  0  0  0
  186.7270  177.7390  146.5500 C   0  0  0  0  0  2  0  0  0  0  0  0
  189.2830  177.9460  143.0360 C   0  0  2  0  0  3  0  0  0  0  0  0
  189.0650  178.3440  140.1450 C   0  0  0  0  0  2  0  0  0  0  0  0
  187.8000  177.5830  142.7660 C   0  0  1  0  0  3  0  0  0  0  0  0
  190.7630  176.1180  142.6410 C   0  0  0  0  0  2  0  0  0  0  0  0
  189.6290  177.1120  140.6850 N   0  0  0  0  0  0  0  0  0  0  0  0
  187.5980  177.9610  145.3080 C   0  0  2  0  0  3  0  0  0  0  0  0
  186.9500  177.3800  144.0470 C   0  0  1  0  0  3  0  0  0  0  0  0
  188.7720  177.6270  147.9870 C   0  0  0  0  0  2  0  0  0  0  0  0
  187.5610  178.3540  140.3690 C   0  0  0  0  0  2  0  0  0  0  0  0
  187.4210  178.3070  147.7850 C   0  0  0  0  0  2  0  0  0  0  0  0
  187.2190  178.6410  141.8250 C   0  0  0  0  0  2  0  0  0  0  0  0
  190.2400  177.3940  141.9930 C   0  0  1  0  0  3  0  0  0  0  0  0
  189.6490  177.8130  146.7520 C   0  0  0  0  0  2  0  0  0  0  0  0
  189.8730  177.3470  144.3050 C   0  0  1  0  0  3  0  0  0  0  0  0
  185.4430  177.6410  143.8950 C   0  0  0  0  0  2  0  0  0  0  0  0
  185.1130  179.1280  143.8670 C   0  0  0  0  0  2  0  0  0  0  0  0
  183.6250  179.1390  145.7450 O   0  0  0  0  0  1  0  0  0  0  0  0
  183.6970  179.3610  144.3640 C   0  0  2  0  0  3  0  0  0  0  0  0
  182.7620  178.5000  143.6360 N   0  0  0  0  0  0  0  0  0  0  0  0
  181.5200  178.6690  144.1550 O   0  0  0  0  0  1  0  0  0  0  0  0
  182.7130  178.9480  142.2520 C   0  0  0  0  0  2  0  0  0  0  0  0
  181.2820  178.9170  141.7420 C   0  0  0  0  0  2  0  0  0  0  0  0
  181.2610  178.5370  140.4000 O   0  0  0  0  0  0  0  0  0  0  0  0
  180.5700  177.3270  140.3900 C   0  0  0  0  0  1  0  0  0  0  0  0
  190.6950  176.7320  139.7670 C   0  0  0  0  0  2  0  0  0  0  0  0
  190.2260  176.9100  138.3350 C   0  0  0  0  0  2  0  0  0  0  0  0
  190.7780  175.7860  137.4560 C   0  0  1  0  0  3  0  0  0  0  0  0
  192.2980  176.0660  135.5970 O   0  0  0  0  0  1  0  0  0  0  0  0
  192.2170  176.0220  136.9910 C   0  0  0  0  0  2  0  0  0  0  0  0
  190.5450  174.4820  137.9510 O   0  0  0  0  0  0  0  0  0  0  0  0
  190.1060  173.6570  136.9030 C   0  0  0  0  0  1  0  0  0  0  0  0
  1 16  1  1  0  0  0
  2 17  1  0  0  0  0
  3 13  1  0  0  0  0
  4 17  1  0  0  0  0
  5 12  1  0  0  0  0
  5  8  1  0  0  0  0
  6  4  1  0  0  0  0
  6 10  1  0  0  0  0
  7  2  1  0  0  0  0
  8 15  1  0  0  0  0
  9  1  1  0  0  0  0
  9  3  1  0  0  0  0
 10  9  1  0  0  0  0
 12 14  1  0  0  0  0
 13 11  1  0  0  0  0
 14  6  1  0  0  0  0
 15  7  1  0  0  0  0
 15  4  1  0  0  0  0
 16 11  1  0  0  0  0
 17  1  1  0  0  0  0
 18 10  1  0  0  0  0
 19 18  1  0  0  0  0
 19 21  1  0  0  0  0
 21 20  1  0  0  0  0
 22 23  1  0  0  0  0
 22 21  1  0  0  0  0
 24 22  1  0  0  0  0
 25 24  1  0  0  0  0
 26 25  1  0  0  0  0
 27 26  1  0  0  0  0
 28  8  1  0  0  0  0
 29 28  1  0  0  0  0
 30 33  1  0  0  0  0
 30 29  1  0  0  0  0
 31 32  1  0  0  0  0
 32 30  1  0  0  0  0
 34 33  1  0  0  0  0
M  END
>  <MODEL>
2

>  <REMARK>
 VINA RESULT:      -7.6      1.108      1.426
  Name = 
  12 active torsions:
  status: ('A' for Active; 'I' for Inactive)
    1  A    between atoms: N_3  and  C_16
    2  A    between atoms: N_3  and  C_19
    3  A    between atoms: C_5  and  C_11
    4  A    between atoms: C_5  and  C_19
    5  A    between atoms: C_8  and  O_12
    6  A    between atoms: C_8  and  C_16
    7  A    between atoms: C_11  and  C_20
    8  A    between atoms: N_17  and  C_28
    9  A    between atoms: C_28  and  C_29
   10  A    between atoms: C_29  and  C_32
   11  A    between atoms: O_31  and  C_32
   12  A    between atoms: C_32  and  C_34
                            x       y       z     vdW  Elec       q    Type
                         _______ _______ _______ _____ _____    ______ ____

>  <TORSDO>
F 12

$$$$
=
 OpenBabel11122412283D

 34 37  0  0  1  0  0  0  0  0999 V2000
  189.0510  177.5660  146.3470 C   0  0  2  0  0  3  0  0  0  0  0  0
  187.0830  178.8020  146.9990 O   0  0  0  0  0  0  0  0  0  0  0  0
  191.1830  177.2640  145.0930 C   0  0  0  0  0  2  0  0  0  0  0  0
  186.8440  177.5620  144.9790 C   0  0  2  0  0  3  0  0  0  0  0  0
  184.6960  178.0560  143.0540 C   0  0  0  0  0  2  0  0  0  0  0  0
  187.5950  178.2750  143.8250 C   0  0  1  0  0  3  0  0  0  0  0  0
  185.8040  179.0930  146.4850 C   0  0  0  0  0  2  0  0  0  0  0  0
  184.8910  178.9450  144.1950 N   0  0  0  0  0  0  0  0  0  0  0  0
  189.6540  177.2360  144.9790 C   0  0  2  0  0  3  0  0  0  0  0  0
  189.1390  178.2700  143.9720 C   0  0  1  0  0  3  0  0  0  0  0  0
  191.0350  176.5510  147.4870 C   0  0  0  0  0  2  0  0  0  0  0  0
  185.8050  178.2840  142.0380 C   0  0  0  0  0  2  0  0  0  0  0  0
  191.6500  176.2410  146.1250 C   0  0  0  0  0  2  0  0  0  0  0  0
  187.1180  177.6680  142.5050 C   0  0  0  0  0  2  0  0  0  0  0  0
  185.4970  178.1860  145.2990 C   0  0  1  0  0  3  0  0  0  0  0  0
  189.5120  176.5540  147.3930 C   0  0  0  0  0  2  0  0  0  0  0  0
  187.5220  177.6440  146.3390 C   0  0  1  0  0  3  0  0  0  0  0  0
  189.9330  178.3700  142.6590 C   0  0  0  0  0  2  0  0  0  0  0  0
  189.7370  177.1480  141.7710 C   0  0  0  0  0  2  0  0  0  0  0  0
  192.0050  177.7770  141.3200 O   0  0  0  0  0  1  0  0  0  0  0  0
  190.9790  176.9070  140.9300 C   0  0  2  0  0  3  0  0  0  0  0  0
  190.6600  177.0610  139.5090 N   0  0  0  0  0  0  0  0  0  0  0  0
  190.4400  175.8330  138.9750 O   0  0  0  0  0  1  0  0  0  0  0  0
  189.4150  177.8070  139.3990 C   0  0  0  0  0  2  0  0  0  0  0  0
  189.3030  178.4370  138.0210 C   0  0  0  0  0  2  0  0  0  0  0  0
  188.0010  178.8900  137.8080 O   0  0  0  0  0  0  0  0  0  0  0  0
  187.1930  177.9320  138.4170 C   0  0  0  0  0  1  0  0  0  0  0  0
  183.5550  179.3500  144.6100 C   0  0  0  0  0  2  0  0  0  0  0  0
  182.5250  178.4030  144.0200 C   0  0  0  0  0  2  0  0  0  0  0  0
  181.2280  179.1560  143.7190 C   0  0  1  0  0  3  0  0  0  0  0  0
  181.4270  178.3120  141.4630 O   0  0  0  0  0  1  0  0  0  0  0  0
  180.9900  179.3960  142.2270 C   0  0  0  0  0  2  0  0  0  0  0  0
  180.0920  178.6710  144.4070 O   0  0  0  0  0  0  0  0  0  0  0  0
  178.9600  179.4030  144.0120 C   0  0  0  0  0  1  0  0  0  0  0  0
  1 16  1  1  0  0  0
  3 13  1  0  0  0  0
  4 15  1  0  0  0  0
  4 17  1  0  0  0  0
  5  8  1  0  0  0  0
  6 10  1  0  0  0  0
  6  4  1  0  0  0  0
  7  2  1  0  0  0  0
  8 28  1  0  0  0  0
  8 15  1  0  0  0  0
  9  3  1  0  0  0  0
  9  1  1  0  0  0  0
 10  9  1  0  0  0  0
 12 14  1  0  0  0  0
 12  5  1  0  0  0  0
 13 11  1  0  0  0  0
 14  6  1  0  0  0  0
 15  7  1  0  0  0  0
 16 11  1  0  0  0  0
 17  1  1  0  0  0  0
 17  2  1  0  0  0  0
 18 10  1  0  0  0  0
 19 18  1  0  0  0  0
 21 20  1  0  0  0  0
 21 19  1  0  0  0  0
 22 21  1  0  0  0  0
 23 22  1  0  0  0  0
 24 22  1  0  0  0  0
 25 24  1  0  0  0  0
 26 25  1  0  0  0  0
 26 27  1  0  0  0  0
 29 28  1  0  0  0  0
 30 29  1  0  0  0  0
 30 33  1  0  0  0  0
 31 32  1  0  0  0  0
 32 30  1  0  0  0  0
 34 33  1  0  0  0  0
M  END
>  <MODEL>
3

>  <REMARK>
 VINA RESULT:      -7.6      2.007      6.977
  Name = 
  12 active torsions:
  status: ('A' for Active; 'I' for Inactive)
    1  A    between atoms: N_3  and  C_16
    2  A    between atoms: N_3  and  C_19
    3  A    between atoms: C_5  and  C_11
    4  A    between atoms: C_5  and  C_19
    5  A    between atoms: C_8  and  O_12
    6  A    between atoms: C_8  and  C_16
    7  A    between atoms: C_11  and  C_20
    8  A    between atoms: N_17  and  C_28
    9  A    between atoms: C_28  and  C_29
   10  A    between atoms: C_29  and  C_32
   11  A    between atoms: O_31  and  C_32
   12  A    between atoms: C_32  and  C_34
                            x       y       z     vdW  Elec       q    Type
                         _______ _______ _______ _____ _____    ______ ____

>  <TORSDO>
F 12

$$$$
=
 OpenBabel11122412283D

 34 37  0  0  1  0  0  0  0  0999 V2000
  187.7010  177.5050  145.2070 C   0  0  2  0  0  3  0  0  0  0  0  0
  189.2330  176.0430  144.0510 O   0  0  0  0  0  0  0  0  0  0  0  0
  185.4340  178.3880  145.7430 C   0  0  0  0  0  2  0  0  0  0  0  0
  188.6610  178.0180  142.8490 C   0  0  2  0  0  3  0  0  0  0  0  0
  189.1200  178.3200  139.9750 C   0  0  0  0  0  2  0  0  0  0  0  0
  187.2270  177.8930  142.2730 C   0  0  1  0  0  3  0  0  0  0  0  0
  189.8590  175.9560  142.7920 C   0  0  0  0  0  2  0  0  0  0  0  0
  189.3410  177.0370  140.6320 N   0  0  0  0  0  0  0  0  0  0  0  0
  186.5680  178.4090  144.7120 C   0  0  2  0  0  3  0  0  0  0  0  0
  186.1080  177.8880  143.3470 C   0  0  1  0  0  3  0  0  0  0  0  0
  187.0850  178.0030  147.5810 C   0  0  0  0  0  2  0  0  0  0  0  0
  187.6260  178.5870  139.8740 C   0  0  0  0  0  2  0  0  0  0  0  0
  185.9420  178.8870  147.0920 C   0  0  0  0  0  2  0  0  0  0  0  0
  187.0430  178.9890  141.2230 C   0  0  0  0  0  2  0  0  0  0  0  0
  189.7060  177.2710  142.0380 C   0  0  1  0  0  3  0  0  0  0  0  0
  188.2190  177.9890  146.5590 C   0  0  0  0  0  2  0  0  0  0  0  0
  188.8640  177.3860  144.2190 C   0  0  1  0  0  3  0  0  0  0  0  0
  184.7320  178.3860  142.8760 C   0  0  0  0  0  2  0  0  0  0  0  0
  184.3990  177.9180  141.4650 C   0  0  0  0  0  2  0  0  0  0  0  0
  182.0350  177.9520  141.0710 O   0  0  0  0  0  1  0  0  0  0  0  0
  183.2130  178.6950  140.9210 C   0  0  2  0  0  3  0  0  0  0  0  0
  183.4450  179.0490  139.5180 N   0  0  0  0  0  0  0  0  0  0  0  0
  184.4140  179.9960  139.4620 O   0  0  0  0  0  1  0  0  0  0  0  0
  183.9550  177.8710  138.8310 C   0  0  0  0  0  2  0  0  0  0  0  0
  183.0860  177.5520  137.6260 C   0  0  0  0  0  2  0  0  0  0  0  0
  182.3070  176.4240  137.8850 O   0  0  0  0  0  0  0  0  0  0  0  0
  183.1640  175.5530  138.5550 C   0  0  0  0  0  1  0  0  0  0  0  0
  190.4940  176.4470  139.9640 C   0  0  0  0  0  2  0  0  0  0  0  0
  190.6210  177.0150  138.5620 C   0  0  0  0  0  2  0  0  0  0  0  0
  191.3060  176.0030  137.6430 C   0  0  1  0  0  3  0  0  0  0  0  0
  193.5250  176.7000  138.3010 O   0  0  0  0  0  1  0  0  0  0  0  0
  192.7090  176.4260  137.2020 C   0  0  0  0  0  2  0  0  0  0  0  0
  191.2270  174.6610  138.0820 O   0  0  0  0  0  0  0  0  0  0  0  0
  190.8970  173.8340  136.9950 C   0  0  0  0  0  1  0  0  0  0  0  0
  1 16  1  1  0  0  0
  2 17  1  0  0  0  0
  3 13  1  0  0  0  0
  4 17  1  0  0  0  0
  5  8  1  0  0  0  0
  6  4  1  0  0  0  0
  6 10  1  0  0  0  0
  7  2  1  0  0  0  0
  8 15  1  0  0  0  0
  9  1  1  0  0  0  0
  9  3  1  0  0  0  0
 10  9  1  0  0  0  0
 12  5  1  0  0  0  0
 12 14  1  0  0  0  0
 13 11  1  0  0  0  0
 14  6  1  0  0  0  0
 15  7  1  0  0  0  0
 15  4  1  0  0  0  0
 16 11  1  0  0  0  0
 17  1  1  0  0  0  0
 18 10  1  0  0  0  0
 19 18  1  0  0  0  0
 21 20  1  0  0  0  0
 21 19  1  0  0  0  0
 22 21  1  0  0  0  0
 23 22  1  0  0  0  0
 24 22  1  0  0  0  0
 25 26  1  0  0  0  0
 25 24  1  0  0  0  0
 26 27  1  0  0  0  0
 28  8  1  0  0  0  0
 29 28  1  0  0  0  0
 30 33  1  0  0  0  0
 30 29  1  0  0  0  0
 32 30  1  0  0  0  0
 32 31  1  0  0  0  0
 34 33  1  0  0  0  0
M  END
>  <MODEL>
4

>  <REMARK>
 VINA RESULT:      -7.4      1.750      2.444
  Name = 
  12 active torsions:
  status: ('A' for Active; 'I' for Inactive)
    1  A    between atoms: N_3  and  C_16
    2  A    between atoms: N_3  and  C_19
    3  A    between atoms: C_5  and  C_11
    4  A    between atoms: C_5  and  C_19
    5  A    between atoms: C_8  and  O_12
    6  A    between atoms: C_8  and  C_16
    7  A    between atoms: C_11  and  C_20
    8  A    between atoms: N_17  and  C_28
    9  A    between atoms: C_28  and  C_29
   10  A    between atoms: C_29  and  C_32
   11  A    between atoms: O_31  and  C_32
   12  A    between atoms: C_32  and  C_34
                            x       y       z     vdW  Elec       q    Type
                         _______ _______ _______ _____ _____    ______ ____

>  <TORSDO>
F 12

$$$$
=
 OpenBabel11122412283D

 34 37  0  0  1  0  0  0  0  0999 V2000
  186.2940  177.9970  141.3640 C   0  0  2  0  0  3  0  0  0  0  0  0
  187.1820  176.6900  143.1870 O   0  0  0  0  0  0  0  0  0  0  0  0
  185.7510  178.4040  138.9660 C   0  0  0  0  0  2  0  0  0  0  0  0
  188.8000  178.0140  142.0450 C   0  0  2  0  0  3  0  0  0  0  0  0
  191.6810  177.5600  142.2810 C   0  0  0  0  0  2  0  0  0  0  0  0
  189.1430  177.3710  140.6770 C   0  0  1  0  0  3  0  0  0  0  0  0
  188.4360  176.3940  143.7580 C   0  0  0  0  0  2  0  0  0  0  0  0
  190.7300  176.6250  142.8730 N   0  0  0  0  0  0  0  0  0  0  0  0
  186.8770  178.4030  140.0070 C   0  0  2  0  0  3  0  0  0  0  0  0
  187.9830  177.4040  139.6490 C   0  0  1  0  0  3  0  0  0  0  0  0
  184.0900  179.0040  140.7370 C   0  0  0  0  0  2  0  0  0  0  0  0
  191.6710  177.4030  140.7680 C   0  0  0  0  0  2  0  0  0  0  0  0
  184.6610  179.3900  139.3760 C   0  0  0  0  0  2  0  0  0  0  0  0
  190.4230  178.0270  140.1550 C   0  0  0  0  0  2  0  0  0  0  0  0
  189.4960  177.3470  143.2190 C   0  0  1  0  0  3  0  0  0  0  0  0
  185.1970  178.9720  141.7870 C   0  0  0  0  0  2  0  0  0  0  0  0
  187.3440  177.8860  142.4710 C   0  0  1  0  0  3  0  0  0  0  0  0
  188.4030  177.3820  138.1700 C   0  0  0  0  0  2  0  0  0  0  0  0
  188.3720  175.9770  137.5810 C   0  0  0  0  0  2  0  0  0  0  0  0
  189.4910  175.0570  135.6720 O   0  0  0  0  0  1  0  0  0  0  0  0
  189.7020  175.6550  136.9220 C   0  0  2  0  0  3  0  0  0  0  0  0
  190.5010  174.7940  137.7960 N   0  0  0  0  0  0  0  0  0  0  0  0
  190.1350  173.5040  137.5920 O   0  0  0  0  0  1  0  0  0  0  0  0
  191.8970  174.9130  137.4000 C   0  0  0  0  0  2  0  0  0  0  0  0
  192.2880  176.3780  137.2980 C   0  0  0  0  0  2  0  0  0  0  0  0
  193.5220  176.5870  137.9130 O   0  0  0  0  0  0  0  0  0  0  0  0
  194.1010  175.3200  137.9750 C   0  0  0  0  0  1  0  0  0  0  0  0
  191.3450  176.1720  144.1130 C   0  0  0  0  0  2  0  0  0  0  0  0
  191.4650  177.3350  145.0820 C   0  0  0  0  0  2  0  0  0  0  0  0
  191.4400  176.8250  146.5230 C   0  0  1  0  0  3  0  0  0  0  0  0
  189.8180  177.7960  148.0310 O   0  0  0  0  0  1  0  0  0  0  0  0
  190.0340  176.7550  147.1250 C   0  0  0  0  0  2  0  0  0  0  0  0
  192.2160  175.6660  146.7530 O   0  0  0  0  0  0  0  0  0  0  0  0
  192.6310  175.6400  148.0940 C   0  0  0  0  0  1  0  0  0  0  0  0
  1 16  1  1  0  0  0
  1 17  1  0  0  0  0
  2  7  1  0  0  0  0
  3 13  1  0  0  0  0
  3  9  1  0  0  0  0
  4 17  1  0  0  0  0
  4 15  1  0  0  0  0
  5  8  1  0  0  0  0
  6  4  1  0  0  0  0
  8 15  1  0  0  0  0
  8 28  1  0  0  0  0
  9  1  1  0  0  0  0
 10  9  1  0  0  0  0
 10  6  1  0  0  0  0
 11 16  1  0  0  0  0
 12  5  1  0  0  0  0
 13 11  1  0  0  0  0
 14  6  1  0  0  0  0
 14 12  1  0  0  0  0
 15  7  1  0  0  0  0
 17  2  1  0  0  0  0
 18 10  1  0  0  0  0
 19 18  1  0  0  0  0
 20 21  1  0  0  0  0
 21 19  1  0  0  0  0
 21 22  1  0  0  0  0
 23 22  1  0  0  0  0
 24 22  1  0  0  0  0
 25 24  1  0  0  0  0
 25 26  1  0  0  0  0
 26 27  1  0  0  0  0
 28 29  1  0  0  0  0
 29 30  1  0  0  0  0
 30 33  1  0  0  0  0
 30 32  1  0  0  0  0
 32 31  1  0  0  0  0
 33 34  1  0  0  0  0
M  END
>  <MODEL>
5

>  <REMARK>
 VINA RESULT:      -6.9      2.696      7.831
  Name = 
  12 active torsions:
  status: ('A' for Active; 'I' for Inactive)
    1  A    between atoms: N_3  and  C_16
    2  A    between atoms: N_3  and  C_19
    3  A    between atoms: C_5  and  C_11
    4  A    between atoms: C_5  and  C_19
    5  A    between atoms: C_8  and  O_12
    6  A    between atoms: C_8  and  C_16
    7  A    between atoms: C_11  and  C_20
    8  A    between atoms: N_17  and  C_28
    9  A    between atoms: C_28  and  C_29
   10  A    between atoms: C_29  and  C_32
   11  A    between atoms: O_31  and  C_32
   12  A    between atoms: C_32  and  C_34
                            x       y       z     vdW  Elec       q    Type
                         _______ _______ _______ _____ _____    ______ ____

>  <TORSDO>
F 12

$$$$
=
 OpenBabel11122412283D

 34 37  0  0  1  0  0  0  0  0999 V2000
  190.0140  176.8540  144.7720 C   0  0  2  0  0  3  0  0  0  0  0  0
  190.7220  175.9420  142.6540 O   0  0  0  0  0  0  0  0  0  0  0  0
  188.4090  177.1320  146.6580 C   0  0  0  0  0  2  0  0  0  0  0  0
  189.3650  177.8910  142.4820 C   0  0  2  0  0  3  0  0  0  0  0  0
  188.0310  178.6870  140.0020 C   0  0  0  0  0  2  0  0  0  0  0  0
  187.8840  177.5360  142.7770 C   0  0  1  0  0  3  0  0  0  0  0  0
  190.5020  176.1720  141.2820 C   0  0  0  0  0  2  0  0  0  0  0  0
  188.7200  177.4050  140.0970 N   0  0  0  0  0  0  0  0  0  0  0  0
  188.7220  177.5470  145.2160 C   0  0  2  0  0  3  0  0  0  0  0  0
  187.6070  177.1340  144.2490 C   0  0  1  0  0  3  0  0  0  0  0  0
  190.8510  176.8660  147.1320 C   0  0  0  0  0  2  0  0  0  0  0  0
  186.7400  178.6300  140.8050 C   0  0  0  0  0  2  0  0  0  0  0  0
  189.5560  177.5370  147.5800 C   0  0  0  0  0  2  0  0  0  0  0  0
  187.0150  178.7010  142.3010 C   0  0  0  0  0  2  0  0  0  0  0  0
  189.8090  177.5140  141.0790 C   0  0  1  0  0  3  0  0  0  0  0  0
  191.1720  177.2450  145.6880 C   0  0  0  0  0  2  0  0  0  0  0  0
  190.3880  177.1340  143.3150 C   0  0  1  0  0  3  0  0  0  0  0  0
  186.1740  177.3780  144.7470 C   0  0  0  0  0  2  0  0  0  0  0  0
  185.8530  178.8620  144.8840 C   0  0  0  0  0  2  0  0  0  0  0  0
  184.3820  178.5060  146.7420 O   0  0  0  0  0  1  0  0  0  0  0  0
  184.4570  179.0470  145.4510 C   0  0  2  0  0  3  0  0  0  0  0  0
  183.4680  178.4370  144.5600 N   0  0  0  0  0  0  0  0  0  0  0  0
  182.2460  178.9530  144.8460 O   0  0  0  0  0  1  0  0  0  0  0  0
  183.7880  178.8230  143.1930 C   0  0  0  0  0  2  0  0  0  0  0  0
  182.5160  178.9250  142.3680 C   0  0  0  0  0  2  0  0  0  0  0  0
  182.6210  178.1300  141.2270 O   0  0  0  0  0  0  0  0  0  0  0  0
  182.4190  179.0110  140.1670 C   0  0  0  0  0  1  0  0  0  0  0  0
  189.3190  177.1830  138.7880 C   0  0  0  0  0  2  0  0  0  0  0  0
  188.3290  176.4720  137.8840 C   0  0  0  0  0  2  0  0  0  0  0  0
  188.3570  177.0860  136.4840 C   0  0  1  0  0  3  0  0  0  0  0  0
  187.3910  179.2640  136.8940 O   0  0  0  0  0  1  0  0  0  0  0  0
  187.2050  178.0570  136.2150 C   0  0  0  0  0  2  0  0  0  0  0  0
  189.6210  177.5770  136.0810 O   0  0  0  0  0  0  0  0  0  0  0  0
  190.1750  176.7100  135.1250 C   0  0  0  0  0  1  0  0  0  0  0  0
  1  9  1  0  0  0  0
  1 16  1  1  0  0  0
  2 17  1  0  0  0  0
  3 13  1  0  0  0  0
  4  6  1  0  0  0  0
  4 17  1  0  0  0  0
  5  8  1  0  0  0  0
  5 12  1  0  0  0  0
  6 10  1  0  0  0  0
  7  2  1  0  0  0  0
  8 15  1  0  0  0  0
  9  3  1  0  0  0  0
 10 18  1  0  0  0  0
 10  9  1  0  0  0  0
 11 13  1  0  0  0  0
 12 14  1  0  0  0  0
 14  6  1  0  0  0  0
 15  7  1  0  0  0  0
 15  4  1  0  0  0  0
 16 11  1  0  0  0  0
 17  1  1  0  0  0  0
 18 19  1  0  0  0  0
 19 21  1  0  0  0  0
 21 20  1  0  0  0  0
 22 23  1  0  0  0  0
 22 21  1  0  0  0  0
 24 22  1  0  0  0  0
 25 24  1  0  0  0  0
 26 25  1  0  0  0  0
 27 26  1  0  0  0  0
 28  8  1  0  0  0  0
 29 28  1  0  0  0  0
 30 29  1  0  0  0  0
 32 30  1  0  0  0  0
 32 31  1  0  0  0  0
 33 30  1  0  0  0  0
 34 33  1  0  0  0  0
M  END
>  <MODEL>
6

>  <REMARK>
 VINA RESULT:      -6.8      1.505      2.042
  Name = 
  12 active torsions:
  status: ('A' for Active; 'I' for Inactive)
    1  A    between atoms: N_3  and  C_16
    2  A    between atoms: N_3  and  C_19
    3  A    between atoms: C_5  and  C_11
    4  A    between atoms: C_5  and  C_19
    5  A    between atoms: C_8  and  O_12
    6  A    between atoms: C_8  and  C_16
    7  A    between atoms: C_11  and  C_20
    8  A    between atoms: N_17  and  C_28
    9  A    between atoms: C_28  and  C_29
   10  A    between atoms: C_29  and  C_32
   11  A    between atoms: O_31  and  C_32
   12  A    between atoms: C_32  and  C_34
                            x       y       z     vdW  Elec       q    Type
                         _______ _______ _______ _____ _____    ______ ____

>  <TORSDO>
F 12

$$$$
=
 OpenBabel11122412283D

 34 37  0  0  1  0  0  0  0  0999 V2000
  190.5110  177.2380  139.2380 C   0  0  2  0  0  3  0  0  0  0  0  0
  192.0770  177.9290  140.9380 O   0  0  0  0  0  0  0  0  0  0  0  0
  188.4500  177.5000  137.8620 C   0  0  0  0  0  2  0  0  0  0  0  0
  190.2080  176.7030  141.7610 C   0  0  2  0  0  3  0  0  0  0  0  0
  189.4420  176.6750  144.5850 C   0  0  0  0  0  2  0  0  0  0  0  0
  188.9440  177.6010  141.7670 C   0  0  1  0  0  3  0  0  0  0  0  0
  192.1880  177.8990  142.3420 C   0  0  0  0  0  2  0  0  0  0  0  0
  190.4960  177.5650  144.1090 N   0  0  0  0  0  0  0  0  0  0  0  0
  188.9870  177.0920  139.2390 C   0  0  2  0  0  3  0  0  0  0  0  0
  188.4260  177.9800  140.3550 C   0  0  1  0  0  3  0  0  0  0  0  0
  190.5750  176.7330  136.7870 C   0  0  0  0  0  2  0  0  0  0  0  0
  188.0910  177.1900  144.1120 C   0  0  0  0  0  2  0  0  0  0  0  0
  189.0540  176.6090  136.7800 C   0  0  0  0  0  2  0  0  0  0  0  0
  187.8820  176.9150  142.6290 C   0  0  0  0  0  2  0  0  0  0  0  0
  191.1400  176.9630  142.9320 C   0  0  1  0  0  3  0  0  0  0  0  0
  191.1310  176.3550  138.1570 C   0  0  0  0  0  2  0  0  0  0  0  0
  191.1550  176.9300  140.5920 C   0  0  1  0  0  3  0  0  0  0  0  0
  186.9250  178.2970  140.2600 C   0  0  0  0  0  2  0  0  0  0  0  0
  186.4010  178.9940  141.5090 C   0  0  0  0  0  2  0  0  0  0  0  0
  184.1660  178.5750  140.7520 O   0  0  0  0  0  1  0  0  0  0  0  0
  185.0180  178.4730  141.8590 C   0  0  2  0  0  3  0  0  0  0  0  0
  184.4840  179.2030  143.0110 N   0  0  0  0  0  0  0  0  0  0  0  0
  183.1570  179.4100  142.8190 O   0  0  0  0  0  1  0  0  0  0  0  0
  184.6200  178.3570  144.1890 C   0  0  0  0  0  2  0  0  0  0  0  0
  183.8990  178.9860  145.3700 C   0  0  0  0  0  2  0  0  0  0  0  0
  184.6250  178.7720  146.5410 O   0  0  0  0  0  0  0  0  0  0  0  0
  185.9590  178.8810  146.1510 C   0  0  0  0  0  1  0  0  0  0  0  0
  191.4810  177.6150  145.1810 C   0  0  0  0  0  2  0  0  0  0  0  0
  191.6530  176.2330  145.7860 C   0  0  0  0  0  2  0  0  0  0  0  0
  191.3330  176.2690  147.2810 C   0  0  1  0  0  3  0  0  0  0  0  0
  193.1080  176.6950  148.8670 O   0  0  0  0  0  1  0  0  0  0  0  0
  192.4440  175.6900  148.1600 C   0  0  0  0  0  2  0  0  0  0  0  0
  190.8240  177.5030  147.7460 O   0  0  0  0  0  0  0  0  0  0  0  0
  189.4440  177.3830  147.9730 C   0  0  0  0  0  1  0  0  0  0  0  0
  1 16  1  6  0  0  0
  1  9  1  0  0  0  0
  1 17  1  0  0  0  0
  2  7  1  0  0  0  0
  3  9  1  0  0  0  0
  4  6  1  0  0  0  0
  4 15  1  0  0  0  0
  6 14  1  0  0  0  0
  7 15  1  0  0  0  0
  8  5  1  0  0  0  0
  8 28  1  0  0  0  0
  9 10  1  0  0  0  0
 10  6  1  0  0  0  0
 11 16  1  0  0  0  0
 12  5  1  0  0  0  0
 13 11  1  0  0  0  0
 13  3  1  0  0  0  0
 14 12  1  0  0  0  0
 15  8  1  0  0  0  0
 17  2  1  0  0  0  0
 17  4  1  0  0  0  0
 18 10  1  0  0  0  0
 18 19  1  0  0  0  0
 19 21  1  0  0  0  0
 20 21  1  0  0  0  0
 21 22  1  0  0  0  0
 22 24  1  0  0  0  0
 23 22  1  0  0  0  0
 24 25  1  0  0  0  0
 25 26  1  0  0  0  0
 27 26  1  0  0  0  0
 28 29  1  0  0  0  0
 29 30  1  0  0  0  0
 30 33  1  0  0  0  0
 30 32  1  0  0  0  0
 32 31  1  0  0  0  0
 33 34  1  0  0  0  0
M  END
>  <MODEL>
7

>  <REMARK>
 VINA RESULT:      -6.5      2.087      6.631
  Name = 
  12 active torsions:
  status: ('A' for Active; 'I' for Inactive)
    1  A    between atoms: N_3  and  C_16
    2  A    between atoms: N_3  and  C_19
    3  A    between atoms: C_5  and  C_11
    4  A    between atoms: C_5  and  C_19
    5  A    between atoms: C_8  and  O_12
    6  A    between atoms: C_8  and  C_16
    7  A    between atoms: C_11  and  C_20
    8  A    between atoms: N_17  and  C_28
    9  A    between atoms: C_28  and  C_29
   10  A    between atoms: C_29  and  C_32
   11  A    between atoms: O_31  and  C_32
   12  A    between atoms: C_32  and  C_34
                            x       y       z     vdW  Elec       q    Type
                         _______ _______ _______ _____ _____    ______ ____

>  <TORSDO>
F 12

$$$$
=
 OpenBabel11122412283D

 34 37  0  0  1  0  0  0  0  0999 V2000
  190.7570  177.0510  139.2610 C   0  0  2  0  0  3  0  0  0  0  0  0
  191.9350  177.5480  141.3070 O   0  0  0  0  0  0  0  0  0  0  0  0
  189.2270  177.6070  137.3750 C   0  0  0  0  0  2  0  0  0  0  0  0
  189.7040  176.7760  141.6190 C   0  0  2  0  0  3  0  0  0  0  0  0
  188.2400  177.1100  144.1310 C   0  0  0  0  0  2  0  0  0  0  0  0
  188.6970  177.9020  141.2650 C   0  0  1  0  0  3  0  0  0  0  0  0
  191.6690  177.6020  142.6900 C   0  0  0  0  0  2  0  0  0  0  0  0
  189.5430  177.7390  143.9400 N   0  0  0  0  0  0  0  0  0  0  0  0
  189.2890  177.2070  138.8540 C   0  0  2  0  0  3  0  0  0  0  0  0
  188.6560  178.2680  139.7590 C   0  0  1  0  0  3  0  0  0  0  0  0
  191.3500  176.3620  136.9290 C   0  0  0  0  0  2  0  0  0  0  0  0
  187.1970  177.8430  143.3010 C   0  0  0  0  0  2  0  0  0  0  0  0
  189.8920  176.5380  136.5140 C   0  0  0  0  0  2  0  0  0  0  0  0
  187.3290  177.5040  141.8220 C   0  0  0  0  0  2  0  0  0  0  0  0
  190.3310  176.9360  142.9930 C   0  0  1  0  0  3  0  0  0  0  0  0
  191.4390  175.9860  138.4050 C   0  0  0  0  0  2  0  0  0  0  0  0
  190.9480  176.7250  140.7440 C   0  0  1  0  0  3  0  0  0  0  0  0
  187.3320  178.8650  139.2560 C   0  0  0  0  0  2  0  0  0  0  0  0
  186.5320  177.8750  138.4180 C   0  0  0  0  0  2  0  0  0  0  0  0
  184.3010  178.1770  137.5960 O   0  0  0  0  0  1  0  0  0  0  0  0
  185.0550  177.9720  138.7590 C   0  0  2  0  0  3  0  0  0  0  0  0
  184.8340  179.0420  139.7340 N   0  0  0  0  0  0  0  0  0  0  0  0
  184.3940  180.1450  139.0790 O   0  0  0  0  0  1  0  0  0  0  0  0
  183.7690  178.6240  140.6340 C   0  0  0  0  0  2  0  0  0  0  0  0
  184.1580  178.9150  142.0740 C   0  0  0  0  0  2  0  0  0  0  0  0
  183.0160  178.9870  142.8720 O   0  0  0  0  0  0  0  0  0  0  0  0
  183.4960  178.8980  144.1780 C   0  0  0  0  0  1  0  0  0  0  0  0
  190.2040  177.6750  145.2370 C   0  0  0  0  0  2  0  0  0  0  0  0
  189.2650  177.0640  146.2620 C   0  0  0  0  0  2  0  0  0  0  0  0
  189.9950  176.8610  147.5900 C   0  0  1  0  0  3  0  0  0  0  0  0
  192.3000  177.1230  148.2690 O   0  0  0  0  0  1  0  0  0  0  0  0
  191.4470  176.4030  147.4300 C   0  0  0  0  0  2  0  0  0  0  0  0
  189.8290  177.9130  148.5210 O   0  0  0  0  0  0  0  0  0  0  0  0
  188.4690  178.2540  148.6010 C   0  0  0  0  0  1  0  0  0  0  0  0
  1 16  1  6  0  0  0
  1 17  1  0  0  0  0
  2  7  1  0  0  0  0
  3  9  1  0  0  0  0
  4 15  1  0  0  0  0
  6  4  1  0  0  0  0
  6 14  1  0  0  0  0
  7 15  1  0  0  0  0
  8  5  1  0  0  0  0
  8 28  1  0  0  0  0
  9  1  1  0  0  0  0
  9 10  1  0  0  0  0
 10  6  1  0  0  0  0
 11 16  1  0  0  0  0
 12  5  1  0  0  0  0
 13 11  1  0  0  0  0
 13  3  1  0  0  0  0
 14 12  1  0  0  0  0
 15  8  1  0  0  0  0
 17  2  1  0  0  0  0
 17  4  1  0  0  0  0
 18 10  1  0  0  0  0
 19 21  1  0  0  0  0
 19 18  1  0  0  0  0
 20 21  1  0  0  0  0
 21 22  1  0  0  0  0
 22 24  1  0  0  0  0
 23 22  1  0  0  0  0
 24 25  1  0  0  0  0
 25 26  1  0  0  0  0
 26 27  1  0  0  0  0
 28 29  1  0  0  0  0
 29 30  1  0  0  0  0
 30 33  1  0  0  0  0
 32 30  1  0  0  0  0
 32 31  1  0  0  0  0
 33 34  1  0  0  0  0
M  END
>  <MODEL>
8

>  <REMARK>
 VINA RESULT:      -6.5      2.116      6.793
  Name = 
  12 active torsions:
  status: ('A' for Active; 'I' for Inactive)
    1  A    between atoms: N_3  and  C_16
    2  A    between atoms: N_3  and  C_19
    3  A    between atoms: C_5  and  C_11
    4  A    between atoms: C_5  and  C_19
    5  A    between atoms: C_8  and  O_12
    6  A    between atoms: C_8  and  C_16
    7  A    between atoms: C_11  and  C_20
    8  A    between atoms: N_17  and  C_28
    9  A    between atoms: C_28  and  C_29
   10  A    between atoms: C_29  and  C_32
   11  A    between atoms: O_31  and  C_32
   12  A    between atoms: C_32  and  C_34
                            x       y       z     vdW  Elec       q    Type
                         _______ _______ _______ _____ _____    ______ ____

>  <TORSDO>
F 12

$$$$
=
 OpenBabel11122412283D

 34 37  0  0  1  0  0  0  0  0999 V2000
  191.2450  176.7780  138.9430 C   0  0  2  0  0  3  0  0  0  0  0  0
  192.1720  177.5140  141.0460 O   0  0  0  0  0  0  0  0  0  0  0  0
  190.0050  177.1200  136.8090 C   0  0  0  0  0  2  0  0  0  0  0  0
  189.8810  176.8720  141.1500 C   0  0  2  0  0  3  0  0  0  0  0  0
  188.1230  177.6040  143.3720 C   0  0  0  0  0  2  0  0  0  0  0  0
  188.9910  177.9720  140.5160 C   0  0  1  0  0  3  0  0  0  0  0  0
  191.7310  177.7690  142.3590 C   0  0  0  0  0  2  0  0  0  0  0  0
  189.4710  178.1540  143.2790 N   0  0  0  0  0  0  0  0  0  0  0  0
  189.8530  176.9270  138.3220 C   0  0  2  0  0  3  0  0  0  0  0  0
  189.1650  178.1260  138.9830 C   0  0  1  0  0  3  0  0  0  0  0  0
  192.0990  175.7510  136.8260 C   0  0  0  0  0  2  0  0  0  0  0  0
  187.2380  178.2500  142.3180 C   0  0  0  0  0  2  0  0  0  0  0  0
  190.7180  175.9180  136.1970 C   0  0  0  0  0  2  0  0  0  0  0  0
  187.5420  177.7040  140.9290 C   0  0  0  0  0  2  0  0  0  0  0  0
  190.3320  177.2000  142.5630 C   0  0  1  0  0  3  0  0  0  0  0  0
  191.9750  175.5810  138.3380 C   0  0  0  0  0  2  0  0  0  0  0  0
  191.2240  176.6560  140.4680 C   0  0  1  0  0  3  0  0  0  0  0  0
  187.9520  178.6940  138.2290 C   0  0  0  0  0  2  0  0  0  0  0  0
  186.9980  177.6010  137.7620 C   0  0  0  0  0  2  0  0  0  0  0  0
  185.2810  178.9930  138.6870 O   0  0  0  0  0  1  0  0  0  0  0  0
  185.5950  178.1610  137.6050 C   0  0  2  0  0  3  0  0  0  0  0  0
  184.6290  177.0670  137.4760 N   0  0  0  0  0  0  0  0  0  0  0  0
  183.4950  177.5510  136.9110 O   0  0  0  0  0  1  0  0  0  0  0  0
  185.1790  176.0800  136.5580 C   0  0  0  0  0  2  0  0  0  0  0  0
  184.3060  174.8370  136.5420 C   0  0  0  0  0  2  0  0  0  0  0  0
  184.3140  174.2320  137.7990 O   0  0  0  0  0  0  0  0  0  0  0  0
  184.9380  173.0030  137.5910 C   0  0  0  0  0  1  0  0  0  0  0  0
  189.9530  178.2480  144.6500 C   0  0  0  0  0  2  0  0  0  0  0  0
  189.0540  177.4390  145.5670 C   0  0  0  0  0  2  0  0  0  0  0  0
  189.8270  177.0020  146.8120 C   0  0  1  0  0  3  0  0  0  0  0  0
  192.0340  176.6980  147.7500 O   0  0  0  0  0  1  0  0  0  0  0  0
  191.3140  176.7500  146.5550 C   0  0  0  0  0  2  0  0  0  0  0  0
  189.5720  177.7770  147.9670 O   0  0  0  0  0  0  0  0  0  0  0  0
  188.1870  177.8320  148.1960 C   0  0  0  0  0  1  0  0  0  0  0  0
  1 16  1  6  0  0  0
  1 17  1  0  0  0  0
  2  7  1  0  0  0  0
  3  9  1  0  0  0  0
  4 15  1  0  0  0  0
  6 14  1  0  0  0  0
  6  4  1  0  0  0  0
  7 15  1  0  0  0  0
  8  5  1  0  0  0  0
  8 28  1  0  0  0  0
  9  1  1  0  0  0  0
  9 10  1  0  0  0  0
 10  6  1  0  0  0  0
 11 16  1  0  0  0  0
 12  5  1  0  0  0  0
 13  3  1  0  0  0  0
 13 11  1  0  0  0  0
 14 12  1  0  0  0  0
 15  8  1  0  0  0  0
 17  2  1  0  0  0  0
 17  4  1  0  0  0  0
 18 10  1  0  0  0  0
 19 18  1  0  0  0  0
 21 19  1  0  0  0  0
 21 20  1  0  0  0  0
 22 21  1  0  0  0  0
 23 22  1  0  0  0  0
 24 22  1  0  0  0  0
 25 24  1  0  0  0  0
 25 26  1  0  0  0  0
 27 26  1  0  0  0  0
 28 29  1  0  0  0  0
 29 30  1  0  0  0  0
 30 33  1  0  0  0  0
 32 30  1  0  0  0  0
 32 31  1  0  0  0  0
 33 34  1  0  0  0  0
M  END
>  <MODEL>
9

>  <REMARK>
 VINA RESULT:      -6.5      2.953      7.086
  Name = 
  12 active torsions:
  status: ('A' for Active; 'I' for Inactive)
    1  A    between atoms: N_3  and  C_16
    2  A    between atoms: N_3  and  C_19
    3  A    between atoms: C_5  and  C_11
    4  A    between atoms: C_5  and  C_19
    5  A    between atoms: C_8  and  O_12
    6  A    between atoms: C_8  and  C_16
    7  A    between atoms: C_11  and  C_20
    8  A    between atoms: N_17  and  C_28
    9  A    between atoms: C_28  and  C_29
   10  A    between atoms: C_29  and  C_32
   11  A    between atoms: O_31  and  C_32
   12  A    between atoms: C_32  and  C_34
                            x       y       z     vdW  Elec       q    Type
                         _______ _______ _______ _____ _____    ______ ____

>  <TORSDO>
F 12

$$$$
