=
 OpenBabel11122410293D

 30 35  0  0  1  0  0  0  0  0999 V2000
  186.5870  178.1470  141.6690 C   0  0  1  0  0  3  0  0  0  0  0  0
  187.8170  177.2770  143.7070 C   0  0  0  0  0  0  0  0  0  0  0  0
  183.1970  178.9830  144.1540 N   0  0  0  0  0  2  0  0  0  0  0  0
  185.3000  178.8250  141.1250 C   0  0  1  0  0  3  0  0  0  0  0  0
  187.7730  178.5800  140.8190 C   0  0  0  0  0  2  0  0  0  0  0  0
  185.9920  177.7990  137.6550 O   0  0  0  0  0  0  0  0  0  0  0  0
  182.7140  177.5540  139.5700 C   0  0  1  0  0  3  0  0  0  0  0  0
  186.1850  178.1080  138.8650 C   0  0  0  0  0  0  0  0  0  0  0  0
  182.0220  177.8900  140.8980 C   0  0  2  0  0  3  0  0  0  0  0  0
  182.1960  178.9950  143.1500 C   0  0  0  0  0  0  0  0  0  0  0  0
  187.5630  178.1520  139.3990 C   0  0  0  0  0  0  0  0  0  0  0  0
  185.0620  178.4040  139.7240 N   0  0  0  0  0  0  0  0  0  0  0  0
  187.6910  176.8420  145.0310 O   0  0  0  0  0  0  0  0  0  0  0  0
  180.6310  178.3560  140.5210 C   0  0  0  0  0  2  0  0  0  0  0  0
  181.6110  177.3940  138.5350 C   0  0  0  0  0  2  0  0  0  0  0  0
  188.7110  176.7750  142.9760 O   0  0  0  0  0  0  0  0  0  0  0  0
  184.4430  179.0780  143.4200 C   0  0  2  0  0  3  0  0  0  0  0  0
  186.9020  177.5630  145.9720 C   0  0  0  0  0  2  0  0  0  0  0  0
  186.8950  178.3570  143.1810 C   0  0  2  0  0  3  0  0  0  0  0  0
  184.1630  178.4500  142.0740 C   0  0  1  0  0  3  0  0  0  0  0  0
  180.9710  179.0980  143.4230 O   0  0  0  0  0  0  0  0  0  0  0  0
  182.7500  178.9210  141.7620 C   0  0  1  0  0  3  0  0  0  0  0  0
  180.2950  177.5920  139.2620 C   0  0  0  0  0  2  0  0  0  0  0  0
  183.3080  180.0150  139.0000 C   0  0  0  0  0  1  0  0  0  0  0  0
  185.6440  178.0680  145.3310 C   0  0  0  0  0  3  0  0  0  0  0  0
  185.6350  178.4230  144.0360 C   0  0  0  0  0  0  0  0  0  0  0  0
  183.7610  178.5590  139.0650 C   0  0  2  0  0  3  0  0  0  0  0  0
  188.6000  177.8640  138.6070 C   0  0  0  0  0  3  0  0  0  0  0  0
  190.5220  176.5030  139.2970 C   0  0  0  0  0  1  0  0  0  0  0  0
  190.0180  177.9120  139.0700 C   0  0  0  0  0  2  0  0  0  0  0  0
  1  5  1  6  0  0  0
  1 19  1  0  0  0  0
  2 13  1  0  0  0  0
  4 12  1  6  0  0  0
  4  1  1  0  0  0  0
  4 20  1  0  0  0  0
  6  8  2  0  0  0  0
  7 15  1  6  0  0  0
  7  9  1  0  0  0  0
  8 11  1  0  0  0  0
  8 12  1  0  0  0  0
  9 14  1  6  0  0  0
  9 22  1  0  0  0  0
 10 21  2  0  0  0  0
 10  3  1  0  0  0  0
 11  5  1  0  0  0  0
 13 18  1  0  0  0  0
 15 23  1  0  0  0  0
 16  2  2  0  0  0  0
 17 26  1  1  0  0  0
 17  3  1  0  0  0  0
 19  2  1  1  0  0  0
 19 26  1  0  0  0  0
 20 17  1  0  0  0  0
 22 20  1  0  0  0  0
 22 10  1  0  0  0  0
 23 14  1  0  0  0  0
 24 27  1  0  0  0  0
 25 18  1  0  0  0  0
 26 25  2  0  0  0  0
 27  7  1  0  0  0  0
 27 12  1  0  0  0  0
 28 30  1  0  0  0  0
 28 11  2  0  0  0  0
 30 29  1  0  0  0  0
M  END
>  <MODEL>
1

>  <REMARK>
 VINA RESULT:      -8.8      0.000      0.000
  Name = 
  1 active torsions:
  status: ('A' for Active; 'I' for Inactive)
    1  A    between atoms: C_28  and  C_30
                            x       y       z     vdW  Elec       q    Type
                         _______ _______ _______ _____ _____    ______ ____

>  <TORSDO>
F 1

$$$$
=
 OpenBabel11122410293D

 30 35  0  0  1  0  0  0  0  0999 V2000
  187.7430  177.9840  141.7150 C   0  0  1  0  0  3  0  0  0  0  0  0
  186.5500  177.8620  143.9470 C   0  0  0  0  0  0  0  0  0  0  0  0
  184.0210  179.0150  139.8570 N   0  0  0  0  0  2  0  0  0  0  0  0
  187.6290  178.3190  140.2020 C   0  0  1  0  0  3  0  0  0  0  0  0
  189.1480  178.3210  142.1930 C   0  0  0  0  0  2  0  0  0  0  0  0
  190.7180  176.4930  139.3660 O   0  0  0  0  0  0  0  0  0  0  0  0
  187.3530  176.3530  137.5980 C   0  0  1  0  0  3  0  0  0  0  0  0
  189.8620  177.1390  140.0350 C   0  0  0  0  0  0  0  0  0  0  0  0
  185.9360  176.9420  137.5730 C   0  0  2  0  0  3  0  0  0  0  0  0
  184.3320  178.6260  138.5290 C   0  0  0  0  0  0  0  0  0  0  0  0
  190.1510  177.5030  141.4380 C   0  0  0  0  0  0  0  0  0  0  0  0
  188.6030  177.5080  139.4320 N   0  0  0  0  0  0  0  0  0  0  0  0
  185.3090  177.7870  144.5880 O   0  0  0  0  0  0  0  0  0  0  0  0
  185.5930  177.1060  136.1070 C   0  0  0  0  0  2  0  0  0  0  0  0
  187.6080  175.7790  136.2130 C   0  0  0  0  0  2  0  0  0  0  0  0
  187.5480  177.3010  144.4700 O   0  0  0  0  0  0  0  0  0  0  0  0
  185.3060  179.0680  140.5260 C   0  0  2  0  0  3  0  0  0  0  0  0
  184.2270  178.6280  144.1990 C   0  0  0  0  0  2  0  0  0  0  0  0
  186.6800  178.6320  142.6490 C   0  0  2  0  0  3  0  0  0  0  0  0
  186.1770  178.0700  139.7980 C   0  0  1  0  0  3  0  0  0  0  0  0
  183.4750  178.6400  137.6060 O   0  0  0  0  0  0  0  0  0  0  0  0
  185.7690  178.2530  138.3440 C   0  0  1  0  0  3  0  0  0  0  0  0
  186.3400  175.9940  135.4080 C   0  0  0  0  0  2  0  0  0  0  0  0
  188.5460  178.6250  137.2080 C   0  0  0  0  0  1  0  0  0  0  0  0
  184.1810  178.7750  142.7070 C   0  0  0  0  0  3  0  0  0  0  0  0
  185.3140  178.7630  141.9870 C   0  0  0  0  0  0  0  0  0  0  0  0
  188.4910  177.3110  137.9830 C   0  0  2  0  0  3  0  0  0  0  0  0
  191.3110  177.1490  141.9990 C   0  0  0  0  0  3  0  0  0  0  0  0
  191.3060  176.3620  144.3240 C   0  0  0  0  0  1  0  0  0  0  0  0
  191.6800  177.5020  143.4010 C   0  0  0  0  0  2  0  0  0  0  0  0
  1  5  1  1  0  0  0
  1 19  1  0  0  0  0
  2 16  2  0  0  0  0
  2 13  1  0  0  0  0
  4 12  1  6  0  0  0
  4  1  1  0  0  0  0
  6  8  2  0  0  0  0
  7 15  1  6  0  0  0
  7 27  1  0  0  0  0
  8 11  1  0  0  0  0
  9 14  1  6  0  0  0
  9  7  1  0  0  0  0
  9 22  1  0  0  0  0
 10  3  1  0  0  0  0
 11 28  2  0  0  0  0
 11  5  1  0  0  0  0
 12  8  1  0  0  0  0
 17  3  1  6  0  0  0
 17 26  1  0  0  0  0
 18 13  1  0  0  0  0
 19 26  1  6  0  0  0
 19  2  1  0  0  0  0
 20  4  1  0  0  0  0
 20 17  1  0  0  0  0
 21 10  2  0  0  0  0
 22 10  1  0  0  0  0
 22 20  1  0  0  0  0
 23 14  1  0  0  0  0
 23 15  1  0  0  0  0
 24 27  1  0  0  0  0
 25 18  1  0  0  0  0
 26 25  2  0  0  0  0
 27 12  1  0  0  0  0
 28 30  1  0  0  0  0
 30 29  1  0  0  0  0
M  END
>  <MODEL>
2

>  <REMARK>
 VINA RESULT:      -8.3      2.231      4.341
  Name = 
  1 active torsions:
  status: ('A' for Active; 'I' for Inactive)
    1  A    between atoms: C_28  and  C_30
                            x       y       z     vdW  Elec       q    Type
                         _______ _______ _______ _____ _____    ______ ____

>  <TORSDO>
F 1

$$$$
=
 OpenBabel11122410293D

 30 35  0  0  1  0  0  0  0  0999 V2000
  189.9820  177.2770  143.5410 C   0  0  1  0  0  3  0  0  0  0  0  0
  191.5990  175.8620  144.8850 C   0  0  0  0  0  0  0  0  0  0  0  0
  187.9120  178.2380  147.1690 N   0  0  0  0  0  2  0  0  0  0  0  0
  188.7740  178.2530  143.5800 C   0  0  1  0  0  3  0  0  0  0  0  0
  190.8750  177.6400  142.3640 C   0  0  0  0  0  2  0  0  0  0  0  0
  188.0020  177.7480  140.0130 O   0  0  0  0  0  0  0  0  0  0  0  0
  185.5990  177.7430  142.9620 C   0  0  1  0  0  3  0  0  0  0  0  0
  188.6570  177.8020  141.0920 C   0  0  0  0  0  0  0  0  0  0  0  0
  185.4910  177.9550  144.4790 C   0  0  2  0  0  3  0  0  0  0  0  0
  186.6600  178.5990  146.6090 C   0  0  0  0  0  0  0  0  0  0  0  0
  190.1070  177.5110  141.0840 C   0  0  0  0  0  0  0  0  0  0  0  0
  187.9880  178.1320  142.3290 N   0  0  0  0  0  0  0  0  0  0  0  0
  191.8340  175.2290  146.1090 O   0  0  0  0  0  0  0  0  0  0  0  0
  184.1970  178.7140  144.6880 C   0  0  0  0  0  2  0  0  0  0  0  0
  184.2050  177.9610  142.3940 C   0  0  0  0  0  2  0  0  0  0  0  0
  192.0560  175.3490  143.8290 O   0  0  0  0  0  0  0  0  0  0  0  0
  188.8240  178.2420  146.0420 C   0  0  2  0  0  3  0  0  0  0  0  0
  191.5940  175.9000  147.3430 C   0  0  0  0  0  2  0  0  0  0  0  0
  190.8210  177.1610  144.8470 C   0  0  2  0  0  3  0  0  0  0  0  0
  187.9720  177.9200  144.8360 C   0  0  1  0  0  3  0  0  0  0  0  0
  185.6560  178.8640  147.3220 O   0  0  0  0  0  0  0  0  0  0  0  0
  186.6800  178.6750  145.1150 C   0  0  1  0  0  3  0  0  0  0  0  0
  183.2930  178.2530  143.5700 C   0  0  0  0  0  2  0  0  0  0  0  0
  186.5030  180.1250  142.4690 C   0  0  0  0  0  1  0  0  0  0  0  0
  190.3410  176.7200  147.2640 C   0  0  0  0  0  3  0  0  0  0  0  0
  189.9740  177.2930  146.1070 C   0  0  0  0  0  0  0  0  0  0  0  0
  186.6110  178.6240  142.2140 C   0  0  2  0  0  3  0  0  0  0  0  0
  190.7210  177.1930  139.9420 C   0  0  0  0  0  3  0  0  0  0  0  0
  192.5190  176.4100  138.4650 C   0  0  0  0  0  1  0  0  0  0  0  0
  192.1840  176.9120  139.8540 C   0  0  0  0  0  2  0  0  0  0  0  0
  1  5  1  6  0  0  0
  1  4  1  0  0  0  0
  1 19  1  0  0  0  0
  2 13  1  0  0  0  0
  4 12  1  6  0  0  0
  4 20  1  0  0  0  0
  6  8  2  0  0  0  0
  7 15  1  6  0  0  0
  7  9  1  0  0  0  0
  8 12  1  0  0  0  0
  9 14  1  6  0  0  0
  9 22  1  0  0  0  0
 10  3  1  0  0  0  0
 10 21  2  0  0  0  0
 11  8  1  0  0  0  0
 11  5  1  0  0  0  0
 13 18  1  0  0  0  0
 15 23  1  0  0  0  0
 16  2  2  0  0  0  0
 17 26  1  1  0  0  0
 17  3  1  0  0  0  0
 19  2  1  1  0  0  0
 19 26  1  0  0  0  0
 20 22  1  0  0  0  0
 20 17  1  0  0  0  0
 22 10  1  0  0  0  0
 23 14  1  0  0  0  0
 25 18  1  0  0  0  0
 26 25  2  0  0  0  0
 27 12  1  0  0  0  0
 27 24  1  0  0  0  0
 27  7  1  0  0  0  0
 28 11  2  0  0  0  0
 29 30  1  0  0  0  0
 30 28  1  0  0  0  0
M  END
>  <MODEL>
3

>  <REMARK>
 VINA RESULT:      -8.3      2.968      4.486
  Name = 
  1 active torsions:
  status: ('A' for Active; 'I' for Inactive)
    1  A    between atoms: C_28  and  C_30
                            x       y       z     vdW  Elec       q    Type
                         _______ _______ _______ _____ _____    ______ ____

>  <TORSDO>
F 1

$$$$
=
 OpenBabel11122410293D

 30 35  0  0  1  0  0  0  0  0999 V2000
  186.0880  178.3810  141.6130 C   0  0  1  0  0  3  0  0  0  0  0  0
  184.5510  177.9940  139.6350 C   0  0  0  0  0  0  0  0  0  0  0  0
  189.4540  177.8110  139.0220 N   0  0  0  0  0  2  0  0  0  0  0  0
  187.5540  178.5330  142.1020 C   0  0  1  0  0  3  0  0  0  0  0  0
  185.1840  179.2510  142.4740 C   0  0  0  0  0  2  0  0  0  0  0  0
  186.6470  177.9270  145.6210 O   0  0  0  0  0  0  0  0  0  0  0  0
  189.5200  176.4130  143.6410 C   0  0  1  0  0  3  0  0  0  0  0  0
  186.5430  178.2580  144.4060 C   0  0  0  0  0  0  0  0  0  0  0  0
  190.2410  176.4300  142.2860 C   0  0  2  0  0  3  0  0  0  0  0  0
  190.4200  177.4650  140.0020 C   0  0  0  0  0  0  0  0  0  0  0  0
  185.2660  178.8080  143.9030 C   0  0  0  0  0  0  0  0  0  0  0  0
  187.6640  178.0860  143.5120 N   0  0  0  0  0  0  0  0  0  0  0  0
  184.4560  177.5130  138.3260 O   0  0  0  0  0  0  0  0  0  0  0  0
  191.7170  176.3430  142.6140 C   0  0  0  0  0  2  0  0  0  0  0  0
  190.5160  175.8710  144.6540 C   0  0  0  0  0  2  0  0  0  0  0  0
  183.5600  177.8860  140.4040 O   0  0  0  0  0  0  0  0  0  0  0  0
  188.3630  178.3880  139.7810 C   0  0  2  0  0  3  0  0  0  0  0  0
  185.4260  177.8590  137.3410 C   0  0  0  0  0  2  0  0  0  0  0  0
  185.8310  178.6560  140.1020 C   0  0  2  0  0  3  0  0  0  0  0  0
  188.4310  177.7330  141.1410 C   0  0  1  0  0  3  0  0  0  0  0  0
  191.5820  177.0900  139.6970 O   0  0  0  0  0  0  0  0  0  0  0  0
  189.9280  177.6390  141.4030 C   0  0  1  0  0  3  0  0  0  0  0  0
  191.7820  175.5380  143.8910 C   0  0  0  0  0  2  0  0  0  0  0  0
  189.9210  178.9290  144.1380 C   0  0  0  0  0  1  0  0  0  0  0  0
  186.8040  177.8650  137.9350 C   0  0  0  0  0  3  0  0  0  0  0  0
  186.9910  178.2200  139.2160 C   0  0  0  0  0  0  0  0  0  0  0  0
  188.9490  177.7520  144.1340 C   0  0  2  0  0  3  0  0  0  0  0  0
  184.2260  178.9550  144.7290 C   0  0  0  0  0  3  0  0  0  0  0  0
  181.9530  178.3990  143.9870 C   0  0  0  0  0  1  0  0  0  0  0  0
  182.9170  179.5250  144.2970 C   0  0  0  0  0  2  0  0  0  0  0  0
  1  4  1  0  0  0  0
  1  5  1  1  0  0  0
  2 19  1  0  0  0  0
  2 16  2  0  0  0  0
  3 10  1  0  0  0  0
  4 12  1  1  0  0  0
  5 11  1  0  0  0  0
  7 27  1  0  0  0  0
  7 15  1  1  0  0  0
  8  6  2  0  0  0  0
  9 14  1  1  0  0  0
  9  7  1  0  0  0  0
 10 22  1  0  0  0  0
 11  8  1  0  0  0  0
 11 28  2  0  0  0  0
 12 27  1  0  0  0  0
 12  8  1  0  0  0  0
 13  2  1  0  0  0  0
 14 23  1  0  0  0  0
 17  3  1  6  0  0  0
 17 20  1  0  0  0  0
 18 25  1  0  0  0  0
 18 13  1  0  0  0  0
 19 26  1  6  0  0  0
 19  1  1  0  0  0  0
 20 22  1  0  0  0  0
 20  4  1  0  0  0  0
 21 10  2  0  0  0  0
 22  9  1  0  0  0  0
 23 15  1  0  0  0  0
 25 26  2  0  0  0  0
 26 17  1  0  0  0  0
 27 24  1  0  0  0  0
 29 30  1  0  0  0  0
 30 28  1  0  0  0  0
M  END
>  <MODEL>
4

>  <REMARK>
 VINA RESULT:      -8.1      2.363      7.593
  Name = 
  1 active torsions:
  status: ('A' for Active; 'I' for Inactive)
    1  A    between atoms: C_28  and  C_30
                            x       y       z     vdW  Elec       q    Type
                         _______ _______ _______ _____ _____    ______ ____

>  <TORSDO>
F 1

$$$$
=
 OpenBabel11122410293D

 30 35  0  0  1  0  0  0  0  0999 V2000
  183.3000  178.3010  140.4520 C   0  0  1  0  0  3  0  0  0  0  0  0
  182.9330  177.2530  138.1740 C   0  0  0  0  0  0  0  0  0  0  0  0
  187.5170  178.3190  139.6910 N   0  0  0  0  0  2  0  0  0  0  0  0
  184.3250  178.9070  141.4490 C   0  0  1  0  0  3  0  0  0  0  0  0
  181.9610  179.0020  140.6310 C   0  0  0  0  0  2  0  0  0  0  0  0
  182.0410  178.5550  144.3170 O   0  0  0  0  0  0  0  0  0  0  0  0
  185.7230  177.6220  144.1170 C   0  0  1  0  0  3  0  0  0  0  0  0
  182.4440  178.6800  143.1260 C   0  0  0  0  0  0  0  0  0  0  0  0
  186.9660  177.6510  143.2170 C   0  0  2  0  0  3  0  0  0  0  0  0
  187.9740  178.3810  141.0330 C   0  0  0  0  0  0  0  0  0  0  0  0
  181.4610  178.7930  142.0280 C   0  0  0  0  0  0  0  0  0  0  0  0
  183.8600  178.6990  142.8410 N   0  0  0  0  0  0  0  0  0  0  0  0
  183.5360  176.5930  137.0980 O   0  0  0  0  0  0  0  0  0  0  0  0
  188.1180  178.0100  144.1330 C   0  0  0  0  0  2  0  0  0  0  0  0
  186.2260  177.5090  145.5470 C   0  0  0  0  0  2  0  0  0  0  0  0
  181.7390  176.9850  138.4700 O   0  0  0  0  0  0  0  0  0  0  0  0
  186.1150  178.6760  139.7730 C   0  0  2  0  0  3  0  0  0  0  0  0
  184.7670  177.0540  136.5480 C   0  0  0  0  0  2  0  0  0  0  0  0
  183.7140  178.2920  138.9520 C   0  0  2  0  0  3  0  0  0  0  0  0
  185.6730  178.2520  141.1550 C   0  0  1  0  0  3  0  0  0  0  0  0
  189.1940  178.2960  141.3320 O   0  0  0  0  0  0  0  0  0  0  0  0
  186.8740  178.6020  142.0220 C   0  0  1  0  0  3  0  0  0  0  0  0
  187.7390  177.4310  145.4750 C   0  0  0  0  0  2  0  0  0  0  0  0
  185.3860  180.1950  144.1160 C   0  0  0  0  0  1  0  0  0  0  0  0
  185.6940  177.5100  137.6350 C   0  0  0  0  0  3  0  0  0  0  0  0
  185.2090  178.0710  138.7540 C   0  0  0  0  0  0  0  0  0  0  0  0
  184.7560  178.8100  143.9960 C   0  0  2  0  0  3  0  0  0  0  0  0
  180.1520  178.7620  142.2920 C   0  0  0  0  0  3  0  0  0  0  0  0
  178.9310  177.5690  140.5280 C   0  0  0  0  0  1  0  0  0  0  0  0
  179.1030  178.8950  141.2380 C   0  0  0  0  0  2  0  0  0  0  0  0
  1  5  1  6  0  0  0
  1  4  1  0  0  0  0
  2 16  2  0  0  0  0
  3 17  1  0  0  0  0
  3 10  1  0  0  0  0
  4 12  1  1  0  0  0
  5 11  1  0  0  0  0
  7 15  1  1  0  0  0
  8  6  2  0  0  0  0
  9  7  1  0  0  0  0
  9 14  1  1  0  0  0
 10 21  2  0  0  0  0
 10 22  1  0  0  0  0
 11 28  2  0  0  0  0
 11  8  1  0  0  0  0
 12  8  1  0  0  0  0
 12 27  1  0  0  0  0
 13  2  1  0  0  0  0
 14 23  1  0  0  0  0
 17 26  1  6  0  0  0
 17 20  1  0  0  0  0
 18 13  1  0  0  0  0
 18 25  1  0  0  0  0
 19  2  1  6  0  0  0
 19  1  1  0  0  0  0
 20  4  1  0  0  0  0
 20 22  1  0  0  0  0
 22  9  1  0  0  0  0
 23 15  1  0  0  0  0
 25 26  2  0  0  0  0
 26 19  1  0  0  0  0
 27 24  1  0  0  0  0
 27  7  1  0  0  0  0
 29 30  1  0  0  0  0
 30 28  1  0  0  0  0
M  END
>  <MODEL>
5

>  <REMARK>
 VINA RESULT:      -7.6      1.771      7.054
  Name = 
  1 active torsions:
  status: ('A' for Active; 'I' for Inactive)
    1  A    between atoms: C_28  and  C_30
                            x       y       z     vdW  Elec       q    Type
                         _______ _______ _______ _____ _____    ______ ____

>  <TORSDO>
F 1

$$$$
=
 OpenBabel11122410293D

 30 35  0  0  1  0  0  0  0  0999 V2000
  189.0660  177.3270  140.1060 C   0  0  1  0  0  3  0  0  0  0  0  0
  189.5910  176.6160  142.4810 C   0  0  0  0  0  0  0  0  0  0  0  0
  185.3210  178.8980  141.4770 N   0  0  0  0  0  2  0  0  0  0  0  0
  188.0760  178.0680  139.1660 C   0  0  1  0  0  3  0  0  0  0  0  0
  190.4800  177.4940  139.5690 C   0  0  0  0  0  2  0  0  0  0  0  0
  189.4640  176.4880  136.1410 O   0  0  0  0  0  0  0  0  0  0  0  0
  185.8090  176.9030  137.1100 C   0  0  1  0  0  3  0  0  0  0  0  0
  189.3880  176.9400  137.3180 C   0  0  0  0  0  0  0  0  0  0  0  0
  184.8610  177.5010  138.1580 C   0  0  2  0  0  3  0  0  0  0  0  0
  184.6210  178.8850  140.2430 C   0  0  0  0  0  0  0  0  0  0  0  0
  190.5750  176.8970  138.1980 C   0  0  0  0  0  0  0  0  0  0  0  0
  188.1410  177.4840  137.8050 N   0  0  0  0  0  0  0  0  0  0  0  0
  189.0700  176.3890  143.7590 O   0  0  0  0  0  0  0  0  0  0  0  0
  183.6980  178.0690  137.3710 C   0  0  0  0  0  2  0  0  0  0  0  0
  184.9940  176.7280  135.8380 C   0  0  0  0  0  2  0  0  0  0  0  0
  190.5560  175.9140  142.0760 O   0  0  0  0  0  0  0  0  0  0  0  0
  186.7120  178.7410  141.1030 C   0  0  2  0  0  3  0  0  0  0  0  0
  188.1850  177.3240  144.3700 C   0  0  0  0  0  2  0  0  0  0  0  0
  189.0070  177.7110  141.6140 C   0  0  2  0  0  3  0  0  0  0  0  0
  186.6930  177.9670  139.8050 C   0  0  1  0  0  3  0  0  0  0  0  0
  183.3970  179.1680  140.1620 O   0  0  0  0  0  0  0  0  0  0  0  0
  185.4920  178.5510  139.0740 C   0  0  1  0  0  3  0  0  0  0  0  0
  183.5820  177.1800  136.1560 C   0  0  0  0  0  2  0  0  0  0  0  0
  186.8920  179.1720  136.4670 C   0  0  0  0  0  1  0  0  0  0  0  0
  187.2220  177.8780  143.3620 C   0  0  0  0  0  3  0  0  0  0  0  0
  187.5960  178.0450  142.0840 C   0  0  0  0  0  0  0  0  0  0  0  0
  187.0890  177.6960  136.8060 C   0  0  2  0  0  3  0  0  0  0  0  0
  191.7240  176.3810  137.7520 C   0  0  0  0  0  3  0  0  0  0  0  0
  193.9310  175.3290  137.9670 C   0  0  0  0  0  1  0  0  0  0  0  0
  192.9680  176.3270  138.5740 C   0  0  0  0  0  2  0  0  0  0  0  0
  1  5  1  6  0  0  0
  1 19  1  0  0  0  0
  2 13  1  0  0  0  0
  4 12  1  6  0  0  0
  4 20  1  0  0  0  0
  4  1  1  0  0  0  0
  6  8  2  0  0  0  0
  7 15  1  6  0  0  0
  7  9  1  0  0  0  0
  8 12  1  0  0  0  0
  8 11  1  0  0  0  0
  9 14  1  6  0  0  0
  9 22  1  0  0  0  0
 10  3  1  0  0  0  0
 11  5  1  0  0  0  0
 13 18  1  0  0  0  0
 15 23  1  0  0  0  0
 16  2  2  0  0  0  0
 17  3  1  1  0  0  0
 17 26  1  0  0  0  0
 19 26  1  1  0  0  0
 19  2  1  0  0  0  0
 20 17  1  0  0  0  0
 21 10  2  0  0  0  0
 22 20  1  0  0  0  0
 22 10  1  0  0  0  0
 23 14  1  0  0  0  0
 24 27  1  0  0  0  0
 25 18  1  0  0  0  0
 26 25  2  0  0  0  0
 27  7  1  0  0  0  0
 27 12  1  0  0  0  0
 28 11  2  0  0  0  0
 28 30  1  0  0  0  0
 29 30  1  0  0  0  0
M  END
>  <MODEL>
6

>  <REMARK>
 VINA RESULT:      -7.6      2.340      3.530
  Name = 
  1 active torsions:
  status: ('A' for Active; 'I' for Inactive)
    1  A    between atoms: C_28  and  C_30
                            x       y       z     vdW  Elec       q    Type
                         _______ _______ _______ _____ _____    ______ ____

>  <TORSDO>
F 1

$$$$
=
 OpenBabel11122410293D

 30 35  0  0  1  0  0  0  0  0999 V2000
  185.4910  178.2580  139.5830 C   0  0  1  0  0  3  0  0  0  0  0  0
  186.1970  177.1510  137.4150 C   0  0  0  0  0  0  0  0  0  0  0  0
  189.5530  178.0470  140.9340 N   0  0  0  0  0  2  0  0  0  0  0  0
  185.9500  178.8480  140.9440 C   0  0  1  0  0  3  0  0  0  0  0  0
  184.2730  179.0280  139.0930 C   0  0  0  0  0  2  0  0  0  0  0  0
  182.5560  178.7050  142.3700 O   0  0  0  0  0  0  0  0  0  0  0  0
  185.8250  177.5900  143.9650 C   0  0  1  0  0  3  0  0  0  0  0  0
  183.4860  178.7690  141.5170 C   0  0  0  0  0  0  0  0  0  0  0  0
  187.3460  177.5290  143.7700 C   0  0  2  0  0  3  0  0  0  0  0  0
  189.3160  178.1340  142.3300 C   0  0  0  0  0  0  0  0  0  0  0  0
  183.1560  178.8910  140.0810 C   0  0  0  0  0  0  0  0  0  0  0  0
  184.8640  178.7100  141.9450 N   0  0  0  0  0  0  0  0  0  0  0  0
  187.2010  176.4260  136.7640 O   0  0  0  0  0  0  0  0  0  0  0  0
  187.9390  177.8630  145.1230 C   0  0  0  0  0  2  0  0  0  0  0  0
  185.5760  177.5030  145.4630 C   0  0  0  0  0  2  0  0  0  0  0  0
  184.9930  176.9500  137.1040 O   0  0  0  0  0  0  0  0  0  0  0  0
  188.3050  178.4740  140.3320 C   0  0  2  0  0  3  0  0  0  0  0  0
  188.5700  176.8080  136.8670 C   0  0  0  0  0  2  0  0  0  0  0  0
  186.5710  178.1770  138.4640 C   0  0  2  0  0  3  0  0  0  0  0  0
  187.2330  178.1190  141.3370 C   0  0  1  0  0  3  0  0  0  0  0  0
  190.2380  178.0010  143.1780 O   0  0  0  0  0  0  0  0  0  0  0  0
  187.8920  178.4410  142.6700 C   0  0  1  0  0  3  0  0  0  0  0  0
  186.9320  177.3500  146.1250 C   0  0  0  0  0  2  0  0  0  0  0  0
  185.6800  180.1750  143.7840 C   0  0  0  0  0  1  0  0  0  0  0  0
  188.8900  177.2560  138.2620 C   0  0  0  0  0  3  0  0  0  0  0  0
  187.9630  177.8780  139.0070 C   0  0  0  0  0  0  0  0  0  0  0  0
  185.1050  178.8180  143.3870 C   0  0  2  0  0  3  0  0  0  0  0  0
  181.8800  178.9320  139.6870 C   0  0  0  0  0  3  0  0  0  0  0  0
  181.1020  180.5210  137.9860 C   0  0  0  0  0  1  0  0  0  0  0  0
  181.4720  179.0790  138.2580 C   0  0  0  0  0  2  0  0  0  0  0  0
  1  5  1  6  0  0  0
  1  4  1  0  0  0  0
  3 10  1  0  0  0  0
  4 20  1  0  0  0  0
  4 12  1  1  0  0  0
  5 11  1  0  0  0  0
  7 15  1  1  0  0  0
  8 12  1  0  0  0  0
  8  6  2  0  0  0  0
  9  7  1  0  0  0  0
  9 14  1  1  0  0  0
 10 22  1  0  0  0  0
 10 21  2  0  0  0  0
 11  8  1  0  0  0  0
 12 27  1  0  0  0  0
 13 18  1  0  0  0  0
 13  2  1  0  0  0  0
 14 23  1  0  0  0  0
 15 23  1  0  0  0  0
 16  2  2  0  0  0  0
 17 26  1  6  0  0  0
 17  3  1  0  0  0  0
 17 20  1  0  0  0  0
 18 25  1  0  0  0  0
 19  2  1  6  0  0  0
 19 26  1  0  0  0  0
 19  1  1  0  0  0  0
 20 22  1  0  0  0  0
 22  9  1  0  0  0  0
 25 26  2  0  0  0  0
 27 24  1  0  0  0  0
 27  7  1  0  0  0  0
 28 11  2  0  0  0  0
 29 30  1  0  0  0  0
 30 28  1  0  0  0  0
M  END
>  <MODEL>
7

>  <REMARK>
 VINA RESULT:      -7.3      1.620      6.541
  Name = 
  1 active torsions:
  status: ('A' for Active; 'I' for Inactive)
    1  A    between atoms: C_28  and  C_30
                            x       y       z     vdW  Elec       q    Type
                         _______ _______ _______ _____ _____    ______ ____

>  <TORSDO>
F 1

$$$$
=
 OpenBabel11122410293D

 30 35  0  0  1  0  0  0  0  0999 V2000
  186.0440  178.2360  141.9640 C   0  0  1  0  0  3  0  0  0  0  0  0
  183.8090  179.3390  142.4230 C   0  0  0  0  0  0  0  0  0  0  0  0
  186.4800  177.5260  146.1680 N   0  0  0  0  0  2  0  0  0  0  0  0
  187.2540  177.4650  142.5600 C   0  0  1  0  0  3  0  0  0  0  0  0
  185.8100  177.7650  140.5360 C   0  0  0  0  0  2  0  0  0  0  0  0
  189.3920  178.1770  139.6460 O   0  0  0  0  0  0  0  0  0  0  0  0
  190.2650  178.4910  143.3350 C   0  0  1  0  0  3  0  0  0  0  0  0
  188.3550  177.9920  140.3430 C   0  0  0  0  0  0  0  0  0  0  0  0
  189.7440  178.2610  144.7600 C   0  0  2  0  0  3  0  0  0  0  0  0
  187.8900  177.3830  146.2140 C   0  0  0  0  0  0  0  0  0  0  0  0
  187.0230  178.0470  139.7040 C   0  0  0  0  0  0  0  0  0  0  0  0
  188.4710  177.7420  141.7610 N   0  0  0  0  0  0  0  0  0  0  0  0
  182.9760  179.8940  143.3990 O   0  0  0  0  0  0  0  0  0  0  0  0
  190.9230  177.7130  145.5370 C   0  0  0  0  0  2  0  0  0  0  0  0
  191.7830  178.5130  143.4280 C   0  0  0  0  0  2  0  0  0  0  0  0
  183.7760  179.7990  141.2510 O   0  0  0  0  0  0  0  0  0  0  0  0
  186.1520  177.4040  144.7620 C   0  0  2  0  0  3  0  0  0  0  0  0
  182.7650  179.2390  144.6470 C   0  0  0  0  0  2  0  0  0  0  0  0
  184.7190  178.1820  142.7800 C   0  0  2  0  0  3  0  0  0  0  0  0
  187.3770  177.8900  144.0220 C   0  0  1  0  0  3  0  0  0  0  0  0
  188.5190  177.2650  147.2990 O   0  0  0  0  0  0  0  0  0  0  0  0
  188.5240  177.3430  144.8600 C   0  0  1  0  0  3  0  0  0  0  0  0
  192.1360  178.3410  144.8920 C   0  0  0  0  0  2  0  0  0  0  0  0
  190.0430  176.0090  142.6120 C   0  0  0  0  0  1  0  0  0  0  0  0
  184.0420  178.6320  145.1480 C   0  0  0  0  0  3  0  0  0  0  0  0
  184.9530  178.1550  144.2850 C   0  0  0  0  0  0  0  0  0  0  0  0
  189.8220  177.4790  142.2670 C   0  0  2  0  0  3  0  0  0  0  0  0
  186.9160  178.2930  138.3950 C   0  0  0  0  0  3  0  0  0  0  0  0
  185.6250  177.3470  136.5340 C   0  0  0  0  0  1  0  0  0  0  0  0
  185.6080  178.3390  137.6780 C   0  0  0  0  0  2  0  0  0  0  0  0
  1  5  1  6  0  0  0
  1  4  1  0  0  0  0
  1 19  1  0  0  0  0
  2 13  1  0  0  0  0
  3 10  1  0  0  0  0
  4 12  1  6  0  0  0
  4 20  1  0  0  0  0
  6  8  2  0  0  0  0
  7 15  1  1  0  0  0
  7  9  1  0  0  0  0
  8 12  1  0  0  0  0
  9 22  1  0  0  0  0
  9 14  1  1  0  0  0
 10 21  2  0  0  0  0
 11  8  1  0  0  0  0
 11  5  1  0  0  0  0
 12 27  1  0  0  0  0
 13 18  1  0  0  0  0
 15 23  1  0  0  0  0
 16  2  2  0  0  0  0
 17 26  1  1  0  0  0
 17  3  1  0  0  0  0
 18 25  1  0  0  0  0
 19  2  1  1  0  0  0
 19 26  1  0  0  0  0
 20 17  1  0  0  0  0
 20 22  1  0  0  0  0
 22 10  1  0  0  0  0
 23 14  1  0  0  0  0
 26 25  2  0  0  0  0
 27 24  1  0  0  0  0
 27  7  1  0  0  0  0
 28 11  2  0  0  0  0
 29 30  1  0  0  0  0
 30 28  1  0  0  0  0
M  END
>  <MODEL>
8

>  <REMARK>
 VINA RESULT:      -7.2      2.548      6.158
  Name = 
  1 active torsions:
  status: ('A' for Active; 'I' for Inactive)
    1  A    between atoms: C_28  and  C_30
                            x       y       z     vdW  Elec       q    Type
                         _______ _______ _______ _____ _____    ______ ____

>  <TORSDO>
F 1

$$$$
=
 OpenBabel11122410293D

 30 35  0  0  1  0  0  0  0  0999 V2000
  186.5540  178.2620  140.8210 C   0  0  1  0  0  3  0  0  0  0  0  0
  184.2820  179.3780  140.6920 C   0  0  0  0  0  0  0  0  0  0  0  0
  185.8820  177.5300  144.9900 N   0  0  0  0  0  2  0  0  0  0  0  0
  187.5640  177.4800  141.7050 C   0  0  1  0  0  3  0  0  0  0  0  0
  186.6950  177.7980  139.3780 C   0  0  0  0  0  2  0  0  0  0  0  0
  190.3870  178.1910  139.4480 O   0  0  0  0  0  0  0  0  0  0  0  0
  190.2770  178.4830  143.2390 C   0  0  1  0  0  3  0  0  0  0  0  0
  189.2040  178.0100  139.8520 C   0  0  0  0  0  0  0  0  0  0  0  0
  189.4040  178.2500  144.4800 C   0  0  2  0  0  3  0  0  0  0  0  0
  187.2320  177.3780  145.3990 C   0  0  0  0  0  0  0  0  0  0  0  0
  188.0830  178.0770  138.8890 C   0  0  0  0  0  0  0  0  0  0  0  0
  188.9480  177.7520  141.2500 N   0  0  0  0  0  0  0  0  0  0  0  0
  183.2280  179.9340  141.4230 O   0  0  0  0  0  0  0  0  0  0  0  0
  190.3380  177.6910  145.5320 C   0  0  0  0  0  2  0  0  0  0  0  0
  191.7190  178.4950  143.7210 C   0  0  0  0  0  2  0  0  0  0  0  0
  184.5550  179.8430  139.5540 O   0  0  0  0  0  0  0  0  0  0  0  0
  185.9290  177.4170  143.5460 C   0  0  2  0  0  3  0  0  0  0  0  0
  182.6970  179.2750  142.5690 C   0  0  0  0  0  2  0  0  0  0  0  0
  185.0630  178.2130  141.2660 C   0  0  2  0  0  3  0  0  0  0  0  0
  187.3070  177.8980  143.1520 C   0  0  1  0  0  3  0  0  0  0  0  0
  187.5580  177.2510  146.6080 O   0  0  0  0  0  0  0  0  0  0  0  0
  188.1950  177.3400  144.2550 C   0  0  1  0  0  3  0  0  0  0  0  0
  191.6810  178.3140  145.2270 C   0  0  0  0  0  2  0  0  0  0  0  0
  190.2360  176.0050  142.4680 C   0  0  0  0  0  1  0  0  0  0  0  0
  183.7980  178.6580  143.3800 C   0  0  0  0  0  3  0  0  0  0  0  0
  184.8990  178.1780  142.7800 C   0  0  0  0  0  0  0  0  0  0  0  0
  190.1200  177.4780  142.0870 C   0  0  2  0  0  3  0  0  0  0  0  0
  188.3200  178.3280  137.5990 C   0  0  0  0  0  3  0  0  0  0  0  0
  187.5670  177.4230  135.4460 C   0  0  0  0  0  1  0  0  0  0  0  0
  187.2430  178.3860  136.5680 C   0  0  0  0  0  2  0  0  0  0  0  0
  1  5  1  6  0  0  0
  1 19  1  0  0  0  0
  1  4  1  0  0  0  0
  2 13  1  0  0  0  0
  3 10  1  0  0  0  0
  4 12  1  6  0  0  0
  4 20  1  0  0  0  0
  6  8  2  0  0  0  0
  7 15  1  1  0  0  0
  7  9  1  0  0  0  0
  8 12  1  0  0  0  0
  9 14  1  1  0  0  0
 10 21  2  0  0  0  0
 11  5  1  0  0  0  0
 11  8  1  0  0  0  0
 12 27  1  0  0  0  0
 13 18  1  0  0  0  0
 15 23  1  0  0  0  0
 16  2  2  0  0  0  0
 17 26  1  6  0  0  0
 17  3  1  0  0  0  0
 18 25  1  0  0  0  0
 19  2  1  1  0  0  0
 19 26  1  0  0  0  0
 20 17  1  0  0  0  0
 20 22  1  0  0  0  0
 22  9  1  0  0  0  0
 22 10  1  0  0  0  0
 23 14  1  0  0  0  0
 26 25  2  0  0  0  0
 27 24  1  0  0  0  0
 27  7  1  0  0  0  0
 28 11  2  0  0  0  0
 29 30  1  0  0  0  0
 30 28  1  0  0  0  0
M  END
>  <MODEL>
9

>  <REMARK>
 VINA RESULT:      -7.1      2.390      6.042
  Name = 
  1 active torsions:
  status: ('A' for Active; 'I' for Inactive)
    1  A    between atoms: C_28  and  C_30
                            x       y       z     vdW  Elec       q    Type
                         _______ _______ _______ _____ _____    ______ ____

>  <TORSDO>
F 1

$$$$
