=
 OpenBabel11122410293D

 30 35  0  0  1  0  0  0  0  0999 V2000
  189.0950  177.3890  143.4670 C   0  0  0  0  0  0  0  0  0  0  0  0
  191.2180  176.5170  144.5220 C   0  0  0  0  0  0  0  0  0  0  0  0
  187.3000  177.8010  147.2400 N   0  0  0  0  0  2  0  0  0  0  0  0
  187.7580  177.8840  143.6200 C   0  0  0  0  0  0  0  0  0  0  0  0
  189.6190  177.2840  142.2180 N   0  0  0  0  0  0  0  0  0  0  0  0
  186.9830  178.5280  140.0320 O   0  0  0  0  0  1  0  0  0  0  0  0
  184.6730  178.0770  143.2060 C   0  0  1  0  0  3  0  0  0  0  0  0
  187.6610  178.1520  141.1890 C   0  0  0  0  0  0  0  0  0  0  0  0
  184.7360  178.3550  144.6550 C   0  0  0  0  0  0  0  0  0  0  0  0
  185.9710  178.2910  146.8810 C   0  0  1  0  0  3  0  0  0  0  0  0
  188.9530  177.6390  141.0970 C   0  0  0  0  0  0  0  0  0  0  0  0
  187.0530  178.2910  142.4470 C   0  0  0  0  0  0  0  0  0  0  0  0
  191.9190  176.1920  145.6880 C   0  0  0  0  0  3  0  0  0  0  0  0
  183.5710  178.7760  145.1240 C   0  0  0  0  0  3  0  0  0  0  0  0
  183.2620  178.4530  142.8950 C   0  0  0  0  0  3  0  0  0  0  0  0
  192.1080  176.2550  143.0240 Cl  0  0  0  0  0  0  0  0  0  0  0  0
  188.0090  177.6230  146.0220 C   0  0  0  0  0  0  0  0  0  0  0  0
  191.3380  176.3450  146.9420 C   0  0  0  0  0  3  0  0  0  0  0  0
  189.8820  177.0160  144.6060 C   0  0  0  0  0  0  0  0  0  0  0  0
  187.2420  177.9480  144.9420 C   0  0  0  0  0  0  0  0  0  0  0  0
  185.7820  179.6900  147.4400 C   0  0  0  0  0  1  0  0  0  0  0  0
  185.9470  178.3300  145.4140 N   0  0  0  0  0  0  0  0  0  0  0  0
  182.6390  178.8270  144.0060 C   0  0  0  0  0  3  0  0  0  0  0  0
  185.7450  180.3970  142.8430 C   0  0  0  0  0  1  0  0  0  0  0  0
  190.0380  176.8230  147.0490 C   0  0  0  0  0  3  0  0  0  0  0  0
  189.3110  177.1570  145.9010 C   0  0  0  0  0  0  0  0  0  0  0  0
  185.6890  178.9220  142.4490 C   0  0  2  0  0  3  0  0  0  0  0  0
  189.6140  177.4620  139.7710 C   0  0  0  0  0  2  0  0  0  0  0  0
  191.6610  176.5520  138.7250 C   0  0  0  0  0  1  0  0  0  0  0  0
  191.0980  177.2190  139.9610 C   0  0  0  0  0  2  0  0  0  0  0  0
  1  4  1  0  0  0  0
  1 19  1  0  0  0  0
  2 19  2  0  0  0  0
  2 13  1  0  0  0  0
  4 20  1  0  0  0  0
  5  1  2  0  0  0  0
  6  8  1  0  0  0  0
  7 15  1  6  0  0  0
  7  9  1  0  0  0  0
  8 12  1  0  0  0  0
  9 14  2  0  0  0  0
  9 22  1  0  0  0  0
 10  3  1  0  0  0  0
 10 21  1  1  0  0  0
 11  8  2  0  0  0  0
 11  5  1  0  0  0  0
 12 27  1  0  0  0  0
 12  4  2  0  0  0  0
 13 18  2  0  0  0  0
 15 23  2  0  0  0  0
 16  2  1  0  0  0  0
 17  3  1  0  0  0  0
 18 25  1  0  0  0  0
 19 26  1  0  0  0  0
 20 22  1  0  0  0  0
 20 17  2  0  0  0  0
 22 10  1  0  0  0  0
 23 14  1  0  0  0  0
 26 17  1  0  0  0  0
 26 25  2  0  0  0  0
 27 24  1  1  0  0  0
 27  7  1  0  0  0  0
 28 30  1  0  0  0  0
 28 11  1  0  0  0  0
 29 30  1  0  0  0  0
M  END
>  <MODEL>
1

>  <REMARK>
 VINA RESULT:      -9.7      0.000      0.000
  Name = 
  2 active torsions:
  status: ('A' for Active; 'I' for Inactive)
    1  A    between atoms: C_11  and  C_28
    2  A    between atoms: C_28  and  C_30
                            x       y       z     vdW  Elec       q    Type
                         _______ _______ _______ _____ _____    ______ ____

>  <TORSDO>
F 2

$$$$
=
 OpenBabel11122410293D

 30 35  0  0  1  0  0  0  0  0999 V2000
  185.9140  178.3670  141.8140 C   0  0  0  0  0  0  0  0  0  0  0  0
  183.4380  178.8560  141.9120 C   0  0  0  0  0  0  0  0  0  0  0  0
  186.1220  178.1880  146.0030 N   0  0  0  0  0  2  0  0  0  0  0  0
  187.1440  178.0970  142.5010 C   0  0  0  0  0  0  0  0  0  0  0  0
  185.9140  178.4060  140.4560 N   0  0  0  0  0  0  0  0  0  0  0  0
  189.3590  177.6550  139.5360 O   0  0  0  0  0  1  0  0  0  0  0  0
  190.1310  178.4240  143.3350 C   0  0  1  0  0  3  0  0  0  0  0  0
  188.2300  177.8930  140.3170 C   0  0  0  0  0  0  0  0  0  0  0  0
  189.5480  178.1130  144.6560 C   0  0  0  0  0  0  0  0  0  0  0  0
  187.5440  177.9310  146.2160 C   0  0  1  0  0  3  0  0  0  0  0  0
  187.0150  178.1880  139.7030 C   0  0  0  0  0  0  0  0  0  0  0  0
  188.3090  177.8340  141.7180 C   0  0  0  0  0  0  0  0  0  0  0  0
  182.2940  179.0390  142.6940 C   0  0  0  0  0  3  0  0  0  0  0  0
  190.4860  177.8820  145.5620 C   0  0  0  0  0  3  0  0  0  0  0  0
  191.5910  178.2920  143.6190 C   0  0  0  0  0  3  0  0  0  0  0  0
  183.1800  178.9950  140.1750 Cl  0  0  0  0  0  0  0  0  0  0  0  0
  185.9310  178.2690  144.5980 C   0  0  0  0  0  0  0  0  0  0  0  0
  182.3510  178.9620  144.0820 C   0  0  0  0  0  3  0  0  0  0  0  0
  184.6950  178.5830  142.5350 C   0  0  0  0  0  0  0  0  0  0  0  0
  187.1020  178.0950  143.9210 C   0  0  0  0  0  0  0  0  0  0  0  0
  187.7180  176.5730  146.8720 C   0  0  0  0  0  1  0  0  0  0  0  0
  188.1490  177.9240  144.8790 N   0  0  0  0  0  0  0  0  0  0  0  0
  191.7780  178.0070  144.9020 C   0  0  0  0  0  3  0  0  0  0  0  0
  189.6730  175.9660  142.6950 C   0  0  0  0  0  1  0  0  0  0  0  0
  183.5620  178.7030  144.7110 C   0  0  0  0  0  3  0  0  0  0  0  0
  184.7240  178.5160  143.9560 C   0  0  0  0  0  0  0  0  0  0  0  0
  189.6430  177.4370  142.2840 C   0  0  2  0  0  3  0  0  0  0  0  0
  186.9100  178.2770  138.2170 C   0  0  0  0  0  2  0  0  0  0  0  0
  185.6480  176.6180  136.8870 C   0  0  0  0  0  1  0  0  0  0  0  0
  185.5290  177.8410  137.7690 C   0  0  0  0  0  2  0  0  0  0  0  0
  1  4  1  0  0  0  0
  1 19  1  0  0  0  0
  2 19  2  0  0  0  0
  2 13  1  0  0  0  0
  3 10  1  0  0  0  0
  4 20  1  0  0  0  0
  5  1  2  0  0  0  0
  6  8  1  0  0  0  0
  7 15  1  1  0  0  0
  7  9  1  0  0  0  0
  8 12  1  0  0  0  0
  9 22  1  0  0  0  0
  9 14  2  0  0  0  0
 10 21  1  6  0  0  0
 11  8  2  0  0  0  0
 11  5  1  0  0  0  0
 12 27  1  0  0  0  0
 12  4  2  0  0  0  0
 13 18  2  0  0  0  0
 15 23  2  0  0  0  0
 16  2  1  0  0  0  0
 17  3  1  0  0  0  0
 18 25  1  0  0  0  0
 19 26  1  0  0  0  0
 20 17  2  0  0  0  0
 20 22  1  0  0  0  0
 22 10  1  0  0  0  0
 23 14  1  0  0  0  0
 26 17  1  0  0  0  0
 26 25  2  0  0  0  0
 27 24  1  1  0  0  0
 27  7  1  0  0  0  0
 28 11  1  0  0  0  0
 29 30  1  0  0  0  0
 30 28  1  0  0  0  0
M  END
>  <MODEL>
2

>  <REMARK>
 VINA RESULT:      -9.4      2.626      5.667
  Name = 
  2 active torsions:
  status: ('A' for Active; 'I' for Inactive)
    1  A    between atoms: C_11  and  C_28
    2  A    between atoms: C_28  and  C_30
                            x       y       z     vdW  Elec       q    Type
                         _______ _______ _______ _____ _____    ______ ____

>  <TORSDO>
F 2

$$$$
=
 OpenBabel11122410293D

 30 35  0  0  1  0  0  0  0  0999 V2000
  185.7330  178.4260  142.4190 C   0  0  0  0  0  0  0  0  0  0  0  0
  186.6820  178.2830  144.7550 C   0  0  0  0  0  0  0  0  0  0  0  0
  181.8340  178.7430  143.9410 N   0  0  0  0  0  2  0  0  0  0  0  0
  184.5920  178.5530  141.5600 C   0  0  0  0  0  0  0  0  0  0  0  0
  186.9690  178.3320  141.8630 N   0  0  0  0  0  0  0  0  0  0  0  0
  186.3600  178.5690  138.2780 O   0  0  0  0  0  1  0  0  0  0  0  0
  182.6000  177.8550  139.2640 C   0  0  1  0  0  3  0  0  0  0  0  0
  186.1230  178.5190  139.6500 C   0  0  0  0  0  0  0  0  0  0  0  0
  181.6340  178.2960  140.2910 C   0  0  0  0  0  0  0  0  0  0  0  0
  181.0440  178.8120  142.7130 C   0  0  1  0  0  3  0  0  0  0  0  0
  187.1920  178.3680  140.5300 C   0  0  0  0  0  0  0  0  0  0  0  0
  184.8150  178.6230  140.1510 C   0  0  0  0  0  0  0  0  0  0  0  0
  186.4500  178.2900  146.1340 C   0  0  0  0  0  3  0  0  0  0  0  0
  180.4160  178.4330  139.7910 C   0  0  0  0  0  3  0  0  0  0  0  0
  181.7330  177.7980  138.0500 C   0  0  0  0  0  3  0  0  0  0  0  0
  188.3720  178.1110  144.2880 Cl  0  0  0  0  0  0  0  0  0  0  0  0
  183.1930  178.6320  143.5430 C   0  0  0  0  0  0  0  0  0  0  0  0
  185.1630  178.4140  146.6460 C   0  0  0  0  0  3  0  0  0  0  0  0
  185.5880  178.4070  143.8450 C   0  0  0  0  0  0  0  0  0  0  0  0
  183.3190  178.6180  142.1840 C   0  0  0  0  0  0  0  0  0  0  0  0
  180.3480  180.1590  142.6370 C   0  0  0  0  0  1  0  0  0  0  0  0
  182.0080  178.6830  141.6150 N   0  0  0  0  0  0  0  0  0  0  0  0
  180.4820  178.1070  138.3730 C   0  0  0  0  0  3  0  0  0  0  0  0
  183.3230  180.3250  139.0660 C   0  0  0  0  0  1  0  0  0  0  0  0
  184.0820  178.5300  145.7810 C   0  0  0  0  0  3  0  0  0  0  0  0
  184.2830  178.5270  144.3970 C   0  0  0  0  0  0  0  0  0  0  0  0
  183.7390  178.8570  139.1290 C   0  0  2  0  0  3  0  0  0  0  0  0
  188.5890  178.2340  140.0220 C   0  0  0  0  0  2  0  0  0  0  0  0
  190.7640  177.1030  140.3410 C   0  0  0  0  0  1  0  0  0  0  0  0
  189.3710  177.2790  140.9030 C   0  0  0  0  0  2  0  0  0  0  0  0
  1 19  1  0  0  0  0
  2 13  1  0  0  0  0
  4 20  1  0  0  0  0
  4  1  2  0  0  0  0
  5  1  1  0  0  0  0
  6  8  1  0  0  0  0
  7 15  1  6  0  0  0
  7  9  1  0  0  0  0
  8 12  2  0  0  0  0
  8 11  1  0  0  0  0
  9 22  1  0  0  0  0
 10 21  1  6  0  0  0
 10  3  1  0  0  0  0
 11  5  2  0  0  0  0
 12  4  1  0  0  0  0
 13 18  2  0  0  0  0
 14  9  2  0  0  0  0
 15 23  2  0  0  0  0
 16  2  1  0  0  0  0
 17  3  1  0  0  0  0
 17 26  1  0  0  0  0
 19 26  1  0  0  0  0
 19  2  2  0  0  0  0
 20 17  2  0  0  0  0
 22 20  1  0  0  0  0
 22 10  1  0  0  0  0
 23 14  1  0  0  0  0
 25 18  1  0  0  0  0
 26 25  2  0  0  0  0
 27 24  1  1  0  0  0
 27  7  1  0  0  0  0
 27 12  1  0  0  0  0
 28 11  1  0  0  0  0
 28 30  1  0  0  0  0
 29 30  1  0  0  0  0
M  END
>  <MODEL>
3

>  <REMARK>
 VINA RESULT:      -9.1      2.848      4.775
  Name = 
  2 active torsions:
  status: ('A' for Active; 'I' for Inactive)
    1  A    between atoms: C_11  and  C_28
    2  A    between atoms: C_28  and  C_30
                            x       y       z     vdW  Elec       q    Type
                         _______ _______ _______ _____ _____    ______ ____

>  <TORSDO>
F 2

$$$$
=
 OpenBabel11122410293D

 30 35  0  0  1  0  0  0  0  0999 V2000
  186.7740  178.2600  140.7620 C   0  0  0  0  0  0  0  0  0  0  0  0
  184.4020  178.8020  140.0860 C   0  0  0  0  0  0  0  0  0  0  0  0
  185.6900  178.2210  144.8180 N   0  0  0  0  0  2  0  0  0  0  0  0
  187.7270  177.9890  141.7990 C   0  0  0  0  0  0  0  0  0  0  0  0
  187.1890  178.2530  139.4690 N   0  0  0  0  0  0  0  0  0  0  0  0
  190.7270  177.4020  139.6650 O   0  0  0  0  0  1  0  0  0  0  0  0
  190.3270  178.2850  143.4960 C   0  0  1  0  0  3  0  0  0  0  0  0
  189.4210  177.6890  140.0570 C   0  0  0  0  0  0  0  0  0  0  0  0
  189.3600  178.0310  144.5840 C   0  0  0  0  0  0  0  0  0  0  0  0
  186.9720  177.9430  145.4620 C   0  0  1  0  0  3  0  0  0  0  0  0
  188.4610  177.9870  139.0940 C   0  0  0  0  0  0  0  0  0  0  0  0
  189.0670  177.6770  141.4160 C   0  0  0  0  0  0  0  0  0  0  0  0
  183.0790  179.0350  140.4760 C   0  0  0  0  0  3  0  0  0  0  0  0
  189.9700  177.8130  145.7390 C   0  0  0  0  0  3  0  0  0  0  0  0
  191.6260  178.1340  144.2160 C   0  0  0  0  0  3  0  0  0  0  0  0
  184.6890  178.8860  138.3500 Cl  0  0  0  0  0  0  0  0  0  0  0  0
  185.9390  178.2580  143.4190 C   0  0  0  0  0  0  0  0  0  0  0  0
  182.7090  179.0040  141.8160 C   0  0  0  0  0  3  0  0  0  0  0  0
  185.4000  178.5260  141.0700 C   0  0  0  0  0  0  0  0  0  0  0  0
  187.2550  178.0370  143.1370 C   0  0  0  0  0  0  0  0  0  0  0  0
  186.8970  176.6050  146.1750 C   0  0  0  0  0  1  0  0  0  0  0  0
  187.9550  177.8780  144.3740 N   0  0  0  0  0  0  0  0  0  0  0  0
  191.4050  177.8890  145.5020 C   0  0  0  0  0  3  0  0  0  0  0  0
  190.0130  175.8160  142.8120 C   0  0  0  0  0  1  0  0  0  0  0  0
  183.6630  178.7430  142.7920 C   0  0  0  0  0  3  0  0  0  0  0  0
  184.9930  178.5060  142.4330 C   0  0  0  0  0  0  0  0  0  0  0  0
  190.1540  177.2720  142.3730 C   0  0  2  0  0  3  0  0  0  0  0  0
  188.8160  178.0270  137.6450 C   0  0  0  0  0  2  0  0  0  0  0  0
  187.1950  178.2450  135.7910 C   0  0  0  0  0  1  0  0  0  0  0  0
  187.8940  178.9810  136.9120 C   0  0  0  0  0  2  0  0  0  0  0  0
  1 19  2  0  0  0  0
  1  4  1  0  0  0  0
  2 13  2  0  0  0  0
  2 19  1  0  0  0  0
  3 10  1  0  0  0  0
  4 20  2  0  0  0  0
  5  1  1  0  0  0  0
  6  8  1  0  0  0  0
  7 15  1  1  0  0  0
  7  9  1  0  0  0  0
  8 12  2  0  0  0  0
  9 14  2  0  0  0  0
 10 21  1  6  0  0  0
 11  5  2  0  0  0  0
 11  8  1  0  0  0  0
 12  4  1  0  0  0  0
 12 27  1  0  0  0  0
 13 18  1  0  0  0  0
 15 23  2  0  0  0  0
 16  2  1  0  0  0  0
 17  3  1  0  0  0  0
 18 25  2  0  0  0  0
 19 26  1  0  0  0  0
 20 17  1  0  0  0  0
 20 22  1  0  0  0  0
 22  9  1  0  0  0  0
 22 10  1  0  0  0  0
 23 14  1  0  0  0  0
 26 25  1  0  0  0  0
 26 17  2  0  0  0  0
 27 24  1  1  0  0  0
 27  7  1  0  0  0  0
 28 11  1  0  0  0  0
 29 30  1  0  0  0  0
 30 28  1  0  0  0  0
M  END
>  <MODEL>
4

>  <REMARK>
 VINA RESULT:      -9.1      2.605      5.717
  Name = 
  2 active torsions:
  status: ('A' for Active; 'I' for Inactive)
    1  A    between atoms: C_11  and  C_28
    2  A    between atoms: C_28  and  C_30
                            x       y       z     vdW  Elec       q    Type
                         _______ _______ _______ _____ _____    ______ ____

>  <TORSDO>
F 2

$$$$
=
 OpenBabel11122410293D

 30 35  0  0  1  0  0  0  0  0999 V2000
  187.7660  177.9030  142.6450 C   0  0  0  0  0  0  0  0  0  0  0  0
  186.7510  178.1380  144.9460 C   0  0  0  0  0  0  0  0  0  0  0  0
  184.1010  178.8800  140.8460 N   0  0  0  0  0  2  0  0  0  0  0  0
  187.6130  177.9640  141.2210 C   0  0  0  0  0  0  0  0  0  0  0  0
  188.9810  177.5850  143.1640 N   0  0  0  0  0  0  0  0  0  0  0  0
  191.1210  177.1630  140.2450 O   0  0  0  0  0  1  0  0  0  0  0  0
  187.7120  177.0140  138.2510 C   0  0  1  0  0  3  0  0  0  0  0  0
  189.9890  177.4080  141.0200 C   0  0  0  0  0  0  0  0  0  0  0  0
  186.4240  177.7390  138.2270 C   0  0  0  0  0  0  0  0  0  0  0  0
  184.4340  178.7780  139.4270 C   0  0  1  0  0  3  0  0  0  0  0  0
  190.0730  177.3350  142.4080 C   0  0  0  0  0  0  0  0  0  0  0  0
  188.7660  177.7310  140.4100 C   0  0  0  0  0  0  0  0  0  0  0  0
  185.6290  178.4390  145.7240 C   0  0  0  0  0  3  0  0  0  0  0  0
  185.9700  177.8870  136.9920 C   0  0  0  0  0  3  0  0  0  0  0  0
  187.9560  176.8000  136.7940 C   0  0  0  0  0  3  0  0  0  0  0  0
  188.1980  177.7190  145.8600 Cl  0  0  0  0  0  0  0  0  0  0  0  0
  185.2860  178.5650  141.5640 C   0  0  0  0  0  0  0  0  0  0  0  0
  184.4170  178.7820  145.1360 C   0  0  0  0  0  3  0  0  0  0  0  0
  186.6660  178.1810  143.5210 C   0  0  0  0  0  0  0  0  0  0  0  0
  186.3190  178.2700  140.7230 C   0  0  0  0  0  0  0  0  0  0  0  0
  184.2910  180.1420  138.7770 C   0  0  0  0  0  1  0  0  0  0  0  0
  185.8350  178.3430  139.3800 N   0  0  0  0  0  0  0  0  0  0  0  0
  186.9400  177.2820  136.0890 C   0  0  0  0  0  3  0  0  0  0  0  0
  188.8580  179.3170  138.4650 C   0  0  0  0  0  1  0  0  0  0  0  0
  184.3080  178.8260  143.7510 C   0  0  0  0  0  3  0  0  0  0  0  0
  185.4120  178.5290  142.9460 C   0  0  0  0  0  0  0  0  0  0  0  0
  188.7930  177.8580  138.9120 C   0  0  2  0  0  3  0  0  0  0  0  0
  191.3560  176.9730  143.0790 C   0  0  0  0  0  2  0  0  0  0  0  0
  191.5720  176.9200  145.5420 C   0  0  0  0  0  1  0  0  0  0  0  0
  191.5440  177.8170  144.3240 C   0  0  0  0  0  2  0  0  0  0  0  0
  1  5  1  0  0  0  0
  1 19  1  0  0  0  0
  2 13  1  0  0  0  0
  2 16  1  0  0  0  0
  3 17  1  0  0  0  0
  4  1  2  0  0  0  0
  6  8  1  0  0  0  0
  7 15  1  6  0  0  0
  7 27  1  0  0  0  0
  8 11  1  0  0  0  0
  9  7  1  0  0  0  0
  9 22  1  0  0  0  0
 10 21  1  1  0  0  0
 10  3  1  0  0  0  0
 11 28  1  0  0  0  0
 11  5  2  0  0  0  0
 12  8  2  0  0  0  0
 12  4  1  0  0  0  0
 14  9  2  0  0  0  0
 17 26  1  0  0  0  0
 18 13  2  0  0  0  0
 19  2  2  0  0  0  0
 20  4  1  0  0  0  0
 20 17  2  0  0  0  0
 22 10  1  0  0  0  0
 22 20  1  0  0  0  0
 23 15  2  0  0  0  0
 23 14  1  0  0  0  0
 25 18  1  0  0  0  0
 26 19  1  0  0  0  0
 26 25  2  0  0  0  0
 27 24  1  1  0  0  0
 27 12  1  0  0  0  0
 28 30  1  0  0  0  0
 30 29  1  0  0  0  0
M  END
>  <MODEL>
5

>  <REMARK>
 VINA RESULT:      -8.8      2.685      5.728
  Name = 
  2 active torsions:
  status: ('A' for Active; 'I' for Inactive)
    1  A    between atoms: C_11  and  C_28
    2  A    between atoms: C_28  and  C_30
                            x       y       z     vdW  Elec       q    Type
                         _______ _______ _______ _____ _____    ______ ____

>  <TORSDO>
F 2

$$$$
=
 OpenBabel11122410293D

 30 35  0  0  1  0  0  0  0  0999 V2000
  185.2740  178.5080  142.1320 C   0  0  0  0  0  0  0  0  0  0  0  0
  185.3040  178.5400  139.6070 C   0  0  0  0  0  0  0  0  0  0  0  0
  189.4210  177.8640  142.2470 N   0  0  0  0  0  2  0  0  0  0  0  0
  185.9880  178.3820  143.3700 C   0  0  0  0  0  0  0  0  0  0  0  0
  183.9330  178.7200  142.1650 N   0  0  0  0  0  0  0  0  0  0  0  0
  183.1360  178.8880  145.7160 O   0  0  0  0  0  1  0  0  0  0  0  0
  186.7170  177.2870  146.1980 C   0  0  1  0  0  3  0  0  0  0  0  0
  183.8700  178.7520  144.5400 C   0  0  0  0  0  0  0  0  0  0  0  0
  188.0790  177.4650  145.6530 C   0  0  0  0  0  0  0  0  0  0  0  0
  189.6640  177.7730  143.6860 C   0  0  1  0  0  3  0  0  0  0  0  0
  183.2230  178.8380  143.3090 C   0  0  0  0  0  0  0  0  0  0  0  0
  185.2560  178.5340  144.5870 C   0  0  0  0  0  0  0  0  0  0  0  0
  186.0490  178.4600  138.4260 C   0  0  0  0  0  3  0  0  0  0  0  0
  189.0030  177.3220  146.5910 C   0  0  0  0  0  3  0  0  0  0  0  0
  187.0060  177.0550  147.6440 C   0  0  0  0  0  3  0  0  0  0  0  0
  183.5740  178.7810  139.3770 Cl  0  0  0  0  0  0  0  0  0  0  0  0
  188.0270  178.0850  142.0860 C   0  0  0  0  0  0  0  0  0  0  0  0
  187.4250  178.2660  138.4570 C   0  0  0  0  0  3  0  0  0  0  0  0
  185.9540  178.4230  140.8730 C   0  0  0  0  0  0  0  0  0  0  0  0
  187.3830  178.1310  143.2870 C   0  0  0  0  0  0  0  0  0  0  0  0
  190.5600  178.9190  144.1180 C   0  0  0  0  0  1  0  0  0  0  0  0
  188.3470  177.8990  144.3180 N   0  0  0  0  0  0  0  0  0  0  0  0
  188.3180  177.0530  147.8480 C   0  0  0  0  0  3  0  0  0  0  0  0
  186.5510  179.8610  146.2800 C   0  0  0  0  0  1  0  0  0  0  0  0
  188.0800  178.1440  139.6770 C   0  0  0  0  0  3  0  0  0  0  0  0
  187.3620  178.2200  140.8740 C   0  0  0  0  0  0  0  0  0  0  0  0
  185.8730  178.5310  145.9570 C   0  0  2  0  0  3  0  0  0  0  0  0
  181.7480  179.0480  143.2320 C   0  0  0  0  0  2  0  0  0  0  0  0
  180.3820  179.7330  141.2880 C   0  0  0  0  0  1  0  0  0  0  0  0
  181.2360  178.6270  141.8690 C   0  0  0  0  0  2  0  0  0  0  0  0
  1  5  2  0  0  0  0
  1  4  1  0  0  0  0
  2 19  1  0  0  0  0
  3 10  1  0  0  0  0
  4 12  2  0  0  0  0
  5 11  1  0  0  0  0
  7 15  1  1  0  0  0
  8 12  1  0  0  0  0
  8  6  1  0  0  0  0
  9  7  1  0  0  0  0
  9 14  2  0  0  0  0
 10 21  1  1  0  0  0
 10 22  1  0  0  0  0
 11  8  2  0  0  0  0
 12 27  1  0  0  0  0
 13 18  1  0  0  0  0
 13  2  2  0  0  0  0
 14 23  1  0  0  0  0
 15 23  2  0  0  0  0
 16  2  1  0  0  0  0
 17  3  1  0  0  0  0
 17 20  2  0  0  0  0
 18 25  2  0  0  0  0
 19 26  2  0  0  0  0
 19  1  1  0  0  0  0
 20  4  1  0  0  0  0
 20 22  1  0  0  0  0
 22  9  1  0  0  0  0
 25 26  1  0  0  0  0
 26 17  1  0  0  0  0
 27  7  1  0  0  0  0
 27 24  1  6  0  0  0
 28 11  1  0  0  0  0
 29 30  1  0  0  0  0
 30 28  1  0  0  0  0
M  END
>  <MODEL>
6

>  <REMARK>
 VINA RESULT:      -8.3      2.785      6.448
  Name = 
  2 active torsions:
  status: ('A' for Active; 'I' for Inactive)
    1  A    between atoms: C_11  and  C_28
    2  A    between atoms: C_28  and  C_30
                            x       y       z     vdW  Elec       q    Type
                         _______ _______ _______ _____ _____    ______ ____

>  <TORSDO>
F 2

$$$$
=
 OpenBabel11122410293D

 30 35  0  0  1  0  0  0  0  0999 V2000
  186.9830  178.1510  142.1930 C   0  0  0  0  0  0  0  0  0  0  0  0
  189.4620  177.8070  142.5280 C   0  0  0  0  0  0  0  0  0  0  0  0
  187.4490  177.9950  138.0240 N   0  0  0  0  0  2  0  0  0  0  0  0
  185.8690  178.2860  141.3010 C   0  0  0  0  0  0  0  0  0  0  0  0
  186.7630  178.2060  143.5330 N   0  0  0  0  0  0  0  0  0  0  0  0
  183.1570  178.6280  143.8350 O   0  0  0  0  0  1  0  0  0  0  0  0
  183.3360  179.5570  139.9980 C   0  0  1  0  0  3  0  0  0  0  0  0
  184.4180  178.4760  143.2630 C   0  0  0  0  0  0  0  0  0  0  0  0
  184.0040  179.0560  138.7790 C   0  0  0  0  0  0  0  0  0  0  0  0
  186.0780  178.2120  137.5670 C   0  0  1  0  0  3  0  0  0  0  0  0
  185.5390  178.3670  144.0820 C   0  0  0  0  0  0  0  0  0  0  0  0
  184.5660  178.4270  141.8670 C   0  0  0  0  0  0  0  0  0  0  0  0
  190.7210  177.5980  141.9560 C   0  0  0  0  0  3  0  0  0  0  0  0
  183.2120  179.1310  137.7210 C   0  0  0  0  0  3  0  0  0  0  0  0
  181.9830  179.9030  139.4700 C   0  0  0  0  0  3  0  0  0  0  0  0
  189.4510  177.8770  144.2890 Cl  0  0  0  0  0  0  0  0  0  0  0  0
  187.4120  178.0280  139.4440 C   0  0  0  0  0  0  0  0  0  0  0  0
  190.8800  177.5260  140.5770 C   0  0  0  0  0  3  0  0  0  0  0  0
  188.3120  177.9500  141.6940 C   0  0  0  0  0  0  0  0  0  0  0  0
  186.1500  178.2530  139.9090 C   0  0  0  0  0  0  0  0  0  0  0  0
  185.5900  176.9760  136.8330 C   0  0  0  0  0  1  0  0  0  0  0  0
  185.2830  178.4190  138.7830 N   0  0  0  0  0  0  0  0  0  0  0  0
  181.9360  179.6770  138.1630 C   0  0  0  0  0  3  0  0  0  0  0  0
  182.8600  177.0920  140.5970 C   0  0  0  0  0  1  0  0  0  0  0  0
  189.7760  177.6670  139.7440 C   0  0  0  0  0  3  0  0  0  0  0  0
  188.5050  177.8770  140.2870 C   0  0  0  0  0  0  0  0  0  0  0  0
  183.2920  178.4780  141.0710 C   0  0  2  0  0  3  0  0  0  0  0  0
  185.4110  178.4360  145.5680 C   0  0  0  0  0  2  0  0  0  0  0  0
  187.1220  178.2530  147.3440 C   0  0  0  0  0  1  0  0  0  0  0  0
  186.4280  177.5180  146.2180 C   0  0  0  0  0  2  0  0  0  0  0  0
  1  5  1  0  0  0  0
  2 16  1  0  0  0  0
  3 17  1  0  0  0  0
  4 12  1  0  0  0  0
  4  1  2  0  0  0  0
  5 11  2  0  0  0  0
  7 15  1  6  0  0  0
  7 27  1  0  0  0  0
  8  6  1  0  0  0  0
  8 11  1  0  0  0  0
  9 22  1  0  0  0  0
  9  7  1  0  0  0  0
 10 21  1  1  0  0  0
 10  3  1  0  0  0  0
 10 22  1  0  0  0  0
 11 28  1  0  0  0  0
 12  8  2  0  0  0  0
 13  2  1  0  0  0  0
 14 23  1  0  0  0  0
 14  9  2  0  0  0  0
 17 20  2  0  0  0  0
 17 26  1  0  0  0  0
 18 13  2  0  0  0  0
 19  1  1  0  0  0  0
 19  2  2  0  0  0  0
 20  4  1  0  0  0  0
 22 20  1  0  0  0  0
 23 15  2  0  0  0  0
 25 26  2  0  0  0  0
 25 18  1  0  0  0  0
 26 19  1  0  0  0  0
 27 24  1  6  0  0  0
 27 12  1  0  0  0  0
 28 30  1  0  0  0  0
 30 29  1  0  0  0  0
M  END
>  <MODEL>
7

>  <REMARK>
 VINA RESULT:      -8.3      2.988      6.005
  Name = 
  2 active torsions:
  status: ('A' for Active; 'I' for Inactive)
    1  A    between atoms: C_11  and  C_28
    2  A    between atoms: C_28  and  C_30
                            x       y       z     vdW  Elec       q    Type
                         _______ _______ _______ _____ _____    ______ ____

>  <TORSDO>
F 2

$$$$
=
 OpenBabel11122410293D

 30 35  0  0  1  0  0  0  0  0999 V2000
  188.2260  177.9250  141.9440 C   0  0  0  0  0  0  0  0  0  0  0  0
  189.3640  177.7070  144.1880 C   0  0  0  0  0  0  0  0  0  0  0  0
  191.7030  176.6450  139.9710 N   0  0  0  0  0  2  0  0  0  0  0  0
  188.2850  177.8030  140.5160 C   0  0  0  0  0  0  0  0  0  0  0  0
  187.0680  178.3400  142.5210 N   0  0  0  0  0  0  0  0  0  0  0  0
  184.7820  178.7960  139.7200 O   0  0  0  0  0  1  0  0  0  0  0  0
  188.0630  178.6480  137.5230 C   0  0  1  0  0  3  0  0  0  0  0  0
  185.9420  178.5050  140.4350 C   0  0  0  0  0  0  0  0  0  0  0  0
  189.2980  177.8410  137.4500 C   0  0  0  0  0  0  0  0  0  0  0  0
  191.2900  176.7180  138.5710 C   0  0  1  0  0  3  0  0  0  0  0  0
  185.9490  178.6330  141.8220 C   0  0  0  0  0  0  0  0  0  0  0  0
  187.1020  178.0800  139.7670 C   0  0  0  0  0  0  0  0  0  0  0  0
  190.5110  177.3610  144.9100 C   0  0  0  0  0  3  0  0  0  0  0  0
  189.6650  177.6180  136.1980 C   0  0  0  0  0  3  0  0  0  0  0  0
  187.7430  178.8260  136.0750 C   0  0  0  0  0  3  0  0  0  0  0  0
  188.0060  178.2530  145.1690 Cl  0  0  0  0  0  0  0  0  0  0  0  0
  190.5870  177.0630  140.7440 C   0  0  0  0  0  0  0  0  0  0  0  0
  191.6600  176.9180  144.2640 C   0  0  0  0  0  3  0  0  0  0  0  0
  189.3580  177.6070  142.7630 C   0  0  0  0  0  0  0  0  0  0  0  0
  189.5250  177.3940  139.9560 C   0  0  0  0  0  0  0  0  0  0  0  0
  191.3060  175.3240  137.9690 C   0  0  0  0  0  1  0  0  0  0  0  0
  189.9190  177.2410  138.5900 N   0  0  0  0  0  0  0  0  0  0  0  0
  188.6820  178.2530  135.3310 C   0  0  0  0  0  3  0  0  0  0  0  0
  186.7890  176.4350  137.8970 C   0  0  0  0  0  1  0  0  0  0  0  0
  191.6810  176.8180  142.8790 C   0  0  0  0  0  3  0  0  0  0  0  0
  190.5490  177.1570  142.1290 C   0  0  0  0  0  0  0  0  0  0  0  0
  186.9740  177.9020  138.2800 C   0  0  2  0  0  3  0  0  0  0  0  0
  184.7360  179.1030  142.5530 C   0  0  0  0  0  2  0  0  0  0  0  0
  183.4930  179.0030  144.6890 C   0  0  0  0  0  1  0  0  0  0  0  0
  184.7810  178.6250  143.9910 C   0  0  0  0  0  2  0  0  0  0  0  0
  1  5  1  0  0  0  0
  1 19  1  0  0  0  0
  2 13  1  0  0  0  0
  2 16  1  0  0  0  0
  3 17  1  0  0  0  0
  4  1  2  0  0  0  0
  6  8  1  0  0  0  0
  7 15  1  6  0  0  0
  7 27  1  0  0  0  0
  8 11  1  0  0  0  0
  9  7  1  0  0  0  0
  9 22  1  0  0  0  0
 10 21  1  1  0  0  0
 10 22  1  0  0  0  0
 10  3  1  0  0  0  0
 11  5  2  0  0  0  0
 11 28  1  0  0  0  0
 12  8  2  0  0  0  0
 12  4  1  0  0  0  0
 14  9  2  0  0  0  0
 17 26  1  0  0  0  0
 18 13  2  0  0  0  0
 19  2  2  0  0  0  0
 20  4  1  0  0  0  0
 20 17  2  0  0  0  0
 22 20  1  0  0  0  0
 23 15  2  0  0  0  0
 23 14  1  0  0  0  0
 25 18  1  0  0  0  0
 26 19  1  0  0  0  0
 26 25  2  0  0  0  0
 27 24  1  1  0  0  0
 27 12  1  0  0  0  0
 28 30  1  0  0  0  0
 30 29  1  0  0  0  0
M  END
>  <MODEL>
8

>  <REMARK>
 VINA RESULT:      -8.1      2.391      6.446
  Name = 
  2 active torsions:
  status: ('A' for Active; 'I' for Inactive)
    1  A    between atoms: C_11  and  C_28
    2  A    between atoms: C_28  and  C_30
                            x       y       z     vdW  Elec       q    Type
                         _______ _______ _______ _____ _____    ______ ____

>  <TORSDO>
F 2

$$$$
=
 OpenBabel11122410293D

 30 35  0  0  1  0  0  0  0  0999 V2000
  186.6120  178.2370  141.9690 C   0  0  0  0  0  0  0  0  0  0  0  0
  185.2310  178.6010  139.8860 C   0  0  0  0  0  0  0  0  0  0  0  0
  189.9540  177.1770  139.6590 N   0  0  0  0  0  2  0  0  0  0  0  0
  187.8650  177.8780  142.5680 C   0  0  0  0  0  0  0  0  0  0  0  0
  185.5710  178.5740  142.7730 N   0  0  0  0  0  0  0  0  0  0  0  0
  186.9310  178.3450  146.1460 O   0  0  0  0  0  1  0  0  0  0  0  0
  189.8660  176.3500  144.4080 C   0  0  1  0  0  3  0  0  0  0  0  0
  186.8510  178.2960  144.7560 C   0  0  0  0  0  0  0  0  0  0  0  0
  190.6990  176.4630  143.1940 C   0  0  0  0  0  0  0  0  0  0  0  0
  190.9410  176.8720  140.6920 C   0  0  1  0  0  3  0  0  0  0  0  0
  185.6500  178.6080  144.1220 C   0  0  0  0  0  0  0  0  0  0  0  0
  187.9720  177.9380  143.9900 C   0  0  0  0  0  0  0  0  0  0  0  0
  185.1660  178.6060  138.4890 C   0  0  0  0  0  3  0  0  0  0  0  0
  191.9530  176.1070  143.4250 C   0  0  0  0  0  3  0  0  0  0  0  0
  190.8730  175.9000  145.4140 C   0  0  0  0  0  3  0  0  0  0  0  0
  183.7310  179.0400  140.7000 Cl  0  0  0  0  0  0  0  0  0  0  0  0
  188.7620  177.5540  140.3350 C   0  0  0  0  0  0  0  0  0  0  0  0
  186.2740  178.2750  137.7170 C   0  0  0  0  0  3  0  0  0  0  0  0
  186.4500  178.2530  140.5450 C   0  0  0  0  0  0  0  0  0  0  0  0
  188.9160  177.5040  141.6890 C   0  0  0  0  0  0  0  0  0  0  0  0
  192.0920  177.8570  140.5960 C   0  0  0  0  0  1  0  0  0  0  0  0
  190.2400  177.0420  141.9700 N   0  0  0  0  0  0  0  0  0  0  0  0
  192.0550  175.7420  144.8320 C   0  0  0  0  0  3  0  0  0  0  0  0
  190.1800  178.8940  144.7070 C   0  0  0  0  0  1  0  0  0  0  0  0
  187.4700  177.9280  138.3350 C   0  0  0  0  0  3  0  0  0  0  0  0
  187.5660  177.9140  139.7300 C   0  0  0  0  0  0  0  0  0  0  0  0
  189.2400  177.6920  144.7600 C   0  0  2  0  0  3  0  0  0  0  0  0
  184.4390  178.9710  144.9140 C   0  0  0  0  0  2  0  0  0  0  0  0
  182.1410  178.6270  144.0660 C   0  0  0  0  0  1  0  0  0  0  0  0
  183.3630  179.5160  143.9940 C   0  0  0  0  0  2  0  0  0  0  0  0
  1  4  1  0  0  0  0
  1  5  2  0  0  0  0
  2 19  1  0  0  0  0
  2 16  1  0  0  0  0
  3 17  1  0  0  0  0
  3 10  1  0  0  0  0
  4 12  2  0  0  0  0
  5 11  1  0  0  0  0
  7 27  1  0  0  0  0
  7 15  1  1  0  0  0
  8  6  1  0  0  0  0
  9 14  2  0  0  0  0
  9  7  1  0  0  0  0
 10 21  1  1  0  0  0
 10 22  1  0  0  0  0
 11  8  2  0  0  0  0
 11 28  1  0  0  0  0
 12  8  1  0  0  0  0
 12 27  1  0  0  0  0
 13  2  2  0  0  0  0
 14 23  1  0  0  0  0
 17 20  2  0  0  0  0
 18 25  2  0  0  0  0
 18 13  1  0  0  0  0
 19  1  1  0  0  0  0
 20 22  1  0  0  0  0
 20  4  1  0  0  0  0
 22  9  1  0  0  0  0
 23 15  2  0  0  0  0
 25 26  1  0  0  0  0
 26 17  1  0  0  0  0
 26 19  2  0  0  0  0
 27 24  1  6  0  0  0
 30 29  1  0  0  0  0
 30 28  1  0  0  0  0
M  END
>  <MODEL>
9

>  <REMARK>
 VINA RESULT:      -7.9      2.607      7.183
  Name = 
  2 active torsions:
  status: ('A' for Active; 'I' for Inactive)
    1  A    between atoms: C_11  and  C_28
    2  A    between atoms: C_28  and  C_30
                            x       y       z     vdW  Elec       q    Type
                         _______ _______ _______ _____ _____    ______ ____

>  <TORSDO>
F 2

$$$$
