=
 OpenBabel11122411073D

 31 35  0  0  1  0  0  0  0  0999 V2000
  184.3080  178.7060  144.7490 C   0  0  0  0  0  0  0  0  0  0  0  0
  187.8780  177.8410  143.9220 C   0  0  0  0  0  0  0  0  0  0  0  0
  188.5450  177.5690  145.1540 C   0  0  0  0  0  0  0  0  0  0  0  0
  187.1930  178.4030  138.7220 O   0  0  0  0  0  0  0  0  0  0  0  0
  188.3930  178.0970  138.9540 C   0  0  0  0  0  0  0  0  0  0  0  0
  188.5970  177.3610  147.5860 C   0  0  0  0  0  0  0  0  0  0  0  0
  186.5040  178.2090  143.8030 C   0  0  0  0  0  0  0  0  0  0  0  0
  183.7980  178.9410  143.4730 C   0  0  0  0  0  3  0  0  0  0  0  0
  187.9060  177.6350  146.4050 C   0  0  0  0  0  3  0  0  0  0  0  0
  188.0570  177.9890  141.4860 C   0  0  0  0  0  0  0  0  0  0  0  0
  183.5050  178.8290  145.8320 F   0  0  0  0  0  0  0  0  0  0  0  0
  190.5700  177.1360  143.9450 N   0  0  0  0  0  0  0  0  0  0  0  0
  187.9410  177.4340  148.8080 O   0  0  0  0  0  1  0  0  0  0  0  0
  186.7480  178.3360  141.4130 N   0  0  0  0  0  0  0  0  0  0  0  0
  188.6440  177.7360  142.7330 C   0  0  0  0  0  0  0  0  0  0  0  0
  188.8500  177.8770  140.2950 N   0  0  0  0  0  2  0  0  0  0  0  0
  185.6460  178.3440  144.9100 C   0  0  0  0  0  3  0  0  0  0  0  0
  189.9470  177.0120  147.5400 C   0  0  0  0  0  3  0  0  0  0  0  0
  185.9680  178.4520  142.5130 C   0  0  0  0  0  0  0  0  0  0  0  0
  184.6260  178.8150  142.3580 C   0  0  0  0  0  3  0  0  0  0  0  0
  189.9570  177.3880  142.7930 N   0  0  0  0  0  0  0  0  0  0  0  0
  189.9140  177.2130  145.1270 C   0  0  0  0  0  0  0  0  0  0  0  0
  190.6040  176.9390  146.3110 C   0  0  0  0  0  3  0  0  0  0  0  0
  189.6170  175.1870  136.9290 C   0  0  1  0  0  3  0  0  0  0  0  0
  188.6640  177.4300  136.5970 N   0  0  0  0  0  2  0  0  0  0  0  0
  191.1870  177.5760  139.3020 F   0  0  0  0  0  0  0  0  0  0  0  0
  189.2920  173.8500  137.0390 F   0  0  0  0  0  0  0  0  0  0  0  0
  188.3440  176.0070  136.7390 C   0  0  0  0  0  2  0  0  0  0  0  0
  190.6120  177.1400  138.1220 C   0  0  2  0  0  3  0  0  0  0  0  0
  189.3390  177.9410  137.7970 C   0  0  2  0  0  3  0  0  0  0  0  0
  190.3280  175.6430  138.1950 C   0  0  0  0  0  2  0  0  0  0  0  0
  1 17  1  0  0  0  0
  1 11  1  0  0  0  0
  2  3  1  0  0  0  0
  3  9  1  0  0  0  0
  4  5  2  0  0  0  0
  5 16  1  0  0  0  0
  6 13  1  0  0  0  0
  7  2  1  0  0  0  0
  7 17  2  0  0  0  0
  8  1  2  0  0  0  0
  9  6  2  0  0  0  0
 10 15  1  0  0  0  0
 12 22  1  0  0  0  0
 14 10  2  0  0  0  0
 14 19  1  0  0  0  0
 15 21  1  0  0  0  0
 15  2  2  0  0  0  0
 16 10  1  0  0  0  0
 18  6  1  0  0  0  0
 19  7  1  0  0  0  0
 20 19  2  0  0  0  0
 20  8  1  0  0  0  0
 21 12  2  0  0  0  0
 22  3  2  0  0  0  0
 22 23  1  0  0  0  0
 23 18  2  0  0  0  0
 24 27  1  1  0  0  0
 24 31  1  0  0  0  0
 25 28  1  0  0  0  0
 25 30  1  0  0  0  0
 28 24  1  0  0  0  0
 29 31  1  0  0  0  0
 29 26  1  1  0  0  0
 30 29  1  0  0  0  0
 30  5  1  1  0  0  0
M  END
>  <MODEL>
1

>  <REMARK>
 VINA RESULT:     -12.0      0.000      0.000
  Name = 
  1 active torsions:
  status: ('A' for Active; 'I' for Inactive)
    1  A    between atoms: C_5  and  C_30
                            x       y       z     vdW  Elec       q    Type
                         _______ _______ _______ _____ _____    ______ ____

>  <TORSDO>
F 1

$$$$
=
 OpenBabel11122411073D

 31 35  0  0  1  0  0  0  0  0999 V2000
  184.2850  178.7000  144.7350 C   0  0  0  0  0  0  0  0  0  0  0  0
  187.8740  177.8590  143.9650 C   0  0  0  0  0  0  0  0  0  0  0  0
  188.5220  177.5890  145.2070 C   0  0  0  0  0  0  0  0  0  0  0  0
  187.2710  178.4270  138.7550 O   0  0  0  0  0  0  0  0  0  0  0  0
  188.4690  178.1280  139.0070 C   0  0  0  0  0  0  0  0  0  0  0  0
  188.5360  177.3760  147.6400 C   0  0  0  0  0  0  0  0  0  0  0  0
  186.5000  178.2180  143.8240 C   0  0  0  0  0  0  0  0  0  0  0  0
  183.7950  178.9340  143.4510 C   0  0  0  0  0  3  0  0  0  0  0  0
  187.8630  177.6480  146.4470 C   0  0  0  0  0  3  0  0  0  0  0  0
  188.0930  178.0130  141.5330 C   0  0  0  0  0  0  0  0  0  0  0  0
  183.4640  178.8150  145.8050 F   0  0  0  0  0  0  0  0  0  0  0  0
  190.5700  177.1720  144.0310 N   0  0  0  0  0  0  0  0  0  0  0  0
  187.8600  177.4430  148.8500 O   0  0  0  0  0  1  0  0  0  0  0  0
  186.7830  178.3510  141.4380 N   0  0  0  0  0  0  0  0  0  0  0  0
  188.6600  177.7610  142.7880 C   0  0  0  0  0  0  0  0  0  0  0  0
  188.9050  177.9090  140.3540 N   0  0  0  0  0  2  0  0  0  0  0  0
  185.6230  178.3460  144.9170 C   0  0  0  0  0  3  0  0  0  0  0  0
  189.8890  177.0360  147.6150 C   0  0  0  0  0  3  0  0  0  0  0  0
  185.9840  178.4600  142.5260 C   0  0  0  0  0  0  0  0  0  0  0  0
  184.6420  178.8150  142.3500 C   0  0  0  0  0  3  0  0  0  0  0  0
  189.9740  177.4220  142.8690 N   0  0  0  0  0  0  0  0  0  0  0  0
  189.8940  177.2420  145.2020 C   0  0  0  0  0  0  0  0  0  0  0  0
  190.5670  176.9700  146.3970 C   0  0  0  0  0  3  0  0  0  0  0  0
  188.2790  176.6250  135.5760 C   0  0  1  0  0  3  0  0  0  0  0  0
  188.9910  178.7100  136.6690 N   0  0  0  0  0  2  0  0  0  0  0  0
  190.1470  175.8310  138.6880 F   0  0  0  0  0  0  0  0  0  0  0  0
  187.2130  176.0090  134.9520 F   0  0  0  0  0  0  0  0  0  0  0  0
  187.8680  178.0250  136.0220 C   0  0  0  0  0  2  0  0  0  0  0  0
  189.8160  176.5270  137.5390 C   0  0  2  0  0  3  0  0  0  0  0  0
  189.4350  177.9810  137.8650 C   0  0  2  0  0  3  0  0  0  0  0  0
  188.6970  175.8090  136.7910 C   0  0  0  0  0  2  0  0  0  0  0  0
  1 17  1  0  0  0  0
  1 11  1  0  0  0  0
  2  3  1  0  0  0  0
  3  9  1  0  0  0  0
  4  5  2  0  0  0  0
  5 16  1  0  0  0  0
  6 13  1  0  0  0  0
  7  2  1  0  0  0  0
  7 17  2  0  0  0  0
  8  1  2  0  0  0  0
  9  6  2  0  0  0  0
 10 15  1  0  0  0  0
 12 22  1  0  0  0  0
 14 10  2  0  0  0  0
 14 19  1  0  0  0  0
 15 21  1  0  0  0  0
 15  2  2  0  0  0  0
 16 10  1  0  0  0  0
 18  6  1  0  0  0  0
 19  7  1  0  0  0  0
 20 19  2  0  0  0  0
 20  8  1  0  0  0  0
 21 12  2  0  0  0  0
 22  3  2  0  0  0  0
 22 23  1  0  0  0  0
 23 18  2  0  0  0  0
 24 27  1  1  0  0  0
 24 28  1  0  0  0  0
 24 31  1  0  0  0  0
 25 30  1  0  0  0  0
 28 25  1  0  0  0  0
 29 30  1  0  0  0  0
 29 26  1  1  0  0  0
 30  5  1  1  0  0  0
 31 29  1  0  0  0  0
M  END
>  <MODEL>
2

>  <REMARK>
 VINA RESULT:     -12.0      0.947      1.081
  Name = 
  1 active torsions:
  status: ('A' for Active; 'I' for Inactive)
    1  A    between atoms: C_5  and  C_30
                            x       y       z     vdW  Elec       q    Type
                         _______ _______ _______ _____ _____    ______ ____

>  <TORSDO>
F 1

$$$$
=
 OpenBabel11122411073D

 31 35  0  0  1  0  0  0  0  0999 V2000
  190.0640  177.0390  146.4130 C   0  0  0  0  0  0  0  0  0  0  0  0
  187.7090  177.8130  143.5790 C   0  0  0  0  0  0  0  0  0  0  0  0
  186.4500  178.1550  144.1550 C   0  0  0  0  0  0  0  0  0  0  0  0
  191.3310  176.9320  139.8460 O   0  0  0  0  0  0  0  0  0  0  0  0
  190.2380  177.2400  139.3020 C   0  0  0  0  0  0  0  0  0  0  0  0
  184.9690  178.5150  146.0630 C   0  0  0  0  0  0  0  0  0  0  0  0
  188.8740  177.4530  144.3210 C   0  0  0  0  0  0  0  0  0  0  0  0
  191.2250  176.7300  145.7060 C   0  0  0  0  0  3  0  0  0  0  0  0
  186.2190  178.1750  145.5420 C   0  0  0  0  0  3  0  0  0  0  0  0
  189.0070  177.5100  141.5260 C   0  0  0  0  0  0  0  0  0  0  0  0
  190.0630  176.9940  147.7670 F   0  0  0  0  0  0  0  0  0  0  0  0
  185.5520  178.4890  141.9570 N   0  0  0  0  0  0  0  0  0  0  0  0
  184.7690  178.5260  147.4370 O   0  0  0  0  0  1  0  0  0  0  0  0
  190.0940  177.1730  142.2650 N   0  0  0  0  0  0  0  0  0  0  0  0
  187.8030  177.8350  142.1640 C   0  0  0  0  0  0  0  0  0  0  0  0
  189.0810  177.5380  140.0940 N   0  0  0  0  0  2  0  0  0  0  0  0
  188.9030  177.3970  145.7260 C   0  0  0  0  0  3  0  0  0  0  0  0
  183.9210  178.8460  145.2040 C   0  0  0  0  0  3  0  0  0  0  0  0
  190.0640  177.1350  143.6190 C   0  0  0  0  0  0  0  0  0  0  0  0
  191.2250  176.7780  144.3120 C   0  0  0  0  0  3  0  0  0  0  0  0
  186.7220  178.1710  141.4110 N   0  0  0  0  0  0  0  0  0  0  0  0
  185.3750  178.4940  143.2990 C   0  0  0  0  0  0  0  0  0  0  0  0
  184.1250  178.8350  143.8240 C   0  0  0  0  0  3  0  0  0  0  0  0
  187.4700  177.0010  136.7830 C   0  0  1  0  0  3  0  0  0  0  0  0
  189.3710  178.4570  137.3420 N   0  0  0  0  0  2  0  0  0  0  0  0
  190.4290  174.9220  137.6330 F   0  0  0  0  0  0  0  0  0  0  0  0
  186.1170  176.8160  136.9890 F   0  0  0  0  0  0  0  0  0  0  0  0
  187.9410  178.2250  137.5620 C   0  0  0  0  0  2  0  0  0  0  0  0
  189.7310  176.0020  137.1240 C   0  0  2  0  0  3  0  0  0  0  0  0
  190.1680  177.3120  137.8030 C   0  0  2  0  0  3  0  0  0  0  0  0
  188.2290  175.7730  137.2650 C   0  0  0  0  0  2  0  0  0  0  0  0
  1 11  1  0  0  0  0
  2  3  1  0  0  0  0
  2  7  1  0  0  0  0
  3  9  1  0  0  0  0
  5  4  2  0  0  0  0
  5 16  1  0  0  0  0
  6 13  1  0  0  0  0
  7 17  2  0  0  0  0
  8  1  2  0  0  0  0
  9  6  2  0  0  0  0
 10 15  1  0  0  0  0
 10 14  2  0  0  0  0
 12 22  1  0  0  0  0
 14 19  1  0  0  0  0
 15  2  2  0  0  0  0
 16 10  1  0  0  0  0
 17  1  1  0  0  0  0
 18  6  1  0  0  0  0
 19 20  2  0  0  0  0
 19  7  1  0  0  0  0
 20  8  1  0  0  0  0
 21 12  2  0  0  0  0
 21 15  1  0  0  0  0
 22 23  1  0  0  0  0
 22  3  2  0  0  0  0
 23 18  2  0  0  0  0
 24 27  1  1  0  0  0
 24 31  1  0  0  0  0
 24 28  1  0  0  0  0
 25 28  1  0  0  0  0
 25 30  1  0  0  0  0
 29 31  1  0  0  0  0
 29 26  1  1  0  0  0
 29 30  1  0  0  0  0
 30  5  1  1  0  0  0
M  END
>  <MODEL>
3

>  <REMARK>
 VINA RESULT:     -11.8      2.049      4.192
  Name = 
  1 active torsions:
  status: ('A' for Active; 'I' for Inactive)
    1  A    between atoms: C_5  and  C_30
                            x       y       z     vdW  Elec       q    Type
                         _______ _______ _______ _____ _____    ______ ____

>  <TORSDO>
F 1

$$$$
=
 OpenBabel11122411073D

 31 35  0  0  1  0  0  0  0  0999 V2000
  184.7630  178.5360  145.2540 C   0  0  0  0  0  0  0  0  0  0  0  0
  187.9150  177.8550  143.3110 C   0  0  0  0  0  0  0  0  0  0  0  0
  188.9350  177.5340  144.2550 C   0  0  0  0  0  0  0  0  0  0  0  0
  185.6450  178.7060  138.6250 O   0  0  0  0  0  0  0  0  0  0  0  0
  186.8620  178.4310  138.4560 C   0  0  0  0  0  0  0  0  0  0  0  0
  189.7410  177.1810  146.5330 C   0  0  0  0  0  0  0  0  0  0  0  0
  186.5660  178.1790  143.6460 C   0  0  0  0  0  0  0  0  0  0  0  0
  183.8790  178.8290  144.2170 C   0  0  0  0  0  3  0  0  0  0  0  0
  188.7140  177.5010  145.6440 C   0  0  0  0  0  3  0  0  0  0  0  0
  187.3290  178.1570  140.9540 C   0  0  0  0  0  0  0  0  0  0  0  0
  184.3330  178.5630  146.5380 F   0  0  0  0  0  0  0  0  0  0  0  0
  190.4930  177.2510  142.4550 N   0  0  0  0  0  0  0  0  0  0  0  0
  189.4950  177.1560  147.8990 O   0  0  0  0  0  1  0  0  0  0  0  0
  186.0560  178.4590  141.3110 N   0  0  0  0  0  0  0  0  0  0  0  0
  188.2770  177.8510  141.9390 C   0  0  0  0  0  0  0  0  0  0  0  0
  187.7150  178.1480  139.5720 N   0  0  0  0  0  2  0  0  0  0  0  0
  186.0910  178.2140  144.9700 C   0  0  0  0  0  3  0  0  0  0  0  0
  191.0160  176.8860  146.0490 C   0  0  0  0  0  3  0  0  0  0  0  0
  185.6530  178.4790  142.6040 C   0  0  0  0  0  0  0  0  0  0  0  0
  184.3230  178.8010  142.8950 C   0  0  0  0  0  3  0  0  0  0  0  0
  189.5490  177.5500  141.5680 N   0  0  0  0  0  0  0  0  0  0  0  0
  190.2340  177.2320  143.7840 C   0  0  0  0  0  0  0  0  0  0  0  0
  191.2620  176.9120  144.6760 C   0  0  0  0  0  3  0  0  0  0  0  0
  189.3730  176.2810  136.6840 C   0  0  1  0  0  3  0  0  0  0  0  0
  187.0800  177.1180  136.3810 N   0  0  0  0  0  2  0  0  0  0  0  0
  189.2100  179.8620  137.6580 F   0  0  0  0  0  0  0  0  0  0  0  0
  190.1110  175.2200  137.1710 F   0  0  0  0  0  0  0  0  0  0  0  0
  187.8880  176.0150  136.9100 C   0  0  0  0  0  2  0  0  0  0  0  0
  188.9030  178.7170  136.9450 C   0  0  2  0  0  3  0  0  0  0  0  0
  187.4060  178.3810  137.0560 C   0  0  2  0  0  3  0  0  0  0  0  0
  189.7750  177.5560  137.4120 C   0  0  0  0  0  2  0  0  0  0  0  0
  1 11  1  0  0  0  0
  2  7  1  0  0  0  0
  2  3  1  0  0  0  0
  3  9  1  0  0  0  0
  5  4  2  0  0  0  0
  5 16  1  0  0  0  0
  6 13  1  0  0  0  0
  7 17  2  0  0  0  0
  8  1  2  0  0  0  0
  9  6  2  0  0  0  0
 10 14  2  0  0  0  0
 10 15  1  0  0  0  0
 12 22  1  0  0  0  0
 14 19  1  0  0  0  0
 15  2  2  0  0  0  0
 16 10  1  0  0  0  0
 17  1  1  0  0  0  0
 18  6  1  0  0  0  0
 19 20  2  0  0  0  0
 19  7  1  0  0  0  0
 20  8  1  0  0  0  0
 21 15  1  0  0  0  0
 21 12  2  0  0  0  0
 22  3  2  0  0  0  0
 22 23  1  0  0  0  0
 23 18  2  0  0  0  0
 24 28  1  0  0  0  0
 24 27  1  1  0  0  0
 24 31  1  0  0  0  0
 25 28  1  0  0  0  0
 25 30  1  0  0  0  0
 29 30  1  0  0  0  0
 29 31  1  0  0  0  0
 29 26  1  1  0  0  0
 30  5  1  1  0  0  0
M  END
>  <MODEL>
4

>  <REMARK>
 VINA RESULT:     -11.8      1.254      1.475
  Name = 
  1 active torsions:
  status: ('A' for Active; 'I' for Inactive)
    1  A    between atoms: C_5  and  C_30
                            x       y       z     vdW  Elec       q    Type
                         _______ _______ _______ _____ _____    ______ ____

>  <TORSDO>
F 1

$$$$
=
 OpenBabel11122411073D

 31 35  0  0  1  0  0  0  0  0999 V2000
  189.9240  177.1280  146.7450 C   0  0  0  0  0  0  0  0  0  0  0  0
  187.8580  177.8500  143.6810 C   0  0  0  0  0  0  0  0  0  0  0  0
  186.5480  178.2010  144.1250 C   0  0  0  0  0  0  0  0  0  0  0  0
  191.8260  176.9070  140.3360 O   0  0  0  0  0  0  0  0  0  0  0  0
  190.7910  177.2050  139.6820 C   0  0  0  0  0  0  0  0  0  0  0  0
  184.8890  178.5930  145.8730 C   0  0  0  0  0  0  0  0  0  0  0  0
  188.9440  177.5040  144.5390 C   0  0  0  0  0  0  0  0  0  0  0  0
  191.1480  176.8070  146.1600 C   0  0  0  0  0  3  0  0  0  0  0  0
  186.1830  178.2450  145.4830 C   0  0  0  0  0  3  0  0  0  0  0  0
  189.3500  177.5130  141.7710 C   0  0  0  0  0  0  0  0  0  0  0  0
  189.7900  177.1050  148.0920 F   0  0  0  0  0  0  0  0  0  0  0  0
  185.8690  178.4960  141.8450 N   0  0  0  0  0  0  0  0  0  0  0  0
  184.5560  178.6280  147.2210 O   0  0  0  0  0  1  0  0  0  0  0  0
  190.3580  177.1900  142.6180 N   0  0  0  0  0  0  0  0  0  0  0  0
  188.0890  177.8480  142.2810 C   0  0  0  0  0  0  0  0  0  0  0  0
  189.5630  177.5160  140.3520 N   0  0  0  0  0  2  0  0  0  0  0  0
  188.8360  177.4720  145.9410 C   0  0  0  0  0  3  0  0  0  0  0  0
  183.9300  178.9090  144.9100 C   0  0  0  0  0  3  0  0  0  0  0  0
  190.1970  177.1750  143.9620 C   0  0  0  0  0  0  0  0  0  0  0  0
  191.2840  176.8310  144.7720 C   0  0  0  0  0  3  0  0  0  0  0  0
  187.0870  178.1700  141.4220 N   0  0  0  0  0  0  0  0  0  0  0  0
  185.5620  178.5240  143.1630 C   0  0  0  0  0  0  0  0  0  0  0  0
  184.2670  178.8730  143.5570 C   0  0  0  0  0  3  0  0  0  0  0  0
  190.2430  174.7030  136.9420 C   0  0  1  0  0  3  0  0  0  0  0  0
  189.5660  176.9870  137.5540 N   0  0  0  0  0  2  0  0  0  0  0  0
  193.1810  176.5740  138.2370 F   0  0  0  0  0  0  0  0  0  0  0  0
  189.8760  173.3750  137.0350 F   0  0  0  0  0  0  0  0  0  0  0  0
  189.2100  175.5690  137.6570 C   0  0  0  0  0  2  0  0  0  0  0  0
  191.9810  176.3780  137.5770 C   0  0  2  0  0  3  0  0  0  0  0  0
  190.8680  177.2510  138.1820 C   0  0  2  0  0  3  0  0  0  0  0  0
  191.6050  174.8990  137.5940 C   0  0  0  0  0  2  0  0  0  0  0  0
  1 11  1  0  0  0  0
  2  3  1  0  0  0  0
  2  7  1  0  0  0  0
  3  9  1  0  0  0  0
  5  4  2  0  0  0  0
  5 16  1  0  0  0  0
  6 13  1  0  0  0  0
  7 17  1  0  0  0  0
  8  1  1  0  0  0  0
  9  6  2  0  0  0  0
 10 15  1  0  0  0  0
 10 14  2  0  0  0  0
 12 22  1  0  0  0  0
 14 19  1  0  0  0  0
 15  2  2  0  0  0  0
 16 10  1  0  0  0  0
 17  1  2  0  0  0  0
 18  6  1  0  0  0  0
 19  7  2  0  0  0  0
 19 20  1  0  0  0  0
 20  8  2  0  0  0  0
 21 12  2  0  0  0  0
 21 15  1  0  0  0  0
 22 23  1  0  0  0  0
 22  3  2  0  0  0  0
 23 18  2  0  0  0  0
 24 27  1  1  0  0  0
 24 31  1  0  0  0  0
 24 28  1  0  0  0  0
 25 28  1  0  0  0  0
 25 30  1  0  0  0  0
 29 31  1  0  0  0  0
 29 30  1  0  0  0  0
 29 26  1  1  0  0  0
 30  5  1  1  0  0  0
M  END
>  <MODEL>
5

>  <REMARK>
 VINA RESULT:     -11.7      2.015      4.107
  Name = 
  1 active torsions:
  status: ('A' for Active; 'I' for Inactive)
    1  A    between atoms: C_5  and  C_30
                            x       y       z     vdW  Elec       q    Type
                         _______ _______ _______ _____ _____    ______ ____

>  <TORSDO>
F 1

$$$$
=
 OpenBabel11122411073D

 31 35  0  0  1  0  0  0  0  0999 V2000
  186.8000  178.1850  147.3910 C   0  0  0  0  0  0  0  0  0  0  0  0
  187.5420  177.9030  143.7100 C   0  0  0  0  0  0  0  0  0  0  0  0
  188.9380  177.6420  143.5770 C   0  0  0  0  0  0  0  0  0  0  0  0
  182.5360  178.7340  142.2660 O   0  0  0  0  0  0  0  0  0  0  0  0
  183.2490  178.5870  141.2370 C   0  0  0  0  0  0  0  0  0  0  0  0
  191.1670  177.2690  144.5010 C   0  0  0  0  0  0  0  0  0  0  0  0
  186.8590  178.0780  144.9510 C   0  0  0  0  0  0  0  0  0  0  0  0
  185.4290  178.4350  147.3590 C   0  0  0  0  0  3  0  0  0  0  0  0
  189.8060  177.5260  144.6770 C   0  0  0  0  0  3  0  0  0  0  0  0
  185.4060  178.2500  142.5660 C   0  0  0  0  0  0  0  0  0  0  0  0
  187.4480  178.1130  148.5780 F   0  0  0  0  0  0  0  0  0  0  0  0
  188.6880  177.5930  141.1930 N   0  0  0  0  0  0  0  0  0  0  0  0
  192.0020  177.1600  145.6060 O   0  0  0  0  0  1  0  0  0  0  0  0
  184.7920  178.4100  143.7650 N   0  0  0  0  0  0  0  0  0  0  0  0
  186.7820  177.9950  142.5150 C   0  0  0  0  0  0  0  0  0  0  0  0
  184.6560  178.3400  141.3460 N   0  0  0  0  0  2  0  0  0  0  0  0
  187.5050  178.0080  146.1990 C   0  0  0  0  0  3  0  0  0  0  0  0
  191.6890  177.1220  143.2160 C   0  0  0  0  0  3  0  0  0  0  0  0
  185.4650  178.3330  144.9380 C   0  0  0  0  0  0  0  0  0  0  0  0
  184.7630  178.5090  146.1350 C   0  0  0  0  0  3  0  0  0  0  0  0
  187.3850  177.8370  141.3070 N   0  0  0  0  0  0  0  0  0  0  0  0
  189.4860  177.4900  142.2810 C   0  0  0  0  0  0  0  0  0  0  0  0
  190.8490  177.2330  142.1080 C   0  0  0  0  0  3  0  0  0  0  0  0
  183.5420  176.5970  138.0720 C   0  0  1  0  0  3  0  0  0  0  0  0
  181.8080  177.4470  139.5940 N   0  0  0  0  0  2  0  0  0  0  0  0
  184.3470  180.0860  139.0600 F   0  0  0  0  0  0  0  0  0  0  0  0
  184.3400  175.5020  137.8010 F   0  0  0  0  0  0  0  0  0  0  0  0
  182.6810  176.3080  139.2980 C   0  0  0  0  0  2  0  0  0  0  0  0
  183.5520  179.0020  138.7340 C   0  0  2  0  0  3  0  0  0  0  0  0
  182.5940  178.6530  139.8860 C   0  0  2  0  0  3  0  0  0  0  0  0
  184.4200  177.8090  138.3450 C   0  0  0  0  0  2  0  0  0  0  0  0
  1 11  1  0  0  0  0
  2  7  1  0  0  0  0
  3  2  1  0  0  0  0
  3  9  1  0  0  0  0
  5 16  1  0  0  0  0
  5  4  2  0  0  0  0
  6  9  2  0  0  0  0
  6 13  1  0  0  0  0
  7 17  1  0  0  0  0
  8  1  1  0  0  0  0
 10 14  2  0  0  0  0
 12 21  2  0  0  0  0
 12 22  1  0  0  0  0
 14 19  1  0  0  0  0
 15 10  1  0  0  0  0
 15  2  2  0  0  0  0
 16 10  1  0  0  0  0
 17  1  2  0  0  0  0
 18  6  1  0  0  0  0
 19  7  2  0  0  0  0
 19 20  1  0  0  0  0
 20  8  2  0  0  0  0
 21 15  1  0  0  0  0
 22  3  2  0  0  0  0
 23 22  1  0  0  0  0
 23 18  2  0  0  0  0
 24 27  1  1  0  0  0
 24 31  1  0  0  0  0
 24 28  1  0  0  0  0
 25 30  1  0  0  0  0
 28 25  1  0  0  0  0
 29 26  1  1  0  0  0
 29 30  1  0  0  0  0
 30  5  1  1  0  0  0
 31 29  1  0  0  0  0
M  END
>  <MODEL>
6

>  <REMARK>
 VINA RESULT:     -10.9      3.382      4.645
  Name = 
  1 active torsions:
  status: ('A' for Active; 'I' for Inactive)
    1  A    between atoms: C_5  and  C_30
                            x       y       z     vdW  Elec       q    Type
                         _______ _______ _______ _____ _____    ______ ____

>  <TORSDO>
F 1

$$$$
=
 OpenBabel11122411073D

 31 35  0  0  1  0  0  0  0  0999 V2000
  191.0800  177.2500  142.0730 C   0  0  0  0  0  0  0  0  0  0  0  0
  187.8740  177.8240  143.9630 C   0  0  0  0  0  0  0  0  0  0  0  0
  188.1720  177.6990  145.3520 C   0  0  0  0  0  0  0  0  0  0  0  0
  185.0220  178.6420  139.6010 O   0  0  0  0  0  0  0  0  0  0  0  0
  184.2740  178.7260  140.6100 C   0  0  0  0  0  0  0  0  0  0  0  0
  189.7070  177.2980  147.2080 C   0  0  0  0  0  0  0  0  0  0  0  0
  188.8240  177.6760  142.9080 C   0  0  0  0  0  0  0  0  0  0  0  0
  190.6350  177.4010  140.7600 C   0  0  0  0  0  3  0  0  0  0  0  0
  189.4600  177.4120  145.8390 C   0  0  0  0  0  3  0  0  0  0  0  0
  186.1630  178.2540  142.2670 C   0  0  0  0  0  0  0  0  0  0  0  0
  192.3810  176.9700  142.3190 F   0  0  0  0  0  0  0  0  0  0  0  0
  185.8750  178.1490  145.8710 N   0  0  0  0  0  0  0  0  0  0  0  0
  190.9890  177.0130  147.6610 O   0  0  0  0  0  1  0  0  0  0  0  0
  187.0950  178.1070  141.2920 N   0  0  0  0  0  0  0  0  0  0  0  0
  186.5310  178.1170  143.6110 C   0  0  0  0  0  0  0  0  0  0  0  0
  184.7990  178.5500  141.9320 N   0  0  0  0  0  2  0  0  0  0  0  0
  190.1830  177.3860  143.1330 C   0  0  0  0  0  3  0  0  0  0  0  0
  188.6670  177.4710  148.1220 C   0  0  0  0  0  3  0  0  0  0  0  0
  188.3910  177.8270  141.5670 C   0  0  0  0  0  0  0  0  0  0  0  0
  189.2940  177.6890  140.5080 C   0  0  0  0  0  3  0  0  0  0  0  0
  185.5880  178.2670  144.5780 N   0  0  0  0  0  0  0  0  0  0  0  0
  187.1310  177.8710  146.2940 C   0  0  0  0  0  0  0  0  0  0  0  0
  187.3810  177.7570  147.6650 C   0  0  0  0  0  3  0  0  0  0  0  0
  181.6130  177.4720  138.2840 C   0  0  1  0  0  3  0  0  0  0  0  0
  181.9630  177.8720  140.6850 N   0  0  0  0  0  2  0  0  0  0  0  0
  183.3550  180.7170  138.7700 F   0  0  0  0  0  0  0  0  0  0  0  0
  181.7000  176.5110  137.2960 F   0  0  0  0  0  0  0  0  0  0  0  0
  182.0670  176.8780  139.6130 C   0  0  0  0  0  2  0  0  0  0  0  0
  182.4860  179.6790  139.0530 C   0  0  2  0  0  3  0  0  0  0  0  0
  182.8170  179.0360  140.4100 C   0  0  2  0  0  3  0  0  0  0  0  0
  182.5050  178.6510  137.9260 C   0  0  0  0  0  2  0  0  0  0  0  0
  1 11  1  0  0  0  0
  1 17  1  0  0  0  0
  2  3  1  0  0  0  0
  3  9  2  0  0  0  0
  3 22  1  0  0  0  0
  4  5  2  0  0  0  0
  5 16  1  0  0  0  0
  6 13  1  0  0  0  0
  6 18  2  0  0  0  0
  7 17  2  0  0  0  0
  7  2  1  0  0  0  0
  8  1  2  0  0  0  0
  9  6  1  0  0  0  0
 10 15  1  0  0  0  0
 12 22  1  0  0  0  0
 14 19  1  0  0  0  0
 14 10  2  0  0  0  0
 15  2  2  0  0  0  0
 15 21  1  0  0  0  0
 16 10  1  0  0  0  0
 19  7  1  0  0  0  0
 20  8  1  0  0  0  0
 20 19  2  0  0  0  0
 21 12  2  0  0  0  0
 22 23  2  0  0  0  0
 23 18  1  0  0  0  0
 24 27  1  6  0  0  0
 24 28  1  0  0  0  0
 28 25  1  0  0  0  0
 29 26  1  6  0  0  0
 29 30  1  0  0  0  0
 30  5  1  6  0  0  0
 30 25  1  0  0  0  0
 31 24  1  0  0  0  0
 31 29  1  0  0  0  0
M  END
>  <MODEL>
7

>  <REMARK>
 VINA RESULT:     -10.8      3.236      5.470
  Name = 
  1 active torsions:
  status: ('A' for Active; 'I' for Inactive)
    1  A    between atoms: C_5  and  C_30
                            x       y       z     vdW  Elec       q    Type
                         _______ _______ _______ _____ _____    ______ ____

>  <TORSDO>
F 1

$$$$
=
 OpenBabel11122411073D

 31 35  0  0  1  0  0  0  0  0999 V2000
  191.3050  176.9380  144.6460 C   0  0  0  0  0  0  0  0  0  0  0  0
  187.8990  177.9250  143.3810 C   0  0  0  0  0  0  0  0  0  0  0  0
  187.0540  178.0860  144.5190 C   0  0  0  0  0  0  0  0  0  0  0  0
  189.3610  177.8600  138.3120 O   0  0  0  0  0  0  0  0  0  0  0  0
  188.1400  178.1580  138.3910 C   0  0  0  0  0  0  0  0  0  0  0  0
  186.6350  178.0580  146.9240 C   0  0  0  0  0  0  0  0  0  0  0  0
  189.2760  177.5530  143.4340 C   0  0  0  0  0  0  0  0  0  0  0  0
  192.0020  176.8210  143.4450 C   0  0  0  0  0  3  0  0  0  0  0  0
  187.4970  177.8910  145.8390 C   0  0  0  0  0  3  0  0  0  0  0  0
  188.0890  178.0170  140.9430 C   0  0  0  0  0  0  0  0  0  0  0  0
  191.9360  176.7000  145.8210 F   0  0  0  0  0  0  0  0  0  0  0  0
  185.2340  178.6590  143.0680 N   0  0  0  0  0  0  0  0  0  0  0  0
  187.0990  177.8590  148.2180 O   0  0  0  0  0  1  0  0  0  0  0  0
  189.3950  177.6610  141.0330 N   0  0  0  0  0  0  0  0  0  0  0  0
  187.3210  178.1550  142.1060 C   0  0  0  0  0  0  0  0  0  0  0  0
  187.4860  178.2530  139.6630 N   0  0  0  0  0  2  0  0  0  0  0  0
  189.9570  177.3010  144.6390 C   0  0  0  0  0  3  0  0  0  0  0  0
  185.3060  178.4280  146.7100 C   0  0  0  0  0  3  0  0  0  0  0  0
  190.0010  177.4290  142.2220 C   0  0  0  0  0  0  0  0  0  0  0  0
  191.3510  177.0660  142.2350 C   0  0  0  0  0  3  0  0  0  0  0  0
  186.0140  178.5120  142.0010 N   0  0  0  0  0  0  0  0  0  0  0  0
  185.7040  178.4600  144.3210 C   0  0  0  0  0  0  0  0  0  0  0  0
  184.8420  178.6280  145.4100 C   0  0  0  0  0  3  0  0  0  0  0  0
  186.4240  176.0230  135.8290 C   0  0  1  0  0  3  0  0  0  0  0  0
  185.9780  178.0030  137.2180 N   0  0  0  0  0  2  0  0  0  0  0  0
  189.3950  178.2530  135.8200 F   0  0  0  0  0  0  0  0  0  0  0  0
  186.2960  174.6490  135.7840 F   0  0  0  0  0  0  0  0  0  0  0  0
  185.8730  176.5420  137.1540 C   0  0  0  0  0  2  0  0  0  0  0  0
  188.0550  177.9110  135.8490 C   0  0  2  0  0  3  0  0  0  0  0  0
  187.3780  178.4370  137.1260 C   0  0  2  0  0  3  0  0  0  0  0  0
  187.8940  176.4000  135.7100 C   0  0  0  0  0  2  0  0  0  0  0  0
  1 11  1  0  0  0  0
  2  7  1  0  0  0  0
  2  3  1  0  0  0  0
  3  9  1  0  0  0  0
  4  5  2  0  0  0  0
  5 16  1  0  0  0  0
  6 13  1  0  0  0  0
  7 17  2  0  0  0  0
  8  1  2  0  0  0  0
  9  6  2  0  0  0  0
 10 14  2  0  0  0  0
 10 15  1  0  0  0  0
 12 22  1  0  0  0  0
 14 19  1  0  0  0  0
 15  2  2  0  0  0  0
 16 10  1  0  0  0  0
 17  1  1  0  0  0  0
 18  6  1  0  0  0  0
 19 20  2  0  0  0  0
 19  7  1  0  0  0  0
 20  8  1  0  0  0  0
 21 15  1  0  0  0  0
 21 12  2  0  0  0  0
 22  3  2  0  0  0  0
 22 23  1  0  0  0  0
 23 18  2  0  0  0  0
 24 27  1  1  0  0  0
 24 28  1  0  0  0  0
 28 25  1  0  0  0  0
 29 26  1  1  0  0  0
 29 30  1  0  0  0  0
 30 25  1  0  0  0  0
 30  5  1  1  0  0  0
 31 24  1  0  0  0  0
 31 29  1  0  0  0  0
M  END
>  <MODEL>
8

>  <REMARK>
 VINA RESULT:     -10.7      2.504      4.151
  Name = 
  1 active torsions:
  status: ('A' for Active; 'I' for Inactive)
    1  A    between atoms: C_5  and  C_30
                            x       y       z     vdW  Elec       q    Type
                         _______ _______ _______ _____ _____    ______ ____

>  <TORSDO>
F 1

$$$$
=
 OpenBabel11122411073D

 31 35  0  0  1  0  0  0  0  0999 V2000
  186.4450  178.1110  146.8840 C   0  0  0  0  0  0  0  0  0  0  0  0
  187.7330  178.0190  143.3470 C   0  0  0  0  0  0  0  0  0  0  0  0
  189.1260  177.7220  143.4100 C   0  0  0  0  0  0  0  0  0  0  0  0
  183.0250  179.0880  141.2190 O   0  0  0  0  0  0  0  0  0  0  0  0
  183.8820  178.9790  140.3030 C   0  0  0  0  0  0  0  0  0  0  0  0
  191.1800  177.2270  144.6350 C   0  0  0  0  0  0  0  0  0  0  0  0
  186.8730  178.1430  144.4800 C   0  0  0  0  0  0  0  0  0  0  0  0
  185.1010  178.4060  146.6610 C   0  0  0  0  0  3  0  0  0  0  0  0
  189.8140  177.5150  144.6190 C   0  0  0  0  0  3  0  0  0  0  0  0
  185.8040  178.4980  141.9180 C   0  0  0  0  0  0  0  0  0  0  0  0
  186.9030  177.9500  148.1480 F   0  0  0  0  0  0  0  0  0  0  0  0
  189.2410  177.8190  141.0170 N   0  0  0  0  0  0  0  0  0  0  0  0
  191.8340  177.0270  145.8430 O   0  0  0  0  0  1  0  0  0  0  0  0
  185.0190  178.6080  143.0190 N   0  0  0  0  0  0  0  0  0  0  0  0
  187.1660  178.2030  142.0590 C   0  0  0  0  0  0  0  0  0  0  0  0
  185.2510  178.6810  140.6070 N   0  0  0  0  0  2  0  0  0  0  0  0
  187.3200  177.9810  145.8040 C   0  0  0  0  0  3  0  0  0  0  0  0
  191.8890  177.1380  143.4360 C   0  0  0  0  0  3  0  0  0  0  0  0
  185.5030  178.4420  144.2720 C   0  0  0  0  0  0  0  0  0  0  0  0
  184.6310  178.5710  145.3580 C   0  0  0  0  0  3  0  0  0  0  0  0
  187.9420  178.0960  140.9490 N   0  0  0  0  0  0  0  0  0  0  0  0
  189.8620  177.6280  142.2050 C   0  0  0  0  0  0  0  0  0  0  0  0
  191.2290  177.3390  142.2230 C   0  0  0  0  0  3  0  0  0  0  0  0
  180.5950  178.7260  138.5160 C   0  0  1  0  0  3  0  0  0  0  0  0
  182.5050  180.2620  138.7120 N   0  0  0  0  0  2  0  0  0  0  0  0
  183.7650  176.7910  138.4600 F   0  0  0  0  0  0  0  0  0  0  0  0
  179.3440  178.4420  139.0270 F   0  0  0  0  0  0  0  0  0  0  0  0
  181.1850  179.9250  139.2510 C   0  0  0  0  0  2  0  0  0  0  0  0
  182.9140  177.8550  138.2210 C   0  0  2  0  0  3  0  0  0  0  0  0
  183.4430  179.1430  138.8750 C   0  0  2  0  0  3  0  0  0  0  0  0
  181.5050  177.5210  138.7020 C   0  0  0  0  0  2  0  0  0  0  0  0
  1 11  1  0  0  0  0
  2  3  1  0  0  0  0
  2  7  1  0  0  0  0
  3  9  1  0  0  0  0
  5 16  1  0  0  0  0
  5  4  2  0  0  0  0
  6 13  1  0  0  0  0
  7 17  1  0  0  0  0
  8  1  1  0  0  0  0
  9  6  2  0  0  0  0
 10 15  1  0  0  0  0
 10 14  2  0  0  0  0
 12 22  1  0  0  0  0
 14 19  1  0  0  0  0
 15  2  2  0  0  0  0
 16 10  1  0  0  0  0
 17  1  2  0  0  0  0
 18  6  1  0  0  0  0
 19  7  2  0  0  0  0
 19 20  1  0  0  0  0
 20  8  2  0  0  0  0
 21 12  2  0  0  0  0
 21 15  1  0  0  0  0
 22 23  1  0  0  0  0
 22  3  2  0  0  0  0
 23 18  2  0  0  0  0
 24 31  1  0  0  0  0
 24 27  1  1  0  0  0
 24 28  1  0  0  0  0
 25 30  1  0  0  0  0
 25 28  1  0  0  0  0
 29 26  1  1  0  0  0
 29 31  1  0  0  0  0
 29 30  1  0  0  0  0
 30  5  1  1  0  0  0
M  END
>  <MODEL>
9

>  <REMARK>
 VINA RESULT:     -10.4      3.440      5.159
  Name = 
  1 active torsions:
  status: ('A' for Active; 'I' for Inactive)
    1  A    between atoms: C_5  and  C_30
                            x       y       z     vdW  Elec       q    Type
                         _______ _______ _______ _____ _____    ______ ____

>  <TORSDO>
F 1

$$$$
