=
 OpenBabel11122410373D

 32 37  0  0  1  0  0  0  0  0999 V2000
  191.1380  175.3990  137.4230 C   0  0  0  0  0  2  0  0  0  0  0  0
  188.8250  177.8400  141.7860 C   0  0  1  0  0  3  0  0  0  0  0  0
  191.5910  176.6910  145.7450 C   0  0  0  0  0  3  0  0  0  0  0  0
  190.5210  176.9500  146.5990 C   0  0  0  0  0  3  0  0  0  0  0  0
  186.3890  178.4110  142.2010 C   0  0  0  0  0  0  0  0  0  0  0  0
  185.2400  178.4170  143.1140 C   0  0  0  0  0  0  0  0  0  0  0  0
  189.7730  177.5380  139.4780 C   0  0  1  0  0  3  0  0  0  0  0  0
  191.1840  177.0390  141.5100 C   0  0  0  0  0  2  0  0  0  0  0  0
  184.1650  178.0760  145.1160 N   0  0  0  0  0  0  0  0  0  0  0  0
  192.2350  176.7950  139.2680 C   0  0  0  0  0  2  0  0  0  0  0  0
  191.3960  176.7040  144.3620 C   0  0  0  0  0  3  0  0  0  0  0  0
  189.9000  176.8800  142.3320 C   0  0  1  0  0  3  0  0  0  0  0  0
  190.1350  177.0000  143.8160 C   0  0  0  0  0  0  0  0  0  0  0  0
  187.7120  177.5500  144.1240 C   0  0  0  0  0  0  0  0  0  0  0  0
  183.2530  178.5760  144.0640 C   0  0  0  0  0  2  0  0  0  0  0  0
  189.6550  175.7380  137.6530 C   0  0  0  0  0  2  0  0  0  0  0  0
  190.9240  176.6820  140.0510 C   0  0  2  0  0  3  0  0  0  0  0  0
  184.0390  178.7610  142.8360 N   0  0  0  0  0  0  0  0  0  0  0  0
  189.4030  177.2050  138.0250 C   0  0  0  0  0  2  0  0  0  0  0  0
  192.1080  176.5410  137.7630 C   0  0  1  0  0  3  0  0  0  0  0  0
  189.2590  177.2190  146.0710 C   0  0  0  0  0  3  0  0  0  0  0  0
  189.0480  177.2380  144.6800 C   0  0  0  0  0  0  0  0  0  0  0  0
  186.6470  177.5900  144.9480 C   0  0  0  0  0  3  0  0  0  0  0  0
  188.5290  177.3940  140.3500 C   0  0  0  0  0  2  0  0  0  0  0  0
  186.2110  179.0040  140.8390 C   0  0  0  0  0  1  0  0  0  0  0  0
  184.2770  179.1370  146.1060 C   0  0  0  0  0  1  0  0  0  0  0  0
  187.5730  177.9050  142.6600 C   0  0  0  0  0  0  0  0  0  0  0  0
  185.3830  178.0030  144.4320 N   0  0  0  0  0  0  0  0  0  0  0  0
  193.4860  176.2610  137.1860 C   0  0  0  0  0  2  0  0  0  0  0  0
  194.1320  175.1170  137.8890 C   0  0  0  0  0  0  0  0  0  0  0  0
  193.7550  173.8150  137.5890 O   0  0  0  0  0  0  0  0  0  0  0  0
  195.0400  175.3290  138.7340 O   0  0  0  0  0  1  0  0  0  0  0  0
  1 16  1  0  0  0  0
  1 20  1  0  0  0  0
  2 24  1  6  0  0  0
  2 12  1  0  0  0  0
  2 27  1  0  0  0  0
  3  4  1  0  0  0  0
  5 27  2  0  0  0  0
  5  6  1  0  0  0  0
  6 28  1  0  0  0  0
  7 19  1  6  0  0  0
  7 17  1  0  0  0  0
  7 24  1  0  0  0  0
  9 26  1  0  0  0  0
 11  3  2  0  0  0  0
 12  8  1  6  0  0  0
 12 13  1  0  0  0  0
 13 11  1  0  0  0  0
 13 22  2  0  0  0  0
 14 22  1  0  0  0  0
 14 23  2  0  0  0  0
 15  9  1  0  0  0  0
 16 19  1  0  0  0  0
 17 10  1  6  0  0  0
 17  8  1  0  0  0  0
 18  6  2  0  0  0  0
 18 15  1  0  0  0  0
 20 29  1  1  0  0  0
 20 10  1  0  0  0  0
 21  4  2  0  0  0  0
 22 21  1  0  0  0  0
 25  5  1  0  0  0  0
 27 14  1  0  0  0  0
 28 23  1  0  0  0  0
 28  9  1  0  0  0  0
 29 30  1  0  0  0  0
 30 32  1  0  0  0  0
 31 30  2  0  0  0  0
M  END
>  <MODEL>
1

>  <REMARK>
 VINA RESULT:     -10.3      0.000      0.000
  Name = 
  2 active torsions:
  status: ('A' for Active; 'I' for Inactive)
    1  A    between atoms: C_20  and  C_29
    2  A    between atoms: C_29  and  C_30
                            x       y       z     vdW  Elec       q    Type
                         _______ _______ _______ _____ _____    ______ ____

>  <TORSDO>
F 2

$$$$
=
 OpenBabel11122410373D

 32 37  0  0  1  0  0  0  0  0999 V2000
  188.5200  179.1770  137.0940 C   0  0  0  0  0  2  0  0  0  0  0  0
  187.4040  177.4690  142.2110 C   0  0  1  0  0  3  0  0  0  0  0  0
  182.8340  179.0610  143.3220 C   0  0  0  0  0  3  0  0  0  0  0  0
  183.1060  178.9660  144.6850 C   0  0  0  0  0  3  0  0  0  0  0  0
  188.9900  177.0570  144.1470 C   0  0  0  0  0  0  0  0  0  0  0  0
  189.3000  177.2240  145.5710 C   0  0  0  0  0  0  0  0  0  0  0  0
  188.1480  177.4050  139.8100 C   0  0  1  0  0  3  0  0  0  0  0  0
  185.8040  178.1320  140.3990 C   0  0  0  0  0  2  0  0  0  0  0  0
  188.8870  177.8860  147.7320 N   0  0  0  0  0  0  0  0  0  0  0  0
  186.4230  178.0160  137.9910 C   0  0  0  0  0  2  0  0  0  0  0  0
  183.8580  178.8590  142.3940 C   0  0  0  0  0  3  0  0  0  0  0  0
  186.2870  178.4550  141.8170 C   0  0  1  0  0  3  0  0  0  0  0  0
  185.1590  178.5370  142.8160 C   0  0  0  0  0  0  0  0  0  0  0  0
  186.8040  178.1300  144.6590 C   0  0  0  0  0  0  0  0  0  0  0  0
  190.2260  177.2770  147.5760 C   0  0  0  0  0  2  0  0  0  0  0  0
  189.5010  178.9310  138.2540 C   0  0  0  0  0  2  0  0  0  0  0  0
  186.9480  178.2880  139.4040 C   0  0  2  0  0  3  0  0  0  0  0  0
  190.3830  176.8900  146.1660 N   0  0  0  0  0  0  0  0  0  0  0  0
  189.3720  177.5430  138.8930 C   0  0  0  0  0  2  0  0  0  0  0  0
  187.4870  178.0590  136.8910 C   0  0  1  0  0  3  0  0  0  0  0  0
  184.3990  178.6740  145.1190 C   0  0  0  0  0  3  0  0  0  0  0  0
  185.4390  178.4660  144.1950 C   0  0  0  0  0  0  0  0  0  0  0  0
  187.1040  178.2480  145.9670 C   0  0  0  0  0  3  0  0  0  0  0  0
  188.5670  177.7190  141.2440 C   0  0  0  0  0  2  0  0  0  0  0  0
  189.9520  176.2840  143.3010 C   0  0  0  0  0  1  0  0  0  0  0  0
  188.1100  176.9730  148.5570 C   0  0  0  0  0  1  0  0  0  0  0  0
  187.8160  177.5770  143.6790 C   0  0  0  0  0  0  0  0  0  0  0  0
  188.3820  177.8150  146.4290 N   0  0  0  0  0  0  0  0  0  0  0  0
  186.8040  178.2010  135.5410 C   0  0  0  0  0  2  0  0  0  0  0  0
  185.9710  177.0030  135.2410 C   0  0  0  0  0  0  0  0  0  0  0  0
  184.6040  177.1400  135.0370 O   0  0  0  0  0  0  0  0  0  0  0  0
  186.5100  175.8700  135.1420 O   0  0  0  0  0  1  0  0  0  0  0  0
  1 16  1  0  0  0  0
  2 24  1  6  0  0  0
  2 27  1  0  0  0  0
  3  4  1  0  0  0  0
  4 21  2  0  0  0  0
  5  6  1  0  0  0  0
  6 18  2  0  0  0  0
  6 28  1  0  0  0  0
  7 19  1  6  0  0  0
  7 24  1  0  0  0  0
  9 26  1  0  0  0  0
 11 13  1  0  0  0  0
 11  3  2  0  0  0  0
 12  8  1  6  0  0  0
 12  2  1  0  0  0  0
 12 13  1  0  0  0  0
 13 22  2  0  0  0  0
 14 23  2  0  0  0  0
 15  9  1  0  0  0  0
 16 19  1  0  0  0  0
 17 10  1  6  0  0  0
 17  7  1  0  0  0  0
 17  8  1  0  0  0  0
 18 15  1  0  0  0  0
 20 29  1  6  0  0  0
 20  1  1  0  0  0  0
 20 10  1  0  0  0  0
 22 14  1  0  0  0  0
 22 21  1  0  0  0  0
 23 28  1  0  0  0  0
 25  5  1  0  0  0  0
 27  5  2  0  0  0  0
 27 14  1  0  0  0  0
 28  9  1  0  0  0  0
 30 29  1  0  0  0  0
 31 30  2  0  0  0  0
 32 30  1  0  0  0  0
M  END
>  <MODEL>
2

>  <REMARK>
 VINA RESULT:     -10.1      3.198      5.647
  Name = 
  2 active torsions:
  status: ('A' for Active; 'I' for Inactive)
    1  A    between atoms: C_20  and  C_29
    2  A    between atoms: C_29  and  C_30
                            x       y       z     vdW  Elec       q    Type
                         _______ _______ _______ _____ _____    ______ ____

>  <TORSDO>
F 2

$$$$
=
 OpenBabel11122410373D

 32 37  0  0  1  0  0  0  0  0999 V2000
  192.0320  174.6720  145.9740 C   0  0  0  0  0  2  0  0  0  0  0  0
  188.3700  177.9350  143.4670 C   0  0  1  0  0  3  0  0  0  0  0  0
  184.5550  178.5240  146.5890 C   0  0  0  0  0  3  0  0  0  0  0  0
  183.7100  178.8590  145.5330 C   0  0  0  0  0  3  0  0  0  0  0  0
  187.8930  178.2060  140.9900 C   0  0  0  0  0  0  0  0  0  0  0  0
  186.9100  178.3090  139.9070 C   0  0  0  0  0  0  0  0  0  0  0  0
  190.5710  177.0920  144.3400 C   0  0  1  0  0  3  0  0  0  0  0  0
  188.6380  177.4780  145.9170 C   0  0  0  0  0  2  0  0  0  0  0  0
  184.7960  178.4350  139.0130 N   0  0  0  0  0  0  0  0  0  0  0  0
  190.8050  176.7260  146.8830 C   0  0  0  0  0  2  0  0  0  0  0  0
  185.8520  178.0780  146.3270 C   0  0  0  0  0  3  0  0  0  0  0  0
  187.6790  177.3760  144.7260 C   0  0  1  0  0  3  0  0  0  0  0  0
  186.3280  177.9850  145.0080 C   0  0  0  0  0  0  0  0  0  0  0  0
  185.9480  178.2060  142.5430 C   0  0  0  0  0  0  0  0  0  0  0  0
  185.8490  178.4320  137.9740 C   0  0  0  0  0  2  0  0  0  0  0  0
  191.7610  174.8220  144.4660 C   0  0  0  0  0  2  0  0  0  0  0  0
  189.8930  176.6520  145.6560 C   0  0  2  0  0  3  0  0  0  0  0  0
  187.1510  178.3530  138.6510 N   0  0  0  0  0  0  0  0  0  0  0  0
  191.8150  176.2710  143.9670 C   0  0  0  0  0  2  0  0  0  0  0  0
  192.1470  176.0030  146.7320 C   0  0  1  0  0  3  0  0  0  0  0  0
  184.1610  178.7450  144.2180 C   0  0  0  0  0  3  0  0  0  0  0  0
  185.4660  178.3000  143.9400 C   0  0  0  0  0  0  0  0  0  0  0  0
  185.0680  178.3270  141.5300 C   0  0  0  0  0  3  0  0  0  0  0  0
  189.5720  177.0250  143.1890 C   0  0  0  0  0  2  0  0  0  0  0  0
  189.3440  178.3140  140.6400 C   0  0  0  0  0  1  0  0  0  0  0  0
  184.1810  179.7530  138.9760 C   0  0  0  0  0  1  0  0  0  0  0  0
  187.4300  178.0640  142.2690 C   0  0  0  0  0  0  0  0  0  0  0  0
  185.5500  178.3510  140.1890 N   0  0  0  0  0  0  0  0  0  0  0  0
  192.7540  175.7840  148.1070 C   0  0  0  0  0  2  0  0  0  0  0  0
  192.8060  177.0620  148.8720 C   0  0  0  0  0  0  0  0  0  0  0  0
  193.9310  177.3760  149.6230 O   0  0  0  0  0  1  0  0  0  0  0  0
  191.8420  177.8690  148.8160 O   0  0  0  0  0  0  0  0  0  0  0  0
  1 20  1  0  0  0  0
  2 24  1  6  0  0  0
  2 12  1  0  0  0  0
  4  3  2  0  0  0  0
  5 27  2  0  0  0  0
  6 28  1  0  0  0  0
  6  5  1  0  0  0  0
  7 24  1  6  0  0  0
  7 17  1  0  0  0  0
  9 28  1  0  0  0  0
 11  3  1  0  0  0  0
 12 13  1  0  0  0  0
 12  8  1  1  0  0  0
 13 11  2  0  0  0  0
 14 22  1  0  0  0  0
 15 18  1  0  0  0  0
 15  9  1  0  0  0  0
 16  1  1  0  0  0  0
 17  8  1  1  0  0  0
 17 10  1  0  0  0  0
 18  6  2  0  0  0  0
 19  7  1  0  0  0  0
 19 16  1  0  0  0  0
 20 10  1  0  0  0  0
 20 29  1  1  0  0  0
 21  4  1  0  0  0  0
 22 21  2  0  0  0  0
 22 13  1  0  0  0  0
 23 14  2  0  0  0  0
 25  5  1  0  0  0  0
 26  9  1  0  0  0  0
 27 14  1  0  0  0  0
 27  2  1  0  0  0  0
 28 23  1  0  0  0  0
 29 30  1  0  0  0  0
 30 31  1  0  0  0  0
 32 30  2  0  0  0  0
M  END
>  <MODEL>
3

>  <REMARK>
 VINA RESULT:     -10.0      3.942      6.539
  Name = 
  2 active torsions:
  status: ('A' for Active; 'I' for Inactive)
    1  A    between atoms: C_20  and  C_29
    2  A    between atoms: C_29  and  C_30
                            x       y       z     vdW  Elec       q    Type
                         _______ _______ _______ _____ _____    ______ ____

>  <TORSDO>
F 2

$$$$
=
 OpenBabel11122410373D

 32 37  0  0  1  0  0  0  0  0999 V2000
  179.7420  178.0410  142.1270 C   0  0  0  0  0  2  0  0  0  0  0  0
  184.9980  178.7830  143.6030 C   0  0  1  0  0  3  0  0  0  0  0  0
  187.7570  178.2530  139.5110 C   0  0  0  0  0  3  0  0  0  0  0  0
  188.8840  177.9620  140.2780 C   0  0  0  0  0  3  0  0  0  0  0  0
  186.1210  178.3120  145.8280 C   0  0  0  0  0  0  0  0  0  0  0  0
  187.2600  177.7510  146.5640 C   0  0  0  0  0  0  0  0  0  0  0  0
  182.5260  179.1880  143.3910 C   0  0  1  0  0  3  0  0  0  0  0  0
  183.9670  178.9950  141.3280 C   0  0  0  0  0  2  0  0  0  0  0  0
  189.3180  176.7520  146.7750 N   0  0  0  0  0  0  0  0  0  0  0  0
  181.5460  179.4840  141.0220 C   0  0  0  0  0  2  0  0  0  0  0  0
  186.5110  178.3790  140.1270 C   0  0  0  0  0  3  0  0  0  0  0  0
  185.0130  178.2440  142.1590 C   0  0  1  0  0  3  0  0  0  0  0  0
  186.3780  178.2410  141.5190 C   0  0  0  0  0  0  0  0  0  0  0  0
  187.3930  177.7700  143.7590 C   0  0  0  0  0  0  0  0  0  0  0  0
  188.6760  177.0030  148.0840 C   0  0  0  0  0  2  0  0  0  0  0  0
  180.4030  177.7490  143.4860 C   0  0  0  0  0  2  0  0  0  0  0  0
  182.5740  178.7700  141.9050 C   0  0  2  0  0  3  0  0  0  0  0  0
  187.3760  177.6420  147.8340 N   0  0  0  0  0  0  0  0  0  0  0  0
  181.1710  178.9410  144.0710 C   0  0  0  0  0  2  0  0  0  0  0  0
  180.1030  179.4090  141.5290 C   0  0  1  0  0  3  0  0  0  0  0  0
  188.7620  177.7950  141.6570 C   0  0  0  0  0  3  0  0  0  0  0  0
  187.5130  177.9220  142.2910 C   0  0  0  0  0  0  0  0  0  0  0  0
  188.4370  177.2850  144.4600 C   0  0  0  0  0  3  0  0  0  0  0  0
  183.6130  178.4590  144.1750 C   0  0  0  0  0  2  0  0  0  0  0  0
  185.0310  178.9720  146.6110 C   0  0  0  0  0  1  0  0  0  0  0  0
  190.4790  177.6280  146.7090 C   0  0  0  0  0  1  0  0  0  0  0  0
  186.1390  178.2410  144.4630 C   0  0  0  0  0  0  0  0  0  0  0  0
  188.3610  177.2470  145.8830 N   0  0  0  0  0  0  0  0  0  0  0  0
  179.1570  179.7620  140.3930 C   0  0  0  0  0  2  0  0  0  0  0  0
  179.3030  181.1940  140.0070 C   0  0  0  0  0  0  0  0  0  0  0  0
  179.8220  181.5280  138.7630 O   0  0  0  0  0  0  0  0  0  0  0  0
  178.9310  182.1000  140.7970 O   0  0  0  0  0  1  0  0  0  0  0  0
  1 16  1  0  0  0  0
  2 24  1  1  0  0  0
  2 27  1  0  0  0  0
  3 11  2  0  0  0  0
  3  4  1  0  0  0  0
  4 21  2  0  0  0  0
  5  6  1  0  0  0  0
  5 25  1  0  0  0  0
  6 18  2  0  0  0  0
  7 19  1  1  0  0  0
  7 24  1  0  0  0  0
  8 17  1  0  0  0  0
  9 15  1  0  0  0  0
 10 20  1  0  0  0  0
 11 13  1  0  0  0  0
 12  8  1  6  0  0  0
 12  2  1  0  0  0  0
 13 12  1  0  0  0  0
 13 22  2  0  0  0  0
 14 23  2  0  0  0  0
 14 27  1  0  0  0  0
 16 19  1  0  0  0  0
 17 10  1  6  0  0  0
 17  7  1  0  0  0  0
 18 15  1  0  0  0  0
 20 29  1  6  0  0  0
 20  1  1  0  0  0  0
 21 22  1  0  0  0  0
 22 14  1  0  0  0  0
 23 28  1  0  0  0  0
 26  9  1  0  0  0  0
 27  5  2  0  0  0  0
 28  6  1  0  0  0  0
 28  9  1  0  0  0  0
 30 29  1  0  0  0  0
 30 32  1  0  0  0  0
 31 30  2  0  0  0  0
M  END
>  <MODEL>
4

>  <REMARK>
 VINA RESULT:      -9.9      4.899      8.768
  Name = 
  2 active torsions:
  status: ('A' for Active; 'I' for Inactive)
    1  A    between atoms: C_20  and  C_29
    2  A    between atoms: C_29  and  C_30
                            x       y       z     vdW  Elec       q    Type
                         _______ _______ _______ _____ _____    ______ ____

>  <TORSDO>
F 2

$$$$
=
 OpenBabel11122410373D

 32 37  0  0  1  0  0  0  0  0999 V2000
  181.6120  178.0020  139.9000 C   0  0  0  0  0  2  0  0  0  0  0  0
  186.1910  178.6330  142.8980 C   0  0  1  0  0  3  0  0  0  0  0  0
  190.0380  177.6370  139.9220 C   0  0  0  0  0  3  0  0  0  0  0  0
  190.8490  177.3620  141.0210 C   0  0  0  0  0  3  0  0  0  0  0  0
  186.5360  178.3020  145.3890 C   0  0  0  0  0  0  0  0  0  0  0  0
  187.3510  177.7560  146.4800 C   0  0  0  0  0  0  0  0  0  0  0  0
  183.9400  179.1280  141.8940 C   0  0  1  0  0  3  0  0  0  0  0  0
  185.9320  178.6970  140.4050 C   0  0  0  0  0  2  0  0  0  0  0  0
  189.1690  176.6880  147.3920 N   0  0  0  0  0  0  0  0  0  0  0  0
  183.7630  179.2650  139.3240 C   0  0  0  0  0  2  0  0  0  0  0  0
  188.6740  177.8700  140.1060 C   0  0  0  0  0  3  0  0  0  0  0  0
  186.6150  177.9730  141.5710 C   0  0  1  0  0  3  0  0  0  0  0  0
  188.1080  177.8560  141.3930 C   0  0  0  0  0  0  0  0  0  0  0  0
  188.3460  177.5310  143.8640 C   0  0  0  0  0  0  0  0  0  0  0  0
  188.1730  177.0760  148.4140 C   0  0  0  0  0  2  0  0  0  0  0  0
  181.7990  177.7980  141.4140 C   0  0  0  0  0  2  0  0  0  0  0  0
  184.4170  178.5840  140.5300 C   0  0  2  0  0  3  0  0  0  0  0  0
  187.0610  177.7490  147.7270 N   0  0  0  0  0  0  0  0  0  0  0  0
  182.4270  178.9990  142.1310 C   0  0  0  0  0  2  0  0  0  0  0  0
  182.2330  179.2980  139.3560 C   0  0  1  0  0  3  0  0  0  0  0  0
  190.2960  177.3180  142.3010 C   0  0  0  0  0  3  0  0  0  0  0  0
  188.9240  177.5540  142.5010 C   0  0  0  0  0  0  0  0  0  0  0  0
  189.0860  177.0610  144.8870 C   0  0  0  0  0  3  0  0  0  0  0  0
  184.6790  178.4200  143.0270 C   0  0  0  0  0  2  0  0  0  0  0  0
  185.3050  179.0740  145.7450 C   0  0  0  0  0  1  0  0  0  0  0  0
  190.3510  177.5030  147.6350 C   0  0  0  0  0  1  0  0  0  0  0  0
  186.9710  178.1160  144.1060 C   0  0  0  0  0  0  0  0  0  0  0  0
  188.5710  177.1470  146.2140 N   0  0  0  0  0  0  0  0  0  0  0  0
  181.7110  179.5950  137.9600 C   0  0  0  0  0  2  0  0  0  0  0  0
  181.0730  180.9410  137.9090 C   0  0  0  0  0  0  0  0  0  0  0  0
  180.8040  181.6280  139.0850 O   0  0  0  0  0  1  0  0  0  0  0  0
  180.8050  181.4680  136.7980 O   0  0  0  0  0  0  0  0  0  0  0  0
  1 16  1  0  0  0  0
  2 24  1  1  0  0  0
  2 27  1  0  0  0  0
  3 11  2  0  0  0  0
  3  4  1  0  0  0  0
  4 21  2  0  0  0  0
  5 25  1  0  0  0  0
  5  6  1  0  0  0  0
  6 18  2  0  0  0  0
  7 19  1  1  0  0  0
  7 24  1  0  0  0  0
  8 17  1  0  0  0  0
  9 26  1  0  0  0  0
  9 15  1  0  0  0  0
 10 20  1  0  0  0  0
 11 13  1  0  0  0  0
 12  8  1  6  0  0  0
 12  2  1  0  0  0  0
 13 12  1  0  0  0  0
 13 22  2  0  0  0  0
 14 27  1  0  0  0  0
 14 23  2  0  0  0  0
 16 19  1  0  0  0  0
 17 10  1  6  0  0  0
 17  7  1  0  0  0  0
 18 15  1  0  0  0  0
 20 29  1  6  0  0  0
 20  1  1  0  0  0  0
 21 22  1  0  0  0  0
 22 14  1  0  0  0  0
 23 28  1  0  0  0  0
 27  5  2  0  0  0  0
 28  6  1  0  0  0  0
 28  9  1  0  0  0  0
 30 29  1  0  0  0  0
 30 31  1  0  0  0  0
 32 30  2  0  0  0  0
M  END
>  <MODEL>
5

>  <REMARK>
 VINA RESULT:      -9.8      4.560      7.473
  Name = 
  2 active torsions:
  status: ('A' for Active; 'I' for Inactive)
    1  A    between atoms: C_20  and  C_29
    2  A    between atoms: C_29  and  C_30
                            x       y       z     vdW  Elec       q    Type
                         _______ _______ _______ _____ _____    ______ ____

>  <TORSDO>
F 2

$$$$
=
 OpenBabel11122410373D

 32 37  0  0  1  0  0  0  0  0999 V2000
  190.6270  176.0020  138.7340 C   0  0  0  0  0  2  0  0  0  0  0  0
  186.4920  178.6010  141.2830 C   0  0  1  0  0  3  0  0  0  0  0  0
  187.1680  177.9910  146.1640 C   0  0  0  0  0  3  0  0  0  0  0  0
  185.8170  178.2350  146.4060 C   0  0  0  0  0  3  0  0  0  0  0  0
  184.1210  179.0120  140.4840 C   0  0  0  0  0  0  0  0  0  0  0  0
  182.6820  179.0030  140.7700 C   0  0  0  0  0  0  0  0  0  0  0  0
  188.4040  178.1880  139.7030 C   0  0  1  0  0  3  0  0  0  0  0  0
  188.7390  177.9650  142.1950 C   0  0  0  0  0  2  0  0  0  0  0  0
  180.8200  178.7420  142.0900 N   0  0  0  0  0  0  0  0  0  0  0  0
  190.7100  177.6230  140.7140 C   0  0  0  0  0  2  0  0  0  0  0  0
  187.6290  177.8780  144.8510 C   0  0  0  0  0  3  0  0  0  0  0  0
  187.2270  177.7730  142.3570 C   0  0  1  0  0  3  0  0  0  0  0  0
  186.7510  178.0310  143.7640 C   0  0  0  0  0  0  0  0  0  0  0  0
  184.4400  178.4140  142.8780 C   0  0  0  0  0  0  0  0  0  0  0  0
  180.4760  179.0840  140.6930 C   0  0  0  0  0  2  0  0  0  0  0  0
  189.1940  176.2430  138.2280 C   0  0  0  0  0  2  0  0  0  0  0  0
  189.1900  177.4730  140.8240 C   0  0  2  0  0  3  0  0  0  0  0  0
  181.7320  179.2290  139.9420 N   0  0  0  0  0  0  0  0  0  0  0  0
  188.7530  177.7110  138.2860 C   0  0  0  0  0  2  0  0  0  0  0  0
  191.2960  177.2390  139.3520 C   0  0  1  0  0  3  0  0  0  0  0  0
  184.9300  178.3620  145.3380 C   0  0  0  0  0  3  0  0  0  0  0  0
  185.3820  178.2530  144.0100 C   0  0  0  0  0  0  0  0  0  0  0  0
  183.1150  178.4380  143.1200 C   0  0  0  0  0  3  0  0  0  0  0  0
  186.9040  178.0180  139.9260 C   0  0  0  0  0  2  0  0  0  0  0  0
  184.5690  179.4780  139.1350 C   0  0  0  0  0  1  0  0  0  0  0  0
  180.4310  179.8850  142.9040 C   0  0  0  0  0  1  0  0  0  0  0  0
  184.9770  178.6380  141.4810 C   0  0  0  0  0  0  0  0  0  0  0  0
  182.2170  178.7090  142.0460 N   0  0  0  0  0  0  0  0  0  0  0  0
  192.7930  177.0210  139.4970 C   0  0  0  0  0  2  0  0  0  0  0  0
  193.3580  176.3990  138.2670 C   0  0  0  0  0  0  0  0  0  0  0  0
  192.8640  176.7530  137.0190 O   0  0  0  0  0  0  0  0  0  0  0  0
  194.3040  175.5730  138.3570 O   0  0  0  0  0  1  0  0  0  0  0  0
  1 20  1  0  0  0  0
  2 24  1  6  0  0  0
  2 27  1  0  0  0  0
  2 12  1  0  0  0  0
  3  4  1  0  0  0  0
  5  6  1  0  0  0  0
  5 27  2  0  0  0  0
  6 28  1  0  0  0  0
  7 19  1  6  0  0  0
  7 24  1  0  0  0  0
  7 17  1  0  0  0  0
  9 26  1  0  0  0  0
 11  3  2  0  0  0  0
 12  8  1  1  0  0  0
 12 13  1  0  0  0  0
 13 22  2  0  0  0  0
 13 11  1  0  0  0  0
 14 23  2  0  0  0  0
 14 22  1  0  0  0  0
 15  9  1  0  0  0  0
 16 19  1  0  0  0  0
 16  1  1  0  0  0  0
 17 10  1  6  0  0  0
 17  8  1  0  0  0  0
 18 15  1  0  0  0  0
 18  6  2  0  0  0  0
 20 29  1  1  0  0  0
 20 10  1  0  0  0  0
 21  4  2  0  0  0  0
 22 21  1  0  0  0  0
 25  5  1  0  0  0  0
 27 14  1  0  0  0  0
 28  9  1  0  0  0  0
 28 23  1  0  0  0  0
 30 32  1  0  0  0  0
 30 29  1  0  0  0  0
 31 30  2  0  0  0  0
M  END
>  <MODEL>
6

>  <REMARK>
 VINA RESULT:      -9.7      1.924      3.226
  Name = 
  2 active torsions:
  status: ('A' for Active; 'I' for Inactive)
    1  A    between atoms: C_20  and  C_29
    2  A    between atoms: C_29  and  C_30
                            x       y       z     vdW  Elec       q    Type
                         _______ _______ _______ _____ _____    ______ ____

>  <TORSDO>
F 2

$$$$
=
 OpenBabel11122410373D

 32 37  0  0  1  0  0  0  0  0999 V2000
  187.1660  178.9660  147.5110 C   0  0  0  0  0  2  0  0  0  0  0  0
  184.9990  178.0950  142.5220 C   0  0  1  0  0  3  0  0  0  0  0  0
  188.7730  177.8730  139.3040 C   0  0  0  0  0  3  0  0  0  0  0  0
  187.9230  178.1940  138.2470 C   0  0  0  0  0  3  0  0  0  0  0  0
  182.7380  178.7960  141.6100 C   0  0  0  0  0  0  0  0  0  0  0  0
  181.9530  179.3780  140.5150 C   0  0  0  0  0  0  0  0  0  0  0  0
  185.4460  177.8260  144.9810 C   0  0  1  0  0  3  0  0  0  0  0  0
  187.3320  177.6380  143.3150 C   0  0  0  0  0  2  0  0  0  0  0  0
  181.6330  180.2600  138.4180 N   0  0  0  0  0  0  0  0  0  0  0  0
  187.8540  177.2700  145.7200 C   0  0  0  0  0  2  0  0  0  0  0  0
  188.2970  177.9150  140.6160 C   0  0  0  0  0  3  0  0  0  0  0  0
  186.4890  178.4270  142.3080 C   0  0  1  0  0  3  0  0  0  0  0  0
  186.9590  178.2530  140.8850 C   0  0  0  0  0  0  0  0  0  0  0  0
  184.6960  178.9630  140.0830 C   0  0  0  0  0  0  0  0  0  0  0  0
  180.3870  180.2360  139.2150 C   0  0  0  0  0  2  0  0  0  0  0  0
  185.7890  179.3990  146.9790 C   0  0  0  0  0  2  0  0  0  0  0  0
  186.9570  178.0300  144.7390 C   0  0  2  0  0  3  0  0  0  0  0  0
  180.7030  179.6540  140.5280 N   0  0  0  0  0  0  0  0  0  0  0  0
  184.9670  178.2530  146.3770 C   0  0  0  0  0  2  0  0  0  0  0  0
  187.5350  177.5070  147.1990 C   0  0  1  0  0  3  0  0  0  0  0  0
  186.6010  178.5580  138.5020 C   0  0  0  0  0  3  0  0  0  0  0  0
  186.1080  178.6010  139.8190 C   0  0  0  0  0  0  0  0  0  0  0  0
  183.9470  179.4710  139.0850 C   0  0  0  0  0  3  0  0  0  0  0  0
  184.6410  178.5850  143.9290 C   0  0  0  0  0  2  0  0  0  0  0  0
  182.0090  178.3230  142.8270 C   0  0  0  0  0  1  0  0  0  0  0  0
  181.4480  179.3100  137.3310 C   0  0  0  0  0  1  0  0  0  0  0  0
  184.0890  178.6750  141.4390 C   0  0  0  0  0  0  0  0  0  0  0  0
  182.5590  179.7100  139.3100 N   0  0  0  0  0  0  0  0  0  0  0  0
  188.7180  177.0630  148.0430 C   0  0  0  0  0  2  0  0  0  0  0  0
  189.9560  176.9840  147.2180 C   0  0  0  0  0  0  0  0  0  0  0  0
  190.2680  178.0080  146.3340 O   0  0  0  0  0  0  0  0  0  0  0  0
  190.7350  176.0030  147.3430 O   0  0  0  0  0  1  0  0  0  0  0  0
  2 24  1  1  0  0  0
  3 11  1  0  0  0  0
  4 21  1  0  0  0  0
  4  3  2  0  0  0  0
  5 25  1  0  0  0  0
  6 18  2  0  0  0  0
  6  5  1  0  0  0  0
  7 24  1  6  0  0  0
  7 19  1  0  0  0  0
  9 15  1  0  0  0  0
  9 28  1  0  0  0  0
 10 20  1  0  0  0  0
 11 13  2  0  0  0  0
 12  2  1  0  0  0  0
 12  8  1  1  0  0  0
 13 12  1  0  0  0  0
 14 27  1  0  0  0  0
 15 18  1  0  0  0  0
 16  1  1  0  0  0  0
 17  8  1  6  0  0  0
 17  7  1  0  0  0  0
 17 10  1  0  0  0  0
 19 16  1  0  0  0  0
 20  1  1  0  0  0  0
 20 29  1  1  0  0  0
 21 22  2  0  0  0  0
 22 14  1  0  0  0  0
 22 13  1  0  0  0  0
 23 28  1  0  0  0  0
 23 14  2  0  0  0  0
 26  9  1  0  0  0  0
 27  5  2  0  0  0  0
 27  2  1  0  0  0  0
 28  6  1  0  0  0  0
 30 32  1  0  0  0  0
 30 29  1  0  0  0  0
 31 30  2  0  0  0  0
M  END
>  <MODEL>
7

>  <REMARK>
 VINA RESULT:      -9.3      3.815      7.433
  Name = 
  2 active torsions:
  status: ('A' for Active; 'I' for Inactive)
    1  A    between atoms: C_20  and  C_29
    2  A    between atoms: C_29  and  C_30
                            x       y       z     vdW  Elec       q    Type
                         _______ _______ _______ _____ _____    ______ ____

>  <TORSDO>
F 2

$$$$
=
 OpenBabel11122410373D

 32 37  0  0  1  0  0  0  0  0999 V2000
  186.7800  176.9100  143.9430 C   0  0  0  0  0  2  0  0  0  0  0  0
  189.8530  177.6210  139.4260 C   0  0  1  0  0  3  0  0  0  0  0  0
  186.7330  178.1320  135.5980 C   0  0  0  0  0  3  0  0  0  0  0  0
  187.7300  177.7490  134.7020 C   0  0  0  0  0  3  0  0  0  0  0  0
  192.1810  176.7520  138.9160 C   0  0  0  0  0  0  0  0  0  0  0  0
  193.1010  176.1140  137.9690 C   0  0  0  0  0  0  0  0  0  0  0  0
  189.0000  177.9200  141.7720 C   0  0  1  0  0  3  0  0  0  0  0  0
  187.4570  178.2530  139.8030 C   0  0  0  0  0  2  0  0  0  0  0  0
  193.7200  175.2120  135.9480 N   0  0  0  0  0  0  0  0  0  0  0  0
  186.5470  178.6560  142.0840 C   0  0  0  0  0  2  0  0  0  0  0  0
  186.9660  178.0530  136.9730 C   0  0  0  0  0  3  0  0  0  0  0  0
  188.4040  177.4030  138.9480 C   0  0  1  0  0  3  0  0  0  0  0  0
  188.2060  177.6140  137.4680 C   0  0  0  0  0  0  0  0  0  0  0  0
  190.5160  176.7360  137.0660 C   0  0  0  0  0  0  0  0  0  0  0  0
  194.8040  175.1410  136.9520 C   0  0  0  0  0  2  0  0  0  0  0  0
  188.1940  176.3750  143.6550 C   0  0  0  0  0  2  0  0  0  0  0  0
  187.5440  177.8310  141.2660 C   0  0  2  0  0  3  0  0  0  0  0  0
  194.3050  175.7440  138.1970 N   0  0  0  0  0  0  0  0  0  0  0  0
  189.1920  177.4560  143.2240 C   0  0  0  0  0  2  0  0  0  0  0  0
  186.5820  178.3930  143.5930 C   0  0  1  0  0  3  0  0  0  0  0  0
  188.9550  177.2860  135.1810 C   0  0  0  0  0  3  0  0  0  0  0  0
  189.2040  177.2040  136.5630 C   0  0  0  0  0  0  0  0  0  0  0  0
  191.3900  176.1740  136.2090 C   0  0  0  0  0  3  0  0  0  0  0  0
  189.9190  177.1040  140.8680 C   0  0  0  0  0  2  0  0  0  0  0  0
  192.7160  177.1670  140.2500 C   0  0  0  0  0  1  0  0  0  0  0  0
  194.1640  176.1470  134.9250 C   0  0  0  0  0  1  0  0  0  0  0  0
  190.8940  176.9750  138.5120 C   0  0  0  0  0  0  0  0  0  0  0  0
  192.6940  175.8300  136.6710 N   0  0  0  0  0  0  0  0  0  0  0  0
  185.3050  178.9240  144.2210 C   0  0  0  0  0  2  0  0  0  0  0  0
  185.3320  178.7520  145.7010 C   0  0  0  0  0  0  0  0  0  0  0  0
  186.5430  178.7600  146.3800 O   0  0  0  0  0  1  0  0  0  0  0  0
  184.2550  178.6290  146.3410 O   0  0  0  0  0  0  0  0  0  0  0  0
  2 24  1  1  0  0  0
  3 11  1  0  0  0  0
  4 21  1  0  0  0  0
  4  3  2  0  0  0  0
  5 25  1  0  0  0  0
  6 18  2  0  0  0  0
  6  5  1  0  0  0  0
  7 24  1  6  0  0  0
  7 19  1  0  0  0  0
  9 28  1  0  0  0  0
  9 15  1  0  0  0  0
 10 20  1  0  0  0  0
 11 13  2  0  0  0  0
 12  2  1  0  0  0  0
 12  8  1  1  0  0  0
 13 12  1  0  0  0  0
 14 27  1  0  0  0  0
 15 18  1  0  0  0  0
 16  1  1  0  0  0  0
 17  8  1  6  0  0  0
 17  7  1  0  0  0  0
 17 10  1  0  0  0  0
 19 16  1  0  0  0  0
 20  1  1  0  0  0  0
 20 29  1  6  0  0  0
 21 22  2  0  0  0  0
 22 14  1  0  0  0  0
 22 13  1  0  0  0  0
 23 28  1  0  0  0  0
 23 14  2  0  0  0  0
 26  9  1  0  0  0  0
 27  5  2  0  0  0  0
 27  2  1  0  0  0  0
 28  6  1  0  0  0  0
 29 30  1  0  0  0  0
 30 32  2  0  0  0  0
 30 31  1  0  0  0  0
M  END
>  <MODEL>
8

>  <REMARK>
 VINA RESULT:      -9.1      5.000      9.255
  Name = 
  2 active torsions:
  status: ('A' for Active; 'I' for Inactive)
    1  A    between atoms: C_20  and  C_29
    2  A    between atoms: C_29  and  C_30
                            x       y       z     vdW  Elec       q    Type
                         _______ _______ _______ _____ _____    ______ ____

>  <TORSDO>
F 2

$$$$
=
 OpenBabel11122410373D

 32 37  0  0  1  0  0  0  0  0999 V2000
  182.3100  180.6780  139.0000 C   0  0  0  0  0  2  0  0  0  0  0  0
  185.9840  177.9820  142.0950 C   0  0  1  0  0  3  0  0  0  0  0  0
  184.5560  178.4740  146.8250 C   0  0  0  0  0  3  0  0  0  0  0  0
  185.8510  178.2130  147.2690 C   0  0  0  0  0  3  0  0  0  0  0  0
  188.4490  177.5700  141.6660 C   0  0  0  0  0  0  0  0  0  0  0  0
  189.8260  177.5600  142.1730 C   0  0  0  0  0  0  0  0  0  0  0  0
  184.3450  178.4500  140.2480 C   0  0  1  0  0  3  0  0  0  0  0  0
  183.6250  178.6130  142.6610 C   0  0  0  0  0  2  0  0  0  0  0  0
  191.4600  177.7720  143.7750 N   0  0  0  0  0  0  0  0  0  0  0  0
  181.9120  179.0080  140.9000 C   0  0  0  0  0  2  0  0  0  0  0  0
  184.3060  178.6240  145.4590 C   0  0  0  0  0  3  0  0  0  0  0  0
  185.0940  178.7880  143.0620 C   0  0  1  0  0  3  0  0  0  0  0  0
  185.3430  178.4910  144.5190 C   0  0  0  0  0  0  0  0  0  0  0  0
  187.7620  178.1110  143.9960 C   0  0  0  0  0  0  0  0  0  0  0  0
  192.0160  177.4630  142.4400 C   0  0  0  0  0  2  0  0  0  0  0  0
  183.8040  180.4380  138.7180 C   0  0  0  0  0  2  0  0  0  0  0  0
  183.3960  179.1430  141.2500 C   0  0  2  0  0  3  0  0  0  0  0  0
  190.8930  177.3470  141.4990 N   0  0  0  0  0  0  0  0  0  0  0  0
  184.2240  178.9650  138.8060 C   0  0  0  0  0  2  0  0  0  0  0  0
  181.5470  179.4310  139.4740 C   0  0  1  0  0  3  0  0  0  0  0  0
  186.8930  178.1050  146.3490 C   0  0  0  0  0  3  0  0  0  0  0  0
  186.6560  178.2510  144.9700 C   0  0  0  0  0  0  0  0  0  0  0  0
  189.0330  178.0700  144.4410 C   0  0  0  0  0  3  0  0  0  0  0  0
  185.7920  178.6010  140.7060 C   0  0  0  0  0  2  0  0  0  0  0  0
  188.2150  177.1420  140.2520 C   0  0  0  0  0  1  0  0  0  0  0  0
  191.7120  176.6060  144.6090 C   0  0  0  0  0  1  0  0  0  0  0  0
  187.4490  177.9260  142.5270 C   0  0  0  0  0  0  0  0  0  0  0  0
  190.0870  177.8180  143.5130 N   0  0  0  0  0  0  0  0  0  0  0  0
  180.0470  179.6580  139.3880 C   0  0  0  0  0  2  0  0  0  0  0  0
  179.6880  181.0150  139.8860 C   0  0  0  0  0  0  0  0  0  0  0  0
  179.3290  182.0120  138.9890 O   0  0  0  0  0  0  0  0  0  0  0  0
  179.6810  181.2510  141.1230 O   0  0  0  0  0  1  0  0  0  0  0  0
  1 20  1  0  0  0  0
  2 24  1  6  0  0  0
  2 27  1  0  0  0  0
  2 12  1  0  0  0  0
  3  4  1  0  0  0  0
  5  6  1  0  0  0  0
  5 27  2  0  0  0  0
  6 28  1  0  0  0  0
  7 19  1  6  0  0  0
  7 24  1  0  0  0  0
  7 17  1  0  0  0  0
  9 26  1  0  0  0  0
 11  3  2  0  0  0  0
 12  8  1  6  0  0  0
 12 13  1  0  0  0  0
 13 22  2  0  0  0  0
 13 11  1  0  0  0  0
 14 23  2  0  0  0  0
 14 22  1  0  0  0  0
 15  9  1  0  0  0  0
 16 19  1  0  0  0  0
 16  1  1  0  0  0  0
 17 10  1  6  0  0  0
 17  8  1  0  0  0  0
 18  6  2  0  0  0  0
 18 15  1  0  0  0  0
 20 29  1  1  0  0  0
 20 10  1  0  0  0  0
 21  4  2  0  0  0  0
 22 21  1  0  0  0  0
 25  5  1  0  0  0  0
 27 14  1  0  0  0  0
 28  9  1  0  0  0  0
 28 23  1  0  0  0  0
 29 30  1  0  0  0  0
 30 32  1  0  0  0  0
 31 30  2  0  0  0  0
M  END
>  <MODEL>
9

>  <REMARK>
 VINA RESULT:      -8.9      5.061      8.139
  Name = 
  2 active torsions:
  status: ('A' for Active; 'I' for Inactive)
    1  A    between atoms: C_20  and  C_29
    2  A    between atoms: C_29  and  C_30
                            x       y       z     vdW  Elec       q    Type
                         _______ _______ _______ _____ _____    ______ ____

>  <TORSDO>
F 2

$$$$
