=
 OpenBabel11122410343D

 30 35  0  0  1  0  0  0  0  0999 V2000
  189.3690  176.8830  143.1800 C   0  0  0  0  0  0  0  0  0  0  0  0
  191.3450  176.3750  144.5460 C   0  0  0  0  0  0  0  0  0  0  0  0
  187.1790  177.8780  146.6680 N   0  0  0  0  0  0  0  0  0  0  0  0
  187.9030  177.3010  143.0290 C   0  0  0  0  0  0  0  0  0  0  0  0
  190.1040  176.5760  141.8920 C   0  0  0  0  0  2  0  0  0  0  0  0
  188.4100  178.8280  139.7450 O   0  0  0  0  0  0  0  0  0  0  0  0
  185.1680  178.0020  142.2850 C   0  0  1  0  0  3  0  0  0  0  0  0
  188.4640  178.0730  140.7050 C   0  0  0  0  0  0  0  0  0  0  0  0
  185.0150  178.2360  143.7100 N   0  0  0  0  0  0  0  0  0  0  0  0
  186.0370  178.1710  146.1240 C   0  0  2  0  0  3  0  0  0  0  0  0
  189.2530  176.7830  140.6320 C   0  0  1  0  0  3  0  0  0  0  0  0
  187.7510  178.4320  141.9900 C   0  0  1  0  0  3  0  0  0  0  0  0
  191.9200  176.2920  145.7760 N   0  0  0  0  0  0  0  0  0  0  0  0
  183.6620  178.5900  144.0850 C   0  0  0  0  0  2  0  0  0  0  0  0
  183.8280  178.3660  141.6620 C   0  0  0  0  0  2  0  0  0  0  0  0
  192.1090  176.0380  143.4780 F   0  0  0  0  0  0  0  0  0  0  0  0
  188.0260  177.5390  145.5720 C   0  0  0  0  0  0  0  0  0  0  0  0
  191.2530  176.5990  146.9150 C   0  0  0  0  0  3  0  0  0  0  0  0
  189.9910  176.7930  144.4080 C   0  0  0  0  0  0  0  0  0  0  0  0
  187.3100  177.6660  144.3450 C   0  0  0  0  0  0  0  0  0  0  0  0
  184.8550  178.5840  146.9300 C   0  0  0  0  0  1  0  0  0  0  0  0
  186.0790  178.0340  144.6560 C   0  0  0  0  0  0  0  0  0  0  0  0
  182.8390  178.4790  142.8140 C   0  0  0  0  0  2  0  0  0  0  0  0
  186.0830  179.8740  141.1440 O   0  0  0  0  0  0  0  0  0  0  0  0
  189.9320  177.0180  146.8540 C   0  0  0  0  0  3  0  0  0  0  0  0
  189.2940  177.1240  145.6170 C   0  0  0  0  0  0  0  0  0  0  0  0
  186.3100  178.8260  141.7320 C   0  0  0  0  0  0  0  0  0  0  0  0
  190.0920  176.6290  139.3600 C   0  0  0  0  0  2  0  0  0  0  0  0
  192.3860  176.5220  138.4290 C   0  0  0  0  0  1  0  0  0  0  0  0
  191.5390  177.0530  139.5660 C   0  0  0  0  0  2  0  0  0  0  0  0
  1 19  1  0  0  0  0
  2 13  1  0  0  0  0
  4  1  2  0  0  0  0
  4 20  1  0  0  0  0
  5  1  1  0  0  0  0
  6  8  2  0  0  0  0
  7 15  1  6  0  0  0
  7  9  1  0  0  0  0
  9 14  1  0  0  0  0
  9 22  1  0  0  0  0
 10  3  1  0  0  0  0
 10 21  1  1  0  0  0
 11 28  1  6  0  0  0
 11  8  1  0  0  0  0
 11  5  1  0  0  0  0
 12  8  1  6  0  0  0
 12  4  1  0  0  0  0
 13 18  2  0  0  0  0
 15 23  1  0  0  0  0
 16  2  1  0  0  0  0
 17 26  1  0  0  0  0
 17  3  2  0  0  0  0
 19  2  2  0  0  0  0
 19 26  1  0  0  0  0
 20 22  2  0  0  0  0
 20 17  1  0  0  0  0
 22 10  1  0  0  0  0
 23 14  1  0  0  0  0
 24 27  2  0  0  0  0
 25 18  1  0  0  0  0
 26 25  2  0  0  0  0
 27 12  1  0  0  0  0
 27  7  1  0  0  0  0
 28 30  1  0  0  0  0
 29 30  1  0  0  0  0
M  END
>  <MODEL>
1

>  <REMARK>
 VINA RESULT:     -11.4      0.000      0.000
  Name = 
  2 active torsions:
  status: ('A' for Active; 'I' for Inactive)
    1  A    between atoms: C_11  and  C_28
    2  A    between atoms: C_28  and  C_30
                            x       y       z     vdW  Elec       q    Type
                         _______ _______ _______ _____ _____    ______ ____

>  <TORSDO>
F 2

$$$$
=
 OpenBabel11122410343D

 30 35  0  0  1  0  0  0  0  0999 V2000
  187.7470  177.6290  145.1410 C   0  0  0  0  0  0  0  0  0  0  0  0
  185.7930  178.2350  146.4990 C   0  0  0  0  0  0  0  0  0  0  0  0
  185.6350  178.6260  141.6060 N   0  0  0  0  0  0  0  0  0  0  0  0
  188.4470  177.4370  143.7920 C   0  0  0  0  0  0  0  0  0  0  0  0
  188.5710  177.2890  146.3660 C   0  0  0  0  0  2  0  0  0  0  0  0
  191.7760  178.1490  145.1280 O   0  0  0  0  0  0  0  0  0  0  0  0
  190.1350  176.8910  141.4720 C   0  0  1  0  0  3  0  0  0  0  0  0
  190.6330  177.7370  144.9940 C   0  0  0  0  0  0  0  0  0  0  0  0
  188.9990  177.4110  140.7300 N   0  0  0  0  0  0  0  0  0  0  0  0
  186.5460  178.3380  140.7270 C   0  0  0  0  0  0  0  0  0  0  0  0
  190.0030  176.8460  146.0430 C   0  0  1  0  0  3  0  0  0  0  0  0
  189.8260  178.1320  143.7770 C   0  0  1  0  0  3  0  0  0  0  0  0
  184.5100  178.6820  146.5580 N   0  0  0  0  0  0  0  0  0  0  0  0
  189.1770  177.3360  139.2960 C   0  0  0  0  0  2  0  0  0  0  0  0
  191.1970  176.5750  140.4300 C   0  0  0  0  0  2  0  0  0  0  0  0
  186.4020  177.9350  147.6720 F   0  0  0  0  0  0  0  0  0  0  0  0
  186.2450  178.3460  142.8640 C   0  0  2  0  0  3  0  0  0  0  0  0
  183.8000  179.0090  145.4510 C   0  0  0  0  0  3  0  0  0  0  0  0
  186.4500  178.0870  145.2440 C   0  0  0  0  0  0  0  0  0  0  0  0
  187.5810  177.8890  142.6670 C   0  0  0  0  0  0  0  0  0  0  0  0
  186.3160  178.4890  139.2630 C   0  0  0  0  0  1  0  0  0  0  0  0
  187.7870  177.8540  141.3630 C   0  0  0  0  0  0  0  0  0  0  0  0
  190.4960  176.6160  139.0800 C   0  0  0  0  0  2  0  0  0  0  0  0
  191.5740  178.6070  142.2620 O   0  0  0  0  0  0  0  0  0  0  0  0
  184.3800  178.8940  144.1960 C   0  0  0  0  0  3  0  0  0  0  0  0
  185.6950  178.4420  144.0770 C   0  0  0  0  0  0  0  0  0  0  0  0
  190.6040  177.9000  142.4970 C   0  0  0  0  0  0  0  0  0  0  0  0
  190.8390  176.6840  147.3150 C   0  0  0  0  0  2  0  0  0  0  0  0
  192.8640  175.7110  148.3600 C   0  0  0  0  0  1  0  0  0  0  0  0
  191.9640  175.6740  147.1440 C   0  0  0  0  0  2  0  0  0  0  0  0
  1 19  1  0  0  0  0
  1  5  1  0  0  0  0
  2 13  1  0  0  0  0
  2 16  1  0  0  0  0
  4  1  2  0  0  0  0
  7 15  1  6  0  0  0
  7 27  1  0  0  0  0
  8  6  2  0  0  0  0
  8 11  1  0  0  0  0
  9 22  1  0  0  0  0
  9  7  1  0  0  0  0
 10 22  1  0  0  0  0
 10  3  2  0  0  0  0
 11  5  1  0  0  0  0
 11 28  1  1  0  0  0
 12 27  1  6  0  0  0
 12  4  1  0  0  0  0
 12  8  1  0  0  0  0
 14  9  1  0  0  0  0
 17  3  1  6  0  0  0
 17 26  1  0  0  0  0
 18 13  2  0  0  0  0
 19  2  2  0  0  0  0
 20 17  1  0  0  0  0
 20  4  1  0  0  0  0
 21 10  1  0  0  0  0
 22 20  2  0  0  0  0
 23 14  1  0  0  0  0
 23 15  1  0  0  0  0
 24 27  2  0  0  0  0
 25 18  1  0  0  0  0
 26 25  2  0  0  0  0
 26 19  1  0  0  0  0
 30 28  1  0  0  0  0
 30 29  1  0  0  0  0
M  END
>  <MODEL>
2

>  <REMARK>
 VINA RESULT:     -10.9      2.490      6.018
  Name = 
  2 active torsions:
  status: ('A' for Active; 'I' for Inactive)
    1  A    between atoms: C_11  and  C_28
    2  A    between atoms: C_28  and  C_30
                            x       y       z     vdW  Elec       q    Type
                         _______ _______ _______ _____ _____    ______ ____

>  <TORSDO>
F 2

$$$$
=
 OpenBabel11122410343D

 30 35  0  0  1  0  0  0  0  0999 V2000
  187.2920  177.7090  143.6310 C   0  0  0  0  0  0  0  0  0  0  0  0
  188.3790  177.7610  145.8320 C   0  0  0  0  0  0  0  0  0  0  0  0
  183.6180  178.8780  145.3880 N   0  0  0  0  0  0  0  0  0  0  0  0
  186.0610  177.8480  142.7290 C   0  0  0  0  0  0  0  0  0  0  0  0
  188.5800  177.3230  142.9340 C   0  0  0  0  0  2  0  0  0  0  0  0
  188.0020  178.8880  139.8090 O   0  0  0  0  0  0  0  0  0  0  0  0
  183.9970  177.9600  140.6670 C   0  0  1  0  0  3  0  0  0  0  0  0
  187.6310  178.3170  140.8250 C   0  0  0  0  0  0  0  0  0  0  0  0
  183.1530  178.3920  141.7680 N   0  0  0  0  0  0  0  0  0  0  0  0
  182.8690  178.8870  144.3270 C   0  0  0  0  0  0  0  0  0  0  0  0
  188.4400  177.1810  141.4130 C   0  0  1  0  0  3  0  0  0  0  0  0
  186.3600  178.7570  141.5170 C   0  0  1  0  0  3  0  0  0  0  0  0
  188.2860  177.9730  147.1720 N   0  0  0  0  0  0  0  0  0  0  0  0
  181.7690  178.5730  141.3840 C   0  0  0  0  0  2  0  0  0  0  0  0
  183.1100  177.9910  139.4320 C   0  0  0  0  0  2  0  0  0  0  0  0
  189.5880  177.3870  145.3440 F   0  0  0  0  0  0  0  0  0  0  0  0
  184.9120  178.5110  144.9150 C   0  0  2  0  0  3  0  0  0  0  0  0
  187.1290  178.3460  147.7720 C   0  0  0  0  0  3  0  0  0  0  0  0
  187.2400  177.9220  144.9930 C   0  0  0  0  0  0  0  0  0  0  0  0
  184.8780  178.3190  143.5030 C   0  0  0  0  0  0  0  0  0  0  0  0
  181.4190  179.2240  144.3790 C   0  0  0  0  0  1  0  0  0  0  0  0
  183.6310  178.5230  143.1170 C   0  0  0  0  0  0  0  0  0  0  0  0
  181.6800  178.1250  139.9360 C   0  0  0  0  0  2  0  0  0  0  0  0
  185.2240  179.7470  139.6990 O   0  0  0  0  0  0  0  0  0  0  0  0
  185.9810  178.5260  147.0140 C   0  0  0  0  0  3  0  0  0  0  0  0
  186.0210  178.3230  145.6340 C   0  0  0  0  0  0  0  0  0  0  0  0
  185.2050  178.8600  140.5410 C   0  0  0  0  0  0  0  0  0  0  0  0
  189.8000  176.9640  140.7450 C   0  0  0  0  0  2  0  0  0  0  0  0
  192.2100  177.5370  140.8180 C   0  0  0  0  0  1  0  0  0  0  0  0
  190.9590  177.3560  141.6500 C   0  0  0  0  0  2  0  0  0  0  0  0
  1 19  1  0  0  0  0
  2 13  1  0  0  0  0
  4 20  1  0  0  0  0
  4  1  2  0  0  0  0
  5  1  1  0  0  0  0
  6  8  2  0  0  0  0
  7 15  1  6  0  0  0
  7  9  1  0  0  0  0
  8 11  1  0  0  0  0
  8 12  1  0  0  0  0
  9 22  1  0  0  0  0
 10 21  1  0  0  0  0
 10  3  2  0  0  0  0
 11 28  1  6  0  0  0
 11  5  1  0  0  0  0
 12 27  1  6  0  0  0
 12  4  1  0  0  0  0
 13 18  2  0  0  0  0
 14  9  1  0  0  0  0
 15 23  1  0  0  0  0
 16  2  1  0  0  0  0
 17 20  1  1  0  0  0
 17  3  1  0  0  0  0
 17 26  1  0  0  0  0
 19 26  1  0  0  0  0
 19  2  2  0  0  0  0
 22 20  2  0  0  0  0
 22 10  1  0  0  0  0
 23 14  1  0  0  0  0
 24 27  2  0  0  0  0
 25 18  1  0  0  0  0
 26 25  2  0  0  0  0
 27  7  1  0  0  0  0
 28 30  1  0  0  0  0
 29 30  1  0  0  0  0
M  END
>  <MODEL>
3

>  <REMARK>
 VINA RESULT:     -10.8      1.759      2.892
  Name = 
  2 active torsions:
  status: ('A' for Active; 'I' for Inactive)
    1  A    between atoms: C_11  and  C_28
    2  A    between atoms: C_28  and  C_30
                            x       y       z     vdW  Elec       q    Type
                         _______ _______ _______ _____ _____    ______ ____

>  <TORSDO>
F 2

$$$$
=
 OpenBabel11122410343D

 30 35  0  0  1  0  0  0  0  0999 V2000
  186.8190  178.3870  142.1100 C   0  0  0  0  0  0  0  0  0  0  0  0
  184.4690  178.9960  141.7420 C   0  0  0  0  0  0  0  0  0  0  0  0
  186.0350  177.7380  146.2230 N   0  0  0  0  0  0  0  0  0  0  0  0
  187.9810  177.9730  143.0200 C   0  0  2  0  0  3  0  0  0  0  0  0
  187.1600  178.5670  140.6460 C   0  0  0  0  0  2  0  0  0  0  0  0
  189.7340  176.1480  140.3800 O   0  0  0  0  0  0  0  0  0  0  0  0
  190.4620  177.2360  144.3710 C   0  0  1  0  0  3  0  0  0  0  0  0
  189.0880  176.9860  140.9920 C   0  0  0  0  0  0  0  0  0  0  0  0
  189.6030  177.1350  145.5380 N   0  0  0  0  0  0  0  0  0  0  0  0
  187.2290  177.4080  146.6170 C   0  0  0  0  0  0  0  0  0  0  0  0
  188.6240  178.2550  140.3100 C   0  0  1  0  0  3  0  0  0  0  0  0
  188.7310  176.7530  142.4430 C   0  0  1  0  0  3  0  0  0  0  0  0
  183.2220  179.1840  142.2510 N   0  0  0  0  0  0  0  0  0  0  0  0
  190.3300  176.8320  146.7530 C   0  0  0  0  0  2  0  0  0  0  0  0
  191.8500  176.8320  144.8450 C   0  0  0  0  0  2  0  0  0  0  0  0
  184.6420  179.2260  140.4170 F   0  0  0  0  0  0  0  0  0  0  0  0
  186.1660  177.9660  144.8220 C   0  0  0  0  0  0  0  0  0  0  0  0
  182.9310  178.9900  143.5600 C   0  0  0  0  0  3  0  0  0  0  0  0
  185.5390  178.5820  142.5860 C   0  0  0  0  0  0  0  0  0  0  0  0
  187.5130  177.7350  144.4140 C   0  0  0  0  0  0  0  0  0  0  0  0
  187.5370  177.0830  148.0370 C   0  0  0  0  0  1  0  0  0  0  0  0
  188.1930  177.4110  145.5000 C   0  0  0  0  0  0  0  0  0  0  0  0
  191.7990  176.8340  146.3660 C   0  0  0  0  0  2  0  0  0  0  0  0
  190.4540  175.2590  143.0560 O   0  0  0  0  0  0  0  0  0  0  0  0
  183.9250  178.5810  144.4380 C   0  0  0  0  0  3  0  0  0  0  0  0
  185.2230  178.3700  143.9690 C   0  0  0  0  0  0  0  0  0  0  0  0
  189.9460  176.3540  143.2560 C   0  0  0  0  0  0  0  0  0  0  0  0
  188.8690  178.2840  138.7990 C   0  0  0  0  0  2  0  0  0  0  0  0
  187.5680  178.6840  136.7290 C   0  0  0  0  0  1  0  0  0  0  0  0
  187.6380  177.8730  138.0050 C   0  0  0  0  0  2  0  0  0  0  0  0
  1 19  2  0  0  0  0
  2 13  2  0  0  0  0
  2 19  1  0  0  0  0
  3 10  2  0  0  0  0
  4  1  1  6  0  0  0
  4 20  1  0  0  0  0
  5  1  1  0  0  0  0
  6  8  2  0  0  0  0
  7 15  1  1  0  0  0
  7  9  1  0  0  0  0
  9 14  1  0  0  0  0
 10 21  1  0  0  0  0
 11 28  1  6  0  0  0
 11  5  1  0  0  0  0
 11  8  1  0  0  0  0
 12  8  1  6  0  0  0
 12  4  1  0  0  0  0
 12 27  1  0  0  0  0
 13 18  1  0  0  0  0
 15 23  1  0  0  0  0
 16  2  1  0  0  0  0
 17  3  1  0  0  0  0
 18 25  2  0  0  0  0
 19 26  1  0  0  0  0
 20 17  1  0  0  0  0
 20 22  2  0  0  0  0
 22  9  1  0  0  0  0
 22 10  1  0  0  0  0
 23 14  1  0  0  0  0
 24 27  2  0  0  0  0
 26 25  1  0  0  0  0
 26 17  2  0  0  0  0
 27  7  1  0  0  0  0
 29 30  1  0  0  0  0
 30 28  1  0  0  0  0
M  END
>  <MODEL>
4

>  <REMARK>
 VINA RESULT:     -10.5      2.410      5.425
  Name = 
  2 active torsions:
  status: ('A' for Active; 'I' for Inactive)
    1  A    between atoms: C_11  and  C_28
    2  A    between atoms: C_28  and  C_30
                            x       y       z     vdW  Elec       q    Type
                         _______ _______ _______ _____ _____    ______ ____

>  <TORSDO>
F 2

$$$$
=
 OpenBabel11122410343D

 30 35  0  0  1  0  0  0  0  0999 V2000
  187.8330  177.3920  143.6970 C   0  0  0  0  0  0  0  0  0  0  0  0
  186.7460  177.8680  145.8470 C   0  0  0  0  0  0  0  0  0  0  0  0
  184.5740  179.1430  141.6310 N   0  0  0  0  0  0  0  0  0  0  0  0
  187.8580  177.4020  142.1650 C   0  0  0  0  0  0  0  0  0  0  0  0
  189.0440  176.7850  144.3730 C   0  0  0  0  0  2  0  0  0  0  0  0
  191.5020  177.6470  141.9710 O   0  0  0  0  0  0  0  0  0  0  0  0
  188.3050  177.1760  139.2890 C   0  0  1  0  0  3  0  0  0  0  0  0
  190.3660  177.3400  142.3030 C   0  0  0  0  0  0  0  0  0  0  0  0
  187.0440  177.8930  139.2030 N   0  0  0  0  0  0  0  0  0  0  0  0
  184.9760  178.9610  140.4090 C   0  0  0  0  0  0  0  0  0  0  0  0
  190.1270  176.3160  143.3930 C   0  0  1  0  0  3  0  0  0  0  0  0
  189.1800  177.9980  141.6340 C   0  0  1  0  0  3  0  0  0  0  0  0
  185.6850  178.3780  146.5270 N   0  0  0  0  0  0  0  0  0  0  0  0
  186.5820  178.0670  137.8420 C   0  0  0  0  0  2  0  0  0  0  0  0
  188.7680  176.9850  137.8520 C   0  0  0  0  0  2  0  0  0  0  0  0
  187.7490  177.3220  146.5770 F   0  0  0  0  0  0  0  0  0  0  0  0
  185.6170  178.6030  142.4390 C   0  0  2  0  0  3  0  0  0  0  0  0
  184.6230  178.9440  145.9030 C   0  0  0  0  0  3  0  0  0  0  0  0
  186.7790  177.9060  144.4230 C   0  0  0  0  0  0  0  0  0  0  0  0
  186.6660  178.1030  141.6120 C   0  0  0  0  0  0  0  0  0  0  0  0
  184.1670  179.3880  139.2340 C   0  0  0  0  0  1  0  0  0  0  0  0
  186.2900  178.2920  140.3600 C   0  0  0  0  0  0  0  0  0  0  0  0
  187.5710  177.3140  136.9700 C   0  0  0  0  0  2  0  0  0  0  0  0
  190.1630  178.6260  139.5810 O   0  0  0  0  0  0  0  0  0  0  0  0
  184.5910  179.0200  144.5180 C   0  0  0  0  0  3  0  0  0  0  0  0
  185.6560  178.5130  143.7710 C   0  0  0  0  0  0  0  0  0  0  0  0
  189.2990  177.9510  140.1240 C   0  0  0  0  0  0  0  0  0  0  0  0
  191.3940  175.8740  144.1300 C   0  0  0  0  0  2  0  0  0  0  0  0
  192.0560  175.8340  146.5180 C   0  0  0  0  0  1  0  0  0  0  0  0
  191.6780  176.7290  145.3570 C   0  0  0  0  0  2  0  0  0  0  0  0
  1  5  1  0  0  0  0
  1 19  1  0  0  0  0
  2 13  1  0  0  0  0
  2 16  1  0  0  0  0
  3 17  1  0  0  0  0
  4  1  2  0  0  0  0
  6  8  2  0  0  0  0
  7 15  1  6  0  0  0
  7 27  1  0  0  0  0
  8 11  1  0  0  0  0
  9  7  1  0  0  0  0
  9 22  1  0  0  0  0
 10  3  2  0  0  0  0
 11 28  1  1  0  0  0
 11  5  1  0  0  0  0
 12 27  1  6  0  0  0
 12  4  1  0  0  0  0
 12  8  1  0  0  0  0
 14  9  1  0  0  0  0
 17 20  1  6  0  0  0
 17 26  1  0  0  0  0
 18 13  2  0  0  0  0
 19  2  2  0  0  0  0
 20  4  1  0  0  0  0
 21 10  1  0  0  0  0
 22 10  1  0  0  0  0
 22 20  2  0  0  0  0
 23 14  1  0  0  0  0
 23 15  1  0  0  0  0
 24 27  2  0  0  0  0
 25 18  1  0  0  0  0
 26 19  1  0  0  0  0
 26 25  2  0  0  0  0
 28 30  1  0  0  0  0
 30 29  1  0  0  0  0
M  END
>  <MODEL>
5

>  <REMARK>
 VINA RESULT:      -9.6      2.316      5.107
  Name = 
  2 active torsions:
  status: ('A' for Active; 'I' for Inactive)
    1  A    between atoms: C_11  and  C_28
    2  A    between atoms: C_28  and  C_30
                            x       y       z     vdW  Elec       q    Type
                         _______ _______ _______ _____ _____    ______ ____

>  <TORSDO>
F 2

$$$$
=
 OpenBabel11122410343D

 30 35  0  0  1  0  0  0  0  0999 V2000
  189.1120  177.2940  142.5140 C   0  0  0  0  0  0  0  0  0  0  0  0
  191.0630  177.0200  143.9810 C   0  0  0  0  0  0  0  0  0  0  0  0
  186.6770  178.1660  145.8700 N   0  0  0  0  0  0  0  0  0  0  0  0
  187.6210  177.5620  142.2860 C   0  0  0  0  0  0  0  0  0  0  0  0
  189.9320  177.0250  141.2700 C   0  0  0  0  0  2  0  0  0  0  0  0
  188.1300  179.0400  138.9800 O   0  0  0  0  0  0  0  0  0  0  0  0
  184.8690  177.9720  141.4020 C   0  0  1  0  0  3  0  0  0  0  0  0
  188.2120  178.3210  139.9650 C   0  0  0  0  0  0  0  0  0  0  0  0
  184.6280  178.2290  142.8110 N   0  0  0  0  0  0  0  0  0  0  0  0
  185.5380  178.3310  145.2680 C   0  0  2  0  0  3  0  0  0  0  0  0
  189.1250  177.1130  139.9680 C   0  0  1  0  0  3  0  0  0  0  0  0
  187.4090  178.6440  141.2050 C   0  0  1  0  0  3  0  0  0  0  0  0
  191.5850  177.0280  145.2360 N   0  0  0  0  0  0  0  0  0  0  0  0
  183.2310  178.4590  143.1150 C   0  0  0  0  0  2  0  0  0  0  0  0
  183.5310  178.1850  140.7100 C   0  0  0  0  0  2  0  0  0  0  0  0
  191.9040  176.7300  142.9580 F   0  0  0  0  0  0  0  0  0  0  0  0
  187.6020  177.8820  144.8230 C   0  0  0  0  0  0  0  0  0  0  0  0
  190.8400  177.2990  146.3340 C   0  0  0  0  0  3  0  0  0  0  0  0
  189.6820  177.3000  143.7710 C   0  0  0  0  0  0  0  0  0  0  0  0
  186.9350  177.9040  143.5630 C   0  0  0  0  0  0  0  0  0  0  0  0
  184.2860  178.6490  146.0080 C   0  0  0  0  0  1  0  0  0  0  0  0
  185.6620  178.1580  143.8080 C   0  0  0  0  0  0  0  0  0  0  0  0
  182.4830  178.2340  141.8130 C   0  0  0  0  0  2  0  0  0  0  0  0
  185.6500  179.8920  140.2420 O   0  0  0  0  0  0  0  0  0  0  0  0
  189.4890  177.5860  146.2030 C   0  0  0  0  0  3  0  0  0  0  0  0
  188.9010  177.5940  144.9370 C   0  0  0  0  0  0  0  0  0  0  0  0
  185.9510  178.8880  140.8730 C   0  0  0  0  0  0  0  0  0  0  0  0
  190.0320  177.0070  138.7400 C   0  0  0  0  0  2  0  0  0  0  0  0
  189.5270  176.5910  136.3490 C   0  0  0  0  0  1  0  0  0  0  0  0
  189.5270  175.9810  137.7350 C   0  0  0  0  0  2  0  0  0  0  0  0
  1 19  1  0  0  0  0
  2 13  1  0  0  0  0
  4  1  2  0  0  0  0
  4 20  1  0  0  0  0
  5  1  1  0  0  0  0
  6  8  2  0  0  0  0
  7 15  1  6  0  0  0
  7  9  1  0  0  0  0
  8 11  1  0  0  0  0
  9 14  1  0  0  0  0
  9 22  1  0  0  0  0
 10  3  1  0  0  0  0
 10 21  1  1  0  0  0
 11 28  1  6  0  0  0
 11  5  1  0  0  0  0
 12  8  1  6  0  0  0
 12  4  1  0  0  0  0
 13 18  2  0  0  0  0
 15 23  1  0  0  0  0
 16  2  1  0  0  0  0
 17 26  1  0  0  0  0
 17  3  2  0  0  0  0
 19  2  2  0  0  0  0
 19 26  1  0  0  0  0
 20 22  2  0  0  0  0
 20 17  1  0  0  0  0
 22 10  1  0  0  0  0
 23 14  1  0  0  0  0
 24 27  2  0  0  0  0
 25 18  1  0  0  0  0
 26 25  2  0  0  0  0
 27 12  1  0  0  0  0
 27  7  1  0  0  0  0
 29 30  1  0  0  0  0
 30 28  1  0  0  0  0
M  END
>  <MODEL>
6

>  <REMARK>
 VINA RESULT:      -9.5      1.077      1.227
  Name = 
  2 active torsions:
  status: ('A' for Active; 'I' for Inactive)
    1  A    between atoms: C_11  and  C_28
    2  A    between atoms: C_28  and  C_30
                            x       y       z     vdW  Elec       q    Type
                         _______ _______ _______ _____ _____    ______ ____

>  <TORSDO>
F 2

$$$$
=
 OpenBabel11122410343D

 30 35  0  0  1  0  0  0  0  0999 V2000
  186.8130  178.4160  140.6880 C   0  0  0  0  0  0  0  0  0  0  0  0
  184.8580  178.8010  139.2540 C   0  0  0  0  0  0  0  0  0  0  0  0
  184.3240  178.3730  144.1170 N   0  0  0  0  0  0  0  0  0  0  0  0
  187.4640  178.2290  142.0630 C   0  0  2  0  0  3  0  0  0  0  0  0
  187.7550  178.3850  139.5030 C   0  0  0  0  0  2  0  0  0  0  0  0
  190.1710  176.1310  140.7800 O   0  0  0  0  0  0  0  0  0  0  0  0
  189.1120  177.8820  144.4480 C   0  0  1  0  0  3  0  0  0  0  0  0
  189.3310  177.0110  140.9040 C   0  0  0  0  0  0  0  0  0  0  0  0
  187.8320  177.9090  145.1350 N   0  0  0  0  0  0  0  0  0  0  0  0
  185.2280  178.1910  145.0320 C   0  0  0  0  0  0  0  0  0  0  0  0
  189.2170  178.1230  139.8830 C   0  0  1  0  0  3  0  0  0  0  0  0
  188.3800  176.9860  142.0800 C   0  0  1  0  0  3  0  0  0  0  0  0
  183.5150  178.9840  139.1410 N   0  0  0  0  0  0  0  0  0  0  0  0
  187.9610  177.8510  146.5760 C   0  0  0  0  0  2  0  0  0  0  0  0
  190.1560  177.6510  145.5310 C   0  0  0  0  0  2  0  0  0  0  0  0
  185.5880  178.8300  138.1120 F   0  0  0  0  0  0  0  0  0  0  0  0
  185.0500  178.3860  142.8890 C   0  0  0  0  0  0  0  0  0  0  0  0
  182.6860  178.9800  140.2130 C   0  0  0  0  0  3  0  0  0  0  0  0
  185.4550  178.5970  140.5310 C   0  0  0  0  0  0  0  0  0  0  0  0
  186.4380  178.1840  143.1420 C   0  0  0  0  0  0  0  0  0  0  0  0
  184.8890  178.1150  146.4800 C   0  0  0  0  0  1  0  0  0  0  0  0
  186.5800  178.0810  144.4510 C   0  0  0  0  0  0  0  0  0  0  0  0
  189.4520  177.8900  146.8590 C   0  0  0  0  0  2  0  0  0  0  0  0
  189.6570  175.7260  143.6150 O   0  0  0  0  0  0  0  0  0  0  0  0
  183.1990  178.7810  141.4860 C   0  0  0  0  0  3  0  0  0  0  0  0
  184.5700  178.5860  141.6600 C   0  0  0  0  0  0  0  0  0  0  0  0
  189.1220  176.8020  143.3890 C   0  0  0  0  0  0  0  0  0  0  0  0
  190.0920  177.9290  138.6410 C   0  0  0  0  0  2  0  0  0  0  0  0
  189.5530  175.9220  137.2910 C   0  0  0  0  0  1  0  0  0  0  0  0
  189.2990  177.4060  137.4520 C   0  0  0  0  0  2  0  0  0  0  0  0
  2 19  1  0  0  0  0
  3 10  2  0  0  0  0
  4  1  1  6  0  0  0
  4 12  1  0  0  0  0
  4 20  1  0  0  0  0
  5 11  1  0  0  0  0
  5  1  1  0  0  0  0
  6  8  2  0  0  0  0
  7  9  1  0  0  0  0
  7 15  1  1  0  0  0
  9 14  1  0  0  0  0
 10 21  1  0  0  0  0
 11 28  1  6  0  0  0
 11  8  1  0  0  0  0
 12  8  1  6  0  0  0
 12 27  1  0  0  0  0
 13  2  2  0  0  0  0
 13 18  1  0  0  0  0
 14 23  1  0  0  0  0
 15 23  1  0  0  0  0
 16  2  1  0  0  0  0
 17 20  1  0  0  0  0
 17  3  1  0  0  0  0
 18 25  2  0  0  0  0
 19  1  2  0  0  0  0
 19 26  1  0  0  0  0
 20 22  2  0  0  0  0
 22 10  1  0  0  0  0
 22  9  1  0  0  0  0
 25 26  1  0  0  0  0
 26 17  2  0  0  0  0
 27 24  2  0  0  0  0
 27  7  1  0  0  0  0
 29 30  1  0  0  0  0
 30 28  1  0  0  0  0
M  END
>  <MODEL>
7

>  <REMARK>
 VINA RESULT:      -9.3      2.493      5.439
  Name = 
  2 active torsions:
  status: ('A' for Active; 'I' for Inactive)
    1  A    between atoms: C_11  and  C_28
    2  A    between atoms: C_28  and  C_30
                            x       y       z     vdW  Elec       q    Type
                         _______ _______ _______ _____ _____    ______ ____

>  <TORSDO>
F 2

$$$$
=
 OpenBabel11122410343D

 30 35  0  0  1  0  0  0  0  0999 V2000
  188.3690  177.3140  143.1010 C   0  0  0  0  0  0  0  0  0  0  0  0
  186.5160  178.1170  144.4970 C   0  0  0  0  0  0  0  0  0  0  0  0
  186.3490  178.6280  139.6160 N   0  0  0  0  0  0  0  0  0  0  0  0
  189.0260  177.0690  141.7390 C   0  0  0  0  0  0  0  0  0  0  0  0
  189.1600  176.8530  144.3070 C   0  0  0  0  0  2  0  0  0  0  0  0
  192.4300  177.3550  143.0420 O   0  0  0  0  0  0  0  0  0  0  0  0
  190.6100  176.3780  139.3860 C   0  0  1  0  0  3  0  0  0  0  0  0
  191.2450  177.0840  142.9160 C   0  0  0  0  0  0  0  0  0  0  0  0
  189.5360  177.0430  138.6700 N   0  0  0  0  0  0  0  0  0  0  0  0
  187.2100  178.2530  138.7180 C   0  0  0  0  0  0  0  0  0  0  0  0
  190.5260  176.2510  143.9550 C   0  0  1  0  0  3  0  0  0  0  0  0
  190.4770  177.5970  141.7180 C   0  0  1  0  0  3  0  0  0  0  0  0
  185.2960  178.7110  144.5830 N   0  0  0  0  0  0  0  0  0  0  0  0
  189.6880  176.9790  137.2320 C   0  0  0  0  0  2  0  0  0  0  0  0
  191.6160  175.9610  138.3230 C   0  0  0  0  0  2  0  0  0  0  0  0
  187.0980  177.7220  145.6560 F   0  0  0  0  0  0  0  0  0  0  0  0
  186.9360  178.2520  140.8600 C   0  0  2  0  0  3  0  0  0  0  0  0
  184.6160  179.1430  143.4920 C   0  0  0  0  0  3  0  0  0  0  0  0
  187.1360  177.9190  143.2310 C   0  0  0  0  0  0  0  0  0  0  0  0
  188.2060  177.6440  140.6350 C   0  0  0  0  0  0  0  0  0  0  0  0
  186.9830  178.4620  137.2620 C   0  0  0  0  0  1  0  0  0  0  0  0
  188.3920  177.6130  139.3280 C   0  0  0  0  0  0  0  0  0  0  0  0
  190.9090  176.1120  136.9840 C   0  0  0  0  0  2  0  0  0  0  0  0
  192.2520  177.8950  140.1890 O   0  0  0  0  0  0  0  0  0  0  0  0
  185.1640  178.9870  142.2270 C   0  0  0  0  0  3  0  0  0  0  0  0
  186.4160  178.3850  142.0820 C   0  0  0  0  0  0  0  0  0  0  0  0
  191.2080  177.3020  140.4230 C   0  0  0  0  0  0  0  0  0  0  0  0
  191.3510  175.9650  145.2130 C   0  0  0  0  0  2  0  0  0  0  0  0
  191.6810  176.3780  147.6340 C   0  0  0  0  0  1  0  0  0  0  0  0
  190.8660  176.7600  146.4170 C   0  0  0  0  0  2  0  0  0  0  0  0
  1 19  1  0  0  0  0
  1  5  1  0  0  0  0
  2 13  1  0  0  0  0
  2 16  1  0  0  0  0
  4  1  2  0  0  0  0
  7 15  1  6  0  0  0
  7 27  1  0  0  0  0
  8  6  2  0  0  0  0
  8 11  1  0  0  0  0
  9 22  1  0  0  0  0
  9  7  1  0  0  0  0
 10 22  1  0  0  0  0
 10  3  2  0  0  0  0
 11  5  1  0  0  0  0
 11 28  1  1  0  0  0
 12 27  1  6  0  0  0
 12  4  1  0  0  0  0
 12  8  1  0  0  0  0
 14  9  1  0  0  0  0
 17  3  1  6  0  0  0
 17 26  1  0  0  0  0
 18 13  2  0  0  0  0
 19  2  2  0  0  0  0
 20 17  1  0  0  0  0
 20  4  1  0  0  0  0
 21 10  1  0  0  0  0
 22 20  2  0  0  0  0
 23 14  1  0  0  0  0
 23 15  1  0  0  0  0
 24 27  2  0  0  0  0
 25 18  1  0  0  0  0
 26 25  2  0  0  0  0
 26 19  1  0  0  0  0
 28 30  1  0  0  0  0
 30 29  1  0  0  0  0
M  END
>  <MODEL>
8

>  <REMARK>
 VINA RESULT:      -9.3      2.533      6.330
  Name = 
  2 active torsions:
  status: ('A' for Active; 'I' for Inactive)
    1  A    between atoms: C_11  and  C_28
    2  A    between atoms: C_28  and  C_30
                            x       y       z     vdW  Elec       q    Type
                         _______ _______ _______ _____ _____    ______ ____

>  <TORSDO>
F 2

$$$$
=
 OpenBabel11122410343D

 30 35  0  0  1  0  0  0  0  0999 V2000
  185.7110  178.2420  141.8930 C   0  0  0  0  0  0  0  0  0  0  0  0
  186.0510  178.4970  139.4750 C   0  0  0  0  0  0  0  0  0  0  0  0
  189.8980  177.9540  142.4780 N   0  0  0  0  0  0  0  0  0  0  0  0
  186.2380  178.0210  143.3150 C   0  0  2  0  0  3  0  0  0  0  0  0
  184.2080  178.3720  141.7590 C   0  0  0  0  0  2  0  0  0  0  0  0
  183.5070  179.8750  144.8890 O   0  0  0  0  0  0  0  0  0  0  0  0
  186.7880  177.5760  146.1470 C   0  0  1  0  0  3  0  0  0  0  0  0
  184.1510  179.1380  144.1560 C   0  0  0  0  0  0  0  0  0  0  0  0
  188.1750  177.6110  145.7140 N   0  0  0  0  0  0  0  0  0  0  0  0
  189.9210  177.7870  143.7660 C   0  0  0  0  0  0  0  0  0  0  0  0
  183.4620  178.3040  143.0970 C   0  0  1  0  0  3  0  0  0  0  0  0
  185.6550  179.0650  144.2920 C   0  0  1  0  0  3  0  0  0  0  0  0
  186.9060  178.5640  138.4200 N   0  0  0  0  0  0  0  0  0  0  0  0
  189.1100  177.3370  146.7850 C   0  0  0  0  0  2  0  0  0  0  0  0
  186.8340  177.3950  147.6570 C   0  0  0  0  0  2  0  0  0  0  0  0
  184.7250  178.5950  139.2070 F   0  0  0  0  0  0  0  0  0  0  0  0
  188.5150  178.0870  142.1540 C   0  0  0  0  0  0  0  0  0  0  0  0
  188.2510  178.4740  138.5650 C   0  0  0  0  0  3  0  0  0  0  0  0
  186.5470  178.3220  140.7980 C   0  0  0  0  0  0  0  0  0  0  0  0
  187.7270  178.0010  143.3400 C   0  0  0  0  0  0  0  0  0  0  0  0
  191.1900  177.6040  144.5220 C   0  0  0  0  0  1  0  0  0  0  0  0
  188.5620  177.7960  144.3420 C   0  0  0  0  0  0  0  0  0  0  0  0
  188.2620  176.9950  147.9970 C   0  0  0  0  0  2  0  0  0  0  0  0
  185.8980  179.7410  146.5410 O   0  0  0  0  0  0  0  0  0  0  0  0
  188.8030  178.3080  139.8270 C   0  0  0  0  0  3  0  0  0  0  0  0
  187.9700  178.2350  140.9450 C   0  0  0  0  0  0  0  0  0  0  0  0
  186.0710  178.8410  145.7320 C   0  0  0  0  0  0  0  0  0  0  0  0
  181.9720  178.6150  142.9220 C   0  0  0  0  0  2  0  0  0  0  0  0
  180.4290  179.6520  141.2840 C   0  0  0  0  0  1  0  0  0  0  0  0
  181.5590  178.6600  141.4580 C   0  0  0  0  0  2  0  0  0  0  0  0
  2 19  1  0  0  0  0
  3 10  2  0  0  0  0
  4  1  1  6  0  0  0
  4 20  1  0  0  0  0
  4 12  1  0  0  0  0
  5  1  1  0  0  0  0
  5 11  1  0  0  0  0
  7 15  1  1  0  0  0
  8  6  2  0  0  0  0
  9  7  1  0  0  0  0
  9 14  1  0  0  0  0
 10 22  1  0  0  0  0
 10 21  1  0  0  0  0
 11 28  1  6  0  0  0
 11  8  1  0  0  0  0
 12  8  1  1  0  0  0
 12 27  1  0  0  0  0
 13 18  1  0  0  0  0
 13  2  2  0  0  0  0
 14 23  1  0  0  0  0
 15 23  1  0  0  0  0
 16  2  1  0  0  0  0
 17  3  1  0  0  0  0
 17 20  1  0  0  0  0
 18 25  2  0  0  0  0
 19 26  1  0  0  0  0
 19  1  2  0  0  0  0
 20 22  2  0  0  0  0
 22  9  1  0  0  0  0
 25 26  1  0  0  0  0
 26 17  2  0  0  0  0
 27  7  1  0  0  0  0
 27 24  2  0  0  0  0
 29 30  1  0  0  0  0
 30 28  1  0  0  0  0
M  END
>  <MODEL>
9

>  <REMARK>
 VINA RESULT:      -9.2      2.873      6.542
  Name = 
  2 active torsions:
  status: ('A' for Active; 'I' for Inactive)
    1  A    between atoms: C_11  and  C_28
    2  A    between atoms: C_28  and  C_30
                            x       y       z     vdW  Elec       q    Type
                         _______ _______ _______ _____ _____    ______ ____

>  <TORSDO>
F 2

$$$$
