=
 OpenBabel11122411133D

 31 35  0  0  1  0  0  0  0  0999 V2000
  191.7010  176.5940  138.1840 C   0  0  0  0  0  0  0  0  0  0  0  0
  188.2290  177.0000  136.6890 C   0  0  2  0  0  3  0  0  0  0  0  0
  187.4210  175.7160  136.6700 C   0  0  0  0  0  0  0  0  0  0  0  0
  187.2910  173.2930  136.8230 C   0  0  0  0  0  0  0  0  0  0  0  0
  189.3640  176.9680  137.6740 C   0  0  0  0  0  0  0  0  0  0  0  0
  191.4580  176.9010  139.5270 C   0  0  0  0  0  3  0  0  0  0  0  0
  188.0370  174.4720  136.8800 C   0  0  0  0  0  3  0  0  0  0  0  0
  186.9900  178.4990  138.4540 C   0  0  1  0  0  3  0  0  0  0  0  0
  192.9830  176.2560  137.7720 O   0  0  0  0  0  1  0  0  0  0  0  0
  185.3970  177.0050  136.1000 N   0  0  0  0  0  2  0  0  0  0  0  0
  187.9520  171.9840  137.0640 C   0  0  0  0  0  1  0  0  0  0  0  0
  187.7310  177.6010  139.4600 C   0  0  0  0  0  2  0  0  0  0  0  0
  187.3420  178.2360  136.9550 C   0  0  2  0  0  3  0  0  0  0  0  0
  190.6540  176.6250  137.2570 C   0  0  0  0  0  3  0  0  0  0  0  0
  185.9240  173.3430  136.5400 C   0  0  0  0  0  3  0  0  0  0  0  0
  189.1230  177.2860  139.0180 C   0  0  0  0  0  0  0  0  0  0  0  0
  190.1680  177.2430  139.9460 C   0  0  0  0  0  3  0  0  0  0  0  0
  186.1480  178.2520  135.9950 C   0  0  0  0  0  2  0  0  0  0  0  0
  186.0470  175.7550  136.3490 C   0  0  0  0  0  0  0  0  0  0  0  0
  185.3040  174.5720  136.3020 C   0  0  0  0  0  3  0  0  0  0  0  0
  185.6380  179.5750  140.7400 O   0  0  0  0  0  0  0  0  0  0  0  0
  184.9440  178.9650  139.8840 C   0  0  0  0  0  0  0  0  0  0  0  0
  185.5560  178.4300  138.7070 N   0  0  0  0  0  2  0  0  0  0  0  0
  182.1230  177.2710  137.9830 C   0  0  1  0  0  3  0  0  0  0  0  0
  183.0860  177.3260  140.2970 C   0  0  0  0  0  2  0  0  0  0  0  0
  183.0010  180.7970  138.8380 O   0  0  0  0  0  1  0  0  0  0  0  0
  182.1090  176.5150  136.6720 C   0  0  0  0  0  1  0  0  0  0  0  0
  183.0670  176.5800  138.9620 C   0  0  0  0  0  2  0  0  0  0  0  0
  182.5900  179.4810  139.0570 C   0  0  2  0  0  3  0  0  0  0  0  0
  183.4710  178.7980  140.1190 C   0  0  2  0  0  3  0  0  0  0  0  0
  182.5780  178.7060  137.7400 C   0  0  0  0  0  2  0  0  0  0  0  0
  1  6  1  0  0  0  0
  2  3  1  1  0  0  0
  2 13  1  0  0  0  0
  2  5  1  0  0  0  0
  3  7  1  0  0  0  0
  4  7  2  0  0  0  0
  4 11  1  0  0  0  0
  5 16  2  0  0  0  0
  6 17  2  0  0  0  0
  8 23  1  6  0  0  0
  8 12  1  0  0  0  0
  9  1  1  0  0  0  0
 10 19  1  0  0  0  0
 13 18  1  6  0  0  0
 13  8  1  0  0  0  0
 14  5  1  0  0  0  0
 14  1  2  0  0  0  0
 15  4  1  0  0  0  0
 16 12  1  0  0  0  0
 16 17  1  0  0  0  0
 18 10  1  0  0  0  0
 19  3  2  0  0  0  0
 20 19  1  0  0  0  0
 20 15  2  0  0  0  0
 22 21  2  0  0  0  0
 23 22  1  0  0  0  0
 24 27  1  6  0  0  0
 24 28  1  0  0  0  0
 28 25  1  0  0  0  0
 29 26  1  6  0  0  0
 29 30  1  0  0  0  0
 30 22  1  6  0  0  0
 30 25  1  0  0  0  0
 31 24  1  0  0  0  0
 31 29  1  0  0  0  0
M  END
>  <MODEL>
1

>  <REMARK>
 VINA RESULT:      -6.4      0.000      0.000
  Name = 
  2 active torsions:
  status: ('A' for Active; 'I' for Inactive)
    1  A    between atoms: C_5  and  C_30
    2  A    between atoms: C_10  and  N_16
                            x       y       z     vdW  Elec       q    Type
                         _______ _______ _______ _____ _____    ______ ____

>  <TORSDO>
F 2

$$$$
=
 OpenBabel11122411133D

 31 35  0  0  1  0  0  0  0  0999 V2000
  181.2140  178.5880  143.3570 C   0  0  0  0  0  0  0  0  0  0  0  0
  181.6520  177.9670  139.6330 C   0  0  2  0  0  3  0  0  0  0  0  0
  181.2590  179.1500  138.7680 C   0  0  0  0  0  0  0  0  0  0  0  0
  180.1210  181.2800  138.4830 C   0  0  0  0  0  0  0  0  0  0  0  0
  181.9350  178.3470  141.0590 C   0  0  0  0  0  0  0  0  0  0  0  0
  182.4800  179.0730  143.7040 C   0  0  0  0  0  3  0  0  0  0  0  0
  180.5100  180.2130  139.2970 C   0  0  0  0  0  3  0  0  0  0  0  0
  184.2590  177.8200  139.3540 C   0  0  1  0  0  3  0  0  0  0  0  0
  180.2290  178.4680  144.3280 O   0  0  0  0  0  1  0  0  0  0  0  0
  182.3060  178.0650  136.8160 N   0  0  0  0  0  2  0  0  0  0  0  0
  179.3420  182.4070  139.0590 C   0  0  0  0  0  1  0  0  0  0  0  0
  184.2450  178.9940  140.3480 C   0  0  0  0  0  2  0  0  0  0  0  0
  182.8590  177.2010  139.0480 C   0  0  2  0  0  3  0  0  0  0  0  0
  180.9410  178.2270  142.0350 C   0  0  0  0  0  3  0  0  0  0  0  0
  180.4630  181.2880  137.1290 C   0  0  0  0  0  3  0  0  0  0  0  0
  183.2070  178.8230  141.4090 C   0  0  0  0  0  0  0  0  0  0  0  0
  183.4750  179.1950  142.7300 C   0  0  0  0  0  3  0  0  0  0  0  0
  182.6080  176.8550  137.5760 C   0  0  0  0  0  2  0  0  0  0  0  0
  181.5690  179.1480  137.3910 C   0  0  0  0  0  0  0  0  0  0  0  0
  181.1860  180.2230  136.5840 C   0  0  0  0  0  3  0  0  0  0  0  0
  187.0880  177.6440  138.9270 O   0  0  0  0  0  0  0  0  0  0  0  0
  186.3860  178.1310  138.0010 C   0  0  0  0  0  0  0  0  0  0  0  0
  184.9650  178.2200  138.1420 N   0  0  0  0  0  2  0  0  0  0  0  0
  188.9370  176.6650  135.5970 C   0  0  1  0  0  3  0  0  0  0  0  0
  186.6910  177.7750  135.5330 C   0  0  0  0  0  2  0  0  0  0  0  0
  188.9170  179.4800  138.0480 O   0  0  0  0  0  1  0  0  0  0  0  0
  189.6540  175.3320  135.5840 C   0  0  0  0  0  1  0  0  0  0  0  0
  187.4310  176.4370  135.5320 C   0  0  0  0  0  2  0  0  0  0  0  0
  188.5850  178.7770  136.8880 C   0  0  2  0  0  3  0  0  0  0  0  0
  187.0590  178.6260  136.7540 C   0  0  2  0  0  3  0  0  0  0  0  0
  189.2980  177.4270  136.8680 C   0  0  0  0  0  2  0  0  0  0  0  0
  1  6  1  0  0  0  0
  1  9  1  0  0  0  0
  2  3  1  6  0  0  0
  2  5  1  0  0  0  0
  3  7  1  0  0  0  0
  4 11  1  0  0  0  0
  4  7  2  0  0  0  0
  5 16  2  0  0  0  0
  5 14  1  0  0  0  0
  8 23  1  6  0  0  0
  8 12  1  0  0  0  0
 10 19  1  0  0  0  0
 10 18  1  0  0  0  0
 12 16  1  0  0  0  0
 13 18  1  6  0  0  0
 13  8  1  0  0  0  0
 13  2  1  0  0  0  0
 14  1  2  0  0  0  0
 15  4  1  0  0  0  0
 16 17  1  0  0  0  0
 17  6  2  0  0  0  0
 19  3  2  0  0  0  0
 20 15  2  0  0  0  0
 20 19  1  0  0  0  0
 22 23  1  0  0  0  0
 22 21  2  0  0  0  0
 24 27  1  1  0  0  0
 24 31  1  0  0  0  0
 25 30  1  0  0  0  0
 28 25  1  0  0  0  0
 28 24  1  0  0  0  0
 29 26  1  1  0  0  0
 30 29  1  0  0  0  0
 30 22  1  1  0  0  0
 31 29  1  0  0  0  0
M  END
>  <MODEL>
2

>  <REMARK>
 VINA RESULT:      -6.3      2.569      7.717
  Name = 
  2 active torsions:
  status: ('A' for Active; 'I' for Inactive)
    1  A    between atoms: C_5  and  C_30
    2  A    between atoms: C_10  and  N_16
                            x       y       z     vdW  Elec       q    Type
                         _______ _______ _______ _____ _____    ______ ____

>  <TORSDO>
F 2

$$$$
=
 OpenBabel11122411133D

 31 35  0  0  1  0  0  0  0  0999 V2000
  179.8040  178.4160  142.2820 C   0  0  0  0  0  0  0  0  0  0  0  0
  183.0560  179.2230  140.4870 C   0  0  2  0  0  3  0  0  0  0  0  0
  184.2960  178.8240  141.2650 C   0  0  0  0  0  0  0  0  0  0  0  0
  185.3720  178.1740  143.3460 C   0  0  0  0  0  0  0  0  0  0  0  0
  181.8170  178.5030  140.9420 C   0  0  0  0  0  0  0  0  0  0  0  0
  179.5260  177.1380  141.7840 C   0  0  0  0  0  3  0  0  0  0  0  0
  184.2190  178.5040  142.6300 C   0  0  0  0  0  3  0  0  0  0  0  0
  183.0350  177.5720  138.4440 C   0  0  1  0  0  3  0  0  0  0  0  0
  178.9400  179.0060  143.1960 O   0  0  0  0  0  1  0  0  0  0  0  0
  185.6740  179.2130  139.2570 N   0  0  0  0  0  2  0  0  0  0  0  0
  185.2750  177.8210  144.7860 C   0  0  0  0  0  1  0  0  0  0  0  0
  182.4930  176.5820  139.4880 C   0  0  0  0  0  2  0  0  0  0  0  0
  183.2430  179.0300  138.9660 C   0  0  2  0  0  3  0  0  0  0  0  0
  180.9500  179.0970  141.8630 C   0  0  0  0  0  3  0  0  0  0  0  0
  186.6160  178.1780  142.7100 C   0  0  0  0  0  3  0  0  0  0  0  0
  181.5320  177.2270  140.4340 C   0  0  0  0  0  0  0  0  0  0  0  0
  180.3920  176.5420  140.8630 C   0  0  0  0  0  3  0  0  0  0  0  0
  184.5320  179.7110  138.4960 C   0  0  0  0  0  2  0  0  0  0  0  0
  185.5600  178.8610  140.6390 C   0  0  0  0  0  0  0  0  0  0  0  0
  186.7090  178.5210  141.3590 C   0  0  0  0  0  3  0  0  0  0  0  0
  183.5530  177.3660  135.6330 O   0  0  0  0  0  0  0  0  0  0  0  0
  184.4300  176.9240  136.4230 C   0  0  0  0  0  0  0  0  0  0  0  0
  184.2430  177.0240  137.8370 N   0  0  0  0  0  2  0  0  0  0  0  0
  188.0850  176.8430  137.4570 C   0  0  1  0  0  3  0  0  0  0  0  0
  186.2570  175.2490  136.8240 C   0  0  0  0  0  2  0  0  0  0  0  0
  186.1720  178.2830  134.5940 O   0  0  0  0  0  1  0  0  0  0  0  0
  188.8140  177.4840  138.6190 C   0  0  0  0  0  1  0  0  0  0  0  0
  186.9980  175.9130  137.9850 C   0  0  0  0  0  2  0  0  0  0  0  0
  186.7340  177.2920  135.4010 C   0  0  2  0  0  3  0  0  0  0  0  0
  185.6660  176.2850  135.8610 C   0  0  2  0  0  3  0  0  0  0  0  0
  187.4670  177.9280  136.5820 C   0  0  0  0  0  2  0  0  0  0  0  0
  1  9  1  0  0  0  0
  2  5  1  1  0  0  0
  2  3  1  0  0  0  0
  3  7  1  0  0  0  0
  4 11  1  0  0  0  0
  5 14  2  0  0  0  0
  6  1  2  0  0  0  0
  7  4  2  0  0  0  0
  8 23  1  1  0  0  0
  8 13  1  0  0  0  0
  8 12  1  0  0  0  0
 10 19  1  0  0  0  0
 12 16  1  0  0  0  0
 13 18  1  1  0  0  0
 13  2  1  0  0  0  0
 14  1  1  0  0  0  0
 15  4  1  0  0  0  0
 16 17  2  0  0  0  0
 16  5  1  0  0  0  0
 17  6  1  0  0  0  0
 18 10  1  0  0  0  0
 19  3  2  0  0  0  0
 19 20  1  0  0  0  0
 20 15  2  0  0  0  0
 21 22  2  0  0  0  0
 22 23  1  0  0  0  0
 24 28  1  0  0  0  0
 24 27  1  1  0  0  0
 25 28  1  0  0  0  0
 29 26  1  1  0  0  0
 29 30  1  0  0  0  0
 29 31  1  0  0  0  0
 30 22  1  1  0  0  0
 30 25  1  0  0  0  0
 31 24  1  0  0  0  0
M  END
>  <MODEL>
3

>  <REMARK>
 VINA RESULT:      -5.8      2.755      7.510
  Name = 
  2 active torsions:
  status: ('A' for Active; 'I' for Inactive)
    1  A    between atoms: C_5  and  C_30
    2  A    between atoms: C_10  and  N_16
                            x       y       z     vdW  Elec       q    Type
                         _______ _______ _______ _____ _____    ______ ____

>  <TORSDO>
F 2

$$$$
=
 OpenBabel11122411133D

 31 35  0  0  1  0  0  0  0  0999 V2000
  191.6940  176.7280  138.4040 C   0  0  0  0  0  0  0  0  0  0  0  0
  188.7240  177.0330  136.0510 C   0  0  2  0  0  3  0  0  0  0  0  0
  188.1150  175.6980  135.6640 C   0  0  0  0  0  0  0  0  0  0  0  0
  188.2470  173.2760  135.5060 C   0  0  0  0  0  0  0  0  0  0  0  0
  189.5510  176.9630  137.3040 C   0  0  0  0  0  0  0  0  0  0  0  0
  191.0660  176.8220  139.6510 C   0  0  0  0  0  3  0  0  0  0  0  0
  188.8010  174.4960  135.9000 C   0  0  0  0  0  3  0  0  0  0  0  0
  186.8850  178.1560  137.5520 C   0  0  1  0  0  3  0  0  0  0  0  0
  193.0710  176.5650  138.3330 O   0  0  0  0  0  1  0  0  0  0  0  0
  186.1740  176.8720  134.6950 N   0  0  0  0  0  2  0  0  0  0  0  0
  188.9760  172.0090  135.7760 C   0  0  0  0  0  1  0  0  0  0  0  0
  187.4350  177.1940  138.6190 C   0  0  0  0  0  2  0  0  0  0  0  0
  187.6540  178.1370  136.1920 C   0  0  2  0  0  3  0  0  0  0  0  0
  190.9370  176.7970  137.2310 C   0  0  0  0  0  3  0  0  0  0  0  0
  187.0100  173.2450  134.8590 C   0  0  0  0  0  3  0  0  0  0  0  0
  188.9230  177.0680  138.5540 C   0  0  0  0  0  0  0  0  0  0  0  0
  189.6800  176.9870  139.7260 C   0  0  0  0  0  3  0  0  0  0  0  0
  186.7660  178.1820  134.9430 C   0  0  0  0  0  2  0  0  0  0  0  0
  186.8830  175.6610  134.9770 C   0  0  0  0  0  0  0  0  0  0  0  0
  186.3300  174.4360  134.5940 C   0  0  0  0  0  3  0  0  0  0  0  0
  184.7950  179.4550  139.0200 O   0  0  0  0  0  0  0  0  0  0  0  0
  184.4600  178.5890  138.1680 C   0  0  0  0  0  0  0  0  0  0  0  0
  185.4550  177.9260  137.3830 N   0  0  0  0  0  2  0  0  0  0  0  0
  181.4630  178.4680  140.5000 C   0  0  1  0  0  3  0  0  0  0  0  0
  182.1080  179.4610  138.2910 C   0  0  0  0  0  2  0  0  0  0  0  0
  183.4260  175.9450  138.5750 O   0  0  0  0  0  1  0  0  0  0  0  0
  181.3330  178.7420  141.9830 C   0  0  0  0  0  1  0  0  0  0  0  0
  181.9810  179.7160  139.7930 C   0  0  0  0  0  2  0  0  0  0  0  0
  182.5540  177.0150  138.7830 C   0  0  2  0  0  3  0  0  0  0  0  0
  183.0070  178.2560  137.9950 C   0  0  2  0  0  3  0  0  0  0  0  0
  182.4210  177.3040  140.2770 C   0  0  0  0  0  2  0  0  0  0  0  0
  1  6  1  0  0  0  0
  2  3  1  1  0  0  0
  2 13  1  0  0  0  0
  2  5  1  0  0  0  0
  3  7  1  0  0  0  0
  4 11  1  0  0  0  0
  4  7  2  0  0  0  0
  5 16  2  0  0  0  0
  6 17  2  0  0  0  0
  8 23  1  6  0  0  0
  8 12  1  0  0  0  0
  9  1  1  0  0  0  0
 10 18  1  0  0  0  0
 10 19  1  0  0  0  0
 13 18  1  6  0  0  0
 13  8  1  0  0  0  0
 14  5  1  0  0  0  0
 14  1  2  0  0  0  0
 15  4  1  0  0  0  0
 16 12  1  0  0  0  0
 16 17  1  0  0  0  0
 19  3  2  0  0  0  0
 20 15  2  0  0  0  0
 20 19  1  0  0  0  0
 22 21  2  0  0  0  0
 23 22  1  0  0  0  0
 24 27  1  1  0  0  0
 25 28  1  0  0  0  0
 28 24  1  0  0  0  0
 29 26  1  1  0  0  0
 29 31  1  0  0  0  0
 30 22  1  1  0  0  0
 30 25  1  0  0  0  0
 30 29  1  0  0  0  0
 31 24  1  0  0  0  0
M  END
>  <MODEL>
4

>  <REMARK>
 VINA RESULT:      -5.6      1.548      2.152
  Name = 
  2 active torsions:
  status: ('A' for Active; 'I' for Inactive)
    1  A    between atoms: C_5  and  C_30
    2  A    between atoms: C_10  and  N_16
                            x       y       z     vdW  Elec       q    Type
                         _______ _______ _______ _____ _____    ______ ____

>  <TORSDO>
F 2

$$$$
=
 OpenBabel11122411133D

 31 35  0  0  1  0  0  0  0  0999 V2000
  179.6780  178.7040  142.8610 C   0  0  0  0  0  0  0  0  0  0  0  0
  182.7500  179.4470  140.7490 C   0  0  2  0  0  3  0  0  0  0  0  0
  184.0500  178.9910  141.3850 C   0  0  0  0  0  0  0  0  0  0  0  0
  185.3160  178.2600  143.3280 C   0  0  0  0  0  0  0  0  0  0  0  0
  181.5420  178.7570  141.3170 C   0  0  0  0  0  0  0  0  0  0  0  0
  179.3060  177.4470  142.3700 C   0  0  0  0  0  3  0  0  0  0  0  0
  184.1060  178.6420  142.7440 C   0  0  0  0  0  3  0  0  0  0  0  0
  182.4600  177.8440  138.6880 C   0  0  1  0  0  3  0  0  0  0  0  0
  178.9350  179.3000  143.8710 O   0  0  0  0  0  1  0  0  0  0  0  0
  185.2240  179.3810  139.2510 N   0  0  0  0  0  2  0  0  0  0  0  0
  185.3570  177.8780  144.7640 C   0  0  0  0  0  1  0  0  0  0  0  0
  181.9960  176.8480  139.7650 C   0  0  0  0  0  2  0  0  0  0  0  0
  182.7710  179.2820  139.2140 C   0  0  2  0  0  3  0  0  0  0  0  0
  180.7970  179.3580  142.3360 C   0  0  0  0  0  3  0  0  0  0  0  0
  186.4850  178.2380  142.5660 C   0  0  0  0  0  3  0  0  0  0  0  0
  181.1620  177.5020  140.8180 C   0  0  0  0  0  0  0  0  0  0  0  0
  180.0500  176.8450  141.3520 C   0  0  0  0  0  3  0  0  0  0  0  0
  184.0270  179.9330  138.6240 C   0  0  0  0  0  2  0  0  0  0  0  0
  185.2430  179.0010  140.6310 C   0  0  0  0  0  0  0  0  0  0  0  0
  186.4490  178.6090  141.2190 C   0  0  0  0  0  3  0  0  0  0  0  0
  182.6040  177.5390  135.8420 O   0  0  0  0  0  0  0  0  0  0  0  0
  183.5780  177.1220  136.5250 C   0  0  0  0  0  0  0  0  0  0  0  0
  183.5790  177.2720  137.9480 N   0  0  0  0  0  2  0  0  0  0  0  0
  184.8480  173.5490  136.2960 C   0  0  1  0  0  3  0  0  0  0  0  0
  184.2570  175.4520  134.7760 C   0  0  0  0  0  2  0  0  0  0  0  0
  186.1190  176.7220  137.7930 O   0  0  0  0  0  1  0  0  0  0  0  0
  184.3420  172.2620  136.9130 C   0  0  0  0  0  1  0  0  0  0  0  0
  183.7590  174.1560  135.4170 C   0  0  0  0  0  2  0  0  0  0  0  0
  185.7560  175.8260  136.7860 C   0  0  2  0  0  3  0  0  0  0  0  0
  184.7310  176.4600  135.8290 C   0  0  2  0  0  3  0  0  0  0  0  0
  185.2380  174.5260  137.3990 C   0  0  0  0  0  2  0  0  0  0  0  0
  1  9  1  0  0  0  0
  2  5  1  1  0  0  0
  2  3  1  0  0  0  0
  3  7  1  0  0  0  0
  4 11  1  0  0  0  0
  5 14  1  0  0  0  0
  6  1  1  0  0  0  0
  7  4  2  0  0  0  0
  8 23  1  1  0  0  0
  8 13  1  0  0  0  0
  8 12  1  0  0  0  0
 10 19  1  0  0  0  0
 12 16  1  0  0  0  0
 13 18  1  1  0  0  0
 13  2  1  0  0  0  0
 14  1  2  0  0  0  0
 15  4  1  0  0  0  0
 16  5  2  0  0  0  0
 16 17  1  0  0  0  0
 17  6  2  0  0  0  0
 18 10  1  0  0  0  0
 19 20  1  0  0  0  0
 19  3  2  0  0  0  0
 20 15  2  0  0  0  0
 21 22  2  0  0  0  0
 22 23  1  0  0  0  0
 24 27  1  1  0  0  0
 24 31  1  0  0  0  0
 25 28  1  0  0  0  0
 25 30  1  0  0  0  0
 28 24  1  0  0  0  0
 29 31  1  0  0  0  0
 29 26  1  1  0  0  0
 30 22  1  1  0  0  0
 30 29  1  0  0  0  0
M  END
>  <MODEL>
5

>  <REMARK>
 VINA RESULT:      -5.5      3.157      7.612
  Name = 
  2 active torsions:
  status: ('A' for Active; 'I' for Inactive)
    1  A    between atoms: C_5  and  C_30
    2  A    between atoms: C_10  and  N_16
                            x       y       z     vdW  Elec       q    Type
                         _______ _______ _______ _____ _____    ______ ____

>  <TORSDO>
F 2

$$$$
=
 OpenBabel11122411133D

 31 35  0  0  1  0  0  0  0  0999 V2000
  180.6440  179.0070  143.0100 C   0  0  0  0  0  0  0  0  0  0  0  0
  180.5910  177.8450  139.3920 C   0  0  2  0  0  3  0  0  0  0  0  0
  180.6230  178.9810  138.3870 C   0  0  0  0  0  0  0  0  0  0  0  0
  180.3580  181.3370  137.8440 C   0  0  0  0  0  0  0  0  0  0  0  0
  181.0810  178.2480  140.7540 C   0  0  0  0  0  0  0  0  0  0  0  0
  182.0170  179.0080  143.2770 C   0  0  0  0  0  3  0  0  0  0  0  0
  180.3630  180.3030  138.7840 C   0  0  0  0  0  3  0  0  0  0  0  0
  182.9280  176.6820  139.1030 C   0  0  1  0  0  3  0  0  0  0  0  0
  179.7460  179.3840  144.0000 O   0  0  0  0  0  1  0  0  0  0  0  0
  181.0640  177.3630  136.5790 N   0  0  0  0  0  2  0  0  0  0  0  0
  180.0980  182.7330  138.2800 C   0  0  0  0  0  1  0  0  0  0  0  0
  183.4170  177.8780  139.9390 C   0  0  0  0  0  2  0  0  0  0  0  0
  181.3810  176.6140  138.8960 C   0  0  2  0  0  3  0  0  0  0  0  0
  180.1750  178.6290  141.7490 C   0  0  0  0  0  3  0  0  0  0  0  0
  180.5960  181.0590  136.4960 C   0  0  0  0  0  3  0  0  0  0  0  0
  182.4570  178.2380  141.0250 C   0  0  0  0  0  0  0  0  0  0  0  0
  182.9240  178.6280  142.2840 C   0  0  0  0  0  3  0  0  0  0  0  0
  180.9320  176.2250  137.4830 C   0  0  0  0  0  2  0  0  0  0  0  0
  180.8260  178.7040  137.0180 C   0  0  0  0  0  0  0  0  0  0  0  0
  180.8290  179.7440  136.0840 C   0  0  0  0  0  3  0  0  0  0  0  0
  184.1810  174.3680  137.9680 O   0  0  0  0  0  0  0  0  0  0  0  0
  184.2860  175.4560  137.3420 C   0  0  0  0  0  0  0  0  0  0  0  0
  183.6590  176.6410  137.8420 N   0  0  0  0  0  2  0  0  0  0  0  0
  187.1650  173.4080  135.9440 C   0  0  1  0  0  3  0  0  0  0  0  0
  184.8990  174.2200  135.2430 C   0  0  0  0  0  2  0  0  0  0  0  0
  186.7360  176.9280  137.1070 O   0  0  0  0  0  1  0  0  0  0  0  0
  187.9300  172.2330  136.5140 C   0  0  0  0  0  1  0  0  0  0  0  0
  185.6870  173.0480  135.8280 C   0  0  0  0  0  2  0  0  0  0  0  0
  186.5750  175.8140  136.2820 C   0  0  2  0  0  3  0  0  0  0  0  0
  185.0840  175.4970  136.0710 C   0  0  2  0  0  3  0  0  0  0  0  0
  187.3390  174.6200  136.8520 C   0  0  0  0  0  2  0  0  0  0  0  0
  1  6  1  0  0  0  0
  1  9  1  0  0  0  0
  2  3  1  6  0  0  0
  2  5  1  0  0  0  0
  3  7  1  0  0  0  0
  4 11  1  0  0  0  0
  4  7  2  0  0  0  0
  5 16  2  0  0  0  0
  5 14  1  0  0  0  0
  8 23  1  6  0  0  0
  8 12  1  0  0  0  0
 10 19  1  0  0  0  0
 10 18  1  0  0  0  0
 12 16  1  0  0  0  0
 13 18  1  6  0  0  0
 13  8  1  0  0  0  0
 13  2  1  0  0  0  0
 14  1  2  0  0  0  0
 15  4  1  0  0  0  0
 16 17  1  0  0  0  0
 17  6  2  0  0  0  0
 19  3  2  0  0  0  0
 20 15  2  0  0  0  0
 20 19  1  0  0  0  0
 22 23  1  0  0  0  0
 22 21  2  0  0  0  0
 24 27  1  1  0  0  0
 24 31  1  0  0  0  0
 25 28  1  0  0  0  0
 25 30  1  0  0  0  0
 28 24  1  0  0  0  0
 29 31  1  0  0  0  0
 29 26  1  1  0  0  0
 30 29  1  0  0  0  0
 30 22  1  1  0  0  0
M  END
>  <MODEL>
6

>  <REMARK>
 VINA RESULT:      -5.3      3.064      8.018
  Name = 
  2 active torsions:
  status: ('A' for Active; 'I' for Inactive)
    1  A    between atoms: C_5  and  C_30
    2  A    between atoms: C_10  and  N_16
                            x       y       z     vdW  Elec       q    Type
                         _______ _______ _______ _____ _____    ______ ____

>  <TORSDO>
F 2

$$$$
=
 OpenBabel11122411133D

 31 35  0  0  1  0  0  0  0  0999 V2000
  188.5600  178.1860  139.8860 C   0  0  0  0  0  0  0  0  0  0  0  0
  185.0180  178.7130  138.6100 C   0  0  2  0  0  3  0  0  0  0  0  0
  184.3440  177.4380  138.1390 C   0  0  0  0  0  0  0  0  0  0  0  0
  184.4660  175.1140  137.4350 C   0  0  0  0  0  0  0  0  0  0  0  0
  186.1820  178.4620  139.5270 C   0  0  0  0  0  0  0  0  0  0  0  0
  188.3310  177.9780  141.2500 C   0  0  0  0  0  3  0  0  0  0  0  0
  185.0900  176.2720  137.9040 C   0  0  0  0  0  3  0  0  0  0  0  0
  183.6910  179.3620  140.7820 C   0  0  1  0  0  3  0  0  0  0  0  0
  189.8550  178.1510  139.3880 O   0  0  0  0  0  1  0  0  0  0  0  0
  182.1820  178.6210  138.0460 N   0  0  0  0  0  2  0  0  0  0  0  0
  185.2650  173.8820  137.2050 C   0  0  0  0  0  1  0  0  0  0  0  0
  184.5520  178.2550  141.4140 C   0  0  0  0  0  2  0  0  0  0  0  0
  184.0190  179.6770  139.2870 C   0  0  2  0  0  3  0  0  0  0  0  0
  187.4850  178.4260  139.0240 C   0  0  0  0  0  3  0  0  0  0  0  0
  183.0930  175.1130  137.1800 C   0  0  0  0  0  3  0  0  0  0  0  0
  185.9540  178.2640  140.8970 C   0  0  0  0  0  0  0  0  0  0  0  0
  187.0280  178.0130  141.7550 C   0  0  0  0  0  3  0  0  0  0  0  0
  182.7980  179.8990  138.3870 C   0  0  0  0  0  2  0  0  0  0  0  0
  182.9640  177.4390  137.8450 C   0  0  0  0  0  0  0  0  0  0  0  0
  182.3430  176.2750  137.3840 C   0  0  0  0  0  3  0  0  0  0  0  0
  182.3170  179.4040  143.2960 O   0  0  0  0  0  0  0  0  0  0  0  0
  181.6580  179.0690  142.2760 C   0  0  0  0  0  0  0  0  0  0  0  0
  182.2800  179.0570  140.9880 N   0  0  0  0  0  2  0  0  0  0  0  0
  178.9310  177.9710  139.8690 C   0  0  1  0  0  3  0  0  0  0  0  0
  179.9800  177.2190  142.0180 C   0  0  0  0  0  2  0  0  0  0  0  0
  179.5110  180.9560  142.0330 O   0  0  0  0  0  1  0  0  0  0  0  0
  178.9320  177.7870  138.3660 C   0  0  0  0  0  1  0  0  0  0  0  0
  179.9740  177.0540  140.4980 C   0  0  0  0  0  2  0  0  0  0  0  0
  179.2340  179.6230  141.7210 C   0  0  2  0  0  3  0  0  0  0  0  0
  180.2180  178.6760  142.4290 C   0  0  2  0  0  3  0  0  0  0  0  0
  179.2400  179.4250  140.2060 C   0  0  0  0  0  2  0  0  0  0  0  0
  1  6  1  0  0  0  0
  2  3  1  1  0  0  0
  2 13  1  0  0  0  0
  2  5  1  0  0  0  0
  4  7  2  0  0  0  0
  5 16  2  0  0  0  0
  6 17  2  0  0  0  0
  7  3  1  0  0  0  0
  8 23  1  6  0  0  0
  8 12  1  0  0  0  0
  9  1  1  0  0  0  0
 10 18  1  0  0  0  0
 11  4  1  0  0  0  0
 13 18  1  6  0  0  0
 13  8  1  0  0  0  0
 14  5  1  0  0  0  0
 14  1  2  0  0  0  0
 15 20  2  0  0  0  0
 15  4  1  0  0  0  0
 16 12  1  0  0  0  0
 16 17  1  0  0  0  0
 19 10  1  0  0  0  0
 19  3  2  0  0  0  0
 20 19  1  0  0  0  0
 22 21  2  0  0  0  0
 23 22  1  0  0  0  0
 24 27  1  6  0  0  0
 24 31  1  0  0  0  0
 24 28  1  0  0  0  0
 25 30  1  0  0  0  0
 28 25  1  0  0  0  0
 29 26  1  6  0  0  0
 29 30  1  0  0  0  0
 30 22  1  6  0  0  0
 31 29  1  0  0  0  0
M  END
>  <MODEL>
7

>  <REMARK>
 VINA RESULT:      -5.0      2.684      3.921
  Name = 
  2 active torsions:
  status: ('A' for Active; 'I' for Inactive)
    1  A    between atoms: C_5  and  C_30
    2  A    between atoms: C_10  and  N_16
                            x       y       z     vdW  Elec       q    Type
                         _______ _______ _______ _____ _____    ______ ____

>  <TORSDO>
F 2

$$$$
=
 OpenBabel11122411133D

 31 35  0  0  1  0  0  0  0  0999 V2000
  183.0350  179.0290  142.8600 C   0  0  0  0  0  0  0  0  0  0  0  0
  180.5770  178.0560  140.1290 C   0  0  2  0  0  3  0  0  0  0  0  0
  180.5110  179.0510  138.9860 C   0  0  0  0  0  0  0  0  0  0  0  0
  180.9620  181.2590  138.0710 C   0  0  0  0  0  0  0  0  0  0  0  0
  181.8370  178.1710  140.9400 C   0  0  0  0  0  0  0  0  0  0  0  0
  184.1970  178.3820  142.4250 C   0  0  0  0  0  3  0  0  0  0  0  0
  181.0610  180.3360  139.1160 C   0  0  0  0  0  3  0  0  0  0  0  0
  181.6880  175.9330  139.0540 C   0  0  1  0  0  3  0  0  0  0  0  0
  183.0560  179.7760  144.0300 O   0  0  0  0  0  1  0  0  0  0  0  0
  179.2140  177.4300  137.6550 N   0  0  0  0  0  2  0  0  0  0  0  0
  181.5630  182.6100  138.2160 C   0  0  0  0  0  1  0  0  0  0  0  0
  182.9790  176.7520  139.2250 C   0  0  0  0  0  2  0  0  0  0  0  0
  180.4030  176.6020  139.6380 C   0  0  2  0  0  3  0  0  0  0  0  0
  181.8560  178.9250  142.1170 C   0  0  0  0  0  3  0  0  0  0  0  0
  180.2990  180.9120  136.8920 C   0  0  0  0  0  3  0  0  0  0  0  0
  182.9990  177.5130  140.5100 C   0  0  0  0  0  0  0  0  0  0  0  0
  184.1800  177.6270  141.2480 C   0  0  0  0  0  3  0  0  0  0  0  0
  179.1510  176.4810  138.7620 C   0  0  0  0  0  2  0  0  0  0  0  0
  179.8110  178.7210  137.8060 C   0  0  0  0  0  0  0  0  0  0  0  0
  179.7240  179.6450  136.7600 C   0  0  0  0  0  3  0  0  0  0  0  0
  180.8080  173.3840  138.0820 O   0  0  0  0  0  0  0  0  0  0  0  0
  181.1120  174.2620  137.2300 C   0  0  0  0  0  0  0  0  0  0  0  0
  181.5310  175.5630  137.6520 N   0  0  0  0  0  2  0  0  0  0  0  0
  180.0570  171.1840  135.2670 C   0  0  1  0  0  3  0  0  0  0  0  0
  179.5980  173.6480  135.3220 C   0  0  0  0  0  2  0  0  0  0  0  0
  183.2720  172.9940  135.8330 O   0  0  0  0  0  1  0  0  0  0  0  0
  179.5590  169.8280  135.7180 C   0  0  0  0  0  1  0  0  0  0  0  0
  179.1160  172.2700  135.7770 C   0  0  0  0  0  2  0  0  0  0  0  0
  181.9800  172.7800  135.3480 C   0  0  2  0  0  3  0  0  0  0  0  0
  181.0380  173.9220  135.7700 C   0  0  2  0  0  3  0  0  0  0  0  0
  181.4650  171.4160  135.8030 C   0  0  0  0  0  2  0  0  0  0  0  0
  1  9  1  0  0  0  0
  2  3  1  6  0  0  0
  2  5  1  0  0  0  0
  3  7  1  0  0  0  0
  4 11  1  0  0  0  0
  4  7  2  0  0  0  0
  5 14  1  0  0  0  0
  6  1  1  0  0  0  0
  8 23  1  6  0  0  0
  8 12  1  0  0  0  0
  8 13  1  0  0  0  0
 10 19  1  0  0  0  0
 10 18  1  0  0  0  0
 12 16  1  0  0  0  0
 13 18  1  6  0  0  0
 13  2  1  0  0  0  0
 14  1  2  0  0  0  0
 15  4  1  0  0  0  0
 16  5  2  0  0  0  0
 16 17  1  0  0  0  0
 17  6  2  0  0  0  0
 19  3  2  0  0  0  0
 20 15  2  0  0  0  0
 20 19  1  0  0  0  0
 22 23  1  0  0  0  0
 22 21  2  0  0  0  0
 24 27  1  1  0  0  0
 24 28  1  0  0  0  0
 24 31  1  0  0  0  0
 25 30  1  0  0  0  0
 25 28  1  0  0  0  0
 29 30  1  0  0  0  0
 29 31  1  0  0  0  0
 29 26  1  1  0  0  0
 30 22  1  1  0  0  0
M  END
>  <MODEL>
8

>  <REMARK>
 VINA RESULT:      -4.8      5.121      8.103
  Name = 
  2 active torsions:
  status: ('A' for Active; 'I' for Inactive)
    1  A    between atoms: C_5  and  C_30
    2  A    between atoms: C_10  and  N_16
                            x       y       z     vdW  Elec       q    Type
                         _______ _______ _______ _____ _____    ______ ____

>  <TORSDO>
F 2

$$$$
=
 OpenBabel11122411133D

 31 35  0  0  1  0  0  0  0  0999 V2000
  189.7360  177.4900  141.7690 C   0  0  0  0  0  0  0  0  0  0  0  0
  189.9110  175.6560  138.4440 C   0  0  2  0  0  3  0  0  0  0  0  0
  189.4250  176.4810  137.2680 C   0  0  0  0  0  0  0  0  0  0  0  0
  188.2140  178.3920  136.3770 C   0  0  0  0  0  0  0  0  0  0  0  0
  190.2890  176.4920  139.6350 C   0  0  0  0  0  0  0  0  0  0  0  0
  191.0110  178.0630  141.8330 C   0  0  0  0  0  3  0  0  0  0  0  0
  188.6890  177.6600  137.4680 C   0  0  0  0  0  3  0  0  0  0  0  0
  192.4940  175.4230  138.0260 C   0  0  1  0  0  3  0  0  0  0  0  0
  188.8290  177.7030  142.7990 O   0  0  0  0  0  1  0  0  0  0  0  0
  190.3510  174.8030  135.7150 N   0  0  0  0  0  2  0  0  0  0  0  0
  187.4510  179.6470  136.6030 C   0  0  0  0  0  1  0  0  0  0  0  0
  192.5230  176.8620  138.5690 C   0  0  0  0  0  2  0  0  0  0  0  0
  191.0900  174.7370  138.0560 C   0  0  2  0  0  3  0  0  0  0  0  0
  189.3740  176.7070  140.6690 C   0  0  0  0  0  3  0  0  0  0  0  0
  188.4540  177.9450  135.0760 C   0  0  0  0  0  3  0  0  0  0  0  0
  191.5710  177.0570  139.7040 C   0  0  0  0  0  0  0  0  0  0  0  0
  191.9270  177.8500  140.7990 C   0  0  0  0  0  3  0  0  0  0  0  0
  190.7400  173.9180  136.8090 C   0  0  0  0  0  2  0  0  0  0  0  0
  189.6310  176.0170  135.9510 C   0  0  0  0  0  0  0  0  0  0  0  0
  189.1610  176.7590  134.8640 C   0  0  0  0  0  3  0  0  0  0  0  0
  195.2760  175.0350  137.4580 O   0  0  0  0  0  0  0  0  0  0  0  0
  194.5000  175.2210  136.4830 C   0  0  0  0  0  0  0  0  0  0  0  0
  193.0970  175.3930  136.6990 N   0  0  0  0  0  2  0  0  0  0  0  0
  197.8900  174.4140  134.9670 C   0  0  1  0  0  3  0  0  0  0  0  0
  195.4690  173.8780  134.5940 C   0  0  0  0  0  2  0  0  0  0  0  0
  195.8800  177.5200  135.4630 O   0  0  0  0  0  1  0  0  0  0  0  0
  199.1780  173.9240  135.5920 C   0  0  0  0  0  1  0  0  0  0  0  0
  196.7770  173.4040  135.2290 C   0  0  0  0  0  2  0  0  0  0  0  0
  196.2210  176.2760  134.9280 C   0  0  2  0  0  3  0  0  0  0  0  0
  195.0680  175.2700  135.0940 C   0  0  2  0  0  3  0  0  0  0  0  0
  197.5170  175.7690  135.5580 C   0  0  0  0  0  2  0  0  0  0  0  0
  1  6  1  0  0  0  0
  1  9  1  0  0  0  0
  2  3  1  6  0  0  0
  2  5  1  0  0  0  0
  3  7  1  0  0  0  0
  4 11  1  0  0  0  0
  4  7  2  0  0  0  0
  5 16  2  0  0  0  0
  5 14  1  0  0  0  0
  8 23  1  6  0  0  0
  8 13  1  0  0  0  0
  8 12  1  0  0  0  0
 10 19  1  0  0  0  0
 10 18  1  0  0  0  0
 12 16  1  0  0  0  0
 13 18  1  6  0  0  0
 13  2  1  0  0  0  0
 14  1  2  0  0  0  0
 15  4  1  0  0  0  0
 16 17  1  0  0  0  0
 17  6  2  0  0  0  0
 19  3  2  0  0  0  0
 20 15  2  0  0  0  0
 20 19  1  0  0  0  0
 22 23  1  0  0  0  0
 22 21  2  0  0  0  0
 24 28  1  0  0  0  0
 24 31  1  0  0  0  0
 24 27  1  1  0  0  0
 25 30  1  0  0  0  0
 25 28  1  0  0  0  0
 29 30  1  0  0  0  0
 29 26  1  1  0  0  0
 29 31  1  0  0  0  0
 30 22  1  1  0  0  0
M  END
>  <MODEL>
9

>  <REMARK>
 VINA RESULT:      -4.7      4.086      9.034
  Name = 
  2 active torsions:
  status: ('A' for Active; 'I' for Inactive)
    1  A    between atoms: C_5  and  C_30
    2  A    between atoms: C_10  and  N_16
                            x       y       z     vdW  Elec       q    Type
                         _______ _______ _______ _____ _____    ______ ____

>  <TORSDO>
F 2

$$$$
