=
 OpenBabel11122410343D

 30 35  0  0  1  0  0  0  0  0999 V2000
  186.2700  177.9490  142.7270 C   0  0  0  0  0  0  0  0  0  0  0  0
  183.9130  178.8010  142.6080 C   0  0  0  0  0  0  0  0  0  0  0  0
  186.2040  178.0410  146.8180 O   0  0  0  0  0  0  0  0  0  0  0  0
  187.3740  177.5300  143.5130 C   0  0  0  0  0  0  0  0  0  0  0  0
  186.4330  177.8770  141.2300 C   0  0  0  0  0  2  0  0  0  0  0  0
  189.7520  178.9600  142.0830 O   0  0  0  0  0  1  0  0  0  0  0  0
  190.3030  177.2270  144.6560 C   0  0  1  0  0  3  0  0  0  0  0  0
  188.9990  177.8870  141.6030 C   0  0  2  0  0  3  0  0  0  0  0  0
  189.5350  177.0420  145.8670 N   0  0  0  0  0  0  0  0  0  0  0  0
  187.4210  177.6450  147.1240 C   0  0  0  0  0  0  0  0  0  0  0  0
  187.8000  178.4320  140.7980 C   0  0  1  0  0  3  0  0  0  0  0  0
  188.5650  176.9730  142.7590 C   0  0  1  0  0  3  0  0  0  0  0  0
  182.7580  179.2160  143.2770 C   0  0  0  0  0  3  0  0  0  0  0  0
  190.3530  176.6460  146.9960 C   0  0  0  0  0  2  0  0  0  0  0  0
  191.7210  176.7930  144.9870 C   0  0  0  0  0  2  0  0  0  0  0  0
  183.8940  178.8050  141.2180 O   0  0  0  0  0  1  0  0  0  0  0  0
  186.0960  178.0440  145.5090 C   0  0  0  0  0  0  0  0  0  0  0  0
  182.7060  179.2390  144.6680 C   0  0  0  0  0  3  0  0  0  0  0  0
  185.0570  178.3910  143.3450 C   0  0  0  0  0  0  0  0  0  0  0  0
  187.2630  177.6270  144.9140 C   0  0  0  0  0  0  0  0  0  0  0  0
  187.9130  177.5460  148.5260 C   0  0  0  0  0  1  0  0  0  0  0  0
  188.1400  177.3760  145.9620 C   0  0  0  0  0  0  0  0  0  0  0  0
  191.7880  176.6710  146.5020 C   0  0  0  0  0  2  0  0  0  0  0  0
  190.0810  175.2750  143.3330 O   0  0  0  0  0  0  0  0  0  0  0  0
  183.8160  178.8460  145.4130 C   0  0  0  0  0  3  0  0  0  0  0  0
  184.9820  178.4250  144.7680 C   0  0  0  0  0  0  0  0  0  0  0  0
  189.7010  176.4150  143.5540 C   0  0  0  0  0  0  0  0  0  0  0  0
  188.0180  178.2850  139.2960 C   0  0  0  0  0  2  0  0  0  0  0  0
  189.8490  177.5570  137.7950 C   0  0  0  0  0  1  0  0  0  0  0  0
  188.9800  177.1550  138.9670 C   0  0  0  0  0  2  0  0  0  0  0  0
  1 19  2  0  0  0  0
  1  4  1  0  0  0  0
  2 13  2  0  0  0  0
  2 19  1  0  0  0  0
  3 10  1  0  0  0  0
  4 20  2  0  0  0  0
  5  1  1  0  0  0  0
  7 15  1  1  0  0  0
  7  9  1  0  0  0  0
  8  6  1  1  0  0  0
  8 12  1  0  0  0  0
  9 22  1  0  0  0  0
  9 14  1  0  0  0  0
 10 21  1  0  0  0  0
 11 28  1  6  0  0  0
 11  5  1  0  0  0  0
 11  8  1  0  0  0  0
 12  4  1  1  0  0  0
 12 27  1  0  0  0  0
 13 18  1  0  0  0  0
 15 23  1  0  0  0  0
 16  2  1  0  0  0  0
 17  3  1  0  0  0  0
 18 25  2  0  0  0  0
 19 26  1  0  0  0  0
 20 17  1  0  0  0  0
 20 22  1  0  0  0  0
 22 10  2  0  0  0  0
 23 14  1  0  0  0  0
 24 27  2  0  0  0  0
 26 25  1  0  0  0  0
 26 17  2  0  0  0  0
 27  7  1  0  0  0  0
 29 30  1  0  0  0  0
 30 28  1  0  0  0  0
M  END
>  <MODEL>
1

>  <REMARK>
 VINA RESULT:     -10.7      0.000      0.000
  Name = 
  2 active torsions:
  status: ('A' for Active; 'I' for Inactive)
    1  A    between atoms: C_11  and  C_28
    2  A    between atoms: C_28  and  C_30
                            x       y       z     vdW  Elec       q    Type
                         _______ _______ _______ _____ _____    ______ ____

>  <TORSDO>
F 2

$$$$
=
 OpenBabel11122410343D

 30 35  0  0  1  0  0  0  0  0999 V2000
  188.7540  177.6680  144.6660 C   0  0  0  0  0  0  0  0  0  0  0  0
  187.0840  178.0500  146.4990 C   0  0  0  0  0  0  0  0  0  0  0  0
  185.9490  178.4880  141.8020 O   0  0  0  0  0  0  0  0  0  0  0  0
  189.0600  177.6610  143.2810 C   0  0  0  0  0  0  0  0  0  0  0  0
  189.8780  177.3340  145.6140 C   0  0  0  0  0  2  0  0  0  0  0  0
  190.6650  174.9990  142.9970 O   0  0  0  0  0  1  0  0  0  0  0  0
  190.1060  176.7550  140.4420 C   0  0  1  0  0  3  0  0  0  0  0  0
  191.0800  176.1720  143.6310 C   0  0  2  0  0  3  0  0  0  0  0  0
  188.9540  177.5370  140.0520 N   0  0  0  0  0  0  0  0  0  0  0  0
  186.6270  178.3050  140.6890 C   0  0  0  0  0  0  0  0  0  0  0  0
  190.6710  176.1130  145.1180 C   0  0  1  0  0  3  0  0  0  0  0  0
  190.5070  177.4030  142.9120 C   0  0  1  0  0  3  0  0  0  0  0  0
  185.7830  178.3930  146.8770 C   0  0  0  0  0  3  0  0  0  0  0  0
  188.8580  177.7200  138.6180 C   0  0  0  0  0  2  0  0  0  0  0  0
  190.9000  176.5130  139.1690 C   0  0  0  0  0  2  0  0  0  0  0  0
  187.9970  177.7610  147.5070 O   0  0  0  0  0  1  0  0  0  0  0  0
  186.7580  178.2600  142.8110 C   0  0  0  0  0  0  0  0  0  0  0  0
  184.8160  178.6930  145.9210 C   0  0  0  0  0  3  0  0  0  0  0  0
  187.4410  178.0050  145.1250 C   0  0  0  0  0  0  0  0  0  0  0  0
  188.0170  177.9290  142.3730 C   0  0  0  0  0  0  0  0  0  0  0  0
  186.0200  178.4510  139.3360 C   0  0  0  0  0  1  0  0  0  0  0  0
  187.9390  177.9430  140.9850 C   0  0  0  0  0  0  0  0  0  0  0  0
  189.9880  176.9060  138.0160 C   0  0  0  0  0  2  0  0  0  0  0  0
  191.8090  178.2420  141.1470 O   0  0  0  0  0  0  0  0  0  0  0  0
  185.1400  178.6520  144.5660 C   0  0  0  0  0  3  0  0  0  0  0  0
  186.4350  178.3140  144.1630 C   0  0  0  0  0  0  0  0  0  0  0  0
  190.8930  177.5020  141.4710 C   0  0  0  0  0  0  0  0  0  0  0  0
  191.8650  175.8150  146.0180 C   0  0  0  0  0  2  0  0  0  0  0  0
  192.7570  175.7890  148.3290 C   0  0  0  0  0  1  0  0  0  0  0  0
  191.6380  176.2930  147.4440 C   0  0  0  0  0  2  0  0  0  0  0  0
  1 19  1  0  0  0  0
  1  5  1  0  0  0  0
  2 13  1  0  0  0  0
  2 16  1  0  0  0  0
  3 17  1  0  0  0  0
  4  1  2  0  0  0  0
  7 15  1  6  0  0  0
  7 27  1  0  0  0  0
  8  6  1  6  0  0  0
  8 11  1  0  0  0  0
  9  7  1  0  0  0  0
  9 22  1  0  0  0  0
 10 22  2  0  0  0  0
 10  3  1  0  0  0  0
 11  5  1  0  0  0  0
 11 28  1  1  0  0  0
 12 27  1  6  0  0  0
 12  4  1  0  0  0  0
 12  8  1  0  0  0  0
 14  9  1  0  0  0  0
 17 26  1  0  0  0  0
 18 13  2  0  0  0  0
 19  2  2  0  0  0  0
 20 17  2  0  0  0  0
 20  4  1  0  0  0  0
 21 10  1  0  0  0  0
 22 20  1  0  0  0  0
 23 14  1  0  0  0  0
 23 15  1  0  0  0  0
 24 27  2  0  0  0  0
 25 18  1  0  0  0  0
 26 25  2  0  0  0  0
 26 19  1  0  0  0  0
 28 30  1  0  0  0  0
 30 29  1  0  0  0  0
M  END
>  <MODEL>
2

>  <REMARK>
 VINA RESULT:     -10.5      1.787      5.657
  Name = 
  2 active torsions:
  status: ('A' for Active; 'I' for Inactive)
    1  A    between atoms: C_11  and  C_28
    2  A    between atoms: C_28  and  C_30
                            x       y       z     vdW  Elec       q    Type
                         _______ _______ _______ _____ _____    ______ ____

>  <TORSDO>
F 2

$$$$
=
 OpenBabel11122410343D

 30 35  0  0  1  0  0  0  0  0999 V2000
  185.5930  178.4420  143.6880 C   0  0  0  0  0  0  0  0  0  0  0  0
  183.1740  178.7880  144.2540 C   0  0  0  0  0  0  0  0  0  0  0  0
  184.7830  178.6110  139.6800 O   0  0  0  0  0  0  0  0  0  0  0  0
  186.6090  178.3380  142.7040 C   0  0  0  0  0  0  0  0  0  0  0  0
  186.0280  178.3500  145.1290 C   0  0  0  0  0  2  0  0  0  0  0  0
  188.2440  175.8880  143.7360 O   0  0  0  0  0  1  0  0  0  0  0  0
  189.0890  177.2960  141.0480 C   0  0  1  0  0  3  0  0  0  0  0  0
  188.1800  177.1610  144.3050 C   0  0  2  0  0  3  0  0  0  0  0  0
  188.3020  177.8830  139.9870 N   0  0  0  0  0  0  0  0  0  0  0  0
  185.9700  178.4080  139.1490 C   0  0  0  0  0  0  0  0  0  0  0  0
  187.0250  177.1980  145.3290 C   0  0  1  0  0  3  0  0  0  0  0  0
  188.0330  178.2310  143.2140 C   0  0  1  0  0  3  0  0  0  0  0  0
  181.8630  178.9970  143.8170 C   0  0  0  0  0  3  0  0  0  0  0  0
  188.9990  177.9100  138.7170 C   0  0  0  0  0  2  0  0  0  0  0  0
  190.4640  177.0330  140.4550 C   0  0  0  0  0  2  0  0  0  0  0  0
  183.3960  178.7190  145.6250 O   0  0  0  0  0  1  0  0  0  0  0  0
  184.9160  178.5890  140.9870 C   0  0  0  0  0  0  0  0  0  0  0  0
  181.5660  179.0760  142.4590 C   0  0  0  0  0  3  0  0  0  0  0  0
  184.2290  178.6530  143.3120 C   0  0  0  0  0  0  0  0  0  0  0  0
  186.2250  178.3790  141.3500 C   0  0  0  0  0  0  0  0  0  0  0  0
  186.1990  178.3400  137.6780 C   0  0  0  0  0  1  0  0  0  0  0  0
  186.9210  178.2470  140.1540 C   0  0  0  0  0  0  0  0  0  0  0  0
  190.3160  177.1910  138.9490 C   0  0  0  0  0  2  0  0  0  0  0  0
  190.0440  179.0510  142.3210 O   0  0  0  0  0  0  0  0  0  0  0  0
  182.5820  178.9440  141.5150 C   0  0  0  0  0  3  0  0  0  0  0  0
  183.9010  178.7350  141.9270 C   0  0  0  0  0  0  0  0  0  0  0  0
  189.1400  178.2360  142.2100 C   0  0  0  0  0  0  0  0  0  0  0  0
  187.5430  177.1450  146.7630 C   0  0  0  0  0  2  0  0  0  0  0  0
  189.1300  178.2140  148.3360 C   0  0  0  0  0  1  0  0  0  0  0  0
  188.9120  177.7940  146.8990 C   0  0  0  0  0  2  0  0  0  0  0  0
  1  5  1  0  0  0  0
  2 16  1  0  0  0  0
  3 17  1  0  0  0  0
  4 12  1  0  0  0  0
  4  1  2  0  0  0  0
  5 11  1  0  0  0  0
  7 15  1  6  0  0  0
  7 27  1  0  0  0  0
  8  6  1  6  0  0  0
  8 11  1  0  0  0  0
  9 22  1  0  0  0  0
  9  7  1  0  0  0  0
 10  3  1  0  0  0  0
 10 22  2  0  0  0  0
 11 28  1  1  0  0  0
 12 27  1  6  0  0  0
 12  8  1  0  0  0  0
 13  2  1  0  0  0  0
 14 23  1  0  0  0  0
 14  9  1  0  0  0  0
 17 20  2  0  0  0  0
 17 26  1  0  0  0  0
 18 13  2  0  0  0  0
 19  1  1  0  0  0  0
 19  2  2  0  0  0  0
 20  4  1  0  0  0  0
 21 10  1  0  0  0  0
 22 20  1  0  0  0  0
 23 15  1  0  0  0  0
 25 26  2  0  0  0  0
 25 18  1  0  0  0  0
 26 19  1  0  0  0  0
 27 24  2  0  0  0  0
 28 30  1  0  0  0  0
 30 29  1  0  0  0  0
M  END
>  <MODEL>
3

>  <REMARK>
 VINA RESULT:      -9.7      1.883      5.463
  Name = 
  2 active torsions:
  status: ('A' for Active; 'I' for Inactive)
    1  A    between atoms: C_11  and  C_28
    2  A    between atoms: C_28  and  C_30
                            x       y       z     vdW  Elec       q    Type
                         _______ _______ _______ _____ _____    ______ ____

>  <TORSDO>
F 2

$$$$
=
 OpenBabel11122410343D

 30 35  0  0  1  0  0  0  0  0999 V2000
  187.5610  178.2390  143.4180 C   0  0  0  0  0  0  0  0  0  0  0  0
  186.5260  178.3080  145.7020 C   0  0  0  0  0  0  0  0  0  0  0  0
  183.9070  178.7170  141.6390 O   0  0  0  0  0  0  0  0  0  0  0  0
  187.4080  178.3210  142.0100 C   0  0  0  0  0  0  0  0  0  0  0  0
  188.9620  178.0490  143.9420 C   0  0  0  0  0  2  0  0  0  0  0  0
  189.1780  175.9420  141.0380 O   0  0  0  0  0  1  0  0  0  0  0  0
  187.6060  177.6720  138.9260 C   0  0  1  0  0  3  0  0  0  0  0  0
  189.6130  177.1430  141.6000 C   0  0  2  0  0  3  0  0  0  0  0  0
  186.2970  178.2840  138.9740 N   0  0  0  0  0  0  0  0  0  0  0  0
  184.2130  178.6730  140.3590 C   0  0  0  0  0  0  0  0  0  0  0  0
  189.7100  176.9770  143.1310 C   0  0  1  0  0  3  0  0  0  0  0  0
  188.6830  178.2960  141.1910 C   0  0  1  0  0  3  0  0  0  0  0  0
  185.3790  178.4390  146.4910 C   0  0  0  0  0  3  0  0  0  0  0  0
  185.7260  178.4950  137.6600 C   0  0  0  0  0  2  0  0  0  0  0  0
  187.9790  177.5920  137.4540 C   0  0  0  0  0  2  0  0  0  0  0  0
  187.7420  178.1280  146.3520 O   0  0  0  0  0  1  0  0  0  0  0  0
  185.0180  178.5810  142.3260 C   0  0  0  0  0  0  0  0  0  0  0  0
  184.1270  178.6200  145.9090 C   0  0  0  0  0  3  0  0  0  0  0  0
  186.4290  178.3600  144.2860 C   0  0  0  0  0  0  0  0  0  0  0  0
  186.1040  178.4570  141.4940 C   0  0  0  0  0  0  0  0  0  0  0  0
  183.1940  178.7670  139.2780 C   0  0  0  0  0  1  0  0  0  0  0  0
  185.5870  178.5030  140.2050 C   0  0  0  0  0  0  0  0  0  0  0  0
  186.7030  177.8800  136.6760 C   0  0  0  0  0  2  0  0  0  0  0  0
  189.2310  179.3760  139.1800 O   0  0  0  0  0  0  0  0  0  0  0  0
  184.0060  178.6710  144.5220 C   0  0  0  0  0  3  0  0  0  0  0  0
  185.1380  178.5440  143.7120 C   0  0  0  0  0  0  0  0  0  0  0  0
  188.5730  178.4960  139.7140 C   0  0  0  0  0  0  0  0  0  0  0  0
  191.1570  176.8350  143.5900 C   0  0  0  0  0  2  0  0  0  0  0  0
  191.6740  176.4010  145.9740 C   0  0  0  0  0  1  0  0  0  0  0  0
  191.3910  177.4780  144.9490 C   0  0  0  0  0  2  0  0  0  0  0  0
  1  5  1  0  0  0  0
  1 19  1  0  0  0  0
  2 16  1  0  0  0  0
  2 13  1  0  0  0  0
  3 17  1  0  0  0  0
  4  1  2  0  0  0  0
  7 15  1  6  0  0  0
  7  9  1  0  0  0  0
  7 27  1  0  0  0  0
  8  6  1  6  0  0  0
  8 11  1  0  0  0  0
  9 22  1  0  0  0  0
 10  3  1  0  0  0  0
 11 28  1  1  0  0  0
 11  5  1  0  0  0  0
 12 27  1  6  0  0  0
 12  8  1  0  0  0  0
 12  4  1  0  0  0  0
 14  9  1  0  0  0  0
 17 26  1  0  0  0  0
 18 13  2  0  0  0  0
 19  2  2  0  0  0  0
 20  4  1  0  0  0  0
 20 17  2  0  0  0  0
 21 10  1  0  0  0  0
 22 10  2  0  0  0  0
 22 20  1  0  0  0  0
 23 15  1  0  0  0  0
 23 14  1  0  0  0  0
 24 27  2  0  0  0  0
 25 18  1  0  0  0  0
 26 19  1  0  0  0  0
 26 25  2  0  0  0  0
 28 30  1  0  0  0  0
 30 29  1  0  0  0  0
M  END
>  <MODEL>
4

>  <REMARK>
 VINA RESULT:      -9.1      2.116      5.778
  Name = 
  2 active torsions:
  status: ('A' for Active; 'I' for Inactive)
    1  A    between atoms: C_11  and  C_28
    2  A    between atoms: C_28  and  C_30
                            x       y       z     vdW  Elec       q    Type
                         _______ _______ _______ _____ _____    ______ ____

>  <TORSDO>
F 2

$$$$
=
 OpenBabel11122410343D

 30 35  0  0  1  0  0  0  0  0999 V2000
  186.6060  178.4720  141.1790 C   0  0  0  0  0  0  0  0  0  0  0  0
  188.3780  177.8290  142.8340 C   0  0  0  0  0  0  0  0  0  0  0  0
  183.7140  178.3420  144.0720 O   0  0  0  0  0  0  0  0  0  0  0  0
  185.2490  178.7860  140.9100 C   0  0  0  0  0  0  0  0  0  0  0  0
  187.5660  178.5470  140.0190 C   0  0  0  0  0  2  0  0  0  0  0  0
  184.7310  177.1720  138.2890 O   0  0  0  0  0  1  0  0  0  0  0  0
  182.3820  178.8230  139.5850 C   0  0  1  0  0  3  0  0  0  0  0  0
  185.5240  178.3110  138.4360 C   0  0  2  0  0  3  0  0  0  0  0  0
  182.0280  179.0600  140.9670 N   0  0  0  0  0  0  0  0  0  0  0  0
  182.6260  178.6280  143.3890 C   0  0  0  0  0  0  0  0  0  0  0  0
  186.9690  177.8800  138.7680 C   0  0  1  0  0  3  0  0  0  0  0  0
  184.9310  179.2460  139.5010 C   0  0  1  0  0  3  0  0  0  0  0  0
  188.7230  177.5070  144.1500 C   0  0  0  0  0  3  0  0  0  0  0  0
  180.6240  179.3710  141.1420 C   0  0  0  0  0  2  0  0  0  0  0  0
  181.1340  179.1290  138.7730 C   0  0  0  0  0  2  0  0  0  0  0  0
  189.3920  177.8410  141.8830 O   0  0  0  0  0  1  0  0  0  0  0  0
  184.7310  178.3620  143.2400 C   0  0  0  0  0  0  0  0  0  0  0  0
  187.7590  177.4730  145.1550 C   0  0  0  0  0  3  0  0  0  0  0  0
  187.0300  178.1300  142.5020 C   0  0  0  0  0  0  0  0  0  0  0  0
  184.3250  178.6840  141.9670 C   0  0  0  0  0  0  0  0  0  0  0  0
  181.2700  178.6690  144.0050 C   0  0  0  0  0  1  0  0  0  0  0  0
  182.9470  178.8470  142.0520 C   0  0  0  0  0  0  0  0  0  0  0  0
  179.9900  179.2290  139.7710 C   0  0  0  0  0  2  0  0  0  0  0  0
  183.3550  180.8010  138.7190 O   0  0  0  0  0  0  0  0  0  0  0  0
  186.4300  177.7620  144.8540 C   0  0  0  0  0  3  0  0  0  0  0  0
  186.0600  178.0870  143.5460 C   0  0  0  0  0  0  0  0  0  0  0  0
  183.5360  179.6960  139.2080 C   0  0  0  0  0  0  0  0  0  0  0  0
  187.8900  178.0240  137.5610 C   0  0  0  0  0  2  0  0  0  0  0  0
  190.1890  177.1250  137.7710 C   0  0  0  0  0  1  0  0  0  0  0  0
  189.3190  178.3470  137.9690 C   0  0  0  0  0  2  0  0  0  0  0  0
  1 19  1  0  0  0  0
  2 13  1  0  0  0  0
  4  1  2  0  0  0  0
  4 20  1  0  0  0  0
  5  1  1  0  0  0  0
  7 15  1  6  0  0  0
  7  9  1  0  0  0  0
  8  6  1  1  0  0  0
  8 11  1  0  0  0  0
  8 12  1  0  0  0  0
  9 14  1  0  0  0  0
  9 22  1  0  0  0  0
 10 21  1  0  0  0  0
 10  3  1  0  0  0  0
 11 28  1  6  0  0  0
 11  5  1  0  0  0  0
 12 27  1  1  0  0  0
 12  4  1  0  0  0  0
 13 18  2  0  0  0  0
 15 23  1  0  0  0  0
 16  2  1  0  0  0  0
 17 26  1  0  0  0  0
 17  3  1  0  0  0  0
 19  2  2  0  0  0  0
 19 26  1  0  0  0  0
 20 22  1  0  0  0  0
 20 17  2  0  0  0  0
 22 10  2  0  0  0  0
 23 14  1  0  0  0  0
 24 27  2  0  0  0  0
 25 18  1  0  0  0  0
 26 25  2  0  0  0  0
 27  7  1  0  0  0  0
 28 30  1  0  0  0  0
 29 30  1  0  0  0  0
M  END
>  <MODEL>
5

>  <REMARK>
 VINA RESULT:      -8.9      2.746      6.511
  Name = 
  2 active torsions:
  status: ('A' for Active; 'I' for Inactive)
    1  A    between atoms: C_11  and  C_28
    2  A    between atoms: C_28  and  C_30
                            x       y       z     vdW  Elec       q    Type
                         _______ _______ _______ _____ _____    ______ ____

>  <TORSDO>
F 2

$$$$
=
 OpenBabel11122410343D

 30 35  0  0  1  0  0  0  0  0999 V2000
  187.6900  177.5760  143.6420 C   0  0  0  0  0  0  0  0  0  0  0  0
  190.0050  177.1130  144.4930 C   0  0  0  0  0  0  0  0  0  0  0  0
  189.0670  177.9490  139.8070 O   0  0  0  0  0  0  0  0  0  0  0  0
  186.8260  177.8330  142.5480 C   0  0  0  0  0  0  0  0  0  0  0  0
  187.0530  177.4750  145.0060 C   0  0  0  0  0  2  0  0  0  0  0  0
  185.0540  180.1460  143.6690 O   0  0  0  0  0  1  0  0  0  0  0  0
  184.6060  179.1380  140.7180 C   0  0  1  0  0  3  0  0  0  0  0  0
  185.0380  178.8050  144.0580 C   0  0  2  0  0  3  0  0  0  0  0  0
  185.5390  178.6900  139.7080 N   0  0  0  0  0  0  0  0  0  0  0  0
  187.9680  178.2460  139.1450 C   0  0  0  0  0  0  0  0  0  0  0  0
  186.0350  178.6060  145.2200 C   0  0  1  0  0  3  0  0  0  0  0  0
  185.3430  177.8930  142.8600 C   0  0  1  0  0  3  0  0  0  0  0  0
  191.3650  176.9420  144.2220 C   0  0  0  0  0  3  0  0  0  0  0  0
  185.0310  178.8510  138.3610 C   0  0  0  0  0  2  0  0  0  0  0  0
  183.3300  179.5050  139.9780 C   0  0  0  0  0  2  0  0  0  0  0  0
  189.5880  176.9950  145.8140 O   0  0  0  0  0  1  0  0  0  0  0  0
  188.7480  177.7930  141.0710 C   0  0  0  0  0  0  0  0  0  0  0  0
  191.8540  177.0480  142.9220 C   0  0  0  0  0  3  0  0  0  0  0  0
  189.0950  177.3950  143.4390 C   0  0  0  0  0  0  0  0  0  0  0  0
  187.4000  177.9730  141.2700 C   0  0  0  0  0  0  0  0  0  0  0  0
  187.9520  178.5200  137.6810 C   0  0  0  0  0  1  0  0  0  0  0  0
  186.8830  178.2820  140.0170 C   0  0  0  0  0  0  0  0  0  0  0  0
  183.6930  179.5540  138.5010 C   0  0  0  0  0  2  0  0  0  0  0  0
  183.4830  177.2410  141.5840 O   0  0  0  0  0  0  0  0  0  0  0  0
  190.9830  177.3270  141.8710 C   0  0  0  0  0  3  0  0  0  0  0  0
  189.6180  177.5000  142.1170 C   0  0  0  0  0  0  0  0  0  0  0  0
  184.3910  178.0480  141.7180 C   0  0  0  0  0  0  0  0  0  0  0  0
  185.3170  178.4690  146.5590 C   0  0  0  0  0  2  0  0  0  0  0  0
  187.2570  178.3660  148.0960 C   0  0  0  0  0  1  0  0  0  0  0  0
  186.0560  179.1860  147.6780 C   0  0  0  0  0  2  0  0  0  0  0  0
  1  5  1  0  0  0  0
  2 16  1  0  0  0  0
  3 17  1  0  0  0  0
  4 12  1  0  0  0  0
  4  1  2  0  0  0  0
  5 11  1  0  0  0  0
  7 15  1  6  0  0  0
  7 27  1  0  0  0  0
  8  6  1  6  0  0  0
  8 11  1  0  0  0  0
  9 22  1  0  0  0  0
  9  7  1  0  0  0  0
 10  3  1  0  0  0  0
 10 22  2  0  0  0  0
 11 28  1  1  0  0  0
 12 27  1  6  0  0  0
 12  8  1  0  0  0  0
 13  2  1  0  0  0  0
 14 23  1  0  0  0  0
 14  9  1  0  0  0  0
 17 20  2  0  0  0  0
 17 26  1  0  0  0  0
 18 13  2  0  0  0  0
 19  1  1  0  0  0  0
 19  2  2  0  0  0  0
 20  4  1  0  0  0  0
 21 10  1  0  0  0  0
 22 20  1  0  0  0  0
 23 15  1  0  0  0  0
 24 27  2  0  0  0  0
 25 26  2  0  0  0  0
 25 18  1  0  0  0  0
 26 19  1  0  0  0  0
 28 30  1  0  0  0  0
 30 29  1  0  0  0  0
M  END
>  <MODEL>
6

>  <REMARK>
 VINA RESULT:      -8.8      2.250      7.322
  Name = 
  2 active torsions:
  status: ('A' for Active; 'I' for Inactive)
    1  A    between atoms: C_11  and  C_28
    2  A    between atoms: C_28  and  C_30
                            x       y       z     vdW  Elec       q    Type
                         _______ _______ _______ _____ _____    ______ ____

>  <TORSDO>
F 2

$$$$
=
 OpenBabel11122410343D

 30 35  0  0  1  0  0  0  0  0999 V2000
  187.0680  178.3280  140.2660 C   0  0  0  0  0  0  0  0  0  0  0  0
  188.7840  177.6400  138.5700 C   0  0  0  0  0  0  0  0  0  0  0  0
  189.4760  177.1070  143.3420 O   0  0  0  0  0  0  0  0  0  0  0  0
  186.6910  178.4680  141.6260 C   0  0  0  0  0  0  0  0  0  0  0  0
  186.0810  178.8070  139.2320 C   0  0  0  0  0  2  0  0  0  0  0  0
  183.7600  177.3950  141.5840 O   0  0  0  0  0  1  0  0  0  0  0  0
  185.0350  178.3220  144.3120 C   0  0  1  0  0  3  0  0  0  0  0  0
  184.2300  178.5900  141.0350 C   0  0  2  0  0  3  0  0  0  0  0  0
  186.3770  178.1950  144.8320 N   0  0  0  0  0  0  0  0  0  0  0  0
  188.7260  177.3530  144.3960 C   0  0  0  0  0  0  0  0  0  0  0  0
  184.6570  178.3380  139.5730 C   0  0  1  0  0  3  0  0  0  0  0  0
  185.3700  179.1630  141.8900 C   0  0  1  0  0  3  0  0  0  0  0  0
  190.0450  177.1030  138.2960 C   0  0  0  0  0  3  0  0  0  0  0  0
  186.4250  178.2280  146.2800 C   0  0  0  0  0  2  0  0  0  0  0  0
  184.1420  178.5890  145.5130 C   0  0  0  0  0  2  0  0  0  0  0  0
  187.9940  178.0230  137.4910 O   0  0  0  0  0  1  0  0  0  0  0  0
  188.8050  177.4720  142.2740 C   0  0  0  0  0  0  0  0  0  0  0  0
  190.8880  176.6960  139.3270 C   0  0  0  0  0  3  0  0  0  0  0  0
  188.3430  177.7820  139.9130 C   0  0  0  0  0  0  0  0  0  0  0  0
  187.5770  177.9900  142.6110 C   0  0  0  0  0  0  0  0  0  0  0  0
  189.1540  177.0390  145.7870 C   0  0  0  0  0  1  0  0  0  0  0  0
  187.5110  177.9050  143.9970 C   0  0  0  0  0  0  0  0  0  0  0  0
  184.9810  178.2830  146.7440 C   0  0  0  0  0  2  0  0  0  0  0  0
  184.7070  180.5730  143.6480 O   0  0  0  0  0  0  0  0  0  0  0  0
  190.4780  176.8220  140.6520 C   0  0  0  0  0  3  0  0  0  0  0  0
  189.2220  177.3580  140.9520 C   0  0  0  0  0  0  0  0  0  0  0  0
  184.9900  179.4320  143.3110 C   0  0  0  0  0  0  0  0  0  0  0  0
  183.6330  178.8870  138.5860 C   0  0  0  0  0  2  0  0  0  0  0  0
  181.7690  180.4930  138.2950 C   0  0  0  0  0  1  0  0  0  0  0  0
  183.0540  180.2170  139.0450 C   0  0  0  0  0  2  0  0  0  0  0  0
  1  4  1  0  0  0  0
  2 19  1  0  0  0  0
  3 10  1  0  0  0  0
  4 20  2  0  0  0  0
  5 11  1  0  0  0  0
  5  1  1  0  0  0  0
  7  9  1  0  0  0  0
  7 15  1  1  0  0  0
  8  6  1  1  0  0  0
  8 12  1  0  0  0  0
  9 14  1  0  0  0  0
 10 21  1  0  0  0  0
 11 28  1  6  0  0  0
 11  8  1  0  0  0  0
 12  4  1  1  0  0  0
 12 27  1  0  0  0  0
 13  2  2  0  0  0  0
 13 18  1  0  0  0  0
 14 23  1  0  0  0  0
 15 23  1  0  0  0  0
 16  2  1  0  0  0  0
 17 20  1  0  0  0  0
 17  3  1  0  0  0  0
 18 25  2  0  0  0  0
 19  1  2  0  0  0  0
 19 26  1  0  0  0  0
 20 22  1  0  0  0  0
 22 10  2  0  0  0  0
 22  9  1  0  0  0  0
 25 26  1  0  0  0  0
 26 17  2  0  0  0  0
 27 24  2  0  0  0  0
 27  7  1  0  0  0  0
 28 30  1  0  0  0  0
 29 30  1  0  0  0  0
M  END
>  <MODEL>
7

>  <REMARK>
 VINA RESULT:      -8.7      2.226      5.651
  Name = 
  2 active torsions:
  status: ('A' for Active; 'I' for Inactive)
    1  A    between atoms: C_11  and  C_28
    2  A    between atoms: C_28  and  C_30
                            x       y       z     vdW  Elec       q    Type
                         _______ _______ _______ _____ _____    ______ ____

>  <TORSDO>
F 2

$$$$
=
 OpenBabel11122410343D

 30 35  0  0  1  0  0  0  0  0999 V2000
  185.2010  178.1540  142.0000 C   0  0  0  0  0  0  0  0  0  0  0  0
  182.8110  178.8080  141.6060 C   0  0  0  0  0  0  0  0  0  0  0  0
  184.7640  178.6100  146.0430 O   0  0  0  0  0  0  0  0  0  0  0  0
  186.2560  177.8930  142.9110 C   0  0  0  0  0  0  0  0  0  0  0  0
  185.5010  177.9590  140.5350 C   0  0  0  0  0  2  0  0  0  0  0  0
  188.6480  179.3650  141.5510 O   0  0  0  0  0  1  0  0  0  0  0  0
  189.0850  177.9190  144.3150 C   0  0  1  0  0  3  0  0  0  0  0  0
  188.0170  178.1990  141.1160 C   0  0  2  0  0  3  0  0  0  0  0  0
  188.2270  177.7860  145.4710 N   0  0  0  0  0  0  0  0  0  0  0  0
  185.9730  178.3370  146.4860 C   0  0  0  0  0  0  0  0  0  0  0  0
  186.8600  178.5760  140.1660 C   0  0  1  0  0  3  0  0  0  0  0  0
  187.5450  177.3630  142.3150 C   0  0  1  0  0  3  0  0  0  0  0  0
  181.5750  179.1930  142.1340 C   0  0  0  0  0  3  0  0  0  0  0  0
  188.9660  177.5580  146.6970 C   0  0  0  0  0  2  0  0  0  0  0  0
  190.4950  177.6260  144.8020 C   0  0  0  0  0  2  0  0  0  0  0  0
  182.9160  178.6850  140.2250 O   0  0  0  0  0  1  0  0  0  0  0  0
  184.7730  178.4860  144.7360 C   0  0  0  0  0  0  0  0  0  0  0  0
  181.3980  179.3380  143.5080 C   0  0  0  0  0  3  0  0  0  0  0  0
  183.9100  178.5560  142.4700 C   0  0  0  0  0  0  0  0  0  0  0  0
  186.0140  178.1070  144.2820 C   0  0  0  0  0  0  0  0  0  0  0  0
  186.3440  178.4030  147.9270 C   0  0  0  0  0  1  0  0  0  0  0  0
  186.8100  178.0190  145.4180 C   0  0  0  0  0  0  0  0  0  0  0  0
  190.4340  177.6470  146.3220 C   0  0  0  0  0  2  0  0  0  0  0  0
  189.1160  175.8440  143.1730 O   0  0  0  0  0  0  0  0  0  0  0  0
  182.4610  179.0990  144.3750 C   0  0  0  0  0  3  0  0  0  0  0  0
  183.7060  178.7120  143.8720 C   0  0  0  0  0  0  0  0  0  0  0  0
  188.6410  176.9670  143.2510 C   0  0  0  0  0  0  0  0  0  0  0  0
  187.2200  178.3110  138.7080 C   0  0  0  0  0  2  0  0  0  0  0  0
  189.0450  178.2310  137.0350 C   0  0  0  0  0  1  0  0  0  0  0  0
  188.7200  178.1550  138.5110 C   0  0  0  0  0  2  0  0  0  0  0  0
  1 19  2  0  0  0  0
  1  4  1  0  0  0  0
  2 13  2  0  0  0  0
  2 19  1  0  0  0  0
  3 10  1  0  0  0  0
  4 20  2  0  0  0  0
  5  1  1  0  0  0  0
  7 15  1  1  0  0  0
  7  9  1  0  0  0  0
  8  6  1  1  0  0  0
  8 12  1  0  0  0  0
  9 14  1  0  0  0  0
 10 21  1  0  0  0  0
 11 28  1  6  0  0  0
 11  5  1  0  0  0  0
 11  8  1  0  0  0  0
 12  4  1  1  0  0  0
 12 27  1  0  0  0  0
 13 18  1  0  0  0  0
 15 23  1  0  0  0  0
 16  2  1  0  0  0  0
 17  3  1  0  0  0  0
 18 25  2  0  0  0  0
 19 26  1  0  0  0  0
 20 17  1  0  0  0  0
 20 22  1  0  0  0  0
 22  9  1  0  0  0  0
 22 10  2  0  0  0  0
 23 14  1  0  0  0  0
 24 27  2  0  0  0  0
 26 25  1  0  0  0  0
 26 17  2  0  0  0  0
 27  7  1  0  0  0  0
 29 30  1  0  0  0  0
 30 28  1  0  0  0  0
M  END
>  <MODEL>
8

>  <REMARK>
 VINA RESULT:      -8.5      1.161      1.459
  Name = 
  2 active torsions:
  status: ('A' for Active; 'I' for Inactive)
    1  A    between atoms: C_11  and  C_28
    2  A    between atoms: C_28  and  C_30
                            x       y       z     vdW  Elec       q    Type
                         _______ _______ _______ _____ _____    ______ ____

>  <TORSDO>
F 2

$$$$
=
 OpenBabel11122410343D

 30 35  0  0  1  0  0  0  0  0999 V2000
  188.2890  177.7190  141.8720 C   0  0  0  0  0  0  0  0  0  0  0  0
  186.8940  178.2300  139.8510 C   0  0  0  0  0  0  0  0  0  0  0  0
  185.1610  178.5710  144.3700 O   0  0  0  0  0  0  0  0  0  0  0  0
  188.3890  177.5970  143.2820 C   0  0  0  0  0  0  0  0  0  0  0  0
  189.5220  177.3860  141.0700 C   0  0  0  0  0  2  0  0  0  0  0  0
  191.1090  179.0180  143.8510 O   0  0  0  0  0  1  0  0  0  0  0  0
  189.4170  177.8840  146.2540 C   0  0  1  0  0  3  0  0  0  0  0  0
  190.9140  177.7880  143.2210 C   0  0  2  0  0  3  0  0  0  0  0  0
  187.9900  177.8360  146.4810 N   0  0  0  0  0  0  0  0  0  0  0  0
  185.6990  178.3960  145.5580 C   0  0  0  0  0  0  0  0  0  0  0  0
  190.7740  178.0170  141.7000 C   0  0  1  0  0  3  0  0  0  0  0  0
  189.7010  177.0620  143.8200 C   0  0  1  0  0  3  0  0  0  0  0  0
  185.6610  178.6160  139.3160 C   0  0  0  0  0  3  0  0  0  0  0  0
  187.6460  177.7670  147.8870 C   0  0  0  0  0  2  0  0  0  0  0  0
  190.0660  177.7020  147.6170 C   0  0  0  0  0  2  0  0  0  0  0  0
  187.9320  177.9690  138.9630 O   0  0  0  0  0  1  0  0  0  0  0  0
  186.0800  178.3140  143.4670 C   0  0  0  0  0  0  0  0  0  0  0  0
  184.5780  178.8940  140.1460 C   0  0  0  0  0  3  0  0  0  0  0  0
  187.0590  178.1130  141.2570 C   0  0  0  0  0  0  0  0  0  0  0  0
  187.2640  177.9410  144.0570 C   0  0  0  0  0  0  0  0  0  0  0  0
  184.9550  178.6260  146.8280 C   0  0  0  0  0  1  0  0  0  0  0  0
  187.0290  178.0040  145.4250 C   0  0  0  0  0  0  0  0  0  0  0  0
  188.9570  177.8770  148.6440 C   0  0  0  0  0  2  0  0  0  0  0  0
  190.1510  175.7050  145.6840 O   0  0  0  0  0  0  0  0  0  0  0  0
  184.7150  178.7900  141.5280 C   0  0  0  0  0  3  0  0  0  0  0  0
  185.9360  178.4050  142.0860 C   0  0  0  0  0  0  0  0  0  0  0  0
  189.8060  176.8100  145.2900 C   0  0  0  0  0  0  0  0  0  0  0  0
  192.0410  177.6180  140.9520 C   0  0  0  0  0  2  0  0  0  0  0  0
  193.0350  176.7510  138.8550 C   0  0  0  0  0  1  0  0  0  0  0  0
  191.7420  177.1290  139.5430 C   0  0  0  0  0  2  0  0  0  0  0  0
  1  4  1  0  0  0  0
  2 19  1  0  0  0  0
  3 10  1  0  0  0  0
  4 20  2  0  0  0  0
  5 11  1  0  0  0  0
  5  1  1  0  0  0  0
  7  9  1  0  0  0  0
  7 15  1  1  0  0  0
  8 12  1  0  0  0  0
  8  6  1  1  0  0  0
  9 14  1  0  0  0  0
 10 21  1  0  0  0  0
 11 28  1  6  0  0  0
 11  8  1  0  0  0  0
 12  4  1  1  0  0  0
 12 27  1  0  0  0  0
 13  2  2  0  0  0  0
 13 18  1  0  0  0  0
 14 23  1  0  0  0  0
 15 23  1  0  0  0  0
 16  2  1  0  0  0  0
 17 20  1  0  0  0  0
 17  3  1  0  0  0  0
 18 25  2  0  0  0  0
 19  1  2  0  0  0  0
 19 26  1  0  0  0  0
 20 22  1  0  0  0  0
 22 10  2  0  0  0  0
 22  9  1  0  0  0  0
 25 26  1  0  0  0  0
 26 17  2  0  0  0  0
 27 24  2  0  0  0  0
 27  7  1  0  0  0  0
 29 30  1  0  0  0  0
 30 28  1  0  0  0  0
M  END
>  <MODEL>
9

>  <REMARK>
 VINA RESULT:      -8.5      1.816      3.064
  Name = 
  2 active torsions:
  status: ('A' for Active; 'I' for Inactive)
    1  A    between atoms: C_11  and  C_28
    2  A    between atoms: C_28  and  C_30
                            x       y       z     vdW  Elec       q    Type
                         _______ _______ _______ _____ _____    ______ ____

>  <TORSDO>
F 2

$$$$
