=
 OpenBabel11122412173D

 34 40  0  0  1  0  0  0  0  0999 V2000
  185.9350  178.6560  139.2280 C   0  0  2  0  0  3  0  0  0  0  0  0
  187.7380  178.0520  140.8620 C   0  0  0  0  0  2  0  0  0  0  0  0
  180.0380  176.0640  140.7880 O   0  0  0  0  0  0  0  0  0  0  0  0
  184.0020  177.3080  138.5750 C   0  0  2  0  0  3  0  0  0  0  0  0
  181.6690  178.1470  139.1920 C   0  0  0  0  0  0  0  0  0  0  0  0
  179.3940  178.2700  140.1110 C   0  0  0  0  0  2  0  0  0  0  0  0
  178.9310  176.8820  140.5350 C   0  0  0  0  0  2  0  0  0  0  0  0
  180.7030  175.3400  138.5720 C   0  0  0  0  0  2  0  0  0  0  0  0
  185.6050  178.8870  141.6940 C   0  0  1  0  0  3  0  0  0  0  0  0
  184.8760  179.1450  144.5580 C   0  0  0  0  0  2  0  0  0  0  0  0
  182.2120  179.0220  139.9890 N   0  0  0  0  0  0  0  0  0  0  0  0
  182.1500  175.7130  138.8630 C   0  0  0  0  0  2  0  0  0  0  0  0
  184.1330  178.4930  141.4960 C   0  0  2  0  0  3  0  0  0  0  0  0
  187.7030  177.8670  142.3110 N   0  0  0  0  0  2  0  0  0  0  0  0
  182.4880  177.1370  138.4120 C   0  0  2  0  0  3  0  0  0  0  0  0
  179.9530  175.0120  139.8650 C   0  0  0  0  0  2  0  0  0  0  0  0
  186.2350  178.5650  144.1510 C   0  0  2  0  0  3  0  0  0  0  0  0
  184.4440  178.7170  138.9790 C   0  0  1  0  0  3  0  0  0  0  0  0
  180.2850  178.1540  139.0110 O   0  0  0  0  0  0  0  0  0  0  0  0
  183.6500  179.1790  140.2080 C   0  0  1  0  0  3  0  0  0  0  0  0
  186.2620  176.8280  137.5930 C   0  0  0  0  0  2  0  0  0  0  0  0
  183.6940  178.3620  144.0010 C   0  0  0  0  0  2  0  0  0  0  0  0
  184.7540  176.8550  137.3200 C   0  0  0  0  0  2  0  0  0  0  0  0
  183.2730  178.9700  142.6710 C   0  0  0  0  0  2  0  0  0  0  0  0
  186.3050  178.0120  142.7240 C   0  0  1  0  0  3  0  0  0  0  0  0
  186.7640  178.1960  138.0620 C   0  0  0  0  0  2  0  0  0  0  0  0
  186.4220  178.6240  140.4850 C   0  0  2  0  0  3  0  0  0  0  0  0
  186.6200  177.5230  145.0900 N   0  0  0  0  0  2  0  0  0  0  0  0
  186.7430  178.1320  146.3470 N   0  0  0  0  0  2  0  0  0  0  0  0
  189.9500  177.3950  147.5120 O   0  0  0  0  0  0  0  0  0  0  0  0
  187.8620  177.9220  148.4840 C   0  0  0  0  0  2  0  0  0  0  0  0
  187.6140  177.2860  147.1460 C   0  0  2  0  0  3  0  0  0  0  0  0
  189.3440  178.2190  148.4710 C   0  0  0  0  0  2  0  0  0  0  0  0
  188.9830  177.2300  146.5090 C   0  0  0  0  0  2  0  0  0  0  0  0
  1 26  1  6  0  0  0
  1 27  1  0  0  0  0
  2 14  1  0  0  0  0
  4 23  1  6  0  0  0
  4 18  1  0  0  0  0
  5 11  2  0  0  0  0
  6  7  1  0  0  0  0
  7  3  1  0  0  0  0
  8 12  1  0  0  0  0
  8 16  1  0  0  0  0
  9 25  1  0  0  0  0
 11 20  1  0  0  0  0
 13  9  1  0  0  0  0
 13 24  1  0  0  0  0
 14 25  1  0  0  0  0
 15  4  1  0  0  0  0
 15 12  1  0  0  0  0
 15  5  1  0  0  0  0
 16  3  1  0  0  0  0
 17 10  1  0  0  0  0
 17 28  1  0  0  0  0
 18  1  1  0  0  0  0
 18 20  1  0  0  0  0
 19  5  1  0  0  0  0
 19  6  1  0  0  0  0
 20 13  1  0  0  0  0
 21 26  1  0  0  0  0
 22 10  1  0  0  0  0
 23 21  1  0  0  0  0
 24 22  1  0  0  0  0
 25 17  1  0  0  0  0
 27  2  1  0  0  0  0
 27  9  1  0  0  0  0
 28 29  1  0  0  0  0
 29 32  1  0  0  0  0
 30 33  1  0  0  0  0
 32 31  1  0  0  0  0
 33 31  1  0  0  0  0
 34 32  1  0  0  0  0
 34 30  1  0  0  0  0
M  END
>  <MODEL>
1

>  <REMARK>
 VINA RESULT:      -8.5      0.000      0.000
  Name = 
  3 active torsions:
  status: ('A' for Active; 'I' for Inactive)
    1  A    between atoms: C_17  and  N_28
    2  A    between atoms: N_28  and  N_29
    3  A    between atoms: N_29  and  C_32
                            x       y       z     vdW  Elec       q    Type
                         _______ _______ _______ _____ _____    ______ ____

>  <TORSDO>
F 3

$$$$
=
 OpenBabel11122412173D

 34 40  0  0  1  0  0  0  0  0999 V2000
  188.4920  178.2240  139.0470 C   0  0  2  0  0  3  0  0  0  0  0  0
  189.3410  177.8580  141.3780 C   0  0  0  0  0  2  0  0  0  0  0  0
  182.5890  175.4150  137.9590 O   0  0  0  0  0  0  0  0  0  0  0  0
  187.1060  176.7170  137.7110 C   0  0  2  0  0  3  0  0  0  0  0  0
  184.7400  177.4600  137.1000 C   0  0  0  0  0  0  0  0  0  0  0  0
  182.2960  177.5190  136.8520 C   0  0  0  0  0  2  0  0  0  0  0  0
  181.7120  176.1440  137.1470 C   0  0  0  0  0  2  0  0  0  0  0  0
  184.2180  174.5610  136.3800 C   0  0  0  0  0  2  0  0  0  0  0  0
  187.0510  178.6260  141.0500 C   0  0  1  0  0  3  0  0  0  0  0  0
  185.0730  179.0640  143.2150 C   0  0  0  0  0  2  0  0  0  0  0  0
  184.8360  178.4260  137.9690 N   0  0  0  0  0  0  0  0  0  0  0  0
  185.3590  175.0410  137.2660 C   0  0  0  0  0  2  0  0  0  0  0  0
  185.8460  178.1310  140.2340 C   0  0  2  0  0  3  0  0  0  0  0  0
  188.6400  177.7840  142.6590 N   0  0  0  0  0  2  0  0  0  0  0  0
  185.8440  176.4440  136.8870 C   0  0  2  0  0  3  0  0  0  0  0  0
  182.9600  174.2910  137.2070 C   0  0  0  0  0  2  0  0  0  0  0  0
  186.4750  178.5350  143.5390 C   0  0  2  0  0  3  0  0  0  0  0  0
  187.2860  178.1770  138.1350 C   0  0  1  0  0  3  0  0  0  0  0  0
  183.5980  177.3710  136.3030 O   0  0  0  0  0  0  0  0  0  0  0  0
  186.0050  178.6850  138.8090 C   0  0  1  0  0  3  0  0  0  0  0  0
  189.5720  176.2970  137.9320 C   0  0  0  0  0  2  0  0  0  0  0  0
  184.2980  178.1700  142.2550 C   0  0  0  0  0  2  0  0  0  0  0  0
  188.3620  176.2130  136.9940 C   0  0  0  0  0  2  0  0  0  0  0  0
  184.5320  178.6470  140.8290 C   0  0  0  0  0  2  0  0  0  0  0  0
  187.2080  177.8780  142.3650 C   0  0  1  0  0  3  0  0  0  0  0  0
  189.7750  177.7250  138.4450 C   0  0  0  0  0  2  0  0  0  0  0  0
  188.3400  178.3190  140.3840 C   0  0  2  0  0  3  0  0  0  0  0  0
  186.3980  177.5950  144.6450 N   0  0  0  0  0  2  0  0  0  0  0  0
  186.7620  178.2960  145.8030 N   0  0  0  0  0  2  0  0  0  0  0  0
  189.8020  177.5030  147.3250 O   0  0  0  0  0  0  0  0  0  0  0  0
  187.5830  177.8760  148.0420 C   0  0  0  0  0  2  0  0  0  0  0  0
  187.5450  177.3860  146.6230 C   0  0  2  0  0  3  0  0  0  0  0  0
  189.0400  178.2030  148.2700 C   0  0  0  0  0  2  0  0  0  0  0  0
  188.9900  177.4290  146.1830 C   0  0  0  0  0  2  0  0  0  0  0  0
  1 26  1  1  0  0  0
  1 27  1  0  0  0  0
  2 14  1  0  0  0  0
  4 23  1  6  0  0  0
  4 18  1  0  0  0  0
  5 11  2  0  0  0  0
  6  7  1  0  0  0  0
  7  3  1  0  0  0  0
  8 16  1  0  0  0  0
  8 12  1  0  0  0  0
  9 25  1  0  0  0  0
 10 17  1  0  0  0  0
 11 20  1  0  0  0  0
 13 24  1  0  0  0  0
 13  9  1  0  0  0  0
 15  5  1  0  0  0  0
 15 12  1  0  0  0  0
 15  4  1  0  0  0  0
 16  3  1  0  0  0  0
 17 28  1  0  0  0  0
 18 20  1  0  0  0  0
 18  1  1  0  0  0  0
 19  6  1  0  0  0  0
 19  5  1  0  0  0  0
 20 13  1  0  0  0  0
 21 26  1  0  0  0  0
 22 10  1  0  0  0  0
 23 21  1  0  0  0  0
 24 22  1  0  0  0  0
 25 14  1  0  0  0  0
 25 17  1  0  0  0  0
 27  9  1  0  0  0  0
 27  2  1  0  0  0  0
 28 29  1  0  0  0  0
 29 32  1  0  0  0  0
 30 33  1  0  0  0  0
 31 33  1  0  0  0  0
 32 31  1  0  0  0  0
 34 32  1  0  0  0  0
 34 30  1  0  0  0  0
M  END
>  <MODEL>
2

>  <REMARK>
 VINA RESULT:      -8.0      1.948      2.751
  Name = 
  3 active torsions:
  status: ('A' for Active; 'I' for Inactive)
    1  A    between atoms: C_17  and  N_28
    2  A    between atoms: N_28  and  N_29
    3  A    between atoms: N_29  and  C_32
                            x       y       z     vdW  Elec       q    Type
                         _______ _______ _______ _____ _____    ______ ____

>  <TORSDO>
F 3

$$$$
=
 OpenBabel11122412173D

 34 40  0  0  1  0  0  0  0  0999 V2000
  188.9790  177.4820  137.0900 C   0  0  2  0  0  3  0  0  0  0  0  0
  190.8520  176.4920  138.4300 C   0  0  0  0  0  2  0  0  0  0  0  0
  183.0350  176.6010  139.8870 O   0  0  0  0  0  0  0  0  0  0  0  0
  186.6810  176.6660  136.9100 C   0  0  2  0  0  3  0  0  0  0  0  0
  184.7980  178.1130  137.8500 C   0  0  0  0  0  0  0  0  0  0  0  0
  182.8480  178.8690  139.1390 C   0  0  0  0  0  2  0  0  0  0  0  0
  182.1410  177.6700  139.7610 C   0  0  0  0  0  2  0  0  0  0  0  0
  183.0570  175.6370  137.6630 C   0  0  0  0  0  2  0  0  0  0  0  0
  189.1990  177.8920  139.5460 C   0  0  1  0  0  3  0  0  0  0  0  0
  189.1240  178.4500  142.4580 C   0  0  0  0  0  2  0  0  0  0  0  0
  185.6860  178.8460  138.4580 N   0  0  0  0  0  0  0  0  0  0  0  0
  184.5790  175.6270  137.6600 C   0  0  0  0  0  2  0  0  0  0  0  0
  187.6650  177.8920  139.6450 C   0  0  2  0  0  3  0  0  0  0  0  0
  191.0520  176.3810  139.8730 N   0  0  0  0  0  2  0  0  0  0  0  0
  185.1710  176.8930  137.0310 C   0  0  2  0  0  3  0  0  0  0  0  0
  182.5130  175.5710  139.0910 C   0  0  0  0  0  2  0  0  0  0  0  0
  190.1900  177.5160  141.8730 C   0  0  2  0  0  3  0  0  0  0  0  0
  187.5320  177.9240  137.1030 C   0  0  1  0  0  3  0  0  0  0  0  0
  183.4520  178.4770  137.9150 O   0  0  0  0  0  0  0  0  0  0  0  0
  187.1310  178.6280  138.4060 C   0  0  1  0  0  3  0  0  0  0  0  0
  188.5150  175.5680  135.5930 C   0  0  0  0  0  2  0  0  0  0  0  0
  187.7000  177.9830  142.1890 C   0  0  0  0  0  2  0  0  0  0  0  0
  187.0390  175.9790  135.5880 C   0  0  0  0  0  2  0  0  0  0  0  0
  187.1960  178.6260  140.9050 C   0  0  0  0  0  2  0  0  0  0  0  0
  189.8420  176.9060  140.5110 C   0  0  1  0  0  3  0  0  0  0  0  0
  189.4250  176.7740  135.8430 C   0  0  0  0  0  2  0  0  0  0  0  0
  189.6750  177.3740  138.2410 C   0  0  2  0  0  3  0  0  0  0  0  0
  190.4750  176.4490  142.8190 N   0  0  0  0  0  2  0  0  0  0  0  0
  191.0960  177.0410  143.9270 N   0  0  0  0  0  2  0  0  0  0  0  0
  191.0480  176.7220  147.4030 O   0  0  0  0  0  0  0  0  0  0  0  0
  189.4450  177.0380  145.6980 C   0  0  0  0  0  2  0  0  0  0  0  0
  190.6300  176.3310  145.1060 C   0  0  2  0  0  3  0  0  0  0  0  0
  189.9400  177.5040  147.0470 C   0  0  0  0  0  2  0  0  0  0  0  0
  191.6800  176.4100  146.1890 C   0  0  0  0  0  2  0  0  0  0  0  0
  1 26  1  1  0  0  0
  1 18  1  0  0  0  0
  1 27  1  0  0  0  0
  2 14  1  0  0  0  0
  4 23  1  6  0  0  0
  4 15  1  0  0  0  0
  4 18  1  0  0  0  0
  5 19  1  0  0  0  0
  5 11  2  0  0  0  0
  6  7  1  0  0  0  0
  7  3  1  0  0  0  0
  8 16  1  0  0  0  0
  9 13  1  0  0  0  0
  9 25  1  0  0  0  0
 12  8  1  0  0  0  0
 13 24  1  0  0  0  0
 14 25  1  0  0  0  0
 15 12  1  0  0  0  0
 15  5  1  0  0  0  0
 16  3  1  0  0  0  0
 17 10  1  0  0  0  0
 17 28  1  0  0  0  0
 18 20  1  0  0  0  0
 19  6  1  0  0  0  0
 20 11  1  0  0  0  0
 20 13  1  0  0  0  0
 21 26  1  0  0  0  0
 22 10  1  0  0  0  0
 23 21  1  0  0  0  0
 24 22  1  0  0  0  0
 25 17  1  0  0  0  0
 27  2  1  0  0  0  0
 27  9  1  0  0  0  0
 28 29  1  0  0  0  0
 29 32  1  0  0  0  0
 31 33  1  0  0  0  0
 32 31  1  0  0  0  0
 32 34  1  0  0  0  0
 33 30  1  0  0  0  0
 34 30  1  0  0  0  0
M  END
>  <MODEL>
3

>  <REMARK>
 VINA RESULT:      -7.9      2.538      3.707
  Name = 
  3 active torsions:
  status: ('A' for Active; 'I' for Inactive)
    1  A    between atoms: C_17  and  N_28
    2  A    between atoms: N_28  and  N_29
    3  A    between atoms: N_29  and  C_32
                            x       y       z     vdW  Elec       q    Type
                         _______ _______ _______ _____ _____    ______ ____

>  <TORSDO>
F 3

$$$$
=
 OpenBabel11122412173D

 34 40  0  0  1  0  0  0  0  0999 V2000
  189.7130  177.3940  137.8820 C   0  0  2  0  0  3  0  0  0  0  0  0
  191.1210  176.8880  139.8940 C   0  0  0  0  0  2  0  0  0  0  0  0
  183.3600  175.6700  138.6530 O   0  0  0  0  0  0  0  0  0  0  0  0
  187.7680  176.1530  137.0720 C   0  0  2  0  0  3  0  0  0  0  0  0
  185.4870  177.3020  137.1170 C   0  0  0  0  0  0  0  0  0  0  0  0
  183.1220  177.7910  137.5660 C   0  0  0  0  0  2  0  0  0  0  0  0
  182.4230  176.5400  138.0850 C   0  0  0  0  0  2  0  0  0  0  0  0
  184.3000  174.5390  136.7250 C   0  0  0  0  0  2  0  0  0  0  0  0
  188.9980  178.0470  140.1860 C   0  0  1  0  0  3  0  0  0  0  0  0
  187.8270  178.8300  142.7960 C   0  0  0  0  0  2  0  0  0  0  0  0
  185.9900  178.2360  137.8720 N   0  0  0  0  0  0  0  0  0  0  0  0
  185.7110  174.8120  137.2270 C   0  0  0  0  0  2  0  0  0  0  0  0
  187.5440  177.7720  139.7710 C   0  0  2  0  0  3  0  0  0  0  0  0
  190.8160  176.9410  141.3220 N   0  0  0  0  0  2  0  0  0  0  0  0
  186.2960  176.1060  136.6530 C   0  0  2  0  0  3  0  0  0  0  0  0
  183.3050  174.4970  137.8870 C   0  0  0  0  0  2  0  0  0  0  0  0
  189.1530  178.0630  142.7380 C   0  0  2  0  0  3  0  0  0  0  0  0
  188.3060  177.5590  137.3520 C   0  0  1  0  0  3  0  0  0  0  0  0
  184.1660  177.4140  136.6800 O   0  0  0  0  0  0  0  0  0  0  0  0
  187.3770  178.2860  138.3320 C   0  0  1  0  0  3  0  0  0  0  0  0
  190.0860  175.3050  136.6100 C   0  0  0  0  0  2  0  0  0  0  0  0
  186.6710  178.0860  142.1420 C   0  0  0  0  0  2  0  0  0  0  0  0
  188.6620  175.4340  136.0570 C   0  0  0  0  0  2  0  0  0  0  0  0
  186.5620  178.5120  140.6850 C   0  0  0  0  0  2  0  0  0  0  0  0
  189.3970  177.2850  141.4410 C   0  0  1  0  0  3  0  0  0  0  0  0
  190.6660  176.6760  136.9680 C   0  0  0  0  0  2  0  0  0  0  0  0
  189.9700  177.5160  139.2010 C   0  0  2  0  0  3  0  0  0  0  0  0
  189.2400  177.1530  143.8690 N   0  0  0  0  0  2  0  0  0  0  0  0
  189.3610  177.9430  145.0200 N   0  0  0  0  0  2  0  0  0  0  0  0
  188.5670  177.7260  148.4120 O   0  0  0  0  0  0  0  0  0  0  0  0
  187.3860  177.5790  146.3720 C   0  0  0  0  0  2  0  0  0  0  0  0
  188.8110  177.1740  146.1240 C   0  0  2  0  0  3  0  0  0  0  0  0
  187.4220  178.1940  147.7510 C   0  0  0  0  0  2  0  0  0  0  0  0
  189.5240  177.5470  147.4020 C   0  0  0  0  0  2  0  0  0  0  0  0
  1 26  1  1  0  0  0
  1 27  1  0  0  0  0
  2 14  1  0  0  0  0
  4 23  1  6  0  0  0
  4 18  1  0  0  0  0
  5 11  2  0  0  0  0
  6  7  1  0  0  0  0
  7  3  1  0  0  0  0
  8 12  1  0  0  0  0
  8 16  1  0  0  0  0
  9 25  1  0  0  0  0
 11 20  1  0  0  0  0
 13  9  1  0  0  0  0
 13 24  1  0  0  0  0
 14 25  1  0  0  0  0
 15  4  1  0  0  0  0
 15  5  1  0  0  0  0
 15 12  1  0  0  0  0
 16  3  1  0  0  0  0
 17 10  1  0  0  0  0
 17 28  1  0  0  0  0
 18  1  1  0  0  0  0
 18 20  1  0  0  0  0
 19  5  1  0  0  0  0
 19  6  1  0  0  0  0
 20 13  1  0  0  0  0
 21 26  1  0  0  0  0
 22 10  1  0  0  0  0
 23 21  1  0  0  0  0
 24 22  1  0  0  0  0
 25 17  1  0  0  0  0
 27  2  1  0  0  0  0
 27  9  1  0  0  0  0
 28 29  1  0  0  0  0
 29 32  1  0  0  0  0
 31 33  1  0  0  0  0
 32 31  1  0  0  0  0
 32 34  1  0  0  0  0
 33 30  1  0  0  0  0
 34 30  1  0  0  0  0
M  END
>  <MODEL>
4

>  <REMARK>
 VINA RESULT:      -7.7      2.464      3.737
  Name = 
  3 active torsions:
  status: ('A' for Active; 'I' for Inactive)
    1  A    between atoms: C_17  and  N_28
    2  A    between atoms: N_28  and  N_29
    3  A    between atoms: N_29  and  C_32
                            x       y       z     vdW  Elec       q    Type
                         _______ _______ _______ _____ _____    ______ ____

>  <TORSDO>
F 3

$$$$
=
 OpenBabel11122412173D

 34 40  0  0  1  0  0  0  0  0999 V2000
  187.2360  178.2790  138.6030 C   0  0  2  0  0  3  0  0  0  0  0  0
  188.8300  177.6550  140.4350 C   0  0  0  0  0  2  0  0  0  0  0  0
  181.0940  176.0020  139.6150 O   0  0  0  0  0  0  0  0  0  0  0  0
  185.3200  176.9950  137.7920 C   0  0  2  0  0  3  0  0  0  0  0  0
  182.9780  177.9550  138.1360 C   0  0  0  0  0  0  0  0  0  0  0  0
  180.6280  178.2090  138.8070 C   0  0  0  0  0  2  0  0  0  0  0  0
  180.0580  176.8580  139.2220 C   0  0  0  0  0  2  0  0  0  0  0  0
  181.9500  175.1720  137.5040 C   0  0  0  0  0  2  0  0  0  0  0  0
  186.6640  178.6100  141.0140 C   0  0  1  0  0  3  0  0  0  0  0  0
  185.6550  179.0010  143.7750 C   0  0  0  0  0  2  0  0  0  0  0  0
  183.4760  178.8330  138.9590 N   0  0  0  0  0  0  0  0  0  0  0  0
  183.3750  175.4920  137.9330 C   0  0  0  0  0  2  0  0  0  0  0  0
  185.2030  178.2740  140.6740 C   0  0  2  0  0  3  0  0  0  0  0  0
  188.6370  177.5220  141.8780 N   0  0  0  0  0  2  0  0  0  0  0  0
  183.8250  176.8840  137.4770 C   0  0  2  0  0  3  0  0  0  0  0  0
  181.0560  174.9230  138.7200 C   0  0  0  0  0  2  0  0  0  0  0  0
  187.0210  178.3470  143.5320 C   0  0  2  0  0  3  0  0  0  0  0  0
  185.7830  178.3970  138.1980 C   0  0  1  0  0  3  0  0  0  0  0  0
  181.6220  178.0160  137.8110 O   0  0  0  0  0  0  0  0  0  0  0  0
  184.8890  178.9350  139.3220 C   0  0  1  0  0  3  0  0  0  0  0  0
  187.6440  176.3820  137.0680 C   0  0  0  0  0  2  0  0  0  0  0  0
  184.5020  178.2510  143.1220 C   0  0  0  0  0  2  0  0  0  0  0  0
  186.1760  176.4650  136.6380 C   0  0  0  0  0  2  0  0  0  0  0  0
  184.2500  178.8290  141.7370 C   0  0  0  0  0  2  0  0  0  0  0  0
  187.2120  177.7420  142.1370 C   0  0  1  0  0  3  0  0  0  0  0  0
  188.1580  177.7430  137.5450 C   0  0  0  0  0  2  0  0  0  0  0  0
  187.5880  178.2700  139.9060 C   0  0  2  0  0  3  0  0  0  0  0  0
  187.2580  177.3240  144.5370 N   0  0  0  0  0  2  0  0  0  0  0  0
  188.1690  177.8590  145.4580 N   0  0  0  0  0  2  0  0  0  0  0  0
  191.4960  177.0380  146.1240 O   0  0  0  0  0  0  0  0  0  0  0  0
  189.4110  176.6910  147.1770 C   0  0  0  0  0  2  0  0  0  0  0  0
  189.1760  176.8390  145.7020 C   0  0  2  0  0  3  0  0  0  0  0  0
  190.8420  177.1380  147.3600 C   0  0  0  0  0  2  0  0  0  0  0  0
  190.5080  177.3090  145.1650 C   0  0  0  0  0  2  0  0  0  0  0  0
  1 26  1  1  0  0  0
  1 27  1  0  0  0  0
  2 14  1  0  0  0  0
  4 23  1  6  0  0  0
  4 18  1  0  0  0  0
  5 11  2  0  0  0  0
  6  7  1  0  0  0  0
  7  3  1  0  0  0  0
  8 12  1  0  0  0  0
  8 16  1  0  0  0  0
  9 25  1  0  0  0  0
 11 20  1  0  0  0  0
 13  9  1  0  0  0  0
 13 24  1  0  0  0  0
 14 25  1  0  0  0  0
 15  4  1  0  0  0  0
 15 12  1  0  0  0  0
 15  5  1  0  0  0  0
 16  3  1  0  0  0  0
 17 10  1  0  0  0  0
 17 28  1  0  0  0  0
 18  1  1  0  0  0  0
 18 20  1  0  0  0  0
 19  5  1  0  0  0  0
 19  6  1  0  0  0  0
 20 13  1  0  0  0  0
 21 26  1  0  0  0  0
 22 10  1  0  0  0  0
 23 21  1  0  0  0  0
 24 22  1  0  0  0  0
 25 17  1  0  0  0  0
 27  2  1  0  0  0  0
 27  9  1  0  0  0  0
 28 29  1  0  0  0  0
 29 32  1  0  0  0  0
 30 33  1  0  0  0  0
 31 33  1  0  0  0  0
 32 31  1  0  0  0  0
 34 32  1  0  0  0  0
 34 30  1  0  0  0  0
M  END
>  <MODEL>
5

>  <REMARK>
 VINA RESULT:      -7.7      1.348      1.600
  Name = 
  3 active torsions:
  status: ('A' for Active; 'I' for Inactive)
    1  A    between atoms: C_17  and  N_28
    2  A    between atoms: N_28  and  N_29
    3  A    between atoms: N_29  and  C_32
                            x       y       z     vdW  Elec       q    Type
                         _______ _______ _______ _____ _____    ______ ____

>  <TORSDO>
F 3

$$$$
=
 OpenBabel11122412173D

 34 40  0  0  1  0  0  0  0  0999 V2000
  191.6260  177.0890  138.6120 C   0  0  2  0  0  3  0  0  0  0  0  0
  192.2670  176.7530  141.0130 C   0  0  0  0  0  2  0  0  0  0  0  0
  185.4380  175.1290  137.2760 O   0  0  0  0  0  0  0  0  0  0  0  0
  190.1080  175.7220  137.2690 C   0  0  2  0  0  3  0  0  0  0  0  0
  187.9250  176.7690  136.4560 C   0  0  0  0  0  0  0  0  0  0  0  0
  185.5380  177.1760  136.0360 C   0  0  0  0  0  2  0  0  0  0  0  0
  184.7330  175.9250  136.3660 C   0  0  0  0  0  2  0  0  0  0  0  0
  187.0090  173.9390  135.8630 C   0  0  0  0  0  2  0  0  0  0  0  0
  190.1470  177.8320  140.4850 C   0  0  1  0  0  3  0  0  0  0  0  0
  188.1320  178.7010  142.4800 C   0  0  0  0  0  2  0  0  0  0  0  0
  188.1150  177.7640  137.2750 N   0  0  0  0  0  0  0  0  0  0  0  0
  188.1540  174.3010  136.7990 C   0  0  0  0  0  2  0  0  0  0  0  0
  188.9310  177.4700  139.6170 C   0  0  2  0  0  3  0  0  0  0  0  0
  191.4880  176.8690  142.2440 N   0  0  0  0  0  2  0  0  0  0  0  0
  188.8710  175.5870  136.3760 C   0  0  2  0  0  3  0  0  0  0  0  0
  185.6760  173.9150  136.6150 C   0  0  0  0  0  2  0  0  0  0  0  0
  189.4150  177.9910  142.9290 C   0  0  2  0  0  3  0  0  0  0  0  0
  190.4840  177.1630  137.6230 C   0  0  1  0  0  3  0  0  0  0  0  0
  186.8320  176.7990  135.5880 O   0  0  0  0  0  0  0  0  0  0  0  0
  189.2580  177.9000  138.1770 C   0  0  1  0  0  3  0  0  0  0  0  0
  192.4620  174.9530  137.6830 C   0  0  0  0  0  2  0  0  0  0  0  0
  187.2890  177.8730  141.5200 C   0  0  0  0  0  2  0  0  0  0  0  0
  191.3120  174.9890  136.6700 C   0  0  0  0  0  2  0  0  0  0  0  0
  187.6780  178.2140  140.0900 C   0  0  0  0  0  2  0  0  0  0  0  0
  190.1080  177.1560  141.8470 C   0  0  1  0  0  3  0  0  0  0  0  0
  192.8510  176.3650  138.1290 C   0  0  0  0  0  2  0  0  0  0  0  0
  191.4110  177.2930  139.9280 C   0  0  2  0  0  3  0  0  0  0  0  0
  189.1280  177.1470  144.0790 N   0  0  0  0  0  2  0  0  0  0  0  0
  189.4870  177.8770  145.2200 N   0  0  0  0  0  2  0  0  0  0  0  0
  188.6640  177.8590  148.6120 O   0  0  0  0  0  0  0  0  0  0  0  0
  187.5080  177.5500  146.5760 C   0  0  0  0  0  2  0  0  0  0  0  0
  188.9450  177.1670  146.3670 C   0  0  2  0  0  3  0  0  0  0  0  0
  187.5150  178.2540  147.9130 C   0  0  0  0  0  2  0  0  0  0  0  0
  189.6360  177.6400  147.6240 C   0  0  0  0  0  2  0  0  0  0  0  0
  1 26  1  1  0  0  0
  1 27  1  0  0  0  0
  2 14  1  0  0  0  0
  4 23  1  6  0  0  0
  4 18  1  0  0  0  0
  5 11  2  0  0  0  0
  6  7  1  0  0  0  0
  7  3  1  0  0  0  0
  8 16  1  0  0  0  0
  8 12  1  0  0  0  0
  9 25  1  0  0  0  0
 10 17  1  0  0  0  0
 11 20  1  0  0  0  0
 13 24  1  0  0  0  0
 13  9  1  0  0  0  0
 15  5  1  0  0  0  0
 15 12  1  0  0  0  0
 15  4  1  0  0  0  0
 16  3  1  0  0  0  0
 17 28  1  0  0  0  0
 18 20  1  0  0  0  0
 18  1  1  0  0  0  0
 19  6  1  0  0  0  0
 19  5  1  0  0  0  0
 20 13  1  0  0  0  0
 21 26  1  0  0  0  0
 22 10  1  0  0  0  0
 23 21  1  0  0  0  0
 24 22  1  0  0  0  0
 25 14  1  0  0  0  0
 25 17  1  0  0  0  0
 27  9  1  0  0  0  0
 27  2  1  0  0  0  0
 28 29  1  0  0  0  0
 29 32  1  0  0  0  0
 31 33  1  0  0  0  0
 32 31  1  0  0  0  0
 32 34  1  0  0  0  0
 33 30  1  0  0  0  0
 34 30  1  0  0  0  0
M  END
>  <MODEL>
6

>  <REMARK>
 VINA RESULT:      -7.3      3.766      5.427
  Name = 
  3 active torsions:
  status: ('A' for Active; 'I' for Inactive)
    1  A    between atoms: C_17  and  N_28
    2  A    between atoms: N_28  and  N_29
    3  A    between atoms: N_29  and  C_32
                            x       y       z     vdW  Elec       q    Type
                         _______ _______ _______ _____ _____    ______ ____

>  <TORSDO>
F 3

$$$$
=
 OpenBabel11122412173D

 34 40  0  0  1  0  0  0  0  0999 V2000
  187.9760  175.0070  135.3900 C   0  0  2  0  0  3  0  0  0  0  0  0
  190.0400  174.3690  136.6610 C   0  0  0  0  0  2  0  0  0  0  0  0
  182.9350  176.7490  139.3250 O   0  0  0  0  0  0  0  0  0  0  0  0
  185.6490  174.6950  136.0720 C   0  0  2  0  0  3  0  0  0  0  0  0
  184.2220  176.7670  136.5160 C   0  0  0  0  0  0  0  0  0  0  0  0
  182.7620  178.4130  137.6090 C   0  0  0  0  0  2  0  0  0  0  0  0
  182.1400  177.8040  138.8600 C   0  0  0  0  0  2  0  0  0  0  0  0
  182.2770  174.8990  137.9030 C   0  0  0  0  0  2  0  0  0  0  0  0
  188.8770  176.4320  137.2350 C   0  0  1  0  0  3  0  0  0  0  0  0
  189.6300  178.2540  139.4500 C   0  0  0  0  0  2  0  0  0  0  0  0
  185.3030  177.4940  136.5050 N   0  0  0  0  0  0  0  0  0  0  0  0
  183.7370  174.5730  137.6180 C   0  0  0  0  0  2  0  0  0  0  0  0
  187.4310  176.7960  137.6090 C   0  0  2  0  0  3  0  0  0  0  0  0
  190.6060  174.8870  137.9050 N   0  0  0  0  0  2  0  0  0  0  0  0
  184.2520  175.2600  136.3490 C   0  0  2  0  0  3  0  0  0  0  0  0
  182.1290  175.6040  139.2520 C   0  0  0  0  0  2  0  0  0  0  0  0
  190.4130  176.9580  139.2110 C   0  0  2  0  0  3  0  0  0  0  0  0
  186.6310  175.6960  135.4570 C   0  0  1  0  0  3  0  0  0  0  0  0
  182.9810  177.3920  136.6470 O   0  0  0  0  0  0  0  0  0  0  0  0
  186.6560  176.9810  136.2940 C   0  0  1  0  0  3  0  0  0  0  0  0
  186.9590  172.7640  135.1460 C   0  0  0  0  0  2  0  0  0  0  0  0
  188.1490  178.0240  139.7200 C   0  0  0  0  0  2  0  0  0  0  0  0
  185.5780  173.4250  135.2190 C   0  0  0  0  0  2  0  0  0  0  0  0
  187.3830  178.1020  138.4080 C   0  0  0  0  0  2  0  0  0  0  0  0
  189.6610  175.8830  138.4180 C   0  0  1  0  0  3  0  0  0  0  0  0
  188.0080  173.7330  134.5940 C   0  0  0  0  0  2  0  0  0  0  0  0
  188.9400  175.2910  136.2900 C   0  0  2  0  0  3  0  0  0  0  0  0
  190.8410  176.4050  140.4850 N   0  0  0  0  0  2  0  0  0  0  0  0
  191.3860  177.4620  141.2260 N   0  0  0  0  0  2  0  0  0  0  0  0
  190.0760  177.9030  144.4320 O   0  0  0  0  0  0  0  0  0  0  0  0
  190.1960  176.1380  142.8670 C   0  0  0  0  0  2  0  0  0  0  0  0
  191.3530  177.0640  142.6240 C   0  0  2  0  0  3  0  0  0  0  0  0
  189.3020  176.9170  143.8040 C   0  0  0  0  0  2  0  0  0  0  0  0
  191.0430  178.2670  143.4830 C   0  0  0  0  0  2  0  0  0  0  0  0
  1 26  1  1  0  0  0
  1 18  1  0  0  0  0
  1 27  1  0  0  0  0
  2 14  1  0  0  0  0
  4 23  1  6  0  0  0
  4 15  1  0  0  0  0
  5 19  1  0  0  0  0
  6  7  1  0  0  0  0
  7  3  1  0  0  0  0
  8 16  1  0  0  0  0
  9 13  1  0  0  0  0
  9 25  1  0  0  0  0
 10 22  1  0  0  0  0
 11  5  2  0  0  0  0
 12  8  1  0  0  0  0
 13 24  1  0  0  0  0
 14 25  1  0  0  0  0
 15  5  1  0  0  0  0
 15 12  1  0  0  0  0
 16  3  1  0  0  0  0
 17 10  1  0  0  0  0
 17 28  1  0  0  0  0
 18  4  1  0  0  0  0
 18 20  1  0  0  0  0
 19  6  1  0  0  0  0
 20 11  1  0  0  0  0
 20 13  1  0  0  0  0
 21 23  1  0  0  0  0
 24 22  1  0  0  0  0
 25 17  1  0  0  0  0
 26 21  1  0  0  0  0
 27  2  1  0  0  0  0
 27  9  1  0  0  0  0
 28 29  1  0  0  0  0
 29 32  1  0  0  0  0
 31 33  1  0  0  0  0
 32 31  1  0  0  0  0
 32 34  1  0  0  0  0
 33 30  1  0  0  0  0
 34 30  1  0  0  0  0
M  END
>  <MODEL>
7

>  <REMARK>
 VINA RESULT:      -7.0      3.432      5.100
  Name = 
  3 active torsions:
  status: ('A' for Active; 'I' for Inactive)
    1  A    between atoms: C_17  and  N_28
    2  A    between atoms: N_28  and  N_29
    3  A    between atoms: N_29  and  C_32
                            x       y       z     vdW  Elec       q    Type
                         _______ _______ _______ _____ _____    ______ ____

>  <TORSDO>
F 3

$$$$
=
 OpenBabel11122412173D

 34 40  0  0  1  0  0  0  0  0999 V2000
  181.7640  178.9080  141.5110 C   0  0  2  0  0  3  0  0  0  0  0  0
  180.1150  177.1350  140.8640 C   0  0  0  0  0  2  0  0  0  0  0  0
  188.0290  176.7450  141.5470 O   0  0  0  0  0  0  0  0  0  0  0  0
  183.8710  178.6170  142.7180 C   0  0  2  0  0  3  0  0  0  0  0  0
  186.0550  179.1210  141.4920 C   0  0  0  0  0  0  0  0  0  0  0  0
  188.3010  178.8940  140.5240 C   0  0  0  0  0  2  0  0  0  0  0  0
  188.9870  177.6570  141.0910 C   0  0  0  0  0  2  0  0  0  0  0  0
  187.4380  177.6150  143.7310 C   0  0  0  0  0  2  0  0  0  0  0  0
  182.1070  177.4650  139.5000 C   0  0  1  0  0  3  0  0  0  0  0  0
  182.8480  175.8290  137.1400 C   0  0  0  0  0  2  0  0  0  0  0  0
  185.3980  179.1540  140.3680 N   0  0  0  0  0  0  0  0  0  0  0  0
  185.9570  177.5030  143.3990 C   0  0  0  0  0  2  0  0  0  0  0  0
  183.6180  177.5050  139.7760 C   0  0  2  0  0  3  0  0  0  0  0  0
  180.2100  176.0310  139.9100 N   0  0  0  0  0  2  0  0  0  0  0  0
  185.3880  178.8000  142.8160 C   0  0  2  0  0  3  0  0  0  0  0  0
  188.2580  176.6080  142.9240 C   0  0  0  0  0  2  0  0  0  0  0  0
  181.5890  175.4990  137.9490 C   0  0  2  0  0  3  0  0  0  0  0  0
  183.2210  179.3160  141.5200 C   0  0  1  0  0  3  0  0  0  0  0  0
  187.4160  179.4300  141.4970 O   0  0  0  0  0  0  0  0  0  0  0  0
  183.9590  178.9330  140.2310 C   0  0  1  0  0  3  0  0  0  0  0  0
  181.6940  178.6280  143.9680 C   0  0  0  0  0  2  0  0  0  0  0  0
  184.1260  175.7860  137.9670 C   0  0  0  0  0  2  0  0  0  0  0  0
  183.1730  179.0290  144.0170 C   0  0  0  0  0  2  0  0  0  0  0  0
  184.4170  177.1770  138.5100 C   0  0  0  0  0  2  0  0  0  0  0  0
  181.5760  176.0440  139.3810 C   0  0  1  0  0  3  0  0  0  0  0  0
  180.9930  179.2460  142.7560 C   0  0  0  0  0  2  0  0  0  0  0  0
  181.3160  177.9770  140.6440 C   0  0  2  0  0  3  0  0  0  0  0  0
  181.3930  174.0590  137.9810 N   0  0  0  0  0  2  0  0  0  0  0  0
  181.7020  173.5770  136.7010 N   0  0  0  0  0  2  0  0  0  0  0  0
  182.9140  170.6130  135.3100 O   0  0  0  0  0  0  0  0  0  0  0  0
  183.3920  171.9210  137.2180 C   0  0  0  0  0  2  0  0  0  0  0  0
  181.9590  172.1520  136.8340 C   0  0  2  0  0  3  0  0  0  0  0  0
  183.9700  171.1920  136.0280 C   0  0  0  0  0  2  0  0  0  0  0  0
  181.8320  171.4900  135.4820 C   0  0  0  0  0  2  0  0  0  0  0  0
  1 18  1  0  0  0  0
  1 26  1  1  0  0  0
  3 16  1  0  0  0  0
  4 15  1  0  0  0  0
  4 23  1  1  0  0  0
  5 19  1  0  0  0  0
  5 15  1  0  0  0  0
  6  7  1  0  0  0  0
  6 19  1  0  0  0  0
  7  3  1  0  0  0  0
  9 13  1  0  0  0  0
  9 27  1  0  0  0  0
 10 17  1  0  0  0  0
 10 22  1  0  0  0  0
 11  5  2  0  0  0  0
 12  8  1  0  0  0  0
 13 20  1  0  0  0  0
 14  2  1  0  0  0  0
 15 12  1  0  0  0  0
 16  8  1  0  0  0  0
 17 28  1  0  0  0  0
 17 25  1  0  0  0  0
 18  4  1  0  0  0  0
 20 11  1  0  0  0  0
 20 18  1  0  0  0  0
 21 23  1  0  0  0  0
 22 24  1  0  0  0  0
 24 13  1  0  0  0  0
 25  9  1  0  0  0  0
 25 14  1  0  0  0  0
 26 21  1  0  0  0  0
 27  2  1  0  0  0  0
 27  1  1  0  0  0  0
 29 32  1  0  0  0  0
 29 28  1  0  0  0  0
 30 34  1  0  0  0  0
 30 33  1  0  0  0  0
 32 31  1  0  0  0  0
 33 31  1  0  0  0  0
 34 32  1  0  0  0  0
M  END
>  <MODEL>
8

>  <REMARK>
 VINA RESULT:      -6.8      3.351      8.519
  Name = 
  3 active torsions:
  status: ('A' for Active; 'I' for Inactive)
    1  A    between atoms: C_17  and  N_28
    2  A    between atoms: N_28  and  N_29
    3  A    between atoms: N_29  and  C_32
                            x       y       z     vdW  Elec       q    Type
                         _______ _______ _______ _____ _____    ______ ____

>  <TORSDO>
F 3

$$$$
=
 OpenBabel11122412173D

 34 40  0  0  1  0  0  0  0  0999 V2000
  190.7350  175.3400  135.6200 C   0  0  2  0  0  3  0  0  0  0  0  0
  192.3750  175.6840  137.4850 C   0  0  0  0  0  2  0  0  0  0  0  0
  184.6040  174.0160  137.7620 O   0  0  0  0  0  0  0  0  0  0  0  0
  188.7840  173.8650  135.6030 C   0  0  2  0  0  3  0  0  0  0  0  0
  186.4620  174.9210  135.4650 C   0  0  0  0  0  0  0  0  0  0  0  0
  184.1350  175.5300  135.9650 C   0  0  0  0  0  2  0  0  0  0  0  0
  183.5650  174.5830  137.0140 C   0  0  0  0  0  2  0  0  0  0  0  0
  185.3910  172.2210  136.3360 C   0  0  0  0  0  2  0  0  0  0  0  0
  190.2350  176.8480  137.5500 C   0  0  1  0  0  3  0  0  0  0  0  0
  189.3100  178.5940  139.7620 C   0  0  0  0  0  2  0  0  0  0  0  0
  186.9920  176.0820  135.7260 N   0  0  0  0  0  0  0  0  0  0  0  0
  186.8310  172.6800  136.5180 C   0  0  0  0  0  2  0  0  0  0  0  0
  188.7620  176.4200  137.4540 C   0  0  2  0  0  3  0  0  0  0  0  0
  192.2220  176.2960  138.8030 N   0  0  0  0  0  2  0  0  0  0  0  0
  187.2800  173.6450  135.4160 C   0  0  2  0  0  3  0  0  0  0  0  0
  184.5300  172.6350  137.5310 C   0  0  0  0  0  2  0  0  0  0  0  0
  190.6620  177.8760  139.8520 C   0  0  2  0  0  3  0  0  0  0  0  0
  189.2720  175.2710  135.2400 C   0  0  1  0  0  3  0  0  0  0  0  0
  185.0980  174.8410  135.1810 O   0  0  0  0  0  0  0  0  0  0  0  0
  188.4150  176.3200  135.9600 C   0  0  1  0  0  3  0  0  0  0  0  0
  191.0810  172.9200  135.2370 C   0  0  0  0  0  2  0  0  0  0  0  0
  188.1320  177.6430  139.5970 C   0  0  0  0  0  2  0  0  0  0  0  0
  189.6020  172.8090  134.8530 C   0  0  0  0  0  2  0  0  0  0  0  0
  187.8450  177.4550  138.1140 C   0  0  0  0  0  2  0  0  0  0  0  0
  190.8070  176.6490  138.9460 C   0  0  1  0  0  3  0  0  0  0  0  0
  191.6210  174.3250  134.9560 C   0  0  0  0  0  2  0  0  0  0  0  0
  191.1240  175.9770  136.7440 C   0  0  2  0  0  3  0  0  0  0  0  0
  190.9180  177.4900  141.2300 N   0  0  0  0  0  2  0  0  0  0  0  0
  190.1770  176.3250  141.4720 N   0  0  0  0  0  2  0  0  0  0  0  0
  189.4900  177.9240  144.4980 O   0  0  0  0  0  0  0  0  0  0  0  0
  188.5100  176.1950  143.2220 C   0  0  0  0  0  2  0  0  0  0  0  0
  189.9770  176.2390  142.9090 C   0  0  2  0  0  3  0  0  0  0  0  0
  188.2650  177.4780  143.9820 C   0  0  0  0  0  2  0  0  0  0  0  0
  190.4510  177.5170  143.5600 C   0  0  0  0  0  2  0  0  0  0  0  0
  1 26  1  1  0  0  0
  1 27  1  0  0  0  0
  2 14  1  0  0  0  0
  4 23  1  6  0  0  0
  5 11  2  0  0  0  0
  6  7  1  0  0  0  0
  7  3  1  0  0  0  0
  8 12  1  0  0  0  0
  8 16  1  0  0  0  0
  9 25  1  0  0  0  0
 10 17  1  0  0  0  0
 11 20  1  0  0  0  0
 13  9  1  0  0  0  0
 13 24  1  0  0  0  0
 14 25  1  0  0  0  0
 15  5  1  0  0  0  0
 15  4  1  0  0  0  0
 15 12  1  0  0  0  0
 16  3  1  0  0  0  0
 17 28  1  0  0  0  0
 18  4  1  0  0  0  0
 18  1  1  0  0  0  0
 18 20  1  0  0  0  0
 19  5  1  0  0  0  0
 19  6  1  0  0  0  0
 20 13  1  0  0  0  0
 22 10  1  0  0  0  0
 23 21  1  0  0  0  0
 24 22  1  0  0  0  0
 25 17  1  0  0  0  0
 26 21  1  0  0  0  0
 27  2  1  0  0  0  0
 27  9  1  0  0  0  0
 28 29  1  0  0  0  0
 29 32  1  0  0  0  0
 31 33  1  0  0  0  0
 32 31  1  0  0  0  0
 32 34  1  0  0  0  0
 33 30  1  0  0  0  0
 34 30  1  0  0  0  0
M  END
>  <MODEL>
9

>  <REMARK>
 VINA RESULT:      -6.7      4.314      6.222
  Name = 
  3 active torsions:
  status: ('A' for Active; 'I' for Inactive)
    1  A    between atoms: C_17  and  N_28
    2  A    between atoms: N_28  and  N_29
    3  A    between atoms: N_29  and  C_32
                            x       y       z     vdW  Elec       q    Type
                         _______ _______ _______ _____ _____    ______ ____

>  <TORSDO>
F 3

$$$$
