=
 OpenBabel11122411083D

 31 35  0  0  0  0  0  0  0  0999 V2000
  185.1020  178.5120  144.1580 C   0  0  0  0  0  0  0  0  0  0  0  0
  188.7040  177.4470  143.9050 C   0  0  0  0  0  0  0  0  0  0  0  0
  189.2080  177.3410  145.2390 C   0  0  0  0  0  0  0  0  0  0  0  0
  188.6540  177.2970  138.6410 O   0  0  0  0  0  0  0  0  0  0  0  0
  189.8040  176.9720  139.0430 C   0  0  0  0  0  0  0  0  0  0  0  0
  188.9470  177.4940  147.6650 C   0  0  0  0  0  0  0  0  0  0  0  0
  187.3710  177.8280  143.5670 C   0  0  0  0  0  0  0  0  0  0  0  0
  184.7540  178.5730  142.8090 C   0  0  0  0  0  3  0  0  0  0  0  0
  188.4230  177.6080  146.3760 C   0  0  0  0  0  3  0  0  0  0  0  0
  189.1740  177.2340  141.5090 C   0  0  0  0  0  0  0  0  0  0  0  0
  183.9160  178.8990  145.3860 Cl  0  0  0  0  0  0  0  0  0  0  0  0
  191.3720  176.6790  144.3580 C   0  0  0  0  0  3  0  0  0  0  0  0
  188.1270  177.7700  148.7930 N   0  0  0  0  0  1  0  0  0  0  0  0
  187.8970  177.6000  141.2300 N   0  0  0  0  0  0  0  0  0  0  0  0
  189.6020  177.1510  142.8410 C   0  0  0  0  0  0  0  0  0  0  0  0
  190.0920  176.9320  140.4480 N   0  0  0  0  0  2  0  0  0  0  0  0
  186.3960  178.1440  144.5300 C   0  0  0  0  0  3  0  0  0  0  0  0
  190.2760  177.1100  147.8470 C   0  0  0  0  0  3  0  0  0  0  0  0
  186.9990  177.8940  142.2010 C   0  0  0  0  0  0  0  0  0  0  0  0
  185.7020  178.2640  141.8330 C   0  0  0  0  0  3  0  0  0  0  0  0
  190.8850  176.7820  143.1000 N   0  0  0  0  0  0  0  0  0  0  0  0
  190.5550  176.9530  145.4470 C   0  0  0  0  0  0  0  0  0  0  0  0
  191.0790  176.8400  146.7380 C   0  0  0  0  0  3  0  0  0  0  0  0
  192.8250  175.9650  136.1670 C   0  0  0  0  0  0  0  0  0  0  0  0
  190.5010  176.2490  136.7700 C   0  0  0  0  0  3  0  0  0  0  0  0
  192.6450  177.0350  139.6510 F   0  0  0  0  0  0  0  0  0  0  0  0
  193.7920  175.6370  135.2270 O   0  0  0  0  0  1  0  0  0  0  0  0
  191.4730  175.9190  135.8230 C   0  0  0  0  0  3  0  0  0  0  0  0
  192.2360  176.6750  138.4100 C   0  0  0  0  0  0  0  0  0  0  0  0
  190.8650  176.6300  138.0710 C   0  0  0  0  0  0  0  0  0  0  0  0
  193.2040  176.3420  137.4560 C   0  0  0  0  0  3  0  0  0  0  0  0
  1 17  1  0  0  0  0
  1 11  1  0  0  0  0
  2  3  1  0  0  0  0
  3 22  2  0  0  0  0
  3  9  1  0  0  0  0
  4  5  2  0  0  0  0
  5 16  1  0  0  0  0
  6 18  1  0  0  0  0
  6 13  1  0  0  0  0
  7  2  1  0  0  0  0
  7 17  2  0  0  0  0
  8  1  2  0  0  0  0
  9  6  2  0  0  0  0
 10 15  1  0  0  0  0
 12 22  1  0  0  0  0
 14 10  2  0  0  0  0
 14 19  1  0  0  0  0
 15 21  1  0  0  0  0
 15  2  2  0  0  0  0
 16 10  1  0  0  0  0
 19  7  1  0  0  0  0
 20 19  2  0  0  0  0
 20  8  1  0  0  0  0
 21 12  2  0  0  0  0
 22 23  1  0  0  0  0
 23 18  2  0  0  0  0
 24 31  1  0  0  0  0
 25 30  2  0  0  0  0
 27 24  1  0  0  0  0
 28 24  2  0  0  0  0
 28 25  1  0  0  0  0
 29 26  1  0  0  0  0
 30 29  1  0  0  0  0
 30  5  1  0  0  0  0
 31 29  2  0  0  0  0
M  END
>  <MODEL>
1

>  <REMARK>
 VINA RESULT:     -11.6      0.000      0.000
  Name = 
  1 active torsions:
  status: ('A' for Active; 'I' for Inactive)
    1  A    between atoms: C_5  and  C_30
                            x       y       z     vdW  Elec       q    Type
                         _______ _______ _______ _____ _____    ______ ____

>  <TORSDO>
F 1

$$$$
=
 OpenBabel11122411083D

 31 35  0  0  0  0  0  0  0  0999 V2000
  185.1630  178.5850  144.2460 C   0  0  0  0  0  0  0  0  0  0  0  0
  188.7400  177.4600  143.9090 C   0  0  0  0  0  0  0  0  0  0  0  0
  189.2720  177.3410  145.2310 C   0  0  0  0  0  0  0  0  0  0  0  0
  188.5690  177.3310  138.6460 O   0  0  0  0  0  0  0  0  0  0  0  0
  189.7220  176.9850  139.0210 C   0  0  0  0  0  0  0  0  0  0  0  0
  189.0680  177.4890  147.6620 C   0  0  0  0  0  0  0  0  0  0  0  0
  187.4060  177.8650  143.6020 C   0  0  0  0  0  0  0  0  0  0  0  0
  184.7860  178.6570  142.9050 C   0  0  0  0  0  3  0  0  0  0  0  0
  188.5170  177.6160  146.3860 C   0  0  0  0  0  3  0  0  0  0  0  0
  189.1520  177.2490  141.5010 C   0  0  0  0  0  0  0  0  0  0  0  0
  184.0120  178.9870  145.5020 Cl  0  0  0  0  0  0  0  0  0  0  0  0
  191.4030  176.6450  144.2990 C   0  0  0  0  0  3  0  0  0  0  0  0
  188.2780  177.7740  148.8090 N   0  0  0  0  0  1  0  0  0  0  0  0
  187.8760  177.6370  141.2530 N   0  0  0  0  0  0  0  0  0  0  0  0
  189.6080  177.1530  142.8230 C   0  0  0  0  0  0  0  0  0  0  0  0
  190.0410  176.9340  140.4190 N   0  0  0  0  0  2  0  0  0  0  0  0
  186.4590  178.1940  144.5870 C   0  0  0  0  0  3  0  0  0  0  0  0
  190.3940  177.0810  147.8130 C   0  0  0  0  0  3  0  0  0  0  0  0
  187.0050  177.9430  142.2440 C   0  0  0  0  0  0  0  0  0  0  0  0
  185.7070  178.3350  141.9070 C   0  0  0  0  0  3  0  0  0  0  0  0
  190.8900  176.7610  143.0520 N   0  0  0  0  0  0  0  0  0  0  0  0
  190.6160  176.9280  145.4070 C   0  0  0  0  0  0  0  0  0  0  0  0
  191.1670  176.8020  146.6850 C   0  0  0  0  0  3  0  0  0  0  0  0
  192.7790  175.9650  136.1870 C   0  0  0  0  0  0  0  0  0  0  0  0
  192.1070  176.6620  138.4030 C   0  0  0  0  0  3  0  0  0  0  0  0
  189.1390  176.2070  136.2830 F   0  0  0  0  0  0  0  0  0  0  0  0
  193.7770  175.6380  135.2810 O   0  0  0  0  0  1  0  0  0  0  0  0
  193.1130  176.3320  137.4920 C   0  0  0  0  0  3  0  0  0  0  0  0
  190.4270  176.2560  136.7020 C   0  0  0  0  0  0  0  0  0  0  0  0
  190.7560  176.6290  138.0250 C   0  0  0  0  0  0  0  0  0  0  0  0
  191.4400  175.9270  135.7950 C   0  0  0  0  0  3  0  0  0  0  0  0
  1 17  1  0  0  0  0
  1 11  1  0  0  0  0
  2  3  1  0  0  0  0
  3 22  2  0  0  0  0
  3  9  1  0  0  0  0
  4  5  2  0  0  0  0
  5 16  1  0  0  0  0
  6 18  1  0  0  0  0
  6 13  1  0  0  0  0
  7  2  1  0  0  0  0
  7 17  2  0  0  0  0
  8  1  2  0  0  0  0
  9  6  2  0  0  0  0
 10 15  1  0  0  0  0
 12 22  1  0  0  0  0
 14 10  2  0  0  0  0
 14 19  1  0  0  0  0
 15 21  1  0  0  0  0
 15  2  2  0  0  0  0
 16 10  1  0  0  0  0
 19  7  1  0  0  0  0
 20 19  2  0  0  0  0
 20  8  1  0  0  0  0
 21 12  2  0  0  0  0
 22 23  1  0  0  0  0
 23 18  2  0  0  0  0
 24 28  1  0  0  0  0
 26 29  1  0  0  0  0
 27 24  1  0  0  0  0
 28 25  2  0  0  0  0
 29 30  2  0  0  0  0
 30 25  1  0  0  0  0
 30  5  1  0  0  0  0
 31 24  2  0  0  0  0
 31 29  1  0  0  0  0
M  END
>  <MODEL>
2

>  <REMARK>
 VINA RESULT:     -11.5      0.891      1.245
  Name = 
  1 active torsions:
  status: ('A' for Active; 'I' for Inactive)
    1  A    between atoms: C_5  and  C_30
                            x       y       z     vdW  Elec       q    Type
                         _______ _______ _______ _____ _____    ______ ____

>  <TORSDO>
F 1

$$$$
=
 OpenBabel11122411083D

 31 35  0  0  0  0  0  0  0  0999 V2000
  190.1440  177.3300  142.0940 C   0  0  0  0  0  0  0  0  0  0  0  0
  186.6810  178.3150  143.1950 C   0  0  0  0  0  0  0  0  0  0  0  0
  186.6410  178.1970  144.6200 C   0  0  0  0  0  0  0  0  0  0  0  0
  185.0210  179.2860  138.2920 O   0  0  0  0  0  0  0  0  0  0  0  0
  184.0710  179.5100  139.0920 C   0  0  0  0  0  0  0  0  0  0  0  0
  187.6730  177.6750  146.7740 C   0  0  0  0  0  0  0  0  0  0  0  0
  187.8230  178.0310  142.3870 C   0  0  0  0  0  0  0  0  0  0  0  0
  190.0330  177.4910  140.7140 C   0  0  0  0  0  3  0  0  0  0  0  0
  187.7470  177.7800  145.3830 C   0  0  0  0  0  3  0  0  0  0  0  0
  185.4630  178.8850  141.1460 C   0  0  0  0  0  0  0  0  0  0  0  0
  191.6560  176.7920  142.7940 Cl  0  0  0  0  0  0  0  0  0  0  0  0
  184.3250  178.9240  144.6040 C   0  0  0  0  0  3  0  0  0  0  0  0
  188.8090  177.2520  147.5160 N   0  0  0  0  0  1  0  0  0  0  0  0
  186.5710  178.6050  140.4140 N   0  0  0  0  0  0  0  0  0  0  0  0
  185.4940  178.7470  142.5400 C   0  0  0  0  0  0  0  0  0  0  0  0
  184.2570  179.3220  140.5020 N   0  0  0  0  0  2  0  0  0  0  0  0
  189.0500  177.5970  142.9190 C   0  0  0  0  0  3  0  0  0  0  0  0
  186.4850  177.9880  147.4350 C   0  0  0  0  0  3  0  0  0  0  0  0
  187.7280  178.1900  140.9820 C   0  0  0  0  0  0  0  0  0  0  0  0
  188.8260  177.9210  140.1600 C   0  0  0  0  0  3  0  0  0  0  0  0
  184.3730  179.0330  143.2560 N   0  0  0  0  0  0  0  0  0  0  0  0
  185.4440  178.5090  145.3120 C   0  0  0  0  0  0  0  0  0  0  0  0
  185.3720  178.4030  146.7040 C   0  0  0  0  0  3  0  0  0  0  0  0
  180.2840  180.9150  137.6440 C   0  0  0  0  0  0  0  0  0  0  0  0
  182.4050  181.3180  138.7340 C   0  0  0  0  0  3  0  0  0  0  0  0
  182.1420  177.7770  137.7790 F   0  0  0  0  0  0  0  0  0  0  0  0
  179.0630  181.3830  137.1810 O   0  0  0  0  0  1  0  0  0  0  0  0
  181.1750  181.7900  138.2680 C   0  0  0  0  0  3  0  0  0  0  0  0
  181.8510  179.0900  137.9510 C   0  0  0  0  0  0  0  0  0  0  0  0
  182.7600  179.9680  138.5840 C   0  0  0  0  0  0  0  0  0  0  0  0
  180.6220  179.5700  137.4870 C   0  0  0  0  0  3  0  0  0  0  0  0
  1 11  1  0  0  0  0
  1 17  1  0  0  0  0
  2  3  1  0  0  0  0
  3 22  2  0  0  0  0
  3  9  1  0  0  0  0
  4  5  2  0  0  0  0
  5 16  1  0  0  0  0
  6 18  1  0  0  0  0
  6 13  1  0  0  0  0
  7 17  2  0  0  0  0
  7  2  1  0  0  0  0
  8  1  2  0  0  0  0
  9  6  2  0  0  0  0
 10 15  1  0  0  0  0
 12 22  1  0  0  0  0
 14 19  1  0  0  0  0
 14 10  2  0  0  0  0
 15  2  2  0  0  0  0
 15 21  1  0  0  0  0
 16 10  1  0  0  0  0
 19  7  1  0  0  0  0
 20  8  1  0  0  0  0
 20 19  2  0  0  0  0
 21 12  2  0  0  0  0
 22 23  1  0  0  0  0
 23 18  2  0  0  0  0
 24 28  1  0  0  0  0
 26 29  1  0  0  0  0
 27 24  1  0  0  0  0
 28 25  2  0  0  0  0
 29 30  2  0  0  0  0
 30 25  1  0  0  0  0
 30  5  1  0  0  0  0
 31 24  2  0  0  0  0
 31 29  1  0  0  0  0
M  END
>  <MODEL>
3

>  <REMARK>
 VINA RESULT:     -11.1      4.462      7.300
  Name = 
  1 active torsions:
  status: ('A' for Active; 'I' for Inactive)
    1  A    between atoms: C_5  and  C_30
                            x       y       z     vdW  Elec       q    Type
                         _______ _______ _______ _____ _____    ______ ____

>  <TORSDO>
F 1

$$$$
=
 OpenBabel11122411083D

 31 35  0  0  0  0  0  0  0  0999 V2000
  186.8090  178.0300  147.3090 C   0  0  0  0  0  0  0  0  0  0  0  0
  187.6070  177.8660  143.6330 C   0  0  0  0  0  0  0  0  0  0  0  0
  189.0090  177.6110  143.5160 C   0  0  0  0  0  0  0  0  0  0  0  0
  182.6310  178.7620  142.1580 O   0  0  0  0  0  0  0  0  0  0  0  0
  183.3400  178.6280  141.1240 C   0  0  0  0  0  0  0  0  0  0  0  0
  191.2200  177.2150  144.4800 C   0  0  0  0  0  0  0  0  0  0  0  0
  186.9050  178.0000  144.8690 C   0  0  0  0  0  0  0  0  0  0  0  0
  185.4380  178.2790  147.2660 C   0  0  0  0  0  3  0  0  0  0  0  0
  189.8540  177.4630  144.6300 C   0  0  0  0  0  3  0  0  0  0  0  0
  185.4830  178.2460  142.4680 C   0  0  0  0  0  0  0  0  0  0  0  0
  187.6260  177.8890  148.8510 Cl  0  0  0  0  0  0  0  0  0  0  0  0
  188.8000  177.6370  141.0970 C   0  0  0  0  0  3  0  0  0  0  0  0
  192.0470  177.0700  145.6270 N   0  0  0  0  0  1  0  0  0  0  0  0
  184.8540  178.3660  143.6650 N   0  0  0  0  0  0  0  0  0  0  0  0
  186.8610  177.9960  142.4270 C   0  0  0  0  0  0  0  0  0  0  0  0
  184.7480  178.3730  141.2430 N   0  0  0  0  0  2  0  0  0  0  0  0
  187.5310  177.8930  146.1220 C   0  0  0  0  0  3  0  0  0  0  0  0
  191.7730  177.1080  143.2030 C   0  0  0  0  0  3  0  0  0  0  0  0
  185.5100  178.2530  144.8440 C   0  0  0  0  0  0  0  0  0  0  0  0
  184.7910  178.3900  146.0350 C   0  0  0  0  0  3  0  0  0  0  0  0
  187.4740  177.8780  141.2190 N   0  0  0  0  0  0  0  0  0  0  0  0
  189.5920  177.4990  142.2290 C   0  0  0  0  0  0  0  0  0  0  0  0
  190.9590  177.2500  142.0790 C   0  0  0  0  0  3  0  0  0  0  0  0
  181.5550  179.0100  137.2400 C   0  0  0  0  0  0  0  0  0  0  0  0
  182.2520  179.9780  139.3440 C   0  0  0  0  0  3  0  0  0  0  0  0
  183.0550  176.3910  139.2910 F   0  0  0  0  0  0  0  0  0  0  0  0
  180.9760  179.1480  135.9870 O   0  0  0  0  0  1  0  0  0  0  0  0
  181.6690  180.1170  138.0820 C   0  0  0  0  0  3  0  0  0  0  0  0
  182.6110  177.6170  138.9210 C   0  0  0  0  0  0  0  0  0  0  0  0
  182.7300  178.7320  139.7800 C   0  0  0  0  0  0  0  0  0  0  0  0
  182.0260  177.7650  137.6590 C   0  0  0  0  0  3  0  0  0  0  0  0
  1 11  1  0  0  0  0
  2  7  1  0  0  0  0
  3  2  1  0  0  0  0
  3  9  1  0  0  0  0
  5 16  1  0  0  0  0
  5  4  2  0  0  0  0
  6  9  2  0  0  0  0
  6 13  1  0  0  0  0
  7 17  1  0  0  0  0
  8  1  1  0  0  0  0
 10 14  2  0  0  0  0
 12 21  2  0  0  0  0
 12 22  1  0  0  0  0
 14 19  1  0  0  0  0
 15 10  1  0  0  0  0
 15  2  2  0  0  0  0
 16 10  1  0  0  0  0
 17  1  2  0  0  0  0
 18  6  1  0  0  0  0
 19  7  2  0  0  0  0
 19 20  1  0  0  0  0
 20  8  2  0  0  0  0
 21 15  1  0  0  0  0
 22  3  2  0  0  0  0
 23 22  1  0  0  0  0
 23 18  2  0  0  0  0
 24 31  2  0  0  0  0
 24 28  1  0  0  0  0
 25 30  1  0  0  0  0
 27 24  1  0  0  0  0
 28 25  2  0  0  0  0
 29 26  1  0  0  0  0
 29 30  2  0  0  0  0
 30  5  1  0  0  0  0
 31 29  1  0  0  0  0
M  END
>  <MODEL>
4

>  <REMARK>
 VINA RESULT:     -10.6      4.331      6.516
  Name = 
  1 active torsions:
  status: ('A' for Active; 'I' for Inactive)
    1  A    between atoms: C_5  and  C_30
                            x       y       z     vdW  Elec       q    Type
                         _______ _______ _______ _____ _____    ______ ____

>  <TORSDO>
F 1

$$$$
=
 OpenBabel11122411083D

 31 35  0  0  0  0  0  0  0  0999 V2000
  183.6940  178.9740  139.5830 C   0  0  0  0  0  0  0  0  0  0  0  0
  187.3470  178.0970  139.8490 C   0  0  0  0  0  0  0  0  0  0  0  0
  187.8630  178.0300  138.5170 C   0  0  0  0  0  0  0  0  0  0  0  0
  187.2730  177.8990  145.1110 O   0  0  0  0  0  0  0  0  0  0  0  0
  188.4410  177.6380  144.7140 C   0  0  0  0  0  0  0  0  0  0  0  0
  187.6080  178.1890  136.0910 C   0  0  0  0  0  0  0  0  0  0  0  0
  185.9920  178.4040  140.1810 C   0  0  0  0  0  0  0  0  0  0  0  0
  183.3360  179.0020  140.9290 C   0  0  0  0  0  3  0  0  0  0  0  0
  187.0710  178.2640  137.3780 C   0  0  0  0  0  3  0  0  0  0  0  0
  187.8130  177.8880  142.2460 C   0  0  0  0  0  0  0  0  0  0  0  0
  182.4970  179.3080  138.3500 Cl  0  0  0  0  0  0  0  0  0  0  0  0
  190.0530  177.4740  139.4060 C   0  0  0  0  0  3  0  0  0  0  0  0
  186.7820  178.4320  134.9600 N   0  0  0  0  0  1  0  0  0  0  0  0
  186.5170  178.1840  142.5200 N   0  0  0  0  0  0  0  0  0  0  0  0
  188.2520  177.8390  140.9160 C   0  0  0  0  0  0  0  0  0  0  0  0
  188.7390  177.6250  143.3100 N   0  0  0  0  0  2  0  0  0  0  0  0
  185.0080  178.6770  139.2160 C   0  0  0  0  0  3  0  0  0  0  0  0
  188.9570  177.8770  135.9150 C   0  0  0  0  0  3  0  0  0  0  0  0
  185.6100  178.4390  141.5460 C   0  0  0  0  0  0  0  0  0  0  0  0
  184.2930  178.7360  141.9080 C   0  0  0  0  0  3  0  0  0  0  0  0
  189.5540  177.5410  140.6620 N   0  0  0  0  0  0  0  0  0  0  0  0
  189.2300  177.7140  138.3150 C   0  0  0  0  0  0  0  0  0  0  0  0
  189.7660  177.6390  137.0260 C   0  0  0  0  0  3  0  0  0  0  0  0
  191.5980  176.7540  147.4830 C   0  0  0  0  0  0  0  0  0  0  0  0
  190.7020  176.7500  145.2370 C   0  0  0  0  0  3  0  0  0  0  0  0
  188.2550  178.2160  147.5560 F   0  0  0  0  0  0  0  0  0  0  0  0
  192.6270  176.4630  148.3670 O   0  0  0  0  0  1  0  0  0  0  0  0
  191.7380  176.4570  146.1260 C   0  0  0  0  0  3  0  0  0  0  0  0
  189.3810  177.6420  147.0640 C   0  0  0  0  0  0  0  0  0  0  0  0
  189.5130  177.3440  145.6890 C   0  0  0  0  0  0  0  0  0  0  0  0
  190.4220  177.3450  147.9490 C   0  0  0  0  0  3  0  0  0  0  0  0
  1  8  1  0  0  0  0
  2  7  1  0  0  0  0
  2 15  1  0  0  0  0
  3  2  2  0  0  0  0
  5  4  2  0  0  0  0
  5 30  1  0  0  0  0
  6  9  2  0  0  0  0
  7 19  2  0  0  0  0
  8 20  2  0  0  0  0
  9  3  1  0  0  0  0
 10 14  2  0  0  0  0
 10 16  1  0  0  0  0
 11  1  1  0  0  0  0
 12 21  1  0  0  0  0
 13  6  1  0  0  0  0
 15 10  1  0  0  0  0
 16  5  1  0  0  0  0
 17  1  2  0  0  0  0
 17  7  1  0  0  0  0
 18  6  1  0  0  0  0
 18 23  2  0  0  0  0
 19 20  1  0  0  0  0
 19 14  1  0  0  0  0
 21 15  2  0  0  0  0
 22  3  1  0  0  0  0
 22 12  2  0  0  0  0
 23 22  1  0  0  0  0
 24 31  1  0  0  0  0
 24 27  1  0  0  0  0
 25 30  2  0  0  0  0
 25 28  1  0  0  0  0
 28 24  2  0  0  0  0
 29 26  1  0  0  0  0
 29 31  2  0  0  0  0
 30 29  1  0  0  0  0
M  END
>  <MODEL>
5

>  <REMARK>
 VINA RESULT:     -10.3      3.747      7.767
  Name = 
  1 active torsions:
  status: ('A' for Active; 'I' for Inactive)
    1  A    between atoms: C_5  and  C_30
                            x       y       z     vdW  Elec       q    Type
                         _______ _______ _______ _____ _____    ______ ____

>  <TORSDO>
F 1

$$$$
=
 OpenBabel11122411083D

 31 35  0  0  0  0  0  0  0  0999 V2000
  186.6330  177.9210  145.6690 C   0  0  0  0  0  0  0  0  0  0  0  0
  187.1370  178.2120  141.9490 C   0  0  0  0  0  0  0  0  0  0  0  0
  188.5000  177.8770  141.6800 C   0  0  0  0  0  0  0  0  0  0  0  0
  182.1550  179.6570  141.0370 O   0  0  0  0  0  0  0  0  0  0  0  0
  182.7710  179.6170  139.9370 C   0  0  0  0  0  0  0  0  0  0  0  0
  190.7380  177.1940  142.3900 C   0  0  0  0  0  0  0  0  0  0  0  0
  186.5430  178.2240  143.2470 C   0  0  0  0  0  0  0  0  0  0  0  0
  185.2890  178.2720  145.7760 C   0  0  0  0  0  3  0  0  0  0  0  0
  189.4120  177.5160  142.6880 C   0  0  0  0  0  3  0  0  0  0  0  0
  184.9700  178.9010  141.0310 C   0  0  0  0  0  0  0  0  0  0  0  0
  187.5500  177.5110  147.1030 Cl  0  0  0  0  0  0  0  0  0  0  0  0
  188.1140  178.2530  139.3120 C   0  0  0  0  0  3  0  0  0  0  0  0
  191.6340  176.8330  143.4330 N   0  0  0  0  0  1  0  0  0  0  0  0
  184.4450  178.8980  142.2820 N   0  0  0  0  0  0  0  0  0  0  0  0
  186.3160  178.5610  140.8390 C   0  0  0  0  0  0  0  0  0  0  0  0
  184.1580  179.2490  139.9000 N   0  0  0  0  0  2  0  0  0  0  0  0
  187.2510  177.8990  144.4170 C   0  0  0  0  0  3  0  0  0  0  0  0
  191.1830  177.2260  141.0680 C   0  0  0  0  0  3  0  0  0  0  0  0
  185.1760  178.5760  143.3760 C   0  0  0  0  0  0  0  0  0  0  0  0
  184.5620  178.5980  144.6310 C   0  0  0  0  0  3  0  0  0  0  0  0
  186.8250  178.5680  139.5780 N   0  0  0  0  0  0  0  0  0  0  0  0
  188.9740  177.9030  140.3440 C   0  0  0  0  0  0  0  0  0  0  0  0
  190.3010  177.5800  140.0460 C   0  0  0  0  0  3  0  0  0  0  0  0
  180.7340  180.6590  136.3070 C   0  0  0  0  0  0  0  0  0  0  0  0
  181.6180  181.2630  138.4750 C   0  0  0  0  0  3  0  0  0  0  0  0
  182.2620  177.7050  137.8090 F   0  0  0  0  0  0  0  0  0  0  0  0
  180.0740  181.0100  135.1380 O   0  0  0  0  0  1  0  0  0  0  0  0
  180.9540  181.6170  137.2990 C   0  0  0  0  0  3  0  0  0  0  0  0
  181.8460  178.9880  137.6670 C   0  0  0  0  0  0  0  0  0  0  0  0
  182.0720  179.9500  138.6770 C   0  0  0  0  0  0  0  0  0  0  0  0
  181.1790  179.3490  136.4920 C   0  0  0  0  0  3  0  0  0  0  0  0
  1  8  1  0  0  0  0
  1 11  1  0  0  0  0
  2  7  1  0  0  0  0
  3  2  1  0  0  0  0
  3  9  1  0  0  0  0
  5  4  2  0  0  0  0
  6  9  2  0  0  0  0
  6 13  1  0  0  0  0
  7 19  2  0  0  0  0
  7 17  1  0  0  0  0
 10 14  2  0  0  0  0
 12 21  2  0  0  0  0
 12 22  1  0  0  0  0
 14 19  1  0  0  0  0
 15 10  1  0  0  0  0
 15  2  2  0  0  0  0
 16  5  1  0  0  0  0
 16 10  1  0  0  0  0
 17  1  2  0  0  0  0
 18  6  1  0  0  0  0
 19 20  1  0  0  0  0
 20  8  2  0  0  0  0
 21 15  1  0  0  0  0
 22  3  2  0  0  0  0
 23 22  1  0  0  0  0
 23 18  2  0  0  0  0
 24 31  2  0  0  0  0
 24 28  1  0  0  0  0
 25 30  1  0  0  0  0
 27 24  1  0  0  0  0
 28 25  2  0  0  0  0
 29 26  1  0  0  0  0
 29 30  2  0  0  0  0
 30  5  1  0  0  0  0
 31 29  1  0  0  0  0
M  END
>  <MODEL>
6

>  <REMARK>
 VINA RESULT:     -10.2      4.471      7.316
  Name = 
  1 active torsions:
  status: ('A' for Active; 'I' for Inactive)
    1  A    between atoms: C_5  and  C_30
                            x       y       z     vdW  Elec       q    Type
                         _______ _______ _______ _____ _____    ______ ____

>  <TORSDO>
F 1

$$$$
=
 OpenBabel11122411083D

 31 35  0  0  0  0  0  0  0  0999 V2000
  188.6630  177.5770  146.7850 C   0  0  0  0  0  0  0  0  0  0  0  0
  187.3720  177.8680  143.2590 C   0  0  0  0  0  0  0  0  0  0  0  0
  185.9970  178.2520  143.3430 C   0  0  0  0  0  0  0  0  0  0  0  0
  191.9850  176.5420  141.0910 O   0  0  0  0  0  0  0  0  0  0  0  0
  191.1520  176.7560  140.1680 C   0  0  0  0  0  0  0  0  0  0  0  0
  183.9900  178.8340  144.6120 C   0  0  0  0  0  0  0  0  0  0  0  0
  188.2260  177.6510  144.3830 C   0  0  0  0  0  0  0  0  0  0  0  0
  189.9840  177.2030  146.5470 C   0  0  0  0  0  3  0  0  0  0  0  0
  185.3350  178.4590  144.5670 C   0  0  0  0  0  3  0  0  0  0  0  0
  189.2650  177.3130  141.8040 C   0  0  0  0  0  0  0  0  0  0  0  0
  188.0880  177.7680  148.4270 Cl  0  0  0  0  0  0  0  0  0  0  0  0
  185.8590  178.2430  140.9190 C   0  0  0  0  0  3  0  0  0  0  0  0
  183.3510  179.0370  145.8650 N   0  0  0  0  0  1  0  0  0  0  0  0
  190.0430  177.1170  142.8990 N   0  0  0  0  0  0  0  0  0  0  0  0
  187.9240  177.6890  141.9600 C   0  0  0  0  0  0  0  0  0  0  0  0
  189.8050  177.1370  140.4860 N   0  0  0  0  0  2  0  0  0  0  0  0
  187.7950  177.7970  145.7130 C   0  0  0  0  0  3  0  0  0  0  0  0
  183.2750  179.0100  143.4270 C   0  0  0  0  0  3  0  0  0  0  0  0
  189.5740  177.2720  144.1600 C   0  0  0  0  0  0  0  0  0  0  0  0
  190.4380  177.0520  145.2360 C   0  0  0  0  0  3  0  0  0  0  0  0
  187.1600  177.8800  140.8510 N   0  0  0  0  0  0  0  0  0  0  0  0
  185.2510  178.4360  142.1520 C   0  0  0  0  0  0  0  0  0  0  0  0
  183.9050  178.8110  142.1990 C   0  0  0  0  0  3  0  0  0  0  0  0
  192.2400  176.3530  136.0370 C   0  0  0  0  0  0  0  0  0  0  0  0
  190.5600  176.5620  137.7630 C   0  0  0  0  0  3  0  0  0  0  0  0
  193.9110  176.5850  139.2730 F   0  0  0  0  0  0  0  0  0  0  0  0
  192.5780  176.2230  134.6980 O   0  0  0  0  0  1  0  0  0  0  0  0
  190.8990  176.4310  136.4140 C   0  0  0  0  0  3  0  0  0  0  0  0
  192.9100  176.5370  138.3600 C   0  0  0  0  0  0  0  0  0  0  0  0
  191.5550  176.6170  138.7520 C   0  0  0  0  0  0  0  0  0  0  0  0
  193.2420  176.4060  137.0080 C   0  0  0  0  0  3  0  0  0  0  0  0
  1 11  1  0  0  0  0
  2  3  1  0  0  0  0
  2  7  1  0  0  0  0
  3  9  1  0  0  0  0
  5 16  1  0  0  0  0
  5  4  2  0  0  0  0
  6 13  1  0  0  0  0
  7 17  1  0  0  0  0
  8  1  1  0  0  0  0
  9  6  2  0  0  0  0
 10 15  1  0  0  0  0
 10 14  2  0  0  0  0
 12 22  1  0  0  0  0
 14 19  1  0  0  0  0
 15  2  2  0  0  0  0
 16 10  1  0  0  0  0
 17  1  2  0  0  0  0
 18  6  1  0  0  0  0
 19  7  2  0  0  0  0
 19 20  1  0  0  0  0
 20  8  2  0  0  0  0
 21 12  2  0  0  0  0
 21 15  1  0  0  0  0
 22 23  1  0  0  0  0
 22  3  2  0  0  0  0
 23 18  2  0  0  0  0
 24 28  2  0  0  0  0
 24 31  1  0  0  0  0
 25 30  2  0  0  0  0
 27 24  1  0  0  0  0
 28 25  1  0  0  0  0
 29 30  1  0  0  0  0
 29 26  1  0  0  0  0
 30  5  1  0  0  0  0
 31 29  2  0  0  0  0
M  END
>  <MODEL>
7

>  <REMARK>
 VINA RESULT:     -10.0      1.825      4.162
  Name = 
  1 active torsions:
  status: ('A' for Active; 'I' for Inactive)
    1  A    between atoms: C_5  and  C_30
                            x       y       z     vdW  Elec       q    Type
                         _______ _______ _______ _____ _____    ______ ____

>  <TORSDO>
F 1

$$$$
=
 OpenBabel11122411083D

 31 35  0  0  0  0  0  0  0  0999 V2000
  188.1330  177.5650  146.0310 C   0  0  0  0  0  0  0  0  0  0  0  0
  187.6360  177.9670  142.3210 C   0  0  0  0  0  0  0  0  0  0  0  0
  188.9110  177.7800  141.7010 C   0  0  0  0  0  0  0  0  0  0  0  0
  182.4710  178.8990  142.7610 O   0  0  0  0  0  0  0  0  0  0  0  0
  182.7860  178.9410  141.5410 C   0  0  0  0  0  0  0  0  0  0  0  0
  191.3110  177.3230  141.7930 C   0  0  0  0  0  0  0  0  0  0  0  0
  187.3970  177.8950  143.7260 C   0  0  0  0  0  0  0  0  0  0  0  0
  186.8330  177.7710  146.4910 C   0  0  0  0  0  3  0  0  0  0  0  0
  190.0810  177.5000  142.4300 C   0  0  0  0  0  3  0  0  0  0  0  0
  185.2510  178.4400  142.0110 C   0  0  0  0  0  0  0  0  0  0  0  0
  189.4210  177.2290  147.1680 Cl  0  0  0  0  0  0  0  0  0  0  0  0
  187.8970  178.1520  139.5270 C   0  0  0  0  0  3  0  0  0  0  0  0
  192.4750  177.0400  142.5590 N   0  0  0  0  0  1  0  0  0  0  0  0
  185.0660  178.3630  143.3530 N   0  0  0  0  0  0  0  0  0  0  0  0
  186.5290  178.2460  141.4710 C   0  0  0  0  0  0  0  0  0  0  0  0
  184.1460  178.7200  141.1390 N   0  0  0  0  0  2  0  0  0  0  0  0
  188.4080  177.6270  144.6640 C   0  0  0  0  0  3  0  0  0  0  0  0
  191.3970  177.4220  140.4040 C   0  0  0  0  0  3  0  0  0  0  0  0
  186.0800  178.1010  144.2110 C   0  0  0  0  0  0  0  0  0  0  0  0
  185.8090  178.0380  145.5810 C   0  0  0  0  0  3  0  0  0  0  0  0
  186.6950  178.3270  140.1230 N   0  0  0  0  0  0  0  0  0  0  0  0
  189.0220  177.8760  140.2920 C   0  0  0  0  0  0  0  0  0  0  0  0
  190.2540  177.6990  139.6540 C   0  0  0  0  0  3  0  0  0  0  0  0
  179.8650  179.7740  138.5090 C   0  0  0  0  0  0  0  0  0  0  0  0
  182.1610  179.7260  139.2670 C   0  0  0  0  0  3  0  0  0  0  0  0
  179.9400  178.5050  141.9300 F   0  0  0  0  0  0  0  0  0  0  0  0
  178.9310  180.0470  137.5200 O   0  0  0  0  0  1  0  0  0  0  0  0
  181.2220  180.0010  138.2710 C   0  0  0  0  0  3  0  0  0  0  0  0
  180.3840  178.9920  140.7450 C   0  0  0  0  0  0  0  0  0  0  0  0
  181.7590  179.2190  140.5130 C   0  0  0  0  0  0  0  0  0  0  0  0
  179.4490  179.2700  139.7430 C   0  0  0  0  0  3  0  0  0  0  0  0
  1  8  1  0  0  0  0
  1 11  1  0  0  0  0
  2  7  1  0  0  0  0
  3  2  1  0  0  0  0
  3  9  1  0  0  0  0
  5  4  2  0  0  0  0
  6  9  2  0  0  0  0
  6 13  1  0  0  0  0
  7 19  2  0  0  0  0
  7 17  1  0  0  0  0
 10 14  2  0  0  0  0
 12 21  2  0  0  0  0
 12 22  1  0  0  0  0
 14 19  1  0  0  0  0
 15 10  1  0  0  0  0
 15  2  2  0  0  0  0
 16  5  1  0  0  0  0
 16 10  1  0  0  0  0
 17  1  2  0  0  0  0
 18  6  1  0  0  0  0
 19 20  1  0  0  0  0
 20  8  2  0  0  0  0
 21 15  1  0  0  0  0
 22  3  2  0  0  0  0
 23 22  1  0  0  0  0
 23 18  2  0  0  0  0
 24 31  1  0  0  0  0
 25 30  2  0  0  0  0
 27 24  1  0  0  0  0
 28 24  2  0  0  0  0
 28 25  1  0  0  0  0
 29 26  1  0  0  0  0
 30 29  1  0  0  0  0
 30  5  1  0  0  0  0
 31 29  2  0  0  0  0
M  END
>  <MODEL>
8

>  <REMARK>
 VINA RESULT:      -9.5      4.500      7.821
  Name = 
  1 active torsions:
  status: ('A' for Active; 'I' for Inactive)
    1  A    between atoms: C_5  and  C_30
                            x       y       z     vdW  Elec       q    Type
                         _______ _______ _______ _____ _____    ______ ____

>  <TORSDO>
F 1

$$$$
=
 OpenBabel11122411083D

 31 35  0  0  0  0  0  0  0  0999 V2000
  183.6530  178.7060  138.2830 C   0  0  0  0  0  0  0  0  0  0  0  0
  183.6890  178.5940  142.0470 C   0  0  0  0  0  0  0  0  0  0  0  0
  182.3520  178.8370  142.4900 C   0  0  0  0  0  0  0  0  0  0  0  0
  188.8550  177.5980  142.3130 O   0  0  0  0  0  0  0  0  0  0  0  0
  188.3930  177.6540  143.4850 C   0  0  0  0  0  0  0  0  0  0  0  0
  179.9890  179.3020  142.0710 C   0  0  0  0  0  0  0  0  0  0  0  0
  184.0990  178.5540  140.6790 C   0  0  0  0  0  0  0  0  0  0  0  0
  184.9950  178.4580  138.0030 C   0  0  0  0  0  3  0  0  0  0  0  0
  181.2830  179.0670  141.6040 C   0  0  0  0  0  3  0  0  0  0  0  0
  186.0120  178.1320  142.6810 C   0  0  0  0  0  0  0  0  0  0  0  0
  182.5170  178.9610  136.9750 Cl  0  0  0  0  0  0  0  0  0  0  0  0
  183.0900  178.6320  144.7940 C   0  0  0  0  0  3  0  0  0  0  0  0
  178.9310  179.5300  141.1500 N   0  0  0  0  0  1  0  0  0  0  0  0
  186.3590  178.1020  141.3690 N   0  0  0  0  0  0  0  0  0  0  0  0
  184.6810  178.3770  143.0450 C   0  0  0  0  0  0  0  0  0  0  0  0
  186.9980  177.9150  143.7000 N   0  0  0  0  0  2  0  0  0  0  0  0
  183.2120  178.7540  139.6070 C   0  0  0  0  0  3  0  0  0  0  0  0
  179.7330  179.3120  143.4430 C   0  0  0  0  0  3  0  0  0  0  0  0
  185.4610  178.3020  140.3760 C   0  0  0  0  0  0  0  0  0  0  0  0
  185.8970  178.2560  139.0490 C   0  0  0  0  0  3  0  0  0  0  0  0
  184.3520  178.4020  144.3640 N   0  0  0  0  0  0  0  0  0  0  0  0
  182.0700  178.8530  143.8780 C   0  0  0  0  0  0  0  0  0  0  0  0
  180.7730  179.0880  144.3450 C   0  0  0  0  0  3  0  0  0  0  0  0
  191.0430  177.0630  146.8090 C   0  0  0  0  0  0  0  0  0  0  0  0
  190.6660  177.3300  144.4350 C   0  0  0  0  0  3  0  0  0  0  0  0
  187.4630  177.4840  146.2340 F   0  0  0  0  0  0  0  0  0  0  0  0
  191.9100  176.8710  147.8750 O   0  0  0  0  0  1  0  0  0  0  0  0
  191.5410  177.1380  145.5070 C   0  0  0  0  0  3  0  0  0  0  0  0
  188.7890  177.3740  145.9700 C   0  0  0  0  0  0  0  0  0  0  0  0
  189.2840  177.4510  144.6490 C   0  0  0  0  0  0  0  0  0  0  0  0
  189.6710  177.1810  147.0380 C   0  0  0  0  0  3  0  0  0  0  0  0
  1 17  1  0  0  0  0
  2  3  2  0  0  0  0
  2 15  1  0  0  0  0
  3 22  1  0  0  0  0
  4  5  2  0  0  0  0
  5 16  1  0  0  0  0
  5 30  1  0  0  0  0
  6 18  1  0  0  0  0
  7  2  1  0  0  0  0
  8  1  2  0  0  0  0
  8 20  1  0  0  0  0
  9  6  2  0  0  0  0
  9  3  1  0  0  0  0
 10 15  1  0  0  0  0
 10 16  1  0  0  0  0
 11  1  1  0  0  0  0
 13  6  1  0  0  0  0
 14 10  2  0  0  0  0
 15 21  2  0  0  0  0
 17  7  2  0  0  0  0
 18 23  2  0  0  0  0
 19  7  1  0  0  0  0
 19 14  1  0  0  0  0
 20 19  2  0  0  0  0
 21 12  1  0  0  0  0
 22 23  1  0  0  0  0
 22 12  2  0  0  0  0
 24 31  1  0  0  0  0
 24 27  1  0  0  0  0
 25 30  2  0  0  0  0
 25 28  1  0  0  0  0
 28 24  2  0  0  0  0
 29 26  1  0  0  0  0
 29 31  2  0  0  0  0
 30 29  1  0  0  0  0
M  END
>  <MODEL>
9

>  <REMARK>
 VINA RESULT:      -9.3      4.390      7.830
  Name = 
  1 active torsions:
  status: ('A' for Active; 'I' for Inactive)
    1  A    between atoms: C_5  and  C_30
                            x       y       z     vdW  Elec       q    Type
                         _______ _______ _______ _____ _____    ______ ____

>  <TORSDO>
F 1

$$$$
