=
 OpenBabel11122410503D

 32 37  0  0  1  0  0  0  0  0999 V2000
  189.8290  176.6160  138.7320 C   0  0  0  0  0  2  0  0  0  0  0  0
  185.9830  178.2800  141.8250 C   0  0  0  0  0  0  0  0  0  0  0  0
  186.9110  178.0720  146.6920 C   0  0  0  0  0  3  0  0  0  0  0  0
  185.6070  178.4840  146.9650 C   0  0  0  0  0  3  0  0  0  0  0  0
  183.6200  178.5630  141.0730 C   0  0  0  0  0  0  0  0  0  0  0  0
  182.2180  178.7580  141.4340 C   0  0  0  0  0  0  0  0  0  0  0  0
  187.9940  178.5090  140.3570 C   0  0  1  0  0  3  0  0  0  0  0  0
  188.3350  177.7210  142.6840 C   0  0  0  0  0  2  0  0  0  0  0  0
  180.4350  178.9580  142.9320 C   0  0  2  0  0  3  0  0  0  0  0  0
  190.1800  177.3220  141.0230 C   0  0  0  0  0  2  0  0  0  0  0  0
  187.3000  177.8130  145.3780 C   0  0  0  0  0  3  0  0  0  0  0  0
  186.8180  177.6000  142.9060 C   0  0  1  0  0  3  0  0  0  0  0  0
  186.3990  177.9800  144.3120 C   0  0  0  0  0  0  0  0  0  0  0  0
  184.0780  178.5230  143.5070 C   0  0  0  0  0  0  0  0  0  0  0  0
  179.9310  178.9470  141.4770 C   0  0  0  0  0  2  0  0  0  0  0  0
  188.3820  177.0990  138.5510 C   0  0  0  0  0  2  0  0  0  0  0  0
  188.6640  177.4310  141.2330 C   0  0  2  0  0  3  0  0  0  0  0  0
  181.1700  178.7820  140.6360 C   0  0  0  0  0  3  0  0  0  0  0  0
  188.2420  178.4420  138.9600 O   0  0  0  0  0  0  0  0  0  0  0  0
  190.5850  177.5040  139.6240 N   0  0  0  0  0  0  0  0  0  0  0  0
  184.6910  178.6280  145.9210 C   0  0  0  0  0  3  0  0  0  0  0  0
  185.0710  178.3730  144.5940 C   0  0  0  0  0  0  0  0  0  0  0  0
  182.8200  178.7180  143.8030 N   0  0  0  0  0  0  0  0  0  0  0  0
  186.5260  178.6280  140.6460 C   0  0  0  0  0  3  0  0  0  0  0  0
  183.9640  178.4560  139.7630 F   0  0  0  0  0  0  0  0  0  0  0  0
  180.0540  180.2680  143.5940 C   0  0  0  0  0  1  0  0  0  0  0  0
  184.5290  178.4600  142.0750 C   0  0  0  0  0  0  0  0  0  0  0  0
  181.8720  178.8810  142.7830 N   0  0  0  0  0  0  0  0  0  0  0  0
  191.9810  177.1090  139.5390 C   0  0  0  0  0  2  0  0  0  0  0  0
  192.3130  176.6550  138.1280 C   0  0  2  0  0  3  0  0  0  0  0  0
  192.3120  175.1420  138.0760 C   0  0  0  0  0  1  0  0  0  0  0  0
  193.5740  177.1280  137.7630 O   0  0  0  0  0  1  0  0  0  0  0  0
  1 20  1  0  0  0  0
  2 27  1  0  0  0  0
  2 12  1  0  0  0  0
  3  4  1  0  0  0  0
  5  6  1  0  0  0  0
  5 27  2  0  0  0  0
  6 28  1  0  0  0  0
  7 24  1  6  0  0  0
  7 17  1  0  0  0  0
  9 26  1  6  0  0  0
 11  3  2  0  0  0  0
 12  8  1  6  0  0  0
 12 13  1  0  0  0  0
 13 22  2  0  0  0  0
 13 11  1  0  0  0  0
 14 23  2  0  0  0  0
 14 22  1  0  0  0  0
 15  9  1  0  0  0  0
 16  1  1  0  0  0  0
 16 19  1  0  0  0  0
 17 10  1  1  0  0  0
 17  8  1  0  0  0  0
 18  6  2  0  0  0  0
 18 15  1  0  0  0  0
 19  7  1  0  0  0  0
 20 10  1  0  0  0  0
 21  4  2  0  0  0  0
 22 21  1  0  0  0  0
 24  2  2  0  0  0  0
 25  5  1  0  0  0  0
 27 14  1  0  0  0  0
 28  9  1  0  0  0  0
 28 23  1  0  0  0  0
 29 20  1  0  0  0  0
 30 31  1  1  0  0  0
 30 29  1  0  0  0  0
 32 30  1  0  0  0  0
M  END
>  <MODEL>
1

>  <REMARK>
 VINA RESULT:     -10.7      0.000      0.000
  Name = 
  2 active torsions:
  status: ('A' for Active; 'I' for Inactive)
    1  A    between atoms: N_20  and  C_29
    2  A    between atoms: C_29  and  C_30
                            x       y       z     vdW  Elec       q    Type
                         _______ _______ _______ _____ _____    ______ ____

>  <TORSDO>
F 2

$$$$
=
 OpenBabel11122410503D

 32 37  0  0  1  0  0  0  0  0999 V2000
  188.5350  176.6600  136.6280 C   0  0  0  0  0  2  0  0  0  0  0  0
  188.2150  177.6690  141.7280 C   0  0  0  0  0  0  0  0  0  0  0  0
  192.0200  176.0570  144.4700 C   0  0  0  0  0  3  0  0  0  0  0  0
  191.3660  176.4680  145.6300 C   0  0  0  0  0  3  0  0  0  0  0  0
  186.1010  178.3160  142.8850 C   0  0  0  0  0  0  0  0  0  0  0  0
  185.3820  178.5020  144.1440 C   0  0  0  0  0  0  0  0  0  0  0  0
  188.7460  178.1540  139.3330 C   0  0  1  0  0  3  0  0  0  0  0  0
  190.3250  176.7300  140.6110 C   0  0  0  0  0  2  0  0  0  0  0  0
  185.1380  178.4050  146.4660 C   0  0  2  0  0  3  0  0  0  0  0  0
  190.4590  176.6770  138.1000 C   0  0  0  0  0  2  0  0  0  0  0  0
  191.3730  176.1450  143.2370 C   0  0  0  0  0  3  0  0  0  0  0  0
  189.3560  176.6600  141.8030 C   0  0  1  0  0  3  0  0  0  0  0  0
  190.0710  176.6640  143.1400 C   0  0  0  0  0  0  0  0  0  0  0  0
  188.0150  177.5710  144.2710 C   0  0  0  0  0  0  0  0  0  0  0  0
  183.8210  178.8330  145.7940 C   0  0  0  0  0  2  0  0  0  0  0  0
  187.4970  177.2750  137.5810 C   0  0  0  0  0  2  0  0  0  0  0  0
  189.5390  176.8300  139.3180 C   0  0  2  0  0  3  0  0  0  0  0  0
  184.1150  178.8190  144.3160 C   0  0  0  0  0  3  0  0  0  0  0  0
  187.9910  178.4590  138.1690 O   0  0  0  0  0  0  0  0  0  0  0  0
  189.8740  177.2110  136.8640 N   0  0  0  0  0  0  0  0  0  0  0  0
  190.0620  176.9600  145.5560 C   0  0  0  0  0  3  0  0  0  0  0  0
  189.4010  177.0570  144.3210 C   0  0  0  0  0  0  0  0  0  0  0  0
  187.3560  177.7650  145.3840 N   0  0  0  0  0  0  0  0  0  0  0  0
  187.9140  178.2910  140.5750 C   0  0  0  0  0  3  0  0  0  0  0  0
  185.4620  178.5520  141.7100 F   0  0  0  0  0  0  0  0  0  0  0  0
  185.6160  179.5040  147.3950 C   0  0  0  0  0  1  0  0  0  0  0  0
  187.3830  177.8760  142.9410 C   0  0  0  0  0  0  0  0  0  0  0  0
  186.0490  178.2710  145.3510 N   0  0  0  0  0  0  0  0  0  0  0  0
  190.7220  176.7570  135.7730 C   0  0  0  0  0  2  0  0  0  0  0  0
  191.5970  175.6030  136.2340 C   0  0  2  0  0  3  0  0  0  0  0  0
  193.0300  175.8660  135.8240 C   0  0  0  0  0  1  0  0  0  0  0  0
  191.1600  174.4150  135.6490 O   0  0  0  0  0  1  0  0  0  0  0  0
  1 20  1  0  0  0  0
  1 16  1  0  0  0  0
  2 12  1  0  0  0  0
  2 27  1  0  0  0  0
  3  4  1  0  0  0  0
  5 27  2  0  0  0  0
  5  6  1  0  0  0  0
  6 18  2  0  0  0  0
  6 28  1  0  0  0  0
  7 24  1  1  0  0  0
  9 26  1  1  0  0  0
 11  3  2  0  0  0  0
 12  8  1  6  0  0  0
 12 13  1  0  0  0  0
 13 11  1  0  0  0  0
 13 22  2  0  0  0  0
 14 22  1  0  0  0  0
 14 23  2  0  0  0  0
 15  9  1  0  0  0  0
 16 19  1  0  0  0  0
 17 10  1  6  0  0  0
 17  7  1  0  0  0  0
 17  8  1  0  0  0  0
 18 15  1  0  0  0  0
 19  7  1  0  0  0  0
 20 10  1  0  0  0  0
 21  4  2  0  0  0  0
 22 21  1  0  0  0  0
 24  2  2  0  0  0  0
 25  5  1  0  0  0  0
 27 14  1  0  0  0  0
 28 23  1  0  0  0  0
 28  9  1  0  0  0  0
 29 30  1  0  0  0  0
 29 20  1  0  0  0  0
 30 31  1  6  0  0  0
 32 30  1  0  0  0  0
M  END
>  <MODEL>
2

>  <REMARK>
 VINA RESULT:     -10.5      2.531      4.007
  Name = 
  2 active torsions:
  status: ('A' for Active; 'I' for Inactive)
    1  A    between atoms: N_20  and  C_29
    2  A    between atoms: C_29  and  C_30
                            x       y       z     vdW  Elec       q    Type
                         _______ _______ _______ _____ _____    ______ ____

>  <TORSDO>
F 2

$$$$
=
 OpenBabel11122410503D

 32 37  0  0  1  0  0  0  0  0999 V2000
  189.0520  178.2730  147.8980 C   0  0  0  0  0  2  0  0  0  0  0  0
  185.9460  178.1240  143.7200 C   0  0  0  0  0  0  0  0  0  0  0  0
  188.2570  178.1890  139.3330 C   0  0  0  0  0  3  0  0  0  0  0  0
  187.0270  178.2530  138.6800 C   0  0  0  0  0  3  0  0  0  0  0  0
  183.5020  178.6280  143.7880 C   0  0  0  0  0  0  0  0  0  0  0  0
  182.2770  178.9320  143.0520 C   0  0  0  0  0  0  0  0  0  0  0  0
  187.2680  177.1740  145.6170 C   0  0  1  0  0  3  0  0  0  0  0  0
  188.4970  177.8870  143.5840 C   0  0  0  0  0  2  0  0  0  0  0  0
  181.0350  179.4030  141.1300 C   0  0  2  0  0  3  0  0  0  0  0  0
  189.8110  177.5760  145.7060 C   0  0  0  0  0  2  0  0  0  0  0  0
  188.3100  178.2520  140.7260 C   0  0  0  0  0  3  0  0  0  0  0  0
  187.2260  178.5220  142.9940 C   0  0  1  0  0  3  0  0  0  0  0  0
  187.1350  178.3590  141.4890 C   0  0  0  0  0  0  0  0  0  0  0  0
  184.6330  178.6020  141.5840 C   0  0  0  0  0  0  0  0  0  0  0  0
  180.1620  179.5290  142.3910 C   0  0  0  0  0  2  0  0  0  0  0  0
  187.5390  178.3010  147.6320 C   0  0  0  0  0  2  0  0  0  0  0  0
  188.4660  177.9940  145.0960 C   0  0  2  0  0  3  0  0  0  0  0  0
  181.0910  179.2340  143.5400 C   0  0  0  0  0  3  0  0  0  0  0  0
  187.1090  177.1010  147.0280 O   0  0  0  0  0  0  0  0  0  0  0  0
  189.7150  177.2160  147.1250 N   0  0  0  0  0  0  0  0  0  0  0  0
  185.8520  178.3870  139.4210 C   0  0  0  0  0  3  0  0  0  0  0  0
  185.8920  178.4490  140.8230 C   0  0  0  0  0  0  0  0  0  0  0  0
  183.5190  178.8550  140.9480 N   0  0  0  0  0  0  0  0  0  0  0  0
  185.9870  177.5690  144.9440 C   0  0  0  0  0  3  0  0  0  0  0  0
  183.4680  178.5630  145.1450 F   0  0  0  0  0  0  0  0  0  0  0  0
  180.4710  178.3240  140.2250 C   0  0  0  0  0  1  0  0  0  0  0  0
  184.6460  178.4550  143.0800 C   0  0  0  0  0  0  0  0  0  0  0  0
  182.3150  178.9840  141.6550 N   0  0  0  0  0  0  0  0  0  0  0  0
  191.0770  177.1120  147.6210 C   0  0  0  0  0  2  0  0  0  0  0  0
  191.6320  175.7250  147.3440 C   0  0  2  0  0  3  0  0  0  0  0  0
  192.8060  175.4620  148.2630 C   0  0  0  0  0  1  0  0  0  0  0  0
  192.0560  175.6420  146.0170 O   0  0  0  0  0  1  0  0  0  0  0  0
  2 24  2  0  0  0  0
  3 11  1  0  0  0  0
  4  3  2  0  0  0  0
  4 21  1  0  0  0  0
  5 25  1  0  0  0  0
  6 18  2  0  0  0  0
  6  5  1  0  0  0  0
  7 24  1  6  0  0  0
  7 19  1  0  0  0  0
  9 26  1  6  0  0  0
  9 28  1  0  0  0  0
  9 15  1  0  0  0  0
 10 20  1  0  0  0  0
 11 13  2  0  0  0  0
 12  8  1  1  0  0  0
 12  2  1  0  0  0  0
 13 12  1  0  0  0  0
 14 27  1  0  0  0  0
 15 18  1  0  0  0  0
 16  1  1  0  0  0  0
 17  8  1  6  0  0  0
 17  7  1  0  0  0  0
 17 10  1  0  0  0  0
 19 16  1  0  0  0  0
 20 29  1  0  0  0  0
 20  1  1  0  0  0  0
 21 22  2  0  0  0  0
 22 13  1  0  0  0  0
 22 14  1  0  0  0  0
 23 14  2  0  0  0  0
 23 28  1  0  0  0  0
 27  2  1  0  0  0  0
 27  5  2  0  0  0  0
 28  6  1  0  0  0  0
 30 29  1  0  0  0  0
 30 31  1  1  0  0  0
 32 30  1  0  0  0  0
M  END
>  <MODEL>
3

>  <REMARK>
 VINA RESULT:     -10.2      3.348      5.644
  Name = 
  2 active torsions:
  status: ('A' for Active; 'I' for Inactive)
    1  A    between atoms: N_20  and  C_29
    2  A    between atoms: C_29  and  C_30
                            x       y       z     vdW  Elec       q    Type
                         _______ _______ _______ _____ _____    ______ ____

>  <TORSDO>
F 2

$$$$
=
 OpenBabel11122410503D

 32 37  0  0  1  0  0  0  0  0999 V2000
  189.0320  178.5830  136.8200 C   0  0  0  0  0  2  0  0  0  0  0  0
  187.9830  177.7330  141.8500 C   0  0  0  0  0  0  0  0  0  0  0  0
  183.4230  179.0040  143.3280 C   0  0  0  0  0  3  0  0  0  0  0  0
  183.7560  178.6900  144.6460 C   0  0  0  0  0  3  0  0  0  0  0  0
  189.7320  177.3370  143.5860 C   0  0  0  0  0  0  0  0  0  0  0  0
  190.0780  177.2570  145.0030 C   0  0  0  0  0  0  0  0  0  0  0  0
  188.2010  177.1400  139.4310 C   0  0  1  0  0  3  0  0  0  0  0  0
  186.1990  178.4210  140.1390 C   0  0  0  0  0  2  0  0  0  0  0  0
  189.6430  177.4330  147.2920 C   0  0  2  0  0  3  0  0  0  0  0  0
  186.7800  178.4010  137.6920 C   0  0  0  0  0  2  0  0  0  0  0  0
  184.3990  178.9540  142.3320 C   0  0  0  0  0  3  0  0  0  0  0  0
  186.7790  178.6190  141.5500 C   0  0  1  0  0  3  0  0  0  0  0  0
  185.7170  178.5720  142.6310 C   0  0  0  0  0  0  0  0  0  0  0  0
  187.4430  177.9110  144.3390 C   0  0  0  0  0  0  0  0  0  0  0  0
  191.1300  177.1290  147.0390 C   0  0  0  0  0  2  0  0  0  0  0  0
  189.8090  178.1020  138.0550 C   0  0  0  0  0  2  0  0  0  0  0  0
  187.3260  178.3730  139.1260 C   0  0  2  0  0  3  0  0  0  0  0  0
  191.2680  177.0770  145.5390 C   0  0  0  0  0  3  0  0  0  0  0  0
  189.2810  176.8880  138.5430 O   0  0  0  0  0  0  0  0  0  0  0  0
  187.7380  177.9020  136.6990 N   0  0  0  0  0  0  0  0  0  0  0  0
  185.0680  178.3350  144.9650 C   0  0  0  0  0  3  0  0  0  0  0  0
  186.0580  178.2790  143.9720 C   0  0  0  0  0  0  0  0  0  0  0  0
  187.7730  177.8130  145.6000 N   0  0  0  0  0  0  0  0  0  0  0  0
  188.6550  177.1190  140.8610 C   0  0  0  0  0  3  0  0  0  0  0  0
  190.6980  177.1410  142.6500 F   0  0  0  0  0  0  0  0  0  0  0  0
  189.0250  176.3120  148.1050 C   0  0  0  0  0  1  0  0  0  0  0  0
  188.4520  177.6420  143.2570 C   0  0  0  0  0  0  0  0  0  0  0  0
  189.0770  177.4450  145.9610 N   0  0  0  0  0  0  0  0  0  0  0  0
  187.1960  178.2390  135.3920 C   0  0  0  0  0  2  0  0  0  0  0  0
  186.8120  176.9750  134.6420 C   0  0  2  0  0  3  0  0  0  0  0  0
  185.3030  176.8600  134.5940 C   0  0  0  0  0  1  0  0  0  0  0  0
  187.3390  175.8600  135.2930 O   0  0  0  0  0  1  0  0  0  0  0  0
  1 16  1  0  0  0  0
  2 27  1  0  0  0  0
  3  4  1  0  0  0  0
  4 21  2  0  0  0  0
  5  6  1  0  0  0  0
  6 18  2  0  0  0  0
  6 28  1  0  0  0  0
  7 24  1  1  0  0  0
  9 26  1  1  0  0  0
 11 13  1  0  0  0  0
 11  3  2  0  0  0  0
 12  8  1  6  0  0  0
 12  2  1  0  0  0  0
 12 13  1  0  0  0  0
 13 22  2  0  0  0  0
 14 23  2  0  0  0  0
 15  9  1  0  0  0  0
 16 19  1  0  0  0  0
 17 10  1  6  0  0  0
 17  7  1  0  0  0  0
 17  8  1  0  0  0  0
 18 15  1  0  0  0  0
 19  7  1  0  0  0  0
 20  1  1  0  0  0  0
 20 10  1  0  0  0  0
 22 14  1  0  0  0  0
 22 21  1  0  0  0  0
 23 28  1  0  0  0  0
 24  2  2  0  0  0  0
 25  5  1  0  0  0  0
 27  5  2  0  0  0  0
 27 14  1  0  0  0  0
 28  9  1  0  0  0  0
 29 20  1  0  0  0  0
 30 31  1  1  0  0  0
 30 32  1  0  0  0  0
 30 29  1  0  0  0  0
M  END
>  <MODEL>
4

>  <REMARK>
 VINA RESULT:      -9.7      3.113      6.008
  Name = 
  2 active torsions:
  status: ('A' for Active; 'I' for Inactive)
    1  A    between atoms: N_20  and  C_29
    2  A    between atoms: C_29  and  C_30
                            x       y       z     vdW  Elec       q    Type
                         _______ _______ _______ _____ _____    ______ ____

>  <TORSDO>
F 2

$$$$
=
 OpenBabel11122410503D

 32 37  0  0  1  0  0  0  0  0999 V2000
  192.2220  175.5050  146.2220 C   0  0  0  0  0  2  0  0  0  0  0  0
  188.2530  177.7390  143.6950 C   0  0  0  0  0  0  0  0  0  0  0  0
  184.1810  178.5560  146.4050 C   0  0  0  0  0  3  0  0  0  0  0  0
  183.5080  179.0030  145.2690 C   0  0  0  0  0  3  0  0  0  0  0  0
  188.0700  177.8370  141.2080 C   0  0  0  0  0  0  0  0  0  0  0  0
  187.2370  178.0890  140.0340 C   0  0  0  0  0  0  0  0  0  0  0  0
  190.4010  177.6770  144.9750 C   0  0  1  0  0  3  0  0  0  0  0  0
  188.2840  177.3930  146.2380 C   0  0  0  0  0  2  0  0  0  0  0  0
  185.2330  178.5790  138.9380 C   0  0  2  0  0  3  0  0  0  0  0  0
  190.4240  176.6750  147.3470 C   0  0  0  0  0  2  0  0  0  0  0  0
  185.4700  178.0330  146.2910 C   0  0  0  0  0  3  0  0  0  0  0  0
  187.4740  177.3060  144.9330 C   0  0  1  0  0  3  0  0  0  0  0  0
  186.1140  177.9660  145.0440 C   0  0  0  0  0  0  0  0  0  0  0  0
  186.0430  178.3080  142.5520 C   0  0  0  0  0  0  0  0  0  0  0  0
  186.3480  178.2620  137.9260 C   0  0  0  0  0  2  0  0  0  0  0  0
  191.9160  175.9260  144.7760 C   0  0  0  0  0  2  0  0  0  0  0  0
  189.6670  176.8110  146.0190 C   0  0  2  0  0  3  0  0  0  0  0  0
  187.5560  177.9370  138.7650 C   0  0  0  0  0  3  0  0  0  0  0  0
  191.7450  177.3230  144.6820 O   0  0  0  0  0  0  0  0  0  0  0  0
  191.8780  176.5660  147.1760 N   0  0  0  0  0  0  0  0  0  0  0  0
  184.1220  178.9180  144.0190 C   0  0  0  0  0  3  0  0  0  0  0  0
  185.4190  178.3970  143.8900 C   0  0  0  0  0  0  0  0  0  0  0  0
  185.3250  178.5490  141.4860 N   0  0  0  0  0  0  0  0  0  0  0  0
  189.5940  177.8390  143.7200 C   0  0  0  0  0  3  0  0  0  0  0  0
  189.3660  177.4630  141.0410 F   0  0  0  0  0  0  0  0  0  0  0  0
  184.7340  179.9950  138.7200 C   0  0  0  0  0  1  0  0  0  0  0  0
  187.4990  177.9530  142.4330 C   0  0  0  0  0  0  0  0  0  0  0  0
  185.9090  178.4870  140.2130 N   0  0  0  0  0  0  0  0  0  0  0  0
  192.4210  176.1750  148.4670 C   0  0  0  0  0  2  0  0  0  0  0  0
  193.1030  177.3610  149.1290 C   0  0  2  0  0  3  0  0  0  0  0  0
  193.9310  176.8730  150.2990 C   0  0  0  0  0  1  0  0  0  0  0  0
  192.1440  178.2640  149.5860 O   0  0  0  0  0  1  0  0  0  0  0  0
  1 20  1  0  0  0  0
  2 24  2  0  0  0  0
  2 12  1  0  0  0  0
  4  3  2  0  0  0  0
  5 27  2  0  0  0  0
  6 28  1  0  0  0  0
  6  5  1  0  0  0  0
  7 24  1  6  0  0  0
  7 17  1  0  0  0  0
  9 26  1  6  0  0  0
  9 28  1  0  0  0  0
 11  3  1  0  0  0  0
 12 13  1  0  0  0  0
 12  8  1  1  0  0  0
 13 11  2  0  0  0  0
 14 22  1  0  0  0  0
 15 18  1  0  0  0  0
 15  9  1  0  0  0  0
 16  1  1  0  0  0  0
 17  8  1  1  0  0  0
 17 10  1  0  0  0  0
 18  6  2  0  0  0  0
 19 16  1  0  0  0  0
 19  7  1  0  0  0  0
 20 10  1  0  0  0  0
 20 29  1  0  0  0  0
 21  4  1  0  0  0  0
 22 21  2  0  0  0  0
 22 13  1  0  0  0  0
 23 14  2  0  0  0  0
 25  5  1  0  0  0  0
 27 14  1  0  0  0  0
 27  2  1  0  0  0  0
 28 23  1  0  0  0  0
 29 30  1  0  0  0  0
 30 32  1  0  0  0  0
 30 31  1  1  0  0  0
M  END
>  <MODEL>
5

>  <REMARK>
 VINA RESULT:      -9.6      4.185      6.120
  Name = 
  2 active torsions:
  status: ('A' for Active; 'I' for Inactive)
    1  A    between atoms: N_20  and  C_29
    2  A    between atoms: C_29  and  C_30
                            x       y       z     vdW  Elec       q    Type
                         _______ _______ _______ _____ _____    ______ ____

>  <TORSDO>
F 2

$$$$
=
 OpenBabel11122410503D

 32 37  0  0  1  0  0  0  0  0999 V2000
  191.0720  176.0500  136.7860 C   0  0  0  0  0  2  0  0  0  0  0  0
  188.5330  177.6330  141.0490 C   0  0  0  0  0  0  0  0  0  0  0  0
  190.8270  176.7520  145.3560 C   0  0  0  0  0  3  0  0  0  0  0  0
  189.7190  177.2330  146.0520 C   0  0  0  0  0  3  0  0  0  0  0  0
  186.1030  178.2020  141.0870 C   0  0  0  0  0  0  0  0  0  0  0  0
  184.9030  178.4670  141.8770 C   0  0  0  0  0  0  0  0  0  0  0  0
  190.0320  177.8740  139.0630 C   0  0  1  0  0  3  0  0  0  0  0  0
  190.9520  176.7790  141.0900 C   0  0  0  0  0  2  0  0  0  0  0  0
  183.6780  178.6280  143.8610 C   0  0  2  0  0  3  0  0  0  0  0  0
  192.1640  176.4360  138.9130 C   0  0  0  0  0  2  0  0  0  0  0  0
  190.7770  176.6250  143.9680 C   0  0  0  0  0  3  0  0  0  0  0  0
  189.5650  176.7590  141.7540 C   0  0  1  0  0  3  0  0  0  0  0  0
  189.6270  176.9960  143.2500 C   0  0  0  0  0  0  0  0  0  0  0  0
  187.2520  177.8250  143.2490 C   0  0  0  0  0  0  0  0  0  0  0  0
  182.7690  178.8380  142.6370 C   0  0  0  0  0  2  0  0  0  0  0  0
  189.7020  176.6700  137.1020 C   0  0  0  0  0  2  0  0  0  0  0  0
  190.8010  176.6440  139.5880 C   0  0  2  0  0  3  0  0  0  0  0  0
  183.6760  178.6750  141.4440 C   0  0  0  0  0  3  0  0  0  0  0  0
  189.8460  177.9590  137.6570 O   0  0  0  0  0  0  0  0  0  0  0  0
  192.1550  176.7550  137.4810 N   0  0  0  0  0  0  0  0  0  0  0  0
  188.5590  177.5800  145.3570 C   0  0  0  0  0  3  0  0  0  0  0  0
  188.4970  177.4600  143.9600 C   0  0  0  0  0  0  0  0  0  0  0  0
  186.1690  178.0860  143.9330 N   0  0  0  0  0  0  0  0  0  0  0  0
  188.7400  178.0770  139.7970 C   0  0  0  0  0  3  0  0  0  0  0  0
  186.0300  178.2290  139.7300 F   0  0  0  0  0  0  0  0  0  0  0  0
  183.6650  179.8740  144.7250 C   0  0  0  0  0  1  0  0  0  0  0  0
  187.2490  177.9020  141.7480 C   0  0  0  0  0  0  0  0  0  0  0  0
  184.9870  178.4510  143.2730 N   0  0  0  0  0  0  0  0  0  0  0  0
  193.4090  176.2590  136.9360 C   0  0  0  0  0  2  0  0  0  0  0  0
  193.6380  174.8220  137.3740 C   0  0  2  0  0  3  0  0  0  0  0  0
  195.0070  174.7050  138.0100 C   0  0  0  0  0  1  0  0  0  0  0  0
  193.5680  173.9740  136.2690 O   0  0  0  0  0  1  0  0  0  0  0  0
  1 16  1  0  0  0  0
  1 20  1  0  0  0  0
  2 27  1  0  0  0  0
  2 12  1  0  0  0  0
  3  4  1  0  0  0  0
  5 27  2  0  0  0  0
  5  6  1  0  0  0  0
  6 28  1  0  0  0  0
  7 17  1  0  0  0  0
  7 24  1  1  0  0  0
  9 26  1  1  0  0  0
 11  3  2  0  0  0  0
 12  8  1  6  0  0  0
 12 13  1  0  0  0  0
 13 22  2  0  0  0  0
 13 11  1  0  0  0  0
 14 23  2  0  0  0  0
 14 22  1  0  0  0  0
 15  9  1  0  0  0  0
 16 19  1  0  0  0  0
 17 10  1  6  0  0  0
 17  8  1  0  0  0  0
 18  6  2  0  0  0  0
 18 15  1  0  0  0  0
 19  7  1  0  0  0  0
 20 10  1  0  0  0  0
 21  4  2  0  0  0  0
 22 21  1  0  0  0  0
 24  2  2  0  0  0  0
 25  5  1  0  0  0  0
 27 14  1  0  0  0  0
 28  9  1  0  0  0  0
 28 23  1  0  0  0  0
 29 30  1  0  0  0  0
 29 20  1  0  0  0  0
 30 31  1  6  0  0  0
 32 30  1  0  0  0  0
M  END
>  <MODEL>
6

>  <REMARK>
 VINA RESULT:      -9.4      1.911      3.110
  Name = 
  2 active torsions:
  status: ('A' for Active; 'I' for Inactive)
    1  A    between atoms: N_20  and  C_29
    2  A    between atoms: C_29  and  C_30
                            x       y       z     vdW  Elec       q    Type
                         _______ _______ _______ _____ _____    ______ ____

>  <TORSDO>
F 2

$$$$
=
 OpenBabel11122410503D

 32 37  0  0  1  0  0  0  0  0999 V2000
  190.0920  178.0440  137.6470 C   0  0  0  0  0  2  0  0  0  0  0  0
  187.9440  177.7250  142.3810 C   0  0  0  0  0  0  0  0  0  0  0  0
  183.1890  179.1030  142.6690 C   0  0  0  0  0  3  0  0  0  0  0  0
  183.2180  178.9360  144.0530 C   0  0  0  0  0  3  0  0  0  0  0  0
  189.2610  177.5340  144.4930 C   0  0  0  0  0  0  0  0  0  0  0  0
  189.2830  177.6090  145.9520 C   0  0  0  0  0  0  0  0  0  0  0  0
  188.6840  176.8800  140.1480 C   0  0  1  0  0  3  0  0  0  0  0  0
  186.5930  178.2100  140.2550 C   0  0  0  0  0  2  0  0  0  0  0  0
  188.3550  178.0250  148.0560 C   0  0  2  0  0  3  0  0  0  0  0  0
  187.7000  177.9340  138.0140 C   0  0  0  0  0  2  0  0  0  0  0  0
  184.3600  178.9570  141.9250 C   0  0  0  0  0  3  0  0  0  0  0  0
  186.8490  178.5640  141.7300 C   0  0  1  0  0  3  0  0  0  0  0  0
  185.5740  178.6220  142.5480 C   0  0  0  0  0  0  0  0  0  0  0  0
  186.8700  178.1630  144.6550 C   0  0  0  0  0  0  0  0  0  0  0  0
  189.8570  177.7090  148.1720 C   0  0  0  0  0  2  0  0  0  0  0  0
  190.5700  177.7050  139.0680 C   0  0  0  0  0  2  0  0  0  0  0  0
  187.9150  178.0650  139.5270 C   0  0  2  0  0  3  0  0  0  0  0  0
  190.3220  177.4990  146.7540 C   0  0  0  0  0  3  0  0  0  0  0  0
  189.9300  176.5450  139.5520 O   0  0  0  0  0  0  0  0  0  0  0  0
  188.8480  177.3420  137.3160 N   0  0  0  0  0  0  0  0  0  0  0  0
  184.4210  178.6300  144.6910 C   0  0  0  0  0  3  0  0  0  0  0  0
  185.6060  178.4770  143.9530 C   0  0  0  0  0  0  0  0  0  0  0  0
  186.9110  178.2030  145.9610 N   0  0  0  0  0  0  0  0  0  0  0  0
  188.8100  177.0160  141.6370 C   0  0  0  0  0  3  0  0  0  0  0  0
  190.4060  177.2490  143.8210 F   0  0  0  0  0  0  0  0  0  0  0  0
  187.5560  176.9910  148.8260 C   0  0  0  0  0  1  0  0  0  0  0  0
  188.0890  177.7910  143.8590 C   0  0  0  0  0  0  0  0  0  0  0  0
  188.0980  177.8890  146.6390 N   0  0  0  0  0  0  0  0  0  0  0  0
  188.6130  177.5320  135.8930 C   0  0  0  0  0  2  0  0  0  0  0  0
  187.1710  177.2000  135.5510 C   0  0  2  0  0  3  0  0  0  0  0  0
  187.1130  175.8360  134.8960 C   0  0  0  0  0  1  0  0  0  0  0  0
  186.6610  178.1550  134.6720 O   0  0  0  0  0  1  0  0  0  0  0  0
  1 16  1  0  0  0  0
  2 27  1  0  0  0  0
  3  4  1  0  0  0  0
  4 21  2  0  0  0  0
  5  6  1  0  0  0  0
  6 28  1  0  0  0  0
  6 18  2  0  0  0  0
  7 24  1  1  0  0  0
  9 15  1  0  0  0  0
  9 26  1  1  0  0  0
 11 13  1  0  0  0  0
 11  3  2  0  0  0  0
 12  8  1  6  0  0  0
 12  2  1  0  0  0  0
 12 13  1  0  0  0  0
 13 22  2  0  0  0  0
 14 23  2  0  0  0  0
 16 19  1  0  0  0  0
 17 10  1  6  0  0  0
 17  7  1  0  0  0  0
 17  8  1  0  0  0  0
 18 15  1  0  0  0  0
 19  7  1  0  0  0  0
 20  1  1  0  0  0  0
 20 10  1  0  0  0  0
 22 14  1  0  0  0  0
 22 21  1  0  0  0  0
 23 28  1  0  0  0  0
 24  2  2  0  0  0  0
 25  5  1  0  0  0  0
 27  5  2  0  0  0  0
 27 14  1  0  0  0  0
 28  9  1  0  0  0  0
 29 20  1  0  0  0  0
 30 31  1  6  0  0  0
 30 29  1  0  0  0  0
 32 30  1  0  0  0  0
M  END
>  <MODEL>
7

>  <REMARK>
 VINA RESULT:      -9.4      2.777      5.670
  Name = 
  2 active torsions:
  status: ('A' for Active; 'I' for Inactive)
    1  A    between atoms: N_20  and  C_29
    2  A    between atoms: C_29  and  C_30
                            x       y       z     vdW  Elec       q    Type
                         _______ _______ _______ _____ _____    ______ ____

>  <TORSDO>
F 2

$$$$
=
 OpenBabel11122410503D

 32 37  0  0  1  0  0  0  0  0999 V2000
  190.6060  176.7400  141.4690 C   0  0  0  0  0  2  0  0  0  0  0  0
  185.6780  178.2990  140.8300 C   0  0  0  0  0  0  0  0  0  0  0  0
  183.0720  178.9190  145.0040 C   0  0  0  0  0  3  0  0  0  0  0  0
  181.9260  179.1860  144.2550 C   0  0  0  0  0  3  0  0  0  0  0  0
  184.4440  178.1520  138.6650 C   0  0  0  0  0  0  0  0  0  0  0  0
  183.1660  178.2060  137.9590 C   0  0  0  0  0  0  0  0  0  0  0  0
  188.1510  178.5830  141.0550 C   0  0  1  0  0  3  0  0  0  0  0  0
  186.8320  178.1900  143.1190 C   0  0  0  0  0  2  0  0  0  0  0  0
  180.8400  178.3770  137.8210 C   0  0  2  0  0  3  0  0  0  0  0  0
  189.3150  177.8080  143.2180 C   0  0  0  0  0  2  0  0  0  0  0  0
  184.2480  178.5280  144.3620 C   0  0  0  0  0  3  0  0  0  0  0  0
  185.5640  177.9000  142.2970 C   0  0  1  0  0  3  0  0  0  0  0  0
  184.3040  178.4180  142.9620 C   0  0  0  0  0  0  0  0  0  0  0  0
  183.1370  178.5230  140.7360 C   0  0  0  0  0  0  0  0  0  0  0  0
  181.4510  178.0910  136.4380 C   0  0  0  0  0  2  0  0  0  0  0  0
  189.6610  176.9930  140.2830 C   0  0  0  0  0  2  0  0  0  0  0  0
  188.0560  177.7410  142.3450 C   0  0  2  0  0  3  0  0  0  0  0  0
  182.9340  177.9740  136.6830 C   0  0  0  0  0  3  0  0  0  0  0  0
  189.2790  178.3490  140.2230 O   0  0  0  0  0  0  0  0  0  0  0  0
  190.5580  177.8400  142.4390 N   0  0  0  0  0  0  0  0  0  0  0  0
  181.9570  179.0550  142.8660 C   0  0  0  0  0  3  0  0  0  0  0  0
  183.1340  178.6650  142.2080 C   0  0  0  0  0  0  0  0  0  0  0  0
  182.0080  178.5880  140.0780 N   0  0  0  0  0  0  0  0  0  0  0  0
  186.8740  178.5430  140.2690 C   0  0  0  0  0  3  0  0  0  0  0  0
  185.5840  177.9040  137.9670 F   0  0  0  0  0  0  0  0  0  0  0  0
  180.1090  179.7060  137.7900 C   0  0  0  0  0  1  0  0  0  0  0  0
  184.4370  178.3160  140.0110 C   0  0  0  0  0  0  0  0  0  0  0  0
  181.9990  178.4740  138.6800 N   0  0  0  0  0  0  0  0  0  0  0  0
  191.6460  177.6280  143.3810 C   0  0  0  0  0  2  0  0  0  0  0  0
  191.2860  176.5190  144.3560 C   0  0  2  0  0  3  0  0  0  0  0  0
  191.6130  176.9660  145.7650 C   0  0  0  0  0  1  0  0  0  0  0  0
  192.0170  175.3700  144.0550 O   0  0  0  0  0  1  0  0  0  0  0  0
  1 20  1  0  0  0  0
  2 12  1  0  0  0  0
  4  3  2  0  0  0  0
  5 27  2  0  0  0  0
  6  5  1  0  0  0  0
  6 28  1  0  0  0  0
  7 24  1  6  0  0  0
  7 17  1  0  0  0  0
  9 26  1  6  0  0  0
  9 28  1  0  0  0  0
 11  3  1  0  0  0  0
 12 13  1  0  0  0  0
 12  8  1  1  0  0  0
 13 11  2  0  0  0  0
 14 22  1  0  0  0  0
 15 18  1  0  0  0  0
 15  9  1  0  0  0  0
 16  1  1  0  0  0  0
 17  8  1  1  0  0  0
 17 10  1  0  0  0  0
 18  6  2  0  0  0  0
 19 16  1  0  0  0  0
 19  7  1  0  0  0  0
 20 10  1  0  0  0  0
 20 29  1  0  0  0  0
 21  4  1  0  0  0  0
 22 21  2  0  0  0  0
 22 13  1  0  0  0  0
 23 14  2  0  0  0  0
 24  2  2  0  0  0  0
 25  5  1  0  0  0  0
 27 14  1  0  0  0  0
 27  2  1  0  0  0  0
 28 23  1  0  0  0  0
 29 30  1  0  0  0  0
 30 31  1  1  0  0  0
 32 30  1  0  0  0  0
M  END
>  <MODEL>
8

>  <REMARK>
 VINA RESULT:      -9.2      2.618      3.804
  Name = 
  2 active torsions:
  status: ('A' for Active; 'I' for Inactive)
    1  A    between atoms: N_20  and  C_29
    2  A    between atoms: C_29  and  C_30
                            x       y       z     vdW  Elec       q    Type
                         _______ _______ _______ _____ _____    ______ ____

>  <TORSDO>
F 2

$$$$
=
 OpenBabel11122410503D

 32 37  0  0  1  0  0  0  0  0999 V2000
  188.0710  178.2760  147.6090 C   0  0  0  0  0  2  0  0  0  0  0  0
  186.4980  178.0420  142.6490 C   0  0  0  0  0  0  0  0  0  0  0  0
  190.1180  177.8770  139.2640 C   0  0  0  0  0  3  0  0  0  0  0  0
  189.1730  177.9460  138.2410 C   0  0  0  0  0  3  0  0  0  0  0  0
  184.1870  178.6080  141.8970 C   0  0  0  0  0  0  0  0  0  0  0  0
  183.2820  178.9140  140.7910 C   0  0  0  0  0  0  0  0  0  0  0  0
  187.0920  177.1340  144.9020 C   0  0  1  0  0  3  0  0  0  0  0  0
  188.9430  177.7360  143.3640 C   0  0  0  0  0  2  0  0  0  0  0  0
  182.7550  179.3400  138.5550 C   0  0  2  0  0  3  0  0  0  0  0  0
  189.4790  177.4760  145.8080 C   0  0  0  0  0  2  0  0  0  0  0  0
  189.7150  177.9930  140.5940 C   0  0  0  0  0  3  0  0  0  0  0  0
  187.9600  178.3790  142.3720 C   0  0  1  0  0  3  0  0  0  0  0  0
  188.3600  178.1600  140.9260 C   0  0  0  0  0  0  0  0  0  0  0  0
  185.9740  178.4680  140.1880 C   0  0  0  0  0  0  0  0  0  0  0  0
  181.5220  179.5370  139.4560 C   0  0  0  0  0  2  0  0  0  0  0  0
  186.7290  178.3320  146.8600 C   0  0  0  0  0  2  0  0  0  0  0  0
  188.4240  177.9030  144.7790 C   0  0  2  0  0  3  0  0  0  0  0  0
  182.0140  179.2640  140.8540 C   0  0  0  0  0  3  0  0  0  0  0  0
  186.4780  177.1200  146.1830 O   0  0  0  0  0  0  0  0  0  0  0  0
  188.9110  177.1740  147.1270 N   0  0  0  0  0  0  0  0  0  0  0  0
  187.8260  178.1390  138.5510 C   0  0  0  0  0  3  0  0  0  0  0  0
  187.4070  178.2540  139.8860 C   0  0  0  0  0  0  0  0  0  0  0  0
  185.1400  178.7240  139.2140 N   0  0  0  0  0  0  0  0  0  0  0  0
  186.1170  177.5340  143.8340 C   0  0  0  0  0  3  0  0  0  0  0  0
  183.7090  178.5980  143.1690 F   0  0  0  0  0  0  0  0  0  0  0  0
  182.4790  178.2410  137.5470 C   0  0  0  0  0  1  0  0  0  0  0  0
  185.4930  178.3800  141.6080 C   0  0  0  0  0  0  0  0  0  0  0  0
  183.7760  178.9100  139.4840 N   0  0  0  0  0  0  0  0  0  0  0  0
  190.0320  177.0560  148.0450 C   0  0  0  0  0  2  0  0  0  0  0  0
  191.3040  176.7340  147.2800 C   0  0  2  0  0  3  0  0  0  0  0  0
  191.3640  175.2460  147.0090 C   0  0  0  0  0  1  0  0  0  0  0  0
  192.4170  177.1110  148.0330 O   0  0  0  0  0  1  0  0  0  0  0  0
  2 24  2  0  0  0  0
  3 11  1  0  0  0  0
  4 21  1  0  0  0  0
  4  3  2  0  0  0  0
  5 25  1  0  0  0  0
  6 18  2  0  0  0  0
  6  5  1  0  0  0  0
  7 24  1  6  0  0  0
  7 19  1  0  0  0  0
  9 26  1  6  0  0  0
  9 15  1  0  0  0  0
  9 28  1  0  0  0  0
 10 20  1  0  0  0  0
 11 13  2  0  0  0  0
 12  2  1  0  0  0  0
 12  8  1  1  0  0  0
 13 12  1  0  0  0  0
 14 27  1  0  0  0  0
 15 18  1  0  0  0  0
 16  1  1  0  0  0  0
 17  8  1  6  0  0  0
 17  7  1  0  0  0  0
 17 10  1  0  0  0  0
 19 16  1  0  0  0  0
 20  1  1  0  0  0  0
 20 29  1  0  0  0  0
 21 22  2  0  0  0  0
 22 14  1  0  0  0  0
 22 13  1  0  0  0  0
 23 28  1  0  0  0  0
 23 14  2  0  0  0  0
 27  5  2  0  0  0  0
 27  2  1  0  0  0  0
 28  6  1  0  0  0  0
 30 31  1  1  0  0  0
 30 32  1  0  0  0  0
 30 29  1  0  0  0  0
M  END
>  <MODEL>
9

>  <REMARK>
 VINA RESULT:      -9.0      3.353      5.965
  Name = 
  2 active torsions:
  status: ('A' for Active; 'I' for Inactive)
    1  A    between atoms: N_20  and  C_29
    2  A    between atoms: C_29  and  C_30
                            x       y       z     vdW  Elec       q    Type
                         _______ _______ _______ _____ _____    ______ ____

>  <TORSDO>
F 2

$$$$
