=
 OpenBabel11122410483D

 32 37  0  0  1  0  0  0  0  0999 V2000
  186.6400  176.7480  137.8910 C   0  0  1  0  0  3  0  0  0  0  0  0
  185.3510  173.0750  136.1480 C   0  0  0  0  0  2  0  0  0  0  0  0
  184.1990  173.9000  135.5860 C   0  0  0  0  0  2  0  0  0  0  0  0
  184.4090  177.9360  138.3530 C   0  0  0  0  0  0  0  0  0  0  0  0
  183.1400  178.2780  137.9090 C   0  0  0  0  0  0  0  0  0  0  0  0
  188.8290  178.1160  138.0790 C   0  0  2  0  0  3  0  0  0  0  0  0
  188.6830  175.6890  137.2500 C   0  0  0  0  0  2  0  0  0  0  0  0
  181.2830  178.3460  136.5600 C   0  0  1  0  0  3  0  0  0  0  0  0
  186.2780  174.0020  136.9140 C   0  0  0  0  0  2  0  0  0  0  0  0
  187.4220  176.2300  136.7490 N   0  0  1  0  0  0  0  0  0  0  0  0
  186.6940  175.1840  136.0210 C   0  0  2  0  0  3  0  0  0  0  0  0
  184.6770  176.7140  136.2510 C   0  0  0  0  0  0  0  0  0  0  0  0
  181.0930  179.0420  137.8410 N   0  0  0  0  0  0  0  0  0  0  0  0
  189.5870  176.8080  137.7820 C   0  0  2  0  0  3  0  0  0  0  0  0
  182.1280  178.9970  138.5870 N   0  0  0  0  0  0  0  0  0  0  0  0
  184.6770  174.8530  134.6600 O   0  0  0  0  0  0  0  0  0  0  0  0
  185.4720  175.8160  135.3320 C   0  0  2  0  0  3  0  0  0  0  0  0
  183.4150  177.0870  135.8780 N   0  0  0  0  0  0  0  0  0  0  0  0
  187.4120  177.8740  138.6140 C   0  0  0  0  0  2  0  0  0  0  0  0
  184.8260  178.3170  139.6240 O   0  0  0  0  0  1  0  0  0  0  0  0
  181.1800  179.3420  135.4190 C   0  0  0  0  0  1  0  0  0  0  0  0
  185.2380  177.1820  137.4810 C   0  0  0  0  0  0  0  0  0  0  0  0
  182.6840  177.8760  136.6990 C   0  0  0  0  0  0  0  0  0  0  0  0
  191.7710  176.7530  138.9690 C   0  0  0  0  0  2  0  0  0  0  0  0
  190.3150  176.3290  139.0260 C   0  0  1  0  0  3  0  0  0  0  0  0
  190.7910  177.5310  139.8210 C   0  0  1  0  0  3  0  0  0  0  0  0
  190.9490  177.1280  141.2730 C   0  0  0  0  0  2  0  0  0  0  0  0
  189.6420  177.2490  141.9780 C   0  0  0  0  0  0  0  0  0  0  0  0
  189.2040  176.2120  142.8480 N   0  0  0  0  0  1  0  0  0  0  0  0
  188.9100  178.2530  141.7780 O   0  0  0  0  0  0  0  0  0  0  0  0
  187.5980  179.7500  136.8430 O   0  0  0  0  0  1  0  0  0  0  0  0
  188.7770  179.0030  136.8440 C   0  0  0  0  0  2  0  0  0  0  0  0
  1 19  1  6  0  0  0
  2  9  1  0  0  0  0
  3  2  1  0  0  0  0
  4 20  1  0  0  0  0
  5  4  1  0  0  0  0
  5 15  1  0  0  0  0
  6 32  1  6  0  0  0
  6 19  1  0  0  0  0
  8 21  1  6  0  0  0
  8 23  1  0  0  0  0
  8 13  1  0  0  0  0
 10  7  1  1  0  0  0
 10  1  1  0  0  0  0
 11 10  1  0  0  0  0
 11  9  1  1  0  0  0
 12 22  1  0  0  0  0
 13 15  2  0  0  0  0
 14  7  1  1  0  0  0
 14  6  1  0  0  0  0
 14 25  1  0  0  0  0
 16  3  1  0  0  0  0
 17 16  1  1  0  0  0
 17 11  1  0  0  0  0
 17 12  1  0  0  0  0
 18 12  2  0  0  0  0
 18 23  1  0  0  0  0
 22  1  1  0  0  0  0
 22  4  2  0  0  0  0
 23  5  2  0  0  0  0
 24 26  1  0  0  0  0
 25 24  1  6  0  0  0
 25 26  1  0  0  0  0
 26 27  1  1  0  0  0
 27 28  1  0  0  0  0
 28 29  1  0  0  0  0
 30 28  2  0  0  0  0
 31 32  1  0  0  0  0
M  END
>  <MODEL>
1

>  <REMARK>
 VINA RESULT:      -5.8      0.000      0.000
  Name = 
  4 active torsions:
  status: ('A' for Active; 'I' for Inactive)
    1  A    between atoms: C_7  and  C_19
    2  A    between atoms: C_10  and  C_17
    3  A    between atoms: C_20  and  C_29
    4  A    between atoms: C_29  and  C_30
                            x       y       z     vdW  Elec       q    Type
                         _______ _______ _______ _____ _____    ______ ____

>  <TORSDO>
F 4

$$$$
=
 OpenBabel11122410483D

 32 37  0  0  1  0  0  0  0  0999 V2000
  186.6520  176.1080  137.1920 C   0  0  1  0  0  3  0  0  0  0  0  0
  184.2440  172.5940  137.4080 C   0  0  0  0  0  2  0  0  0  0  0  0
  183.0790  173.5360  137.1290 C   0  0  0  0  0  2  0  0  0  0  0  0
  185.0620  177.9060  138.1080 C   0  0  0  0  0  0  0  0  0  0  0  0
  183.7860  178.4530  138.1320 C   0  0  0  0  0  0  0  0  0  0  0  0
  188.8330  176.8670  136.0250 C   0  0  2  0  0  3  0  0  0  0  0  0
  188.0110  174.4370  136.1580 C   0  0  0  0  0  2  0  0  0  0  0  0
  181.5420  178.6860  137.7080 C   0  0  1  0  0  3  0  0  0  0  0  0
  185.5310  173.4010  137.3890 C   0  0  0  0  0  2  0  0  0  0  0  0
  186.7420  175.1560  136.0660 N   0  0  1  0  0  0  0  0  0  0  0  0
  185.6330  174.1950  136.0750 C   0  0  2  0  0  3  0  0  0  0  0  0
  184.1660  176.2050  136.5950 C   0  0  0  0  0  0  0  0  0  0  0  0
  182.0580  179.6840  138.6570 N   0  0  0  0  0  0  0  0  0  0  0  0
  189.1930  175.3770  135.8870 C   0  0  2  0  0  3  0  0  0  0  0  0
  183.3060  179.5460  138.8900 N   0  0  0  0  0  0  0  0  0  0  0  0
  183.1900  174.0920  135.8350 O   0  0  0  0  0  0  0  0  0  0  0  0
  184.3230  174.9450  135.7770 C   0  0  2  0  0  3  0  0  0  0  0  0
  182.9340  176.7950  136.6670 N   0  0  0  0  0  0  0  0  0  0  0  0
  187.8080  177.1310  137.1350 C   0  0  0  0  0  2  0  0  0  0  0  0
  186.0650  178.4490  138.9040 O   0  0  0  0  0  1  0  0  0  0  0  0
  181.0500  179.3830  136.4520 C   0  0  0  0  0  1  0  0  0  0  0  0
  185.2880  176.7830  137.2700 C   0  0  0  0  0  0  0  0  0  0  0  0
  182.7750  177.9150  137.4110 C   0  0  0  0  0  0  0  0  0  0  0  0
  191.5710  174.6570  135.9930 C   0  0  0  0  0  2  0  0  0  0  0  0
  190.3470  175.0260  136.8100 C   0  0  1  0  0  3  0  0  0  0  0  0
  191.4660  176.0320  136.6160 C   0  0  1  0  0  3  0  0  0  0  0  0
  192.3050  176.0830  137.8770 C   0  0  0  0  0  2  0  0  0  0  0  0
  193.7510  176.0360  137.5260 C   0  0  0  0  0  0  0  0  0  0  0  0
  194.6200  175.1390  138.2070 N   0  0  0  0  0  1  0  0  0  0  0  0
  194.2110  176.8130  136.6490 O   0  0  0  0  0  0  0  0  0  0  0  0
  187.3070  178.3500  134.9360 O   0  0  0  0  0  1  0  0  0  0  0  0
  188.3290  177.4280  134.7040 C   0  0  0  0  0  2  0  0  0  0  0  0
  1 19  1  6  0  0  0
  1 22  1  0  0  0  0
  3  2  1  0  0  0  0
  4  5  1  0  0  0  0
  4 20  1  0  0  0  0
  5 15  1  0  0  0  0
  6 32  1  6  0  0  0
  6 19  1  0  0  0  0
  8 21  1  6  0  0  0
  8 13  1  0  0  0  0
  9  2  1  0  0  0  0
 10 11  1  0  0  0  0
 10  7  1  1  0  0  0
 10  1  1  0  0  0  0
 11  9  1  1  0  0  0
 12 18  2  0  0  0  0
 12 22  1  0  0  0  0
 13 15  2  0  0  0  0
 14  6  1  0  0  0  0
 14  7  1  1  0  0  0
 14 25  1  0  0  0  0
 16  3  1  0  0  0  0
 17 16  1  1  0  0  0
 17 11  1  0  0  0  0
 17 12  1  0  0  0  0
 18 23  1  0  0  0  0
 22  4  2  0  0  0  0
 23  8  1  0  0  0  0
 23  5  2  0  0  0  0
 24 26  1  0  0  0  0
 25 24  1  6  0  0  0
 26 25  1  0  0  0  0
 26 27  1  1  0  0  0
 28 27  1  0  0  0  0
 28 29  1  0  0  0  0
 30 28  2  0  0  0  0
 32 31  1  0  0  0  0
M  END
>  <MODEL>
2

>  <REMARK>
 VINA RESULT:      -5.5      2.390      2.828
  Name = 
  4 active torsions:
  status: ('A' for Active; 'I' for Inactive)
    1  A    between atoms: C_7  and  C_19
    2  A    between atoms: C_10  and  C_17
    3  A    between atoms: C_20  and  C_29
    4  A    between atoms: C_29  and  C_30
                            x       y       z     vdW  Elec       q    Type
                         _______ _______ _______ _____ _____    ______ ____

>  <TORSDO>
F 4

$$$$
=
 OpenBabel11122410483D

 32 37  0  0  1  0  0  0  0  0999 V2000
  186.2860  175.9580  137.1890 C   0  0  1  0  0  3  0  0  0  0  0  0
  184.1890  172.2460  137.3090 C   0  0  0  0  0  2  0  0  0  0  0  0
  182.9920  173.0590  136.8300 C   0  0  0  0  0  2  0  0  0  0  0  0
  184.4380  177.6390  137.7900 C   0  0  0  0  0  0  0  0  0  0  0  0
  183.1270  178.0630  137.6210 C   0  0  0  0  0  0  0  0  0  0  0  0
  188.5260  176.8660  136.2620 C   0  0  2  0  0  3  0  0  0  0  0  0
  187.9100  174.3770  136.4340 C   0  0  0  0  0  2  0  0  0  0  0  0
  180.9460  178.0620  136.9060 C   0  0  1  0  0  3  0  0  0  0  0  0
  185.3920  173.1690  137.4030 C   0  0  0  0  0  2  0  0  0  0  0  0
  186.6060  174.9680  136.1410 N   0  0  1  0  0  0  0  0  0  0  0  0
  185.5940  173.9070  136.0670 C   0  0  2  0  0  3  0  0  0  0  0  0
  183.9000  175.7910  136.2800 C   0  0  0  0  0  0  0  0  0  0  0  0
  181.2430  179.1480  137.8510 N   0  0  0  0  0  0  0  0  0  0  0  0
  189.0300  175.4110  136.2580 C   0  0  2  0  0  3  0  0  0  0  0  0
  182.4580  179.1400  138.2470 N   0  0  0  0  0  0  0  0  0  0  0  0
  183.2220  173.5610  135.5300 O   0  0  0  0  0  0  0  0  0  0  0  0
  184.2730  174.5140  135.5640 C   0  0  2  0  0  3  0  0  0  0  0  0
  182.6220  176.2650  136.1620 N   0  0  0  0  0  0  0  0  0  0  0  0
  187.3450  177.0830  137.2170 C   0  0  0  0  0  2  0  0  0  0  0  0
  185.2770  178.3120  138.6720 O   0  0  0  0  0  1  0  0  0  0  0  0
  180.5630  178.6490  135.5600 C   0  0  0  0  0  1  0  0  0  0  0  0
  184.8700  176.5040  137.0550 C   0  0  0  0  0  0  0  0  0  0  0  0
  182.2690  177.3980  136.8130 C   0  0  0  0  0  0  0  0  0  0  0  0
  191.4600  175.1370  136.7120 C   0  0  0  0  0  2  0  0  0  0  0  0
  190.0810  175.2150  137.3380 C   0  0  1  0  0  3  0  0  0  0  0  0
  190.9990  176.4220  137.3660 C   0  0  1  0  0  3  0  0  0  0  0  0
  191.6160  176.5380  138.7460 C   0  0  0  0  0  2  0  0  0  0  0  0
  190.6120  177.0760  139.7050 C   0  0  0  0  0  0  0  0  0  0  0  0
  190.3700  176.4020  140.9350 N   0  0  0  0  0  1  0  0  0  0  0  0
  189.9530  178.1080  139.4150 O   0  0  0  0  0  0  0  0  0  0  0  0
  187.1190  178.2510  134.9150 O   0  0  0  0  0  1  0  0  0  0  0  0
  188.1510  177.3120  134.8570 C   0  0  0  0  0  2  0  0  0  0  0  0
  1 19  1  6  0  0  0
  2  9  1  0  0  0  0
  3  2  1  0  0  0  0
  4 20  1  0  0  0  0
  5  4  1  0  0  0  0
  5 15  1  0  0  0  0
  6 32  1  6  0  0  0
  6 19  1  0  0  0  0
  8 21  1  6  0  0  0
  8 13  1  0  0  0  0
 10  7  1  1  0  0  0
 10  1  1  0  0  0  0
 11 10  1  0  0  0  0
 11  9  1  1  0  0  0
 12 22  1  0  0  0  0
 13 15  2  0  0  0  0
 14  6  1  0  0  0  0
 14  7  1  1  0  0  0
 14 25  1  0  0  0  0
 16  3  1  0  0  0  0
 17 16  1  1  0  0  0
 17 11  1  0  0  0  0
 17 12  1  0  0  0  0
 18 12  2  0  0  0  0
 18 23  1  0  0  0  0
 22  1  1  0  0  0  0
 22  4  2  0  0  0  0
 23  8  1  0  0  0  0
 23  5  2  0  0  0  0
 24 26  1  0  0  0  0
 25 24  1  6  0  0  0
 25 26  1  0  0  0  0
 26 27  1  1  0  0  0
 27 28  1  0  0  0  0
 28 29  1  0  0  0  0
 30 28  2  0  0  0  0
 32 31  1  0  0  0  0
M  END
>  <MODEL>
3

>  <REMARK>
 VINA RESULT:      -5.5      1.476      1.796
  Name = 
  4 active torsions:
  status: ('A' for Active; 'I' for Inactive)
    1  A    between atoms: C_7  and  C_19
    2  A    between atoms: C_10  and  C_17
    3  A    between atoms: C_20  and  C_29
    4  A    between atoms: C_29  and  C_30
                            x       y       z     vdW  Elec       q    Type
                         _______ _______ _______ _____ _____    ______ ____

>  <TORSDO>
F 4

$$$$
=
 OpenBabel11122410483D

 32 37  0  0  1  0  0  0  0  0999 V2000
  188.4050  176.4390  138.3430 C   0  0  1  0  0  3  0  0  0  0  0  0
  190.0960  177.0500  142.2110 C   0  0  0  0  0  2  0  0  0  0  0  0
  191.4340  176.8390  141.5140 C   0  0  0  0  0  2  0  0  0  0  0  0
  190.0540  174.7710  137.2940 C   0  0  0  0  0  0  0  0  0  0  0  0
  191.3710  174.3910  137.0770 C   0  0  0  0  0  0  0  0  0  0  0  0
  186.6670  177.5880  136.8090 C   0  0  2  0  0  3  0  0  0  0  0  0
  187.0260  178.1440  139.2910 C   0  0  0  0  0  2  0  0  0  0  0  0
  193.6620  174.3950  137.2380 C   0  0  1  0  0  3  0  0  0  0  0  0
  188.9940  176.9850  141.1680 C   0  0  0  0  0  2  0  0  0  0  0  0
  188.3890  177.8160  138.8790 N   0  0  1  0  0  0  0  0  0  0  0  0
  189.2960  177.9670  140.0230 C   0  0  2  0  0  3  0  0  0  0  0  0
  190.9420  176.6160  138.6340 C   0  0  0  0  0  0  0  0  0  0  0  0
  193.1380  173.2540  136.4720 N   0  0  0  0  0  0  0  0  0  0  0  0
  186.0980  178.2560  138.0740 C   0  0  2  0  0  3  0  0  0  0  0  0
  191.8630  173.2570  136.3900 N   0  0  0  0  0  0  0  0  0  0  0  0
  191.6840  177.8810  140.5940 O   0  0  0  0  0  0  0  0  0  0  0  0
  190.7460  177.8150  139.5310 C   0  0  2  0  0  3  0  0  0  0  0  0
  192.2140  176.1820  138.3800 N   0  0  0  0  0  0  0  0  0  0  0  0
  187.4740  176.3200  137.1170 C   0  0  0  0  0  2  0  0  0  0  0  0
  189.0160  173.9910  136.7970 O   0  0  0  0  0  1  0  0  0  0  0  0
  194.5080  175.2700  136.3320 C   0  0  0  0  0  1  0  0  0  0  0  0
  189.8180  175.9540  138.0430 C   0  0  0  0  0  0  0  0  0  0  0  0
  192.4040  175.0980  137.5930 C   0  0  0  0  0  0  0  0  0  0  0  0
  183.6770  178.7530  138.3470 C   0  0  0  0  0  2  0  0  0  0  0  0
  184.7380  177.6710  138.4120 C   0  0  1  0  0  3  0  0  0  0  0  0
  183.8330  177.7780  137.2000 C   0  0  1  0  0  3  0  0  0  0  0  0
  182.7600  176.7100  137.2920 C   0  0  0  0  0  2  0  0  0  0  0  0
  183.3660  175.3650  137.0880 C   0  0  0  0  0  0  0  0  0  0  0  0
  184.0610  175.0730  135.8820 N   0  0  0  0  0  1  0  0  0  0  0  0
  183.2340  174.4760  137.9690 O   0  0  0  0  0  0  0  0  0  0  0  0
  188.4200  177.8720  135.2090 O   0  0  0  0  0  1  0  0  0  0  0  0
  187.5160  178.5680  136.0140 C   0  0  0  0  0  2  0  0  0  0  0  0
  1 19  1  6  0  0  0
  1 10  1  0  0  0  0
  3  2  1  0  0  0  0
  4 22  1  0  0  0  0
  5  4  2  0  0  0  0
  5 23  1  0  0  0  0
  6 32  1  1  0  0  0
  6 19  1  0  0  0  0
  6 14  1  0  0  0  0
  8 21  1  6  0  0  0
  8 23  1  0  0  0  0
  9  2  1  0  0  0  0
 10  7  1  1  0  0  0
 10 11  1  0  0  0  0
 11  9  1  1  0  0  0
 13  8  1  0  0  0  0
 14 25  1  0  0  0  0
 14  7  1  1  0  0  0
 15 13  2  0  0  0  0
 15  5  1  0  0  0  0
 16  3  1  0  0  0  0
 17 12  1  1  0  0  0
 17 11  1  0  0  0  0
 17 16  1  0  0  0  0
 18 12  1  0  0  0  0
 20  4  1  0  0  0  0
 22  1  1  0  0  0  0
 22 12  2  0  0  0  0
 23 18  2  0  0  0  0
 25 24  1  1  0  0  0
 26 27  1  1  0  0  0
 26 24  1  0  0  0  0
 26 25  1  0  0  0  0
 28 27  1  0  0  0  0
 28 30  2  0  0  0  0
 29 28  1  0  0  0  0
 31 32  1  0  0  0  0
M  END
>  <MODEL>
4

>  <REMARK>
 VINA RESULT:      -5.4      2.690      7.881
  Name = 
  4 active torsions:
  status: ('A' for Active; 'I' for Inactive)
    1  A    between atoms: C_7  and  C_19
    2  A    between atoms: C_10  and  C_17
    3  A    between atoms: C_20  and  C_29
    4  A    between atoms: C_29  and  C_30
                            x       y       z     vdW  Elec       q    Type
                         _______ _______ _______ _____ _____    ______ ____

>  <TORSDO>
F 4

$$$$
=
 OpenBabel11122410483D

 32 37  0  0  1  0  0  0  0  0999 V2000
  185.6870  177.7710  137.6170 C   0  0  1  0  0  3  0  0  0  0  0  0
  188.9010  177.7400  134.8140 C   0  0  0  0  0  2  0  0  0  0  0  0
  189.7490  177.2790  135.9930 C   0  0  0  0  0  2  0  0  0  0  0  0
  186.8820  178.4150  139.7980 C   0  0  0  0  0  0  0  0  0  0  0  0
  187.9740  178.2500  140.6400 C   0  0  0  0  0  0  0  0  0  0  0  0
  183.2550  176.8970  137.7550 C   0  0  2  0  0  3  0  0  0  0  0  0
  184.6660  176.9750  135.6090 C   0  0  0  0  0  2  0  0  0  0  0  0
  190.0170  177.5150  141.3870 C   0  0  1  0  0  3  0  0  0  0  0  0
  187.4620  177.8770  135.2800 C   0  0  0  0  0  2  0  0  0  0  0  0
  185.6940  176.6910  136.6090 N   0  0  1  0  0  0  0  0  0  0  0  0
  186.9990  176.5710  135.9490 C   0  0  2  0  0  3  0  0  0  0  0  0
  187.9740  176.8360  138.2820 C   0  0  0  0  0  0  0  0  0  0  0  0
  189.3940  178.5010  142.2820 N   0  0  0  0  0  0  0  0  0  0  0  0
  183.2630  176.8460  136.2150 C   0  0  2  0  0  3  0  0  0  0  0  0
  188.2600  178.9070  141.8580 N   0  0  0  0  0  0  0  0  0  0  0  0
  189.3390  176.0000  136.4290 O   0  0  0  0  0  0  0  0  0  0  0  0
  188.0330  176.0780  136.9760 C   0  0  2  0  0  3  0  0  0  0  0  0
  189.0190  176.7230  139.1570 N   0  0  0  0  0  0  0  0  0  0  0  0
  184.3150  177.8480  138.3240 C   0  0  0  0  0  2  0  0  0  0  0  0
  185.8860  179.3280  140.1260 O   0  0  0  0  0  1  0  0  0  0  0  0
  190.1560  176.1880  142.1080 C   0  0  0  0  0  1  0  0  0  0  0  0
  186.8380  177.6430  138.6070 C   0  0  0  0  0  0  0  0  0  0  0  0
  188.9880  177.4100  140.3230 C   0  0  0  0  0  0  0  0  0  0  0  0
  181.0380  177.3230  135.2120 C   0  0  0  0  0  2  0  0  0  0  0  0
  182.3590  177.9270  135.6490 C   0  0  1  0  0  3  0  0  0  0  0  0
  181.1320  178.0650  136.5280 C   0  0  1  0  0  3  0  0  0  0  0  0
  180.5640  179.4610  136.3650 C   0  0  0  0  0  2  0  0  0  0  0  0
  181.0080  180.3230  137.4960 C   0  0  0  0  0  0  0  0  0  0  0  0
  181.2020  179.7580  138.7880 N   0  0  0  0  0  1  0  0  0  0  0  0
  181.1800  181.5560  137.3170 O   0  0  0  0  0  0  0  0  0  0  0  0
  182.7930  174.5620  137.5370 O   0  0  0  0  0  1  0  0  0  0  0  0
  183.4310  175.5050  138.3430 C   0  0  0  0  0  2  0  0  0  0  0  0
  1 19  1  1  0  0  0
  1 22  1  0  0  0  0
  2  9  1  0  0  0  0
  2  3  1  0  0  0  0
  3 16  1  0  0  0  0
  4 20  1  0  0  0  0
  4  5  1  0  0  0  0
  5 15  1  0  0  0  0
  6 19  1  0  0  0  0
  6 32  1  1  0  0  0
  8 21  1  1  0  0  0
  8 13  1  0  0  0  0
 10  7  1  6  0  0  0
 10  1  1  0  0  0  0
 11  9  1  1  0  0  0
 11 10  1  0  0  0  0
 11 17  1  0  0  0  0
 12 22  1  0  0  0  0
 12 18  2  0  0  0  0
 14  7  1  6  0  0  0
 14  6  1  0  0  0  0
 15 13  2  0  0  0  0
 17 16  1  6  0  0  0
 17 12  1  0  0  0  0
 18 23  1  0  0  0  0
 22  4  2  0  0  0  0
 23  5  2  0  0  0  0
 23  8  1  0  0  0  0
 24 26  1  0  0  0  0
 25 24  1  6  0  0  0
 25 14  1  0  0  0  0
 25 26  1  0  0  0  0
 26 27  1  6  0  0  0
 27 28  1  0  0  0  0
 28 29  1  0  0  0  0
 30 28  2  0  0  0  0
 31 32  1  0  0  0  0
M  END
>  <MODEL>
5

>  <REMARK>
 VINA RESULT:      -5.3      2.102      7.081
  Name = 
  4 active torsions:
  status: ('A' for Active; 'I' for Inactive)
    1  A    between atoms: C_7  and  C_19
    2  A    between atoms: C_10  and  C_17
    3  A    between atoms: C_20  and  C_29
    4  A    between atoms: C_29  and  C_30
                            x       y       z     vdW  Elec       q    Type
                         _______ _______ _______ _____ _____    ______ ____

>  <TORSDO>
F 4

$$$$
=
 OpenBabel11122410483D

 32 37  0  0  1  0  0  0  0  0999 V2000
  189.8780  177.4770  139.1290 C   0  0  1  0  0  3  0  0  0  0  0  0
  191.2640  178.4720  143.0380 C   0  0  0  0  0  2  0  0  0  0  0  0
  189.7920  178.4150  143.4300 C   0  0  0  0  0  2  0  0  0  0  0  0
  187.5800  178.6250  139.0650 C   0  0  0  0  0  0  0  0  0  0  0  0
  186.3860  178.9130  139.7110 C   0  0  0  0  0  0  0  0  0  0  0  0
  190.4640  175.7850  137.2610 C   0  0  2  0  0  3  0  0  0  0  0  0
  191.9240  176.2600  139.3200 C   0  0  0  0  0  2  0  0  0  0  0  0
  184.8230  179.0140  141.3900 C   0  0  1  0  0  3  0  0  0  0  0  0
  191.3860  178.1000  141.5700 C   0  0  0  0  0  2  0  0  0  0  0  0
  190.5860  176.4230  139.8840 N   0  0  1  0  0  0  0  0  0  0  0  0
  190.6920  176.7520  141.3100 C   0  0  2  0  0  3  0  0  0  0  0  0
  188.2630  177.4750  141.1140 C   0  0  0  0  0  0  0  0  0  0  0  0
  184.4220  179.7510  140.1820 N   0  0  0  0  0  0  0  0  0  0  0  0
  191.8550  175.6600  137.9100 C   0  0  2  0  0  3  0  0  0  0  0  0
  185.2980  179.6920  139.2540 N   0  0  0  0  0  0  0  0  0  0  0  0
  189.2960  177.0990  143.3010 O   0  0  0  0  0  0  0  0  0  0  0  0
  189.2850  176.7230  141.9330 C   0  0  2  0  0  3  0  0  0  0  0  0
  187.0640  177.7960  141.6890 N   0  0  0  0  0  0  0  0  0  0  0  0
  189.7450  177.0860  137.6400 C   0  0  0  0  0  2  0  0  0  0  0  0
  187.8180  179.1280  137.7910 O   0  0  0  0  0  1  0  0  0  0  0  0
  183.8580  177.8680  141.6310 C   0  0  0  0  0  1  0  0  0  0  0  0
  188.5330  177.8290  139.7540 C   0  0  0  0  0  0  0  0  0  0  0  0
  186.1450  178.4850  140.9730 C   0  0  0  0  0  0  0  0  0  0  0  0
  194.0980  175.3780  136.8740 C   0  0  0  0  0  2  0  0  0  0  0  0
  192.9080  176.3060  137.0270 C   0  0  1  0  0  3  0  0  0  0  0  0
  193.0750  175.4840  135.7640 C   0  0  1  0  0  3  0  0  0  0  0  0
  193.6110  176.3770  134.6630 C   0  0  0  0  0  2  0  0  0  0  0  0
  195.0660  176.6180  134.8700 C   0  0  0  0  0  0  0  0  0  0  0  0
  195.5180  177.8810  135.3430 N   0  0  0  0  0  1  0  0  0  0  0  0
  195.8990  175.7150  134.5960 O   0  0  0  0  0  0  0  0  0  0  0  0
  190.2330  173.4070  137.2230 O   0  0  0  0  0  1  0  0  0  0  0  0
  189.5940  174.5860  137.6080 C   0  0  0  0  0  2  0  0  0  0  0  0
  1 19  1  6  0  0  0
  1 22  1  0  0  0  0
  1 10  1  0  0  0  0
  2  3  1  0  0  0  0
  4  5  2  0  0  0  0
  4 22  1  0  0  0  0
  5 23  1  0  0  0  0
  6 32  1  1  0  0  0
  6 19  1  0  0  0  0
  6 14  1  0  0  0  0
  8 21  1  6  0  0  0
  9  2  1  0  0  0  0
 10  7  1  6  0  0  0
 10 11  1  0  0  0  0
 11  9  1  6  0  0  0
 11 17  1  0  0  0  0
 12 18  1  0  0  0  0
 13  8  1  0  0  0  0
 14  7  1  1  0  0  0
 15  5  1  0  0  0  0
 15 13  2  0  0  0  0
 16  3  1  0  0  0  0
 17 12  1  6  0  0  0
 17 16  1  0  0  0  0
 20  4  1  0  0  0  0
 22 12  2  0  0  0  0
 23  8  1  0  0  0  0
 23 18  2  0  0  0  0
 25 24  1  1  0  0  0
 25 14  1  0  0  0  0
 26 27  1  6  0  0  0
 26 24  1  0  0  0  0
 26 25  1  0  0  0  0
 27 28  1  0  0  0  0
 28 29  1  0  0  0  0
 30 28  2  0  0  0  0
 31 32  1  0  0  0  0
M  END
>  <MODEL>
6

>  <REMARK>
 VINA RESULT:      -5.0      3.564      6.378
  Name = 
  4 active torsions:
  status: ('A' for Active; 'I' for Inactive)
    1  A    between atoms: C_7  and  C_19
    2  A    between atoms: C_10  and  C_17
    3  A    between atoms: C_20  and  C_29
    4  A    between atoms: C_29  and  C_30
                            x       y       z     vdW  Elec       q    Type
                         _______ _______ _______ _____ _____    ______ ____

>  <TORSDO>
F 4

$$$$
=
 OpenBabel11122410483D

 32 37  0  0  1  0  0  0  0  0999 V2000
  184.1260  177.4050  137.6220 C   0  0  1  0  0  3  0  0  0  0  0  0
  183.1870  174.3170  134.8340 C   0  0  0  0  0  2  0  0  0  0  0  0
  184.6260  173.8660  135.0510 C   0  0  0  0  0  2  0  0  0  0  0  0
  186.6160  177.8230  137.1430 C   0  0  0  0  0  0  0  0  0  0  0  0
  187.8740  177.2950  136.8890 C   0  0  0  0  0  0  0  0  0  0  0  0
  183.0890  178.4440  139.7530 C   0  0  2  0  0  3  0  0  0  0  0  0
  181.8720  176.8310  138.1660 C   0  0  0  0  0  2  0  0  0  0  0  0
  189.5000  175.7310  136.4610 C   0  0  1  0  0  3  0  0  0  0  0  0
  182.9140  175.5080  135.7360 C   0  0  0  0  0  2  0  0  0  0  0  0
  183.2390  176.3200  138.0880 N   0  0  1  0  0  0  0  0  0  0  0  0
  183.2780  175.1600  137.1900 C   0  0  2  0  0  3  0  0  0  0  0  0
  185.7950  175.5180  137.1710 C   0  0  0  0  0  0  0  0  0  0  0  0
  189.9950  177.1140  136.3920 N   0  0  0  0  0  0  0  0  0  0  0  0
  181.7380  177.8670  139.2890 C   0  0  2  0  0  3  0  0  0  0  0  0
  189.0840  177.9780  136.6280 N   0  0  0  0  0  0  0  0  0  0  0  0
  184.8110  173.4210  136.3790 O   0  0  0  0  0  0  0  0  0  0  0  0
  184.6710  174.5130  137.2730 C   0  0  2  0  0  3  0  0  0  0  0  0
  187.0610  175.0680  136.9170 N   0  0  0  0  0  0  0  0  0  0  0  0
  184.0960  178.5950  138.6060 C   0  0  0  0  0  2  0  0  0  0  0  0
  186.4330  179.2020  137.1660 O   0  0  0  0  0  1  0  0  0  0  0  0
  190.1970  174.9970  137.5910 C   0  0  0  0  0  1  0  0  0  0  0  0
  185.5440  176.9150  137.3530 C   0  0  0  0  0  0  0  0  0  0  0  0
  188.0750  175.9590  136.8050 C   0  0  0  0  0  0  0  0  0  0  0  0
  179.5880  179.0340  139.7370 C   0  0  0  0  0  2  0  0  0  0  0  0
  180.8130  178.9870  138.8440 C   0  0  1  0  0  3  0  0  0  0  0  0
  180.7150  180.0230  139.9470 C   0  0  1  0  0  3  0  0  0  0  0  0
  180.3390  181.3580  139.3360 C   0  0  0  0  0  2  0  0  0  0  0  0
  181.3840  181.7810  138.3630 C   0  0  0  0  0  0  0  0  0  0  0  0
  181.0310  182.0510  137.0120 N   0  0  0  0  0  1  0  0  0  0  0  0
  182.5850  181.8690  138.7280 O   0  0  0  0  0  0  0  0  0  0  0  0
  183.7740  178.3430  142.0400 O   0  0  0  0  0  1  0  0  0  0  0  0
  183.6860  177.5950  140.8650 C   0  0  0  0  0  2  0  0  0  0  0  0
  1 10  1  0  0  0  0
  1 19  1  1  0  0  0
  2  3  1  0  0  0  0
  2  9  1  0  0  0  0
  3 16  1  0  0  0  0
  4 20  1  0  0  0  0
  4 22  1  0  0  0  0
  5  4  2  0  0  0  0
  6 32  1  1  0  0  0
  8 23  1  0  0  0  0
  8 21  1  1  0  0  0
 10  7  1  6  0  0  0
 11  9  1  6  0  0  0
 11 17  1  0  0  0  0
 11 10  1  0  0  0  0
 12 17  1  0  0  0  0
 12 22  2  0  0  0  0
 13  8  1  0  0  0  0
 13 15  2  0  0  0  0
 14  7  1  6  0  0  0
 14  6  1  0  0  0  0
 15  5  1  0  0  0  0
 17 16  1  6  0  0  0
 18 12  1  0  0  0  0
 19  6  1  0  0  0  0
 22  1  1  0  0  0  0
 23  5  1  0  0  0  0
 23 18  2  0  0  0  0
 24 26  1  0  0  0  0
 25 14  1  0  0  0  0
 25 24  1  1  0  0  0
 25 26  1  0  0  0  0
 26 27  1  6  0  0  0
 28 30  2  0  0  0  0
 28 27  1  0  0  0  0
 29 28  1  0  0  0  0
 32 31  1  0  0  0  0
M  END
>  <MODEL>
7

>  <REMARK>
 VINA RESULT:      -5.0      2.643      6.909
  Name = 
  4 active torsions:
  status: ('A' for Active; 'I' for Inactive)
    1  A    between atoms: C_7  and  C_19
    2  A    between atoms: C_10  and  C_17
    3  A    between atoms: C_20  and  C_29
    4  A    between atoms: C_29  and  C_30
                            x       y       z     vdW  Elec       q    Type
                         _______ _______ _______ _____ _____    ______ ____

>  <TORSDO>
F 4

$$$$
=
 OpenBabel11122410483D

 32 37  0  0  1  0  0  0  0  0999 V2000
  188.3990  176.6360  138.6490 C   0  0  1  0  0  3  0  0  0  0  0  0
  190.1190  176.9560  142.5390 C   0  0  0  0  0  2  0  0  0  0  0  0
  191.4490  176.7580  141.8220 C   0  0  0  0  0  2  0  0  0  0  0  0
  190.0030  175.0000  137.4850 C   0  0  0  0  0  0  0  0  0  0  0  0
  191.3090  174.6020  137.2370 C   0  0  0  0  0  0  0  0  0  0  0  0
  186.6830  177.9220  137.2000 C   0  0  2  0  0  3  0  0  0  0  0  0
  187.0650  178.3080  139.7110 C   0  0  0  0  0  2  0  0  0  0  0  0
  193.6000  174.5420  137.3860 C   0  0  1  0  0  3  0  0  0  0  0  0
  189.0110  176.9850  141.5000 C   0  0  0  0  0  2  0  0  0  0  0  0
  188.4180  177.9750  139.2710 N   0  0  1  0  0  0  0  0  0  0  0  0
  189.3330  178.0310  140.4180 C   0  0  2  0  0  3  0  0  0  0  0  0
  190.9400  176.7330  138.9360 C   0  0  0  0  0  0  0  0  0  0  0  0
  193.0450  173.4650  136.5510 N   0  0  0  0  0  0  0  0  0  0  0  0
  186.1360  178.5210  138.5090 C   0  0  2  0  0  3  0  0  0  0  0  0
  191.7710  173.5040  136.4760 N   0  0  0  0  0  0  0  0  0  0  0  0
  191.7200  177.8510  140.9690 O   0  0  0  0  0  0  0  0  0  0  0  0
  190.7770  177.8760  139.9100 C   0  0  2  0  0  3  0  0  0  0  0  0
  192.2000  176.2860  138.6490 N   0  0  0  0  0  0  0  0  0  0  0  0
  187.4600  176.6180  137.4220 C   0  0  0  0  0  2  0  0  0  0  0  0
  188.9440  174.2780  136.9460 O   0  0  0  0  0  1  0  0  0  0  0  0
  194.4640  175.4530  136.5340 C   0  0  0  0  0  1  0  0  0  0  0  0
  189.7990  176.1380  138.3100 C   0  0  0  0  0  0  0  0  0  0  0  0
  192.3610  175.2500  137.7920 C   0  0  0  0  0  0  0  0  0  0  0  0
  184.0440  178.8310  139.8180 C   0  0  0  0  0  2  0  0  0  0  0  0
  184.7630  177.9480  138.8160 C   0  0  1  0  0  3  0  0  0  0  0  0
  183.6980  178.9210  138.3480 C   0  0  1  0  0  3  0  0  0  0  0  0
  182.4170  178.1560  138.0800 C   0  0  0  0  0  2  0  0  0  0  0  0
  181.2610  179.0950  138.0660 C   0  0  0  0  0  0  0  0  0  0  0  0
  179.9520  178.6170  138.3560 N   0  0  0  0  0  1  0  0  0  0  0  0
  181.4350  180.3040  137.7660 O   0  0  0  0  0  0  0  0  0  0  0  0
  188.5570  178.2680  135.7580 O   0  0  0  0  0  1  0  0  0  0  0  0
  187.5530  178.9310  136.4660 C   0  0  0  0  0  2  0  0  0  0  0  0
  1 19  1  6  0  0  0
  1 10  1  0  0  0  0
  3  2  1  0  0  0  0
  4 22  1  0  0  0  0
  5  4  2  0  0  0  0
  5 23  1  0  0  0  0
  6 32  1  1  0  0  0
  6 19  1  0  0  0  0
  6 14  1  0  0  0  0
  8 21  1  6  0  0  0
  8 23  1  0  0  0  0
  9  2  1  0  0  0  0
 10  7  1  1  0  0  0
 10 11  1  0  0  0  0
 11  9  1  1  0  0  0
 13  8  1  0  0  0  0
 14 25  1  0  0  0  0
 14  7  1  1  0  0  0
 15 13  2  0  0  0  0
 15  5  1  0  0  0  0
 16  3  1  0  0  0  0
 17 12  1  1  0  0  0
 17 11  1  0  0  0  0
 17 16  1  0  0  0  0
 18 12  1  0  0  0  0
 20  4  1  0  0  0  0
 22  1  1  0  0  0  0
 22 12  2  0  0  0  0
 23 18  2  0  0  0  0
 25 24  1  1  0  0  0
 26 27  1  1  0  0  0
 26 25  1  0  0  0  0
 26 24  1  0  0  0  0
 28 27  1  0  0  0  0
 28 29  1  0  0  0  0
 30 28  2  0  0  0  0
 31 32  1  0  0  0  0
M  END
>  <MODEL>
8

>  <REMARK>
 VINA RESULT:      -4.8      2.641      8.015
  Name = 
  4 active torsions:
  status: ('A' for Active; 'I' for Inactive)
    1  A    between atoms: C_7  and  C_19
    2  A    between atoms: C_10  and  C_17
    3  A    between atoms: C_20  and  C_29
    4  A    between atoms: C_29  and  C_30
                            x       y       z     vdW  Elec       q    Type
                         _______ _______ _______ _____ _____    ______ ____

>  <TORSDO>
F 4

$$$$
=
 OpenBabel11122410483D

 32 37  0  0  1  0  0  0  0  0999 V2000
  183.6080  176.7620  138.8490 C   0  0  1  0  0  3  0  0  0  0  0  0
  186.3790  175.5730  135.8320 C   0  0  0  0  0  2  0  0  0  0  0  0
  185.1420  175.3470  134.9720 C   0  0  0  0  0  2  0  0  0  0  0  0
  181.5800  175.2710  138.3320 C   0  0  0  0  0  0  0  0  0  0  0  0
  180.7280  174.7230  137.3830 C   0  0  0  0  0  0  0  0  0  0  0  0
  183.3060  178.7240  140.5080 C   0  0  2  0  0  3  0  0  0  0  0  0
  185.4390  178.2650  139.1520 C   0  0  0  0  0  2  0  0  0  0  0  0
  179.8750  174.1840  135.3210 C   0  0  1  0  0  3  0  0  0  0  0  0
  185.9360  176.1220  137.1780 C   0  0  0  0  0  2  0  0  0  0  0  0
  184.4110  177.8250  138.2120 N   0  0  1  0  0  0  0  0  0  0  0  0
  185.0470  177.3600  136.9730 C   0  0  2  0  0  3  0  0  0  0  0  0
  182.8020  176.2800  136.4680 C   0  0  0  0  0  0  0  0  0  0  0  0
  179.1630  173.5320  136.4300 N   0  0  0  0  0  0  0  0  0  0  0  0
  184.8130  179.0000  140.3440 C   0  0  2  0  0  3  0  0  0  0  0  0
  179.6450  173.8340  137.5730 N   0  0  0  0  0  0  0  0  0  0  0  0
  184.4860  176.5720  134.7160 O   0  0  0  0  0  0  0  0  0  0  0  0
  183.9540  177.0910  135.9240 C   0  0  2  0  0  3  0  0  0  0  0  0
  181.9250  175.7070  135.5890 N   0  0  0  0  0  0  0  0  0  0  0  0
  182.9180  177.2900  140.1260 C   0  0  0  0  0  2  0  0  0  0  0  0
  181.4120  174.9590  139.6770 O   0  0  0  0  0  1  0  0  0  0  0  0
  178.9320  175.1250  134.5940 C   0  0  0  0  0  1  0  0  0  0  0  0
  182.6170  176.1290  137.8800 C   0  0  0  0  0  0  0  0  0  0  0  0
  180.8980  174.9630  136.0610 C   0  0  0  0  0  0  0  0  0  0  0  0
  186.0300  179.8930  142.3200 C   0  0  0  0  0  2  0  0  0  0  0  0
  185.5560  178.6350  141.6180 C   0  0  1  0  0  3  0  0  0  0  0  0
  184.7930  179.1730  142.8130 C   0  0  1  0  0  3  0  0  0  0  0  0
  185.1410  178.3430  144.0330 C   0  0  0  0  0  2  0  0  0  0  0  0
  184.2970  178.7600  145.1870 C   0  0  0  0  0  0  0  0  0  0  0  0
  183.0050  179.3110  144.9610 N   0  0  0  0  0  1  0  0  0  0  0  0
  184.7390  178.6550  146.3600 O   0  0  0  0  0  0  0  0  0  0  0  0
  181.2070  179.2060  139.4730 O   0  0  0  0  0  1  0  0  0  0  0  0
  182.4840  179.7200  139.7050 C   0  0  0  0  0  2  0  0  0  0  0  0
  1 19  1  1  0  0  0
  2  9  1  0  0  0  0
  3  2  1  0  0  0  0
  4 20  1  0  0  0  0
  5 15  1  0  0  0  0
  5  4  2  0  0  0  0
  6 32  1  6  0  0  0
  8 21  1  1  0  0  0
  8 23  1  0  0  0  0
  8 13  1  0  0  0  0
 10  1  1  0  0  0  0
 10  7  1  1  0  0  0
 11  9  1  1  0  0  0
 11 10  1  0  0  0  0
 12 22  2  0  0  0  0
 13 15  2  0  0  0  0
 14  7  1  6  0  0  0
 14  6  1  0  0  0  0
 14 25  1  0  0  0  0
 16  3  1  0  0  0  0
 17 16  1  6  0  0  0
 17 12  1  0  0  0  0
 17 11  1  0  0  0  0
 18 23  2  0  0  0  0
 18 12  1  0  0  0  0
 19  6  1  0  0  0  0
 22  4  1  0  0  0  0
 22  1  1  0  0  0  0
 23  5  1  0  0  0  0
 24 26  1  0  0  0  0
 25 24  1  6  0  0  0
 25 26  1  0  0  0  0
 26 27  1  1  0  0  0
 27 28  1  0  0  0  0
 28 30  2  0  0  0  0
 29 28  1  0  0  0  0
 31 32  1  0  0  0  0
M  END
>  <MODEL>
9

>  <REMARK>
 VINA RESULT:      -4.7      3.636      4.926
  Name = 
  4 active torsions:
  status: ('A' for Active; 'I' for Inactive)
    1  A    between atoms: C_7  and  C_19
    2  A    between atoms: C_10  and  C_17
    3  A    between atoms: C_20  and  C_29
    4  A    between atoms: C_29  and  C_30
                            x       y       z     vdW  Elec       q    Type
                         _______ _______ _______ _____ _____    ______ ____

>  <TORSDO>
F 4

$$$$
