=
 OpenBabel11122410383D

 32 38  0  0  1  0  0  0  0  0999 V2000
  191.7890  176.3650  137.3820 C   0  0  2  0  0  3  0  0  0  0  0  0
  189.4400  177.2330  141.5890 C   0  0  1  0  0  3  0  0  0  0  0  0
  184.8030  179.2250  142.0130 C   0  0  0  0  0  2  0  0  0  0  0  0
  184.7590  178.6050  143.3800 C   0  0  0  0  0  3  0  0  0  0  0  0
  190.7740  176.9300  143.7660 C   0  0  2  0  0  3  0  0  0  0  0  0
  190.7410  177.2830  145.2470 C   0  0  2  0  0  3  0  0  0  0  0  0
  190.4500  177.1300  139.4630 C   0  0  1  0  0  3  0  0  0  0  0  0
  188.1940  178.1990  139.6740 C   0  0  0  0  0  3  0  0  0  0  0  0
  189.7610  176.8310  147.3370 C   0  0  1  0  0  3  0  0  0  0  0  0
  189.0060  177.5560  137.4010 C   0  0  0  0  0  2  0  0  0  0  0  0
  185.8560  178.6590  141.2300 O   0  0  0  0  0  0  0  0  0  0  0  0
  188.2210  177.9050  140.9810 C   0  0  0  0  0  0  0  0  0  0  0  0
  187.0250  178.1510  141.8140 C   0  0  0  0  0  0  0  0  0  0  0  0
  188.2350  177.2460  143.7890 C   0  0  2  0  0  3  0  0  0  0  0  0
  191.2700  176.5840  147.3860 C   0  0  0  0  0  2  0  0  0  0  0  0
  192.3630  175.7870  138.6690 C   0  0  0  0  0  2  0  0  0  0  0  0
  189.4050  178.0340  138.7970 C   0  0  2  0  0  3  0  0  0  0  0  0
  191.8120  176.6820  146.0240 N   0  0  0  0  0  2  0  0  0  0  0  0
  191.7580  177.1710  138.6950 C   0  0  1  0  0  3  0  0  0  0  0  0
  189.1120  176.0430  137.2760 C   0  0  0  0  0  2  0  0  0  0  0  0
  185.8120  178.0280  143.8780 N   0  0  0  0  0  0  0  0  0  0  0  0
  187.0340  177.8850  143.1340 C   0  0  0  0  0  0  0  0  0  0  0  0
  188.2910  177.5390  145.2940 C   0  0  0  0  0  2  0  0  0  0  0  0
  190.6530  177.5680  140.8400 N   0  0  0  0  0  2  0  0  0  0  0  0
  191.9730  177.3980  143.2220 O   0  0  0  0  0  1  0  0  0  0  0  0
  189.4660  178.2000  147.9340 C   0  0  0  0  0  1  0  0  0  0  0  0
  189.5660  177.6100  143.0730 C   0  0  2  0  0  3  0  0  0  0  0  0
  189.4760  176.7720  145.8550 C   0  0  1  0  0  3  0  0  0  0  0  0
  190.5290  175.5880  136.8980 C   0  0  2  0  0  3  0  0  0  0  0  0
  190.6700  174.1000  136.9160 C   0  0  0  0  0  0  0  0  0  0  0  0
  191.6650  173.4790  136.1690 O   0  0  0  0  0  0  0  0  0  0  0  0
  189.8710  173.4030  137.5950 O   0  0  0  0  0  1  0  0  0  0  0  0
  1 16  1  1  0  0  0
  1 19  1  0  0  0  0
  2 24  1  6  0  0  0
  2 27  1  0  0  0  0
  3  4  1  0  0  0  0
  4 21  2  0  0  0  0
  5 25  1  6  0  0  0
  5  6  1  0  0  0  0
  6 28  1  0  0  0  0
  6 18  1  1  0  0  0
  7 24  1  1  0  0  0
  8 12  2  0  0  0  0
  9 15  1  0  0  0  0
  9 26  1  6  0  0  0
 11 13  1  0  0  0  0
 11  3  1  0  0  0  0
 12  2  1  0  0  0  0
 12 13  1  0  0  0  0
 13 22  2  0  0  0  0
 14 23  1  1  0  0  0
 17 10  1  6  0  0  0
 17  7  1  0  0  0  0
 17  8  1  0  0  0  0
 18 15  1  0  0  0  0
 19 16  1  1  0  0  0
 19  7  1  0  0  0  0
 20 10  1  0  0  0  0
 22 14  1  0  0  0  0
 22 21  1  0  0  0  0
 23 28  1  0  0  0  0
 27  5  1  0  0  0  0
 27 14  1  0  0  0  0
 28  9  1  0  0  0  0
 29 30  1  0  0  0  0
 29 20  1  0  0  0  0
 29  1  1  0  0  0  0
 30 32  1  0  0  0  0
 31 30  2  0  0  0  0
M  END
>  <MODEL>
1

>  <REMARK>
 VINA RESULT:     -10.9      0.000      0.000
  Name = 
  1 active torsions:
  status: ('A' for Active; 'I' for Inactive)
    1  A    between atoms: C_29  and  C_30
                            x       y       z     vdW  Elec       q    Type
                         _______ _______ _______ _____ _____    ______ ____

>  <TORSDO>
F 1

$$$$
=
 OpenBabel11122410383D

 32 38  0  0  1  0  0  0  0  0999 V2000
  189.1880  177.1820  137.1850 C   0  0  2  0  0  3  0  0  0  0  0  0
  187.9370  177.6570  141.8950 C   0  0  1  0  0  3  0  0  0  0  0  0
  183.4770  179.3460  143.5990 C   0  0  0  0  0  2  0  0  0  0  0  0
  183.8040  178.6430  144.8860 C   0  0  0  0  0  3  0  0  0  0  0  0
  189.7870  177.3030  143.6450 C   0  0  2  0  0  3  0  0  0  0  0  0
  190.1130  177.5640  145.1100 C   0  0  2  0  0  3  0  0  0  0  0  0
  188.3830  177.7420  139.5840 C   0  0  1  0  0  3  0  0  0  0  0  0
  186.2100  178.6610  140.4240 C   0  0  0  0  0  3  0  0  0  0  0  0
  189.7090  176.9310  147.3390 C   0  0  1  0  0  3  0  0  0  0  0  0
  186.4520  178.2050  137.9810 C   0  0  0  0  0  2  0  0  0  0  0  0
  184.3210  178.8890  142.5400 O   0  0  0  0  0  0  0  0  0  0  0  0
  186.5780  178.2930  141.6590 C   0  0  0  0  0  0  0  0  0  0  0  0
  185.6200  178.4170  142.7780 C   0  0  0  0  0  0  0  0  0  0  0  0
  187.3250  177.4680  144.3200 C   0  0  2  0  0  3  0  0  0  0  0  0
  191.1910  176.7710  146.9940 C   0  0  0  0  0  2  0  0  0  0  0  0
  190.0900  176.5630  138.2450 C   0  0  0  0  0  2  0  0  0  0  0  0
  187.1680  178.6210  139.2650 C   0  0  2  0  0  3  0  0  0  0  0  0
  191.3680  176.9810  145.5510 N   0  0  0  0  0  2  0  0  0  0  0  0
  189.4540  177.9050  138.5200 C   0  0  1  0  0  3  0  0  0  0  0  0
  186.5860  176.7100  137.7240 C   0  0  0  0  0  2  0  0  0  0  0  0
  184.9710  178.1000  145.0630 N   0  0  0  0  0  0  0  0  0  0  0  0
  185.9720  178.0740  144.0310 C   0  0  0  0  0  0  0  0  0  0  0  0
  187.7440  177.6730  145.7820 C   0  0  0  0  0  2  0  0  0  0  0  0
  188.9080  178.1070  140.8950 N   0  0  0  0  0  2  0  0  0  0  0  0
  190.7900  177.8720  142.8570 O   0  0  0  0  0  1  0  0  0  0  0  0
  189.5160  178.2430  148.0880 C   0  0  0  0  0  1  0  0  0  0  0  0
  188.4160  177.9520  143.3250 C   0  0  2  0  0  3  0  0  0  0  0  0
  189.0640  176.9440  145.9740 C   0  0  1  0  0  3  0  0  0  0  0  0
  187.8800  176.3630  136.9740 C   0  0  2  0  0  3  0  0  0  0  0  0
  188.0830  174.8870  136.8480 C   0  0  0  0  0  0  0  0  0  0  0  0
  189.1770  174.3850  136.1540 O   0  0  0  0  0  0  0  0  0  0  0  0
  187.2470  174.0940  137.3560 O   0  0  0  0  0  1  0  0  0  0  0  0
  1 16  1  1  0  0  0
  1 19  1  0  0  0  0
  2 24  1  6  0  0  0
  2 27  1  0  0  0  0
  3  4  1  0  0  0  0
  4 21  2  0  0  0  0
  5 25  1  6  0  0  0
  5  6  1  0  0  0  0
  6 18  1  1  0  0  0
  6 28  1  0  0  0  0
  7 24  1  1  0  0  0
  8 12  2  0  0  0  0
  9 26  1  6  0  0  0
 11 13  1  0  0  0  0
 11  3  1  0  0  0  0
 12  2  1  0  0  0  0
 12 13  1  0  0  0  0
 13 22  2  0  0  0  0
 14 23  1  1  0  0  0
 15  9  1  0  0  0  0
 17 10  1  6  0  0  0
 17  7  1  0  0  0  0
 17  8  1  0  0  0  0
 18 15  1  0  0  0  0
 19 16  1  1  0  0  0
 19  7  1  0  0  0  0
 20 10  1  0  0  0  0
 22 14  1  0  0  0  0
 22 21  1  0  0  0  0
 23 28  1  0  0  0  0
 27  5  1  0  0  0  0
 27 14  1  0  0  0  0
 28  9  1  0  0  0  0
 29  1  1  0  0  0  0
 29 20  1  0  0  0  0
 30 29  1  0  0  0  0
 30 32  1  0  0  0  0
 31 30  2  0  0  0  0
M  END
>  <MODEL>
2

>  <REMARK>
 VINA RESULT:     -10.0      1.389      1.882
  Name = 
  1 active torsions:
  status: ('A' for Active; 'I' for Inactive)
    1  A    between atoms: C_29  and  C_30
                            x       y       z     vdW  Elec       q    Type
                         _______ _______ _______ _____ _____    ______ ____

>  <TORSDO>
F 1

$$$$
=
 OpenBabel11122410383D

 32 38  0  0  1  0  0  0  0  0999 V2000
  181.9810  178.6110  138.6060 C   0  0  2  0  0  3  0  0  0  0  0  0
  185.5200  178.1340  141.9570 C   0  0  1  0  0  3  0  0  0  0  0  0
  184.9310  178.6780  146.9570 C   0  0  0  0  0  2  0  0  0  0  0  0
  186.1860  177.8660  147.1030 C   0  0  0  0  0  3  0  0  0  0  0  0
  187.9290  177.8780  141.0950 C   0  0  2  0  0  3  0  0  0  0  0  0
  189.3790  177.9740  141.5520 C   0  0  2  0  0  3  0  0  0  0  0  0
  183.7160  178.6450  140.5310 C   0  0  1  0  0  3  0  0  0  0  0  0
  183.4410  179.0030  142.9950 C   0  0  0  0  0  3  0  0  0  0  0  0
  191.1090  176.9520  142.7730 C   0  0  1  0  0  3  0  0  0  0  0  0
  181.4000  178.9700  141.5550 C   0  0  0  0  0  2  0  0  0  0  0  0
  184.3920  178.5520  145.6390 O   0  0  0  0  0  0  0  0  0  0  0  0
  184.6840  178.5300  143.1610 C   0  0  0  0  0  0  0  0  0  0  0  0
  185.2070  178.3030  144.5250 C   0  0  0  0  0  0  0  0  0  0  0  0
  187.3390  177.4740  143.5510 C   0  0  2  0  0  3  0  0  0  0  0  0
  191.5140  177.1270  141.3090 C   0  0  0  0  0  2  0  0  0  0  0  0
  183.3180  178.0220  138.1750 C   0  0  0  0  0  2  0  0  0  0  0  0
  182.8870  179.3170  141.6320 C   0  0  2  0  0  3  0  0  0  0  0  0
  190.3460  177.5790  140.5430 N   0  0  0  0  0  2  0  0  0  0  0  0
  183.3080  179.1640  139.1640 C   0  0  1  0  0  3  0  0  0  0  0  0
  181.1790  177.5820  140.9680 C   0  0  0  0  0  2  0  0  0  0  0  0
  186.8810  177.5320  146.0570 N   0  0  0  0  0  0  0  0  0  0  0  0
  186.4590  177.8490  144.7200 C   0  0  0  0  0  0  0  0  0  0  0  0
  188.8290  177.5330  143.9130 C   0  0  0  0  0  2  0  0  0  0  0  0
  185.1310  178.9030  140.7720 N   0  0  0  0  0  2  0  0  0  0  0  0
  187.7460  178.7370  140.0090 O   0  0  0  0  0  1  0  0  0  0  0  0
  191.7250  178.0760  143.5940 C   0  0  0  0  0  1  0  0  0  0  0  0
  187.0140  178.2970  142.2740 C   0  0  2  0  0  3  0  0  0  0  0  0
  189.6040  177.0460  142.7000 C   0  0  1  0  0  3  0  0  0  0  0  0
  181.1330  177.6010  139.4340 C   0  0  2  0  0  3  0  0  0  0  0  0
  181.0600  176.2260  138.8520 C   0  0  0  0  0  0  0  0  0  0  0  0
  180.4310  176.0110  137.6320 O   0  0  0  0  0  0  0  0  0  0  0  0
  181.5530  175.2530  139.4810 O   0  0  0  0  0  1  0  0  0  0  0  0
  1 16  1  6  0  0  0
  1 19  1  0  0  0  0
  1 29  1  0  0  0  0
  2 24  1  6  0  0  0
  2 27  1  0  0  0  0
  2 12  1  0  0  0  0
  3  4  1  0  0  0  0
  5 25  1  6  0  0  0
  5  6  1  0  0  0  0
  5 27  1  0  0  0  0
  6 18  1  6  0  0  0
  6 28  1  0  0  0  0
  7 24  1  1  0  0  0
  7 17  1  0  0  0  0
  8 12  2  0  0  0  0
  9 26  1  1  0  0  0
 11  3  1  0  0  0  0
 12 13  1  0  0  0  0
 13 22  2  0  0  0  0
 13 11  1  0  0  0  0
 14 23  1  1  0  0  0
 14 22  1  0  0  0  0
 15  9  1  0  0  0  0
 17 10  1  1  0  0  0
 17  8  1  0  0  0  0
 18 15  1  0  0  0  0
 19 16  1  6  0  0  0
 19  7  1  0  0  0  0
 20 10  1  0  0  0  0
 21  4  2  0  0  0  0
 22 21  1  0  0  0  0
 27 14  1  0  0  0  0
 28  9  1  0  0  0  0
 28 23  1  0  0  0  0
 29 20  1  0  0  0  0
 30 29  1  0  0  0  0
 30 32  1  0  0  0  0
 31 30  2  0  0  0  0
M  END
>  <MODEL>
3

>  <REMARK>
 VINA RESULT:      -9.2      3.325      6.411
  Name = 
  1 active torsions:
  status: ('A' for Active; 'I' for Inactive)
    1  A    between atoms: C_29  and  C_30
                            x       y       z     vdW  Elec       q    Type
                         _______ _______ _______ _____ _____    ______ ____

>  <TORSDO>
F 1

$$$$
=
 OpenBabel11122410383D

 32 38  0  0  1  0  0  0  0  0999 V2000
  191.7870  176.5970  137.6930 C   0  0  2  0  0  3  0  0  0  0  0  0
  188.0750  177.7110  140.6860 C   0  0  1  0  0  3  0  0  0  0  0  0
  183.6390  179.6940  139.2600 C   0  0  0  0  0  2  0  0  0  0  0  0
  183.0880  179.1610  140.5510 C   0  0  0  0  0  3  0  0  0  0  0  0
  188.5160  177.5540  143.2140 C   0  0  2  0  0  3  0  0  0  0  0  0
  187.9480  177.9990  144.5560 C   0  0  2  0  0  3  0  0  0  0  0  0
  189.7920  177.4820  139.0880 C   0  0  1  0  0  3  0  0  0  0  0  0
  187.6330  178.5460  138.3920 C   0  0  0  0  0  3  0  0  0  0  0  0
  186.2640  177.6730  146.1650 C   0  0  1  0  0  3  0  0  0  0  0  0
  189.2110  177.7680  136.6190 C   0  0  0  0  0  2  0  0  0  0  0  0
  184.8960  179.0860  138.9520 O   0  0  0  0  0  0  0  0  0  0  0  0
  187.1760  178.3360  139.6340 C   0  0  0  0  0  0  0  0  0  0  0  0
  185.7610  178.6240  139.9540 C   0  0  0  0  0  0  0  0  0  0  0  0
  186.1500  177.8540  142.2860 C   0  0  2  0  0  3  0  0  0  0  0  0
  187.6460  177.4400  146.7780 C   0  0  0  0  0  2  0  0  0  0  0  0
  191.8400  176.1050  139.1340 C   0  0  0  0  0  2  0  0  0  0  0  0
  189.0780  178.3350  138.0320 C   0  0  2  0  0  3  0  0  0  0  0  0
  188.6500  177.4560  145.7060 N   0  0  0  0  0  2  0  0  0  0  0  0
  191.2910  177.4830  138.8520 C   0  0  1  0  0  3  0  0  0  0  0  0
  189.3300  176.2500  136.6340 C   0  0  0  0  0  2  0  0  0  0  0  0
  183.8760  178.6230  141.4330 N   0  0  0  0  0  0  0  0  0  0  0  0
  185.2830  178.4420  141.1990 C   0  0  0  0  0  0  0  0  0  0  0  0
  185.6550  178.2410  143.6860 C   0  0  0  0  0  2  0  0  0  0  0  0
  189.4840  178.0070  140.4150 N   0  0  0  0  0  2  0  0  0  0  0  0
  189.8370  177.9960  143.1200 O   0  0  0  0  0  1  0  0  0  0  0  0
  185.7940  179.0750  146.5270 C   0  0  0  0  0  1  0  0  0  0  0  0
  187.6560  178.1820  142.0870 C   0  0  2  0  0  3  0  0  0  0  0  0
  186.5400  177.5190  144.6880 C   0  0  1  0  0  3  0  0  0  0  0  0
  190.7790  175.7830  136.8300 C   0  0  2  0  0  3  0  0  0  0  0  0
  190.8790  174.2990  136.9890 C   0  0  0  0  0  0  0  0  0  0  0  0
  192.0340  173.6280  136.6040 O   0  0  0  0  0  0  0  0  0  0  0  0
  189.9050  173.6520  137.4540 O   0  0  0  0  0  1  0  0  0  0  0  0
  1 19  1  0  0  0  0
  1 16  1  1  0  0  0
  2 12  1  6  0  0  0
  2 27  1  0  0  0  0
  3  4  1  0  0  0  0
  4 21  2  0  0  0  0
  5 25  1  6  0  0  0
  5  6  1  0  0  0  0
  6 28  1  0  0  0  0
  6 18  1  1  0  0  0
  7 24  1  1  0  0  0
  8 12  2  0  0  0  0
  9 26  1  6  0  0  0
  9 15  1  0  0  0  0
 10 20  1  0  0  0  0
 11  3  1  0  0  0  0
 11 13  1  0  0  0  0
 12 13  1  0  0  0  0
 13 22  2  0  0  0  0
 14 23  1  1  0  0  0
 17 10  1  6  0  0  0
 17  8  1  0  0  0  0
 17  7  1  0  0  0  0
 18 15  1  0  0  0  0
 19  7  1  0  0  0  0
 19 16  1  1  0  0  0
 20 29  1  0  0  0  0
 22 21  1  0  0  0  0
 22 14  1  0  0  0  0
 23 28  1  0  0  0  0
 24  2  1  0  0  0  0
 27 14  1  0  0  0  0
 27  5  1  0  0  0  0
 28  9  1  0  0  0  0
 29 30  1  0  0  0  0
 29  1  1  0  0  0  0
 30 32  1  0  0  0  0
 31 30  2  0  0  0  0
M  END
>  <MODEL>
4

>  <REMARK>
 VINA RESULT:      -9.2      1.703      2.310
  Name = 
  1 active torsions:
  status: ('A' for Active; 'I' for Inactive)
    1  A    between atoms: C_29  and  C_30
                            x       y       z     vdW  Elec       q    Type
                         _______ _______ _______ _____ _____    ______ ____

>  <TORSDO>
F 1

$$$$
=
 OpenBabel11122410383D

 32 38  0  0  1  0  0  0  0  0999 V2000
  179.0050  180.5480  138.8570 C   0  0  2  0  0  3  0  0  0  0  0  0
  183.2920  179.2610  140.8430 C   0  0  1  0  0  3  0  0  0  0  0  0
  187.3970  177.7780  138.2760 C   0  0  0  0  0  2  0  0  0  0  0  0
  188.1870  178.1590  139.4950 C   0  0  0  0  0  3  0  0  0  0  0  0
  183.3820  179.0360  143.4030 C   0  0  2  0  0  3  0  0  0  0  0  0
  184.2290  178.4450  144.5220 C   0  0  2  0  0  3  0  0  0  0  0  0
  181.2750  179.6030  139.6750 C   0  0  1  0  0  3  0  0  0  0  0  0
  183.2750  178.7830  138.4090 C   0  0  0  0  0  3  0  0  0  0  0  0
  186.2000  178.6480  145.7900 C   0  0  1  0  0  3  0  0  0  0  0  0
  181.3390  179.7010  137.1250 C   0  0  0  0  0  2  0  0  0  0  0  0
  186.0850  178.3420  138.3210 O   0  0  0  0  0  0  0  0  0  0  0  0
  183.9730  178.8470  139.5500 C   0  0  0  0  0  0  0  0  0  0  0  0
  185.4320  178.6050  139.5340 C   0  0  0  0  0  0  0  0  0  0  0  0
  185.5110  179.0170  141.9850 C   0  0  2  0  0  3  0  0  0  0  0  0
  184.9680  178.7060  146.6960 C   0  0  0  0  0  2  0  0  0  0  0  0
  179.2370  180.8300  140.3360 C   0  0  0  0  0  2  0  0  0  0  0  0
  181.7810  178.9520  138.3820 C   0  0  2  0  0  3  0  0  0  0  0  0
  183.7640  178.7780  145.8570 N   0  0  0  0  0  2  0  0  0  0  0  0
  179.7600  179.5410  139.7470 C   0  0  1  0  0  3  0  0  0  0  0  0
  181.1770  181.1920  137.3900 C   0  0  0  0  0  2  0  0  0  0  0  0
  187.5830  178.5180  140.5880 N   0  0  0  0  0  0  0  0  0  0  0  0
  186.1530  178.6410  140.6700 C   0  0  0  0  0  0  0  0  0  0  0  0
  186.2980  178.4700  143.1830 C   0  0  0  0  0  2  0  0  0  0  0  0
  181.8680  178.9190  140.8190 N   0  0  0  0  0  2  0  0  0  0  0  0
  182.0840  178.5310  143.5110 O   0  0  0  0  0  1  0  0  0  0  0  0
  186.7800  177.2410  145.8370 C   0  0  0  0  0  1  0  0  0  0  0  0
  184.0080  178.6270  142.0450 C   0  0  2  0  0  3  0  0  0  0  0  0
  185.6180  178.9890  144.4390 C   0  0  1  0  0  3  0  0  0  0  0  0
  179.7860  181.5360  137.9400 C   0  0  2  0  0  3  0  0  0  0  0  0
  179.6720  182.9740  138.3360 C   0  0  0  0  0  0  0  0  0  0  0  0
  180.3970  183.9480  137.6610 O   0  0  0  0  0  0  0  0  0  0  0  0
  178.9310  183.3010  139.2990 O   0  0  0  0  0  1  0  0  0  0  0  0
  1 19  1  0  0  0  0
  1 16  1  1  0  0  0
  2 12  1  6  0  0  0
  2 27  1  0  0  0  0
  3 11  1  0  0  0  0
  3  4  1  0  0  0  0
  4 21  2  0  0  0  0
  5 25  1  6  0  0  0
  5  6  1  0  0  0  0
  6 18  1  1  0  0  0
  7 19  1  0  0  0  0
  7 24  1  1  0  0  0
  8 12  2  0  0  0  0
  9 26  1  6  0  0  0
  9 15  1  0  0  0  0
 10 20  1  0  0  0  0
 11 13  1  0  0  0  0
 13 12  1  0  0  0  0
 13 22  2  0  0  0  0
 14 27  1  0  0  0  0
 14 23  1  1  0  0  0
 17 10  1  6  0  0  0
 17  8  1  0  0  0  0
 17  7  1  0  0  0  0
 18 15  1  0  0  0  0
 19 16  1  1  0  0  0
 20 29  1  0  0  0  0
 21 22  1  0  0  0  0
 22 14  1  0  0  0  0
 23 28  1  0  0  0  0
 24  2  1  0  0  0  0
 27  5  1  0  0  0  0
 28  6  1  0  0  0  0
 28  9  1  0  0  0  0
 29 30  1  0  0  0  0
 29  1  1  0  0  0  0
 30 32  1  0  0  0  0
 31 30  2  0  0  0  0
M  END
>  <MODEL>
5

>  <REMARK>
 VINA RESULT:      -8.4      4.369      8.536
  Name = 
  1 active torsions:
  status: ('A' for Active; 'I' for Inactive)
    1  A    between atoms: C_29  and  C_30
                            x       y       z     vdW  Elec       q    Type
                         _______ _______ _______ _____ _____    ______ ____

>  <TORSDO>
F 1

$$$$
=
 OpenBabel11122410383D

 32 38  0  0  1  0  0  0  0  0999 V2000
  190.0860  176.9880  136.8780 C   0  0  2  0  0  3  0  0  0  0  0  0
  186.9580  177.8830  140.5370 C   0  0  1  0  0  3  0  0  0  0  0  0
  182.2010  179.5360  140.0030 C   0  0  0  0  0  2  0  0  0  0  0  0
  181.9500  178.9830  141.3770 C   0  0  0  0  0  3  0  0  0  0  0  0
  187.8920  177.7910  142.9310 C   0  0  2  0  0  3  0  0  0  0  0  0
  187.5660  178.2140  144.3580 C   0  0  2  0  0  3  0  0  0  0  0  0
  188.3430  177.7520  138.6360 C   0  0  1  0  0  3  0  0  0  0  0  0
  186.0210  178.6550  138.3740 C   0  0  0  0  0  3  0  0  0  0  0  0
  186.2540  177.7940  146.2640 C   0  0  1  0  0  3  0  0  0  0  0  0
  187.2740  177.9640  136.3270 C   0  0  0  0  0  2  0  0  0  0  0  0
  183.4140  179.0130  139.4570 O   0  0  0  0  0  0  0  0  0  0  0  0
  185.8290  178.4300  139.6810 C   0  0  0  0  0  0  0  0  0  0  0  0
  184.4880  178.6250  140.2710 C   0  0  0  0  0  0  0  0  0  0  0  0
  185.3760  177.9140  142.4820 C   0  0  2  0  0  3  0  0  0  0  0  0
  187.7420  177.6650  146.5960 C   0  0  0  0  0  2  0  0  0  0  0  0
  190.4530  176.5200  138.2810 C   0  0  0  0  0  2  0  0  0  0  0  0
  187.3800  178.5390  137.7390 C   0  0  2  0  0  3  0  0  0  0  0  0
  188.5150  177.7350  145.3490 N   0  0  0  0  0  2  0  0  0  0  0  0
  189.7640  177.8530  138.1120 C   0  0  1  0  0  3  0  0  0  0  0  0
  187.5000  176.4580  136.3180 C   0  0  0  0  0  2  0  0  0  0  0  0
  182.9310  178.5130  142.0890 N   0  0  0  0  0  0  0  0  0  0  0  0
  184.2740  178.4270  141.5850 C   0  0  0  0  0  0  0  0  0  0  0  0
  185.1370  178.2850  143.9520 C   0  0  0  0  0  2  0  0  0  0  0  0
  188.2630  178.2720  139.9970 N   0  0  0  0  0  2  0  0  0  0  0  0
  189.1350  178.3210  142.5820 O   0  0  0  0  0  1  0  0  0  0  0  0
  185.7660  179.1640  146.7120 C   0  0  0  0  0  1  0  0  0  0  0  0
  186.7880  178.3430  141.9930 C   0  0  2  0  0  3  0  0  0  0  0  0
  186.2480  177.6390  144.7620 C   0  0  1  0  0  3  0  0  0  0  0  0
  188.9890  176.0940  136.2280 C   0  0  2  0  0  3  0  0  0  0  0  0
  189.2230  174.6240  136.3630 C   0  0  0  0  0  0  0  0  0  0  0  0
  188.3770  173.8460  137.1450 O   0  0  0  0  0  1  0  0  0  0  0  0
  190.2040  174.0900  135.7820 O   0  0  0  0  0  0  0  0  0  0  0  0
  1 19  1  0  0  0  0
  1 16  1  1  0  0  0
  2 12  1  6  0  0  0
  2 27  1  0  0  0  0
  3  4  1  0  0  0  0
  4 21  2  0  0  0  0
  5 25  1  6  0  0  0
  5  6  1  0  0  0  0
  6 28  1  0  0  0  0
  6 18  1  1  0  0  0
  7 24  1  1  0  0  0
  8 12  2  0  0  0  0
  9 15  1  0  0  0  0
  9 26  1  6  0  0  0
 11  3  1  0  0  0  0
 11 13  1  0  0  0  0
 12 13  1  0  0  0  0
 13 22  2  0  0  0  0
 14 23  1  1  0  0  0
 17 10  1  6  0  0  0
 17  8  1  0  0  0  0
 17  7  1  0  0  0  0
 18 15  1  0  0  0  0
 19 16  1  1  0  0  0
 19  7  1  0  0  0  0
 20 10  1  0  0  0  0
 22 21  1  0  0  0  0
 22 14  1  0  0  0  0
 23 28  1  0  0  0  0
 24  2  1  0  0  0  0
 27 14  1  0  0  0  0
 27  5  1  0  0  0  0
 28  9  1  0  0  0  0
 29 20  1  0  0  0  0
 29 30  1  0  0  0  0
 29  1  1  0  0  0  0
 30 31  1  0  0  0  0
 32 30  2  0  0  0  0
M  END
>  <MODEL>
6

>  <REMARK>
 VINA RESULT:      -8.4      2.072      2.946
  Name = 
  1 active torsions:
  status: ('A' for Active; 'I' for Inactive)
    1  A    between atoms: C_29  and  C_30
                            x       y       z     vdW  Elec       q    Type
                         _______ _______ _______ _____ _____    ______ ____

>  <TORSDO>
F 1

$$$$
=
 OpenBabel11122410383D

 32 38  0  0  1  0  0  0  0  0999 V2000
  182.0500  179.1630  139.3340 C   0  0  2  0  0  3  0  0  0  0  0  0
  186.5070  178.0530  141.0320 C   0  0  1  0  0  3  0  0  0  0  0  0
  187.8360  177.8760  145.9150 C   0  0  0  0  0  2  0  0  0  0  0  0
  188.9770  177.0010  145.4800 C   0  0  0  0  0  3  0  0  0  0  0  0
  188.4000  177.8290  139.3070 C   0  0  2  0  0  3  0  0  0  0  0  0
  189.9190  177.7970  139.1960 C   0  0  2  0  0  3  0  0  0  0  0  0
  184.3620  178.8420  140.4590 C   0  0  1  0  0  3  0  0  0  0  0  0
  185.0410  178.8430  142.8700 C   0  0  0  0  0  3  0  0  0  0  0  0
  191.8730  176.5360  139.5460 C   0  0  1  0  0  3  0  0  0  0  0  0
  182.6220  179.1060  142.3070 C   0  0  0  0  0  2  0  0  0  0  0  0
  186.8450  177.9690  144.8900 O   0  0  0  0  0  0  0  0  0  0  0  0
  186.2080  178.3000  142.5000 C   0  0  0  0  0  0  0  0  0  0  0  0
  187.1700  177.8540  143.5310 C   0  0  0  0  0  0  0  0  0  0  0  0
  188.7130  177.0910  141.7360 C   0  0  2  0  0  3  0  0  0  0  0  0
  191.7310  176.9090  138.0700 C   0  0  0  0  0  2  0  0  0  0  0  0
  183.0770  178.5900  138.3660 C   0  0  0  0  0  2  0  0  0  0  0  0
  184.0590  179.3770  141.8630 C   0  0  2  0  0  3  0  0  0  0  0  0
  190.4100  177.5170  137.8580 N   0  0  0  0  0  2  0  0  0  0  0  0
  183.5340  179.5730  139.4180 C   0  0  1  0  0  3  0  0  0  0  0  0
  182.0740  177.8310  141.6810 C   0  0  0  0  0  2  0  0  0  0  0  0
  189.2080  176.7970  144.2180 N   0  0  0  0  0  0  0  0  0  0  0  0
  188.3590  177.3260  143.1860 C   0  0  0  0  0  0  0  0  0  0  0  0
  190.2310  177.0350  141.5190 C   0  0  0  0  0  2  0  0  0  0  0  0
  185.7860  179.0040  140.1820 N   0  0  0  0  0  2  0  0  0  0  0  0
  187.9140  178.8460  138.4820 O   0  0  0  0  0  1  0  0  0  0  0  0
  192.8480  177.5010  140.2070 C   0  0  0  0  0  1  0  0  0  0  0  0
  188.0220  178.1070  140.7840 C   0  0  2  0  0  3  0  0  0  0  0  0
  190.4610  176.7020  140.0540 C   0  0  1  0  0  3  0  0  0  0  0  0
  181.4730  178.0780  140.2900 C   0  0  2  0  0  3  0  0  0  0  0  0
  181.0650  176.8080  139.6150 C   0  0  0  0  0  0  0  0  0  0  0  0
  179.9190  176.7650  138.8300 O   0  0  0  0  0  0  0  0  0  0  0  0
  181.7530  175.7650  139.7750 O   0  0  0  0  0  1  0  0  0  0  0  0
  1 16  1  6  0  0  0
  1 19  1  0  0  0  0
  1 29  1  0  0  0  0
  2 24  1  6  0  0  0
  2 12  1  0  0  0  0
  4  3  1  0  0  0  0
  5 25  1  6  0  0  0
  5 27  1  0  0  0  0
  6 18  1  6  0  0  0
  6  5  1  0  0  0  0
  6 28  1  0  0  0  0
  7 24  1  6  0  0  0
  7 17  1  0  0  0  0
  9 28  1  0  0  0  0
  9 26  1  1  0  0  0
 11  3  1  0  0  0  0
 12  8  2  0  0  0  0
 12 13  1  0  0  0  0
 13 11  1  0  0  0  0
 14 23  1  1  0  0  0
 14 22  1  0  0  0  0
 15  9  1  0  0  0  0
 17 10  1  1  0  0  0
 17  8  1  0  0  0  0
 18 15  1  0  0  0  0
 19 16  1  6  0  0  0
 19  7  1  0  0  0  0
 20 10  1  0  0  0  0
 21  4  2  0  0  0  0
 22 13  2  0  0  0  0
 22 21  1  0  0  0  0
 27  2  1  0  0  0  0
 27 14  1  0  0  0  0
 28 23  1  0  0  0  0
 29 20  1  0  0  0  0
 30 32  1  0  0  0  0
 30 29  1  0  0  0  0
 31 30  2  0  0  0  0
M  END
>  <MODEL>
7

>  <REMARK>
 VINA RESULT:      -8.2      2.755      6.946
  Name = 
  1 active torsions:
  status: ('A' for Active; 'I' for Inactive)
    1  A    between atoms: C_29  and  C_30
                            x       y       z     vdW  Elec       q    Type
                         _______ _______ _______ _____ _____    ______ ____

>  <TORSDO>
F 1

$$$$
=
 OpenBabel11122410383D

 32 38  0  0  1  0  0  0  0  0999 V2000
  182.8030  178.9700  139.0940 C   0  0  2  0  0  3  0  0  0  0  0  0
  187.4970  177.7580  139.7810 C   0  0  1  0  0  3  0  0  0  0  0  0
  189.9790  177.9820  144.1900 C   0  0  0  0  0  2  0  0  0  0  0  0
  190.9460  176.9990  143.5930 C   0  0  0  0  0  3  0  0  0  0  0  0
  188.8990  177.2470  137.6870 C   0  0  2  0  0  3  0  0  0  0  0  0
  190.3420  177.1100  137.2180 C   0  0  2  0  0  3  0  0  0  0  0  0
  185.3080  178.6180  139.6570 C   0  0  1  0  0  3  0  0  0  0  0  0
  186.5580  178.8150  141.8190 C   0  0  0  0  0  3  0  0  0  0  0  0
  192.2750  175.7710  137.2260 C   0  0  1  0  0  3  0  0  0  0  0  0
  184.0860  179.1720  141.8290 C   0  0  0  0  0  2  0  0  0  0  0  0
  188.7700  178.0340  143.4290 O   0  0  0  0  0  0  0  0  0  0  0  0
  187.5780  178.1670  141.2420 C   0  0  0  0  0  0  0  0  0  0  0  0
  188.7470  177.7650  142.0530 C   0  0  0  0  0  0  0  0  0  0  0  0
  189.7720  176.7340  140.0360 C   0  0  2  0  0  3  0  0  0  0  0  0
  191.7870  176.0040  135.7950 C   0  0  0  0  0  2  0  0  0  0  0  0
  183.5390  178.2420  137.9770 C   0  0  0  0  0  2  0  0  0  0  0  0
  185.3790  179.3070  141.0250 C   0  0  2  0  0  3  0  0  0  0  0  0
  190.4780  176.6690  135.8410 N   0  0  0  0  0  2  0  0  0  0  0  0
  184.2760  179.2930  138.7720 C   0  0  1  0  0  3  0  0  0  0  0  0
  183.3550  177.8770  141.4990 C   0  0  0  0  0  2  0  0  0  0  0  0
  190.8520  176.6570  142.3430 N   0  0  0  0  0  0  0  0  0  0  0  0
  189.7950  177.1330  141.4930 C   0  0  0  0  0  0  0  0  0  0  0  0
  191.1870  176.5640  139.4670 C   0  0  0  0  0  2  0  0  0  0  0  0
  186.6250  178.6630  139.0300 N   0  0  0  0  0  2  0  0  0  0  0  0
  188.2620  178.2060  136.8960 O   0  0  0  0  0  1  0  0  0  0  0  0
  193.4160  176.7340  137.5210 C   0  0  0  0  0  1  0  0  0  0  0  0
  188.9060  177.6920  139.1720 C   0  0  2  0  0  3  0  0  0  0  0  0
  191.0380  176.0730  138.0370 C   0  0  1  0  0  3  0  0  0  0  0  0
  182.4400  178.0220  140.2750 C   0  0  2  0  0  3  0  0  0  0  0  0
  181.8330  176.7190  139.8630 C   0  0  0  0  0  0  0  0  0  0  0  0
  180.4860  176.6450  139.5290 O   0  0  0  0  0  0  0  0  0  0  0  0
  182.5410  175.6790  139.8390 O   0  0  0  0  0  1  0  0  0  0  0  0
  1 16  1  6  0  0  0
  1 29  1  0  0  0  0
  2 24  1  6  0  0  0
  2 12  1  0  0  0  0
  4  3  1  0  0  0  0
  5 25  1  6  0  0  0
  5 27  1  0  0  0  0
  6 18  1  6  0  0  0
  6  5  1  0  0  0  0
  6 28  1  0  0  0  0
  7 24  1  6  0  0  0
  7 17  1  0  0  0  0
  9 26  1  1  0  0  0
  9 28  1  0  0  0  0
 11  3  1  0  0  0  0
 12  8  2  0  0  0  0
 12 13  1  0  0  0  0
 13 11  1  0  0  0  0
 14 23  1  6  0  0  0
 14 22  1  0  0  0  0
 15 18  1  0  0  0  0
 15  9  1  0  0  0  0
 17  8  1  1  0  0  0
 17 10  1  0  0  0  0
 19 16  1  6  0  0  0
 19  1  1  0  0  0  0
 19  7  1  0  0  0  0
 20 10  1  0  0  0  0
 21  4  2  0  0  0  0
 22 13  2  0  0  0  0
 22 21  1  0  0  0  0
 27  2  1  0  0  0  0
 27 14  1  0  0  0  0
 28 23  1  0  0  0  0
 29 20  1  0  0  0  0
 30 29  1  0  0  0  0
 31 30  2  0  0  0  0
 32 30  1  0  0  0  0
M  END
>  <MODEL>
8

>  <REMARK>
 VINA RESULT:      -8.0      2.757      7.326
  Name = 
  1 active torsions:
  status: ('A' for Active; 'I' for Inactive)
    1  A    between atoms: C_29  and  C_30
                            x       y       z     vdW  Elec       q    Type
                         _______ _______ _______ _____ _____    ______ ____

>  <TORSDO>
F 1

$$$$
=
 OpenBabel11122410383D

 32 38  0  0  1  0  0  0  0  0999 V2000
  184.9820  177.1610  136.3570 C   0  0  2  0  0  3  0  0  0  0  0  0
  184.0090  178.1790  141.0470 C   0  0  1  0  0  3  0  0  0  0  0  0
  179.6710  180.1170  142.7980 C   0  0  0  0  0  2  0  0  0  0  0  0
  180.0650  179.5590  144.1350 C   0  0  0  0  0  3  0  0  0  0  0  0
  185.9540  177.9940  142.7180 C   0  0  2  0  0  3  0  0  0  0  0  0
  186.3660  178.4120  144.1240 C   0  0  2  0  0  3  0  0  0  0  0  0
  184.3230  177.9980  138.7190 C   0  0  1  0  0  3  0  0  0  0  0  0
  182.2110  179.0400  139.5710 C   0  0  0  0  0  3  0  0  0  0  0  0
  186.0860  178.0390  146.4290 C   0  0  1  0  0  3  0  0  0  0  0  0
  182.3070  178.3090  137.1850 C   0  0  0  0  0  2  0  0  0  0  0  0
  180.4490  179.5330  141.7510 O   0  0  0  0  0  0  0  0  0  0  0  0
  182.6450  178.8050  140.8170 C   0  0  0  0  0  0  0  0  0  0  0  0
  181.7540  179.0690  141.9670 C   0  0  0  0  0  0  0  0  0  0  0  0
  183.5360  178.2720  143.5080 C   0  0  2  0  0  3  0  0  0  0  0  0
  187.5430  177.8180  146.0220 C   0  0  0  0  0  2  0  0  0  0  0  0
  185.9380  176.6500  137.4280 C   0  0  0  0  0  2  0  0  0  0  0  0
  183.1000  178.8550  138.3720 C   0  0  2  0  0  3  0  0  0  0  0  0
  187.6390  177.8630  144.5570 N   0  0  0  0  0  2  0  0  0  0  0  0
  185.3320  178.0240  137.5860 C   0  0  1  0  0  3  0  0  0  0  0  0
  182.4120  176.7930  137.0910 C   0  0  0  0  0  2  0  0  0  0  0  0
  181.2350  179.0200  144.3070 N   0  0  0  0  0  0  0  0  0  0  0  0
  182.1740  178.8630  143.2290 C   0  0  0  0  0  0  0  0  0  0  0  0
  184.0410  178.6320  144.9110 C   0  0  0  0  0  2  0  0  0  0  0  0
  184.9260  178.4990  139.9500 N   0  0  0  0  0  2  0  0  0  0  0  0
  186.9150  178.4560  141.8160 O   0  0  0  0  0  1  0  0  0  0  0  0
  185.9490  179.4290  147.0360 C   0  0  0  0  0  1  0  0  0  0  0  0
  184.5730  178.6240  142.4050 C   0  0  2  0  0  3  0  0  0  0  0  0
  185.3630  177.9090  145.1100 C   0  0  1  0  0  3  0  0  0  0  0  0
  183.6570  176.3440  136.3140 C   0  0  2  0  0  3  0  0  0  0  0  0
  183.8390  174.8600  136.3430 C   0  0  0  0  0  0  0  0  0  0  0  0
  184.0560  174.1550  135.1650 O   0  0  0  0  0  0  0  0  0  0  0  0
  183.7760  174.2430  137.4390 O   0  0  0  0  0  1  0  0  0  0  0  0
  1 16  1  1  0  0  0
  1 19  1  0  0  0  0
  2 24  1  6  0  0  0
  2 27  1  0  0  0  0
  3  4  1  0  0  0  0
  4 21  2  0  0  0  0
  5 25  1  6  0  0  0
  5  6  1  0  0  0  0
  6 18  1  1  0  0  0
  6 28  1  0  0  0  0
  7 24  1  1  0  0  0
  8 12  2  0  0  0  0
  9 26  1  6  0  0  0
 11 13  1  0  0  0  0
 11  3  1  0  0  0  0
 12  2  1  0  0  0  0
 12 13  1  0  0  0  0
 13 22  2  0  0  0  0
 14 23  1  1  0  0  0
 15  9  1  0  0  0  0
 17 10  1  6  0  0  0
 17  7  1  0  0  0  0
 17  8  1  0  0  0  0
 18 15  1  0  0  0  0
 19 16  1  1  0  0  0
 19  7  1  0  0  0  0
 20 10  1  0  0  0  0
 22 14  1  0  0  0  0
 22 21  1  0  0  0  0
 23 28  1  0  0  0  0
 27  5  1  0  0  0  0
 27 14  1  0  0  0  0
 28  9  1  0  0  0  0
 29 30  1  0  0  0  0
 29  1  1  0  0  0  0
 29 20  1  0  0  0  0
 30 32  1  0  0  0  0
 31 30  2  0  0  0  0
M  END
>  <MODEL>
9

>  <REMARK>
 VINA RESULT:      -7.9      4.047      5.649
  Name = 
  1 active torsions:
  status: ('A' for Active; 'I' for Inactive)
    1  A    between atoms: C_29  and  C_30
                            x       y       z     vdW  Elec       q    Type
                         _______ _______ _______ _____ _____    ______ ____

>  <TORSDO>
F 1

$$$$
