=
 OpenBabel11122410343D

 30 35  0  0  1  0  0  0  0  0999 V2000
  186.5270  178.2540  139.6010 C   0  0  1  0  0  3  0  0  0  0  0  0
  187.8110  178.7970  137.4440 C   0  0  0  0  0  0  0  0  0  0  0  0
  189.9790  176.9030  141.5260 N   0  0  0  0  0  2  0  0  0  0  0  0
  186.6930  178.6650  141.0740 C   0  0  1  0  0  3  0  0  0  0  0  0
  185.4370  178.9600  139.0530 O   0  0  0  0  0  0  0  0  0  0  0  0
  183.1090  178.3940  141.7020 O   0  0  0  0  0  0  0  0  0  0  0  0
  186.0930  177.9870  144.2440 C   0  0  1  0  0  3  0  0  0  0  0  0
  184.2170  178.4460  141.1000 C   0  0  0  0  0  0  0  0  0  0  0  0
  187.5940  178.0350  144.1310 C   0  0  1  0  0  3  0  0  0  0  0  0
  189.4630  176.7570  142.8970 C   0  0  2  0  0  3  0  0  0  0  0  0
  184.2380  178.4240  139.5900 C   0  0  2  0  0  3  0  0  0  0  0  0
  185.4520  178.4900  141.8420 N   0  0  0  0  0  0  0  0  0  0  0  0
  189.1060  178.7210  136.6930 C   0  0  0  0  0  2  0  0  0  0  0  0
  188.0630  177.4500  145.4490 C   0  0  0  0  0  2  0  0  0  0  0  0
  185.7940  178.3310  145.6880 C   0  0  0  0  0  2  0  0  0  0  0  0
  186.7680  179.1530  136.8340 O   0  0  0  0  0  0  0  0  0  0  0  0
  188.8090  177.2960  140.7590 C   0  0  1  0  0  3  0  0  0  0  0  0
  189.9360  177.5870  137.2270 C   0  0  0  0  0  3  0  0  0  0  0  0
  187.7890  178.4710  138.8520 N   0  0  0  0  0  0  0  0  0  0  0  0
  187.9900  178.1150  141.7000 C   0  0  2  0  0  3  0  0  0  0  0  0
  189.5400  175.3020  143.3200 C   0  0  0  0  0  1  0  0  0  0  0  0
  188.0010  177.2280  142.9070 C   0  0  2  0  0  3  0  0  0  0  0  0
  187.0060  177.8490  146.4700 C   0  0  0  0  0  2  0  0  0  0  0  0
  184.8160  179.9110  143.5860 O   0  0  0  0  0  0  0  0  0  0  0  0
  189.9250  177.2870  138.5320 C   0  0  0  0  0  3  0  0  0  0  0  0
  189.0800  178.0910  139.4860 C   0  0  2  0  0  3  0  0  0  0  0  0
  185.4200  178.8610  143.2300 C   0  0  0  0  0  0  0  0  0  0  0  0
  183.9300  177.0280  139.0450 C   0  0  0  0  0  2  0  0  0  0  0  0
  184.8610  176.1790  136.8930 C   0  0  0  0  0  1  0  0  0  0  0  0
  183.7930  177.0480  137.5310 C   0  0  0  0  0  2  0  0  0  0  0  0
  1  5  1  6  0  0  0
  1  4  1  0  0  0  0
  2 19  1  0  0  0  0
  3 10  1  0  0  0  0
  4 20  1  0  0  0  0
  4 12  1  1  0  0  0
  5 11  1  0  0  0  0
  7 15  1  1  0  0  0
  8  6  2  0  0  0  0
  8 12  1  0  0  0  0
  9  7  1  0  0  0  0
  9 14  1  1  0  0  0
 10 22  1  0  0  0  0
 10 21  1  6  0  0  0
 11 28  1  1  0  0  0
 11  8  1  0  0  0  0
 12 27  1  0  0  0  0
 13 18  1  0  0  0  0
 13  2  1  0  0  0  0
 14 23  1  0  0  0  0
 15 23  1  0  0  0  0
 16  2  2  0  0  0  0
 17  3  1  1  0  0  0
 17 20  1  0  0  0  0
 18 25  2  0  0  0  0
 19 26  1  0  0  0  0
 19  1  1  0  0  0  0
 20 22  1  0  0  0  0
 22  9  1  0  0  0  0
 25 26  1  0  0  0  0
 26 17  1  0  0  0  0
 27 24  2  0  0  0  0
 27  7  1  0  0  0  0
 29 30  1  0  0  0  0
 30 28  1  0  0  0  0
M  END
>  <MODEL>
1

>  <REMARK>
 VINA RESULT:      -8.5      0.000      0.000
  Name = 
  2 active torsions:
  status: ('A' for Active; 'I' for Inactive)
    1  A    between atoms: C_11  and  C_28
    2  A    between atoms: C_28  and  C_30
                            x       y       z     vdW  Elec       q    Type
                         _______ _______ _______ _____ _____    ______ ____

>  <TORSDO>
F 2

$$$$
=
 OpenBabel11122410343D

 30 35  0  0  1  0  0  0  0  0999 V2000
  187.8790  177.7850  140.4130 C   0  0  1  0  0  3  0  0  0  0  0  0
  185.6670  179.0890  140.3100 C   0  0  0  0  0  0  0  0  0  0  0  0
  187.4820  176.4550  136.4730 N   0  0  0  0  0  2  0  0  0  0  0  0
  189.1590  177.7860  139.5600 C   0  0  1  0  0  3  0  0  0  0  0  0
  188.1410  178.4550  141.6250 O   0  0  0  0  0  0  0  0  0  0  0  0
  191.2300  176.8430  142.4110 O   0  0  0  0  0  0  0  0  0  0  0  0
  191.8580  176.1680  138.5790 C   0  0  1  0  0  3  0  0  0  0  0  0
  190.2400  177.2180  141.7250 C   0  0  0  0  0  0  0  0  0  0  0  0
  191.0950  176.4590  137.3140 C   0  0  1  0  0  3  0  0  0  0  0  0
  188.8130  175.8580  136.2730 C   0  0  2  0  0  3  0  0  0  0  0  0
  188.9660  177.6240  142.4270 C   0  0  2  0  0  3  0  0  0  0  0  0
  190.3090  177.2280  140.2850 N   0  0  0  0  0  0  0  0  0  0  0  0
  184.4280  179.4120  139.5310 C   0  0  0  0  0  2  0  0  0  0  0  0
  191.7950  175.6010  136.2780 C   0  0  0  0  0  2  0  0  0  0  0  0
  193.3050  176.0470  138.1490 C   0  0  0  0  0  2  0  0  0  0  0  0
  185.7470  179.4500  141.5140 O   0  0  0  0  0  0  0  0  0  0  0  0
  187.5010  176.8770  137.8640 C   0  0  1  0  0  3  0  0  0  0  0  0
  184.1370  178.3040  138.5580 C   0  0  0  0  0  3  0  0  0  0  0  0
  186.7480  178.3810  139.6600 N   0  0  0  0  0  0  0  0  0  0  0  0
  188.9150  177.2730  138.1270 C   0  0  2  0  0  3  0  0  0  0  0  0
  188.6720  174.3700  136.0170 C   0  0  0  0  0  1  0  0  0  0  0  0
  189.6360  176.0940  137.5480 C   0  0  2  0  0  3  0  0  0  0  0  0
  193.2520  175.5420  136.7160 C   0  0  0  0  0  2  0  0  0  0  0  0
  192.4980  177.9960  139.9980 O   0  0  0  0  0  0  0  0  0  0  0  0
  185.1350  177.6520  137.9470 C   0  0  0  0  0  3  0  0  0  0  0  0
  186.5670  178.0270  138.2270 C   0  0  2  0  0  3  0  0  0  0  0  0
  191.5950  177.1860  139.6470 C   0  0  0  0  0  0  0  0  0  0  0  0
  188.2140  176.4080  142.9710 C   0  0  0  0  0  2  0  0  0  0  0  0
  188.1710  177.5570  145.1840 C   0  0  0  0  0  1  0  0  0  0  0  0
  187.3530  176.7850  144.1670 C   0  0  0  0  0  2  0  0  0  0  0  0
  1  5  1  1  0  0  0
  2 16  2  0  0  0  0
  4 12  1  1  0  0  0
  4  1  1  0  0  0  0
  5 11  1  0  0  0  0
  7 15  1  6  0  0  0
  7 27  1  0  0  0  0
  8  6  2  0  0  0  0
  8 11  1  0  0  0  0
  9 14  1  6  0  0  0
  9 22  1  0  0  0  0
  9  7  1  0  0  0  0
 10 21  1  1  0  0  0
 10  3  1  0  0  0  0
 10 22  1  0  0  0  0
 11 28  1  6  0  0  0
 12  8  1  0  0  0  0
 13  2  1  0  0  0  0
 14 23  1  0  0  0  0
 17  3  1  6  0  0  0
 17 20  1  0  0  0  0
 17 26  1  0  0  0  0
 18 13  1  0  0  0  0
 19  2  1  0  0  0  0
 19  1  1  0  0  0  0
 20  4  1  0  0  0  0
 22 20  1  0  0  0  0
 23 15  1  0  0  0  0
 25 26  1  0  0  0  0
 25 18  2  0  0  0  0
 26 19  1  0  0  0  0
 27 24  2  0  0  0  0
 27 12  1  0  0  0  0
 28 30  1  0  0  0  0
 30 29  1  0  0  0  0
M  END
>  <MODEL>
2

>  <REMARK>
 VINA RESULT:      -7.9      2.686      6.602
  Name = 
  2 active torsions:
  status: ('A' for Active; 'I' for Inactive)
    1  A    between atoms: C_11  and  C_28
    2  A    between atoms: C_28  and  C_30
                            x       y       z     vdW  Elec       q    Type
                         _______ _______ _______ _____ _____    ______ ____

>  <TORSDO>
F 2

$$$$
=
 OpenBabel11122410343D

 30 35  0  0  1  0  0  0  0  0999 V2000
  185.8310  177.9550  139.0850 C   0  0  1  0  0  3  0  0  0  0  0  0
  187.5730  178.4660  137.2660 C   0  0  0  0  0  0  0  0  0  0  0  0
  188.7220  177.9500  142.1000 N   0  0  0  0  0  2  0  0  0  0  0  0
  185.4390  178.6340  140.4080 C   0  0  1  0  0  3  0  0  0  0  0  0
  184.8400  178.2320  138.1210 O   0  0  0  0  0  0  0  0  0  0  0  0
  181.9850  177.4920  140.1360 O   0  0  0  0  0  0  0  0  0  0  0  0
  184.0470  178.3530  143.3820 C   0  0  1  0  0  3  0  0  0  0  0  0
  183.1860  177.7470  139.8460 C   0  0  0  0  0  0  0  0  0  0  0  0
  185.4610  178.7950  143.6520 C   0  0  1  0  0  3  0  0  0  0  0  0
  187.8510  177.8970  143.2850 C   0  0  2  0  0  3  0  0  0  0  0  0
  183.6800  177.4810  138.4440 C   0  0  2  0  0  3  0  0  0  0  0  0
  184.0900  178.2540  140.8480 N   0  0  0  0  0  0  0  0  0  0  0  0
  189.0210  178.6270  136.9160 C   0  0  0  0  0  2  0  0  0  0  0  0
  185.6130  178.5900  145.1470 C   0  0  0  0  0  2  0  0  0  0  0  0
  183.2480  178.8370  144.5750 C   0  0  0  0  0  2  0  0  0  0  0  0
  186.7200  178.4130  136.3410 O   0  0  0  0  0  0  0  0  0  0  0  0
  187.7920  177.8720  140.9860 C   0  0  1  0  0  3  0  0  0  0  0  0
  189.8680  177.8710  137.9000 C   0  0  0  0  0  3  0  0  0  0  0  0
  187.1850  178.3850  138.6570 N   0  0  0  0  0  0  0  0  0  0  0  0
  186.5650  178.5760  141.4590 C   0  0  2  0  0  3  0  0  0  0  0  0
  188.1050  176.6120  144.0490 C   0  0  0  0  0  1  0  0  0  0  0  0
  186.3920  177.9410  142.8050 C   0  0  2  0  0  3  0  0  0  0  0  0
  184.2320  178.8450  145.7350 C   0  0  0  0  0  2  0  0  0  0  0  0
  182.6530  179.7120  141.9770 O   0  0  0  0  0  0  0  0  0  0  0  0
  189.5180  177.8020  139.1920 C   0  0  0  0  0  3  0  0  0  0  0  0
  188.2660  178.4870  139.6740 C   0  0  2  0  0  3  0  0  0  0  0  0
  183.5500  178.8270  142.0500 C   0  0  0  0  0  0  0  0  0  0  0  0
  183.8640  175.9840  138.1880 C   0  0  0  0  0  2  0  0  0  0  0  0
  185.6380  175.0380  136.7110 C   0  0  0  0  0  1  0  0  0  0  0  0
  184.2830  175.7200  136.7510 C   0  0  0  0  0  2  0  0  0  0  0  0
  1  5  1  6  0  0  0
  1  4  1  0  0  0  0
  2 19  1  0  0  0  0
  3 10  1  0  0  0  0
  4 12  1  1  0  0  0
  4 20  1  0  0  0  0
  5 11  1  0  0  0  0
  7  9  1  0  0  0  0
  7 15  1  1  0  0  0
  8  6  2  0  0  0  0
  8 12  1  0  0  0  0
  9 14  1  1  0  0  0
 10 21  1  6  0  0  0
 11 28  1  1  0  0  0
 11  8  1  0  0  0  0
 12 27  1  0  0  0  0
 13  2  1  0  0  0  0
 13 18  1  0  0  0  0
 14 23  1  0  0  0  0
 15 23  1  0  0  0  0
 16  2  2  0  0  0  0
 17 20  1  0  0  0  0
 17  3  1  1  0  0  0
 18 25  2  0  0  0  0
 19  1  1  0  0  0  0
 19 26  1  0  0  0  0
 20 22  1  0  0  0  0
 22 10  1  0  0  0  0
 22  9  1  0  0  0  0
 24 27  2  0  0  0  0
 25 26  1  0  0  0  0
 26 17  1  0  0  0  0
 27  7  1  0  0  0  0
 29 30  1  0  0  0  0
 30 28  1  0  0  0  0
M  END
>  <MODEL>
3

>  <REMARK>
 VINA RESULT:      -7.9      1.242      1.762
  Name = 
  2 active torsions:
  status: ('A' for Active; 'I' for Inactive)
    1  A    between atoms: C_11  and  C_28
    2  A    between atoms: C_28  and  C_30
                            x       y       z     vdW  Elec       q    Type
                         _______ _______ _______ _____ _____    ______ ____

>  <TORSDO>
F 2

$$$$
=
 OpenBabel11122410343D

 30 35  0  0  1  0  0  0  0  0999 V2000
  185.9860  178.4090  141.8940 C   0  0  1  0  0  3  0  0  0  0  0  0
  184.3690  179.4400  143.6040 C   0  0  0  0  0  0  0  0  0  0  0  0
  182.9310  177.7920  139.1120 N   0  0  0  0  0  2  0  0  0  0  0  0
  186.3260  178.7180  140.4260 C   0  0  1  0  0  3  0  0  0  0  0  0
  187.0390  178.8700  142.7100 O   0  0  0  0  0  0  0  0  0  0  0  0
  189.7480  177.5150  140.8170 O   0  0  0  0  0  0  0  0  0  0  0  0
  187.5370  177.6390  137.5560 C   0  0  1  0  0  3  0  0  0  0  0  0
  188.5750  177.8920  141.0880 C   0  0  0  0  0  0  0  0  0  0  0  0
  186.1270  178.0670  137.2500 C   0  0  1  0  0  3  0  0  0  0  0  0
  183.7320  177.4030  137.9400 C   0  0  2  0  0  3  0  0  0  0  0  0
  188.1530  178.0080  142.5340 C   0  0  2  0  0  3  0  0  0  0  0  0
  187.6350  178.1760  140.0340 N   0  0  0  0  0  0  0  0  0  0  0  0
  182.9500  179.7530  143.9680 C   0  0  0  0  0  2  0  0  0  0  0  0
  185.8840  177.5030  135.8630 C   0  0  0  0  0  2  0  0  0  0  0  0
  188.2850  177.7710  136.2460 C   0  0  0  0  0  2  0  0  0  0  0  0
  185.2710  179.5780  144.4720 O   0  0  0  0  0  0  0  0  0  0  0  0
  183.9190  177.9490  140.1660 C   0  0  1  0  0  3  0  0  0  0  0  0
  182.0220  178.8170  143.2450 C   0  0  0  0  0  3  0  0  0  0  0  0
  184.6750  178.9970  142.2610 N   0  0  0  0  0  0  0  0  0  0  0  0
  185.1420  178.4540  139.4750 C   0  0  2  0  0  3  0  0  0  0  0  0
  183.3900  175.9820  137.5360 C   0  0  0  0  0  1  0  0  0  0  0  0
  185.2160  177.4960  138.3260 C   0  0  2  0  0  3  0  0  0  0  0  0
  187.2380  177.5360  135.1670 C   0  0  0  0  0  2  0  0  0  0  0  0
  189.0550  179.2360  138.5100 O   0  0  0  0  0  0  0  0  0  0  0  0
  182.2960  178.4110  141.9980 C   0  0  0  0  0  3  0  0  0  0  0  0
  183.5420  178.8940  141.3020 C   0  0  2  0  0  3  0  0  0  0  0  0
  188.1260  178.4040  138.7030 C   0  0  0  0  0  0  0  0  0  0  0  0
  187.9310  176.6320  143.1650 C   0  0  0  0  0  2  0  0  0  0  0  0
  188.7710  177.4400  145.3700 C   0  0  0  0  0  1  0  0  0  0  0  0
  187.6260  176.7530  144.6500 C   0  0  0  0  0  2  0  0  0  0  0  0
  1 19  1  0  0  0  0
  1  5  1  1  0  0  0
  2 13  1  0  0  0  0
  2 16  2  0  0  0  0
  4 12  1  6  0  0  0
  4  1  1  0  0  0  0
  6  8  2  0  0  0  0
  7 15  1  6  0  0  0
  7 27  1  0  0  0  0
  8 11  1  0  0  0  0
  9 14  1  6  0  0  0
  9  7  1  0  0  0  0
  9 22  1  0  0  0  0
 10 21  1  1  0  0  0
 10 22  1  0  0  0  0
 10  3  1  0  0  0  0
 11  5  1  0  0  0  0
 11 28  1  6  0  0  0
 12  8  1  0  0  0  0
 17  3  1  6  0  0  0
 17 26  1  0  0  0  0
 18 13  1  0  0  0  0
 19  2  1  0  0  0  0
 20 17  1  0  0  0  0
 20  4  1  0  0  0  0
 22 20  1  0  0  0  0
 23 14  1  0  0  0  0
 23 15  1  0  0  0  0
 24 27  2  0  0  0  0
 25 18  2  0  0  0  0
 26 25  1  0  0  0  0
 26 19  1  0  0  0  0
 27 12  1  0  0  0  0
 28 30  1  0  0  0  0
 30 29  1  0  0  0  0
M  END
>  <MODEL>
4

>  <REMARK>
 VINA RESULT:      -7.5      1.917      7.021
  Name = 
  2 active torsions:
  status: ('A' for Active; 'I' for Inactive)
    1  A    between atoms: C_11  and  C_28
    2  A    between atoms: C_28  and  C_30
                            x       y       z     vdW  Elec       q    Type
                         _______ _______ _______ _____ _____    ______ ____

>  <TORSDO>
F 2

$$$$
=
 OpenBabel11122410343D

 30 35  0  0  1  0  0  0  0  0999 V2000
  184.5540  178.3760  139.0920 C   0  0  1  0  0  3  0  0  0  0  0  0
  182.2440  179.2050  138.3320 C   0  0  0  0  0  0  0  0  0  0  0  0
  184.7700  175.5870  135.9890 N   0  0  0  0  0  2  0  0  0  0  0  0
  185.9180  178.2330  138.3960 C   0  0  1  0  0  3  0  0  0  0  0  0
  184.5980  179.4920  139.9520 O   0  0  0  0  0  0  0  0  0  0  0  0
  187.7270  178.7730  141.5180 O   0  0  0  0  0  0  0  0  0  0  0  0
  188.8710  176.7710  138.3210 C   0  0  1  0  0  3  0  0  0  0  0  0
  186.7910  178.7070  140.6750 C   0  0  0  0  0  0  0  0  0  0  0  0
  188.2370  176.4380  136.9970 C   0  0  1  0  0  3  0  0  0  0  0  0
  186.1710  175.1580  136.1320 C   0  0  2  0  0  3  0  0  0  0  0  0
  185.4070  179.1630  141.0710 C   0  0  2  0  0  3  0  0  0  0  0  0
  187.0280  178.1710  139.3580 N   0  0  0  0  0  0  0  0  0  0  0  0
  181.0780  179.0190  137.4090 C   0  0  0  0  0  2  0  0  0  0  0  0
  189.1410  175.3570  136.4370 C   0  0  0  0  0  2  0  0  0  0  0  0
  190.3640  176.7040  138.0720 C   0  0  0  0  0  2  0  0  0  0  0  0
  182.1420  180.0090  139.2960 O   0  0  0  0  0  0  0  0  0  0  0  0
  184.5790  176.5110  137.0950 C   0  0  1  0  0  3  0  0  0  0  0  0
  181.0240  177.5920  136.9400 C   0  0  0  0  0  3  0  0  0  0  0  0
  183.4630  178.4650  138.0910 N   0  0  0  0  0  0  0  0  0  0  0  0
  185.9010  177.1770  137.2720 C   0  0  2  0  0  3  0  0  0  0  0  0
  186.2210  173.6830  136.4810 C   0  0  0  0  0  1  0  0  0  0  0  0
  186.8080  175.9850  137.2600 C   0  0  2  0  0  3  0  0  0  0  0  0
  190.5340  175.6830  136.9570 C   0  0  0  0  0  2  0  0  0  0  0  0
  189.1410  179.0760  138.9350 O   0  0  0  0  0  0  0  0  0  0  0  0
  182.1510  176.9060  136.7060 C   0  0  0  0  0  3  0  0  0  0  0  0
  183.4920  177.5630  136.9080 C   0  0  2  0  0  3  0  0  0  0  0  0
  188.3780  178.0730  138.8760 C   0  0  0  0  0  0  0  0  0  0  0  0
  184.7300  178.1560  142.0030 C   0  0  0  0  0  2  0  0  0  0  0  0
  185.5390  178.3220  144.3570 C   0  0  0  0  0  1  0  0  0  0  0  0
  184.4720  178.7640  143.3730 C   0  0  0  0  0  2  0  0  0  0  0  0
  1  5  1  6  0  0  0
  2 16  2  0  0  0  0
  3 10  1  0  0  0  0
  4  1  1  0  0  0  0
  4 12  1  1  0  0  0
  5 11  1  0  0  0  0
  7 15  1  6  0  0  0
  7 27  1  0  0  0  0
  8 11  1  0  0  0  0
  8  6  2  0  0  0  0
  9 14  1  1  0  0  0
  9 22  1  0  0  0  0
  9  7  1  0  0  0  0
 10 21  1  1  0  0  0
 10 22  1  0  0  0  0
 11 28  1  6  0  0  0
 12  8  1  0  0  0  0
 13  2  1  0  0  0  0
 14 23  1  0  0  0  0
 17  3  1  6  0  0  0
 17 20  1  0  0  0  0
 18 13  1  0  0  0  0
 19  2  1  0  0  0  0
 19  1  1  0  0  0  0
 20  4  1  0  0  0  0
 22 20  1  0  0  0  0
 23 15  1  0  0  0  0
 25 26  1  0  0  0  0
 25 18  2  0  0  0  0
 26 17  1  0  0  0  0
 26 19  1  0  0  0  0
 27 24  2  0  0  0  0
 27 12  1  0  0  0  0
 28 30  1  0  0  0  0
 30 29  1  0  0  0  0
M  END
>  <MODEL>
5

>  <REMARK>
 VINA RESULT:      -7.2      2.275      6.336
  Name = 
  2 active torsions:
  status: ('A' for Active; 'I' for Inactive)
    1  A    between atoms: C_11  and  C_28
    2  A    between atoms: C_28  and  C_30
                            x       y       z     vdW  Elec       q    Type
                         _______ _______ _______ _____ _____    ______ ____

>  <TORSDO>
F 2

$$$$
=
 OpenBabel11122410343D

 30 35  0  0  1  0  0  0  0  0999 V2000
  187.2550  177.7370  142.9600 C   0  0  1  0  0  3  0  0  0  0  0  0
  184.7150  178.0690  142.7760 C   0  0  0  0  0  0  0  0  0  0  0  0
  187.2120  178.3240  147.0960 N   0  0  0  0  0  2  0  0  0  0  0  0
  188.1530  176.8040  143.7910 C   0  0  1  0  0  3  0  0  0  0  0  0
  187.2240  177.2700  141.6300 O   0  0  0  0  0  0  0  0  0  0  0  0
  190.7340  176.7560  141.2140 O   0  0  0  0  0  0  0  0  0  0  0  0
  191.1220  176.2280  145.1010 C   0  0  1  0  0  3  0  0  0  0  0  0
  189.6360  176.9540  141.8020 C   0  0  0  0  0  0  0  0  0  0  0  0
  190.1760  176.2520  146.2720 C   0  0  1  0  0  3  0  0  0  0  0  0
  188.5940  177.9340  147.4200 C   0  0  2  0  0  3  0  0  0  0  0  0
  188.4810  177.5430  141.0290 C   0  0  2  0  0  3  0  0  0  0  0  0
  189.4920  176.6550  143.2050 N   0  0  0  0  0  0  0  0  0  0  0  0
  183.4380  178.4450  143.4660 C   0  0  0  0  0  2  0  0  0  0  0  0
  191.1040  176.3050  147.4700 C   0  0  0  0  0  2  0  0  0  0  0  0
  192.2810  175.3600  145.5460 C   0  0  0  0  0  2  0  0  0  0  0  0
  184.7230  177.9510  141.5220 O   0  0  0  0  0  0  0  0  0  0  0  0
  187.1590  178.2280  145.6460 C   0  0  1  0  0  3  0  0  0  0  0  0
  183.7410  179.3090  144.6580 C   0  0  0  0  0  3  0  0  0  0  0  0
  185.9050  177.8400  143.5650 N   0  0  0  0  0  0  0  0  0  0  0  0
  188.0750  177.1010  145.3020 C   0  0  2  0  0  3  0  0  0  0  0  0
  189.3390  179.1230  147.9960 C   0  0  0  0  0  1  0  0  0  0  0  0
  189.2730  177.4670  146.1240 C   0  0  2  0  0  3  0  0  0  0  0  0
  192.3490  175.5330  147.0560 C   0  0  0  0  0  2  0  0  0  0  0  0
  190.7240  174.6710  143.3160 O   0  0  0  0  0  0  0  0  0  0  0  0
  184.8380  179.0950  145.3970 C   0  0  0  0  0  3  0  0  0  0  0  0
  185.7830  177.9760  145.0410 C   0  0  2  0  0  3  0  0  0  0  0  0
  190.4480  175.7880  143.8360 C   0  0  0  0  0  0  0  0  0  0  0  0
  188.6860  179.0360  140.7640 C   0  0  0  0  0  2  0  0  0  0  0  0
  188.6260  178.0870  138.4580 C   0  0  0  0  0  1  0  0  0  0  0  0
  188.9940  179.2960  139.2980 C   0  0  0  0  0  2  0  0  0  0  0  0
  1  5  1  6  0  0  0
  1 19  1  0  0  0  0
  1  4  1  0  0  0  0
  2 13  1  0  0  0  0
  2 19  1  0  0  0  0
  3 10  1  0  0  0  0
  4 12  1  6  0  0  0
  4 20  1  0  0  0  0
  6  8  2  0  0  0  0
  7 15  1  1  0  0  0
  7  9  1  0  0  0  0
  8 12  1  0  0  0  0
  9 14  1  1  0  0  0
 10 21  1  6  0  0  0
 11 28  1  1  0  0  0
 11  5  1  0  0  0  0
 11  8  1  0  0  0  0
 12 27  1  0  0  0  0
 13 18  1  0  0  0  0
 15 23  1  0  0  0  0
 16  2  2  0  0  0  0
 17  3  1  1  0  0  0
 18 25  2  0  0  0  0
 19 26  1  0  0  0  0
 20 17  1  0  0  0  0
 20 22  1  0  0  0  0
 22  9  1  0  0  0  0
 22 10  1  0  0  0  0
 23 14  1  0  0  0  0
 24 27  2  0  0  0  0
 26 25  1  0  0  0  0
 26 17  1  0  0  0  0
 27  7  1  0  0  0  0
 29 30  1  0  0  0  0
 30 28  1  0  0  0  0
M  END
>  <MODEL>
6

>  <REMARK>
 VINA RESULT:      -6.9      2.905      5.881
  Name = 
  2 active torsions:
  status: ('A' for Active; 'I' for Inactive)
    1  A    between atoms: C_11  and  C_28
    2  A    between atoms: C_28  and  C_30
                            x       y       z     vdW  Elec       q    Type
                         _______ _______ _______ _____ _____    ______ ____

>  <TORSDO>
F 2

$$$$
=
 OpenBabel11122410343D

 30 35  0  0  1  0  0  0  0  0999 V2000
  187.8280  177.1710  137.9750 C   0  0  1  0  0  3  0  0  0  0  0  0
  190.0820  177.0430  136.7490 C   0  0  0  0  0  0  0  0  0  0  0  0
  189.6640  177.1070  141.7270 N   0  0  0  0  0  2  0  0  0  0  0  0
  187.2430  178.1170  139.0380 C   0  0  1  0  0  3  0  0  0  0  0  0
  187.2420  177.4710  136.7290 O   0  0  0  0  0  0  0  0  0  0  0  0
  183.8420  177.6200  137.8150 O   0  0  0  0  0  0  0  0  0  0  0  0
  185.0390  178.5890  141.4430 C   0  0  1  0  0  3  0  0  0  0  0  0
  185.1010  177.5930  137.8910 C   0  0  0  0  0  0  0  0  0  0  0  0
  186.3810  178.7930  142.0960 C   0  0  1  0  0  3  0  0  0  0  0  0
  188.5040  177.4110  142.5810 C   0  0  2  0  0  3  0  0  0  0  0  0
  185.8970  177.0160  136.7440 C   0  0  2  0  0  3  0  0  0  0  0  0
  185.7750  178.0750  139.0700 N   0  0  0  0  0  0  0  0  0  0  0  0
  191.5670  176.8690  136.8530 C   0  0  0  0  0  2  0  0  0  0  0  0
  186.0510  178.8070  143.5760 C   0  0  0  0  0  2  0  0  0  0  0  0
  184.0680  179.4000  142.2740 C   0  0  0  0  0  2  0  0  0  0  0  0
  189.5380  177.0040  135.6140 O   0  0  0  0  0  0  0  0  0  0  0  0
  189.0960  177.0270  140.3910 C   0  0  1  0  0  3  0  0  0  0  0  0
  191.9040  176.1350  138.1220 C   0  0  0  0  0  3  0  0  0  0  0  0
  189.3080  177.2620  137.9510 N   0  0  0  0  0  0  0  0  0  0  0  0
  187.9800  178.0170  140.3880 C   0  0  2  0  0  3  0  0  0  0  0  0
  188.2300  176.2420  143.5060 C   0  0  0  0  0  1  0  0  0  0  0  0
  187.2920  177.6520  141.6680 C   0  0  2  0  0  3  0  0  0  0  0  0
  184.6570  179.4090  143.6770 C   0  0  0  0  0  2  0  0  0  0  0  0
  184.4510  179.9410  139.5480 O   0  0  0  0  0  0  0  0  0  0  0  0
  191.1960  176.3430  139.2400 C   0  0  0  0  0  3  0  0  0  0  0  0
  190.0500  177.3210  139.2390 C   0  0  2  0  0  3  0  0  0  0  0  0
  185.0620  178.9260  139.9830 C   0  0  0  0  0  0  0  0  0  0  0  0
  185.7990  175.4890  136.7060 C   0  0  0  0  0  2  0  0  0  0  0  0
  187.5940  174.0350  135.7670 C   0  0  0  0  0  1  0  0  0  0  0  0
  186.4170  174.9320  135.4330 C   0  0  0  0  0  2  0  0  0  0  0  0
  1  5  1  6  0  0  0
  1  4  1  0  0  0  0
  2 13  1  0  0  0  0
  2 19  1  0  0  0  0
  3 10  1  0  0  0  0
  4 12  1  1  0  0  0
  4 20  1  0  0  0  0
  5 11  1  0  0  0  0
  6  8  2  0  0  0  0
  7  9  1  0  0  0  0
  7 15  1  1  0  0  0
  8 12  1  0  0  0  0
  9 14  1  1  0  0  0
 10 21  1  1  0  0  0
 11 28  1  1  0  0  0
 11  8  1  0  0  0  0
 12 27  1  0  0  0  0
 13 18  1  0  0  0  0
 14 23  1  0  0  0  0
 15 23  1  0  0  0  0
 16  2  2  0  0  0  0
 17  3  1  1  0  0  0
 18 25  2  0  0  0  0
 19  1  1  0  0  0  0
 19 26  1  0  0  0  0
 20 17  1  0  0  0  0
 20 22  1  0  0  0  0
 22  9  1  0  0  0  0
 22 10  1  0  0  0  0
 24 27  2  0  0  0  0
 26 25  1  0  0  0  0
 26 17  1  0  0  0  0
 27  7  1  0  0  0  0
 30 29  1  0  0  0  0
 30 28  1  0  0  0  0
M  END
>  <MODEL>
7

>  <REMARK>
 VINA RESULT:      -6.8      1.764      2.889
  Name = 
  2 active torsions:
  status: ('A' for Active; 'I' for Inactive)
    1  A    between atoms: C_11  and  C_28
    2  A    between atoms: C_28  and  C_30
                            x       y       z     vdW  Elec       q    Type
                         _______ _______ _______ _____ _____    ______ ____

>  <TORSDO>
F 2

$$$$
=
 OpenBabel11122410343D

 30 35  0  0  1  0  0  0  0  0999 V2000
  183.1840  177.7720  140.2740 C   0  0  1  0  0  3  0  0  0  0  0  0
  180.7340  178.1170  140.9660 C   0  0  0  0  0  0  0  0  0  0  0  0
  182.2000  174.6360  137.6960 N   0  0  0  0  0  2  0  0  0  0  0  0
  183.9170  177.7430  138.9220 C   0  0  1  0  0  3  0  0  0  0  0  0
  183.4690  178.9920  140.9200 O   0  0  0  0  0  0  0  0  0  0  0  0
  187.0040  178.9960  140.4100 O   0  0  0  0  0  0  0  0  0  0  0  0
  186.5480  176.7590  137.1970 C   0  0  1  0  0  3  0  0  0  0  0  0
  185.7950  178.6660  140.2640 C   0  0  0  0  0  0  0  0  0  0  0  0
  185.3660  176.1470  136.4920 C   0  0  1  0  0  3  0  0  0  0  0  0
  183.4920  174.4540  137.0150 C   0  0  2  0  0  3  0  0  0  0  0  0
  184.8130  178.9560  141.3740 C   0  0  2  0  0  3  0  0  0  0  0  0
  185.3580  177.9910  139.0680 N   0  0  0  0  0  0  0  0  0  0  0  0
  179.3200  177.6240  140.8910 C   0  0  0  0  0  2  0  0  0  0  0  0
  186.0020  175.1500  135.5430 C   0  0  0  0  0  2  0  0  0  0  0  0
  187.6180  176.8890  136.1330 C   0  0  0  0  0  2  0  0  0  0  0  0
  181.0240  179.0250  141.7880 O   0  0  0  0  0  0  0  0  0  0  0  0
  182.4730  175.6670  138.6830 C   0  0  1  0  0  3  0  0  0  0  0  0
  179.3120  176.1540  140.5790 C   0  0  0  0  0  3  0  0  0  0  0  0
  181.7300  177.5480  140.0850 N   0  0  0  0  0  0  0  0  0  0  0  0
  183.4940  176.5490  138.0450 C   0  0  2  0  0  3  0  0  0  0  0  0
  184.0350  173.0690  137.3120 C   0  0  0  0  0  1  0  0  0  0  0  0
  184.4620  175.5210  137.5440 C   0  0  2  0  0  3  0  0  0  0  0  0
  187.3430  175.7580  135.1540 C   0  0  0  0  0  2  0  0  0  0  0  0
  186.6270  179.1420  137.4770 O   0  0  0  0  0  0  0  0  0  0  0  0
  180.2270  175.6240  139.7570 C   0  0  0  0  0  3  0  0  0  0  0  0
  181.2780  176.5020  139.1290 C   0  0  2  0  0  3  0  0  0  0  0  0
  186.1910  178.0350  137.8980 C   0  0  0  0  0  0  0  0  0  0  0  0
  185.0030  177.9990  142.5540 C   0  0  0  0  0  2  0  0  0  0  0  0
  183.5710  178.8620  144.4050 C   0  0  0  0  0  1  0  0  0  0  0  0
  184.9880  178.7500  143.8760 C   0  0  0  0  0  2  0  0  0  0  0  0
  1  5  1  6  0  0  0
  2 16  2  0  0  0  0
  4 12  1  1  0  0  0
  4  1  1  0  0  0  0
  5 11  1  0  0  0  0
  7 15  1  6  0  0  0
  7 27  1  0  0  0  0
  8  6  2  0  0  0  0
  8 11  1  0  0  0  0
  9 14  1  6  0  0  0
  9  7  1  0  0  0  0
  9 22  1  0  0  0  0
 10 21  1  1  0  0  0
 10 22  1  0  0  0  0
 10  3  1  0  0  0  0
 11 28  1  1  0  0  0
 12  8  1  0  0  0  0
 13  2  1  0  0  0  0
 17  3  1  6  0  0  0
 17 26  1  0  0  0  0
 18 13  1  0  0  0  0
 19  1  1  0  0  0  0
 19  2  1  0  0  0  0
 20 17  1  0  0  0  0
 20  4  1  0  0  0  0
 22 20  1  0  0  0  0
 23 14  1  0  0  0  0
 23 15  1  0  0  0  0
 24 27  2  0  0  0  0
 25 18  2  0  0  0  0
 26 25  1  0  0  0  0
 26 19  1  0  0  0  0
 27 12  1  0  0  0  0
 28 30  1  0  0  0  0
 30 29  1  0  0  0  0
M  END
>  <MODEL>
8

>  <REMARK>
 VINA RESULT:      -6.7      2.709      7.375
  Name = 
  2 active torsions:
  status: ('A' for Active; 'I' for Inactive)
    1  A    between atoms: C_11  and  C_28
    2  A    between atoms: C_28  and  C_30
                            x       y       z     vdW  Elec       q    Type
                         _______ _______ _______ _____ _____    ______ ____

>  <TORSDO>
F 2

$$$$
=
 OpenBabel11122410343D

 30 35  0  0  1  0  0  0  0  0999 V2000
  187.3430  177.9210  143.0550 C   0  0  1  0  0  3  0  0  0  0  0  0
  186.7110  178.7250  145.4120 C   0  0  0  0  0  0  0  0  0  0  0  0
  183.4090  178.2640  141.6920 N   0  0  0  0  0  2  0  0  0  0  0  0
  187.1570  178.5040  141.6430 C   0  0  1  0  0  3  0  0  0  0  0  0
  188.6910  178.0740  143.4350 O   0  0  0  0  0  0  0  0  0  0  0  0
  190.1850  176.8770  140.4200 O   0  0  0  0  0  0  0  0  0  0  0  0
  186.9750  177.9490  138.3990 C   0  0  1  0  0  3  0  0  0  0  0  0
  189.2920  177.3110  141.1980 C   0  0  0  0  0  0  0  0  0  0  0  0
  185.6600  178.5860  138.7620 C   0  0  1  0  0  3  0  0  0  0  0  0
  183.6220  178.0550  140.2510 C   0  0  2  0  0  3  0  0  0  0  0  0
  189.4750  177.1550  142.6900 C   0  0  2  0  0  3  0  0  0  0  0  0
  188.0950  177.9190  140.6750 N   0  0  0  0  0  0  0  0  0  0  0  0
  185.6190  179.1050  146.3650 C   0  0  0  0  0  2  0  0  0  0  0  0
  184.8120  178.3680  137.5230 C   0  0  0  0  0  2  0  0  0  0  0  0
  187.1850  178.2810  136.9360 C   0  0  0  0  0  2  0  0  0  0  0  0
  187.8820  178.5720  145.8500 O   0  0  0  0  0  0  0  0  0  0  0  0
  184.7310  178.0780  142.2650 C   0  0  1  0  0  3  0  0  0  0  0  0
  184.3300  178.4570  145.9430 C   0  0  0  0  0  3  0  0  0  0  0  0
  186.4010  178.5550  144.0100 N   0  0  0  0  0  0  0  0  0  0  0  0
  185.6750  178.5840  141.2260 C   0  0  2  0  0  3  0  0  0  0  0  0
  182.8940  176.8020  139.8030 C   0  0  0  0  0  1  0  0  0  0  0  0
  185.1310  177.8970  140.0110 C   0  0  2  0  0  3  0  0  0  0  0  0
  185.7860  178.4040  136.3530 C   0  0  0  0  0  2  0  0  0  0  0  0
  189.0100  179.1240  138.8920 O   0  0  0  0  0  0  0  0  0  0  0  0
  184.0340  178.3050  144.6450 C   0  0  0  0  0  3  0  0  0  0  0  0
  184.9930  178.7880  143.5890 C   0  0  2  0  0  3  0  0  0  0  0  0
  188.0830  178.3770  139.3130 C   0  0  0  0  0  0  0  0  0  0  0  0
  189.2530  175.7070  143.1330 C   0  0  0  0  0  2  0  0  0  0  0  0
  191.5960  175.9970  143.9360 C   0  0  0  0  0  1  0  0  0  0  0  0
  190.5750  175.0090  143.4060 C   0  0  0  0  0  2  0  0  0  0  0  0
  1  5  1  1  0  0  0
  1 19  1  0  0  0  0
  2 16  2  0  0  0  0
  2 13  1  0  0  0  0
  4 12  1  6  0  0  0
  4  1  1  0  0  0  0
  6  8  2  0  0  0  0
  7 15  1  6  0  0  0
  7  9  1  0  0  0  0
  7 27  1  0  0  0  0
  8 11  1  0  0  0  0
  9 14  1  6  0  0  0
  9 22  1  0  0  0  0
 10 21  1  1  0  0  0
 10  3  1  0  0  0  0
 11 28  1  1  0  0  0
 11  5  1  0  0  0  0
 12  8  1  0  0  0  0
 17  3  1  6  0  0  0
 17 26  1  0  0  0  0
 18 13  1  0  0  0  0
 19  2  1  0  0  0  0
 20  4  1  0  0  0  0
 20 17  1  0  0  0  0
 22 10  1  0  0  0  0
 22 20  1  0  0  0  0
 23 15  1  0  0  0  0
 23 14  1  0  0  0  0
 24 27  2  0  0  0  0
 25 18  2  0  0  0  0
 26 19  1  0  0  0  0
 26 25  1  0  0  0  0
 27 12  1  0  0  0  0
 28 30  1  0  0  0  0
 30 29  1  0  0  0  0
M  END
>  <MODEL>
9

>  <REMARK>
 VINA RESULT:      -6.7      2.100      7.006
  Name = 
  2 active torsions:
  status: ('A' for Active; 'I' for Inactive)
    1  A    between atoms: C_11  and  C_28
    2  A    between atoms: C_28  and  C_30
                            x       y       z     vdW  Elec       q    Type
                         _______ _______ _______ _____ _____    ______ ____

>  <TORSDO>
F 2

$$$$
