=
 OpenBabel11122411053D

 31 35  0  0  1  0  0  0  0  0999 V2000
  184.4650  178.6280  144.7660 C   0  0  0  0  0  0  0  0  0  0  0  0
  188.0600  177.8340  143.9760 C   0  0  0  0  0  0  0  0  0  0  0  0
  188.7260  177.6030  145.2160 C   0  0  0  0  0  0  0  0  0  0  0  0
  187.3970  178.2930  138.7620 O   0  0  0  0  0  0  0  0  0  0  0  0
  188.5990  178.0090  139.0060 C   0  0  0  0  0  0  0  0  0  0  0  0
  188.7690  177.4440  147.6530 C   0  0  0  0  0  0  0  0  0  0  0  0
  186.6780  178.1670  143.8420 C   0  0  0  0  0  0  0  0  0  0  0  0
  183.9570  178.8260  143.4840 C   0  0  0  0  0  3  0  0  0  0  0  0
  188.0780  177.6780  146.4620 C   0  0  0  0  0  3  0  0  0  0  0  0
  188.2500  177.9390  141.5380 C   0  0  0  0  0  0  0  0  0  0  0  0
  183.6540  178.7530  145.8440 F   0  0  0  0  0  0  0  0  0  0  0  0
  190.7670  177.1970  144.0270 N   0  0  0  0  0  0  0  0  0  0  0  0
  187.9300  177.5470  149.1840 Cl  0  0  0  0  0  0  0  0  0  0  0  0
  186.9330  178.2530  141.4510 N   0  0  0  0  0  0  0  0  0  0  0  0
  188.8350  177.7250  142.7920 C   0  0  0  0  0  0  0  0  0  0  0  0
  189.0520  177.8240  140.3540 N   0  0  0  0  0  2  0  0  0  0  0  0
  185.8110  178.3020  144.9410 C   0  0  0  0  0  3  0  0  0  0  0  0
  190.1270  177.1280  147.6210 C   0  0  0  0  0  3  0  0  0  0  0  0
  186.1430  178.3710  142.5460 C   0  0  0  0  0  0  0  0  0  0  0  0
  184.7950  178.6970  142.3770 C   0  0  0  0  0  3  0  0  0  0  0  0
  190.1560  177.4110  142.8660 N   0  0  0  0  0  0  0  0  0  0  0  0
  190.1030  177.2810  145.2040 C   0  0  0  0  0  0  0  0  0  0  0  0
  190.7930  177.0460  146.3970 C   0  0  0  0  0  3  0  0  0  0  0  0
  188.3850  176.3720  135.5940 C   0  0  1  0  0  3  0  0  0  0  0  0
  189.0550  178.5730  136.6000 C   0  0  0  0  0  2  0  0  0  0  0  0
  190.3270  175.7330  138.7180 O   0  0  0  0  0  1  0  0  0  0  0  0
  187.3410  175.6780  134.9850 O   0  0  0  0  0  1  0  0  0  0  0  0
  187.9300  177.7920  135.9200 C   0  0  0  0  0  2  0  0  0  0  0  0
  189.9390  176.4010  137.5550 C   0  0  2  0  0  3  0  0  0  0  0  0
  189.5570  177.8600  137.8600 C   0  0  2  0  0  3  0  0  0  0  0  0
  188.8030  175.6450  136.8690 C   0  0  0  0  0  2  0  0  0  0  0  0
  1 17  1  0  0  0  0
  1 11  1  0  0  0  0
  2  3  1  0  0  0  0
  3  9  1  0  0  0  0
  4  5  2  0  0  0  0
  5 16  1  0  0  0  0
  6 13  1  0  0  0  0
  7  2  1  0  0  0  0
  7 17  2  0  0  0  0
  8  1  2  0  0  0  0
  9  6  2  0  0  0  0
 10 15  1  0  0  0  0
 12 22  1  0  0  0  0
 14 10  2  0  0  0  0
 14 19  1  0  0  0  0
 15 21  1  0  0  0  0
 15  2  2  0  0  0  0
 16 10  1  0  0  0  0
 18  6  1  0  0  0  0
 19  7  1  0  0  0  0
 20 19  2  0  0  0  0
 20  8  1  0  0  0  0
 21 12  2  0  0  0  0
 22  3  2  0  0  0  0
 22 23  1  0  0  0  0
 23 18  2  0  0  0  0
 24 27  1  1  0  0  0
 24 28  1  0  0  0  0
 24 31  1  0  0  0  0
 25 30  1  0  0  0  0
 28 25  1  0  0  0  0
 29 30  1  0  0  0  0
 29 26  1  1  0  0  0
 30  5  1  1  0  0  0
 31 29  1  0  0  0  0
M  END
>  <MODEL>
1

>  <REMARK>
 VINA RESULT:     -12.0      0.000      0.000
  Name = 
  1 active torsions:
  status: ('A' for Active; 'I' for Inactive)
    1  A    between atoms: C_5  and  C_30
                            x       y       z     vdW  Elec       q    Type
                         _______ _______ _______ _____ _____    ______ ____

>  <TORSDO>
F 1

$$$$
=
 OpenBabel11122411053D

 31 35  0  0  1  0  0  0  0  0999 V2000
  184.0060  178.8700  144.9370 C   0  0  0  0  0  0  0  0  0  0  0  0
  187.3260  177.9620  143.4110 C   0  0  0  0  0  0  0  0  0  0  0  0
  188.2200  177.6720  144.4830 C   0  0  0  0  0  0  0  0  0  0  0  0
  185.6330  178.5890  138.4540 O   0  0  0  0  0  0  0  0  0  0  0  0
  186.8460  178.2520  138.4410 C   0  0  0  0  0  0  0  0  0  0  0  0
  188.7540  177.4450  146.8560 C   0  0  0  0  0  0  0  0  0  0  0  0
  185.9620  178.3510  143.5700 C   0  0  0  0  0  0  0  0  0  0  0  0
  183.2550  179.1230  143.7900 C   0  0  0  0  0  3  0  0  0  0  0  0
  187.8450  177.7370  145.8370 C   0  0  0  0  0  3  0  0  0  0  0  0
  187.0190  178.1260  140.9880 C   0  0  0  0  0  0  0  0  0  0  0  0
  183.4380  178.9970  146.1600 F   0  0  0  0  0  0  0  0  0  0  0  0
  189.9570  177.2210  142.8940 N   0  0  0  0  0  0  0  0  0  0  0  0
  188.2510  177.5380  148.5290 Cl  0  0  0  0  0  0  0  0  0  0  0  0
  185.7260  178.4920  141.1790 N   0  0  0  0  0  0  0  0  0  0  0  0
  187.8380  177.8560  142.0920 C   0  0  0  0  0  0  0  0  0  0  0  0
  187.5560  178.0130  139.6630 N   0  0  0  0  0  2  0  0  0  0  0  0
  185.3440  178.4890  144.8250 C   0  0  0  0  0  3  0  0  0  0  0  0
  190.0620  177.0780  146.5400 C   0  0  0  0  0  3  0  0  0  0  0  0
  185.1820  178.6110  142.4150 C   0  0  0  0  0  0  0  0  0  0  0  0
  183.8430  178.9930  142.5320 C   0  0  0  0  0  3  0  0  0  0  0  0
  189.1310  177.4900  141.8870 N   0  0  0  0  0  0  0  0  0  0  0  0
  189.5520  177.2980  144.1830 C   0  0  0  0  0  0  0  0  0  0  0  0
  190.4600  177.0050  145.2050 C   0  0  0  0  0  3  0  0  0  0  0  0
  189.7440  176.1320  137.2250 C   0  0  1  0  0  3  0  0  0  0  0  0
  187.3880  176.6820  136.5540 C   0  0  0  0  0  2  0  0  0  0  0  0
  189.1650  179.7860  137.7250 O   0  0  0  0  0  1  0  0  0  0  0  0
  190.5410  175.2110  137.9040 O   0  0  0  0  0  1  0  0  0  0  0  0
  188.2870  175.6820  137.2830 C   0  0  0  0  0  2  0  0  0  0  0  0
  189.0200  178.5260  137.1430 C   0  0  2  0  0  3  0  0  0  0  0  0
  187.5430  178.0980  137.1200 C   0  0  2  0  0  3  0  0  0  0  0  0
  189.8980  177.5070  137.8680 C   0  0  0  0  0  2  0  0  0  0  0  0
  1 11  1  0  0  0  0
  2  7  1  0  0  0  0
  2  3  1  0  0  0  0
  3  9  1  0  0  0  0
  5  4  2  0  0  0  0
  5 16  1  0  0  0  0
  6 13  1  0  0  0  0
  7 17  2  0  0  0  0
  8  1  2  0  0  0  0
  9  6  2  0  0  0  0
 10 14  2  0  0  0  0
 10 15  1  0  0  0  0
 12 22  1  0  0  0  0
 14 19  1  0  0  0  0
 15  2  2  0  0  0  0
 16 10  1  0  0  0  0
 17  1  1  0  0  0  0
 18  6  1  0  0  0  0
 19 20  2  0  0  0  0
 19  7  1  0  0  0  0
 20  8  1  0  0  0  0
 21 15  1  0  0  0  0
 21 12  2  0  0  0  0
 22  3  2  0  0  0  0
 22 23  1  0  0  0  0
 23 18  2  0  0  0  0
 24 28  1  0  0  0  0
 24 31  1  0  0  0  0
 24 27  1  1  0  0  0
 25 30  1  0  0  0  0
 25 28  1  0  0  0  0
 29 26  1  1  0  0  0
 29 31  1  0  0  0  0
 30 29  1  0  0  0  0
 30  5  1  1  0  0  0
M  END
>  <MODEL>
2

>  <REMARK>
 VINA RESULT:     -11.9      1.235      1.803
  Name = 
  1 active torsions:
  status: ('A' for Active; 'I' for Inactive)
    1  A    between atoms: C_5  and  C_30
                            x       y       z     vdW  Elec       q    Type
                         _______ _______ _______ _____ _____    ______ ____

>  <TORSDO>
F 1

$$$$
=
 OpenBabel11122411053D

 31 35  0  0  1  0  0  0  0  0999 V2000
  186.7190  178.0870  147.4180 C   0  0  0  0  0  0  0  0  0  0  0  0
  187.5000  177.7060  143.7540 C   0  0  0  0  0  0  0  0  0  0  0  0
  188.8690  177.3230  143.6510 C   0  0  0  0  0  0  0  0  0  0  0  0
  182.6160  178.9700  142.2080 O   0  0  0  0  0  0  0  0  0  0  0  0
  183.3280  178.7390  141.1950 C   0  0  0  0  0  0  0  0  0  0  0  0
  191.0410  176.7670  144.6200 C   0  0  0  0  0  0  0  0  0  0  0  0
  186.8130  177.9520  144.9810 C   0  0  0  0  0  0  0  0  0  0  0  0
  185.3760  178.4560  147.3590 C   0  0  0  0  0  3  0  0  0  0  0  0
  189.7050  177.1430  144.7680 C   0  0  0  0  0  3  0  0  0  0  0  0
  185.4230  178.2260  142.5680 C   0  0  0  0  0  0  0  0  0  0  0  0
  187.3370  177.9710  148.6180 F   0  0  0  0  0  0  0  0  0  0  0  0
  188.6590  177.2730  141.2630 N   0  0  0  0  0  0  0  0  0  0  0  0
  192.0500  176.5530  146.0330 Cl  0  0  0  0  0  0  0  0  0  0  0  0
  184.8030  178.4510  143.7540 N   0  0  0  0  0  0  0  0  0  0  0  0
  186.7720  177.8520  142.5450 C   0  0  0  0  0  0  0  0  0  0  0  0
  184.7060  178.3680  141.3340 N   0  0  0  0  0  2  0  0  0  0  0  0
  187.4270  177.8380  146.2410 C   0  0  0  0  0  3  0  0  0  0  0  0
  191.5720  176.5630  143.3460 C   0  0  0  0  0  3  0  0  0  0  0  0
  185.4460  178.3270  144.9410 C   0  0  0  0  0  0  0  0  0  0  0  0
  184.7420  178.5750  146.1220 C   0  0  0  0  0  3  0  0  0  0  0  0
  187.3810  177.6300  141.3490 N   0  0  0  0  0  0  0  0  0  0  0  0
  189.4260  177.1110  142.3670 C   0  0  0  0  0  0  0  0  0  0  0  0
  190.7640  176.7350  142.2210 C   0  0  0  0  0  3  0  0  0  0  0  0
  183.8010  176.8790  137.9260 C   0  0  1  0  0  3  0  0  0  0  0  0
  181.9350  177.5890  139.4480 C   0  0  0  0  0  2  0  0  0  0  0  0
  184.4620  180.3570  139.1110 O   0  0  0  0  0  1  0  0  0  0  0  0
  184.6540  175.8270  137.5980 O   0  0  0  0  0  1  0  0  0  0  0  0
  182.8750  176.4470  139.0590 C   0  0  0  0  0  2  0  0  0  0  0  0
  183.7070  179.2470  138.7280 C   0  0  2  0  0  3  0  0  0  0  0  0
  182.7100  178.8540  139.8310 C   0  0  2  0  0  3  0  0  0  0  0  0
  184.6280  178.0890  138.3520 C   0  0  0  0  0  2  0  0  0  0  0  0
  1 11  1  0  0  0  0
  2  7  1  0  0  0  0
  3  2  1  0  0  0  0
  3  9  1  0  0  0  0
  5 16  1  0  0  0  0
  5  4  2  0  0  0  0
  6  9  2  0  0  0  0
  6 13  1  0  0  0  0
  7 17  1  0  0  0  0
  8  1  1  0  0  0  0
 10 14  2  0  0  0  0
 12 21  2  0  0  0  0
 12 22  1  0  0  0  0
 14 19  1  0  0  0  0
 15 10  1  0  0  0  0
 15  2  2  0  0  0  0
 16 10  1  0  0  0  0
 17  1  2  0  0  0  0
 18  6  1  0  0  0  0
 19  7  2  0  0  0  0
 19 20  1  0  0  0  0
 20  8  2  0  0  0  0
 21 15  1  0  0  0  0
 22  3  2  0  0  0  0
 23 22  1  0  0  0  0
 23 18  2  0  0  0  0
 24 27  1  1  0  0  0
 24 31  1  0  0  0  0
 24 28  1  0  0  0  0
 25 30  1  0  0  0  0
 28 25  1  0  0  0  0
 29 26  1  1  0  0  0
 29 30  1  0  0  0  0
 30  5  1  1  0  0  0
 31 29  1  0  0  0  0
M  END
>  <MODEL>
3

>  <REMARK>
 VINA RESULT:     -11.2      3.131      4.505
  Name = 
  1 active torsions:
  status: ('A' for Active; 'I' for Inactive)
    1  A    between atoms: C_5  and  C_30
                            x       y       z     vdW  Elec       q    Type
                         _______ _______ _______ _____ _____    ______ ____

>  <TORSDO>
F 1

$$$$
=
 OpenBabel11122411053D

 31 35  0  0  1  0  0  0  0  0999 V2000
  190.4250  176.8440  145.8010 C   0  0  0  0  0  0  0  0  0  0  0  0
  187.8830  177.8210  143.2000 C   0  0  0  0  0  0  0  0  0  0  0  0
  186.6980  178.2110  143.8910 C   0  0  0  0  0  0  0  0  0  0  0  0
  191.1150  176.8430  139.1460 O   0  0  0  0  0  0  0  0  0  0  0  0
  190.0020  177.2340  138.7070 C   0  0  0  0  0  0  0  0  0  0  0  0
  185.4070  178.5930  145.9280 C   0  0  0  0  0  0  0  0  0  0  0  0
  189.0850  177.3780  143.8300 C   0  0  0  0  0  0  0  0  0  0  0  0
  191.5020  176.4940  144.9900 C   0  0  0  0  0  3  0  0  0  0  0  0
  186.5870  178.2030  145.2930 C   0  0  0  0  0  3  0  0  0  0  0  0
  188.9830  177.5090  141.0360 C   0  0  0  0  0  0  0  0  0  0  0  0
  190.5350  176.7590  147.1480 F   0  0  0  0  0  0  0  0  0  0  0  0
  185.6350  178.6540  141.7880 N   0  0  0  0  0  0  0  0  0  0  0  0
  185.3060  178.5690  147.6750 Cl  0  0  0  0  0  0  0  0  0  0  0  0
  190.1090  177.0940  141.6700 N   0  0  0  0  0  0  0  0  0  0  0  0
  187.8570  177.8770  141.7820 C   0  0  0  0  0  0  0  0  0  0  0  0
  188.9350  177.5740  139.6040 N   0  0  0  0  0  2  0  0  0  0  0  0
  189.2300  177.2810  145.2250 C   0  0  0  0  0  3  0  0  0  0  0  0
  184.3090  179.0030  145.1710 C   0  0  0  0  0  3  0  0  0  0  0  0
  190.1920  177.0190  143.0210 C   0  0  0  0  0  0  0  0  0  0  0  0
  191.3850  176.5810  143.6020 C   0  0  0  0  0  3  0  0  0  0  0  0
  186.7350  178.2910  141.1340 N   0  0  0  0  0  0  0  0  0  0  0  0
  185.5740  178.6300  143.1400 C   0  0  0  0  0  0  0  0  0  0  0  0
  184.3930  179.0210  143.7780 C   0  0  0  0  0  3  0  0  0  0  0  0
  186.9550  177.3090  136.4530 C   0  0  1  0  0  3  0  0  0  0  0  0
  189.0560  178.6280  136.8420 C   0  0  0  0  0  2  0  0  0  0  0  0
  189.7900  174.9400  136.9940 O   0  0  0  0  0  1  0  0  0  0  0  0
  185.5980  177.2270  136.7600 O   0  0  0  0  0  1  0  0  0  0  0  0
  187.5620  178.5210  137.1540 C   0  0  0  0  0  2  0  0  0  0  0  0
  189.1480  176.1110  136.5870 C   0  0  2  0  0  3  0  0  0  0  0  0
  189.8060  177.3480  137.2230 C   0  0  2  0  0  3  0  0  0  0  0  0
  187.6560  176.0310  136.9050 C   0  0  0  0  0  2  0  0  0  0  0  0
  1 11  1  0  0  0  0
  2  7  1  0  0  0  0
  2  3  1  0  0  0  0
  3  9  1  0  0  0  0
  5  4  2  0  0  0  0
  5 16  1  0  0  0  0
  6 13  1  0  0  0  0
  7 17  2  0  0  0  0
  8  1  2  0  0  0  0
  9  6  2  0  0  0  0
 10 14  2  0  0  0  0
 10 15  1  0  0  0  0
 12 22  1  0  0  0  0
 14 19  1  0  0  0  0
 15  2  2  0  0  0  0
 16 10  1  0  0  0  0
 17  1  1  0  0  0  0
 18  6  1  0  0  0  0
 19 20  2  0  0  0  0
 19  7  1  0  0  0  0
 20  8  1  0  0  0  0
 21 15  1  0  0  0  0
 21 12  2  0  0  0  0
 22 23  1  0  0  0  0
 22  3  2  0  0  0  0
 23 18  2  0  0  0  0
 24 27  1  1  0  0  0
 24 31  1  0  0  0  0
 24 28  1  0  0  0  0
 25 28  1  0  0  0  0
 25 30  1  0  0  0  0
 29 31  1  0  0  0  0
 29 26  1  1  0  0  0
 29 30  1  0  0  0  0
 30  5  1  1  0  0  0
M  END
>  <MODEL>
4

>  <REMARK>
 VINA RESULT:     -11.1      1.951      4.047
  Name = 
  1 active torsions:
  status: ('A' for Active; 'I' for Inactive)
    1  A    between atoms: C_5  and  C_30
                            x       y       z     vdW  Elec       q    Type
                         _______ _______ _______ _____ _____    ______ ____

>  <TORSDO>
F 1

$$$$
=
 OpenBabel11122411053D

 31 35  0  0  1  0  0  0  0  0999 V2000
  185.3180  178.3410  145.9110 C   0  0  0  0  0  0  0  0  0  0  0  0
  188.1400  177.8520  143.4670 C   0  0  0  0  0  0  0  0  0  0  0  0
  189.3090  177.5480  144.2250 C   0  0  0  0  0  0  0  0  0  0  0  0
  185.1200  178.7530  139.2360 O   0  0  0  0  0  0  0  0  0  0  0  0
  186.3010  178.5230  138.8650 C   0  0  0  0  0  0  0  0  0  0  0  0
  190.4850  177.1660  146.3320 C   0  0  0  0  0  0  0  0  0  0  0  0
  186.8520  178.1080  144.0250 C   0  0  0  0  0  0  0  0  0  0  0  0
  184.2680  178.6260  145.0390 C   0  0  0  0  0  3  0  0  0  0  0  0
  189.3160  177.4660  145.6300 C   0  0  0  0  0  3  0  0  0  0  0  0
  187.1710  178.1950  141.2460 C   0  0  0  0  0  0  0  0  0  0  0  0
  185.1000  178.3140  147.2470 F   0  0  0  0  0  0  0  0  0  0  0  0
  190.5680  177.3830  142.1910 N   0  0  0  0  0  0  0  0  0  0  0  0
  190.4540  177.0730  148.0780 Cl  0  0  0  0  0  0  0  0  0  0  0  0
  185.9620  178.4330  141.8120 N   0  0  0  0  0  0  0  0  0  0  0  0
  188.2760  177.9020  142.0560 C   0  0  0  0  0  0  0  0  0  0  0  0
  187.3310  178.2410  139.8210 N   0  0  0  0  0  2  0  0  0  0  0  0
  186.5940  178.0860  145.4070 C   0  0  0  0  0  3  0  0  0  0  0  0
  191.6750  176.9400  145.6420 C   0  0  0  0  0  3  0  0  0  0  0  0
  185.7710  178.3980  143.1530 C   0  0  0  0  0  0  0  0  0  0  0  0
  184.4960  178.6540  143.6640 C   0  0  0  0  0  3  0  0  0  0  0  0
  189.4830  177.6660  141.4760 N   0  0  0  0  0  0  0  0  0  0  0  0
  190.5270  177.3150  143.5430 C   0  0  0  0  0  0  0  0  0  0  0  0
  191.6960  177.0150  144.2480 C   0  0  0  0  0  3  0  0  0  0  0  0
  187.8160  176.0080  136.4670 C   0  0  1  0  0  3  0  0  0  0  0  0
  185.8020  177.4990  136.6240 C   0  0  0  0  0  2  0  0  0  0  0  0
  188.8640  179.3170  137.8420 O   0  0  0  0  0  1  0  0  0  0  0  0
  188.2850  174.7140  136.6870 O   0  0  0  0  0  1  0  0  0  0  0  0
  186.3400  176.0850  136.8460 C   0  0  0  0  0  2  0  0  0  0  0  0
  188.1170  178.4150  137.0830 C   0  0  2  0  0  3  0  0  0  0  0  0
  186.6170  178.5410  137.3970 C   0  0  2  0  0  3  0  0  0  0  0  0
  188.6280  176.9920  137.3040 C   0  0  0  0  0  2  0  0  0  0  0  0
  1 11  1  0  0  0  0
  2  7  1  0  0  0  0
  2  3  1  0  0  0  0
  3  9  1  0  0  0  0
  5  4  2  0  0  0  0
  5 16  1  0  0  0  0
  6 13  1  0  0  0  0
  7 17  2  0  0  0  0
  8  1  2  0  0  0  0
  9  6  2  0  0  0  0
 10 14  2  0  0  0  0
 10 15  1  0  0  0  0
 12 22  1  0  0  0  0
 14 19  1  0  0  0  0
 15  2  2  0  0  0  0
 16 10  1  0  0  0  0
 17  1  1  0  0  0  0
 18  6  1  0  0  0  0
 19 20  2  0  0  0  0
 19  7  1  0  0  0  0
 20  8  1  0  0  0  0
 21 15  1  0  0  0  0
 21 12  2  0  0  0  0
 22  3  2  0  0  0  0
 22 23  1  0  0  0  0
 23 18  2  0  0  0  0
 24 27  1  1  0  0  0
 24 28  1  0  0  0  0
 24 31  1  0  0  0  0
 25 28  1  0  0  0  0
 25 30  1  0  0  0  0
 29 31  1  0  0  0  0
 29 30  1  0  0  0  0
 29 26  1  1  0  0  0
 30  5  1  1  0  0  0
M  END
>  <MODEL>
5

>  <REMARK>
 VINA RESULT:     -11.0      1.529      2.014
  Name = 
  1 active torsions:
  status: ('A' for Active; 'I' for Inactive)
    1  A    between atoms: C_5  and  C_30
                            x       y       z     vdW  Elec       q    Type
                         _______ _______ _______ _____ _____    ______ ____

>  <TORSDO>
F 1

$$$$
=
 OpenBabel11122411053D

 31 35  0  0  1  0  0  0  0  0999 V2000
  190.1350  177.0370  146.7570 C   0  0  0  0  0  0  0  0  0  0  0  0
  188.2920  177.6910  143.5390 C   0  0  0  0  0  0  0  0  0  0  0  0
  186.9430  178.0010  143.8790 C   0  0  0  0  0  0  0  0  0  0  0  0
  192.5320  176.8510  140.5140 O   0  0  0  0  0  0  0  0  0  0  0  0
  191.5450  177.1270  139.7820 C   0  0  0  0  0  0  0  0  0  0  0  0
  185.1400  178.3440  145.4920 C   0  0  0  0  0  0  0  0  0  0  0  0
  189.3180  177.3790  144.4810 C   0  0  0  0  0  0  0  0  0  0  0  0
  191.4100  176.7530  146.2710 C   0  0  0  0  0  3  0  0  0  0  0  0
  186.4710  178.0350  145.2040 C   0  0  0  0  0  3  0  0  0  0  0  0
  189.9380  177.3970  141.7520 C   0  0  0  0  0  0  0  0  0  0  0  0
  189.8970  177.0120  148.0900 F   0  0  0  0  0  0  0  0  0  0  0  0
  186.4340  178.2720  141.5520 N   0  0  0  0  0  0  0  0  0  0  0  0
  184.5900  178.3760  147.1520 Cl  0  0  0  0  0  0  0  0  0  0  0  0
  190.8880  177.1060  142.6760 N   0  0  0  0  0  0  0  0  0  0  0  0
  188.6320  177.6930  142.1610 C   0  0  0  0  0  0  0  0  0  0  0  0
  190.2600  177.4050  140.3540 N   0  0  0  0  0  2  0  0  0  0  0  0
  189.1020  177.3460  145.8700 C   0  0  0  0  0  3  0  0  0  0  0  0
  184.2500  178.6280  144.4560 C   0  0  0  0  0  3  0  0  0  0  0  0
  190.6220  177.0880  144.0050 C   0  0  0  0  0  0  0  0  0  0  0  0
  191.6520  176.7780  144.8980 C   0  0  0  0  0  3  0  0  0  0  0  0
  187.6900  177.9830  141.2250 N   0  0  0  0  0  0  0  0  0  0  0  0
  186.0250  178.2920  142.8420 C   0  0  0  0  0  0  0  0  0  0  0  0
  184.6930  178.6020  143.1330 C   0  0  0  0  0  3  0  0  0  0  0  0
  190.8720  174.6710  136.9750 C   0  0  1  0  0  3  0  0  0  0  0  0
  190.4010  177.0700  137.5450 C   0  0  0  0  0  2  0  0  0  0  0  0
  193.9310  176.1750  138.4970 O   0  0  0  0  0  1  0  0  0  0  0  0
  190.3510  173.3780  137.0070 O   0  0  0  0  0  1  0  0  0  0  0  0
  189.8500  175.6440  137.5580 C   0  0  0  0  0  2  0  0  0  0  0  0
  192.7420  176.1320  137.7660 C   0  0  2  0  0  3  0  0  0  0  0  0
  191.7350  177.1680  138.2930 C   0  0  2  0  0  3  0  0  0  0  0  0
  192.1660  174.7180  137.7810 C   0  0  0  0  0  2  0  0  0  0  0  0
  1 11  1  0  0  0  0
  2  3  1  0  0  0  0
  2  7  1  0  0  0  0
  3  9  1  0  0  0  0
  5 16  1  0  0  0  0
  5  4  2  0  0  0  0
  6 13  1  0  0  0  0
  7 17  1  0  0  0  0
  8  1  1  0  0  0  0
  9  6  2  0  0  0  0
 10 15  1  0  0  0  0
 10 14  2  0  0  0  0
 12 22  1  0  0  0  0
 14 19  1  0  0  0  0
 15  2  2  0  0  0  0
 16 10  1  0  0  0  0
 17  1  2  0  0  0  0
 18  6  1  0  0  0  0
 19  7  2  0  0  0  0
 19 20  1  0  0  0  0
 20  8  2  0  0  0  0
 21 12  2  0  0  0  0
 21 15  1  0  0  0  0
 22 23  1  0  0  0  0
 22  3  2  0  0  0  0
 23 18  2  0  0  0  0
 24 27  1  1  0  0  0
 24 28  1  0  0  0  0
 24 31  1  0  0  0  0
 25 28  1  0  0  0  0
 25 30  1  0  0  0  0
 29 31  1  0  0  0  0
 29 30  1  0  0  0  0
 29 26  1  1  0  0  0
 30  5  1  1  0  0  0
M  END
>  <MODEL>
6

>  <REMARK>
 VINA RESULT:     -11.0      2.324      4.417
  Name = 
  1 active torsions:
  status: ('A' for Active; 'I' for Inactive)
    1  A    between atoms: C_5  and  C_30
                            x       y       z     vdW  Elec       q    Type
                         _______ _______ _______ _____ _____    ______ ____

>  <TORSDO>
F 1

$$$$
=
 OpenBabel11122411053D

 31 35  0  0  1  0  0  0  0  0999 V2000
  191.4140  176.3820  145.2080 C   0  0  0  0  0  0  0  0  0  0  0  0
  188.0890  177.6460  143.9720 C   0  0  0  0  0  0  0  0  0  0  0  0
  187.3030  177.9620  145.1190 C   0  0  0  0  0  0  0  0  0  0  0  0
  189.3650  177.1110  138.8810 O   0  0  0  0  0  0  0  0  0  0  0  0
  188.1890  177.5520  138.9720 C   0  0  0  0  0  0  0  0  0  0  0  0
  186.9610  178.1210  147.5320 C   0  0  0  0  0  0  0  0  0  0  0  0
  189.4210  177.1340  144.0130 C   0  0  0  0  0  0  0  0  0  0  0  0
  192.0560  176.1210  143.9990 C   0  0  0  0  0  3  0  0  0  0  0  0
  187.7660  177.8000  146.4380 C   0  0  0  0  0  3  0  0  0  0  0  0
  188.2090  177.5710  141.5290 C   0  0  0  0  0  0  0  0  0  0  0  0
  192.0540  176.1500  146.3790 F   0  0  0  0  0  0  0  0  0  0  0  0
  185.5060  178.6360  143.6830 N   0  0  0  0  0  0  0  0  0  0  0  0
  187.5710  177.9060  149.1580 Cl  0  0  0  0  0  0  0  0  0  0  0  0
  189.4740  177.0860  141.6070 N   0  0  0  0  0  0  0  0  0  0  0  0
  187.4970  177.8590  142.7000 C   0  0  0  0  0  0  0  0  0  0  0  0
  187.5910  177.7940  140.2530 N   0  0  0  0  0  2  0  0  0  0  0  0
  190.1110  176.8830  145.2120 C   0  0  0  0  0  3  0  0  0  0  0  0
  185.6720  178.6150  147.3300 C   0  0  0  0  0  3  0  0  0  0  0  0
  190.0900  176.8630  142.7930 C   0  0  0  0  0  0  0  0  0  0  0  0
  191.3950  176.3610  142.7940 C   0  0  0  0  0  3  0  0  0  0  0  0
  186.2310  178.3450  142.6070 N   0  0  0  0  0  0  0  0  0  0  0  0
  185.9930  178.4640  144.9350 C   0  0  0  0  0  0  0  0  0  0  0  0
  185.1890  178.7850  146.0320 C   0  0  0  0  0  3  0  0  0  0  0  0
  188.5730  176.4740  135.3590 C   0  0  1  0  0  3  0  0  0  0  0  0
  186.7980  176.5540  137.1330 C   0  0  0  0  0  2  0  0  0  0  0  0
  188.8440  179.7120  137.1970 O   0  0  0  0  0  1  0  0  0  0  0  0
  189.5300  175.6610  134.7520 O   0  0  0  0  0  1  0  0  0  0  0  0
  187.8470  175.6810  136.4420 C   0  0  0  0  0  2  0  0  0  0  0  0
  188.2220  178.5900  136.6470 C   0  0  2  0  0  3  0  0  0  0  0  0
  187.4170  177.8290  137.7140 C   0  0  2  0  0  3  0  0  0  0  0  0
  189.2560  177.6960  135.9660 C   0  0  0  0  0  2  0  0  0  0  0  0
  1 17  1  0  0  0  0
  1 11  1  0  0  0  0
  2  7  1  0  0  0  0
  2  3  1  0  0  0  0
  3  9  1  0  0  0  0
  4  5  2  0  0  0  0
  5 16  1  0  0  0  0
  6 13  1  0  0  0  0
  7 17  2  0  0  0  0
  8  1  2  0  0  0  0
  9  6  2  0  0  0  0
 10 14  2  0  0  0  0
 10 15  1  0  0  0  0
 12 22  1  0  0  0  0
 14 19  1  0  0  0  0
 15  2  2  0  0  0  0
 16 10  1  0  0  0  0
 18  6  1  0  0  0  0
 19 20  2  0  0  0  0
 19  7  1  0  0  0  0
 20  8  1  0  0  0  0
 21 15  1  0  0  0  0
 21 12  2  0  0  0  0
 22  3  2  0  0  0  0
 22 23  1  0  0  0  0
 23 18  2  0  0  0  0
 24 27  1  1  0  0  0
 24 31  1  0  0  0  0
 24 28  1  0  0  0  0
 25 30  1  0  0  0  0
 28 25  1  0  0  0  0
 29 26  1  1  0  0  0
 29 30  1  0  0  0  0
 30  5  1  1  0  0  0
 31 29  1  0  0  0  0
M  END
>  <MODEL>
7

>  <REMARK>
 VINA RESULT:     -10.8      2.215      4.031
  Name = 
  1 active torsions:
  status: ('A' for Active; 'I' for Inactive)
    1  A    between atoms: C_5  and  C_30
                            x       y       z     vdW  Elec       q    Type
                         _______ _______ _______ _____ _____    ______ ____

>  <TORSDO>
F 1

$$$$
=
 OpenBabel11122411053D

 31 35  0  0  1  0  0  0  0  0999 V2000
  191.1020  177.3510  141.6000 C   0  0  0  0  0  0  0  0  0  0  0  0
  187.9780  177.7640  143.6610 C   0  0  0  0  0  0  0  0  0  0  0  0
  188.3400  177.5600  145.0250 C   0  0  0  0  0  0  0  0  0  0  0  0
  184.9190  178.7850  139.4860 O   0  0  0  0  0  0  0  0  0  0  0  0
  184.2180  178.8090  140.5320 C   0  0  0  0  0  0  0  0  0  0  0  0
  189.9620  177.0700  146.7840 C   0  0  0  0  0  0  0  0  0  0  0  0
  188.8820  177.6920  142.5590 C   0  0  0  0  0  0  0  0  0  0  0  0
  190.5980  177.5740  140.3200 C   0  0  0  0  0  3  0  0  0  0  0  0
  189.6520  177.2620  145.4370 C   0  0  0  0  0  3  0  0  0  0  0  0
  186.1870  178.2700  142.0710 C   0  0  0  0  0  0  0  0  0  0  0  0
  192.4170  177.0750  141.7720 F   0  0  0  0  0  0  0  0  0  0  0  0
  186.0640  177.9440  145.6720 N   0  0  0  0  0  0  0  0  0  0  0  0
  191.6050  176.7010  147.2580 Cl  0  0  0  0  0  0  0  0  0  0  0  0
  187.0760  178.1940  141.0490 N   0  0  0  0  0  0  0  0  0  0  0  0
  186.6170  178.0580  143.3870 C   0  0  0  0  0  0  0  0  0  0  0  0
  184.8070  178.5650  141.8170 N   0  0  0  0  0  2  0  0  0  0  0  0
  190.2510  177.4100  142.7050 C   0  0  0  0  0  3  0  0  0  0  0  0
  188.9630  177.1720  147.7520 C   0  0  0  0  0  3  0  0  0  0  0  0
  188.3870  177.9170  141.2490 C   0  0  0  0  0  0  0  0  0  0  0  0
  189.2430  177.8560  140.1460 C   0  0  0  0  0  3  0  0  0  0  0  0
  185.7160  178.1360  144.4030 N   0  0  0  0  0  0  0  0  0  0  0  0
  187.3400  177.6590  146.0220 C   0  0  0  0  0  0  0  0  0  0  0  0
  187.6530  177.4660  147.3700 C   0  0  0  0  0  3  0  0  0  0  0  0
  181.4620  177.5870  138.2350 C   0  0  1  0  0  3  0  0  0  0  0  0
  181.8960  177.8620  140.6930 C   0  0  0  0  0  2  0  0  0  0  0  0
  183.1800  180.8530  138.8030 O   0  0  0  0  0  1  0  0  0  0  0  0
  181.5000  176.6840  137.1740 O   0  0  0  0  0  1  0  0  0  0  0  0
  181.9170  176.8890  139.5130 C   0  0  0  0  0  2  0  0  0  0  0  0
  182.3520  179.7650  139.0860 C   0  0  2  0  0  3  0  0  0  0  0  0
  182.7500  179.1030  140.4170 C   0  0  2  0  0  3  0  0  0  0  0  0
  182.3730  178.7720  137.9270 C   0  0  0  0  0  2  0  0  0  0  0  0
  1 11  1  0  0  0  0
  1 17  1  0  0  0  0
  2  3  1  0  0  0  0
  3  9  2  0  0  0  0
  3 22  1  0  0  0  0
  4  5  2  0  0  0  0
  5 16  1  0  0  0  0
  6 13  1  0  0  0  0
  6 18  2  0  0  0  0
  7 17  2  0  0  0  0
  7  2  1  0  0  0  0
  8  1  2  0  0  0  0
  9  6  1  0  0  0  0
 10 15  1  0  0  0  0
 12 22  1  0  0  0  0
 14 19  1  0  0  0  0
 14 10  2  0  0  0  0
 15  2  2  0  0  0  0
 15 21  1  0  0  0  0
 16 10  1  0  0  0  0
 19  7  1  0  0  0  0
 20  8  1  0  0  0  0
 20 19  2  0  0  0  0
 21 12  2  0  0  0  0
 22 23  2  0  0  0  0
 23 18  1  0  0  0  0
 24 27  1  6  0  0  0
 24 28  1  0  0  0  0
 28 25  1  0  0  0  0
 29 26  1  6  0  0  0
 29 30  1  0  0  0  0
 30  5  1  6  0  0  0
 30 25  1  0  0  0  0
 31 24  1  0  0  0  0
 31 29  1  0  0  0  0
M  END
>  <MODEL>
8

>  <REMARK>
 VINA RESULT:     -10.8      3.389      5.373
  Name = 
  1 active torsions:
  status: ('A' for Active; 'I' for Inactive)
    1  A    between atoms: C_5  and  C_30
                            x       y       z     vdW  Elec       q    Type
                         _______ _______ _______ _____ _____    ______ ____

>  <TORSDO>
F 1

$$$$
=
 OpenBabel11122411053D

 31 35  0  0  1  0  0  0  0  0999 V2000
  186.2760  178.0530  146.9220 C   0  0  0  0  0  0  0  0  0  0  0  0
  187.5610  177.9020  143.3850 C   0  0  0  0  0  0  0  0  0  0  0  0
  188.9410  177.5510  143.4500 C   0  0  0  0  0  0  0  0  0  0  0  0
  182.9030  179.1630  141.2520 O   0  0  0  0  0  0  0  0  0  0  0  0
  183.7530  179.0060  140.3360 C   0  0  0  0  0  0  0  0  0  0  0  0
  190.9740  176.9800  144.6780 C   0  0  0  0  0  0  0  0  0  0  0  0
  186.7070  178.0630  144.5170 C   0  0  0  0  0  0  0  0  0  0  0  0
  184.9450  178.4000  146.6980 C   0  0  0  0  0  3  0  0  0  0  0  0
  189.6210  177.3210  144.6610 C   0  0  0  0  0  3  0  0  0  0  0  0
  185.6520  178.4520  141.9540 C   0  0  0  0  0  0  0  0  0  0  0  0
  186.7280  177.8790  148.1860 F   0  0  0  0  0  0  0  0  0  0  0  0
  189.0610  177.6370  141.0580 N   0  0  0  0  0  0  0  0  0  0  0  0
  191.7850  176.7020  146.2020 Cl  0  0  0  0  0  0  0  0  0  0  0  0
  184.8710  178.5950  143.0540 N   0  0  0  0  0  0  0  0  0  0  0  0
  187.0020  178.1050  142.0970 C   0  0  0  0  0  0  0  0  0  0  0  0
  185.1080  178.6530  140.6420 N   0  0  0  0  0  2  0  0  0  0  0  0
  187.1450  177.8870  145.8420 C   0  0  0  0  0  3  0  0  0  0  0  0
  191.6790  176.8610  143.4800 C   0  0  0  0  0  3  0  0  0  0  0  0
  185.3490  178.4140  144.3090 C   0  0  0  0  0  0  0  0  0  0  0  0
  184.4830  178.5800  145.3940 C   0  0  0  0  0  3  0  0  0  0  0  0
  187.7740  177.9650  140.9860 N   0  0  0  0  0  0  0  0  0  0  0  0
  189.6740  177.4250  142.2460 C   0  0  0  0  0  0  0  0  0  0  0  0
  191.0290  177.0840  142.2660 C   0  0  0  0  0  3  0  0  0  0  0  0
  180.3890  179.1130  138.5920 C   0  0  1  0  0  3  0  0  0  0  0  0
  182.5000  180.4660  138.7190 C   0  0  0  0  0  2  0  0  0  0  0  0
  183.3160  176.7950  138.5550 O   0  0  0  0  0  1  0  0  0  0  0  0
  179.0990  178.9800  139.1020 O   0  0  0  0  0  1  0  0  0  0  0  0
  181.0760  180.3040  139.2530 C   0  0  0  0  0  2  0  0  0  0  0  0
  182.5970  177.9680  138.3170 C   0  0  2  0  0  3  0  0  0  0  0  0
  183.3240  179.1880  138.9080 C   0  0  2  0  0  3  0  0  0  0  0  0
  181.1760  177.8330  138.8600 C   0  0  0  0  0  2  0  0  0  0  0  0
  1 11  1  0  0  0  0
  2  3  1  0  0  0  0
  2  7  1  0  0  0  0
  3  9  1  0  0  0  0
  5 16  1  0  0  0  0
  5  4  2  0  0  0  0
  6 13  1  0  0  0  0
  7 17  1  0  0  0  0
  8  1  1  0  0  0  0
  9  6  2  0  0  0  0
 10 15  1  0  0  0  0
 10 14  2  0  0  0  0
 12 22  1  0  0  0  0
 14 19  1  0  0  0  0
 15  2  2  0  0  0  0
 16 10  1  0  0  0  0
 17  1  2  0  0  0  0
 18  6  1  0  0  0  0
 19  7  2  0  0  0  0
 19 20  1  0  0  0  0
 20  8  2  0  0  0  0
 21 12  2  0  0  0  0
 21 15  1  0  0  0  0
 22 23  1  0  0  0  0
 22  3  2  0  0  0  0
 23 18  2  0  0  0  0
 24 31  1  0  0  0  0
 24 27  1  1  0  0  0
 24 28  1  0  0  0  0
 25 30  1  0  0  0  0
 25 28  1  0  0  0  0
 29 26  1  1  0  0  0
 29 31  1  0  0  0  0
 29 30  1  0  0  0  0
 30  5  1  1  0  0  0
M  END
>  <MODEL>
9

>  <REMARK>
 VINA RESULT:     -10.7      3.520      4.958
  Name = 
  1 active torsions:
  status: ('A' for Active; 'I' for Inactive)
    1  A    between atoms: C_5  and  C_30
                            x       y       z     vdW  Elec       q    Type
                         _______ _______ _______ _____ _____    ______ ____

>  <TORSDO>
F 1

$$$$
