=
 OpenBabel11122411583D

 28 32  0  0  1  0  0  0  0  0999 V2000
  186.3990  176.0260  135.2760 C   0  0  0  0  0  0  0  0  0  0  0  0
  182.5770  176.6870  137.0040 O   0  0  0  0  0  0  0  0  0  0  0  0
  189.2360  176.7750  139.7460 O   0  0  0  0  0  0  0  0  0  0  0  0
  185.3080  173.6720  136.3400 C   0  0  0  0  0  3  0  0  0  0  0  0
  187.3990  178.2430  139.8090 N   0  0  0  0  0  0  0  0  0  0  0  0
  187.0610  177.2400  134.6940 C   0  0  0  0  0  2  0  0  0  0  0  0
  182.5020  176.0540  139.3790 O   0  0  0  0  0  0  0  0  0  0  0  0
  182.9630  177.0950  138.3980 S   0  0  0  0  0  0  0  0  0  0  0  0
  183.0280  179.7760  138.8990 C   0  0  0  0  0  0  0  0  0  0  0  0
  184.7290  177.2880  138.5430 C   0  0  2  0  0  3  0  0  0  0  0  0
  190.5760  176.6580  135.5610 O   0  0  0  0  0  0  0  0  0  0  0  0
  186.7440  178.1660  137.6100 C   0  0  1  0  0  3  0  0  0  0  0  0
  184.3150  179.7210  139.0650 N   0  0  0  0  0  0  0  0  0  0  0  0
  182.2320  178.6030  138.7790 N   0  0  0  0  0  2  0  0  0  0  0  0
  189.4270  177.1590  135.6760 C   0  0  0  0  0  0  0  0  0  0  0  0
  185.6970  176.0750  136.5040 C   0  0  0  0  0  0  0  0  0  0  0  0
  188.3000  177.3820  139.1590 C   0  0  0  0  0  0  0  0  0  0  0  0
  182.3730  181.1040  138.7700 C   0  0  0  0  0  1  0  0  0  0  0  0
  189.1080  177.9360  136.9150 C   0  0  0  0  0  2  0  0  0  0  0  0
  185.1660  174.8810  137.0230 C   0  0  0  0  0  3  0  0  0  0  0  0
  186.5270  174.8090  134.5940 C   0  0  0  0  0  3  0  0  0  0  0  0
  185.9840  173.6380  135.1220 C   0  0  0  0  0  3  0  0  0  0  0  0
  188.4990  177.0200  134.5940 N   0  0  0  0  0  2  0  0  0  0  0  0
  186.5110  178.8480  138.9080 N   0  0  1  0  0  0  0  0  0  0  0  0
  188.0040  177.2820  137.7260 C   0  0  2  0  0  3  0  0  0  0  0  0
  185.1420  178.5330  139.3190 C   0  0  2  0  0  3  0  0  0  0  0  0
  187.5930  178.7340  141.1650 C   0  0  0  0  0  1  0  0  0  0  0  0
  185.4720  177.3960  137.2300 C   0  0  1  0  0  3  0  0  0  0  0  0
  1 16  1  0  0  0  0
  2  8  2  0  0  0  0
  4 20  1  0  0  0  0
  5 27  1  0  0  0  0
  6  1  1  0  0  0  0
  8 14  1  0  0  0  0
  8  7  2  0  0  0  0
  9 13  2  0  0  0  0
 10  8  1  6  0  0  0
 10 26  1  0  0  0  0
 11 15  2  0  0  0  0
 12 25  1  0  0  0  0
 12 24  1  0  0  0  0
 13 26  1  0  0  0  0
 14  9  1  0  0  0  0
 15 19  1  0  0  0  0
 16 20  2  0  0  0  0
 16 28  1  0  0  0  0
 17  3  2  0  0  0  0
 17  5  1  0  0  0  0
 18  9  1  0  0  0  0
 19 25  1  0  0  0  0
 21 22  1  0  0  0  0
 21  1  2  0  0  0  0
 22  4  2  0  0  0  0
 23  6  1  0  0  0  0
 23 15  1  0  0  0  0
 24 26  1  0  0  0  0
 24  5  1  0  0  0  0
 25 17  1  0  0  0  0
 28 12  1  0  0  0  0
 28 10  1  0  0  0  0
M  END
>  <MODEL>
1

>  <REMARK>
 VINA RESULT:      -6.1      0.000      0.000
  Name = 
  0 active torsions:
  status: ('A' for Active; 'I' for Inactive)
                            x       y       z     vdW  Elec       q    Type
                         _______ _______ _______ _____ _____    ______ ____

>  <TORSDO>
F 0

$$$$
=
 OpenBabel11122411583D

 28 32  0  0  1  0  0  0  0  0999 V2000
  184.0440  175.1860  136.7930 C   0  0  0  0  0  0  0  0  0  0  0  0
  185.8520  178.4350  138.8430 O   0  0  0  0  0  0  0  0  0  0  0  0
  178.9770  176.6800  137.6150 O   0  0  0  0  0  0  0  0  0  0  0  0
  184.4430  177.3940  135.1120 C   0  0  0  0  0  3  0  0  0  0  0  0
  180.2180  177.2810  139.5200 N   0  0  0  0  0  0  0  0  0  0  0  0
  183.7820  173.9660  137.6260 C   0  0  0  0  0  2  0  0  0  0  0  0
  184.4800  180.4750  138.7580 O   0  0  0  0  0  0  0  0  0  0  0  0
  184.6410  179.1270  139.4030 S   0  0  0  0  0  0  0  0  0  0  0  0
  184.0220  178.5680  142.0010 C   0  0  0  0  0  0  0  0  0  0  0  0
  183.1660  178.1670  139.1160 C   0  0  2  0  0  3  0  0  0  0  0  0
  180.5760  172.8130  136.2690 O   0  0  0  0  0  0  0  0  0  0  0  0
  182.1110  176.0260  139.1810 C   0  0  1  0  0  3  0  0  0  0  0  0
  182.9280  177.9790  141.6210 N   0  0  0  0  0  0  0  0  0  0  0  0
  184.8240  179.3240  141.1000 N   0  0  0  0  0  2  0  0  0  0  0  0
  181.3450  173.3850  137.0850 C   0  0  0  0  0  0  0  0  0  0  0  0
  183.8120  176.4910  137.2880 C   0  0  0  0  0  0  0  0  0  0  0  0
  180.0100  176.5680  138.3260 C   0  0  0  0  0  0  0  0  0  0  0  0
  184.4840  178.3980  143.4030 C   0  0  0  0  0  1  0  0  0  0  0  0
  180.7410  174.2370  138.1580 C   0  0  0  0  0  2  0  0  0  0  0  0
  184.0100  177.5830  136.4260 C   0  0  0  0  0  3  0  0  0  0  0  0
  184.4880  175.0090  135.4760 C   0  0  0  0  0  3  0  0  0  0  0  0
  184.6880  176.1070  134.6390 C   0  0  0  0  0  3  0  0  0  0  0  0
  182.7550  173.1470  136.9940 N   0  0  0  0  0  2  0  0  0  0  0  0
  181.4120  176.9050  140.1520 N   0  0  1  0  0  0  0  0  0  0  0  0
  181.1480  175.6940  138.0220 C   0  0  2  0  0  3  0  0  0  0  0  0
  182.2420  178.0980  140.3260 C   0  0  2  0  0  3  0  0  0  0  0  0
  179.1700  178.0240  140.2040 C   0  0  0  0  0  1  0  0  0  0  0  0
  183.4050  176.7220  138.7390 C   0  0  1  0  0  3  0  0  0  0  0  0
  1 16  1  0  0  0  0
  1  6  1  0  0  0  0
  2  8  2  0  0  0  0
  3 17  2  0  0  0  0
  4 20  1  0  0  0  0
  5 24  1  0  0  0  0
  5 27  1  0  0  0  0
  7  8  2  0  0  0  0
  8 14  1  0  0  0  0
  9 18  1  0  0  0  0
 10  8  1  1  0  0  0
 10 26  1  0  0  0  0
 11 15  2  0  0  0  0
 12 24  1  0  0  0  0
 13  9  2  0  0  0  0
 14  9  1  0  0  0  0
 15 19  1  0  0  0  0
 16 28  1  0  0  0  0
 17  5  1  0  0  0  0
 20 16  2  0  0  0  0
 21  1  2  0  0  0  0
 22  4  2  0  0  0  0
 22 21  1  0  0  0  0
 23 15  1  0  0  0  0
 23  6  1  0  0  0  0
 24 26  1  0  0  0  0
 25 19  1  0  0  0  0
 25 17  1  0  0  0  0
 25 12  1  0  0  0  0
 26 13  1  0  0  0  0
 28 10  1  0  0  0  0
 28 12  1  0  0  0  0
M  END
>  <MODEL>
2

>  <REMARK>
 VINA RESULT:      -5.8      3.449      5.885
  Name = 
  0 active torsions:
  status: ('A' for Active; 'I' for Inactive)
                            x       y       z     vdW  Elec       q    Type
                         _______ _______ _______ _____ _____    ______ ____

>  <TORSDO>
F 0

$$$$
=
 OpenBabel11122411583D

 28 32  0  0  1  0  0  0  0  0999 V2000
  180.0830  179.4000  141.1980 C   0  0  0  0  0  0  0  0  0  0  0  0
  178.9310  178.2460  137.2780 O   0  0  0  0  0  0  0  0  0  0  0  0
  185.3190  179.8250  140.2020 O   0  0  0  0  0  0  0  0  0  0  0  0
  179.5730  181.6180  139.5590 C   0  0  0  0  0  3  0  0  0  0  0  0
  184.4850  178.0490  138.9050 N   0  0  0  0  0  0  0  0  0  0  0  0
  180.3890  178.2720  142.1380 C   0  0  0  0  0  2  0  0  0  0  0  0
  180.4250  179.1650  135.5540 O   0  0  0  0  0  0  0  0  0  0  0  0
  180.2730  178.1110  136.6160 S   0  0  0  0  0  0  0  0  0  0  0  0
  181.2920  175.5860  136.4500 C   0  0  0  0  0  0  0  0  0  0  0  0
  181.5920  178.2870  137.8010 C   0  0  2  0  0  3  0  0  0  0  0  0
  183.2030  179.6390  144.0510 O   0  0  0  0  0  0  0  0  0  0  0  0
  182.4680  177.7010  139.9450 C   0  0  1  0  0  3  0  0  0  0  0  0
  182.2520  175.9120  137.2630 N   0  0  0  0  0  0  0  0  0  0  0  0
  180.4080  176.5550  135.9000 N   0  0  0  0  0  2  0  0  0  0  0  0
  182.6380  178.9440  143.1660 C   0  0  0  0  0  0  0  0  0  0  0  0
  180.5030  179.3810  139.8470 C   0  0  0  0  0  0  0  0  0  0  0  0
  184.4210  178.9750  139.9610 C   0  0  0  0  0  0  0  0  0  0  0  0
  181.0730  174.1510  136.1330 C   0  0  0  0  0  1  0  0  0  0  0  0
  183.4880  178.2920  142.1200 C   0  0  0  0  0  2  0  0  0  0  0  0
  180.2430  180.5070  139.0450 C   0  0  0  0  0  3  0  0  0  0  0  0
  179.4010  180.5170  141.7000 C   0  0  0  0  0  3  0  0  0  0  0  0
  179.1460  181.6200  140.8850 C   0  0  0  0  0  3  0  0  0  0  0  0
  181.2200  178.7530  143.2350 N   0  0  0  0  0  2  0  0  0  0  0  0
  183.3950  177.1670  138.9150 N   0  0  1  0  0  0  0  0  0  0  0  0
  183.1820  178.8220  140.7300 C   0  0  2  0  0  3  0  0  0  0  0  0
  182.7060  177.2620  137.6270 C   0  0  2  0  0  3  0  0  0  0  0  0
  185.6920  177.7920  138.1340 C   0  0  0  0  0  1  0  0  0  0  0  0
  181.1760  178.1510  139.2490 C   0  0  1  0  0  3  0  0  0  0  0  0
  1 21  1  0  0  0  0
  1  6  1  0  0  0  0
  4 22  1  0  0  0  0
  5 24  1  0  0  0  0
  5 17  1  0  0  0  0
  6 23  1  0  0  0  0
  7  8  2  0  0  0  0
  8  2  2  0  0  0  0
  9 13  2  0  0  0  0
 10  8  1  6  0  0  0
 10 28  1  0  0  0  0
 12 25  1  0  0  0  0
 13 26  1  0  0  0  0
 14  9  1  0  0  0  0
 14  8  1  0  0  0  0
 15 23  1  0  0  0  0
 15 11  2  0  0  0  0
 16  1  2  0  0  0  0
 17  3  2  0  0  0  0
 17 25  1  0  0  0  0
 18  9  1  0  0  0  0
 19 15  1  0  0  0  0
 20  4  2  0  0  0  0
 20 16  1  0  0  0  0
 22 21  2  0  0  0  0
 24 12  1  0  0  0  0
 25 19  1  0  0  0  0
 26 10  1  0  0  0  0
 26 24  1  0  0  0  0
 27  5  1  0  0  0  0
 28 16  1  0  0  0  0
 28 12  1  0  0  0  0
M  END
>  <MODEL>
3

>  <REMARK>
 VINA RESULT:      -5.7      3.617      7.246
  Name = 
  0 active torsions:
  status: ('A' for Active; 'I' for Inactive)
                            x       y       z     vdW  Elec       q    Type
                         _______ _______ _______ _____ _____    ______ ____

>  <TORSDO>
F 0

$$$$
=
 OpenBabel11122411583D

 28 32  0  0  1  0  0  0  0  0999 V2000
  185.8100  173.4460  136.6520 C   0  0  0  0  0  0  0  0  0  0  0  0
  187.9310  176.7620  138.2440 O   0  0  0  0  0  0  0  0  0  0  0  0
  181.7280  176.2410  134.6240 O   0  0  0  0  0  0  0  0  0  0  0  0
  187.5480  174.5820  134.7680 C   0  0  0  0  0  3  0  0  0  0  0  0
  182.4000  177.2980  136.6150 N   0  0  0  0  0  0  0  0  0  0  0  0
  184.8450  172.7880  137.5930 C   0  0  0  0  0  2  0  0  0  0  0  0
  187.5490  178.8230  136.9580 O   0  0  0  0  0  0  0  0  0  0  0  0
  186.9630  177.8780  137.9690 S   0  0  0  0  0  0  0  0  0  0  0  0
  185.3590  178.6280  140.0450 C   0  0  0  0  0  0  0  0  0  0  0  0
  185.4180  177.2450  137.3440 C   0  0  2  0  0  3  0  0  0  0  0  0
  182.0840  171.9190  135.3410 O   0  0  0  0  0  0  0  0  0  0  0  0
  183.6710  175.6290  137.5490 C   0  0  1  0  0  3  0  0  0  0  0  0
  184.3150  178.1950  139.4030 N   0  0  0  0  0  0  0  0  0  0  0  0
  186.6360  178.7290  139.4250 N   0  0  0  0  0  2  0  0  0  0  0  0
  182.6970  172.5950  136.2090 C   0  0  0  0  0  0  0  0  0  0  0  0
  185.9420  174.8540  136.5830 C   0  0  0  0  0  0  0  0  0  0  0  0
  182.3440  176.2130  135.7220 C   0  0  0  0  0  0  0  0  0  0  0  0
  185.2300  178.9700  141.4850 C   0  0  0  0  0  1  0  0  0  0  0  0
  182.1440  173.9330  136.5920 C   0  0  0  0  0  2  0  0  0  0  0  0
  186.8130  175.4020  135.6250 C   0  0  0  0  0  3  0  0  0  0  0  0
  186.5610  172.6330  135.7930 C   0  0  0  0  0  3  0  0  0  0  0  0
  187.4260  173.1970  134.8560 C   0  0  0  0  0  3  0  0  0  0  0  0
  183.8550  172.0310  136.8370 N   0  0  0  0  0  2  0  0  0  0  0  0
  183.0810  176.9690  137.7960 N   0  0  1  0  0  0  0  0  0  0  0  0
  183.0950  175.0620  136.2340 C   0  0  2  0  0  3  0  0  0  0  0  0
  184.1940  177.9040  137.9680 C   0  0  2  0  0  3  0  0  0  0  0  0
  181.5520  178.4760  136.5020 C   0  0  0  0  0  1  0  0  0  0  0  0
  185.2000  175.7630  137.5560 C   0  0  1  0  0  3  0  0  0  0  0  0
  1  6  1  0  0  0  0
  3 17  2  0  0  0  0
  4 22  2  0  0  0  0
  4 20  1  0  0  0  0
  5 24  1  0  0  0  0
  7  8  2  0  0  0  0
  8  2  2  0  0  0  0
  8 14  1  0  0  0  0
  9 18  1  0  0  0  0
 10 28  1  0  0  0  0
 10 26  1  0  0  0  0
 10  8  1  1  0  0  0
 11 15  2  0  0  0  0
 12 28  1  0  0  0  0
 12 24  1  0  0  0  0
 13  9  2  0  0  0  0
 14  9  1  0  0  0  0
 15 19  1  0  0  0  0
 15 23  1  0  0  0  0
 16  1  1  0  0  0  0
 16 28  1  0  0  0  0
 17 25  1  0  0  0  0
 17  5  1  0  0  0  0
 20 16  2  0  0  0  0
 21  1  2  0  0  0  0
 22 21  1  0  0  0  0
 23  6  1  0  0  0  0
 24 26  1  0  0  0  0
 25 19  1  0  0  0  0
 25 12  1  0  0  0  0
 26 13  1  0  0  0  0
 27  5  1  0  0  0  0
M  END
>  <MODEL>
4

>  <REMARK>
 VINA RESULT:      -5.3      2.642      5.266
  Name = 
  0 active torsions:
  status: ('A' for Active; 'I' for Inactive)
                            x       y       z     vdW  Elec       q    Type
                         _______ _______ _______ _____ _____    ______ ____

>  <TORSDO>
F 0

$$$$
=
 OpenBabel11122411583D

 28 32  0  0  1  0  0  0  0  0999 V2000
  183.2890  175.0920  136.8320 C   0  0  0  0  0  0  0  0  0  0  0  0
  187.0150  176.6900  138.0940 O   0  0  0  0  0  0  0  0  0  0  0  0
  180.6700  179.7480  136.5970 O   0  0  0  0  0  0  0  0  0  0  0  0
  184.8890  175.8610  134.6620 C   0  0  0  0  0  3  0  0  0  0  0  0
  182.1840  179.8680  138.3930 N   0  0  0  0  0  0  0  0  0  0  0  0
  182.3650  174.6680  137.9350 C   0  0  0  0  0  2  0  0  0  0  0  0
  187.3740  178.9830  137.2820 O   0  0  0  0  0  0  0  0  0  0  0  0
  186.6530  178.1340  138.2910 S   0  0  0  0  0  0  0  0  0  0  0  0
  186.0980  178.9040  140.8500 C   0  0  0  0  0  0  0  0  0  0  0  0
  184.8970  178.3840  138.1110 C   0  0  2  0  0  3  0  0  0  0  0  0
  179.0980  175.6420  136.5820 O   0  0  0  0  0  0  0  0  0  0  0  0
  182.6900  177.6420  138.6450 C   0  0  1  0  0  3  0  0  0  0  0  0
  184.8610  179.1260  140.5220 N   0  0  0  0  0  0  0  0  0  0  0  0
  187.0980  178.6280  139.8760 N   0  0  0  0  0  2  0  0  0  0  0  0
  180.1320  175.7510  137.2910 C   0  0  0  0  0  0  0  0  0  0  0  0
  184.0490  176.2830  136.9130 C   0  0  0  0  0  0  0  0  0  0  0  0
  181.4270  179.1800  137.4290 C   0  0  0  0  0  0  0  0  0  0  0  0
  186.4690  178.8760  142.2880 C   0  0  0  0  0  1  0  0  0  0  0  0
  180.3760  177.0440  138.0050 C   0  0  0  0  0  2  0  0  0  0  0  0
  184.8380  176.6540  135.8100 C   0  0  0  0  0  3  0  0  0  0  0  0
  183.3560  174.2990  135.6790 C   0  0  0  0  0  3  0  0  0  0  0  0
  184.1530  174.6800  134.5990 C   0  0  0  0  0  3  0  0  0  0  0  0
  180.9950  174.6160  137.4390 N   0  0  0  0  0  2  0  0  0  0  0  0
  182.8720  178.9890  139.2420 N   0  0  1  0  0  0  0  0  0  0  0  0
  181.6390  177.7310  137.5180 C   0  0  2  0  0  3  0  0  0  0  0  0
  184.3010  179.3000  139.1740 C   0  0  2  0  0  3  0  0  0  0  0  0
  181.9890  181.2740  138.7130 C   0  0  0  0  0  1  0  0  0  0  0  0
  184.0600  177.1260  138.1830 C   0  0  1  0  0  3  0  0  0  0  0  0
  1 16  1  0  0  0  0
  1  6  1  0  0  0  0
  2  8  2  0  0  0  0
  3 17  2  0  0  0  0
  4 20  1  0  0  0  0
  5 27  1  0  0  0  0
  5 24  1  0  0  0  0
  7  8  2  0  0  0  0
  8 14  1  0  0  0  0
  9 18  1  0  0  0  0
 10 28  1  0  0  0  0
 10  8  1  1  0  0  0
 10 26  1  0  0  0  0
 11 15  2  0  0  0  0
 12 24  1  0  0  0  0
 13  9  2  0  0  0  0
 14  9  1  0  0  0  0
 15 23  1  0  0  0  0
 15 19  1  0  0  0  0
 16 28  1  0  0  0  0
 17 25  1  0  0  0  0
 17  5  1  0  0  0  0
 20 16  2  0  0  0  0
 21  1  2  0  0  0  0
 22  4  2  0  0  0  0
 22 21  1  0  0  0  0
 23  6  1  0  0  0  0
 25 19  1  0  0  0  0
 25 12  1  0  0  0  0
 26 24  1  0  0  0  0
 26 13  1  0  0  0  0
 28 12  1  0  0  0  0
M  END
>  <MODEL>
5

>  <REMARK>
 VINA RESULT:      -5.3      2.753      5.682
  Name = 
  0 active torsions:
  status: ('A' for Active; 'I' for Inactive)
                            x       y       z     vdW  Elec       q    Type
                         _______ _______ _______ _____ _____    ______ ____

>  <TORSDO>
F 0

$$$$
=
 OpenBabel11122411583D

 28 32  0  0  1  0  0  0  0  0999 V2000
  183.3900  177.5030  136.2850 C   0  0  0  0  0  0  0  0  0  0  0  0
  187.1810  179.1840  137.1950 O   0  0  0  0  0  0  0  0  0  0  0  0
  184.5410  172.5130  137.8240 O   0  0  0  0  0  0  0  0  0  0  0  0
  183.5380  178.3770  138.9450 C   0  0  0  0  0  3  0  0  0  0  0  0
  186.4900  173.4420  136.8900 N   0  0  0  0  0  0  0  0  0  0  0  0
  183.2310  176.9960  134.8820 C   0  0  0  0  0  2  0  0  0  0  0  0
  188.2970  178.0250  139.0560 O   0  0  0  0  0  0  0  0  0  0  0  0
  187.9480  177.9550  137.5950 S   0  0  0  0  0  0  0  0  0  0  0  0
  189.5340  176.8400  135.6750 C   0  0  0  0  0  0  0  0  0  0  0  0
  186.9940  176.4790  137.2970 C   0  0  2  0  0  3  0  0  0  0  0  0
  181.1860  173.9970  135.4030 O   0  0  0  0  0  0  0  0  0  0  0  0
  185.5930  175.2530  135.8010 C   0  0  1  0  0  3  0  0  0  0  0  0
  188.7760  175.7850  135.6510 N   0  0  0  0  0  0  0  0  0  0  0  0
  189.3910  177.8490  136.6680 N   0  0  0  0  0  2  0  0  0  0  0  0
  182.2410  174.6530  135.2030 C   0  0  0  0  0  0  0  0  0  0  0  0
  184.5800  177.2960  137.0230 C   0  0  0  0  0  0  0  0  0  0  0  0
  185.1030  173.3910  137.1170 C   0  0  0  0  0  0  0  0  0  0  0  0
  190.5410  177.0280  134.5990 C   0  0  0  0  0  1  0  0  0  0  0  0
  183.5540  173.9420  135.3020 C   0  0  0  0  0  2  0  0  0  0  0  0
  184.6290  177.7360  138.3570 C   0  0  0  0  0  3  0  0  0  0  0  0
  182.3040  178.1580  136.8820 C   0  0  0  0  0  3  0  0  0  0  0  0
  182.3780  178.5940  138.2050 C   0  0  0  0  0  3  0  0  0  0  0  0
  182.1380  176.0320  134.8250 N   0  0  0  0  0  2  0  0  0  0  0  0
  186.8380  174.4690  136.0010 N   0  0  1  0  0  0  0  0  0  0  0  0
  184.4100  174.4870  136.4310 C   0  0  2  0  0  3  0  0  0  0  0  0
  187.8000  175.3520  136.6620 C   0  0  2  0  0  3  0  0  0  0  0  0
  187.3990  172.3560  137.2260 C   0  0  0  0  0  1  0  0  0  0  0  0
  185.8060  176.6590  136.3780 C   0  0  1  0  0  3  0  0  0  0  0  0
  1 21  2  0  0  0  0
  1 16  1  0  0  0  0
  2  8  2  0  0  0  0
  5 17  1  0  0  0  0
  5 27  1  0  0  0  0
  6  1  1  0  0  0  0
  8  7  2  0  0  0  0
  9 14  1  0  0  0  0
 10  8  1  6  0  0  0
 12 24  1  0  0  0  0
 12 28  1  0  0  0  0
 12 25  1  0  0  0  0
 13  9  2  0  0  0  0
 13 26  1  0  0  0  0
 14  8  1  0  0  0  0
 15 19  1  0  0  0  0
 15 11  2  0  0  0  0
 16 20  2  0  0  0  0
 17  3  2  0  0  0  0
 18  9  1  0  0  0  0
 19 25  1  0  0  0  0
 20  4  1  0  0  0  0
 21 22  1  0  0  0  0
 22  4  2  0  0  0  0
 23  6  1  0  0  0  0
 23 15  1  0  0  0  0
 24 26  1  0  0  0  0
 24  5  1  0  0  0  0
 25 17  1  0  0  0  0
 26 10  1  0  0  0  0
 28 16  1  0  0  0  0
 28 10  1  0  0  0  0
M  END
>  <MODEL>
6

>  <REMARK>
 VINA RESULT:      -5.2      2.835      6.017
  Name = 
  0 active torsions:
  status: ('A' for Active; 'I' for Inactive)
                            x       y       z     vdW  Elec       q    Type
                         _______ _______ _______ _____ _____    ______ ____

>  <TORSDO>
F 0

$$$$
=
 OpenBabel11122411583D

 28 32  0  0  1  0  0  0  0  0999 V2000
  186.0000  177.0810  137.4480 C   0  0  0  0  0  0  0  0  0  0  0  0
  182.4990  177.3650  135.0620 O   0  0  0  0  0  0  0  0  0  0  0  0
  183.5700  177.6430  142.1770 O   0  0  0  0  0  0  0  0  0  0  0  0
  184.7680  174.5870  137.0910 C   0  0  0  0  0  3  0  0  0  0  0  0
  182.4260  178.9850  140.6210 N   0  0  0  0  0  0  0  0  0  0  0  0
  186.7130  178.3760  137.7000 C   0  0  0  0  0  2  0  0  0  0  0  0
  180.4990  176.5410  136.2320 O   0  0  0  0  0  0  0  0  0  0  0  0
  181.4680  177.6830  136.1070 S   0  0  0  0  0  0  0  0  0  0  0  0
  180.8050  180.3150  136.3920 C   0  0  0  0  0  0  0  0  0  0  0  0
  182.2310  177.9730  137.6920 C   0  0  2  0  0  3  0  0  0  0  0  0
  187.8370  177.9430  141.1640 O   0  0  0  0  0  0  0  0  0  0  0  0
  183.9730  179.0450  138.9250 C   0  0  1  0  0  3  0  0  0  0  0  0
  181.3300  180.3260  137.5800 N   0  0  0  0  0  0  0  0  0  0  0  0
  180.6160  179.1080  135.6620 N   0  0  0  0  0  2  0  0  0  0  0  0
  187.0990  178.3610  140.2340 C   0  0  0  0  0  0  0  0  0  0  0  0
  184.5880  176.9880  137.4810 C   0  0  0  0  0  0  0  0  0  0  0  0
  183.5290  178.2360  141.0670 C   0  0  0  0  0  0  0  0  0  0  0  0
  180.4460  181.6060  135.7500 C   0  0  0  0  0  1  0  0  0  0  0  0
  185.8010  179.0160  140.5920 C   0  0  0  0  0  2  0  0  0  0  0  0
  183.9920  175.7260  137.3080 C   0  0  0  0  0  3  0  0  0  0  0  0
  186.7690  175.9320  137.2180 C   0  0  0  0  0  3  0  0  0  0  0  0
  186.1570  174.6910  137.0400 C   0  0  0  0  0  3  0  0  0  0  0  0
  187.5590  178.2530  138.8810 N   0  0  0  0  0  2  0  0  0  0  0  0
  182.6790  179.6050  139.3890 N   0  0  1  0  0  0  0  0  0  0  0  0
  184.6090  178.2330  140.0730 C   0  0  2  0  0  3  0  0  0  0  0  0
  181.6570  179.1740  138.4330 C   0  0  2  0  0  3  0  0  0  0  0  0
  181.3210  179.3770  141.4830 C   0  0  0  0  0  1  0  0  0  0  0  0
  183.7210  178.2300  137.6490 C   0  0  1  0  0  3  0  0  0  0  0  0
  1 16  1  0  0  0  0
  1  6  1  0  0  0  0
  2  8  2  0  0  0  0
  4 20  1  0  0  0  0
  5 17  1  0  0  0  0
  5 27  1  0  0  0  0
  6 23  1  0  0  0  0
  8  7  2  0  0  0  0
  9 13  2  0  0  0  0
 10  8  1  6  0  0  0
 10 26  1  0  0  0  0
 12 24  1  0  0  0  0
 12 25  1  0  0  0  0
 13 26  1  0  0  0  0
 14  8  1  0  0  0  0
 14  9  1  0  0  0  0
 15 19  1  0  0  0  0
 15 11  2  0  0  0  0
 16 28  1  0  0  0  0
 17  3  2  0  0  0  0
 18  9  1  0  0  0  0
 20 16  2  0  0  0  0
 21  1  2  0  0  0  0
 22  4  2  0  0  0  0
 22 21  1  0  0  0  0
 23 15  1  0  0  0  0
 24  5  1  0  0  0  0
 25 19  1  0  0  0  0
 25 17  1  0  0  0  0
 26 24  1  0  0  0  0
 28 10  1  0  0  0  0
 28 12  1  0  0  0  0
M  END
>  <MODEL>
7

>  <REMARK>
 VINA RESULT:      -5.1      2.369      3.900
  Name = 
  0 active torsions:
  status: ('A' for Active; 'I' for Inactive)
                            x       y       z     vdW  Elec       q    Type
                         _______ _______ _______ _____ _____    ______ ____

>  <TORSDO>
F 0

$$$$
=
 OpenBabel11122411583D

 28 32  0  0  1  0  0  0  0  0999 V2000
  188.1290  172.6460  136.5950 C   0  0  0  0  0  0  0  0  0  0  0  0
  191.8540  174.1630  137.9550 O   0  0  0  0  0  0  0  0  0  0  0  0
  186.2720  177.2540  134.6170 O   0  0  0  0  0  0  0  0  0  0  0  0
  190.0920  172.5570  134.5940 C   0  0  0  0  0  3  0  0  0  0  0  0
  187.5420  177.7570  136.5320 N   0  0  0  0  0  0  0  0  0  0  0  0
  187.0180  172.6710  137.6020 C   0  0  0  0  0  2  0  0  0  0  0  0
  192.6460  176.0560  136.5990 O   0  0  0  0  0  0  0  0  0  0  0  0
  191.6850  175.6290  137.6720 S   0  0  0  0  0  0  0  0  0  0  0  0
  190.9220  177.1880  139.7780 C   0  0  0  0  0  0  0  0  0  0  0  0
  190.0220  175.9900  137.1380 C   0  0  2  0  0  3  0  0  0  0  0  0
  184.1320  173.5180  135.5040 O   0  0  0  0  0  0  0  0  0  0  0  0
  187.6810  175.6720  137.4840 C   0  0  1  0  0  3  0  0  0  0  0  0
  189.7830  177.4250  139.1990 N   0  0  0  0  0  0  0  0  0  0  0  0
  191.9890  176.5310  139.1030 N   0  0  0  0  0  2  0  0  0  0  0  0
  185.0700  173.7300  136.3160 C   0  0  0  0  0  0  0  0  0  0  0  0
  189.0390  173.7220  136.4600 C   0  0  0  0  0  0  0  0  0  0  0  0
  186.8230  176.8900  135.6900 C   0  0  0  0  0  0  0  0  0  0  0  0
  191.0960  177.5590  141.2060 C   0  0  0  0  0  1  0  0  0  0  0  0
  185.4060  175.1470  136.6640 C   0  0  0  0  0  2  0  0  0  0  0  0
  190.0090  173.6600  135.4450 C   0  0  0  0  0  3  0  0  0  0  0  0
  188.2280  171.5390  135.7410 C   0  0  0  0  0  3  0  0  0  0  0  0
  189.2050  171.4940  134.7460 C   0  0  0  0  0  3  0  0  0  0  0  0
  185.7310  172.6110  136.9200 N   0  0  0  0  0  2  0  0  0  0  0  0
  187.9790  177.1110  137.6980 N   0  0  1  0  0  0  0  0  0  0  0  0
  186.8090  175.5220  136.2200 C   0  0  2  0  0  3  0  0  0  0  0  0
  189.4350  177.2390  137.7840 C   0  0  2  0  0  3  0  0  0  0  0  0
  187.5150  179.2060  136.4040 C   0  0  0  0  0  1  0  0  0  0  0  0
  189.0080  174.9040  137.4230 C   0  0  1  0  0  3  0  0  0  0  0  0
  1  6  1  0  0  0  0
  3 17  2  0  0  0  0
  4 22  2  0  0  0  0
  4 20  1  0  0  0  0
  5 24  1  0  0  0  0
  7  8  2  0  0  0  0
  8  2  2  0  0  0  0
  8 14  1  0  0  0  0
  9 18  1  0  0  0  0
 10 28  1  0  0  0  0
 10  8  1  1  0  0  0
 10 26  1  0  0  0  0
 11 15  2  0  0  0  0
 12 24  1  0  0  0  0
 13  9  2  0  0  0  0
 14  9  1  0  0  0  0
 15 19  1  0  0  0  0
 15 23  1  0  0  0  0
 16  1  1  0  0  0  0
 16 28  1  0  0  0  0
 17 25  1  0  0  0  0
 17  5  1  0  0  0  0
 20 16  2  0  0  0  0
 21  1  2  0  0  0  0
 22 21  1  0  0  0  0
 23  6  1  0  0  0  0
 24 26  1  0  0  0  0
 25 19  1  0  0  0  0
 25 12  1  0  0  0  0
 26 13  1  0  0  0  0
 27  5  1  0  0  0  0
 28 12  1  0  0  0  0
M  END
>  <MODEL>
8

>  <REMARK>
 VINA RESULT:      -5.1      3.480      6.102
  Name = 
  0 active torsions:
  status: ('A' for Active; 'I' for Inactive)
                            x       y       z     vdW  Elec       q    Type
                         _______ _______ _______ _____ _____    ______ ____

>  <TORSDO>
F 0

$$$$
=
 OpenBabel11122411583D

 28 32  0  0  1  0  0  0  0  0999 V2000
  186.7300  177.4710  143.0450 C   0  0  0  0  0  0  0  0  0  0  0  0
  186.5740  177.3250  138.8040 O   0  0  0  0  0  0  0  0  0  0  0  0
  191.7770  179.1960  143.4180 O   0  0  0  0  0  0  0  0  0  0  0  0
  185.9520  179.9270  141.9390 C   0  0  0  0  0  3  0  0  0  0  0  0
  191.6480  177.7570  141.5620 N   0  0  0  0  0  0  0  0  0  0  0  0
  187.1520  176.1980  143.7170 C   0  0  0  0  0  2  0  0  0  0  0  0
  188.0500  178.9890  137.7550 O   0  0  0  0  0  0  0  0  0  0  0  0
  187.9970  177.6600  138.4560 S   0  0  0  0  0  0  0  0  0  0  0  0
  189.6370  175.5510  137.9050 C   0  0  0  0  0  0  0  0  0  0  0  0
  189.0130  177.7340  139.9180 C   0  0  2  0  0  3  0  0  0  0  0  0
  189.1700  177.4650  146.5050 O   0  0  0  0  0  0  0  0  0  0  0  0
  189.6410  176.7250  141.9900 C   0  0  1  0  0  3  0  0  0  0  0  0
  190.3340  175.8050  138.9720 N   0  0  0  0  0  0  0  0  0  0  0  0
  188.6390  176.4450  137.4250 N   0  0  0  0  0  2  0  0  0  0  0  0
  188.9550  176.9660  145.3700 C   0  0  0  0  0  0  0  0  0  0  0  0
  187.3590  177.9360  141.8650 C   0  0  0  0  0  0  0  0  0  0  0  0
  191.1770  178.2960  142.7720 C   0  0  0  0  0  0  0  0  0  0  0  0
  189.8450  174.2610  137.1980 C   0  0  0  0  0  1  0  0  0  0  0  0
  190.1040  176.8350  144.4180 C   0  0  0  0  0  2  0  0  0  0  0  0
  186.9580  179.1740  141.3320 C   0  0  0  0  0  3  0  0  0  0  0  0
  185.7130  178.2310  143.6390 C   0  0  0  0  0  3  0  0  0  0  0  0
  185.3250  179.4520  143.0890 C   0  0  0  0  0  3  0  0  0  0  0  0
  187.6400  176.4870  145.0600 N   0  0  0  0  0  2  0  0  0  0  0  0
  190.8310  176.7140  141.1010 N   0  0  1  0  0  0  0  0  0  0  0  0
  189.9070  177.6800  143.1730 C   0  0  2  0  0  3  0  0  0  0  0  0
  190.3640  177.0480  139.7550 C   0  0  2  0  0  3  0  0  0  0  0  0
  192.9910  177.9830  141.0510 C   0  0  0  0  0  1  0  0  0  0  0  0
  188.4110  177.0960  141.1500 C   0  0  1  0  0  3  0  0  0  0  0  0
  1 21  1  0  0  0  0
  1  6  1  0  0  0  0
  4 22  1  0  0  0  0
  5 17  1  0  0  0  0
  6 23  1  0  0  0  0
  7  8  2  0  0  0  0
  8  2  2  0  0  0  0
  9 13  2  0  0  0  0
 10  8  1  6  0  0  0
 10 28  1  0  0  0  0
 12 25  1  0  0  0  0
 13 26  1  0  0  0  0
 14  9  1  0  0  0  0
 14  8  1  0  0  0  0
 15 11  2  0  0  0  0
 16  1  2  0  0  0  0
 17 25  1  0  0  0  0
 17  3  2  0  0  0  0
 18  9  1  0  0  0  0
 19 15  1  0  0  0  0
 20 16  1  0  0  0  0
 20  4  2  0  0  0  0
 22 21  2  0  0  0  0
 23 15  1  0  0  0  0
 24  5  1  0  0  0  0
 24 12  1  0  0  0  0
 25 19  1  0  0  0  0
 26 10  1  0  0  0  0
 26 24  1  0  0  0  0
 27  5  1  0  0  0  0
 28 16  1  0  0  0  0
 28 12  1  0  0  0  0
M  END
>  <MODEL>
9

>  <REMARK>
 VINA RESULT:      -5.0      4.028      7.288
  Name = 
  0 active torsions:
  status: ('A' for Active; 'I' for Inactive)
                            x       y       z     vdW  Elec       q    Type
                         _______ _______ _______ _____ _____    ______ ____

>  <TORSDO>
F 0

$$$$
