=
 OpenBabel11122412273D

 34 40  0  0  1  0  0  0  0  0999 V2000
  189.4000  177.5820  139.6680 C   0  0  1  0  0  3  0  0  0  0  0  0
  191.0710  176.6580  138.1660 C   0  0  0  0  0  2  0  0  0  0  0  0
  183.1990  178.1720  140.9010 C   0  0  0  0  0  0  0  0  0  0  0  0
  187.5230  178.5200  141.0980 C   0  0  2  0  0  3  0  0  0  0  0  0
  185.3460  179.1370  139.9470 C   0  0  2  0  0  3  0  0  0  0  0  0
  183.1110  179.4190  138.6940 C   0  0  0  0  0  1  0  0  0  0  0  0
  182.5510  177.2160  140.3980 O   0  0  0  0  0  0  0  0  0  0  0  0
  184.1480  179.3200  142.9360 C   0  0  0  0  0  2  0  0  0  0  0  0
  189.1740  177.5700  137.3450 C   0  0  2  0  0  3  0  0  0  0  0  0
  187.6860  176.3130  134.8260 C   0  0  0  0  0  2  0  0  0  0  0  0
  185.8040  178.2490  138.7890 C   0  0  0  0  0  2  0  0  0  0  0  0
  185.6160  179.4500  142.4840 C   0  0  0  0  0  2  0  0  0  0  0  0
  187.6430  177.6640  137.3940 C   0  0  1  0  0  3  0  0  0  0  0  0
  191.1630  176.4690  136.6550 C   0  0  0  0  0  2  0  0  0  0  0  0
  186.0000  178.6200  141.2500 C   0  0  2  0  0  3  0  0  0  0  0  0
  183.4410  178.2030  142.3110 N   0  0  0  0  0  2  0  0  0  0  0  0
  189.0230  175.8540  135.4400 C   0  0  1  0  0  3  0  0  0  0  0  0
  187.8670  177.7260  139.8230 C   0  0  1  0  0  3  0  0  0  0  0  0
  183.8090  179.2380  140.0360 C   0  0  1  0  0  3  0  0  0  0  0  0
  187.2550  178.3640  138.6340 N   0  0  2  0  0  0  0  0  0  0  0  0
  189.6410  177.6820  142.1580 C   0  0  0  0  0  2  0  0  0  0  0  0
  187.5020  177.8320  134.8050 C   0  0  0  0  0  2  0  0  0  0  0  0
  188.1310  177.8150  142.3140 C   0  0  0  0  0  2  0  0  0  0  0  0
  187.0810  178.4060  136.1660 C   0  0  0  0  0  2  0  0  0  0  0  0
  189.8390  176.9830  136.1100 C   0  0  1  0  0  3  0  0  0  0  0  0
  189.9640  176.8770  140.9050 C   0  0  0  0  0  2  0  0  0  0  0  0
  189.6530  176.7920  138.4680 N   0  0  2  0  0  0  0  0  0  0  0  0
  188.7870  174.8010  136.3310 O   0  0  0  0  0  0  0  0  0  0  0  0
  187.5210  174.3150  135.9920 C   0  0  0  0  0  2  0  0  0  0  0  0
  184.3650  173.8830  137.1490 O   0  0  0  0  0  0  0  0  0  0  0  0
  186.2650  172.7620  137.4300 C   0  0  0  0  0  3  0  0  0  0  0  0
  186.6680  174.1860  137.2430 C   0  0  2  0  0  3  0  0  0  0  0  0
  184.9520  172.6520  137.3690 C   0  0  0  0  0  3  0  0  0  0  0  0
  185.3360  174.9090  137.0500 C   0  0  0  0  0  2  0  0  0  0  0  0
  1 18  1  0  0  0  0
  1 26  1  1  0  0  0
  2 27  1  0  0  0  0
  3 16  1  0  0  0  0
  4 15  1  0  0  0  0
  4 23  1  1  0  0  0
  5 11  1  6  0  0  0
  5 19  1  0  0  0  0
  5 15  1  0  0  0  0
  6 19  1  0  0  0  0
  7  3  2  0  0  0  0
  9 13  1  0  0  0  0
  9 27  1  0  0  0  0
 10 17  1  0  0  0  0
 12  8  1  0  0  0  0
 13 20  1  0  0  0  0
 14  2  1  0  0  0  0
 15 12  1  0  0  0  0
 16  8  1  0  0  0  0
 17 25  1  0  0  0  0
 17 28  1  0  0  0  0
 18  4  1  0  0  0  0
 19  3  1  0  0  0  0
 20 11  1  0  0  0  0
 20 18  1  0  0  0  0
 21 23  1  0  0  0  0
 22 10  1  0  0  0  0
 22 24  1  0  0  0  0
 24 13  1  0  0  0  0
 25 14  1  0  0  0  0
 25  9  1  0  0  0  0
 26 21  1  0  0  0  0
 27  1  1  0  0  0  0
 29 28  1  0  0  0  0
 29 32  1  0  0  0  0
 30 33  1  0  0  0  0
 32 31  1  0  0  0  0
 33 31  2  0  0  0  0
 34 30  1  0  0  0  0
 34 32  1  0  0  0  0
M  END
>  <MODEL>
1

>  <REMARK>
 VINA RESULT:      -7.5      0.000      0.000
  Name = 
  3 active torsions:
  status: ('A' for Active; 'I' for Inactive)
    1  A    between atoms: C_17  and  O_28
    2  A    between atoms: O_28  and  C_29
    3  A    between atoms: C_29  and  C_32
                            x       y       z     vdW  Elec       q    Type
                         _______ _______ _______ _____ _____    ______ ____

>  <TORSDO>
F 3

$$$$
=
 OpenBabel11122412273D

 34 40  0  0  1  0  0  0  0  0999 V2000
  189.5140  177.4750  141.1850 C   0  0  1  0  0  3  0  0  0  0  0  0
  191.4930  176.6440  140.0460 C   0  0  0  0  0  2  0  0  0  0  0  0
  183.1990  178.1010  140.9600 C   0  0  0  0  0  0  0  0  0  0  0  0
  187.3520  178.3320  142.2050 C   0  0  2  0  0  3  0  0  0  0  0  0
  185.5140  179.0940  140.6300 C   0  0  2  0  0  3  0  0  0  0  0  0
  183.6410  179.5320  138.9130 C   0  0  0  0  0  1  0  0  0  0  0  0
  182.6880  177.2060  140.2350 O   0  0  0  0  0  0  0  0  0  0  0  0
  183.6390  179.0510  143.2540 C   0  0  0  0  0  2  0  0  0  0  0  0
  189.8470  177.6660  138.8820 C   0  0  2  0  0  3  0  0  0  0  0  0
  189.0000  176.6610  135.9820 C   0  0  0  0  0  2  0  0  0  0  0  0
  186.2320  178.2970  139.5410 C   0  0  0  0  0  2  0  0  0  0  0  0
  185.1720  179.1850  143.1760 C   0  0  0  0  0  2  0  0  0  0  0  0
  188.3490  177.7900  138.5750 C   0  0  1  0  0  3  0  0  0  0  0  0
  191.9410  176.5810  138.5890 C   0  0  0  0  0  2  0  0  0  0  0  0
  185.8370  178.4540  142.0010 C   0  0  2  0  0  3  0  0  0  0  0  0
  183.0990  178.0070  142.3840 N   0  0  0  0  0  2  0  0  0  0  0  0
  190.1510  176.1210  136.8530 C   0  0  1  0  0  3  0  0  0  0  0  0
  187.9890  177.6410  140.9830 C   0  0  1  0  0  3  0  0  0  0  0  0
  184.0000  179.2220  140.3610 C   0  0  1  0  0  3  0  0  0  0  0  0
  187.6780  178.3910  139.7440 N   0  0  2  0  0  0  0  0  0  0  0  0
  189.1550  177.3590  143.6590 C   0  0  0  0  0  2  0  0  0  0  0  0
  188.8290  178.1800  136.0520 C   0  0  0  0  0  2  0  0  0  0  0  0
  187.6520  177.5130  143.4640 C   0  0  0  0  0  2  0  0  0  0  0  0
  188.0970  178.6460  137.3180 C   0  0  0  0  0  2  0  0  0  0  0  0
  190.7860  177.1700  137.7930 C   0  0  1  0  0  3  0  0  0  0  0  0
  189.7650  176.6560  142.4530 C   0  0  0  0  0  2  0  0  0  0  0  0
  190.0440  176.7840  140.0130 N   0  0  2  0  0  0  0  0  0  0  0  0
  189.7070  175.0020  137.5660 O   0  0  0  0  0  0  0  0  0  0  0  0
  188.6670  174.4700  136.7990 C   0  0  0  0  0  2  0  0  0  0  0  0
  187.0490  171.6280  135.9070 O   0  0  0  0  0  0  0  0  0  0  0  0
  189.1040  172.3980  135.5450 C   0  0  0  0  0  3  0  0  0  0  0  0
  188.7000  172.9520  136.8690 C   0  0  2  0  0  3  0  0  0  0  0  0
  188.1320  171.6570  135.0490 C   0  0  0  0  0  3  0  0  0  0  0  0
  187.2890  172.4020  137.0680 C   0  0  0  0  0  2  0  0  0  0  0  0
  1 26  1  1  0  0  0
  3 16  1  0  0  0  0
  4 23  1  1  0  0  0
  5 11  1  6  0  0  0
  5 15  1  0  0  0  0
  6 19  1  0  0  0  0
  7  3  2  0  0  0  0
  9 27  1  0  0  0  0
 10 22  1  0  0  0  0
 10 17  1  0  0  0  0
 11 20  1  0  0  0  0
 12  8  1  0  0  0  0
 13  9  1  0  0  0  0
 13 20  1  0  0  0  0
 14  2  1  0  0  0  0
 15  4  1  0  0  0  0
 15 12  1  0  0  0  0
 16  8  1  0  0  0  0
 17 28  1  0  0  0  0
 17 25  1  0  0  0  0
 18  1  1  0  0  0  0
 18  4  1  0  0  0  0
 19  5  1  0  0  0  0
 19  3  1  0  0  0  0
 20 18  1  0  0  0  0
 22 24  1  0  0  0  0
 23 21  1  0  0  0  0
 24 13  1  0  0  0  0
 25 14  1  0  0  0  0
 25  9  1  0  0  0  0
 26 21  1  0  0  0  0
 27  2  1  0  0  0  0
 27  1  1  0  0  0  0
 29 32  1  0  0  0  0
 29 28  1  0  0  0  0
 30 34  1  0  0  0  0
 31 32  1  0  0  0  0
 32 34  1  0  0  0  0
 33 31  2  0  0  0  0
 33 30  1  0  0  0  0
M  END
>  <MODEL>
2

>  <REMARK>
 VINA RESULT:      -7.4      1.415      1.804
  Name = 
  3 active torsions:
  status: ('A' for Active; 'I' for Inactive)
    1  A    between atoms: C_17  and  O_28
    2  A    between atoms: O_28  and  C_29
    3  A    between atoms: C_29  and  C_32
                            x       y       z     vdW  Elec       q    Type
                         _______ _______ _______ _____ _____    ______ ____

>  <TORSDO>
F 3

$$$$
=
 OpenBabel11122412273D

 34 40  0  0  1  0  0  0  0  0999 V2000
  189.4300  177.5730  141.5090 C   0  0  1  0  0  3  0  0  0  0  0  0
  191.4880  176.7910  140.4810 C   0  0  0  0  0  2  0  0  0  0  0  0
  183.1220  178.0280  140.9460 C   0  0  0  0  0  0  0  0  0  0  0  0
  187.1950  178.3740  142.4090 C   0  0  2  0  0  3  0  0  0  0  0  0
  185.4240  179.0810  140.7350 C   0  0  2  0  0  3  0  0  0  0  0  0
  183.6340  179.4630  138.9180 C   0  0  0  0  0  1  0  0  0  0  0  0
  182.6740  177.1170  140.2000 O   0  0  0  0  0  0  0  0  0  0  0  0
  183.4140  178.9970  143.2560 C   0  0  0  0  0  2  0  0  0  0  0  0
  189.8800  177.7640  139.2260 C   0  0  2  0  0  3  0  0  0  0  0  0
  189.2160  176.7260  136.2900 C   0  0  0  0  0  2  0  0  0  0  0  0
  186.2200  178.3010  139.6890 C   0  0  0  0  0  2  0  0  0  0  0  0
  184.9440  179.1720  143.2580 C   0  0  0  0  0  2  0  0  0  0  0  0
  188.3980  177.8470  138.8390 C   0  0  1  0  0  3  0  0  0  0  0  0
  192.0150  176.7350  139.0500 C   0  0  0  0  0  2  0  0  0  0  0  0
  185.6900  178.4550  142.1240 C   0  0  2  0  0  3  0  0  0  0  0  0
  182.9490  177.9360  142.3630 N   0  0  0  0  0  2  0  0  0  0  0  0
  190.3330  176.2200  137.2240 C   0  0  1  0  0  3  0  0  0  0  0  0
  187.9140  177.6970  141.2260 C   0  0  1  0  0  3  0  0  0  0  0  0
  183.9230  179.1680  140.3850 C   0  0  1  0  0  3  0  0  0  0  0  0
  187.6500  178.4340  139.9690 N   0  0  2  0  0  0  0  0  0  0  0  0
  188.9440  177.4560  143.9620 C   0  0  0  0  0  2  0  0  0  0  0  0
  189.0010  178.2400  136.3430 C   0  0  0  0  0  2  0  0  0  0  0  0
  187.4490  177.5680  143.6860 C   0  0  0  0  0  2  0  0  0  0  0  0
  188.1910  178.6910  137.5670 C   0  0  0  0  0  2  0  0  0  0  0  0
  190.8890  177.2900  138.1920 C   0  0  1  0  0  3  0  0  0  0  0  0
  189.6360  176.7650  142.7930 C   0  0  0  0  0  2  0  0  0  0  0  0
  190.0400  176.8920  140.3710 N   0  0  2  0  0  0  0  0  0  0  0  0
  189.8820  175.0930  137.9180 O   0  0  0  0  0  0  0  0  0  0  0  0
  190.1510  174.0130  137.0740 C   0  0  0  0  0  2  0  0  0  0  0  0
  193.0590  172.5900  136.0700 O   0  0  0  0  0  0  0  0  0  0  0  0
  191.3960  173.6000  134.9920 C   0  0  0  0  0  3  0  0  0  0  0  0
  191.4550  174.2520  136.3310 C   0  0  2  0  0  3  0  0  0  0  0  0
  192.3270  172.6690  134.9010 C   0  0  0  0  0  3  0  0  0  0  0  0
  192.6020  173.5240  137.0310 C   0  0  0  0  0  2  0  0  0  0  0  0
  1 26  1  1  0  0  0
  3 16  1  0  0  0  0
  4 23  1  1  0  0  0
  5 11  1  6  0  0  0
  5 15  1  0  0  0  0
  6 19  1  0  0  0  0
  7  3  2  0  0  0  0
  8 12  1  0  0  0  0
  9 27  1  0  0  0  0
 10 22  1  0  0  0  0
 10 17  1  0  0  0  0
 11 20  1  0  0  0  0
 13  9  1  0  0  0  0
 13 20  1  0  0  0  0
 14  2  1  0  0  0  0
 15  4  1  0  0  0  0
 15 12  1  0  0  0  0
 16  8  1  0  0  0  0
 17 28  1  0  0  0  0
 17 25  1  0  0  0  0
 18  1  1  0  0  0  0
 18  4  1  0  0  0  0
 19  5  1  0  0  0  0
 19  3  1  0  0  0  0
 20 18  1  0  0  0  0
 22 24  1  0  0  0  0
 23 21  1  0  0  0  0
 24 13  1  0  0  0  0
 25 14  1  0  0  0  0
 25  9  1  0  0  0  0
 26 21  1  0  0  0  0
 27  2  1  0  0  0  0
 27  1  1  0  0  0  0
 29 28  1  0  0  0  0
 30 34  1  0  0  0  0
 31 32  1  0  0  0  0
 32 34  1  0  0  0  0
 32 29  1  0  0  0  0
 33 31  2  0  0  0  0
 33 30  1  0  0  0  0
M  END
>  <MODEL>
3

>  <REMARK>
 VINA RESULT:      -7.2      2.078      3.127
  Name = 
  3 active torsions:
  status: ('A' for Active; 'I' for Inactive)
    1  A    between atoms: C_17  and  O_28
    2  A    between atoms: O_28  and  C_29
    3  A    between atoms: C_29  and  C_32
                            x       y       z     vdW  Elec       q    Type
                         _______ _______ _______ _____ _____    ______ ____

>  <TORSDO>
F 3

$$$$
=
 OpenBabel11122412273D

 34 40  0  0  1  0  0  0  0  0999 V2000
  188.7850  177.5650  141.5790 C   0  0  1  0  0  3  0  0  0  0  0  0
  190.8700  176.8100  140.5850 C   0  0  0  0  0  2  0  0  0  0  0  0
  182.5300  178.2810  140.7560 C   0  0  0  0  0  0  0  0  0  0  0  0
  186.5310  178.3570  142.4400 C   0  0  2  0  0  3  0  0  0  0  0  0
  184.8690  179.2710  140.7540 C   0  0  2  0  0  3  0  0  0  0  0  0
  183.1870  179.8750  138.8960 C   0  0  0  0  0  1  0  0  0  0  0  0
  182.0940  177.4570  139.9080 O   0  0  0  0  0  0  0  0  0  0  0  0
  182.7310  179.0270  143.1560 C   0  0  0  0  0  2  0  0  0  0  0  0
  189.3570  177.9460  139.3480 C   0  0  2  0  0  3  0  0  0  0  0  0
  188.8140  177.2010  136.3000 C   0  0  0  0  0  2  0  0  0  0  0  0
  185.6950  178.5620  139.6800 C   0  0  0  0  0  2  0  0  0  0  0  0
  184.2640  179.1490  143.2490 C   0  0  0  0  0  2  0  0  0  0  0  0
  187.9000  178.1140  138.8990 C   0  0  1  0  0  3  0  0  0  0  0  0
  191.4680  176.8660  139.1820 C   0  0  0  0  0  2  0  0  0  0  0  0
  185.0460  178.5130  142.0910 C   0  0  2  0  0  3  0  0  0  0  0  0
  182.2820  178.0670  142.1480 N   0  0  0  0  0  2  0  0  0  0  0  0
  189.8670  176.5760  137.2370 C   0  0  1  0  0  3  0  0  0  0  0  0
  187.2900  177.7650  141.2360 C   0  0  1  0  0  3  0  0  0  0  0  0
  183.3920  179.4390  140.3410 C   0  0  1  0  0  3  0  0  0  0  0  0
  187.1120  178.6210  140.0400 N   0  0  2  0  0  0  0  0  0  0  0  0
  188.1700  177.2430  143.9840 C   0  0  0  0  0  2  0  0  0  0  0  0
  188.6410  178.7110  136.4820 C   0  0  0  0  0  2  0  0  0  0  0  0
  186.6960  177.4300  143.6480 C   0  0  0  0  0  2  0  0  0  0  0  0
  187.7820  179.0760  137.7010 C   0  0  0  0  0  2  0  0  0  0  0  0
  190.4030  177.5340  138.3240 C   0  0  1  0  0  3  0  0  0  0  0  0
  188.9010  176.6380  142.7920 C   0  0  0  0  0  2  0  0  0  0  0  0
  189.4320  176.9700  140.4140 N   0  0  2  0  0  0  0  0  0  0  0  0
  189.3480  175.4060  137.8010 O   0  0  0  0  0  0  0  0  0  0  0  0
  188.0880  175.2470  137.2180 C   0  0  0  0  0  2  0  0  0  0  0  0
  187.8900  171.8640  137.1570 O   0  0  0  0  0  0  0  0  0  0  0  0
  186.7010  173.4850  136.2050 C   0  0  0  0  0  3  0  0  0  0  0  0
  188.0870  174.0230  136.3180 C   0  0  2  0  0  3  0  0  0  0  0  0
  186.6500  172.2610  136.6940 C   0  0  0  0  0  3  0  0  0  0  0  0
  188.8580  172.8810  136.9790 C   0  0  0  0  0  2  0  0  0  0  0  0
  1 26  1  1  0  0  0
  3 16  1  0  0  0  0
  4 23  1  1  0  0  0
  5 11  1  6  0  0  0
  5 15  1  0  0  0  0
  6 19  1  0  0  0  0
  7  3  2  0  0  0  0
  8 12  1  0  0  0  0
  9 27  1  0  0  0  0
 10 22  1  0  0  0  0
 10 17  1  0  0  0  0
 11 20  1  0  0  0  0
 13  9  1  0  0  0  0
 13 20  1  0  0  0  0
 14  2  1  0  0  0  0
 15  4  1  0  0  0  0
 15 12  1  0  0  0  0
 16  8  1  0  0  0  0
 17 28  1  0  0  0  0
 17 25  1  0  0  0  0
 18  1  1  0  0  0  0
 18  4  1  0  0  0  0
 19  5  1  0  0  0  0
 19  3  1  0  0  0  0
 20 18  1  0  0  0  0
 22 24  1  0  0  0  0
 23 21  1  0  0  0  0
 24 13  1  0  0  0  0
 25 14  1  0  0  0  0
 25  9  1  0  0  0  0
 26 21  1  0  0  0  0
 27  2  1  0  0  0  0
 27  1  1  0  0  0  0
 29 28  1  0  0  0  0
 31 32  1  0  0  0  0
 31 33  2  0  0  0  0
 32 34  1  0  0  0  0
 32 29  1  0  0  0  0
 33 30  1  0  0  0  0
 34 30  1  0  0  0  0
M  END
>  <MODEL>
4

>  <REMARK>
 VINA RESULT:      -6.7      1.440      1.951
  Name = 
  3 active torsions:
  status: ('A' for Active; 'I' for Inactive)
    1  A    between atoms: C_17  and  O_28
    2  A    between atoms: O_28  and  C_29
    3  A    between atoms: C_29  and  C_32
                            x       y       z     vdW  Elec       q    Type
                         _______ _______ _______ _____ _____    ______ ____

>  <TORSDO>
F 3

$$$$
=
 OpenBabel11122412273D

 34 40  0  0  1  0  0  0  0  0999 V2000
  189.1310  177.1170  136.9220 C   0  0  1  0  0  3  0  0  0  0  0  0
  187.7710  176.8800  134.9230 C   0  0  0  0  0  2  0  0  0  0  0  0
  189.3400  176.4900  143.2380 C   0  0  0  0  0  0  0  0  0  0  0  0
  190.3890  177.3590  139.1150 C   0  0  2  0  0  3  0  0  0  0  0  0
  189.0580  177.9650  141.1890 C   0  0  2  0  0  3  0  0  0  0  0  0
  187.5350  178.2720  143.2460 C   0  0  0  0  0  1  0  0  0  0  0  0
  188.5060  175.6300  143.6290 O   0  0  0  0  0  0  0  0  0  0  0  0
  191.7330  177.1520  142.7970 C   0  0  0  0  0  2  0  0  0  0  0  0
  186.8770  177.7150  136.8240 C   0  0  2  0  0  3  0  0  0  0  0  0
  183.8990  177.0100  137.7030 C   0  0  0  0  0  2  0  0  0  0  0  0
  187.8170  177.5020  140.4260 C   0  0  0  0  0  2  0  0  0  0  0  0
  191.5990  177.6010  141.3290 C   0  0  0  0  0  2  0  0  0  0  0  0
  186.6720  177.5820  138.3390 C   0  0  1  0  0  3  0  0  0  0  0  0
  186.3020  177.1300  134.5940 C   0  0  0  0  0  2  0  0  0  0  0  0
  190.2860  177.2040  140.6380 C   0  0  2  0  0  3  0  0  0  0  0  0
  190.7320  176.1640  143.2000 N   0  0  0  0  0  2  0  0  0  0  0  0
  184.6090  176.5860  136.4020 C   0  0  1  0  0  3  0  0  0  0  0  0
  189.0390  177.0020  138.4630 C   0  0  1  0  0  3  0  0  0  0  0  0
  188.8930  177.8260  142.7170 C   0  0  1  0  0  3  0  0  0  0  0  0
  187.9580  177.8520  139.0120 N   0  0  2  0  0  0  0  0  0  0  0  0
  191.5690  176.5600  137.0450 C   0  0  0  0  0  2  0  0  0  0  0  0
  184.2260  178.4350  138.1530 C   0  0  0  0  0  2  0  0  0  0  0  0
  191.4800  176.4360  138.5620 C   0  0  0  0  0  2  0  0  0  0  0  0
  185.5880  178.5490  138.8520 C   0  0  0  0  0  2  0  0  0  0  0  0
  185.6750  177.5880  135.9020 C   0  0  1  0  0  3  0  0  0  0  0  0
  190.2330  176.1830  136.4160 C   0  0  0  0  0  2  0  0  0  0  0  0
  187.8370  176.7310  136.3700 N   0  0  2  0  0  0  0  0  0  0  0  0
  185.1510  175.3070  136.5650 O   0  0  0  0  0  0  0  0  0  0  0  0
  184.4300  174.7370  137.6170 C   0  0  0  0  0  2  0  0  0  0  0  0
  185.1570  171.9680  135.8020 O   0  0  0  0  0  0  0  0  0  0  0  0
  186.1780  173.0100  137.4810 C   0  0  0  0  0  3  0  0  0  0  0  0
  184.7210  173.2470  137.6940 C   0  0  2  0  0  3  0  0  0  0  0  0
  186.3640  172.2800  136.3970 C   0  0  0  0  0  3  0  0  0  0  0  0
  184.0680  172.5210  136.5190 C   0  0  0  0  0  2  0  0  0  0  0  0
  1 26  1  6  0  0  0
  1 18  1  0  0  0  0
  2 27  1  0  0  0  0
  3  7  2  0  0  0  0
  4 23  1  6  0  0  0
  4 15  1  0  0  0  0
  5 11  1  6  0  0  0
  5 19  1  0  0  0  0
  8 16  1  0  0  0  0
  9 13  1  0  0  0  0
 10 22  1  0  0  0  0
 12  8  1  0  0  0  0
 13 24  1  0  0  0  0
 13 20  1  0  0  0  0
 14  2  1  0  0  0  0
 14 25  1  0  0  0  0
 15  5  1  0  0  0  0
 15 12  1  0  0  0  0
 16  3  1  0  0  0  0
 17 28  1  0  0  0  0
 17 10  1  0  0  0  0
 18 20  1  0  0  0  0
 18  4  1  0  0  0  0
 19  3  1  0  0  0  0
 19  6  1  0  0  0  0
 20 11  1  0  0  0  0
 21 23  1  0  0  0  0
 22 24  1  0  0  0  0
 25 17  1  0  0  0  0
 25  9  1  0  0  0  0
 26 21  1  0  0  0  0
 27  9  1  0  0  0  0
 27  1  1  0  0  0  0
 28 29  1  0  0  0  0
 29 32  1  0  0  0  0
 30 33  1  0  0  0  0
 30 34  1  0  0  0  0
 31 32  1  0  0  0  0
 33 31  2  0  0  0  0
 34 32  1  0  0  0  0
M  END
>  <MODEL>
5

>  <REMARK>
 VINA RESULT:      -6.7      2.037      4.497
  Name = 
  3 active torsions:
  status: ('A' for Active; 'I' for Inactive)
    1  A    between atoms: C_17  and  O_28
    2  A    between atoms: O_28  and  C_29
    3  A    between atoms: C_29  and  C_32
                            x       y       z     vdW  Elec       q    Type
                         _______ _______ _______ _____ _____    ______ ____

>  <TORSDO>
F 3

$$$$
=
 OpenBabel11122412273D

 34 40  0  0  1  0  0  0  0  0999 V2000
  190.7390  177.2260  138.3940 C   0  0  1  0  0  3  0  0  0  0  0  0
  190.5740  176.5740  136.0590 C   0  0  0  0  0  2  0  0  0  0  0  0
  187.8860  177.2040  144.0670 C   0  0  0  0  0  0  0  0  0  0  0  0
  190.7200  177.8810  140.8470 C   0  0  2  0  0  3  0  0  0  0  0  0
  188.4820  178.4180  141.9170 C   0  0  2  0  0  3  0  0  0  0  0  0
  186.1210  178.6270  142.9310 C   0  0  0  0  0  1  0  0  0  0  0  0
  187.0720  176.2460  144.1530 O   0  0  0  0  0  0  0  0  0  0  0  0
  190.0940  178.2430  144.7050 C   0  0  0  0  0  2  0  0  0  0  0  0
  188.7730  177.3990  137.1470 C   0  0  2  0  0  3  0  0  0  0  0  0
  185.8500  176.2510  136.6200 C   0  0  0  0  0  2  0  0  0  0  0  0
  187.8380  177.6750  140.7460 C   0  0  0  0  0  2  0  0  0  0  0  0
  190.6480  178.5300  143.2960 C   0  0  0  0  0  2  0  0  0  0  0  0
  187.8670  177.3640  138.3850 C   0  0  1  0  0  3  0  0  0  0  0  0
  189.4390  176.5260  135.0400 C   0  0  0  0  0  2  0  0  0  0  0  0
  189.9000  177.8440  142.1430 C   0  0  2  0  0  3  0  0  0  0  0  0
  189.1440  177.1310  144.7440 N   0  0  0  0  0  2  0  0  0  0  0  0
  187.1510  175.8490  135.8970 C   0  0  1  0  0  3  0  0  0  0  0  0
  189.9150  177.2320  139.7040 C   0  0  1  0  0  3  0  0  0  0  0  0
  187.6040  178.3870  143.1850 C   0  0  1  0  0  3  0  0  0  0  0  0
  188.6150  177.9200  139.5300 N   0  0  2  0  0  0  0  0  0  0  0  0
  192.8460  177.1280  139.7410 C   0  0  0  0  0  2  0  0  0  0  0  0
  185.7490  177.7460  136.9300 C   0  0  0  0  0  2  0  0  0  0  0  0
  192.0380  177.1240  141.0330 C   0  0  0  0  0  2  0  0  0  0  0  0
  186.5680  178.1630  138.1600 C   0  0  0  0  0  2  0  0  0  0  0  0
  188.2030  176.9780  135.8020 C   0  0  1  0  0  3  0  0  0  0  0  0
  192.0460  176.4640  138.6270 C   0  0  0  0  0  2  0  0  0  0  0  0
  189.9370  176.5670  137.3680 N   0  0  2  0  0  0  0  0  0  0  0  0
  187.6850  174.7070  136.5030 O   0  0  0  0  0  0  0  0  0  0  0  0
  186.6240  174.1440  137.2180 C   0  0  0  0  0  2  0  0  0  0  0  0
  186.3260  171.4610  135.1700 O   0  0  0  0  0  0  0  0  0  0  0  0
  187.9640  172.2230  136.4670 C   0  0  0  0  0  3  0  0  0  0  0  0
  186.7000  172.6280  137.1450 C   0  0  2  0  0  3  0  0  0  0  0  0
  187.6910  171.5650  135.3560 C   0  0  0  0  0  3  0  0  0  0  0  0
  185.6110  172.0900  136.2180 C   0  0  0  0  0  2  0  0  0  0  0  0
  1 26  1  1  0  0  0
  1 18  1  0  0  0  0
  2 27  1  0  0  0  0
  3  7  2  0  0  0  0
  3 16  1  0  0  0  0
  4 23  1  1  0  0  0
  4 15  1  0  0  0  0
  5 11  1  6  0  0  0
  5 15  1  0  0  0  0
  5 19  1  0  0  0  0
  6 19  1  0  0  0  0
  8 16  1  0  0  0  0
  9 27  1  0  0  0  0
  9 13  1  0  0  0  0
 10 22  1  0  0  0  0
 12  8  1  0  0  0  0
 13 20  1  0  0  0  0
 14 25  1  0  0  0  0
 14  2  1  0  0  0  0
 15 12  1  0  0  0  0
 17 28  1  0  0  0  0
 17 10  1  0  0  0  0
 18  4  1  0  0  0  0
 19  3  1  0  0  0  0
 20 18  1  0  0  0  0
 20 11  1  0  0  0  0
 21 23  1  0  0  0  0
 22 24  1  0  0  0  0
 24 13  1  0  0  0  0
 25 17  1  0  0  0  0
 25  9  1  0  0  0  0
 26 21  1  0  0  0  0
 27  1  1  0  0  0  0
 28 29  1  0  0  0  0
 30 33  1  0  0  0  0
 30 34  1  0  0  0  0
 31 32  1  0  0  0  0
 32 29  1  0  0  0  0
 33 31  2  0  0  0  0
 34 32  1  0  0  0  0
M  END
>  <MODEL>
6

>  <REMARK>
 VINA RESULT:      -6.5      2.188      3.491
  Name = 
  3 active torsions:
  status: ('A' for Active; 'I' for Inactive)
    1  A    between atoms: C_17  and  O_28
    2  A    between atoms: O_28  and  C_29
    3  A    between atoms: C_29  and  C_32
                            x       y       z     vdW  Elec       q    Type
                         _______ _______ _______ _____ _____    ______ ____

>  <TORSDO>
F 3

$$$$
=
 OpenBabel11122412273D

 34 40  0  0  1  0  0  0  0  0999 V2000
  189.1360  177.6080  139.1010 C   0  0  1  0  0  3  0  0  0  0  0  0
  188.4850  177.2460  136.7880 C   0  0  0  0  0  2  0  0  0  0  0  0
  187.3370  177.2470  145.1800 C   0  0  0  0  0  0  0  0  0  0  0  0
  189.6270  177.9790  141.5640 C   0  0  2  0  0  3  0  0  0  0  0  0
  187.6960  178.6270  143.0780 C   0  0  2  0  0  3  0  0  0  0  0  0
  185.5930  178.9690  144.5300 C   0  0  0  0  0  1  0  0  0  0  0  0
  186.4370  176.3780  145.3280 O   0  0  0  0  0  0  0  0  0  0  0  0
  189.7350  177.9660  145.4880 C   0  0  0  0  0  2  0  0  0  0  0  0
  187.0200  178.1290  138.2650 C   0  0  2  0  0  3  0  0  0  0  0  0
  183.9290  177.3640  138.1890 C   0  0  0  0  0  2  0  0  0  0  0  0
  186.7700  178.0940  141.9850 C   0  0  0  0  0  2  0  0  0  0  0  0
  190.0660  178.3500  144.0330 C   0  0  0  0  0  2  0  0  0  0  0  0
  186.3460  178.0510  139.6410 C   0  0  1  0  0  3  0  0  0  0  0  0
  187.1930  177.4340  135.9990 C   0  0  0  0  0  2  0  0  0  0  0  0
  189.0480  177.8830  142.9820 C   0  0  2  0  0  3  0  0  0  0  0  0
  188.6750  176.9650  145.6010 N   0  0  0  0  0  2  0  0  0  0  0  0
  185.0230  176.9110  137.2020 C   0  0  1  0  0  3  0  0  0  0  0  0
  188.5610  177.5530  140.5370 C   0  0  1  0  0  3  0  0  0  0  0  0
  187.0560  178.5450  144.4790 C   0  0  1  0  0  3  0  0  0  0  0  0
  187.3470  178.3900  140.6730 N   0  0  2  0  0  0  0  0  0  0  0  0
  191.4170  177.1340  140.0170 C   0  0  0  0  0  2  0  0  0  0  0  0
  184.0720  178.8170  138.6490 C   0  0  0  0  0  2  0  0  0  0  0  0
  190.8530  177.0700  141.4310 C   0  0  0  0  0  2  0  0  0  0  0  0
  185.1390  179.0030  139.7370 C   0  0  0  0  0  2  0  0  0  0  0  0
  186.1750  177.9250  137.0170 C   0  0  1  0  0  3  0  0  0  0  0  0
  190.3580  176.6900  139.0160 C   0  0  0  0  0  2  0  0  0  0  0  0
  188.0900  177.1580  138.1870 N   0  0  2  0  0  0  0  0  0  0  0  0
  185.5070  175.6580  137.5910 O   0  0  0  0  0  0  0  0  0  0  0  0
  184.4390  174.7780  137.3970 C   0  0  0  0  0  2  0  0  0  0  0  0
  185.0920  171.7650  135.9890 O   0  0  0  0  0  0  0  0  0  0  0  0
  186.2960  173.1740  137.2180 C   0  0  0  0  0  3  0  0  0  0  0  0
  184.8880  173.3530  137.6750 C   0  0  2  0  0  3  0  0  0  0  0  0
  186.3510  172.2630  136.2660 C   0  0  0  0  0  3  0  0  0  0  0  0
  184.1050  172.3730  136.8020 C   0  0  0  0  0  2  0  0  0  0  0  0
  1 26  1  1  0  0  0
  1 18  1  0  0  0  0
  2 27  1  0  0  0  0
  3  7  2  0  0  0  0
  3 16  1  0  0  0  0
  4 23  1  1  0  0  0
  4 15  1  0  0  0  0
  5 11  1  6  0  0  0
  5 19  1  0  0  0  0
  8 16  1  0  0  0  0
  9 13  1  0  0  0  0
 10 22  1  0  0  0  0
 12  8  1  0  0  0  0
 13 24  1  0  0  0  0
 13 20  1  0  0  0  0
 14  2  1  0  0  0  0
 14 25  1  0  0  0  0
 15  5  1  0  0  0  0
 15 12  1  0  0  0  0
 17 28  1  0  0  0  0
 17 10  1  0  0  0  0
 18 20  1  0  0  0  0
 18  4  1  0  0  0  0
 19  6  1  0  0  0  0
 19  3  1  0  0  0  0
 20 11  1  0  0  0  0
 21 23  1  0  0  0  0
 22 24  1  0  0  0  0
 25 17  1  0  0  0  0
 25  9  1  0  0  0  0
 26 21  1  0  0  0  0
 27  9  1  0  0  0  0
 27  1  1  0  0  0  0
 29 28  1  0  0  0  0
 29 32  1  0  0  0  0
 30 33  1  0  0  0  0
 30 34  1  0  0  0  0
 31 32  1  0  0  0  0
 33 31  2  0  0  0  0
 34 32  1  0  0  0  0
M  END
>  <MODEL>
7

>  <REMARK>
 VINA RESULT:      -6.5      2.199      3.893
  Name = 
  3 active torsions:
  status: ('A' for Active; 'I' for Inactive)
    1  A    between atoms: C_17  and  O_28
    2  A    between atoms: O_28  and  C_29
    3  A    between atoms: C_29  and  C_32
                            x       y       z     vdW  Elec       q    Type
                         _______ _______ _______ _____ _____    ______ ____

>  <TORSDO>
F 3

$$$$
=
 OpenBabel11122412273D

 34 40  0  0  1  0  0  0  0  0999 V2000
  180.5150  176.1230  139.6680 C   0  0  1  0  0  3  0  0  0  0  0  0
  180.3520  177.9090  141.3070 C   0  0  0  0  0  2  0  0  0  0  0  0
  184.4240  172.3340  136.4000 C   0  0  0  0  0  0  0  0  0  0  0  0
  180.8710  174.3060  137.9310 C   0  0  2  0  0  3  0  0  0  0  0  0
  182.9710  174.4150  136.5090 C   0  0  2  0  0  3  0  0  0  0  0  0
  185.2830  174.4870  135.3710 C   0  0  0  0  0  1  0  0  0  0  0  0
  185.5140  172.1820  137.0130 O   0  0  0  0  0  0  0  0  0  0  0  0
  182.2040  171.4020  135.6510 C   0  0  0  0  0  2  0  0  0  0  0  0
  181.9590  177.9560  139.7190 C   0  0  2  0  0  3  0  0  0  0  0  0
  184.8940  179.0100  140.3640 C   0  0  0  0  0  2  0  0  0  0  0  0
  183.5430  175.3500  137.5750 C   0  0  0  0  0  2  0  0  0  0  0  0
  181.2770  172.5080  136.1910 C   0  0  0  0  0  2  0  0  0  0  0  0
  183.0810  177.2200  138.9750 C   0  0  1  0  0  3  0  0  0  0  0  0
  181.1670  179.1630  141.6070 C   0  0  0  0  0  2  0  0  0  0  0  0
  181.9280  173.4880  137.1770 C   0  0  2  0  0  3  0  0  0  0  0  0
  183.4590  171.2780  136.3920 N   0  0  0  0  0  2  0  0  0  0  0  0
  183.6810  178.9980  141.3150 C   0  0  1  0  0  3  0  0  0  0  0  0
  181.5640  175.3120  138.8700 C   0  0  1  0  0  3  0  0  0  0  0  0
  184.0730  173.6430  135.7530 C   0  0  1  0  0  3  0  0  0  0  0  0
  182.4720  176.1960  138.1030 N   0  0  2  0  0  0  0  0  0  0  0  0
  178.9390  174.1830  139.5320 C   0  0  0  0  0  2  0  0  0  0  0  0
  184.5450  179.3660  138.9180 C   0  0  0  0  0  2  0  0  0  0  0  0
  179.9730  173.3780  138.7540 C   0  0  0  0  0  2  0  0  0  0  0  0
  183.9380  178.1900  138.1380 C   0  0  0  0  0  2  0  0  0  0  0  0
  182.3140  179.1380  140.6080 C   0  0  1  0  0  3  0  0  0  0  0  0
  179.6400  175.1580  140.4700 C   0  0  0  0  0  2  0  0  0  0  0  0
  181.2360  177.0260  140.5600 N   0  0  2  0  0  0  0  0  0  0  0  0
  183.7260  177.8470  142.1090 O   0  0  0  0  0  0  0  0  0  0  0  0
  184.8930  177.9730  142.8680 C   0  0  0  0  0  2  0  0  0  0  0  0
  183.8150  178.6290  146.0140 O   0  0  0  0  0  0  0  0  0  0  0  0
  185.7570  178.9200  144.9690 C   0  0  0  0  0  3  0  0  0  0  0  0
  184.7120  179.0610  143.9140 C   0  0  2  0  0  3  0  0  0  0  0  0
  185.1900  178.6770  146.1350 C   0  0  0  0  0  3  0  0  0  0  0  0
  183.4060  178.8490  144.6760 C   0  0  0  0  0  2  0  0  0  0  0  0
  1 26  1  1  0  0  0
  1 27  1  0  0  0  0
  2 14  1  0  0  0  0
  3  7  2  0  0  0  0
  4 23  1  1  0  0  0
  4 18  1  0  0  0  0
  5 15  1  0  0  0  0
  5 11  1  1  0  0  0
  6 19  1  0  0  0  0
  8 12  1  0  0  0  0
  8 16  1  0  0  0  0
  9 27  1  0  0  0  0
  9 25  1  0  0  0  0
 10 17  1  0  0  0  0
 11 20  1  0  0  0  0
 12 15  1  0  0  0  0
 13  9  1  0  0  0  0
 15  4  1  0  0  0  0
 16  3  1  0  0  0  0
 17 28  1  0  0  0  0
 18  1  1  0  0  0  0
 19  3  1  0  0  0  0
 19  5  1  0  0  0  0
 20 18  1  0  0  0  0
 20 13  1  0  0  0  0
 21 26  1  0  0  0  0
 22 10  1  0  0  0  0
 23 21  1  0  0  0  0
 24 22  1  0  0  0  0
 24 13  1  0  0  0  0
 25 17  1  0  0  0  0
 25 14  1  0  0  0  0
 27  2  1  0  0  0  0
 28 29  1  0  0  0  0
 29 32  1  0  0  0  0
 30 33  1  0  0  0  0
 31 33  2  0  0  0  0
 32 34  1  0  0  0  0
 32 31  1  0  0  0  0
 34 30  1  0  0  0  0
M  END
>  <MODEL>
8

>  <REMARK>
 VINA RESULT:      -6.4      3.706      8.464
  Name = 
  3 active torsions:
  status: ('A' for Active; 'I' for Inactive)
    1  A    between atoms: C_17  and  O_28
    2  A    between atoms: O_28  and  C_29
    3  A    between atoms: C_29  and  C_32
                            x       y       z     vdW  Elec       q    Type
                         _______ _______ _______ _____ _____    ______ ____

>  <TORSDO>
F 3

$$$$
=
 OpenBabel11122412273D

 34 40  0  0  1  0  0  0  0  0999 V2000
  182.0150  178.9620  142.5380 C   0  0  1  0  0  3  0  0  0  0  0  0
  183.4350  179.7530  144.3440 C   0  0  0  0  0  2  0  0  0  0  0  0
  181.5090  174.9910  137.6080 C   0  0  0  0  0  0  0  0  0  0  0  0
  180.6890  178.0610  140.5680 C   0  0  2  0  0  3  0  0  0  0  0  0
  181.9750  177.3210  138.5090 C   0  0  2  0  0  3  0  0  0  0  0  0
  183.4310  176.3250  136.6290 C   0  0  0  0  0  1  0  0  0  0  0  0
  182.2640  173.9950  137.7590 O   0  0  0  0  0  0  0  0  0  0  0  0
  179.1870  175.9770  137.6010 C   0  0  0  0  0  2  0  0  0  0  0  0
  184.3070  179.3330  142.3020 C   0  0  2  0  0  3  0  0  0  0  0  0
  187.1910  178.0230  141.9700 C   0  0  0  0  0  2  0  0  0  0  0  0
  183.2110  177.2540  139.4070 C   0  0  0  0  0  2  0  0  0  0  0  0
  179.4120  177.1450  138.5800 C   0  0  0  0  0  2  0  0  0  0  0  0
  184.4410  178.3740  141.1110 C   0  0  1  0  0  3  0  0  0  0  0  0
  184.9300  180.0230  144.4890 C   0  0  0  0  0  2  0  0  0  0  0  0
  180.7200  177.0880  139.3820 C   0  0  2  0  0  3  0  0  0  0  0  0
  180.1000  174.8530  137.8130 N   0  0  0  0  0  2  0  0  0  0  0  0
  186.5060  178.4420  143.2860 C   0  0  1  0  0  3  0  0  0  0  0  0
  182.0360  178.0140  141.3150 C   0  0  1  0  0  3  0  0  0  0  0  0
  182.0690  176.3530  137.3100 C   0  0  1  0  0  3  0  0  0  0  0  0
  183.1510  178.3330  140.3940 N   0  0  2  0  0  0  0  0  0  0  0  0
  179.5410  178.6270  142.7300 C   0  0  0  0  0  2  0  0  0  0  0  0
  186.9460  178.9890  140.8090 C   0  0  0  0  0  2  0  0  0  0  0  0
  179.5600  177.6850  141.5320 C   0  0  0  0  0  2  0  0  0  0  0  0
  185.5680  178.8100  140.1560 C   0  0  0  0  0  2  0  0  0  0  0  0
  185.5340  179.6360  143.1470 C   0  0  1  0  0  3  0  0  0  0  0  0
  180.8720  178.5520  143.4690 C   0  0  0  0  0  2  0  0  0  0  0  0
  183.3000  178.8390  143.2170 N   0  0  2  0  0  0  0  0  0  0  0  0
  185.8700  177.3320  143.8510 O   0  0  0  0  0  0  0  0  0  0  0  0
  186.8250  176.7530  144.6910 C   0  0  0  0  0  2  0  0  0  0  0  0
  187.8840  177.5410  147.8130 O   0  0  0  0  0  0  0  0  0  0  0  0
  188.8930  177.4400  145.8330 C   0  0  0  0  0  3  0  0  0  0  0  0
  187.4840  177.8270  145.5400 C   0  0  2  0  0  3  0  0  0  0  0  0
  189.0610  177.2940  147.1340 C   0  0  0  0  0  3  0  0  0  0  0  0
  186.8350  177.8780  146.9230 C   0  0  0  0  0  2  0  0  0  0  0  0
  1 27  1  0  0  0  0
  1 26  1  1  0  0  0
  2 14  1  0  0  0  0
  3  7  2  0  0  0  0
  3 16  1  0  0  0  0
  4 18  1  0  0  0  0
  4 23  1  1  0  0  0
  5 15  1  0  0  0  0
  5 11  1  1  0  0  0
  6 19  1  0  0  0  0
  8 16  1  0  0  0  0
  8 12  1  0  0  0  0
  9 25  1  0  0  0  0
  9 27  1  0  0  0  0
 10 17  1  0  0  0  0
 11 20  1  0  0  0  0
 12 15  1  0  0  0  0
 13  9  1  0  0  0  0
 15  4  1  0  0  0  0
 17 28  1  0  0  0  0
 18  1  1  0  0  0  0
 19  3  1  0  0  0  0
 19  5  1  0  0  0  0
 20 13  1  0  0  0  0
 20 18  1  0  0  0  0
 21 26  1  0  0  0  0
 22 10  1  0  0  0  0
 23 21  1  0  0  0  0
 24 22  1  0  0  0  0
 24 13  1  0  0  0  0
 25 17  1  0  0  0  0
 25 14  1  0  0  0  0
 27  2  1  0  0  0  0
 28 29  1  0  0  0  0
 29 32  1  0  0  0  0
 31 33  2  0  0  0  0
 32 31  1  0  0  0  0
 32 34  1  0  0  0  0
 33 30  1  0  0  0  0
 34 30  1  0  0  0  0
M  END
>  <MODEL>
9

>  <REMARK>
 VINA RESULT:      -6.2      3.809      7.813
  Name = 
  3 active torsions:
  status: ('A' for Active; 'I' for Inactive)
    1  A    between atoms: C_17  and  O_28
    2  A    between atoms: O_28  and  C_29
    3  A    between atoms: C_29  and  C_32
                            x       y       z     vdW  Elec       q    Type
                         _______ _______ _______ _____ _____    ______ ____

>  <TORSDO>
F 3

$$$$
