=
 OpenBabel11122410303D

 30 35  0  0  1  0  0  0  0  0999 V2000
  187.0610  178.0780  142.2950 C   0  0  0  0  0  0  0  0  0  0  0  0
  188.3570  177.6350  144.3650 C   0  0  0  0  0  0  0  0  0  0  0  0
  183.2010  178.6150  144.7190 S   0  0  0  0  0  0  0  0  0  0  0  0
  185.8270  178.3490  141.6650 C   0  0  0  0  0  0  0  0  0  0  0  0
  188.2080  177.9410  141.5060 O   0  0  0  0  0  0  0  0  0  0  0  0
  186.9810  178.4410  138.2080 O   0  0  0  0  0  0  0  0  0  0  0  0
  183.4890  177.3640  140.0280 C   0  0  1  0  0  3  0  0  0  0  0  0
  187.0030  178.4100  139.4700 C   0  0  0  0  0  0  0  0  0  0  0  0
  182.7040  177.8380  141.1860 N   0  0  2  0  0  0  0  0  0  0  0  0
  182.5580  179.2520  143.1790 C   0  0  0  0  0  0  0  0  0  0  0  0
  188.3160  178.4880  140.1950 C   0  0  2  0  0  3  0  0  0  0  0  0
  185.7730  178.3950  140.2170 N   0  0  0  0  0  0  0  0  0  0  0  0
  188.3850  177.5010  145.7550 C   0  0  0  0  0  3  0  0  0  0  0  0
  181.4440  178.3020  140.6180 C   0  0  0  0  0  2  0  0  0  0  0  0
  182.5090  176.9610  138.9420 C   0  0  0  0  0  2  0  0  0  0  0  0
  189.5480  177.4700  143.6670 O   0  0  0  0  0  1  0  0  0  0  0  0
  184.7480  178.3780  143.8470 C   0  0  0  0  0  0  0  0  0  0  0  0
  187.2220  177.6560  146.5070 C   0  0  0  0  0  3  0  0  0  0  0  0
  187.1390  177.9280  143.7020 C   0  0  0  0  0  0  0  0  0  0  0  0
  184.6790  178.5170  142.4640 C   0  0  0  0  0  0  0  0  0  0  0  0
  181.5860  179.9900  143.1530 O   0  0  0  0  0  0  0  0  0  0  0  0
  183.3390  178.9290  141.9430 C   0  0  1  0  0  3  0  0  0  0  0  0
  181.1570  177.4390  139.4120 C   0  0  0  0  0  2  0  0  0  0  0  0
  183.9910  179.7600  139.1580 C   0  0  0  0  0  1  0  0  0  0  0  0
  186.0170  177.9470  145.8730 C   0  0  0  0  0  3  0  0  0  0  0  0
  185.9610  178.0840  144.4800 C   0  0  0  0  0  0  0  0  0  0  0  0
  184.5200  178.3600  139.4540 C   0  0  2  0  0  3  0  0  0  0  0  0
  189.4230  177.7690  139.4320 C   0  0  0  0  0  2  0  0  0  0  0  0
  191.5940  177.4140  140.6060 C   0  0  0  0  0  1  0  0  0  0  0  0
  190.2110  176.8470  140.3480 C   0  0  0  0  0  2  0  0  0  0  0  0
  1 19  1  0  0  0  0
  2 13  1  0  0  0  0
  4  1  2  0  0  0  0
  4 20  1  0  0  0  0
  5  1  1  0  0  0  0
  6  8  2  0  0  0  0
  7 15  1  6  0  0  0
  7  9  1  0  0  0  0
  8 11  1  0  0  0  0
  8 12  1  0  0  0  0
  9 14  1  6  0  0  0
  9 22  1  0  0  0  0
 10  3  1  0  0  0  0
 11 28  1  6  0  0  0
 11  5  1  0  0  0  0
 12  4  1  0  0  0  0
 13 18  2  0  0  0  0
 15 23  1  0  0  0  0
 16  2  1  0  0  0  0
 17 26  1  0  0  0  0
 17  3  1  0  0  0  0
 19  2  2  0  0  0  0
 19 26  1  0  0  0  0
 20 17  2  0  0  0  0
 21 10  2  0  0  0  0
 22 20  1  1  0  0  0
 22 10  1  0  0  0  0
 23 14  1  0  0  0  0
 25 18  1  0  0  0  0
 26 25  2  0  0  0  0
 27 24  1  1  0  0  0
 27  7  1  0  0  0  0
 27 12  1  0  0  0  0
 28 30  1  0  0  0  0
 30 29  1  0  0  0  0
M  END
>  <MODEL>
1

>  <REMARK>
 VINA RESULT:      -9.1      0.000      0.000
  Name = 
  2 active torsions:
  status: ('A' for Active; 'I' for Inactive)
    1  A    between atoms: C_11  and  C_28
    2  A    between atoms: C_28  and  C_30
                            x       y       z     vdW  Elec       q    Type
                         _______ _______ _______ _____ _____    ______ ____

>  <TORSDO>
F 2

$$$$
=
 OpenBabel11122410303D

 30 35  0  0  1  0  0  0  0  0999 V2000
  186.0670  178.3460  142.7440 C   0  0  0  0  0  0  0  0  0  0  0  0
  186.8860  178.1320  145.0780 C   0  0  0  0  0  0  0  0  0  0  0  0
  181.7580  178.9270  144.2160 S   0  0  0  0  0  0  0  0  0  0  0  0
  184.9950  178.5120  141.8400 C   0  0  0  0  0  0  0  0  0  0  0  0
  187.3610  178.1890  142.2380 O   0  0  0  0  0  0  0  0  0  0  0  0
  186.8770  178.3580  138.7220 O   0  0  0  0  0  0  0  0  0  0  0  0
  183.0950  177.2960  139.8330 C   0  0  1  0  0  3  0  0  0  0  0  0
  186.6220  178.4350  139.9550 C   0  0  0  0  0  0  0  0  0  0  0  0
  182.0650  177.8340  140.7460 N   0  0  2  0  0  0  0  0  0  0  0  0
  181.4550  179.4040  142.5220 C   0  0  0  0  0  0  0  0  0  0  0  0
  187.7420  178.6280  140.9370 C   0  0  2  0  0  3  0  0  0  0  0  0
  185.2590  178.4320  140.4170 N   0  0  0  0  0  0  0  0  0  0  0  0
  186.6120  178.1180  146.4470 C   0  0  0  0  0  3  0  0  0  0  0  0
  180.9500  178.1960  139.8780 C   0  0  0  0  0  2  0  0  0  0  0  0
  182.3850  176.7630  138.6020 C   0  0  0  0  0  2  0  0  0  0  0  0
  188.2050  177.9580  144.6720 O   0  0  0  0  0  1  0  0  0  0  0  0
  183.4640  178.6800  143.7250 C   0  0  0  0  0  0  0  0  0  0  0  0
  185.3100  178.2880  146.9120 C   0  0  0  0  0  3  0  0  0  0  0  0
  185.8370  178.3190  144.1430 C   0  0  0  0  0  0  0  0  0  0  0  0
  183.6970  178.6990  142.3530 C   0  0  0  0  0  0  0  0  0  0  0  0
  180.4970  180.0970  142.2180 O   0  0  0  0  0  0  0  0  0  0  0  0
  182.4950  179.0110  141.5180 C   0  0  1  0  0  3  0  0  0  0  0  0
  180.9530  177.2240  138.7230 C   0  0  0  0  0  2  0  0  0  0  0  0
  183.7240  179.6290  138.8770 C   0  0  0  0  0  1  0  0  0  0  0  0
  184.2670  178.4740  146.0080 C   0  0  0  0  0  3  0  0  0  0  0  0
  184.5150  178.4920  144.6290 C   0  0  0  0  0  0  0  0  0  0  0  0
  184.2050  178.2820  139.4070 C   0  0  2  0  0  3  0  0  0  0  0  0
  189.0040  177.8930  140.5010 C   0  0  0  0  0  2  0  0  0  0  0  0
  190.8910  177.4750  142.0770 C   0  0  0  0  0  1  0  0  0  0  0  0
  189.5290  176.9970  141.6110 C   0  0  0  0  0  2  0  0  0  0  0  0
  1 19  1  0  0  0  0
  2 13  1  0  0  0  0
  4 20  1  0  0  0  0
  4  1  2  0  0  0  0
  5  1  1  0  0  0  0
  6  8  2  0  0  0  0
  7 15  1  6  0  0  0
  7  9  1  0  0  0  0
  8 12  1  0  0  0  0
  8 11  1  0  0  0  0
  9 14  1  6  0  0  0
  9 22  1  0  0  0  0
 10  3  1  0  0  0  0
 11 28  1  6  0  0  0
 11  5  1  0  0  0  0
 12  4  1  0  0  0  0
 13 18  2  0  0  0  0
 15 23  1  0  0  0  0
 16  2  1  0  0  0  0
 17  3  1  0  0  0  0
 17 26  1  0  0  0  0
 19 26  1  0  0  0  0
 19  2  2  0  0  0  0
 20 17  2  0  0  0  0
 21 10  2  0  0  0  0
 22 20  1  1  0  0  0
 22 10  1  0  0  0  0
 23 14  1  0  0  0  0
 25 18  1  0  0  0  0
 26 25  2  0  0  0  0
 27 24  1  1  0  0  0
 27  7  1  0  0  0  0
 27 12  1  0  0  0  0
 28 30  1  0  0  0  0
 30 29  1  0  0  0  0
M  END
>  <MODEL>
2

>  <REMARK>
 VINA RESULT:      -8.9      1.063      1.233
  Name = 
  2 active torsions:
  status: ('A' for Active; 'I' for Inactive)
    1  A    between atoms: C_11  and  C_28
    2  A    between atoms: C_28  and  C_30
                            x       y       z     vdW  Elec       q    Type
                         _______ _______ _______ _____ _____    ______ ____

>  <TORSDO>
F 2

$$$$
=
 OpenBabel11122410303D

 30 35  0  0  1  0  0  0  0  0999 V2000
  188.0960  177.8760  142.8300 C   0  0  0  0  0  0  0  0  0  0  0  0
  187.1440  177.8030  145.1210 C   0  0  0  0  0  0  0  0  0  0  0  0
  183.9970  178.9460  141.0650 S   0  0  0  0  0  0  0  0  0  0  0  0
  187.9150  178.0510  141.4400 C   0  0  0  0  0  0  0  0  0  0  0  0
  189.3720  177.5670  143.3120 O   0  0  0  0  0  0  0  0  0  0  0  0
  191.3460  177.4620  140.3590 O   0  0  0  0  0  0  0  0  0  0  0  0
  187.6740  176.8260  138.6910 C   0  0  1  0  0  3  0  0  0  0  0  0
  190.3550  177.6690  141.1120 C   0  0  0  0  0  0  0  0  0  0  0  0
  186.3740  177.5270  138.6840 N   0  0  2  0  0  0  0  0  0  0  0  0
  184.9440  179.2950  139.5910 C   0  0  0  0  0  0  0  0  0  0  0  0
  190.5640  177.8540  142.5870 C   0  0  2  0  0  3  0  0  0  0  0  0
  189.0370  177.8220  140.5520 N   0  0  0  0  0  0  0  0  0  0  0  0
  186.0380  177.9330  145.9640 C   0  0  0  0  0  3  0  0  0  0  0  0
  186.1610  177.9030  137.2920 C   0  0  0  0  0  2  0  0  0  0  0  0
  187.8920  176.2460  137.3050 C   0  0  0  0  0  2  0  0  0  0  0  0
  188.3700  177.4830  145.6950 O   0  0  0  0  0  1  0  0  0  0  0  0
  185.5570  178.5150  141.8320 C   0  0  0  0  0  0  0  0  0  0  0  0
  184.7850  178.2530  145.4450 C   0  0  0  0  0  3  0  0  0  0  0  0
  187.0020  177.9930  143.7240 C   0  0  0  0  0  0  0  0  0  0  0  0
  186.6350  178.3920  140.9610 C   0  0  0  0  0  0  0  0  0  0  0  0
  184.5160  180.0360  138.7210 O   0  0  0  0  0  0  0  0  0  0  0  0
  186.3290  178.7270  139.5350 C   0  0  1  0  0  3  0  0  0  0  0  0
  186.8040  176.8350  136.4400 C   0  0  0  0  0  2  0  0  0  0  0  0
  189.0550  179.0030  138.3680 C   0  0  0  0  0  1  0  0  0  0  0  0
  184.6270  178.4460  144.0740 C   0  0  0  0  0  3  0  0  0  0  0  0
  185.7200  178.3190  143.2080 C   0  0  0  0  0  0  0  0  0  0  0  0
  188.9000  177.6720  139.0990 C   0  0  2  0  0  3  0  0  0  0  0  0
  191.7000  176.9790  143.1060 C   0  0  0  0  0  2  0  0  0  0  0  0
  191.6810  176.4010  145.5330 C   0  0  0  0  0  1  0  0  0  0  0  0
  191.2000  175.9950  144.1520 C   0  0  0  0  0  2  0  0  0  0  0  0
  1  5  1  0  0  0  0
  1 19  1  0  0  0  0
  2 16  1  0  0  0  0
  2 13  1  0  0  0  0
  3 17  1  0  0  0  0
  4  1  2  0  0  0  0
  6  8  2  0  0  0  0
  7 15  1  6  0  0  0
  7 27  1  0  0  0  0
  8 11  1  0  0  0  0
  9 14  1  6  0  0  0
  9  7  1  0  0  0  0
  9 22  1  0  0  0  0
 10  3  1  0  0  0  0
 11 28  1  1  0  0  0
 11  5  1  0  0  0  0
 12  8  1  0  0  0  0
 12  4  1  0  0  0  0
 17 26  1  0  0  0  0
 18 13  2  0  0  0  0
 19  2  2  0  0  0  0
 20  4  1  0  0  0  0
 20 17  2  0  0  0  0
 21 10  2  0  0  0  0
 22 10  1  1  0  0  0
 22 20  1  0  0  0  0
 23 14  1  0  0  0  0
 23 15  1  0  0  0  0
 25 18  1  0  0  0  0
 26 19  1  0  0  0  0
 26 25  2  0  0  0  0
 27 24  1  6  0  0  0
 27 12  1  0  0  0  0
 28 30  1  0  0  0  0
 30 29  1  0  0  0  0
M  END
>  <MODEL>
3

>  <REMARK>
 VINA RESULT:      -8.6      2.302      3.830
  Name = 
  2 active torsions:
  status: ('A' for Active; 'I' for Inactive)
    1  A    between atoms: C_11  and  C_28
    2  A    between atoms: C_28  and  C_30
                            x       y       z     vdW  Elec       q    Type
                         _______ _______ _______ _____ _____    ______ ____

>  <TORSDO>
F 2

$$$$
=
 OpenBabel11122410303D

 30 35  0  0  1  0  0  0  0  0999 V2000
  186.2620  178.2090  141.8010 C   0  0  0  0  0  0  0  0  0  0  0  0
  183.8650  178.8450  141.8820 C   0  0  0  0  0  0  0  0  0  0  0  0
  186.4260  177.8950  146.3770 S   0  0  0  0  0  0  0  0  0  0  0  0
  187.4590  177.8780  142.4740 C   0  0  0  0  0  0  0  0  0  0  0  0
  186.2690  178.2730  140.4030 O   0  0  0  0  0  0  0  0  0  0  0  0
  189.6280  177.4660  139.5740 O   0  0  0  0  0  0  0  0  0  0  0  0
  190.2040  178.7030  143.4220 C   0  0  1  0  0  3  0  0  0  0  0  0
  188.5850  177.6140  140.2680 C   0  0  0  0  0  0  0  0  0  0  0  0
  189.6640  178.3390  144.7480 N   0  0  2  0  0  0  0  0  0  0  0  0
  188.0040  177.1160  146.0680 C   0  0  0  0  0  0  0  0  0  0  0  0
  187.2390  177.6060  139.6020 C   0  0  2  0  0  3  0  0  0  0  0  0
  188.6720  177.6980  141.7020 N   0  0  0  0  0  0  0  0  0  0  0  0
  182.7200  179.1080  142.6370 C   0  0  0  0  0  3  0  0  0  0  0  0
  190.8090  177.8220  145.4880 C   0  0  0  0  0  2  0  0  0  0  0  0
  191.6820  179.0020  143.5930 C   0  0  0  0  0  2  0  0  0  0  0  0
  183.7730  178.9460  140.4980 O   0  0  0  0  0  1  0  0  0  0  0  0
  186.2810  178.0520  144.5980 C   0  0  0  0  0  0  0  0  0  0  0  0
  182.7520  179.0220  144.0280 C   0  0  0  0  0  3  0  0  0  0  0  0
  185.0770  178.4890  142.5240 C   0  0  0  0  0  0  0  0  0  0  0  0
  187.4420  177.7840  143.8800 C   0  0  0  0  0  0  0  0  0  0  0  0
  188.5200  176.3780  146.8910 O   0  0  0  0  0  0  0  0  0  0  0  0
  188.5990  177.3230  144.7090 C   0  0  1  0  0  3  0  0  0  0  0  0
  192.0270  178.5680  144.9970 C   0  0  0  0  0  2  0  0  0  0  0  0
  190.4460  176.2370  142.6410 C   0  0  0  0  0  1  0  0  0  0  0  0
  183.9340  178.6720  144.6760 C   0  0  0  0  0  3  0  0  0  0  0  0
  185.0960  178.4050  143.9420 C   0  0  0  0  0  0  0  0  0  0  0  0
  190.0120  177.6590  142.3000 C   0  0  2  0  0  3  0  0  0  0  0  0
  187.2920  178.2530  138.2220 C   0  0  0  0  0  2  0  0  0  0  0  0
  187.1810  175.9730  137.2170 C   0  0  0  0  0  1  0  0  0  0  0  0
  186.6130  177.3790  137.1800 C   0  0  0  0  0  2  0  0  0  0  0  0
  1  4  2  0  0  0  0
  1 19  1  0  0  0  0
  2 19  2  0  0  0  0
  2 13  1  0  0  0  0
  4 20  1  0  0  0  0
  5  1  1  0  0  0  0
  6  8  2  0  0  0  0
  7 15  1  1  0  0  0
  7  9  1  0  0  0  0
  8 12  1  0  0  0  0
  9 14  1  1  0  0  0
 10  3  1  0  0  0  0
 10 21  2  0  0  0  0
 11 28  1  6  0  0  0
 11  8  1  0  0  0  0
 11  5  1  0  0  0  0
 12 27  1  0  0  0  0
 12  4  1  0  0  0  0
 13 18  2  0  0  0  0
 15 23  1  0  0  0  0
 16  2  1  0  0  0  0
 17  3  1  0  0  0  0
 18 25  1  0  0  0  0
 19 26  1  0  0  0  0
 20 17  2  0  0  0  0
 22 20  1  6  0  0  0
 22  9  1  0  0  0  0
 22 10  1  0  0  0  0
 23 14  1  0  0  0  0
 26 17  1  0  0  0  0
 26 25  2  0  0  0  0
 27 24  1  1  0  0  0
 27  7  1  0  0  0  0
 30 29  1  0  0  0  0
 30 28  1  0  0  0  0
M  END
>  <MODEL>
4

>  <REMARK>
 VINA RESULT:      -7.9      2.382      5.881
  Name = 
  2 active torsions:
  status: ('A' for Active; 'I' for Inactive)
    1  A    between atoms: C_11  and  C_28
    2  A    between atoms: C_28  and  C_30
                            x       y       z     vdW  Elec       q    Type
                         _______ _______ _______ _____ _____    ______ ____

>  <TORSDO>
F 2

$$$$
=
 OpenBabel11122410303D

 30 35  0  0  1  0  0  0  0  0999 V2000
  187.1050  178.1840  140.3850 C   0  0  0  0  0  0  0  0  0  0  0  0
  184.8910  178.9630  139.5780 C   0  0  0  0  0  0  0  0  0  0  0  0
  185.6130  178.1520  144.7250 S   0  0  0  0  0  0  0  0  0  0  0  0
  187.9560  177.8280  141.4540 C   0  0  0  0  0  0  0  0  0  0  0  0
  187.6110  178.1600  139.0810 O   0  0  0  0  0  0  0  0  0  0  0  0
  190.9740  177.1070  139.5400 O   0  0  0  0  0  0  0  0  0  0  0  0
  190.2430  178.5500  143.2890 C   0  0  1  0  0  3  0  0  0  0  0  0
  189.7670  177.3600  139.8080 C   0  0  0  0  0  0  0  0  0  0  0  0
  189.2410  178.3030  144.3460 N   0  0  2  0  0  0  0  0  0  0  0  0
  187.1330  177.2650  145.0310 C   0  0  0  0  0  0  0  0  0  0  0  0
  188.7480  177.3880  138.7060 C   0  0  2  0  0  3  0  0  0  0  0  0
  189.3470  177.5290  141.1750 N   0  0  0  0  0  0  0  0  0  0  0  0
  183.5760  179.3400  139.8630 C   0  0  0  0  0  3  0  0  0  0  0  0
  190.0070  177.7680  145.4660 C   0  0  0  0  0  2  0  0  0  0  0  0
  191.5820  178.7730  143.9660 C   0  0  0  0  0  2  0  0  0  0  0  0
  185.3030  178.9810  138.2500 O   0  0  0  0  0  1  0  0  0  0  0  0
  186.1200  178.2040  143.0070 C   0  0  0  0  0  0  0  0  0  0  0  0
  183.1070  179.3400  141.1760 C   0  0  0  0  0  3  0  0  0  0  0  0
  185.7650  178.5790  140.6250 C   0  0  0  0  0  0  0  0  0  0  0  0
  187.4360  177.8240  142.7630 C   0  0  0  0  0  0  0  0  0  0  0  0
  187.2660  176.5510  146.0130 O   0  0  0  0  0  0  0  0  0  0  0  0
  188.1840  177.3500  143.9680 C   0  0  1  0  0  3  0  0  0  0  0  0
  191.3730  178.4090  145.4160 C   0  0  0  0  0  2  0  0  0  0  0  0
  190.5550  176.0300  142.7410 C   0  0  0  0  0  1  0  0  0  0  0  0
  183.9520  178.9630  142.2170 C   0  0  0  0  0  3  0  0  0  0  0  0
  185.2750  178.5830  141.9580 C   0  0  0  0  0  0  0  0  0  0  0  0
  190.3800  177.4500  142.2130 C   0  0  2  0  0  3  0  0  0  0  0  0
  189.3360  177.9420  137.4120 C   0  0  0  0  0  2  0  0  0  0  0  0
  187.6790  177.8990  135.5480 C   0  0  0  0  0  1  0  0  0  0  0  0
  188.3020  178.7460  136.6410 C   0  0  0  0  0  2  0  0  0  0  0  0
  1 19  2  0  0  0  0
  1  4  1  0  0  0  0
  2 13  2  0  0  0  0
  2 19  1  0  0  0  0
  3 10  1  0  0  0  0
  4 20  2  0  0  0  0
  5  1  1  0  0  0  0
  6  8  2  0  0  0  0
  7 15  1  1  0  0  0
  7  9  1  0  0  0  0
  8 12  1  0  0  0  0
  9 14  1  1  0  0  0
 10 21  2  0  0  0  0
 11 28  1  6  0  0  0
 11  5  1  0  0  0  0
 11  8  1  0  0  0  0
 12  4  1  0  0  0  0
 12 27  1  0  0  0  0
 13 18  1  0  0  0  0
 15 23  1  0  0  0  0
 16  2  1  0  0  0  0
 17  3  1  0  0  0  0
 18 25  2  0  0  0  0
 19 26  1  0  0  0  0
 20 17  1  0  0  0  0
 22 20  1  6  0  0  0
 22  9  1  0  0  0  0
 22 10  1  0  0  0  0
 23 14  1  0  0  0  0
 26 25  1  0  0  0  0
 26 17  2  0  0  0  0
 27 24  1  1  0  0  0
 27  7  1  0  0  0  0
 29 30  1  0  0  0  0
 30 28  1  0  0  0  0
M  END
>  <MODEL>
5

>  <REMARK>
 VINA RESULT:      -7.9      2.415      5.946
  Name = 
  2 active torsions:
  status: ('A' for Active; 'I' for Inactive)
    1  A    between atoms: C_11  and  C_28
    2  A    between atoms: C_28  and  C_30
                            x       y       z     vdW  Elec       q    Type
                         _______ _______ _______ _____ _____    ______ ____

>  <TORSDO>
F 2

$$$$
=
 OpenBabel11122410303D

 30 35  0  0  1  0  0  0  0  0999 V2000
  189.2920  177.3140  143.5900 C   0  0  0  0  0  0  0  0  0  0  0  0
  191.2340  176.1570  144.6160 C   0  0  0  0  0  0  0  0  0  0  0  0
  187.4020  177.9920  147.7170 S   0  0  0  0  0  0  0  0  0  0  0  0
  188.0420  177.9560  143.7320 C   0  0  0  0  0  0  0  0  0  0  0  0
  189.8260  177.1500  142.3080 O   0  0  0  0  0  0  0  0  0  0  0  0
  187.3700  178.6360  140.2140 O   0  0  0  0  0  0  0  0  0  0  0  0
  185.0360  177.8480  143.4700 C   0  0  1  0  0  3  0  0  0  0  0  0
  187.9840  178.3060  141.2660 C   0  0  0  0  0  0  0  0  0  0  0  0
  185.0750  178.1770  144.9100 N   0  0  2  0  0  0  0  0  0  0  0  0
  186.3110  179.0840  146.8180 C   0  0  0  0  0  0  0  0  0  0  0  0
  189.4430  177.9590  141.2000 C   0  0  2  0  0  3  0  0  0  0  0  0
  187.3160  178.3500  142.5410 N   0  0  0  0  0  0  0  0  0  0  0  0
  191.8860  175.6970  145.7620 C   0  0  0  0  0  3  0  0  0  0  0  0
  183.8880  178.9940  145.1380 C   0  0  0  0  0  2  0  0  0  0  0  0
  183.5870  177.9070  143.0230 C   0  0  0  0  0  2  0  0  0  0  0  0
  191.8410  175.9370  143.3840 O   0  0  0  0  0  1  0  0  0  0  0  0
  188.2010  177.6760  146.1450 C   0  0  0  0  0  0  0  0  0  0  0  0
  191.3250  175.8900  147.0230 C   0  0  0  0  0  3  0  0  0  0  0  0
  189.9880  176.8250  144.7240 C   0  0  0  0  0  0  0  0  0  0  0  0
  187.5210  178.1470  145.0260 C   0  0  0  0  0  0  0  0  0  0  0  0
  185.7020  179.9790  147.3810 O   0  0  0  0  0  0  0  0  0  0  0  0
  186.2750  178.9180  145.3300 C   0  0  1  0  0  3  0  0  0  0  0  0
  182.8260  178.5100  144.1790 C   0  0  0  0  0  2  0  0  0  0  0  0
  185.7180  180.2410  142.7200 C   0  0  0  0  0  1  0  0  0  0  0  0
  190.1030  176.5460  147.1480 C   0  0  0  0  0  3  0  0  0  0  0  0
  189.4280  177.0160  146.0140 C   0  0  0  0  0  0  0  0  0  0  0  0
  185.9000  178.7360  142.5480 C   0  0  2  0  0  3  0  0  0  0  0  0
  189.7910  177.2420  139.9000 C   0  0  0  0  0  2  0  0  0  0  0  0
  191.7230  176.5340  138.4900 C   0  0  0  0  0  1  0  0  0  0  0  0
  191.2340  176.7630  139.9070 C   0  0  0  0  0  2  0  0  0  0  0  0
  1  4  2  0  0  0  0
  1 19  1  0  0  0  0
  2 19  2  0  0  0  0
  2 13  1  0  0  0  0
  4 20  1  0  0  0  0
  5  1  1  0  0  0  0
  6  8  2  0  0  0  0
  7 15  1  6  0  0  0
  7  9  1  0  0  0  0
  8 12  1  0  0  0  0
  9 14  1  6  0  0  0
  9 22  1  0  0  0  0
 10 21  2  0  0  0  0
 10  3  1  0  0  0  0
 11 28  1  6  0  0  0
 11  8  1  0  0  0  0
 11  5  1  0  0  0  0
 12 27  1  0  0  0  0
 12  4  1  0  0  0  0
 13 18  2  0  0  0  0
 15 23  1  0  0  0  0
 16  2  1  0  0  0  0
 17  3  1  0  0  0  0
 18 25  1  0  0  0  0
 19 26  1  0  0  0  0
 20 17  2  0  0  0  0
 22 20  1  1  0  0  0
 22 10  1  0  0  0  0
 23 14  1  0  0  0  0
 26 17  1  0  0  0  0
 26 25  2  0  0  0  0
 27 24  1  1  0  0  0
 27  7  1  0  0  0  0
 28 30  1  0  0  0  0
 29 30  1  0  0  0  0
M  END
>  <MODEL>
6

>  <REMARK>
 VINA RESULT:      -7.8      2.617      3.751
  Name = 
  2 active torsions:
  status: ('A' for Active; 'I' for Inactive)
    1  A    between atoms: C_11  and  C_28
    2  A    between atoms: C_28  and  C_30
                            x       y       z     vdW  Elec       q    Type
                         _______ _______ _______ _____ _____    ______ ____

>  <TORSDO>
F 2

$$$$
=
 OpenBabel11122410303D

 30 35  0  0  1  0  0  0  0  0999 V2000
  186.9600  178.1410  141.8330 C   0  0  0  0  0  0  0  0  0  0  0  0
  186.4430  178.2010  144.2590 C   0  0  0  0  0  0  0  0  0  0  0  0
  182.5870  179.0580  140.7860 S   0  0  0  0  0  0  0  0  0  0  0  0
  186.5260  178.2270  140.4910 C   0  0  0  0  0  0  0  0  0  0  0  0
  188.3090  177.8760  142.0910 O   0  0  0  0  0  0  0  0  0  0  0  0
  189.7150  177.6070  138.8380 O   0  0  0  0  0  0  0  0  0  0  0  0
  185.8160  176.8300  137.9100 C   0  0  1  0  0  3  0  0  0  0  0  0
  188.8730  177.8510  139.7460 C   0  0  0  0  0  0  0  0  0  0  0  0
  184.5210  177.5160  138.1000 N   0  0  2  0  0  0  0  0  0  0  0  0
  183.2420  179.3230  139.1460 C   0  0  0  0  0  0  0  0  0  0  0  0
  189.3430  178.1290  141.1450 C   0  0  2  0  0  3  0  0  0  0  0  0
  187.4730  177.9550  139.4280 N   0  0  0  0  0  0  0  0  0  0  0  0
  185.5050  178.3730  145.2810 C   0  0  0  0  0  3  0  0  0  0  0  0
  184.0500  177.8030  136.7500 C   0  0  0  0  0  2  0  0  0  0  0  0
  185.7900  176.1680  136.5450 C   0  0  0  0  0  2  0  0  0  0  0  0
  187.7590  177.9310  144.6180 O   0  0  0  0  0  1  0  0  0  0  0  0
  184.2700  178.6900  141.2790 C   0  0  0  0  0  0  0  0  0  0  0  0
  184.1720  178.6480  144.9820 C   0  0  0  0  0  3  0  0  0  0  0  0
  186.0450  178.3030  142.9030 C   0  0  0  0  0  0  0  0  0  0  0  0
  185.1730  178.5240  140.2340 C   0  0  0  0  0  0  0  0  0  0  0  0
  182.6480  180.0040  138.3260 O   0  0  0  0  0  0  0  0  0  0  0  0
  184.6060  178.7670  138.8720 C   0  0  1  0  0  3  0  0  0  0  0  0
  184.5510  176.6900  135.8600 C   0  0  0  0  0  2  0  0  0  0  0  0
  187.0690  178.9970  137.2120 C   0  0  0  0  0  1  0  0  0  0  0  0
  183.7640  178.7520  143.6540 C   0  0  0  0  0  3  0  0  0  0  0  0
  184.6840  178.5830  142.6110 C   0  0  0  0  0  0  0  0  0  0  0  0
  187.0770  177.7130  138.0360 C   0  0  2  0  0  3  0  0  0  0  0  0
  190.5730  177.3000  141.4990 C   0  0  0  0  0  2  0  0  0  0  0  0
  191.2620  176.1640  143.6100 C   0  0  0  0  0  1  0  0  0  0  0  0
  190.2290  176.2090  142.5000 C   0  0  0  0  0  2  0  0  0  0  0  0
  1  5  1  0  0  0  0
  1 19  1  0  0  0  0
  2 16  1  0  0  0  0
  2 13  1  0  0  0  0
  3 17  1  0  0  0  0
  4  1  2  0  0  0  0
  6  8  2  0  0  0  0
  7 15  1  6  0  0  0
  7 27  1  0  0  0  0
  7  9  1  0  0  0  0
  8 11  1  0  0  0  0
  9 14  1  6  0  0  0
  9 22  1  0  0  0  0
 10  3  1  0  0  0  0
 11 28  1  1  0  0  0
 11  5  1  0  0  0  0
 12  8  1  0  0  0  0
 12  4  1  0  0  0  0
 17 26  1  0  0  0  0
 18 13  2  0  0  0  0
 19  2  2  0  0  0  0
 20  4  1  0  0  0  0
 20 17  2  0  0  0  0
 21 10  2  0  0  0  0
 22 10  1  1  0  0  0
 22 20  1  0  0  0  0
 23 15  1  0  0  0  0
 23 14  1  0  0  0  0
 25 18  1  0  0  0  0
 26 19  1  0  0  0  0
 26 25  2  0  0  0  0
 27 24  1  1  0  0  0
 27 12  1  0  0  0  0
 28 30  1  0  0  0  0
 30 29  1  0  0  0  0
M  END
>  <MODEL>
7

>  <REMARK>
 VINA RESULT:      -7.5      2.178      3.059
  Name = 
  2 active torsions:
  status: ('A' for Active; 'I' for Inactive)
    1  A    between atoms: C_11  and  C_28
    2  A    between atoms: C_28  and  C_30
                            x       y       z     vdW  Elec       q    Type
                         _______ _______ _______ _____ _____    ______ ____

>  <TORSDO>
F 2

$$$$
=
 OpenBabel11122410303D

 30 35  0  0  1  0  0  0  0  0999 V2000
  187.9970  177.8490  142.4770 C   0  0  0  0  0  0  0  0  0  0  0  0
  186.0490  178.2830  143.9530 C   0  0  0  0  0  0  0  0  0  0  0  0
  185.4510  178.6270  138.7380 S   0  0  0  0  0  0  0  0  0  0  0  0
  188.5400  177.7320  141.1780 C   0  0  0  0  0  0  0  0  0  0  0  0
  188.8260  177.6160  143.5800 O   0  0  0  0  0  0  0  0  0  0  0  0
  191.9570  176.8440  142.0870 O   0  0  0  0  0  0  0  0  0  0  0  0
  189.5160  175.9630  138.9350 C   0  0  1  0  0  3  0  0  0  0  0  0
  190.7600  177.2300  142.1910 C   0  0  0  0  0  0  0  0  0  0  0  0
  188.4850  176.6800  138.1570 N   0  0  2  0  0  0  0  0  0  0  0  0
  187.0320  178.6340  137.9060 C   0  0  0  0  0  0  0  0  0  0  0  0
  190.2450  177.7150  143.5160 C   0  0  2  0  0  3  0  0  0  0  0  0
  189.9140  177.2950  141.0290 N   0  0  0  0  0  0  0  0  0  0  0  0
  184.6990  178.6150  144.0890 C   0  0  0  0  0  3  0  0  0  0  0  0
  189.0270  176.7600  136.8050 C   0  0  0  0  0  2  0  0  0  0  0  0
  190.3060  175.1000  137.9680 C   0  0  0  0  0  2  0  0  0  0  0  0
  186.7880  178.0600  145.1100 O   0  0  0  0  0  1  0  0  0  0  0  0
  186.3710  178.3270  140.2460 C   0  0  0  0  0  0  0  0  0  0  0  0
  183.9100  178.8510  142.9650 C   0  0  0  0  0  3  0  0  0  0  0  0
  186.6310  178.1790  142.6650 C   0  0  0  0  0  0  0  0  0  0  0  0
  187.7110  177.9970  140.0710 C   0  0  0  0  0  0  0  0  0  0  0  0
  187.1810  179.1860  136.8280 O   0  0  0  0  0  0  0  0  0  0  0  0
  188.1840  178.0330  138.6520 C   0  0  1  0  0  3  0  0  0  0  0  0
  189.8620  175.5210  136.5880 C   0  0  0  0  0  2  0  0  0  0  0  0
  191.1430  177.9890  138.9870 C   0  0  0  0  0  1  0  0  0  0  0  0
  184.4660  178.7540  141.6910 C   0  0  0  0  0  3  0  0  0  0  0  0
  185.8170  178.4210  141.5280 C   0  0  0  0  0  0  0  0  0  0  0  0
  190.4840  176.8460  139.7530 C   0  0  2  0  0  3  0  0  0  0  0  0
  190.8630  176.9410  144.6760 C   0  0  0  0  0  2  0  0  0  0  0  0
  190.8910  176.7530  147.1630 C   0  0  0  0  0  1  0  0  0  0  0  0
  190.0590  177.1310  145.9520 C   0  0  0  0  0  2  0  0  0  0  0  0
  1 19  1  0  0  0  0
  1  5  1  0  0  0  0
  2 13  1  0  0  0  0
  2 16  1  0  0  0  0
  3 17  1  0  0  0  0
  4  1  2  0  0  0  0
  6  8  2  0  0  0  0
  7 15  1  6  0  0  0
  7 27  1  0  0  0  0
  8 11  1  0  0  0  0
  9 14  1  6  0  0  0
  9 22  1  0  0  0  0
  9  7  1  0  0  0  0
 10  3  1  0  0  0  0
 11  5  1  0  0  0  0
 11 28  1  1  0  0  0
 12  4  1  0  0  0  0
 12  8  1  0  0  0  0
 17 26  1  0  0  0  0
 18 13  2  0  0  0  0
 19  2  2  0  0  0  0
 20 17  2  0  0  0  0
 20  4  1  0  0  0  0
 21 10  2  0  0  0  0
 22 10  1  6  0  0  0
 22 20  1  0  0  0  0
 23 14  1  0  0  0  0
 23 15  1  0  0  0  0
 25 18  1  0  0  0  0
 26 25  2  0  0  0  0
 26 19  1  0  0  0  0
 27 24  1  6  0  0  0
 27 12  1  0  0  0  0
 28 30  1  0  0  0  0
 30 29  1  0  0  0  0
M  END
>  <MODEL>
8

>  <REMARK>
 VINA RESULT:      -7.4      2.791      5.592
  Name = 
  2 active torsions:
  status: ('A' for Active; 'I' for Inactive)
    1  A    between atoms: C_11  and  C_28
    2  A    between atoms: C_28  and  C_30
                            x       y       z     vdW  Elec       q    Type
                         _______ _______ _______ _____ _____    ______ ____

>  <TORSDO>
F 2

$$$$
=
 OpenBabel11122410303D

 30 35  0  0  1  0  0  0  0  0999 V2000
  189.1830  177.2800  140.5510 C   0  0  0  0  0  0  0  0  0  0  0  0
  189.7820  177.0580  142.9500 C   0  0  0  0  0  0  0  0  0  0  0  0
  185.0140  178.8570  141.6460 S   0  0  0  0  0  0  0  0  0  0  0  0
  188.2340  177.6070  139.5570 C   0  0  0  0  0  0  0  0  0  0  0  0
  190.4440  176.8200  140.1570 O   0  0  0  0  0  0  0  0  0  0  0  0
  190.2400  176.8470  136.6100 O   0  0  0  0  0  0  0  0  0  0  0  0
  186.2530  176.6860  137.4730 C   0  0  1  0  0  3  0  0  0  0  0  0
  189.9270  177.0590  137.8130 C   0  0  0  0  0  0  0  0  0  0  0  0
  185.3050  177.4900  138.2730 N   0  0  2  0  0  0  0  0  0  0  0  0
  184.9330  179.2710  139.9100 C   0  0  0  0  0  0  0  0  0  0  0  0
  190.9950  177.0780  138.8690 C   0  0  2  0  0  3  0  0  0  0  0  0
  188.5680  177.3760  138.1650 N   0  0  0  0  0  0  0  0  0  0  0  0
  189.4220  177.1950  144.2920 C   0  0  0  0  0  3  0  0  0  0  0  0
  184.3540  178.0190  137.3020 C   0  0  0  0  0  2  0  0  0  0  0  0
  185.5280  176.2310  136.2200 C   0  0  0  0  0  2  0  0  0  0  0  0
  191.0560  176.5820  142.6590 O   0  0  0  0  0  1  0  0  0  0  0  0
  186.6550  178.2230  141.3040 C   0  0  0  0  0  0  0  0  0  0  0  0
  188.1590  177.6680  144.6430 C   0  0  0  0  0  3  0  0  0  0  0  0
  188.8620  177.3980  141.9270 C   0  0  0  0  0  0  0  0  0  0  0  0
  186.9760  178.0990  139.9560 C   0  0  0  0  0  0  0  0  0  0  0  0
  184.1690  180.1280  139.4960 O   0  0  0  0  0  0  0  0  0  0  0  0
  185.9280  178.5990  139.0140 C   0  0  1  0  0  3  0  0  0  0  0  0
  184.2230  176.9920  136.2030 C   0  0  0  0  0  2  0  0  0  0  0  0
  187.4310  178.7620  136.4490 C   0  0  0  0  0  1  0  0  0  0  0  0
  187.2430  178.0090  143.6510 C   0  0  0  0  0  3  0  0  0  0  0  0
  187.5790  177.8790  142.2970 C   0  0  0  0  0  0  0  0  0  0  0  0
  187.5750  177.3830  137.0850 C   0  0  2  0  0  3  0  0  0  0  0  0
  192.0950  176.0640  138.5730 C   0  0  0  0  0  2  0  0  0  0  0  0
  193.7170  176.0140  136.6780 C   0  0  0  0  0  1  0  0  0  0  0  0
  193.3060  176.7370  137.9470 C   0  0  0  0  0  2  0  0  0  0  0  0
  1 19  1  0  0  0  0
  2 13  1  0  0  0  0
  4 20  1  0  0  0  0
  4  1  2  0  0  0  0
  5  1  1  0  0  0  0
  6  8  2  0  0  0  0
  7 15  1  6  0  0  0
  7  9  1  0  0  0  0
  8 12  1  0  0  0  0
  8 11  1  0  0  0  0
  9 14  1  6  0  0  0
  9 22  1  0  0  0  0
 10  3  1  0  0  0  0
 11 28  1  6  0  0  0
 11  5  1  0  0  0  0
 12  4  1  0  0  0  0
 13 18  2  0  0  0  0
 16  2  1  0  0  0  0
 17  3  1  0  0  0  0
 17 26  1  0  0  0  0
 19 26  1  0  0  0  0
 19  2  2  0  0  0  0
 20 17  2  0  0  0  0
 21 10  2  0  0  0  0
 22 10  1  1  0  0  0
 22 20  1  0  0  0  0
 23 15  1  0  0  0  0
 23 14  1  0  0  0  0
 25 18  1  0  0  0  0
 26 25  2  0  0  0  0
 27 24  1  1  0  0  0
 27  7  1  0  0  0  0
 27 12  1  0  0  0  0
 29 30  1  0  0  0  0
 30 28  1  0  0  0  0
M  END
>  <MODEL>
9

>  <REMARK>
 VINA RESULT:      -7.1      2.498      3.527
  Name = 
  2 active torsions:
  status: ('A' for Active; 'I' for Inactive)
    1  A    between atoms: C_11  and  C_28
    2  A    between atoms: C_28  and  C_30
                            x       y       z     vdW  Elec       q    Type
                         _______ _______ _______ _____ _____    ______ ____

>  <TORSDO>
F 2

$$$$
