=
 OpenBabel11122411383D

 37 42  0  0  1  0  0  0  0  0999 V2000
  183.0720  176.3830  135.6780 C   0  0  0  0  0  0  0  0  0  0  0  0
  186.4780  174.2850  136.7470 C   0  0  0  0  0  0  0  0  0  0  0  0
  189.7220  176.2490  136.9090 O   0  0  0  0  0  0  0  0  0  0  0  0
  184.2790  174.1290  135.7120 C   0  0  0  0  0  0  0  0  0  0  0  0
  187.4520  175.3270  137.2000 C   0  0  1  0  0  3  0  0  0  0  0  0
  185.4050  174.8610  136.2790 C   0  0  0  0  0  0  0  0  0  0  0  0
  188.8530  175.1790  136.5720 C   0  0  2  0  0  3  0  0  0  0  0  0
  184.3830  172.8020  135.5520 C   0  0  0  0  0  3  0  0  0  0  0  0
  185.4460  176.2620  136.3450 N   0  0  0  0  0  0  0  0  0  0  0  0
  182.5240  176.4230  137.0920 C   0  0  0  0  0  1  0  0  0  0  0  0
  187.9170  172.2390  137.1010 C   0  0  0  0  0  2  0  0  0  0  0  0
  185.6730  172.0700  135.8970 C   0  0  0  0  0  2  0  0  0  0  0  0
  184.4590  177.0690  135.6400 C   0  0  0  0  0  2  0  0  0  0  0  0
  189.2670  177.8670  138.6550 C   0  0  1  0  0  3  0  0  0  0  0  0
  189.6980  176.4400  138.3040 C   0  0  0  0  0  2  0  0  0  0  0  0
  186.5010  172.7980  136.9780 C   0  0  2  0  0  3  0  0  0  0  0  0
  186.8020  176.6400  136.7190 C   0  0  1  0  0  3  0  0  0  0  0  0
  183.1090  174.9150  135.1840 C   0  0  0  0  0  2  0  0  0  0  0  0
  189.4900  173.7950  136.8170 C   0  0  1  0  0  3  0  0  0  0  0  0
  182.1310  177.1620  134.7840 C   0  0  0  0  0  1  0  0  0  0  0  0
  188.1280  178.4550  137.8030 C   0  0  0  0  0  2  0  0  0  0  0  0
  186.8170  177.6690  137.8380 C   0  0  0  0  0  2  0  0  0  0  0  0
  188.7660  172.8020  136.1400 O   0  0  0  0  0  0  0  0  0  0  0  0
  191.2200  173.5930  135.0210 C   0  0  0  0  0  3  0  0  0  0  0  0
  190.9220  173.7530  136.3790 C   0  0  0  0  0  0  0  0  0  0  0  0
  191.9650  173.8560  137.3110 C   0  0  0  0  0  3  0  0  0  0  0  0
  194.3990  173.9230  137.8710 C   0  0  0  0  0  1  0  0  0  0  0  0
  193.5870  173.6490  135.5250 C   0  0  0  0  0  3  0  0  0  0  0  0
  193.2950  173.8060  136.8830 C   0  0  0  0  0  0  0  0  0  0  0  0
  192.5490  173.5420  134.5940 C   0  0  0  0  0  3  0  0  0  0  0  0
  188.7640  177.9720  143.0110 O   0  0  0  0  0  0  0  0  0  0  0  0
  189.4300  177.0660  142.4450 C   0  0  0  0  0  0  0  0  0  0  0  0
  189.0090  178.0060  140.1180 C   0  0  0  0  0  0  0  0  0  0  0  0
  189.5940  177.0620  141.0200 N   0  0  0  0  0  2  0  0  0  0  0  0
  188.2770  178.9420  140.5460 O   0  0  0  0  0  0  0  0  0  0  0  0
  191.3620  176.1180  143.6340 C   0  0  0  0  0  1  0  0  0  0  0  0
  190.0040  176.0630  143.2250 O   0  0  0  0  0  0  0  0  0  0  0  0
  1 10  1  0  0  0  0
  2 16  1  0  0  0  0
  3 15  1  0  0  0  0
  4  6  1  0  0  0  0
  5  2  1  6  0  0  0
  6  9  1  0  0  0  0
  6  2  2  0  0  0  0
  7 19  1  0  0  0  0
  7  3  1  1  0  0  0
  7  5  1  0  0  0  0
  8  4  2  0  0  0  0
  8 12  1  0  0  0  0
  9 17  1  0  0  0  0
 13  1  1  0  0  0  0
 13  9  1  0  0  0  0
 14 33  1  1  0  0  0
 15 14  1  0  0  0  0
 16 12  1  6  0  0  0
 16 11  1  0  0  0  0
 17  5  1  0  0  0  0
 17 22  1  1  0  0  0
 18  1  1  0  0  0  0
 18  4  1  0  0  0  0
 19 25  1  6  0  0  0
 20  1  1  0  0  0  0
 21 22  1  0  0  0  0
 21 14  1  0  0  0  0
 23 19  1  0  0  0  0
 23 11  1  0  0  0  0
 24 25  1  0  0  0  0
 25 26  2  0  0  0  0
 28 29  2  0  0  0  0
 29 26  1  0  0  0  0
 29 27  1  0  0  0  0
 30 24  2  0  0  0  0
 30 28  1  0  0  0  0
 32 31  2  0  0  0  0
 32 37  1  0  0  0  0
 33 35  2  0  0  0  0
 33 34  1  0  0  0  0
 34 32  1  0  0  0  0
 37 36  1  0  0  0  0
M  END
>  <MODEL>
1

>  <REMARK>
 VINA RESULT:      -7.0      0.000      0.000
  Name = 
  3 active torsions:
  status: ('A' for Active; 'I' for Inactive)
    1  A    between atoms: C_4  and  O_37
    2  A    between atoms: C_8  and  C_18
    3  A    between atoms: C_23  and  C_30
                            x       y       z     vdW  Elec       q    Type
                         _______ _______ _______ _____ _____    ______ ____

>  <TORSDO>
F 3

$$$$
=
 OpenBabel11122411383D

 37 42  0  0  1  0  0  0  0  0999 V2000
  184.4480  176.5780  136.0890 C   0  0  0  0  0  0  0  0  0  0  0  0
  188.1470  174.7530  136.4580 C   0  0  0  0  0  0  0  0  0  0  0  0
  191.0140  176.9220  137.6760 O   0  0  0  0  0  0  0  0  0  0  0  0
  186.0150  174.7260  135.2810 C   0  0  0  0  0  0  0  0  0  0  0  0
  188.9280  175.6380  137.3770 C   0  0  1  0  0  3  0  0  0  0  0  0
  186.9970  175.3080  136.1880 C   0  0  0  0  0  0  0  0  0  0  0  0
  190.3400  175.9780  136.8580 C   0  0  2  0  0  3  0  0  0  0  0  0
  186.3410  173.6220  134.5940 C   0  0  0  0  0  3  0  0  0  0  0  0
  186.8020  176.5390  136.8310 N   0  0  0  0  0  0  0  0  0  0  0  0
  183.8870  175.9350  137.3450 C   0  0  0  0  0  1  0  0  0  0  0  0
  189.9050  172.9870  136.0440 C   0  0  0  0  0  2  0  0  0  0  0  0
  187.7320  173.0120  134.7050 C   0  0  0  0  0  2  0  0  0  0  0  0
  185.7000  177.4130  136.4490 C   0  0  0  0  0  2  0  0  0  0  0  0
  190.2790  177.5640  139.8930 C   0  0  1  0  0  3  0  0  0  0  0  0
  190.9450  176.5000  139.0170 C   0  0  0  0  0  2  0  0  0  0  0  0
  188.4160  173.3290  136.0520 C   0  0  2  0  0  3  0  0  0  0  0  0
  188.0720  176.9200  137.4350 C   0  0  1  0  0  3  0  0  0  0  0  0
  184.7340  175.4790  135.0360 C   0  0  0  0  0  2  0  0  0  0  0  0
  191.1970  174.7310  136.5560 C   0  0  1  0  0  3  0  0  0  0  0  0
  183.3980  177.5120  135.5270 C   0  0  0  0  0  1  0  0  0  0  0  0
  189.0650  178.2820  139.2750 C   0  0  0  0  0  2  0  0  0  0  0  0
  187.9040  177.3700  138.8770 C   0  0  0  0  0  2  0  0  0  0  0  0
  190.6560  174.0220  135.4730 O   0  0  0  0  0  0  0  0  0  0  0  0
  192.9020  175.9180  135.1630 C   0  0  0  0  0  3  0  0  0  0  0  0
  192.6210  175.0900  136.2550 C   0  0  0  0  0  0  0  0  0  0  0  0
  193.6710  174.5980  137.0430 C   0  0  0  0  0  3  0  0  0  0  0  0
  196.1050  174.4210  137.5800 C   0  0  0  0  0  1  0  0  0  0  0  0
  195.2700  175.7670  135.6490 C   0  0  0  0  0  3  0  0  0  0  0  0
  194.9930  174.9380  136.7400 C   0  0  0  0  0  0  0  0  0  0  0  0
  194.2240  176.2560  134.8600 C   0  0  0  0  0  3  0  0  0  0  0  0
  189.1400  176.2880  143.9320 O   0  0  0  0  0  0  0  0  0  0  0  0
  188.6530  177.3220  143.4040 C   0  0  0  0  0  0  0  0  0  0  0  0
  189.9870  177.0340  141.2570 C   0  0  0  0  0  0  0  0  0  0  0  0
  189.0290  177.7100  142.0760 N   0  0  0  0  0  2  0  0  0  0  0  0
  190.5890  176.0070  141.6800 O   0  0  0  0  0  0  0  0  0  0  0  0
  187.1610  177.6120  145.3380 C   0  0  0  0  0  1  0  0  0  0  0  0
  187.7430  178.0880  144.1330 O   0  0  0  0  0  0  0  0  0  0  0  0
  1 13  1  0  0  0  0
  1 10  1  0  0  0  0
  3 15  1  0  0  0  0
  4  6  1  0  0  0  0
  5  2  1  6  0  0  0
  5 17  1  0  0  0  0
  6  2  2  0  0  0  0
  6  9  1  0  0  0  0
  7  5  1  0  0  0  0
  7  3  1  1  0  0  0
  8 12  1  0  0  0  0
  8  4  2  0  0  0  0
  9 17  1  0  0  0  0
 11 16  1  0  0  0  0
 13  9  1  0  0  0  0
 14 33  1  1  0  0  0
 15 14  1  0  0  0  0
 16 12  1  6  0  0  0
 16  2  1  0  0  0  0
 17 22  1  1  0  0  0
 18  4  1  0  0  0  0
 18  1  1  0  0  0  0
 19 25  1  6  0  0  0
 19  7  1  0  0  0  0
 20  1  1  0  0  0  0
 21 14  1  0  0  0  0
 22 21  1  0  0  0  0
 23 11  1  0  0  0  0
 23 19  1  0  0  0  0
 24 25  1  0  0  0  0
 25 26  2  0  0  0  0
 28 29  2  0  0  0  0
 29 26  1  0  0  0  0
 29 27  1  0  0  0  0
 30 24  2  0  0  0  0
 30 28  1  0  0  0  0
 32 31  2  0  0  0  0
 32 37  1  0  0  0  0
 33 35  2  0  0  0  0
 33 34  1  0  0  0  0
 34 32  1  0  0  0  0
 37 36  1  0  0  0  0
M  END
>  <MODEL>
2

>  <REMARK>
 VINA RESULT:      -6.9      1.684      2.178
  Name = 
  3 active torsions:
  status: ('A' for Active; 'I' for Inactive)
    1  A    between atoms: C_4  and  O_37
    2  A    between atoms: C_8  and  C_18
    3  A    between atoms: C_23  and  C_30
                            x       y       z     vdW  Elec       q    Type
                         _______ _______ _______ _____ _____    ______ ____

>  <TORSDO>
F 3

$$$$
=
 OpenBabel11122411383D

 37 42  0  0  1  0  0  0  0  0999 V2000
  185.1820  178.7500  144.9500 C   0  0  0  0  0  0  0  0  0  0  0  0
  182.5920  178.5430  141.7260 C   0  0  0  0  0  0  0  0  0  0  0  0
  183.9190  179.7520  138.3810 O   0  0  0  0  0  0  0  0  0  0  0  0
  182.7550  178.7670  144.1450 C   0  0  0  0  0  0  0  0  0  0  0  0
  183.4710  178.5980  140.5160 C   0  0  1  0  0  3  0  0  0  0  0  0
  183.3130  178.7180  142.7990 C   0  0  0  0  0  0  0  0  0  0  0  0
  183.0040  179.6180  139.4580 C   0  0  2  0  0  3  0  0  0  0  0  0
  181.4230  178.7480  144.2960 C   0  0  0  0  0  3  0  0  0  0  0  0
  184.6810  178.8840  142.5360 N   0  0  0  0  0  0  0  0  0  0  0  0
  185.4580  177.2580  144.9610 C   0  0  0  0  0  1  0  0  0  0  0  0
  180.3550  178.3700  140.5650 C   0  0  0  0  0  2  0  0  0  0  0  0
  180.4970  178.7350  143.0870 C   0  0  0  0  0  2  0  0  0  0  0  0
  185.5890  179.3430  143.5800 C   0  0  0  0  0  2  0  0  0  0  0  0
  185.7510  178.2220  137.9620 C   0  0  1  0  0  3  0  0  0  0  0  0
  184.2420  178.4720  137.8910 C   0  0  0  0  0  2  0  0  0  0  0  0
  181.1560  178.1080  141.8390 C   0  0  2  0  0  3  0  0  0  0  0  0
  184.8320  179.0360  141.0960 C   0  0  1  0  0  3  0  0  0  0  0  0
  183.6930  178.9980  145.3000 C   0  0  0  0  0  2  0  0  0  0  0  0
  181.5540  179.3860  138.9820 C   0  0  1  0  0  3  0  0  0  0  0  0
  186.0350  179.3960  146.0200 C   0  0  0  0  0  1  0  0  0  0  0  0
  186.4600  178.7350  139.2280 C   0  0  0  0  0  2  0  0  0  0  0  0
  185.9400  178.1540  140.5440 C   0  0  0  0  0  2  0  0  0  0  0  0
  180.6550  179.6300  140.0320 O   0  0  0  0  0  0  0  0  0  0  0  0
  180.9220  179.6620  136.5780 C   0  0  0  0  0  3  0  0  0  0  0  0
  181.2030  180.2560  137.8140 C   0  0  0  0  0  0  0  0  0  0  0  0
  181.1670  181.6520  137.9370 C   0  0  0  0  0  3  0  0  0  0  0  0
  180.8010  183.9250  136.9670 C   0  0  0  0  0  1  0  0  0  0  0  0
  180.5620  181.8480  135.6010 C   0  0  0  0  0  3  0  0  0  0  0  0
  180.8460  182.4460  136.8320 C   0  0  0  0  0  0  0  0  0  0  0  0
  180.6010  180.4560  135.4740 C   0  0  0  0  0  3  0  0  0  0  0  0
  186.3070  173.9650  137.0650 O   0  0  0  0  0  0  0  0  0  0  0  0
  185.1610  174.4640  137.2100 C   0  0  0  0  0  0  0  0  0  0  0  0
  186.0740  176.7940  137.6710 C   0  0  0  0  0  0  0  0  0  0  0  0
  185.0040  175.8630  137.4870 N   0  0  0  0  0  2  0  0  0  0  0  0
  187.2780  176.4190  137.6000 O   0  0  0  0  0  0  0  0  0  0  0  0
  184.1540  172.2220  137.1590 C   0  0  0  0  0  1  0  0  0  0  0  0
  184.0450  173.6360  137.1010 O   0  0  0  0  0  0  0  0  0  0  0  0
  1 10  1  0  0  0  0
  1 18  1  0  0  0  0
  1 20  1  0  0  0  0
  2 16  1  0  0  0  0
  2  6  2  0  0  0  0
  4  8  2  0  0  0  0
  4 18  1  0  0  0  0
  5 17  1  0  0  0  0
  5  2  1  1  0  0  0
  6  4  1  0  0  0  0
  7  3  1  6  0  0  0
  7  5  1  0  0  0  0
  9  6  1  0  0  0  0
  9 13  1  0  0  0  0
 12  8  1  0  0  0  0
 13  1  1  0  0  0  0
 14 33  1  1  0  0  0
 14 21  1  0  0  0  0
 15 14  1  0  0  0  0
 15  3  1  0  0  0  0
 16 11  1  6  0  0  0
 16 12  1  0  0  0  0
 17 22  1  6  0  0  0
 17  9  1  0  0  0  0
 19 25  1  6  0  0  0
 19  7  1  0  0  0  0
 19 23  1  0  0  0  0
 21 22  1  0  0  0  0
 23 11  1  0  0  0  0
 24 25  1  0  0  0  0
 25 26  2  0  0  0  0
 28 29  2  0  0  0  0
 29 27  1  0  0  0  0
 29 26  1  0  0  0  0
 30 28  1  0  0  0  0
 30 24  2  0  0  0  0
 31 32  2  0  0  0  0
 32 34  1  0  0  0  0
 34 33  1  0  0  0  0
 35 33  2  0  0  0  0
 37 36  1  0  0  0  0
 37 32  1  0  0  0  0
M  END
>  <MODEL>
3

>  <REMARK>
 VINA RESULT:      -6.7      4.752      9.625
  Name = 
  3 active torsions:
  status: ('A' for Active; 'I' for Inactive)
    1  A    between atoms: C_4  and  O_37
    2  A    between atoms: C_8  and  C_18
    3  A    between atoms: C_23  and  C_30
                            x       y       z     vdW  Elec       q    Type
                         _______ _______ _______ _____ _____    ______ ____

>  <TORSDO>
F 3

$$$$
=
 OpenBabel11122411383D

 37 42  0  0  1  0  0  0  0  0999 V2000
  188.1050  177.8890  143.7020 C   0  0  0  0  0  0  0  0  0  0  0  0
  184.5110  178.2540  141.6790 C   0  0  0  0  0  0  0  0  0  0  0  0
  184.6790  179.5020  138.0980 O   0  0  0  0  0  0  0  0  0  0  0  0
  185.5850  178.2870  143.8650 C   0  0  0  0  0  0  0  0  0  0  0  0
  184.8800  178.2740  140.2290 C   0  0  1  0  0  3  0  0  0  0  0  0
  185.5940  178.2560  142.4070 C   0  0  0  0  0  0  0  0  0  0  0  0
  184.2150  179.4190  139.4370 C   0  0  2  0  0  3  0  0  0  0  0  0
  184.4150  178.4370  144.5030 C   0  0  0  0  0  3  0  0  0  0  0  0
  186.7770  178.2550  141.6540 N   0  0  0  0  0  0  0  0  0  0  0  0
  188.1380  176.3760  143.5880 C   0  0  0  0  0  1  0  0  0  0  0  0
  182.0050  178.4640  141.4380 C   0  0  0  0  0  2  0  0  0  0  0  0
  183.1190  178.6310  143.7280 C   0  0  0  0  0  2  0  0  0  0  0  0
  188.0640  178.5150  142.2880 C   0  0  0  0  0  2  0  0  0  0  0  0
  185.9750  177.7720  137.0020 C   0  0  1  0  0  3  0  0  0  0  0  0
  184.6020  178.2270  137.5050 C   0  0  0  0  0  2  0  0  0  0  0  0
  183.1700  178.0090  142.3160 C   0  0  2  0  0  3  0  0  0  0  0  0
  186.4080  178.4840  140.2630 C   0  0  1  0  0  3  0  0  0  0  0  0
  186.9060  178.3100  144.5870 C   0  0  0  0  0  2  0  0  0  0  0  0
  182.6760  179.4170  139.5360 C   0  0  1  0  0  3  0  0  0  0  0  0
  189.3790  178.3380  144.3840 C   0  0  0  0  0  1  0  0  0  0  0  0
  187.1690  178.0970  137.9190 C   0  0  0  0  0  2  0  0  0  0  0  0
  187.0890  177.5010  139.3250 C   0  0  0  0  0  2  0  0  0  0  0  0
  182.2740  179.7060  140.8490 O   0  0  0  0  0  0  0  0  0  0  0  0
  181.2180  179.9430  137.5720 C   0  0  0  0  0  3  0  0  0  0  0  0
  182.0540  180.4040  138.5950 C   0  0  0  0  0  0  0  0  0  0  0  0
  182.3080  181.7770  138.7180 C   0  0  0  0  0  3  0  0  0  0  0  0
  181.9900  184.1370  137.9620 C   0  0  0  0  0  1  0  0  0  0  0  0
  180.8890  182.2160  136.8060 C   0  0  0  0  0  3  0  0  0  0  0  0
  181.7250  182.6810  137.8250 C   0  0  0  0  0  0  0  0  0  0  0  0
  180.6370  180.8460  136.6790 C   0  0  0  0  0  3  0  0  0  0  0  0
  185.5770  173.5140  136.0290 O   0  0  0  0  0  0  0  0  0  0  0  0
  184.8460  174.0650  136.8930 C   0  0  0  0  0  0  0  0  0  0  0  0
  185.9500  176.3370  136.5920 C   0  0  0  0  0  0  0  0  0  0  0  0
  184.9840  175.4620  137.1830 N   0  0  0  0  0  2  0  0  0  0  0  0
  186.7790  175.9070  135.7430 O   0  0  0  0  0  0  0  0  0  0  0  0
  183.6490  171.9420  137.2170 C   0  0  0  0  0  1  0  0  0  0  0  0
  183.9020  173.2930  137.5690 O   0  0  0  0  0  0  0  0  0  0  0  0
  1 20  1  0  0  0  0
  1 18  1  0  0  0  0
  2 16  1  0  0  0  0
  2  6  2  0  0  0  0
  4  8  2  0  0  0  0
  4 18  1  0  0  0  0
  5 17  1  0  0  0  0
  5  2  1  1  0  0  0
  6  4  1  0  0  0  0
  7  3  1  6  0  0  0
  7 19  1  0  0  0  0
  7  5  1  0  0  0  0
  9 13  1  0  0  0  0
  9  6  1  0  0  0  0
 10  1  1  0  0  0  0
 12  8  1  0  0  0  0
 13  1  1  0  0  0  0
 14 33  1  1  0  0  0
 14 15  1  0  0  0  0
 14 21  1  0  0  0  0
 15  3  1  0  0  0  0
 16 11  1  6  0  0  0
 16 12  1  0  0  0  0
 17 22  1  6  0  0  0
 17  9  1  0  0  0  0
 19 25  1  6  0  0  0
 19 23  1  0  0  0  0
 21 22  1  0  0  0  0
 23 11  1  0  0  0  0
 24 25  1  0  0  0  0
 25 26  2  0  0  0  0
 28 29  2  0  0  0  0
 29 27  1  0  0  0  0
 29 26  1  0  0  0  0
 30 28  1  0  0  0  0
 30 24  2  0  0  0  0
 31 32  2  0  0  0  0
 32 34  1  0  0  0  0
 32 37  1  0  0  0  0
 33 34  1  0  0  0  0
 35 33  2  0  0  0  0
 36 37  1  0  0  0  0
M  END
>  <MODEL>
4

>  <REMARK>
 VINA RESULT:      -6.7      4.220      9.332
  Name = 
  3 active torsions:
  status: ('A' for Active; 'I' for Inactive)
    1  A    between atoms: C_4  and  O_37
    2  A    between atoms: C_8  and  C_18
    3  A    between atoms: C_23  and  C_30
                            x       y       z     vdW  Elec       q    Type
                         _______ _______ _______ _____ _____    ______ ____

>  <TORSDO>
F 3

$$$$
=
 OpenBabel11122411383D

 37 42  0  0  1  0  0  0  0  0999 V2000
  184.8920  178.8210  144.6020 C   0  0  0  0  0  0  0  0  0  0  0  0
  184.8270  178.5600  140.4700 C   0  0  0  0  0  0  0  0  0  0  0  0
  181.5660  177.4520  138.8740 O   0  0  0  0  0  0  0  0  0  0  0  0
  186.2290  178.4340  142.4570 C   0  0  0  0  0  0  0  0  0  0  0  0
  183.3770  178.5940  140.1000 C   0  0  1  0  0  3  0  0  0  0  0  0
  184.9470  178.5220  141.7690 C   0  0  0  0  0  0  0  0  0  0  0  0
  182.9650  177.4860  139.1090 C   0  0  2  0  0  3  0  0  0  0  0  0
  187.3440  178.2680  141.7320 C   0  0  0  0  0  3  0  0  0  0  0  0
  183.7190  178.5450  142.4470 N   0  0  0  0  0  0  0  0  0  0  0  0
  184.8230  180.3370  144.6140 C   0  0  0  0  0  1  0  0  0  0  0  0
  185.8080  178.3770  138.1490 C   0  0  0  0  0  2  0  0  0  0  0  0
  187.2790  178.1130  140.2180 C   0  0  0  0  0  2  0  0  0  0  0  0
  183.6510  178.2510  143.8730 C   0  0  0  0  0  2  0  0  0  0  0  0
  180.0380  179.2140  139.5300 C   0  0  1  0  0  3  0  0  0  0  0  0
  181.1220  178.7500  138.5540 C   0  0  0  0  0  2  0  0  0  0  0  0
  186.0350  178.7890  139.6030 C   0  0  2  0  0  3  0  0  0  0  0  0
  182.6690  178.3730  141.4520 C   0  0  1  0  0  3  0  0  0  0  0  0
  186.2300  178.3740  143.9620 C   0  0  0  0  0  2  0  0  0  0  0  0
  183.7890  177.4950  137.8050 C   0  0  1  0  0  3  0  0  0  0  0  0
  184.8660  178.3360  146.0350 C   0  0  0  0  0  1  0  0  0  0  0  0
  180.2600  178.8460  141.0090 C   0  0  0  0  0  2  0  0  0  0  0  0
  181.5500  179.3870  141.6260 C   0  0  0  0  0  2  0  0  0  0  0  0
  185.1240  177.1580  138.0730 O   0  0  0  0  0  0  0  0  0  0  0  0
  182.7370  177.0570  135.5780 C   0  0  0  0  0  3  0  0  0  0  0  0
  183.2310  176.5500  136.7850 C   0  0  0  0  0  0  0  0  0  0  0  0
  183.1850  175.1690  137.0280 C   0  0  0  0  0  3  0  0  0  0  0  0
  182.6120  172.8420  136.3230 C   0  0  0  0  0  1  0  0  0  0  0  0
  182.1620  174.8170  134.8620 C   0  0  0  0  0  3  0  0  0  0  0  0
  182.6530  174.3060  136.0660 C   0  0  0  0  0  0  0  0  0  0  0  0
  182.2040  176.1940  134.6180 C   0  0  0  0  0  3  0  0  0  0  0  0
  179.3740  183.4620  138.6650 O   0  0  0  0  0  0  0  0  0  0  0  0
  180.1830  182.7710  137.9930 C   0  0  0  0  0  0  0  0  0  0  0  0
  179.7340  180.6640  139.3480 C   0  0  0  0  0  0  0  0  0  0  0  0
  180.3710  181.3790  138.2850 N   0  0  0  0  0  2  0  0  0  0  0  0
  178.9330  181.2470  140.1310 O   0  0  0  0  0  0  0  0  0  0  0  0
  181.5550  184.6240  137.1400 C   0  0  0  0  0  1  0  0  0  0  0  0
  180.8970  183.3790  136.9620 O   0  0  0  0  0  0  0  0  0  0  0  0
  1 10  1  0  0  0  0
  1 20  1  0  0  0  0
  2  6  2  0  0  0  0
  4 18  1  0  0  0  0
  5  2  1  1  0  0  0
  5 17  1  0  0  0  0
  6  9  1  0  0  0  0
  6  4  1  0  0  0  0
  7  3  1  6  0  0  0
  7  5  1  0  0  0  0
  8  4  2  0  0  0  0
  9 13  1  0  0  0  0
 12  8  1  0  0  0  0
 13  1  1  0  0  0  0
 14 33  1  1  0  0  0
 14 21  1  0  0  0  0
 15  3  1  0  0  0  0
 15 14  1  0  0  0  0
 16 11  1  6  0  0  0
 16 12  1  0  0  0  0
 16  2  1  0  0  0  0
 17 22  1  1  0  0  0
 17  9  1  0  0  0  0
 18  1  1  0  0  0  0
 19 25  1  6  0  0  0
 19 23  1  0  0  0  0
 19  7  1  0  0  0  0
 21 22  1  0  0  0  0
 23 11  1  0  0  0  0
 24 25  1  0  0  0  0
 25 26  2  0  0  0  0
 28 29  2  0  0  0  0
 29 27  1  0  0  0  0
 29 26  1  0  0  0  0
 30 28  1  0  0  0  0
 30 24  2  0  0  0  0
 32 34  1  0  0  0  0
 32 31  2  0  0  0  0
 33 35  2  0  0  0  0
 34 33  1  0  0  0  0
 37 36  1  0  0  0  0
 37 32  1  0  0  0  0
M  END
>  <MODEL>
5

>  <REMARK>
 VINA RESULT:      -6.6      5.032      9.211
  Name = 
  3 active torsions:
  status: ('A' for Active; 'I' for Inactive)
    1  A    between atoms: C_4  and  O_37
    2  A    between atoms: C_8  and  C_18
    3  A    between atoms: C_23  and  C_30
                            x       y       z     vdW  Elec       q    Type
                         _______ _______ _______ _____ _____    ______ ____

>  <TORSDO>
F 3

$$$$
=
 OpenBabel11122411383D

 37 42  0  0  1  0  0  0  0  0999 V2000
  180.3420  178.8550  143.2960 C   0  0  0  0  0  0  0  0  0  0  0  0
  183.2110  178.6780  140.3150 C   0  0  0  0  0  0  0  0  0  0  0  0
  182.1910  177.0330  137.0500 O   0  0  0  0  0  0  0  0  0  0  0  0
  182.8310  178.7640  142.7190 C   0  0  0  0  0  0  0  0  0  0  0  0
  182.4450  178.4560  139.0490 C   0  0  1  0  0  3  0  0  0  0  0  0
  182.3970  178.6340  141.3340 C   0  0  0  0  0  0  0  0  0  0  0  0
  183.0060  177.3150  138.1770 C   0  0  2  0  0  3  0  0  0  0  0  0
  184.1450  178.8190  142.9840 C   0  0  0  0  0  3  0  0  0  0  0  0
  181.0580  178.4180  140.9740 N   0  0  0  0  0  0  0  0  0  0  0  0
  180.0650  180.3330  143.0880 C   0  0  0  0  0  1  0  0  0  0  0  0
  185.5440  178.7270  139.3450 C   0  0  0  0  0  2  0  0  0  0  0  0
  185.1750  178.6880  141.8710 C   0  0  0  0  0  2  0  0  0  0  0  0
  180.0600  178.0860  141.9830 C   0  0  0  0  0  2  0  0  0  0  0  0
  180.4040  178.4730  136.2750 C   0  0  1  0  0  3  0  0  0  0  0  0
  181.9130  178.2350  136.3720 C   0  0  0  0  0  2  0  0  0  0  0  0
  184.6310  179.1410  140.4990 C   0  0  2  0  0  3  0  0  0  0  0  0
  181.0380  178.0810  139.5570 C   0  0  1  0  0  3  0  0  0  0  0  0
  181.7940  178.6730  143.8060 C   0  0  0  0  0  2  0  0  0  0  0  0
  184.4920  177.5010  137.8070 C   0  0  1  0  0  3  0  0  0  0  0  0
  179.3970  178.3430  144.3600 C   0  0  0  0  0  1  0  0  0  0  0  0
  179.5840  178.1190  137.5290 C   0  0  0  0  0  2  0  0  0  0  0  0
  179.9830  178.8710  138.8000 C   0  0  0  0  0  2  0  0  0  0  0  0
  185.2930  177.4060  138.9550 O   0  0  0  0  0  0  0  0  0  0  0  0
  185.4390  176.9340  135.5630 C   0  0  0  0  0  3  0  0  0  0  0  0
  184.9470  176.4930  136.7960 C   0  0  0  0  0  0  0  0  0  0  0  0
  184.8740  175.1180  137.0640 C   0  0  0  0  0  3  0  0  0  0  0  0
  185.2250  172.7380  136.3920 C   0  0  0  0  0  1  0  0  0  0  0  0
  185.7890  174.6390  134.8740 C   0  0  0  0  0  3  0  0  0  0  0  0
  185.2960  174.1940  136.1040 C   0  0  0  0  0  0  0  0  0  0  0  0
  185.8600  176.0090  134.6030 C   0  0  0  0  0  3  0  0  0  0  0  0
  179.8000  182.6480  135.0710 O   0  0  0  0  0  0  0  0  0  0  0  0
  180.5260  182.3420  136.0530 C   0  0  0  0  0  0  0  0  0  0  0  0
  180.1070  179.8480  135.7750 C   0  0  0  0  0  0  0  0  0  0  0  0
  180.7210  180.9690  136.4180 N   0  0  0  0  0  2  0  0  0  0  0  0
  179.3170  180.0130  134.8040 O   0  0  0  0  0  0  0  0  0  0  0  0
  181.1720  184.7000  136.3170 C   0  0  0  0  0  1  0  0  0  0  0  0
  181.1350  183.3610  136.7850 O   0  0  0  0  0  0  0  0  0  0  0  0
  1 18  1  0  0  0  0
  1 20  1  0  0  0  0
  2 16  1  0  0  0  0
  2  6  2  0  0  0  0
  4  8  2  0  0  0  0
  4 18  1  0  0  0  0
  5 17  1  0  0  0  0
  5  2  1  1  0  0  0
  6  4  1  0  0  0  0
  7  3  1  6  0  0  0
  7  5  1  0  0  0  0
  9  6  1  0  0  0  0
  9 13  1  0  0  0  0
 10  1  1  0  0  0  0
 12  8  1  0  0  0  0
 13  1  1  0  0  0  0
 14 33  1  1  0  0  0
 14 15  1  0  0  0  0
 14 21  1  0  0  0  0
 15  3  1  0  0  0  0
 16 11  1  6  0  0  0
 16 12  1  0  0  0  0
 17 22  1  6  0  0  0
 17  9  1  0  0  0  0
 19 25  1  6  0  0  0
 19  7  1  0  0  0  0
 19 23  1  0  0  0  0
 21 22  1  0  0  0  0
 23 11  1  0  0  0  0
 24 25  1  0  0  0  0
 25 26  2  0  0  0  0
 28 29  2  0  0  0  0
 29 27  1  0  0  0  0
 29 26  1  0  0  0  0
 30 28  1  0  0  0  0
 30 24  2  0  0  0  0
 31 32  2  0  0  0  0
 32 34  1  0  0  0  0
 32 37  1  0  0  0  0
 33 34  1  0  0  0  0
 35 33  2  0  0  0  0
 36 37  1  0  0  0  0
M  END
>  <MODEL>
6

>  <REMARK>
 VINA RESULT:      -6.6      5.329      8.792
  Name = 
  3 active torsions:
  status: ('A' for Active; 'I' for Inactive)
    1  A    between atoms: C_4  and  O_37
    2  A    between atoms: C_8  and  C_18
    3  A    between atoms: C_23  and  C_30
                            x       y       z     vdW  Elec       q    Type
                         _______ _______ _______ _____ _____    ______ ____

>  <TORSDO>
F 3

$$$$
=
 OpenBabel11122411383D

 37 42  0  0  1  0  0  0  0  0999 V2000
  179.9150  178.9310  142.2930 C   0  0  0  0  0  0  0  0  0  0  0  0
  182.6190  176.9120  139.8930 C   0  0  0  0  0  0  0  0  0  0  0  0
  185.9290  178.6400  139.2120 O   0  0  0  0  0  0  0  0  0  0  0  0
  180.2620  177.2330  140.4130 C   0  0  0  0  0  0  0  0  0  0  0  0
  183.9450  177.5420  140.1830 C   0  0  1  0  0  3  0  0  0  0  0  0
  181.6780  177.5610  140.5220 C   0  0  0  0  0  0  0  0  0  0  0  0
  184.7390  177.9260  138.9180 C   0  0  2  0  0  3  0  0  0  0  0  0
  179.8800  176.2910  139.5390 C   0  0  0  0  0  3  0  0  0  0  0  0
  182.1530  178.6310  141.2950 N   0  0  0  0  0  0  0  0  0  0  0  0
  180.1770  178.0570  143.5060 C   0  0  0  0  0  1  0  0  0  0  0  0
  183.3740  175.2040  138.1920 C   0  0  0  0  0  2  0  0  0  0  0  0
  180.8920  175.6120  138.6260 C   0  0  0  0  0  2  0  0  0  0  0  0
  181.2330  179.6140  141.8520 C   0  0  0  0  0  2  0  0  0  0  0  0
  186.8920  178.8170  141.4280 C   0  0  1  0  0  3  0  0  0  0  0  0
  186.6540  177.9400  140.1950 C   0  0  0  0  0  2  0  0  0  0  0  0
  182.3170  175.6000  139.2210 C   0  0  2  0  0  3  0  0  0  0  0  0
  183.5590  178.8170  140.9620 C   0  0  1  0  0  3  0  0  0  0  0  0
  179.2720  178.0750  141.1730 C   0  0  0  0  0  2  0  0  0  0  0  0
  184.9760  176.7380  137.9620 C   0  0  1  0  0  3  0  0  0  0  0  0
  178.9310  180.0100  142.6910 C   0  0  0  0  0  1  0  0  0  0  0  0
  185.7110  179.7040  141.8620 C   0  0  0  0  0  2  0  0  0  0  0  0
  184.4250  178.9500  142.2040 C   0  0  0  0  0  2  0  0  0  0  0  0
  183.7580  176.3040  137.4160 O   0  0  0  0  0  0  0  0  0  0  0  0
  185.4090  177.5740  135.6450 C   0  0  0  0  0  3  0  0  0  0  0  0
  185.9210  177.0920  136.8540 C   0  0  0  0  0  0  0  0  0  0  0  0
  187.3060  176.9320  137.0070 C   0  0  0  0  0  3  0  0  0  0  0  0
  189.6370  177.0980  136.1250 C   0  0  0  0  0  1  0  0  0  0  0  0
  187.6540  177.7440  134.7530 C   0  0  0  0  0  3  0  0  0  0  0  0
  188.1690  177.2600  135.9580 C   0  0  0  0  0  0  0  0  0  0  0  0
  186.2730  177.9010  134.5960 C   0  0  0  0  0  3  0  0  0  0  0  0
  188.2290  176.6260  144.9840 O   0  0  0  0  0  0  0  0  0  0  0  0
  187.3260  177.5000  145.0480 C   0  0  0  0  0  0  0  0  0  0  0  0
  187.4450  178.0170  142.5600 C   0  0  0  0  0  0  0  0  0  0  0  0
  186.8940  178.1920  143.8690 N   0  0  0  0  0  2  0  0  0  0  0  0
  188.3910  177.2050  142.3600 O   0  0  0  0  0  0  0  0  0  0  0  0
  185.7040  178.7360  146.4220 C   0  0  0  0  0  1  0  0  0  0  0  0
  186.7520  177.7880  146.2860 O   0  0  0  0  0  0  0  0  0  0  0  0
  1 20  1  0  0  0  0
  1 10  1  0  0  0  0
  2  6  2  0  0  0  0
  3 15  1  0  0  0  0
  4  6  1  0  0  0  0
  4 18  1  0  0  0  0
  5  2  1  6  0  0  0
  5 17  1  0  0  0  0
  6  9  1  0  0  0  0
  7  3  1  1  0  0  0
  7  5  1  0  0  0  0
  8  4  2  0  0  0  0
  9 13  1  0  0  0  0
 12 16  1  0  0  0  0
 12  8  1  0  0  0  0
 13  1  1  0  0  0  0
 14 21  1  0  0  0  0
 14 33  1  1  0  0  0
 15 14  1  0  0  0  0
 16 11  1  6  0  0  0
 16  2  1  0  0  0  0
 17  9  1  0  0  0  0
 17 22  1  1  0  0  0
 18  1  1  0  0  0  0
 19 25  1  6  0  0  0
 19  7  1  0  0  0  0
 21 22  1  0  0  0  0
 23 19  1  0  0  0  0
 23 11  1  0  0  0  0
 24 25  1  0  0  0  0
 25 26  2  0  0  0  0
 28 29  2  0  0  0  0
 29 27  1  0  0  0  0
 29 26  1  0  0  0  0
 30 28  1  0  0  0  0
 30 24  2  0  0  0  0
 31 32  2  0  0  0  0
 32 37  1  0  0  0  0
 33 34  1  0  0  0  0
 34 32  1  0  0  0  0
 35 33  2  0  0  0  0
 37 36  1  0  0  0  0
M  END
>  <MODEL>
7

>  <REMARK>
 VINA RESULT:      -6.4      3.922      5.936
  Name = 
  3 active torsions:
  status: ('A' for Active; 'I' for Inactive)
    1  A    between atoms: C_4  and  O_37
    2  A    between atoms: C_8  and  C_18
    3  A    between atoms: C_23  and  C_30
                            x       y       z     vdW  Elec       q    Type
                         _______ _______ _______ _____ _____    ______ ____

>  <TORSDO>
F 3

$$$$
=
 OpenBabel11122411383D

 37 42  0  0  1  0  0  0  0  0999 V2000
  187.0220  177.9940  143.6380 C   0  0  0  0  0  0  0  0  0  0  0  0
  183.3150  178.5470  141.8790 C   0  0  0  0  0  0  0  0  0  0  0  0
  183.2880  179.6280  138.2400 O   0  0  0  0  0  0  0  0  0  0  0  0
  184.5580  178.5890  143.9720 C   0  0  0  0  0  0  0  0  0  0  0  0
  183.5680  178.4790  140.4060 C   0  0  1  0  0  3  0  0  0  0  0  0
  184.4490  178.4970  142.5220 C   0  0  0  0  0  0  0  0  0  0  0  0
  182.9270  179.6360  139.6130 C   0  0  2  0  0  3  0  0  0  0  0  0
  183.4560  178.8530  144.6900 C   0  0  0  0  0  3  0  0  0  0  0  0
  185.5660  178.3750  141.6810 N   0  0  0  0  0  0  0  0  0  0  0  0
  186.9360  176.4790  143.5930 C   0  0  0  0  0  1  0  0  0  0  0  0
  180.8190  178.9360  141.8190 C   0  0  0  0  0  2  0  0  0  0  0  0
  182.1200  179.1130  144.0070 C   0  0  0  0  0  2  0  0  0  0  0  0
  186.9140  178.5620  142.2030 C   0  0  0  0  0  2  0  0  0  0  0  0
  184.3650  177.7610  137.1320 C   0  0  1  0  0  3  0  0  0  0  0  0
  183.0720  178.3390  137.7160 C   0  0  0  0  0  2  0  0  0  0  0  0
  182.0140  178.4300  142.6260 C   0  0  2  0  0  3  0  0  0  0  0  0
  185.1050  178.5730  140.3140 C   0  0  1  0  0  3  0  0  0  0  0  0
  185.9300  178.5410  144.5910 C   0  0  0  0  0  2  0  0  0  0  0  0
  181.4040  179.7550  139.8280 C   0  0  1  0  0  3  0  0  0  0  0  0
  188.3750  178.3740  144.1990 C   0  0  0  0  0  1  0  0  0  0  0  0
  185.6480  178.0320  137.9390 C   0  0  0  0  0  2  0  0  0  0  0  0
  185.6370  177.5030  139.3740 C   0  0  0  0  0  2  0  0  0  0  0  0
  181.1290  180.1280  141.1530 O   0  0  0  0  0  0  0  0  0  0  0  0
  179.5270  180.4720  138.3390 C   0  0  0  0  0  3  0  0  0  0  0  0
  180.7820  180.7460  138.8920 C   0  0  0  0  0  0  0  0  0  0  0  0
  181.4460  181.9340  138.5540 C   0  0  0  0  0  3  0  0  0  0  0  0
  181.5550  184.1040  137.3200 C   0  0  0  0  0  1  0  0  0  0  0  0
  179.5980  182.5650  137.1230 C   0  0  0  0  0  3  0  0  0  0  0  0
  180.8530  182.8420  137.6720 C   0  0  0  0  0  0  0  0  0  0  0  0
  178.9350  181.3790  137.4560 C   0  0  0  0  0  3  0  0  0  0  0  0
  183.5160  173.5440  136.2770 O   0  0  0  0  0  0  0  0  0  0  0  0
  182.6950  174.2700  136.8940 C   0  0  0  0  0  0  0  0  0  0  0  0
  184.2040  176.3170  136.7940 C   0  0  0  0  0  0  0  0  0  0  0  0
  182.9880  175.6510  137.1480 N   0  0  0  0  0  2  0  0  0  0  0  0
  185.1350  175.6950  136.2110 O   0  0  0  0  0  0  0  0  0  0  0  0
  180.5430  174.4640  138.0690 C   0  0  0  0  0  1  0  0  0  0  0  0
  181.4950  173.7110  137.3320 O   0  0  0  0  0  0  0  0  0  0  0  0
  1 20  1  0  0  0  0
  1 18  1  0  0  0  0
  2  6  2  0  0  0  0
  2 16  1  0  0  0  0
  4 18  1  0  0  0  0
  4  8  2  0  0  0  0
  5  2  1  1  0  0  0
  6  4  1  0  0  0  0
  7  3  1  6  0  0  0
  7 19  1  0  0  0  0
  7  5  1  0  0  0  0
  9 13  1  0  0  0  0
  9  6  1  0  0  0  0
 10  1  1  0  0  0  0
 12  8  1  0  0  0  0
 13  1  1  0  0  0  0
 14 33  1  1  0  0  0
 14 15  1  0  0  0  0
 14 21  1  0  0  0  0
 15  3  1  0  0  0  0
 16 11  1  6  0  0  0
 16 12  1  0  0  0  0
 17 22  1  6  0  0  0
 17  5  1  0  0  0  0
 17  9  1  0  0  0  0
 19 25  1  6  0  0  0
 19 23  1  0  0  0  0
 21 22  1  0  0  0  0
 23 11  1  0  0  0  0
 24 25  1  0  0  0  0
 26 25  2  0  0  0  0
 27 29  1  0  0  0  0
 28 30  1  0  0  0  0
 28 29  2  0  0  0  0
 29 26  1  0  0  0  0
 30 24  2  0  0  0  0
 31 32  2  0  0  0  0
 32 34  1  0  0  0  0
 32 37  1  0  0  0  0
 33 34  1  0  0  0  0
 35 33  2  0  0  0  0
 37 36  1  0  0  0  0
M  END
>  <MODEL>
8

>  <REMARK>
 VINA RESULT:      -6.2      5.134     10.085
  Name = 
  3 active torsions:
  status: ('A' for Active; 'I' for Inactive)
    1  A    between atoms: C_4  and  O_37
    2  A    between atoms: C_8  and  C_18
    3  A    between atoms: C_23  and  C_30
                            x       y       z     vdW  Elec       q    Type
                         _______ _______ _______ _____ _____    ______ ____

>  <TORSDO>
F 3

$$$$
=
 OpenBabel11122411383D

 37 42  0  0  1  0  0  0  0  0999 V2000
  189.1820  176.6010  136.1570 C   0  0  0  0  0  0  0  0  0  0  0  0
  186.1230  177.8000  138.6770 C   0  0  0  0  0  0  0  0  0  0  0  0
  182.6790  178.1870  137.1280 O   0  0  0  0  0  0  0  0  0  0  0  0
  188.5230  177.8790  138.2700 C   0  0  0  0  0  0  0  0  0  0  0  0
  184.8620  177.4070  137.9740 C   0  0  1  0  0  3  0  0  0  0  0  0
  187.1480  177.5640  137.9040 C   0  0  0  0  0  0  0  0  0  0  0  0
  183.8110  178.5340  137.9120 C   0  0  2  0  0  3  0  0  0  0  0  0
  188.7530  178.5500  139.4090 C   0  0  0  0  0  3  0  0  0  0  0  0
  186.8000  177.0020  136.6660 N   0  0  0  0  0  0  0  0  0  0  0  0
  189.2090  175.1800  136.6920 C   0  0  0  0  0  1  0  0  0  0  0  0
  185.1010  178.8220  140.7490 C   0  0  0  0  0  2  0  0  0  0  0  0
  187.6020  179.0310  140.2810 C   0  0  0  0  0  2  0  0  0  0  0  0
  187.7770  176.9130  135.5890 C   0  0  0  0  0  2  0  0  0  0  0  0
  182.1860  175.9360  136.3810 C   0  0  1  0  0  3  0  0  0  0  0  0
  182.1990  176.9310  137.5450 C   0  0  0  0  0  2  0  0  0  0  0  0
  186.3310  178.1690  140.1210 C   0  0  2  0  0  3  0  0  0  0  0  0
  185.3500  177.0710  136.5490 C   0  0  1  0  0  3  0  0  0  0  0  0
  189.6140  177.5780  137.2780 C   0  0  0  0  0  2  0  0  0  0  0  0
  183.4280  179.0900  139.2990 C   0  0  1  0  0  3  0  0  0  0  0  0
  190.1850  176.6990  135.0280 C   0  0  0  0  0  1  0  0  0  0  0  0
  183.3960  175.9940  135.4310 C   0  0  0  0  0  2  0  0  0  0  0  0
  184.7530  175.7490  136.0930 C   0  0  0  0  0  2  0  0  0  0  0  0
  184.5240  179.7510  139.8750 O   0  0  0  0  0  0  0  0  0  0  0  0
  181.1110  179.7540  139.9670 C   0  0  0  0  0  3  0  0  0  0  0  0
  182.2630  180.0300  139.2230 C   0  0  0  0  0  0  0  0  0  0  0  0
  182.3070  181.1700  138.4070 C   0  0  0  0  0  3  0  0  0  0  0  0
  181.2560  183.2400  137.4850 C   0  0  0  0  0  1  0  0  0  0  0  0
  180.0580  181.7500  139.0910 C   0  0  0  0  0  3  0  0  0  0  0  0
  181.2050  182.0280  138.3440 C   0  0  0  0  0  0  0  0  0  0  0  0
  180.0100  180.6120  139.9020 C   0  0  0  0  0  3  0  0  0  0  0  0
  181.5700  171.7310  137.4670 O   0  0  0  0  0  0  0  0  0  0  0  0
  182.0960  172.0600  136.3720 C   0  0  0  0  0  0  0  0  0  0  0  0
  181.9080  174.5500  136.8610 C   0  0  0  0  0  0  0  0  0  0  0  0
  182.3010  173.4410  136.0460 N   0  0  0  0  0  2  0  0  0  0  0  0
  181.3270  174.3660  137.9660 O   0  0  0  0  0  0  0  0  0  0  0  0
  183.4340  170.0730  135.8190 C   0  0  0  0  0  1  0  0  0  0  0  0
  182.4730  171.0590  135.4770 O   0  0  0  0  0  0  0  0  0  0  0  0
  1 10  1  0  0  0  0
  1 18  1  0  0  0  0
  2 16  1  0  0  0  0
  3 15  1  0  0  0  0
  4  8  2  0  0  0  0
  5  2  1  1  0  0  0
  6  4  1  0  0  0  0
  6  2  2  0  0  0  0
  7  3  1  1  0  0  0
  7  5  1  0  0  0  0
  7 19  1  0  0  0  0
  8 12  1  0  0  0  0
  9  6  1  0  0  0  0
 13  1  1  0  0  0  0
 13  9  1  0  0  0  0
 14 33  1  1  0  0  0
 14 15  1  0  0  0  0
 16 12  1  6  0  0  0
 16 11  1  0  0  0  0
 17 22  1  1  0  0  0
 17  9  1  0  0  0  0
 17  5  1  0  0  0  0
 18  4  1  0  0  0  0
 19 25  1  6  0  0  0
 19 23  1  0  0  0  0
 20  1  1  0  0  0  0
 21 22  1  0  0  0  0
 21 14  1  0  0  0  0
 23 11  1  0  0  0  0
 25 24  2  0  0  0  0
 26 25  1  0  0  0  0
 27 29  1  0  0  0  0
 28 30  2  0  0  0  0
 29 26  2  0  0  0  0
 29 28  1  0  0  0  0
 30 24  1  0  0  0  0
 32 31  2  0  0  0  0
 33 35  2  0  0  0  0
 34 32  1  0  0  0  0
 34 33  1  0  0  0  0
 37 36  1  0  0  0  0
 37 32  1  0  0  0  0
M  END
>  <MODEL>
9

>  <REMARK>
 VINA RESULT:      -5.6      3.806      9.199
  Name = 
  3 active torsions:
  status: ('A' for Active; 'I' for Inactive)
    1  A    between atoms: C_4  and  O_37
    2  A    between atoms: C_8  and  C_18
    3  A    between atoms: C_23  and  C_30
                            x       y       z     vdW  Elec       q    Type
                         _______ _______ _______ _____ _____    ______ ____

>  <TORSDO>
F 3

$$$$
