=
 OpenBabel11122410283D

 30 35  0  0  1  0  0  0  0  0999 V2000
  186.9240  178.3280  141.0170 C   0  0  0  0  0  0  0  0  0  0  0  0
  184.5250  178.7640  140.2470 C   0  0  0  0  0  0  0  0  0  0  0  0
  185.7500  177.9980  144.9390 N   0  0  0  0  0  0  0  0  0  0  0  0
  187.8570  178.0190  142.0530 C   0  0  0  0  0  0  0  0  0  0  0  0
  187.3780  178.4700  139.7460 N   0  0  0  0  0  0  0  0  0  0  0  0
  190.7920  177.6900  140.1060 O   0  0  0  0  0  0  0  0  0  0  0  0
  190.4040  178.1190  143.8060 C   0  0  1  0  0  3  0  0  0  0  0  0
  189.5860  177.9020  140.4150 C   0  0  0  0  0  0  0  0  0  0  0  0
  189.4000  178.0600  144.9410 C   0  0  2  0  0  3  0  0  0  0  0  0
  186.9770  177.8610  145.4850 C   0  0  0  0  0  0  0  0  0  0  0  0
  188.6780  178.2880  139.4230 C   0  0  0  0  0  0  0  0  0  0  0  0
  189.1600  177.7420  141.7090 N   0  0  0  0  0  0  0  0  0  0  0  0
  183.1470  179.2240  140.6310 C   0  0  0  0  0  2  0  0  0  0  0  0
  189.9290  177.0110  145.8980 C   0  0  0  0  0  2  0  0  0  0  0  0
  191.7370  177.7530  144.4390 C   0  0  0  0  0  2  0  0  0  0  0  0
  184.8080  178.6700  139.0230 O   0  0  0  0  0  0  0  0  0  0  0  0
  186.0070  178.0680  143.6230 C   0  0  0  0  0  0  0  0  0  0  0  0
  182.7510  178.8050  142.0190 C   0  0  0  0  0  3  0  0  0  0  0  0
  185.5360  178.4760  141.3000 C   0  0  0  0  0  0  0  0  0  0  0  0
  187.3540  177.9580  143.3790 C   0  0  0  0  0  0  0  0  0  0  0  0
  187.1750  177.8620  146.9640 C   0  0  0  0  0  1  0  0  0  0  0  0
  187.9900  177.8380  144.5740 N   0  0  0  0  0  0  0  0  0  0  0  0
  191.4370  177.1010  145.7810 C   0  0  0  0  0  2  0  0  0  0  0  0
  189.7510  175.7330  143.0340 C   0  0  0  0  0  1  0  0  0  0  0  0
  183.6410  178.4270  142.9380 C   0  0  0  0  0  3  0  0  0  0  0  0
  185.0760  178.3240  142.6220 C   0  0  0  0  0  0  0  0  0  0  0  0
  190.1140  177.1680  142.6540 C   0  0  2  0  0  3  0  0  0  0  0  0
  189.1130  178.4910  138.0100 C   0  0  0  0  0  2  0  0  0  0  0  0
  187.4290  179.4520  136.6350 O   0  0  0  0  0  1  0  0  0  0  0  0
  187.9520  178.2350  137.0690 C   0  0  0  0  0  2  0  0  0  0  0  0
  1 19  2  0  0  0  0
  1  4  1  0  0  0  0
  2 13  1  0  0  0  0
  2 19  1  0  0  0  0
  3 10  2  0  0  0  0
  4 20  2  0  0  0  0
  5  1  1  0  0  0  0
  6  8  2  0  0  0  0
  7 15  1  1  0  0  0
  7  9  1  0  0  0  0
  8 12  1  0  0  0  0
  9 14  1  1  0  0  0
 10 21  1  0  0  0  0
 11  5  2  0  0  0  0
 11  8  1  0  0  0  0
 12  4  1  0  0  0  0
 12 27  1  0  0  0  0
 13 18  1  0  0  0  0
 15 23  1  0  0  0  0
 16  2  2  0  0  0  0
 17  3  1  0  0  0  0
 18 25  2  0  0  0  0
 19 26  1  0  0  0  0
 20 17  1  0  0  0  0
 20 22  1  0  0  0  0
 22  9  1  0  0  0  0
 22 10  1  0  0  0  0
 23 14  1  0  0  0  0
 26 25  1  0  0  0  0
 26 17  2  0  0  0  0
 27 24  1  1  0  0  0
 27  7  1  0  0  0  0
 28 11  1  0  0  0  0
 29 30  1  0  0  0  0
 30 28  1  0  0  0  0
M  END
>  <MODEL>
1

>  <REMARK>
 VINA RESULT:     -10.5      0.000      0.000
  Name = 
  2 active torsions:
  status: ('A' for Active; 'I' for Inactive)
    1  A    between atoms: C_11  and  C_28
    2  A    between atoms: C_28  and  C_30
                            x       y       z     vdW  Elec       q    Type
                         _______ _______ _______ _____ _____    ______ ____

>  <TORSDO>
F 2

$$$$
=
 OpenBabel11122410283D

 30 35  0  0  1  0  0  0  0  0999 V2000
  186.7330  177.9300  144.7980 C   0  0  0  0  0  0  0  0  0  0  0  0
  184.2740  178.5290  145.1710 C   0  0  0  0  0  0  0  0  0  0  0  0
  186.4420  178.6710  140.7680 N   0  0  0  0  0  0  0  0  0  0  0  0
  187.8630  177.8160  143.9340 C   0  0  0  0  0  0  0  0  0  0  0  0
  186.8780  177.6280  146.1130 N   0  0  0  0  0  0  0  0  0  0  0  0
  190.3230  176.9300  146.3170 O   0  0  0  0  0  0  0  0  0  0  0  0
  190.3930  176.6570  142.5830 C   0  0  1  0  0  3  0  0  0  0  0  0
  189.2020  177.2300  145.8180 C   0  0  0  0  0  0  0  0  0  0  0  0
  189.6980  177.1110  141.3140 C   0  0  2  0  0  3  0  0  0  0  0  0
  187.6880  178.2840  140.4230 C   0  0  0  0  0  0  0  0  0  0  0  0
  188.0690  177.2630  146.6380 C   0  0  0  0  0  0  0  0  0  0  0  0
  189.0930  177.5360  144.4860 N   0  0  0  0  0  0  0  0  0  0  0  0
  182.9100  178.6730  144.5590 C   0  0  0  0  0  2  0  0  0  0  0  0
  190.7550  177.8390  140.5090 C   0  0  0  0  0  2  0  0  0  0  0  0
  191.8430  176.4350  142.1800 C   0  0  0  0  0  2  0  0  0  0  0  0
  184.3720  178.5130  146.4270 O   0  0  0  0  0  0  0  0  0  0  0  0
  186.4330  178.5150  142.1020 C   0  0  0  0  0  0  0  0  0  0  0  0
  182.9490  179.2020  143.1520 C   0  0  0  0  0  3  0  0  0  0  0  0
  185.4710  178.3640  144.3010 C   0  0  0  0  0  0  0  0  0  0  0  0
  187.6500  178.0640  142.5530 C   0  0  0  0  0  0  0  0  0  0  0  0
  188.1040  178.1850  138.9930 C   0  0  0  0  0  1  0  0  0  0  0  0
  188.4630  177.8980  141.4760 N   0  0  0  0  0  0  0  0  0  0  0  0
  192.0550  177.1370  140.8460 C   0  0  0  0  0  2  0  0  0  0  0  0
  190.6560  179.1090  143.3800 C   0  0  0  0  0  1  0  0  0  0  0  0
  184.0500  179.1700  142.4010 C   0  0  0  0  0  3  0  0  0  0  0  0
  185.3320  178.6770  142.9350 C   0  0  0  0  0  0  0  0  0  0  0  0
  190.3360  177.6560  143.7290 C   0  0  2  0  0  3  0  0  0  0  0  0
  188.1510  176.9150  148.0880 C   0  0  0  0  0  2  0  0  0  0  0  0
  189.5270  178.6310  148.9880 O   0  0  0  0  0  1  0  0  0  0  0  0
  188.2090  178.1800  148.9210 C   0  0  0  0  0  2  0  0  0  0  0  0
  1  5  1  0  0  0  0
  2 16  2  0  0  0  0
  3 17  1  0  0  0  0
  4 12  1  0  0  0  0
  4  1  2  0  0  0  0
  5 11  2  0  0  0  0
  7 15  1  6  0  0  0
  7 27  1  0  0  0  0
  8  6  2  0  0  0  0
  8 11  1  0  0  0  0
  9 14  1  1  0  0  0
  9 22  1  0  0  0  0
  9  7  1  0  0  0  0
 10  3  2  0  0  0  0
 10 22  1  0  0  0  0
 11 28  1  0  0  0  0
 12  8  1  0  0  0  0
 13  2  1  0  0  0  0
 14 23  1  0  0  0  0
 17 20  2  0  0  0  0
 17 26  1  0  0  0  0
 18 13  1  0  0  0  0
 19  1  1  0  0  0  0
 19  2  1  0  0  0  0
 20  4  1  0  0  0  0
 21 10  1  0  0  0  0
 22 20  1  0  0  0  0
 23 15  1  0  0  0  0
 25 26  1  0  0  0  0
 25 18  2  0  0  0  0
 26 19  2  0  0  0  0
 27 24  1  6  0  0  0
 27 12  1  0  0  0  0
 28 30  1  0  0  0  0
 30 29  1  0  0  0  0
M  END
>  <MODEL>
2

>  <REMARK>
 VINA RESULT:      -9.8      2.853      5.526
  Name = 
  2 active torsions:
  status: ('A' for Active; 'I' for Inactive)
    1  A    between atoms: C_11  and  C_28
    2  A    between atoms: C_28  and  C_30
                            x       y       z     vdW  Elec       q    Type
                         _______ _______ _______ _____ _____    ______ ____

>  <TORSDO>
F 2

$$$$
=
 OpenBabel11122410283D

 30 35  0  0  1  0  0  0  0  0999 V2000
  189.0580  177.4370  143.0580 C   0  0  0  0  0  0  0  0  0  0  0  0
  191.2650  176.7300  144.1410 C   0  0  0  0  0  0  0  0  0  0  0  0
  187.1980  177.7160  146.7090 N   0  0  0  0  0  0  0  0  0  0  0  0
  187.7020  177.8640  143.1740 C   0  0  0  0  0  0  0  0  0  0  0  0
  189.6060  177.3190  141.8220 N   0  0  0  0  0  0  0  0  0  0  0  0
  186.9940  178.4690  139.7610 O   0  0  0  0  0  0  0  0  0  0  0  0
  184.6580  178.0740  142.6620 C   0  0  1  0  0  3  0  0  0  0  0  0
  187.6190  178.1350  140.8070 C   0  0  0  0  0  0  0  0  0  0  0  0
  184.5900  178.0470  144.1760 C   0  0  2  0  0  3  0  0  0  0  0  0
  185.9570  177.9950  146.2580 C   0  0  0  0  0  0  0  0  0  0  0  0
  188.9210  177.6340  140.7000 C   0  0  0  0  0  0  0  0  0  0  0  0
  187.0370  178.2740  142.0400 N   0  0  0  0  0  0  0  0  0  0  0  0
  191.9380  176.1310  145.3430 C   0  0  0  0  0  2  0  0  0  0  0  0
  183.6430  179.1650  144.5610 C   0  0  0  0  0  2  0  0  0  0  0  0
  183.3010  178.5940  142.2140 C   0  0  0  0  0  2  0  0  0  0  0  0
  191.9220  176.8300  143.0710 O   0  0  0  0  0  0  0  0  0  0  0  0
  187.9230  177.6480  145.5810 C   0  0  0  0  0  0  0  0  0  0  0  0
  191.2930  176.5330  146.6400 C   0  0  0  0  0  3  0  0  0  0  0  0
  189.8380  177.1460  144.2130 C   0  0  0  0  0  0  0  0  0  0  0  0
  187.1440  177.8970  144.4780 C   0  0  0  0  0  0  0  0  0  0  0  0
  184.7860  178.0440  147.1840 C   0  0  0  0  0  1  0  0  0  0  0  0
  185.8700  178.1090  144.9030 N   0  0  0  0  0  0  0  0  0  0  0  0
  182.6410  179.2360  143.4260 C   0  0  0  0  0  2  0  0  0  0  0  0
  185.8780  180.3600  142.7050 C   0  0  0  0  0  1  0  0  0  0  0  0
  190.0540  177.0230  146.7070 C   0  0  0  0  0  3  0  0  0  0  0  0
  189.2600  177.2740  145.4920 C   0  0  0  0  0  0  0  0  0  0  0  0
  185.7520  178.9660  142.0930 C   0  0  2  0  0  3  0  0  0  0  0  0
  189.5750  177.4520  139.3700 C   0  0  0  0  0  2  0  0  0  0  0  0
  190.7830  175.4960  138.7650 O   0  0  0  0  0  1  0  0  0  0  0  0
  190.8580  176.6590  139.5290 C   0  0  0  0  0  2  0  0  0  0  0  0
  1  4  2  0  0  0  0
  1 19  1  0  0  0  0
  2 19  1  0  0  0  0
  2 13  1  0  0  0  0
  4 20  1  0  0  0  0
  5  1  1  0  0  0  0
  6  8  2  0  0  0  0
  7 15  1  6  0  0  0
  7  9  1  0  0  0  0
  8 12  1  0  0  0  0
  9 14  1  1  0  0  0
  9 22  1  0  0  0  0
 10  3  2  0  0  0  0
 10 21  1  0  0  0  0
 11  8  1  0  0  0  0
 11  5  2  0  0  0  0
 12 27  1  0  0  0  0
 12  4  1  0  0  0  0
 13 18  1  0  0  0  0
 15 23  1  0  0  0  0
 16  2  2  0  0  0  0
 17  3  1  0  0  0  0
 18 25  2  0  0  0  0
 19 26  2  0  0  0  0
 20 22  1  0  0  0  0
 20 17  2  0  0  0  0
 22 10  1  0  0  0  0
 23 14  1  0  0  0  0
 26 17  1  0  0  0  0
 26 25  1  0  0  0  0
 27  7  1  0  0  0  0
 27 24  1  1  0  0  0
 28 30  1  0  0  0  0
 28 11  1  0  0  0  0
 29 30  1  0  0  0  0
M  END
>  <MODEL>
3

>  <REMARK>
 VINA RESULT:      -9.7      1.576      5.506
  Name = 
  2 active torsions:
  status: ('A' for Active; 'I' for Inactive)
    1  A    between atoms: C_11  and  C_28
    2  A    between atoms: C_28  and  C_30
                            x       y       z     vdW  Elec       q    Type
                         _______ _______ _______ _____ _____    ______ ____

>  <TORSDO>
F 2

$$$$
=
 OpenBabel11122410283D

 30 35  0  0  1  0  0  0  0  0999 V2000
  187.7720  177.6040  142.8380 C   0  0  0  0  0  0  0  0  0  0  0  0
  186.7470  177.9850  145.1500 C   0  0  0  0  0  0  0  0  0  0  0  0
  184.4680  179.1670  140.9650 N   0  0  0  0  0  0  0  0  0  0  0  0
  187.7100  177.7330  141.4170 C   0  0  0  0  0  0  0  0  0  0  0  0
  188.8710  177.0380  143.3980 N   0  0  0  0  0  0  0  0  0  0  0  0
  190.9140  176.4870  140.5840 O   0  0  0  0  0  0  0  0  0  0  0  0
  187.9080  177.0170  138.4150 C   0  0  1  0  0  3  0  0  0  0  0  0
  189.9110  176.8290  141.2720 C   0  0  0  0  0  0  0  0  0  0  0  0
  186.5520  177.6950  138.3540 C   0  0  2  0  0  3  0  0  0  0  0  0
  184.8500  178.9260  139.6930 C   0  0  0  0  0  0  0  0  0  0  0  0
  189.9250  176.6300  142.6560 C   0  0  0  0  0  0  0  0  0  0  0  0
  188.8200  177.4050  140.6730 N   0  0  0  0  0  0  0  0  0  0  0  0
  185.4900  178.1860  145.9480 C   0  0  0  0  0  2  0  0  0  0  0  0
  186.6160  178.6290  137.1630 C   0  0  0  0  0  2  0  0  0  0  0  0
  188.3840  176.9590  136.9720 C   0  0  0  0  0  2  0  0  0  0  0  0
  187.8110  177.7070  145.7630 O   0  0  0  0  0  0  0  0  0  0  0  0
  185.5140  178.7320  141.6850 C   0  0  0  0  0  0  0  0  0  0  0  0
  184.4570  179.0030  145.2240 C   0  0  0  0  0  3  0  0  0  0  0  0
  186.7100  178.0680  143.6640 C   0  0  0  0  0  0  0  0  0  0  0  0
  186.5110  178.2570  140.8680 C   0  0  0  0  0  0  0  0  0  0  0  0
  183.9220  179.1540  138.5460 C   0  0  0  0  0  1  0  0  0  0  0  0
  186.0870  178.3660  139.5810 N   0  0  0  0  0  0  0  0  0  0  0  0
  187.5340  177.9390  136.1750 C   0  0  0  0  0  2  0  0  0  0  0  0
  189.0570  179.2540  139.0410 C   0  0  0  0  0  1  0  0  0  0  0  0
  184.4800  179.1870  143.9030 C   0  0  0  0  0  3  0  0  0  0  0  0
  185.5750  178.6570  143.0720 C   0  0  0  0  0  0  0  0  0  0  0  0
  188.9430  177.7460  139.2580 C   0  0  2  0  0  3  0  0  0  0  0  0
  191.0890  175.9870  143.3360 C   0  0  0  0  0  2  0  0  0  0  0  0
  191.6490  176.3430  145.6180 O   0  0  0  0  0  1  0  0  0  0  0  0
  191.6820  176.9370  144.3570 C   0  0  0  0  0  2  0  0  0  0  0  0
  1  5  1  0  0  0  0
  1 19  1  0  0  0  0
  2 16  2  0  0  0  0
  2 13  1  0  0  0  0
  3 17  1  0  0  0  0
  4  1  2  0  0  0  0
  6  8  2  0  0  0  0
  7 15  1  6  0  0  0
  7 27  1  0  0  0  0
  8 11  1  0  0  0  0
  9 14  1  6  0  0  0
  9  7  1  0  0  0  0
  9 22  1  0  0  0  0
 10  3  2  0  0  0  0
 11 28  1  0  0  0  0
 11  5  2  0  0  0  0
 12  8  1  0  0  0  0
 12  4  1  0  0  0  0
 17 26  1  0  0  0  0
 18 13  1  0  0  0  0
 19  2  1  0  0  0  0
 20  4  1  0  0  0  0
 20 17  2  0  0  0  0
 21 10  1  0  0  0  0
 22 10  1  0  0  0  0
 22 20  1  0  0  0  0
 23 15  1  0  0  0  0
 23 14  1  0  0  0  0
 25 18  2  0  0  0  0
 26 19  2  0  0  0  0
 26 25  1  0  0  0  0
 27 24  1  1  0  0  0
 27 12  1  0  0  0  0
 28 30  1  0  0  0  0
 30 29  1  0  0  0  0
M  END
>  <MODEL>
4

>  <REMARK>
 VINA RESULT:      -8.4      2.202      5.710
  Name = 
  2 active torsions:
  status: ('A' for Active; 'I' for Inactive)
    1  A    between atoms: C_11  and  C_28
    2  A    between atoms: C_28  and  C_30
                            x       y       z     vdW  Elec       q    Type
                         _______ _______ _______ _____ _____    ______ ____

>  <TORSDO>
F 2

$$$$
=
 OpenBabel11122410283D

 30 35  0  0  1  0  0  0  0  0999 V2000
  185.8900  178.3550  142.1690 C   0  0  0  0  0  0  0  0  0  0  0  0
  186.7190  178.2610  144.5870 C   0  0  0  0  0  0  0  0  0  0  0  0
  181.9930  178.8180  143.3800 N   0  0  0  0  0  0  0  0  0  0  0  0
  184.8300  178.5250  141.2270 C   0  0  0  0  0  0  0  0  0  0  0  0
  187.1520  178.1610  141.7090 N   0  0  0  0  0  0  0  0  0  0  0  0
  186.7070  178.4580  138.2290 O   0  0  0  0  0  0  0  0  0  0  0  0
  183.0210  178.0610  138.7620 C   0  0  1  0  0  3  0  0  0  0  0  0
  186.4270  178.4130  139.4600 C   0  0  0  0  0  0  0  0  0  0  0  0
  181.9080  178.2510  139.7750 C   0  0  2  0  0  3  0  0  0  0  0  0
  181.4180  178.7800  142.1590 C   0  0  0  0  0  0  0  0  0  0  0  0
  187.4430  178.1630  140.3890 C   0  0  0  0  0  0  0  0  0  0  0  0
  185.1420  178.6220  139.8900 N   0  0  0  0  0  0  0  0  0  0  0  0
  186.3720  177.9940  146.0230 C   0  0  0  0  0  2  0  0  0  0  0  0
  180.9290  179.2100  139.1290 C   0  0  0  0  0  2  0  0  0  0  0  0
  182.3540  178.2350  137.4060 C   0  0  0  0  0  2  0  0  0  0  0  0
  187.9350  178.3250  144.2630 O   0  0  0  0  0  0  0  0  0  0  0  0
  183.3030  178.7220  143.1030 C   0  0  0  0  0  0  0  0  0  0  0  0
  184.9890  178.4550  146.3900 C   0  0  0  0  0  3  0  0  0  0  0  0
  185.6410  178.4000  143.5700 C   0  0  0  0  0  0  0  0  0  0  0  0
  183.5160  178.6460  141.7490 C   0  0  0  0  0  0  0  0  0  0  0  0
  179.9350  178.7410  141.9990 C   0  0  0  0  0  1  0  0  0  0  0  0
  182.3050  178.6690  141.1310 N   0  0  0  0  0  0  0  0  0  0  0  0
  181.0130  178.9130  137.6450 C   0  0  0  0  0  2  0  0  0  0  0  0
  183.7840  180.5200  139.0600 C   0  0  0  0  0  1  0  0  0  0  0  0
  184.0460  178.6990  145.4790 C   0  0  0  0  0  3  0  0  0  0  0  0
  184.3280  178.6050  144.0360 C   0  0  0  0  0  0  0  0  0  0  0  0
  184.1690  179.0510  138.8890 C   0  0  2  0  0  3  0  0  0  0  0  0
  188.8490  177.9120  139.9520 C   0  0  0  0  0  2  0  0  0  0  0  0
  190.4600  176.2820  140.5810 O   0  0  0  0  0  1  0  0  0  0  0  0
  189.6400  177.2900  141.0860 C   0  0  0  0  0  2  0  0  0  0  0  0
  1 19  1  0  0  0  0
  2 13  1  0  0  0  0
  4 20  1  0  0  0  0
  4  1  2  0  0  0  0
  5  1  1  0  0  0  0
  6  8  2  0  0  0  0
  7 15  1  6  0  0  0
  7 27  1  0  0  0  0
  7  9  1  0  0  0  0
  8 12  1  0  0  0  0
  8 11  1  0  0  0  0
  9 14  1  6  0  0  0
  9 22  1  0  0  0  0
 10  3  2  0  0  0  0
 11  5  2  0  0  0  0
 12  4  1  0  0  0  0
 13 18  1  0  0  0  0
 15 23  1  0  0  0  0
 16  2  2  0  0  0  0
 17  3  1  0  0  0  0
 17 26  1  0  0  0  0
 19 26  2  0  0  0  0
 19  2  1  0  0  0  0
 20 17  2  0  0  0  0
 21 10  1  0  0  0  0
 22 20  1  0  0  0  0
 22 10  1  0  0  0  0
 23 14  1  0  0  0  0
 25 18  2  0  0  0  0
 26 25  1  0  0  0  0
 27 24  1  1  0  0  0
 27 12  1  0  0  0  0
 28 11  1  0  0  0  0
 28 30  1  0  0  0  0
 29 30  1  0  0  0  0
M  END
>  <MODEL>
5

>  <REMARK>
 VINA RESULT:      -8.4      2.344      6.370
  Name = 
  2 active torsions:
  status: ('A' for Active; 'I' for Inactive)
    1  A    between atoms: C_11  and  C_28
    2  A    between atoms: C_28  and  C_30
                            x       y       z     vdW  Elec       q    Type
                         _______ _______ _______ _____ _____    ______ ____

>  <TORSDO>
F 2

$$$$
=
 OpenBabel11122410283D

 30 35  0  0  1  0  0  0  0  0999 V2000
  187.7120  178.1460  140.5180 C   0  0  0  0  0  0  0  0  0  0  0  0
  189.8440  177.7290  139.1680 C   0  0  0  0  0  0  0  0  0  0  0  0
  189.6990  177.6280  144.0750 N   0  0  0  0  0  0  0  0  0  0  0  0
  187.0490  178.2990  141.7730 C   0  0  0  0  0  0  0  0  0  0  0  0
  186.9940  178.2840  139.3750 N   0  0  0  0  0  0  0  0  0  0  0  0
  183.8230  179.1780  140.6180 O   0  0  0  0  0  0  0  0  0  0  0  0
  184.9230  178.0070  144.0000 C   0  0  1  0  0  3  0  0  0  0  0  0
  185.0400  178.8380  140.6080 C   0  0  0  0  0  0  0  0  0  0  0  0
  186.1410  177.7820  144.8760 C   0  0  2  0  0  3  0  0  0  0  0  0
  188.6310  177.7270  144.8950 C   0  0  0  0  0  0  0  0  0  0  0  0
  185.6790  178.6020  139.3870 C   0  0  0  0  0  0  0  0  0  0  0  0
  185.7370  178.7150  141.7820 N   0  0  0  0  0  0  0  0  0  0  0  0
  191.2180  177.1220  139.1470 C   0  0  0  0  0  2  0  0  0  0  0  0
  185.9290  178.6510  146.0990 C   0  0  0  0  0  2  0  0  0  0  0  0
  183.7930  178.3190  144.9690 C   0  0  0  0  0  2  0  0  0  0  0  0
  189.3250  178.0800  138.0760 O   0  0  0  0  0  0  0  0  0  0  0  0
  189.1700  177.8330  142.8580 C   0  0  0  0  0  0  0  0  0  0  0  0
  191.9330  177.2360  140.4650 C   0  0  0  0  0  3  0  0  0  0  0  0
  189.1060  177.8640  140.4530 C   0  0  0  0  0  0  0  0  0  0  0  0
  187.8190  178.0690  142.9430 C   0  0  0  0  0  0  0  0  0  0  0  0
  188.7440  177.4460  146.3560 C   0  0  0  0  0  1  0  0  0  0  0  0
  187.4590  177.9890  144.2510 N   0  0  0  0  0  0  0  0  0  0  0  0
  184.4280  178.6750  146.3060 C   0  0  0  0  0  2  0  0  0  0  0  0
  185.6380  180.4550  143.5430 C   0  0  0  0  0  1  0  0  0  0  0  0
  191.2950  177.4780  141.6110 C   0  0  0  0  0  3  0  0  0  0  0  0
  189.8430  177.7260  141.6460 C   0  0  0  0  0  0  0  0  0  0  0  0
  185.0620  179.1470  143.0030 C   0  0  2  0  0  3  0  0  0  0  0  0
  184.9430  178.7080  138.0920 C   0  0  0  0  0  2  0  0  0  0  0  0
  183.8630  176.5910  138.0960 O   0  0  0  0  0  1  0  0  0  0  0  0
  184.8390  177.3420  137.4430 C   0  0  0  0  0  2  0  0  0  0  0  0
  1  4  1  0  0  0  0
  2 19  1  0  0  0  0
  3 10  2  0  0  0  0
  4 12  1  0  0  0  0
  4 20  2  0  0  0  0
  5 11  2  0  0  0  0
  5  1  1  0  0  0  0
  7  9  1  0  0  0  0
  7 15  1  1  0  0  0
  8  6  2  0  0  0  0
  8 12  1  0  0  0  0
  9 14  1  1  0  0  0
 10 21  1  0  0  0  0
 11  8  1  0  0  0  0
 12 27  1  0  0  0  0
 13  2  1  0  0  0  0
 13 18  1  0  0  0  0
 14 23  1  0  0  0  0
 15 23  1  0  0  0  0
 16  2  2  0  0  0  0
 17 20  1  0  0  0  0
 17  3  1  0  0  0  0
 18 25  2  0  0  0  0
 19  1  2  0  0  0  0
 19 26  1  0  0  0  0
 20 22  1  0  0  0  0
 22  9  1  0  0  0  0
 22 10  1  0  0  0  0
 25 26  1  0  0  0  0
 26 17  2  0  0  0  0
 27 24  1  1  0  0  0
 27  7  1  0  0  0  0
 28 11  1  0  0  0  0
 30 28  1  0  0  0  0
 30 29  1  0  0  0  0
M  END
>  <MODEL>
6

>  <REMARK>
 VINA RESULT:      -8.3      1.731      4.960
  Name = 
  2 active torsions:
  status: ('A' for Active; 'I' for Inactive)
    1  A    between atoms: C_11  and  C_28
    2  A    between atoms: C_28  and  C_30
                            x       y       z     vdW  Elec       q    Type
                         _______ _______ _______ _____ _____    ______ ____

>  <TORSDO>
F 2

$$$$
=
 OpenBabel11122410283D

 30 35  0  0  1  0  0  0  0  0999 V2000
  188.1120  177.9940  141.8750 C   0  0  0  0  0  0  0  0  0  0  0  0
  188.9180  177.6720  144.2810 C   0  0  0  0  0  0  0  0  0  0  0  0
  191.6920  176.6750  140.3540 N   0  0  0  0  0  0  0  0  0  0  0  0
  188.3290  177.8780  140.4690 C   0  0  0  0  0  0  0  0  0  0  0  0
  186.9250  178.4790  142.3190 N   0  0  0  0  0  0  0  0  0  0  0  0
  185.1480  178.9030  139.3090 O   0  0  0  0  0  0  0  0  0  0  0  0
  188.3910  178.5960  137.4610 C   0  0  1  0  0  3  0  0  0  0  0  0
  186.0960  178.6280  140.0970 C   0  0  0  0  0  0  0  0  0  0  0  0
  189.7890  178.0150  137.5410 C   0  0  2  0  0  3  0  0  0  0  0  0
  191.4270  176.8970  139.0500 C   0  0  0  0  0  0  0  0  0  0  0  0
  185.9260  178.8180  141.4720 C   0  0  0  0  0  0  0  0  0  0  0  0
  187.2800  178.1320  139.6140 N   0  0  0  0  0  0  0  0  0  0  0  0
  190.0970  177.5540  145.2050 C   0  0  0  0  0  2  0  0  0  0  0  0
  189.9130  177.0850  136.3520 C   0  0  0  0  0  2  0  0  0  0  0  0
  188.0620  178.6290  135.9770 C   0  0  0  0  0  2  0  0  0  0  0  0
  187.7790  177.8710  144.7810 O   0  0  0  0  0  0  0  0  0  0  0  0
  190.5490  177.0320  140.9630 C   0  0  0  0  0  0  0  0  0  0  0  0
  191.2540  176.8140  144.5920 C   0  0  0  0  0  3  0  0  0  0  0  0
  189.1130  177.6000  142.8070 C   0  0  0  0  0  0  0  0  0  0  0  0
  189.6110  177.4410  140.0470 C   0  0  0  0  0  0  0  0  0  0  0  0
  192.4810  176.7400  138.0040 C   0  0  0  0  0  1  0  0  0  0  0  0
  190.1720  177.3700  138.8100 N   0  0  0  0  0  0  0  0  0  0  0  0
  189.0560  177.7160  135.2730 C   0  0  0  0  0  2  0  0  0  0  0  0
  187.3420  176.2810  137.9690 C   0  0  0  0  0  1  0  0  0  0  0  0
  191.3790  176.6370  143.2760 C   0  0  0  0  0  3  0  0  0  0  0  0
  190.3410  177.0940  142.3360 C   0  0  0  0  0  0  0  0  0  0  0  0
  187.3280  177.7920  138.1950 C   0  0  2  0  0  3  0  0  0  0  0  0
  184.6570  179.3740  142.0270 C   0  0  0  0  0  2  0  0  0  0  0  0
  184.2980  179.5060  144.3730 O   0  0  0  0  0  1  0  0  0  0  0  0
  184.2730  178.6280  143.2900 C   0  0  0  0  0  2  0  0  0  0  0  0
  1  5  1  0  0  0  0
  1 19  1  0  0  0  0
  2 16  2  0  0  0  0
  2 13  1  0  0  0  0
  3 17  1  0  0  0  0
  4  1  2  0  0  0  0
  6  8  2  0  0  0  0
  7 15  1  6  0  0  0
  7  9  1  0  0  0  0
  7 27  1  0  0  0  0
  8 11  1  0  0  0  0
  9 14  1  6  0  0  0
  9 22  1  0  0  0  0
 10  3  2  0  0  0  0
 11 28  1  0  0  0  0
 11  5  2  0  0  0  0
 12  8  1  0  0  0  0
 12  4  1  0  0  0  0
 17 26  1  0  0  0  0
 18 13  1  0  0  0  0
 19  2  1  0  0  0  0
 20  4  1  0  0  0  0
 20 17  2  0  0  0  0
 21 10  1  0  0  0  0
 22 10  1  0  0  0  0
 22 20  1  0  0  0  0
 23 15  1  0  0  0  0
 23 14  1  0  0  0  0
 25 18  2  0  0  0  0
 26 19  2  0  0  0  0
 26 25  1  0  0  0  0
 27 24  1  1  0  0  0
 27 12  1  0  0  0  0
 28 30  1  0  0  0  0
 30 29  1  0  0  0  0
M  END
>  <MODEL>
7

>  <REMARK>
 VINA RESULT:      -8.2      2.164      6.699
  Name = 
  2 active torsions:
  status: ('A' for Active; 'I' for Inactive)
    1  A    between atoms: C_11  and  C_28
    2  A    between atoms: C_28  and  C_30
                            x       y       z     vdW  Elec       q    Type
                         _______ _______ _______ _____ _____    ______ ____

>  <TORSDO>
F 2

$$$$
=
 OpenBabel11122410283D

 30 35  0  0  1  0  0  0  0  0999 V2000
  186.4790  178.2490  142.8020 C   0  0  0  0  0  0  0  0  0  0  0  0
  188.8190  177.8090  143.7360 C   0  0  0  0  0  0  0  0  0  0  0  0
  187.8170  177.9270  138.9310 N   0  0  0  0  0  0  0  0  0  0  0  0
  185.5880  178.3590  141.6920 C   0  0  0  0  0  0  0  0  0  0  0  0
  185.9880  178.4100  144.0560 N   0  0  0  0  0  0  0  0  0  0  0  0
  182.5460  178.8170  143.4380 O   0  0  0  0  0  0  0  0  0  0  0  0
  183.3620  179.4430  139.8370 C   0  0  1  0  0  3  0  0  0  0  0  0
  183.7790  178.6540  143.2160 C   0  0  0  0  0  0  0  0  0  0  0  0
  184.3880  179.1690  138.7540 C   0  0  2  0  0  3  0  0  0  0  0  0
  186.6600  178.2470  138.3130 C   0  0  0  0  0  0  0  0  0  0  0  0
  184.6740  178.6300  144.2900 C   0  0  0  0  0  0  0  0  0  0  0  0
  184.2390  178.4880  141.9350 N   0  0  0  0  0  0  0  0  0  0  0  0
  190.2980  177.8320  143.4790 C   0  0  0  0  0  2  0  0  0  0  0  0
  183.6370  178.4430  137.6570 C   0  0  0  0  0  2  0  0  0  0  0  0
  182.0410  179.5900  139.1000 C   0  0  0  0  0  2  0  0  0  0  0  0
  188.4160  177.6970  144.9250 O   0  0  0  0  0  0  0  0  0  0  0  0
  187.4840  177.9520  140.2320 C   0  0  0  0  0  0  0  0  0  0  0  0
  190.6570  177.4390  142.0720 C   0  0  0  0  0  3  0  0  0  0  0  0
  187.8610  177.9650  142.6080 C   0  0  0  0  0  0  0  0  0  0  0  0
  186.1560  178.2630  140.3950 C   0  0  0  0  0  0  0  0  0  0  0  0
  186.5990  178.4520  136.8360 C   0  0  0  0  0  1  0  0  0  0  0  0
  185.6180  178.4680  139.1630 N   0  0  0  0  0  0  0  0  0  0  0  0
  182.2310  179.0050  137.7070 C   0  0  0  0  0  2  0  0  0  0  0  0
  183.1580  176.9130  140.3580 C   0  0  0  0  0  1  0  0  0  0  0  0
  189.7750  177.4580  141.0720 C   0  0  0  0  0  3  0  0  0  0  0  0
  188.3590  177.7970  141.3010 C   0  0  0  0  0  0  0  0  0  0  0  0
  183.2370  178.3450  140.8830 C   0  0  2  0  0  3  0  0  0  0  0  0
  184.2070  178.8290  145.6940 C   0  0  0  0  0  2  0  0  0  0  0  0
  185.7310  179.6070  147.3440 O   0  0  0  0  0  1  0  0  0  0  0  0
  185.3140  178.4640  146.6640 C   0  0  0  0  0  2  0  0  0  0  0  0
  1  5  1  0  0  0  0
  2 16  2  0  0  0  0
  3 17  1  0  0  0  0
  4 12  1  0  0  0  0
  4  1  2  0  0  0  0
  5 11  2  0  0  0  0
  7 15  1  6  0  0  0
  7 27  1  0  0  0  0
  8  6  2  0  0  0  0
  8 11  1  0  0  0  0
  9 14  1  6  0  0  0
  9 22  1  0  0  0  0
  9  7  1  0  0  0  0
 10  3  2  0  0  0  0
 10 22  1  0  0  0  0
 11 28  1  0  0  0  0
 12  8  1  0  0  0  0
 13  2  1  0  0  0  0
 14 23  1  0  0  0  0
 17 20  2  0  0  0  0
 17 26  1  0  0  0  0
 18 13  1  0  0  0  0
 19  1  1  0  0  0  0
 19  2  1  0  0  0  0
 20  4  1  0  0  0  0
 21 10  1  0  0  0  0
 22 20  1  0  0  0  0
 23 15  1  0  0  0  0
 25 26  1  0  0  0  0
 25 18  2  0  0  0  0
 26 19  2  0  0  0  0
 27 24  1  6  0  0  0
 27 12  1  0  0  0  0
 28 30  1  0  0  0  0
 30 29  1  0  0  0  0
M  END
>  <MODEL>
8

>  <REMARK>
 VINA RESULT:      -8.1      2.577      7.447
  Name = 
  2 active torsions:
  status: ('A' for Active; 'I' for Inactive)
    1  A    between atoms: C_11  and  C_28
    2  A    between atoms: C_28  and  C_30
                            x       y       z     vdW  Elec       q    Type
                         _______ _______ _______ _____ _____    ______ ____

>  <TORSDO>
F 2

$$$$
=
 OpenBabel11122410283D

 30 35  0  0  1  0  0  0  0  0999 V2000
  186.0090  178.3470  141.6280 C   0  0  0  0  0  0  0  0  0  0  0  0
  185.6800  178.2530  144.1630 C   0  0  0  0  0  0  0  0  0  0  0  0
  189.9680  177.3080  141.9660 N   0  0  0  0  0  0  0  0  0  0  0  0
  186.8350  178.1690  140.4780 C   0  0  0  0  0  0  0  0  0  0  0  0
  184.7200  178.7350  141.4570 N   0  0  0  0  0  0  0  0  0  0  0  0
  184.4440  178.7960  137.9480 O   0  0  0  0  0  0  0  0  0  0  0  0
  188.1820  178.7090  137.7460 C   0  0  1  0  0  3  0  0  0  0  0  0
  184.9580  178.6660  139.0940 C   0  0  0  0  0  0  0  0  0  0  0  0
  189.4330  178.2770  138.4870 C   0  0  2  0  0  3  0  0  0  0  0  0
  190.2970  177.4230  140.6620 C   0  0  0  0  0  0  0  0  0  0  0  0
  184.1820  178.9190  140.2300 C   0  0  0  0  0  0  0  0  0  0  0  0
  186.2620  178.2650  139.2300 N   0  0  0  0  0  0  0  0  0  0  0  0
  186.3300  178.3110  145.5160 C   0  0  0  0  0  2  0  0  0  0  0  0
  190.1320  177.2960  137.5690 C   0  0  0  0  0  2  0  0  0  0  0  0
  188.5460  178.6190  136.2720 C   0  0  0  0  0  2  0  0  0  0  0  0
  184.4280  178.3660  144.0920 O   0  0  0  0  0  0  0  0  0  0  0  0
  188.6540  177.5840  141.9740 C   0  0  0  0  0  0  0  0  0  0  0  0
  187.6830  177.6570  145.5480 C   0  0  0  0  0  3  0  0  0  0  0  0
  186.5140  178.1130  142.9380 C   0  0  0  0  0  0  0  0  0  0  0  0
  188.1970  177.8400  140.7050 C   0  0  0  0  0  0  0  0  0  0  0  0
  191.7140  177.3120  140.2040 C   0  0  0  0  0  1  0  0  0  0  0  0
  189.2520  177.7520  139.8520 N   0  0  0  0  0  0  0  0  0  0  0  0
  189.8050  177.7700  136.1680 C   0  0  0  0  0  2  0  0  0  0  0  0
  187.1680  176.3340  137.9690 C   0  0  0  0  0  1  0  0  0  0  0  0
  188.3920  177.4140  144.4440 C   0  0  0  0  0  3  0  0  0  0  0  0
  187.8530  177.7070  143.1040 C   0  0  0  0  0  0  0  0  0  0  0  0
  186.9580  177.8460  138.0160 C   0  0  2  0  0  3  0  0  0  0  0  0
  182.7660  179.3770  140.1160 C   0  0  0  0  0  2  0  0  0  0  0  0
  181.3220  179.0090  141.9680 O   0  0  0  0  0  1  0  0  0  0  0  0
  181.8480  178.4030  140.8280 C   0  0  0  0  0  2  0  0  0  0  0  0
  1 19  1  0  0  0  0
  2 13  1  0  0  0  0
  3 17  1  0  0  0  0
  4 20  1  0  0  0  0
  4  1  2  0  0  0  0
  5  1  1  0  0  0  0
  6  8  2  0  0  0  0
  7 15  1  6  0  0  0
  7 27  1  0  0  0  0
  7  9  1  0  0  0  0
  8 12  1  0  0  0  0
  8 11  1  0  0  0  0
  9 14  1  6  0  0  0
  9 22  1  0  0  0  0
 10  3  2  0  0  0  0
 11  5  2  0  0  0  0
 12  4  1  0  0  0  0
 13 18  1  0  0  0  0
 16  2  2  0  0  0  0
 17 26  1  0  0  0  0
 19 26  2  0  0  0  0
 19  2  1  0  0  0  0
 20 17  2  0  0  0  0
 21 10  1  0  0  0  0
 22 10  1  0  0  0  0
 22 20  1  0  0  0  0
 23 15  1  0  0  0  0
 23 14  1  0  0  0  0
 25 18  2  0  0  0  0
 26 25  1  0  0  0  0
 27 24  1  1  0  0  0
 27 12  1  0  0  0  0
 28 11  1  0  0  0  0
 28 30  1  0  0  0  0
 30 29  1  0  0  0  0
M  END
>  <MODEL>
9

>  <REMARK>
 VINA RESULT:      -7.9      2.214      5.769
  Name = 
  2 active torsions:
  status: ('A' for Active; 'I' for Inactive)
    1  A    between atoms: C_11  and  C_28
    2  A    between atoms: C_28  and  C_30
                            x       y       z     vdW  Elec       q    Type
                         _______ _______ _______ _____ _____    ______ ____

>  <TORSDO>
F 2

$$$$
