=
 OpenBabel11122412223D

 34 40  0  0  1  0  0  0  0  0999 V2000
  182.2750  179.1040  143.2920 C   0  0  1  0  0  3  0  0  0  0  0  0
  183.4930  178.9990  145.3720 C   0  0  0  0  0  2  0  0  0  0  0  0
  181.7990  176.9100  137.0450 C   0  0  0  0  0  0  0  0  0  0  0  0
  181.1870  178.7840  141.0230 C   0  0  0  0  0  0  0  0  0  0  0  0
  182.5220  178.1800  139.0780 C   0  0  0  0  0  0  0  0  0  0  0  0
  184.1800  177.6830  137.2040 C   0  0  0  0  0  1  0  0  0  0  0  0
  182.1980  175.7460  136.7700 O   0  0  0  0  0  0  0  0  0  0  0  0
  179.9410  178.5150  137.3870 C   0  0  0  0  0  2  0  0  0  0  0  0
  184.6080  178.9570  143.3950 C   0  0  2  0  0  3  0  0  0  0  0  0
  187.5490  177.6850  143.1450 C   0  0  0  0  0  3  0  0  0  0  0  0
  183.6190  178.1410  139.8870 N   0  0  0  0  0  0  0  0  0  0  0  0
  179.9200  178.4660  138.9080 C   0  0  0  0  0  2  0  0  0  0  0  0
  184.8150  178.2420  142.0620 C   0  0  1  0  0  3  0  0  0  0  0  0
  184.9650  178.9070  145.7480 C   0  0  0  0  0  2  0  0  0  0  0  0
  181.2510  178.5090  139.6430 C   0  0  0  0  0  0  0  0  0  0  0  0
  180.4290  177.2490  136.8680 N   0  0  0  0  0  2  0  0  0  0  0  0
  186.5440  177.5850  144.2670 C   0  0  2  0  0  3  0  0  0  0  0  0
  182.3450  178.7470  141.8110 C   0  0  0  0  0  0  0  0  0  0  0  0
  182.7290  177.9450  137.5980 C   0  0  1  0  0  3  0  0  0  0  0  0
  183.5770  178.4220  141.2130 C   0  0  0  0  0  0  0  0  0  0  0  0
  179.8160  179.3680  143.0770 C   0  0  0  0  0  2  0  0  0  0  0  0
  187.3290  178.1650  141.9050 C   0  0  0  0  0  3  0  0  0  0  0  0
  179.9200  179.0210  141.6610 N   0  0  0  0  0  2  0  0  0  0  0  0
  186.0610  178.7960  141.3890 C   0  0  0  0  0  2  0  0  0  0  0  0
  185.7240  178.8730  144.4270 C   0  0  1  0  0  3  0  0  0  0  0  0
  180.9230  178.6820  143.8700 C   0  0  0  0  0  2  0  0  0  0  0  0
  183.3860  178.4780  144.0180 N   0  0  2  0  0  0  0  0  0  0  0  0
  187.2230  177.2760  145.4500 O   0  0  0  0  0  0  0  0  0  0  0  0
  188.5100  177.7870  145.2670 C   0  0  0  0  0  2  0  0  0  0  0  0
  191.8980  176.9710  146.2990 N   0  0  0  0  0  2  0  0  0  0  0  0
  189.7310  177.1250  147.3270 C   0  0  0  0  0  2  0  0  0  0  0  0
  189.5320  176.8390  145.8670 C   0  0  2  0  0  3  0  0  0  0  0  0
  191.1880  176.8080  147.5620 C   0  0  0  0  0  2  0  0  0  0  0  0
  190.8890  177.0820  145.2490 C   0  0  0  0  0  2  0  0  0  0  0  0
  1 26  1  1  0  0  0
  1 27  1  0  0  0  0
  2 14  1  0  0  0  0
  3 19  1  0  0  0  0
  4 23  1  0  0  0  0
  4 18  1  0  0  0  0
  5 15  1  0  0  0  0
  5 11  2  0  0  0  0
  6 19  1  0  0  0  0
  7  3  2  0  0  0  0
  8 12  1  0  0  0  0
  9 27  1  0  0  0  0
  9 25  1  0  0  0  0
 10 17  1  0  0  0  0
 11 20  1  0  0  0  0
 12 15  1  0  0  0  0
 13  9  1  0  0  0  0
 15  4  2  0  0  0  0
 16  3  1  0  0  0  0
 16  8  1  0  0  0  0
 17 25  1  0  0  0  0
 17 28  1  0  0  0  0
 18  1  1  0  0  0  0
 19  5  1  0  0  0  0
 20 18  2  0  0  0  0
 20 13  1  0  0  0  0
 21 26  1  0  0  0  0
 22 10  2  0  0  0  0
 23 21  1  0  0  0  0
 24 22  1  0  0  0  0
 24 13  1  0  0  0  0
 25 14  1  0  0  0  0
 27  2  1  0  0  0  0
 29 28  1  0  0  0  0
 29 32  1  0  0  0  0
 30 33  1  0  0  0  0
 31 33  1  0  0  0  0
 32 31  1  0  0  0  0
 34 32  1  0  0  0  0
 34 30  1  0  0  0  0
M  END
>  <MODEL>
1

>  <REMARK>
 VINA RESULT:      -9.7      0.000      0.000
  Name = 
  3 active torsions:
  status: ('A' for Active; 'I' for Inactive)
    1  A    between atoms: C_17  and  O_28
    2  A    between atoms: O_28  and  C_29
    3  A    between atoms: C_29  and  C_32
                            x       y       z     vdW  Elec       q    Type
                         _______ _______ _______ _____ _____    ______ ____

>  <TORSDO>
F 3

$$$$
=
 OpenBabel11122412223D

 34 40  0  0  1  0  0  0  0  0999 V2000
  188.2800  178.1160  141.1250 C   0  0  1  0  0  3  0  0  0  0  0  0
  186.6870  178.2550  139.3190 C   0  0  0  0  0  2  0  0  0  0  0  0
  189.3010  176.5230  147.4880 C   0  0  0  0  0  0  0  0  0  0  0  0
  189.6520  177.6470  143.2060 C   0  0  0  0  0  0  0  0  0  0  0  0
  188.6350  177.7620  145.4170 C   0  0  0  0  0  0  0  0  0  0  0  0
  187.3430  178.0880  147.5930 C   0  0  0  0  0  1  0  0  0  0  0  0
  188.6020  175.6170  148.0150 O   0  0  0  0  0  0  0  0  0  0  0  0
  191.4740  177.3030  146.5840 C   0  0  0  0  0  2  0  0  0  0  0  0
  186.0690  178.8150  141.4290 C   0  0  2  0  0  3  0  0  0  0  0  0
  182.9950  178.7280  142.3650 C   0  0  0  0  0  3  0  0  0  0  0  0
  187.4450  178.0450  144.8160 N   0  0  0  0  0  0  0  0  0  0  0  0
  191.1550  177.1010  145.1100 C   0  0  0  0  0  2  0  0  0  0  0  0
  185.9200  178.3590  142.8790 C   0  0  1  0  0  3  0  0  0  0  0  0
  185.2260  178.6680  139.2080 C   0  0  0  0  0  2  0  0  0  0  0  0
  189.7920  177.5510  144.6050 C   0  0  0  0  0  0  0  0  0  0  0  0
  190.7100  176.3580  147.3800 N   0  0  0  0  0  2  0  0  0  0  0  0
  183.6460  178.1600  141.1270 C   0  0  2  0  0  3  0  0  0  0  0  0
  188.4090  177.9560  142.6350 C   0  0  0  0  0  0  0  0  0  0  0  0
  188.6790  177.7650  146.9290 C   0  0  1  0  0  3  0  0  0  0  0  0
  187.2970  178.1600  143.4720 C   0  0  0  0  0  0  0  0  0  0  0  0
  190.6710  177.4900  140.8880 C   0  0  0  0  0  2  0  0  0  0  0  0
  183.6210  179.2150  143.4540 C   0  0  0  0  0  3  0  0  0  0  0  0
  190.7590  177.3450  142.3400 N   0  0  0  0  0  2  0  0  0  0  0  0
  185.1050  179.3900  143.6440 C   0  0  0  0  0  2  0  0  0  0  0  0
  184.7980  179.0410  140.6220 C   0  0  1  0  0  3  0  0  0  0  0  0
  189.2570  177.1780  140.4130 C   0  0  0  0  0  2  0  0  0  0  0  0
  186.8970  177.8670  140.7040 N   0  0  2  0  0  0  0  0  0  0  0  0
  182.6690  178.0040  140.1380 O   0  0  0  0  0  0  0  0  0  0  0  0
  181.5730  178.7380  140.6000 C   0  0  0  0  0  2  0  0  0  0  0  0
  180.1860  181.7410  139.0970 N   0  0  0  0  0  2  0  0  0  0  0  0
  181.9520  180.1840  138.6160 C   0  0  0  0  0  2  0  0  0  0  0  0
  180.9210  179.4750  139.4450 C   0  0  2  0  0  3  0  0  0  0  0  0
  181.2400  181.4270  138.1400 C   0  0  0  0  0  2  0  0  0  0  0  0
  180.0360  180.5810  139.9700 C   0  0  0  0  0  2  0  0  0  0  0  0
  1 26  1  6  0  0  0
  1 18  1  0  0  0  0
  2 27  1  0  0  0  0
  3  7  2  0  0  0  0
  4 15  1  0  0  0  0
  5 19  1  0  0  0  0
  8 16  1  0  0  0  0
  9 13  1  0  0  0  0
 10 22  2  0  0  0  0
 11  5  1  0  0  0  0
 12  8  1  0  0  0  0
 13 20  1  0  0  0  0
 13 24  1  0  0  0  0
 14  2  1  0  0  0  0
 14 25  1  0  0  0  0
 15 12  1  0  0  0  0
 15  5  2  0  0  0  0
 16  3  1  0  0  0  0
 17 10  1  0  0  0  0
 18  4  2  0  0  0  0
 18 20  1  0  0  0  0
 19  3  1  0  0  0  0
 19  6  1  0  0  0  0
 20 11  2  0  0  0  0
 21 23  1  0  0  0  0
 22 24  1  0  0  0  0
 23  4  1  0  0  0  0
 25 17  1  0  0  0  0
 25  9  1  0  0  0  0
 26 21  1  0  0  0  0
 27  1  1  0  0  0  0
 27  9  1  0  0  0  0
 28 29  1  0  0  0  0
 28 17  1  0  0  0  0
 30 34  1  0  0  0  0
 31 32  1  0  0  0  0
 32 34  1  0  0  0  0
 32 29  1  0  0  0  0
 33 31  1  0  0  0  0
 33 30  1  0  0  0  0
M  END
>  <MODEL>
2

>  <REMARK>
 VINA RESULT:      -9.0      2.275      9.498
  Name = 
  3 active torsions:
  status: ('A' for Active; 'I' for Inactive)
    1  A    between atoms: C_17  and  O_28
    2  A    between atoms: O_28  and  C_29
    3  A    between atoms: C_29  and  C_32
                            x       y       z     vdW  Elec       q    Type
                         _______ _______ _______ _____ _____    ______ ____

>  <TORSDO>
F 3

$$$$
=
 OpenBabel11122412223D

 34 40  0  0  1  0  0  0  0  0999 V2000
  188.8330  177.6870  143.0260 C   0  0  1  0  0  3  0  0  0  0  0  0
  191.0580  176.8820  142.5580 C   0  0  0  0  0  2  0  0  0  0  0  0
  182.6120  178.3550  140.8090 C   0  0  0  0  0  0  0  0  0  0  0  0
  186.3570  178.2150  143.1900 C   0  0  0  0  0  0  0  0  0  0  0  0
  185.0590  178.7190  141.1910 C   0  0  0  0  0  0  0  0  0  0  0  0
  183.9920  179.3360  138.9580 C   0  0  0  0  0  1  0  0  0  0  0  0
  182.1490  177.5000  140.0080 O   0  0  0  0  0  0  0  0  0  0  0  0
  182.6780  179.3540  143.0770 C   0  0  0  0  0  2  0  0  0  0  0  0
  189.8340  177.8660  140.9200 C   0  0  2  0  0  3  0  0  0  0  0  0
  190.4050  177.2880  137.8090 C   0  0  0  0  0  3  0  0  0  0  0  0
  186.1830  178.5020  140.4500 N   0  0  0  0  0  0  0  0  0  0  0  0
  183.9380  178.6520  143.5610 C   0  0  0  0  0  2  0  0  0  0  0  0
  188.5500  177.8360  140.0930 C   0  0  1  0  0  3  0  0  0  0  0  0
  191.9530  176.8620  141.3260 C   0  0  0  0  0  2  0  0  0  0  0  0
  185.1230  178.5750  142.6120 C   0  0  0  0  0  0  0  0  0  0  0  0
  182.0120  178.5260  142.0870 N   0  0  0  0  0  2  0  0  0  0  0  0
  190.9040  176.5630  139.0360 C   0  0  2  0  0  3  0  0  0  0  0  0
  187.4900  178.0190  142.3870 C   0  0  0  0  0  0  0  0  0  0  0  0
  183.8140  179.1790  140.4660 C   0  0  1  0  0  3  0  0  0  0  0  0
  187.3820  178.1740  140.9920 C   0  0  0  0  0  0  0  0  0  0  0  0
  187.7260  177.6420  145.2480 C   0  0  0  0  0  2  0  0  0  0  0  0
  189.4290  178.2170  137.7620 C   0  0  0  0  0  3  0  0  0  0  0  0
  186.4540  177.9590  144.6010 N   0  0  0  0  0  2  0  0  0  0  0  0
  188.6840  178.8070  138.9310 C   0  0  0  0  0  2  0  0  0  0  0  0
  191.1380  177.5160  140.2170 C   0  0  1  0  0  3  0  0  0  0  0  0
  188.6200  176.8580  144.2940 C   0  0  0  0  0  2  0  0  0  0  0  0
  189.6930  176.9860  142.0670 N   0  0  2  0  0  0  0  0  0  0  0  0
  192.0800  175.8820  138.7060 O   0  0  0  0  0  0  0  0  0  0  0  0
  191.7300  175.0680  137.6260 C   0  0  0  0  0  2  0  0  0  0  0  0
  195.0960  175.7840  136.4590 N   0  0  0  0  0  2  0  0  0  0  0  0
  193.9900  174.0360  137.6840 C   0  0  0  0  0  2  0  0  0  0  0  0
  192.9680  174.7170  136.8200 C   0  0  2  0  0  3  0  0  0  0  0  0
  195.3090  174.4980  137.1130 C   0  0  0  0  0  2  0  0  0  0  0  0
  193.6540  175.9780  136.3500 C   0  0  0  0  0  2  0  0  0  0  0  0
  1 26  1  1  0  0  0
  3 16  1  0  0  0  0
  4 23  1  0  0  0  0
  5 15  2  0  0  0  0
  6 19  1  0  0  0  0
  7  3  2  0  0  0  0
  8 12  1  0  0  0  0
  9 27  1  0  0  0  0
 10 17  1  0  0  0  0
 11 20  2  0  0  0  0
 11  5  1  0  0  0  0
 13  9  1  0  0  0  0
 13 20  1  0  0  0  0
 14  2  1  0  0  0  0
 15  4  1  0  0  0  0
 15 12  1  0  0  0  0
 16  8  1  0  0  0  0
 17 25  1  0  0  0  0
 18  1  1  0  0  0  0
 18  4  2  0  0  0  0
 19  3  1  0  0  0  0
 19  5  1  0  0  0  0
 20 18  1  0  0  0  0
 22 10  2  0  0  0  0
 22 24  1  0  0  0  0
 23 21  1  0  0  0  0
 24 13  1  0  0  0  0
 25  9  1  0  0  0  0
 25 14  1  0  0  0  0
 26 21  1  0  0  0  0
 27  2  1  0  0  0  0
 27  1  1  0  0  0  0
 28 17  1  0  0  0  0
 29 28  1  0  0  0  0
 30 33  1  0  0  0  0
 32 29  1  0  0  0  0
 32 31  1  0  0  0  0
 33 31  1  0  0  0  0
 34 30  1  0  0  0  0
 34 32  1  0  0  0  0
M  END
>  <MODEL>
3

>  <REMARK>
 VINA RESULT:      -9.0      4.699      6.872
  Name = 
  3 active torsions:
  status: ('A' for Active; 'I' for Inactive)
    1  A    between atoms: C_17  and  O_28
    2  A    between atoms: O_28  and  C_29
    3  A    between atoms: C_29  and  C_32
                            x       y       z     vdW  Elec       q    Type
                         _______ _______ _______ _____ _____    ______ ____

>  <TORSDO>
F 3

$$$$
=
 OpenBabel11122412223D

 34 40  0  0  1  0  0  0  0  0999 V2000
  188.3680  178.1080  141.0600 C   0  0  1  0  0  3  0  0  0  0  0  0
  186.7950  178.2300  139.2360 C   0  0  0  0  0  2  0  0  0  0  0  0
  189.3320  176.5300  147.4360 C   0  0  0  0  0  0  0  0  0  0  0  0
  189.7200  177.6540  143.1570 C   0  0  0  0  0  0  0  0  0  0  0  0
  188.6770  177.7610  145.3560 C   0  0  0  0  0  0  0  0  0  0  0  0
  187.3580  178.0760  147.5170 C   0  0  0  0  0  1  0  0  0  0  0  0
  188.6360  175.6170  147.9550 O   0  0  0  0  0  0  0  0  0  0  0  0
  191.5080  177.3310  146.5560 C   0  0  0  0  0  2  0  0  0  0  0  0
  186.1470  178.7860  141.3380 C   0  0  2  0  0  3  0  0  0  0  0  0
  183.0630  178.6690  142.2400 C   0  0  0  0  0  3  0  0  0  0  0  0
  187.4910  178.0320  144.7410 N   0  0  0  0  0  0  0  0  0  0  0  0
  191.2070  177.1240  145.0790 C   0  0  0  0  0  2  0  0  0  0  0  0
  185.9860  178.3290  142.7870 C   0  0  1  0  0  3  0  0  0  0  0  0
  185.3310  178.6280  139.1080 C   0  0  0  0  0  2  0  0  0  0  0  0
  189.8460  177.5610  144.5580 C   0  0  0  0  0  0  0  0  0  0  0  0
  190.7430  176.3790  147.3440 N   0  0  0  0  0  2  0  0  0  0  0  0
  183.7340  178.1070  141.0090 C   0  0  2  0  0  3  0  0  0  0  0  0
  188.4820  177.9510  142.5720 C   0  0  0  0  0  0  0  0  0  0  0  0
  188.7050  177.7660  146.8690 C   0  0  1  0  0  3  0  0  0  0  0  0
  187.3580  178.1440  143.3960 C   0  0  0  0  0  0  0  0  0  0  0  0
  190.7680  177.5050  140.8510 C   0  0  0  0  0  2  0  0  0  0  0  0
  183.6720  179.1630  143.3350 C   0  0  0  0  0  3  0  0  0  0  0  0
  190.8400  177.3630  142.3040 N   0  0  0  0  0  2  0  0  0  0  0  0
  185.1530  179.3530  143.5410 C   0  0  0  0  0  2  0  0  0  0  0  0
  184.8830  178.9990  140.5170 C   0  0  1  0  0  3  0  0  0  0  0  0
  189.3620  177.1790  140.3600 C   0  0  0  0  0  2  0  0  0  0  0  0
  186.9920  177.8450  140.6240 N   0  0  2  0  0  0  0  0  0  0  0  0
  182.7700  177.9400  140.0100 O   0  0  0  0  0  0  0  0  0  0  0  0
  181.5460  178.0960  140.6650 C   0  0  0  0  0  2  0  0  0  0  0  0
  180.1230  174.8760  139.7600 N   0  0  0  0  0  2  0  0  0  0  0  0
  179.4270  176.8330  140.9700 C   0  0  0  0  0  2  0  0  0  0  0  0
  180.4860  177.2460  139.9880 C   0  0  2  0  0  3  0  0  0  0  0  0
  179.0080  175.4640  140.4930 C   0  0  0  0  0  2  0  0  0  0  0  0
  181.0890  175.9440  139.5170 C   0  0  0  0  0  2  0  0  0  0  0  0
  1 26  1  6  0  0  0
  1 18  1  0  0  0  0
  2 27  1  0  0  0  0
  3  7  2  0  0  0  0
  4 15  1  0  0  0  0
  5 19  1  0  0  0  0
  8 16  1  0  0  0  0
  9 13  1  0  0  0  0
 10 22  2  0  0  0  0
 11  5  1  0  0  0  0
 12  8  1  0  0  0  0
 13 20  1  0  0  0  0
 13 24  1  0  0  0  0
 14  2  1  0  0  0  0
 14 25  1  0  0  0  0
 15 12  1  0  0  0  0
 15  5  2  0  0  0  0
 16  3  1  0  0  0  0
 17 10  1  0  0  0  0
 18  4  2  0  0  0  0
 18 20  1  0  0  0  0
 19  3  1  0  0  0  0
 19  6  1  0  0  0  0
 20 11  2  0  0  0  0
 21 23  1  0  0  0  0
 22 24  1  0  0  0  0
 23  4  1  0  0  0  0
 25 17  1  0  0  0  0
 25  9  1  0  0  0  0
 26 21  1  0  0  0  0
 27  1  1  0  0  0  0
 27  9  1  0  0  0  0
 28 29  1  0  0  0  0
 28 17  1  0  0  0  0
 30 33  1  0  0  0  0
 32 29  1  0  0  0  0
 32 31  1  0  0  0  0
 33 31  1  0  0  0  0
 34 30  1  0  0  0  0
 34 32  1  0  0  0  0
M  END
>  <MODEL>
4

>  <REMARK>
 VINA RESULT:      -8.8      2.287      9.408
  Name = 
  3 active torsions:
  status: ('A' for Active; 'I' for Inactive)
    1  A    between atoms: C_17  and  O_28
    2  A    between atoms: O_28  and  C_29
    3  A    between atoms: C_29  and  C_32
                            x       y       z     vdW  Elec       q    Type
                         _______ _______ _______ _____ _____    ______ ____

>  <TORSDO>
F 3

$$$$
=
 OpenBabel11122412223D

 34 40  0  0  1  0  0  0  0  0999 V2000
  185.5980  178.4270  142.8520 C   0  0  1  0  0  3  0  0  0  0  0  0
  185.4180  178.9320  140.5010 C   0  0  0  0  0  2  0  0  0  0  0  0
  189.6200  177.9210  148.1090 C   0  0  0  0  0  0  0  0  0  0  0  0
  186.1850  178.1600  145.3050 C   0  0  0  0  0  0  0  0  0  0  0  0
  188.4050  177.4170  145.9790 C   0  0  0  0  0  0  0  0  0  0  0  0
  190.7510  176.4990  146.3790 C   0  0  0  0  0  1  0  0  0  0  0  0
  190.6440  178.6530  148.1730 O   0  0  0  0  0  0  0  0  0  0  0  0
  187.3380  177.3520  148.8930 C   0  0  0  0  0  2  0  0  0  0  0  0
  187.2080  177.7780  141.2850 C   0  0  2  0  0  3  0  0  0  0  0  0
  190.0060  177.7240  139.7020 C   0  0  0  0  0  3  0  0  0  0  0  0
  188.7580  177.3940  144.6620 N   0  0  0  0  0  0  0  0  0  0  0  0
  186.5720  178.0160  147.7570 C   0  0  0  0  0  2  0  0  0  0  0  0
  188.4070  177.7700  142.2320 C   0  0  1  0  0  3  0  0  0  0  0  0
  186.2750  178.6470  139.2750 C   0  0  0  0  0  2  0  0  0  0  0  0
  187.0790  177.8120  146.3380 C   0  0  0  0  0  0  0  0  0  0  0  0
  188.6010  178.0410  149.0930 N   0  0  0  0  0  2  0  0  0  0  0  0
  188.8010  178.6140  139.5080 C   0  0  2  0  0  3  0  0  0  0  0  0
  186.5900  178.1050  143.9640 C   0  0  0  0  0  0  0  0  0  0  0  0
  189.4260  176.9450  146.9900 C   0  0  1  0  0  3  0  0  0  0  0  0
  187.9040  177.7080  143.6560 C   0  0  0  0  0  0  0  0  0  0  0  0
  183.8960  178.9760  144.5750 C   0  0  0  0  0  2  0  0  0  0  0  0
  190.2370  176.8930  140.7370 C   0  0  0  0  0  3  0  0  0  0  0  0
  184.8730  178.6600  145.6150 N   0  0  0  0  0  2  0  0  0  0  0  0
  189.3070  176.5950  141.8840 C   0  0  0  0  0  2  0  0  0  0  0  0
  187.4840  177.8760  139.7910 C   0  0  1  0  0  3  0  0  0  0  0  0
  184.6050  179.4900  143.3270 C   0  0  0  0  0  2  0  0  0  0  0  0
  186.3110  178.8620  141.6460 N   0  0  2  0  0  0  0  0  0  0  0  0
  188.8200  179.1160  138.2030 O   0  0  0  0  0  0  0  0  0  0  0  0
  189.5590  178.1830  137.4720 C   0  0  0  0  0  2  0  0  0  0  0  0
  186.8450  176.2750  135.9890 N   0  0  0  0  0  2  0  0  0  0  0  0
  187.5420  178.5730  136.0750 C   0  0  0  0  0  2  0  0  0  0  0  0
  188.7560  177.7120  136.2730 C   0  0  2  0  0  3  0  0  0  0  0  0
  186.5070  177.6180  135.5330 C   0  0  0  0  0  2  0  0  0  0  0  0
  188.1990  176.3330  136.5330 C   0  0  0  0  0  2  0  0  0  0  0  0
  1 26  1  1  0  0  0
  1 18  1  0  0  0  0
  2 27  1  0  0  0  0
  3  7  2  0  0  0  0
  3 16  1  0  0  0  0
  4 23  1  0  0  0  0
  4 15  1  0  0  0  0
  5 15  2  0  0  0  0
  5 19  1  0  0  0  0
  6 19  1  0  0  0  0
  8 16  1  0  0  0  0
  9 27  1  0  0  0  0
  9 13  1  0  0  0  0
 10 22  2  0  0  0  0
 11  5  1  0  0  0  0
 12  8  1  0  0  0  0
 13 20  1  0  0  0  0
 14 25  1  0  0  0  0
 14  2  1  0  0  0  0
 15 12  1  0  0  0  0
 17 10  1  0  0  0  0
 17 25  1  0  0  0  0
 18  4  2  0  0  0  0
 19  3  1  0  0  0  0
 20 18  1  0  0  0  0
 20 11  2  0  0  0  0
 21 23  1  0  0  0  0
 22 24  1  0  0  0  0
 24 13  1  0  0  0  0
 25  9  1  0  0  0  0
 26 21  1  0  0  0  0
 27  1  1  0  0  0  0
 28 17  1  0  0  0  0
 29 28  1  0  0  0  0
 30 34  1  0  0  0  0
 31 32  1  0  0  0  0
 32 34  1  0  0  0  0
 32 29  1  0  0  0  0
 33 30  1  0  0  0  0
 33 31  1  0  0  0  0
M  END
>  <MODEL>
5

>  <REMARK>
 VINA RESULT:      -8.6      3.504      8.602
  Name = 
  3 active torsions:
  status: ('A' for Active; 'I' for Inactive)
    1  A    between atoms: C_17  and  O_28
    2  A    between atoms: O_28  and  C_29
    3  A    between atoms: C_29  and  C_32
                            x       y       z     vdW  Elec       q    Type
                         _______ _______ _______ _____ _____    ______ ____

>  <TORSDO>
F 3

$$$$
=
 OpenBabel11122412223D

 34 40  0  0  1  0  0  0  0  0999 V2000
  186.1970  178.5430  143.3330 C   0  0  1  0  0  3  0  0  0  0  0  0
  188.5090  178.0720  142.8320 C   0  0  0  0  0  2  0  0  0  0  0  0
  179.8710  177.7960  141.4650 C   0  0  0  0  0  0  0  0  0  0  0  0
  183.6760  178.6550  143.5870 C   0  0  0  0  0  0  0  0  0  0  0  0
  182.2270  178.6270  141.6290 C   0  0  0  0  0  0  0  0  0  0  0  0
  180.9740  178.7150  139.4080 C   0  0  0  0  0  1  0  0  0  0  0  0
  179.5370  176.7640  140.8230 O   0  0  0  0  0  0  0  0  0  0  0  0
  179.8500  179.1150  143.5640 C   0  0  0  0  0  2  0  0  0  0  0  0
  187.0620  178.5780  141.1590 C   0  0  2  0  0  3  0  0  0  0  0  0
  187.5980  177.6530  138.1270 C   0  0  0  0  0  3  0  0  0  0  0  0
  183.3390  178.5000  140.8510 N   0  0  0  0  0  0  0  0  0  0  0  0
  181.2350  178.7200  144.0550 C   0  0  0  0  0  2  0  0  0  0  0  0
  185.7710  178.2050  140.4330 C   0  0  1  0  0  3  0  0  0  0  0  0
  189.3420  178.0250  141.5590 C   0  0  0  0  0  2  0  0  0  0  0  0
  182.3750  178.7080  143.0480 C   0  0  0  0  0  0  0  0  0  0  0  0
  179.3040  178.0470  142.7450 N   0  0  0  0  0  2  0  0  0  0  0  0
  188.2700  177.2140  139.4060 C   0  0  2  0  0  3  0  0  0  0  0  0
  184.7910  178.5400  142.7440 C   0  0  0  0  0  0  0  0  0  0  0  0
  180.8900  178.7540  140.9320 C   0  0  1  0  0  3  0  0  0  0  0  0
  184.5990  178.4660  141.3520 C   0  0  0  0  0  0  0  0  0  0  0  0
  185.2090  178.6370  145.6080 C   0  0  0  0  0  2  0  0  0  0  0  0
  186.4710  178.3830  138.0180 C   0  0  0  0  0  3  0  0  0  0  0  0
  183.8750  178.6320  145.0100 N   0  0  0  0  0  2  0  0  0  0  0  0
  185.6800  179.0030  139.1410 C   0  0  0  0  0  2  0  0  0  0  0  0
  188.3780  178.3570  140.4270 C   0  0  1  0  0  3  0  0  0  0  0  0
  186.1890  177.8860  144.7150 C   0  0  0  0  0  2  0  0  0  0  0  0
  187.1290  177.8660  142.4240 N   0  0  2  0  0  0  0  0  0  0  0  0
  189.5350  176.7040  139.0960 O   0  0  0  0  0  0  0  0  0  0  0  0
  189.8750  177.3070  137.8820 C   0  0  0  0  0  2  0  0  0  0  0  0
  192.6950  175.0170  137.7950 N   0  0  0  0  0  2  0  0  0  0  0  0
  190.3970  175.0100  137.0920 C   0  0  0  0  0  2  0  0  0  0  0  0
  190.8660  176.4350  137.1320 C   0  0  2  0  0  3  0  0  0  0  0  0
  191.6750  174.2090  137.1380 C   0  0  0  0  0  2  0  0  0  0  0  0
  192.1760  176.3780  137.8810 C   0  0  0  0  0  2  0  0  0  0  0  0
  1 26  1  1  0  0  0
  3 16  1  0  0  0  0
  4 23  1  0  0  0  0
  5 15  2  0  0  0  0
  6 19  1  0  0  0  0
  7  3  2  0  0  0  0
  8 12  1  0  0  0  0
  9 27  1  0  0  0  0
 10 17  1  0  0  0  0
 11 20  2  0  0  0  0
 11  5  1  0  0  0  0
 13  9  1  0  0  0  0
 13 20  1  0  0  0  0
 14  2  1  0  0  0  0
 15  4  1  0  0  0  0
 15 12  1  0  0  0  0
 16  8  1  0  0  0  0
 17 25  1  0  0  0  0
 18  1  1  0  0  0  0
 18  4  2  0  0  0  0
 19  3  1  0  0  0  0
 19  5  1  0  0  0  0
 20 18  1  0  0  0  0
 22 10  2  0  0  0  0
 22 24  1  0  0  0  0
 23 21  1  0  0  0  0
 24 13  1  0  0  0  0
 25  9  1  0  0  0  0
 25 14  1  0  0  0  0
 26 21  1  0  0  0  0
 27  2  1  0  0  0  0
 27  1  1  0  0  0  0
 28 17  1  0  0  0  0
 29 28  1  0  0  0  0
 30 34  1  0  0  0  0
 31 32  1  0  0  0  0
 31 33  1  0  0  0  0
 32 34  1  0  0  0  0
 32 29  1  0  0  0  0
 33 30  1  0  0  0  0
M  END
>  <MODEL>
6

>  <REMARK>
 VINA RESULT:      -8.4      3.534      5.610
  Name = 
  3 active torsions:
  status: ('A' for Active; 'I' for Inactive)
    1  A    between atoms: C_17  and  O_28
    2  A    between atoms: O_28  and  C_29
    3  A    between atoms: C_29  and  C_32
                            x       y       z     vdW  Elec       q    Type
                         _______ _______ _______ _____ _____    ______ ____

>  <TORSDO>
F 3

$$$$
=
 OpenBabel11122412223D

 34 40  0  0  1  0  0  0  0  0999 V2000
  183.8200  178.3420  144.0900 C   0  0  1  0  0  3  0  0  0  0  0  0
  181.7450  179.0450  143.0790 C   0  0  0  0  0  2  0  0  0  0  0  0
  190.4490  178.4290  143.7470 C   0  0  0  0  0  0  0  0  0  0  0  0
  186.1890  177.9740  144.9170 C   0  0  0  0  0  0  0  0  0  0  0  0
  188.0480  177.8440  143.3470 C   0  0  0  0  0  0  0  0  0  0  0  0
  189.7640  177.6170  141.4730 C   0  0  0  0  0  1  0  0  0  0  0  0
  191.0240  179.4180  143.2170 O   0  0  0  0  0  0  0  0  0  0  0  0
  189.8510  177.1260  145.7690 C   0  0  0  0  0  2  0  0  0  0  0  0
  183.4820  178.3850  141.7760 C   0  0  2  0  0  3  0  0  0  0  0  0
  183.7570  179.3440  138.7200 C   0  0  0  0  0  3  0  0  0  0  0  0
  187.1630  178.0810  142.3360 N   0  0  0  0  0  0  0  0  0  0  0  0
  188.4360  177.6630  145.9340 C   0  0  0  0  0  2  0  0  0  0  0  0
  184.9370  178.6200  141.3740 C   0  0  1  0  0  3  0  0  0  0  0  0
  181.2390  179.1710  141.6490 C   0  0  0  0  0  2  0  0  0  0  0  0
  187.5680  177.7860  144.6920 C   0  0  0  0  0  0  0  0  0  0  0  0
  190.6760  178.1270  145.1170 N   0  0  0  0  0  2  0  0  0  0  0  0
  182.8560  179.8560  139.8170 C   0  0  2  0  0  3  0  0  0  0  0  0
  185.3170  178.1980  143.8430 C   0  0  0  0  0  0  0  0  0  0  0  0
  189.4890  177.5780  142.9740 C   0  0  1  0  0  3  0  0  0  0  0  0
  185.8320  178.2450  142.5340 C   0  0  0  0  0  0  0  0  0  0  0  0
  184.2400  178.1600  146.5300 C   0  0  0  0  0  2  0  0  0  0  0  0
  184.8000  178.5020  138.8600 C   0  0  0  0  0  3  0  0  0  0  0  0
  185.6700  178.0250  146.2560 N   0  0  0  0  0  2  0  0  0  0  0  0
  185.2440  177.8110  140.1230 C   0  0  0  0  0  2  0  0  0  0  0  0
  182.4000  178.7350  140.7640 C   0  0  1  0  0  3  0  0  0  0  0  0
  183.5740  179.0020  145.4490 C   0  0  0  0  0  2  0  0  0  0  0  0
  183.1960  179.1070  143.0040 N   0  0  2  0  0  0  0  0  0  0  0  0
  181.7550  180.4910  139.2330 O   0  0  0  0  0  0  0  0  0  0  0  0
  182.2780  181.6490  138.6520 C   0  0  0  0  0  2  0  0  0  0  0  0
  181.1180  184.1470  136.2810 N   0  0  0  0  0  2  0  0  0  0  0  0
  180.8040  181.7940  136.6570 C   0  0  0  0  0  2  0  0  0  0  0  0
  181.1700  182.4290  137.9670 C   0  0  2  0  0  3  0  0  0  0  0  0
  180.4260  182.9650  135.7830 C   0  0  0  0  0  2  0  0  0  0  0  0
  181.6620  183.8060  137.5920 C   0  0  0  0  0  2  0  0  0  0  0  0
  1 26  1  1  0  0  0
  3 16  1  0  0  0  0
  4 23  1  0  0  0  0
  5 15  2  0  0  0  0
  6 19  1  0  0  0  0
  7  3  2  0  0  0  0
  8 12  1  0  0  0  0
  9 27  1  0  0  0  0
 10 22  2  0  0  0  0
 10 17  1  0  0  0  0
 11 20  2  0  0  0  0
 11  5  1  0  0  0  0
 13  9  1  0  0  0  0
 13 20  1  0  0  0  0
 14  2  1  0  0  0  0
 15  4  1  0  0  0  0
 15 12  1  0  0  0  0
 16  8  1  0  0  0  0
 17 25  1  0  0  0  0
 18  1  1  0  0  0  0
 18  4  2  0  0  0  0
 19  5  1  0  0  0  0
 19  3  1  0  0  0  0
 20 18  1  0  0  0  0
 22 24  1  0  0  0  0
 23 21  1  0  0  0  0
 24 13  1  0  0  0  0
 25 14  1  0  0  0  0
 25  9  1  0  0  0  0
 26 21  1  0  0  0  0
 27  2  1  0  0  0  0
 27  1  1  0  0  0  0
 28 17  1  0  0  0  0
 29 28  1  0  0  0  0
 30 34  1  0  0  0  0
 31 32  1  0  0  0  0
 32 29  1  0  0  0  0
 33 30  1  0  0  0  0
 33 31  1  0  0  0  0
 34 32  1  0  0  0  0
M  END
>  <MODEL>
7

>  <REMARK>
 VINA RESULT:      -8.4      2.810      8.762
  Name = 
  3 active torsions:
  status: ('A' for Active; 'I' for Inactive)
    1  A    between atoms: C_17  and  O_28
    2  A    between atoms: O_28  and  C_29
    3  A    between atoms: C_29  and  C_32
                            x       y       z     vdW  Elec       q    Type
                         _______ _______ _______ _____ _____    ______ ____

>  <TORSDO>
F 3

$$$$
=
 OpenBabel11122412223D

 34 40  0  0  1  0  0  0  0  0999 V2000
  184.3570  178.8370  143.9560 C   0  0  1  0  0  3  0  0  0  0  0  0
  185.9870  178.3950  145.6780 C   0  0  0  0  0  2  0  0  0  0  0  0
  182.2170  177.3430  137.8520 C   0  0  0  0  0  0  0  0  0  0  0  0
  182.7560  178.8640  141.9890 C   0  0  0  0  0  0  0  0  0  0  0  0
  183.5330  178.3180  139.7450 C   0  0  0  0  0  0  0  0  0  0  0  0
  184.6520  177.8380  137.5040 C   0  0  0  0  0  1  0  0  0  0  0  0
  182.3930  176.1770  137.4070 O   0  0  0  0  0  0  0  0  0  0  0  0
  180.7020  179.0950  138.7360 C   0  0  0  0  0  2  0  0  0  0  0  0
  186.6150  178.4330  143.4980 C   0  0  2  0  0  3  0  0  0  0  0  0
  189.2400  176.8850  142.4720 C   0  0  0  0  0  3  0  0  0  0  0  0
  184.7690  178.0820  140.2690 N   0  0  0  0  0  0  0  0  0  0  0  0
  181.0170  178.8960  140.2120 C   0  0  0  0  0  2  0  0  0  0  0  0
  186.4260  177.8370  142.1040 C   0  0  1  0  0  3  0  0  0  0  0  0
  187.4820  178.1100  145.6910 C   0  0  0  0  0  2  0  0  0  0  0  0
  182.4730  178.7230  140.6150 C   0  0  0  0  0  0  0  0  0  0  0  0
  180.8970  177.8430  138.0270 N   0  0  0  0  0  2  0  0  0  0  0  0
  188.5070  176.7810  143.7880 C   0  0  2  0  0  3  0  0  0  0  0  0
  184.0480  178.6250  142.4780 C   0  0  0  0  0  0  0  0  0  0  0  0
  183.3710  178.2120  138.2450 C   0  0  1  0  0  3  0  0  0  0  0  0
  185.0620  178.2310  141.5850 C   0  0  0  0  0  0  0  0  0  0  0  0
  181.9670  179.3830  144.3440 C   0  0  0  0  0  2  0  0  0  0  0  0
  188.8100  177.5080  141.3570 C   0  0  0  0  0  3  0  0  0  0  0  0
  181.7050  179.1700  142.9210 N   0  0  0  0  0  2  0  0  0  0  0  0
  187.5490  178.3190  141.2010 C   0  0  0  0  0  2  0  0  0  0  0  0
  187.9150  178.1270  144.2300 C   0  0  1  0  0  3  0  0  0  0  0  0
  183.1260  178.5060  144.8020 C   0  0  0  0  0  2  0  0  0  0  0  0
  185.5130  178.0260  144.3540 N   0  0  2  0  0  0  0  0  0  0  0  0
  189.3900  176.2850  144.7540 O   0  0  0  0  0  0  0  0  0  0  0  0
  190.6590  176.4420  144.1920 C   0  0  0  0  0  2  0  0  0  0  0  0
  191.5850  176.8880  147.6770 N   0  0  0  0  0  2  0  0  0  0  0  0
  191.9730  175.2690  145.9440 C   0  0  0  0  0  2  0  0  0  0  0  0
  191.6950  176.5920  145.2900 C   0  0  2  0  0  3  0  0  0  0  0  0
  192.2600  175.6300  147.3810 C   0  0  0  0  0  2  0  0  0  0  0  0
  191.1490  177.4530  146.4040 C   0  0  0  0  0  2  0  0  0  0  0  0
  1 27  1  0  0  0  0
  1 26  1  1  0  0  0
  2 14  1  0  0  0  0
  3 16  1  0  0  0  0
  3 19  1  0  0  0  0
  4 18  1  0  0  0  0
  4 23  1  0  0  0  0
  5 11  2  0  0  0  0
  5 15  1  0  0  0  0
  6 19  1  0  0  0  0
  7  3  2  0  0  0  0
  8 12  1  0  0  0  0
  9 25  1  0  0  0  0
  9 27  1  0  0  0  0
 10 17  1  0  0  0  0
 11 20  1  0  0  0  0
 12 15  1  0  0  0  0
 13  9  1  0  0  0  0
 15  4  2  0  0  0  0
 16  8  1  0  0  0  0
 17 25  1  0  0  0  0
 17 28  1  0  0  0  0
 18  1  1  0  0  0  0
 19  5  1  0  0  0  0
 20 13  1  0  0  0  0
 20 18  2  0  0  0  0
 21 26  1  0  0  0  0
 22 10  2  0  0  0  0
 23 21  1  0  0  0  0
 24 22  1  0  0  0  0
 24 13  1  0  0  0  0
 25 14  1  0  0  0  0
 27  2  1  0  0  0  0
 29 28  1  0  0  0  0
 29 32  1  0  0  0  0
 31 33  1  0  0  0  0
 32 31  1  0  0  0  0
 32 34  1  0  0  0  0
 33 30  1  0  0  0  0
 34 30  1  0  0  0  0
M  END
>  <MODEL>
8

>  <REMARK>
 VINA RESULT:      -8.1      1.334      1.934
  Name = 
  3 active torsions:
  status: ('A' for Active; 'I' for Inactive)
    1  A    between atoms: C_17  and  O_28
    2  A    between atoms: O_28  and  C_29
    3  A    between atoms: C_29  and  C_32
                            x       y       z     vdW  Elec       q    Type
                         _______ _______ _______ _____ _____    ______ ____

>  <TORSDO>
F 3

$$$$
=
 OpenBabel11122412223D

 34 40  0  0  1  0  0  0  0  0999 V2000
  190.0820  177.3290  141.0880 C   0  0  1  0  0  3  0  0  0  0  0  0
  191.9120  176.3780  139.8360 C   0  0  0  0  0  2  0  0  0  0  0  0
  183.5420  178.4360  141.3450 C   0  0  0  0  0  0  0  0  0  0  0  0
  187.8880  178.0220  142.1550 C   0  0  0  0  0  0  0  0  0  0  0  0
  185.9730  178.6290  140.7770 C   0  0  0  0  0  0  0  0  0  0  0  0
  184.1910  179.3350  139.0940 C   0  0  0  0  0  1  0  0  0  0  0  0
  182.7580  177.6200  140.7900 O   0  0  0  0  0  0  0  0  0  0  0  0
  184.5170  179.4090  143.4050 C   0  0  0  0  0  2  0  0  0  0  0  0
  190.2320  177.4560  138.7570 C   0  0  2  0  0  3  0  0  0  0  0  0
  189.5580  176.8650  135.6690 C   0  0  0  0  0  3  0  0  0  0  0  0
  186.7200  178.3420  139.6740 N   0  0  0  0  0  0  0  0  0  0  0  0
  185.8180  178.6190  143.3960 C   0  0  0  0  0  2  0  0  0  0  0  0
  188.7330  177.5200  138.4710 C   0  0  1  0  0  3  0  0  0  0  0  0
  192.2780  176.3070  138.3600 C   0  0  0  0  0  2  0  0  0  0  0  0
  186.5540  178.4700  142.0730 C   0  0  0  0  0  0  0  0  0  0  0  0
  183.4760  178.6360  142.7510 N   0  0  0  0  0  2  0  0  0  0  0  0
  190.4310  176.0980  136.6330 C   0  0  2  0  0  3  0  0  0  0  0  0
  188.6220  177.7560  140.9910 C   0  0  0  0  0  0  0  0  0  0  0  0
  184.5800  179.1780  140.5620 C   0  0  1  0  0  3  0  0  0  0  0  0
  188.0110  177.9290  139.7350 C   0  0  0  0  0  0  0  0  0  0  0  0
  189.8860  177.3410  143.5630 C   0  0  0  0  0  2  0  0  0  0  0  0
  188.7000  177.8580  135.9740 C   0  0  0  0  0  3  0  0  0  0  0  0
  188.4880  177.7490  143.4320 N   0  0  0  0  0  2  0  0  0  0  0  0
  188.4860  178.4890  137.3260 C   0  0  0  0  0  2  0  0  0  0  0  0
  191.1530  177.0230  137.6250 C   0  0  1  0  0  3  0  0  0  0  0  0
  190.3050  176.5060  142.3580 C   0  0  0  0  0  2  0  0  0  0  0  0
  190.4730  176.5780  139.8890 N   0  0  2  0  0  0  0  0  0  0  0  0
  191.3510  175.3410  135.9000 O   0  0  0  0  0  0  0  0  0  0  0  0
  191.9340  176.2490  135.0130 C   0  0  0  0  0  2  0  0  0  0  0  0
  195.4300  175.9620  135.9620 N   0  0  0  0  0  2  0  0  0  0  0  0
  193.6590  174.4820  135.2910 C   0  0  0  0  0  2  0  0  0  0  0  0
  193.3680  175.8420  134.7250 C   0  0  2  0  0  3  0  0  0  0  0  0
  195.1100  174.5640  135.6970 C   0  0  0  0  0  2  0  0  0  0  0  0
  194.3230  176.7620  135.4480 C   0  0  0  0  0  2  0  0  0  0  0  0
  1 26  1  1  0  0  0
  2 27  1  0  0  0  0
  3 16  1  0  0  0  0
  4 23  1  0  0  0  0
  5 15  2  0  0  0  0
  6 19  1  0  0  0  0
  7  3  2  0  0  0  0
  9 27  1  0  0  0  0
 10 22  2  0  0  0  0
 10 17  1  0  0  0  0
 11 20  2  0  0  0  0
 11  5  1  0  0  0  0
 12  8  1  0  0  0  0
 13  9  1  0  0  0  0
 13 20  1  0  0  0  0
 14  2  1  0  0  0  0
 15  4  1  0  0  0  0
 15 12  1  0  0  0  0
 16  8  1  0  0  0  0
 17 25  1  0  0  0  0
 18  1  1  0  0  0  0
 18  4  2  0  0  0  0
 19  5  1  0  0  0  0
 19  3  1  0  0  0  0
 20 18  1  0  0  0  0
 22 24  1  0  0  0  0
 23 21  1  0  0  0  0
 24 13  1  0  0  0  0
 25 14  1  0  0  0  0
 25  9  1  0  0  0  0
 26 21  1  0  0  0  0
 27  1  1  0  0  0  0
 28 17  1  0  0  0  0
 29 28  1  0  0  0  0
 31 33  1  0  0  0  0
 32 29  1  0  0  0  0
 32 31  1  0  0  0  0
 32 34  1  0  0  0  0
 33 30  1  0  0  0  0
 34 30  1  0  0  0  0
M  END
>  <MODEL>
9

>  <REMARK>
 VINA RESULT:      -8.0      5.563      8.261
  Name = 
  3 active torsions:
  status: ('A' for Active; 'I' for Inactive)
    1  A    between atoms: C_17  and  O_28
    2  A    between atoms: O_28  and  C_29
    3  A    between atoms: C_29  and  C_32
                            x       y       z     vdW  Elec       q    Type
                         _______ _______ _______ _____ _____    ______ ____

>  <TORSDO>
F 3

$$$$
