=
 OpenBabel11122412013D

 28 32  0  0  1  0  0  0  0  0999 V2000
  181.9790  176.6960  137.2710 C   0  0  2  0  0  3  0  0  0  0  0  0
  185.1160  173.1520  137.9160 O   0  0  0  0  0  1  0  0  0  0  0  0
  187.4200  179.4140  136.7750 O   0  0  0  0  0  0  0  0  0  0  0  0
  182.2620  177.8960  134.5940 C   0  0  0  0  0  2  0  0  0  0  0  0
  187.6270  177.0750  136.6900 N   0  0  0  0  0  0  0  0  0  0  0  0
  182.0300  176.8710  139.0950 S   0  0  0  0  0  0  0  0  0  0  0  0
  183.1020  173.1290  136.6660 C   0  0  0  0  0  1  0  0  0  0  0  0
  184.6010  173.3660  136.6340 C   0  0  1  0  0  0  0  0  0  0  0  0
  186.4990  172.8110  134.9700 C   0  0  2  0  0  3  0  0  0  0  0  0
  184.8890  174.8130  136.1760 C   0  0  2  0  0  3  0  0  0  0  0  0
  184.5060  178.8040  141.2980 C   0  0  0  0  0  1  0  0  0  0  0  0
  185.6180  176.4930  137.8300 C   0  0  1  0  0  3  0  0  0  0  0  0
  187.2430  173.8510  135.7960 C   0  0  0  0  0  2  0  0  0  0  0  0
  185.2200  172.3390  135.6730 C   0  0  0  0  0  2  0  0  0  0  0  0
  184.4050  178.2590  139.8880 C   0  0  2  0  0  3  0  0  0  0  0  0
  183.3590  176.8640  136.6140 C   0  0  2  0  0  3  0  0  0  0  0  0
  186.9650  178.2710  137.0420 C   0  0  0  0  0  0  0  0  0  0  0  0
  187.3300  171.7170  134.7310 O   0  0  0  0  0  1  0  0  0  0  0  0
  185.6340  178.6850  139.0910 C   0  0  0  0  0  2  0  0  0  0  0  0
  183.2680  176.8630  135.0800 C   0  0  0  0  0  2  0  0  0  0  0  0
  180.9580  177.6840  136.7020 C   0  0  0  0  0  2  0  0  0  0  0  0
  180.8920  177.5930  135.1840 C   0  0  0  0  0  2  0  0  0  0  0  0
  182.8620  178.8450  139.1230 S   0  0  0  0  0  0  0  0  0  0  0  0
  186.8660  175.9240  137.1400 C   0  0  1  0  0  3  0  0  0  0  0  0
  185.6710  178.0320  137.7130 C   0  0  2  0  0  3  0  0  0  0  0  0
  186.3830  175.1060  135.9550 C   0  0  2  0  0  3  0  0  0  0  0  0
  188.9600  177.0030  136.1170 C   0  0  0  0  0  1  0  0  0  0  0  0
  184.3860  175.8520  137.1770 C   0  0  1  0  0  3  0  0  0  0  0  0
  1 21  1  6  0  0  0
  1  6  1  0  0  0  0
  3 17  2  0  0  0  0
  4 20  1  0  0  0  0
  4 22  1  0  0  0  0
  5 17  1  0  0  0  0
  5 24  1  0  0  0  0
  6 23  1  0  0  0  0
  8  7  1  1  0  0  0
  8  2  1  0  0  0  0
  9 18  1  1  0  0  0
  9 14  1  0  0  0  0
  9 13  1  0  0  0  0
 10  8  1  0  0  0  0
 10 28  1  0  0  0  0
 13 26  1  0  0  0  0
 14  8  1  0  0  0  0
 15 11  1  0  0  0  0
 16 28  1  0  0  0  0
 16  1  1  0  0  0  0
 17 25  1  0  0  0  0
 19 15  1  0  0  0  0
 20 16  1  0  0  0  0
 22 21  1  0  0  0  0
 23 15  1  0  0  0  0
 24 12  1  0  0  0  0
 25 12  1  0  0  0  0
 25 19  1  0  0  0  0
 26 10  1  0  0  0  0
 26 24  1  0  0  0  0
 27  5  1  0  0  0  0
 28 12  1  0  0  0  0
M  END
>  <MODEL>
1

>  <REMARK>
 VINA RESULT:      -4.9      0.000      0.000
  Name = 
  0 active torsions:
  status: ('A' for Active; 'I' for Inactive)
                            x       y       z     vdW  Elec       q    Type
                         _______ _______ _______ _____ _____    ______ ____

>  <TORSDO>
F 0

$$$$
=
 OpenBabel11122412013D

 28 32  0  0  1  0  0  0  0  0999 V2000
  189.1770  173.9860  135.2960 C   0  0  2  0  0  3  0  0  0  0  0  0
  187.1240  178.2920  135.5210 O   0  0  0  0  0  1  0  0  0  0  0  0
  190.5560  176.0040  140.8880 O   0  0  0  0  0  0  0  0  0  0  0  0
  188.0590  172.1640  137.3260 C   0  0  0  0  0  2  0  0  0  0  0  0
  188.8760  177.3170  139.8990 N   0  0  0  0  0  0  0  0  0  0  0  0
  190.6170  174.8760  134.5940 S   0  0  0  0  0  0  0  0  0  0  0  0
  186.2530  176.2900  134.5980 C   0  0  0  0  0  1  0  0  0  0  0  0
  186.3560  177.1660  135.8330 C   0  0  1  0  0  0  0  0  0  0  0  0
  184.7210  177.8800  137.7040 C   0  0  2  0  0  3  0  0  0  0  0  0
  187.0130  176.3720  136.9820 C   0  0  2  0  0  3  0  0  0  0  0  0
  193.4830  176.6910  136.3850 C   0  0  0  0  0  1  0  0  0  0  0  0
  189.3510  176.8490  137.6130 C   0  0  1  0  0  3  0  0  0  0  0  0
  186.0170  178.2710  138.3990 C   0  0  0  0  0  2  0  0  0  0  0  0
  184.9360  177.6230  136.2070 C   0  0  0  0  0  2  0  0  0  0  0  0
  192.0890  176.1750  136.6770 C   0  0  2  0  0  3  0  0  0  0  0  0
  188.7830  174.4930  136.6940 C   0  0  2  0  0  3  0  0  0  0  0  0
  189.9720  176.4290  139.8560 C   0  0  0  0  0  0  0  0  0  0  0  0
  183.7730  178.8890  137.8710 O   0  0  0  0  0  1  0  0  0  0  0  0
  191.7740  176.3730  138.1560 C   0  0  0  0  0  2  0  0  0  0  0  0
  187.6740  173.6360  137.3230 C   0  0  0  0  0  2  0  0  0  0  0  0
  189.4720  172.4840  135.3030 C   0  0  0  0  0  2  0  0  0  0  0  0
  188.3110  171.6990  135.8990 C   0  0  0  0  0  2  0  0  0  0  0  0
  191.9780  174.4270  136.1860 S   0  0  0  0  0  0  0  0  0  0  0  0
  188.4280  177.6340  138.5560 C   0  0  1  0  0  3  0  0  0  0  0  0
  190.3260  176.0240  138.4810 C   0  0  2  0  0  3  0  0  0  0  0  0
  187.0180  177.1180  138.3270 C   0  0  2  0  0  3  0  0  0  0  0  0
  188.3790  177.9620  141.1030 C   0  0  0  0  0  1  0  0  0  0  0  0
  188.4680  176.0080  136.6820 C   0  0  1  0  0  3  0  0  0  0  0  0
  1 21  1  1  0  0  0
  1 16  1  0  0  0  0
  2  8  1  0  0  0  0
  5 27  1  0  0  0  0
  6  1  1  0  0  0  0
  6 23  1  0  0  0  0
  8  7  1  6  0  0  0
  8 14  1  0  0  0  0
  8 10  1  0  0  0  0
  9 18  1  6  0  0  0
  9 13  1  0  0  0  0
 10 26  1  0  0  0  0
 11 15  1  0  0  0  0
 12 25  1  0  0  0  0
 12 24  1  0  0  0  0
 14  9  1  0  0  0  0
 15 19  1  0  0  0  0
 16 20  1  0  0  0  0
 17  5  1  0  0  0  0
 17  3  2  0  0  0  0
 19 25  1  0  0  0  0
 20  4  1  0  0  0  0
 21 22  1  0  0  0  0
 22  4  1  0  0  0  0
 23 15  1  0  0  0  0
 24  5  1  0  0  0  0
 25 17  1  0  0  0  0
 26 13  1  0  0  0  0
 26 24  1  0  0  0  0
 28 16  1  0  0  0  0
 28 10  1  0  0  0  0
 28 12  1  0  0  0  0
M  END
>  <MODEL>
2

>  <REMARK>
 VINA RESULT:      -4.8      3.942      6.705
  Name = 
  0 active torsions:
  status: ('A' for Active; 'I' for Inactive)
                            x       y       z     vdW  Elec       q    Type
                         _______ _______ _______ _____ _____    ______ ____

>  <TORSDO>
F 0

$$$$
=
 OpenBabel11122412013D

 28 32  0  0  1  0  0  0  0  0999 V2000
  180.6410  177.0310  136.0330 C   0  0  2  0  0  3  0  0  0  0  0  0
  185.0860  175.7480  137.2190 O   0  0  0  0  0  1  0  0  0  0  0  0
  181.2280  178.8710  141.8230 O   0  0  0  0  0  0  0  0  0  0  0  0
  180.2950  179.9540  136.1990 C   0  0  0  0  0  2  0  0  0  0  0  0
  183.3120  178.3080  140.8930 N   0  0  0  0  0  0  0  0  0  0  0  0
  180.1680  175.3500  136.5900 S   0  0  0  0  0  0  0  0  0  0  0  0
  184.3210  176.7120  135.1940 C   0  0  0  0  0  1  0  0  0  0  0  0
  184.8910  176.9740  136.5760 C   0  0  1  0  0  0  0  0  0  0  0  0
  186.6450  178.6060  137.5450 C   0  0  2  0  0  3  0  0  0  0  0  0
  183.9140  177.8540  137.3850 C   0  0  2  0  0  3  0  0  0  0  0  0
  179.3820  174.0740  140.1220 C   0  0  0  0  0  1  0  0  0  0  0  0
  182.5560  176.8380  139.1790 C   0  0  1  0  0  3  0  0  0  0  0  0
  185.9920  178.1980  138.8580 C   0  0  0  0  0  2  0  0  0  0  0  0
  186.2540  177.6630  136.4000 C   0  0  0  0  0  2  0  0  0  0  0  0
  180.0610  175.2490  139.4490 C   0  0  2  0  0  3  0  0  0  0  0  0
  181.3290  177.8560  137.1350 C   0  0  2  0  0  3  0  0  0  0  0  0
  181.9040  178.2420  140.9660 C   0  0  0  0  0  0  0  0  0  0  0  0
  188.0320  178.6130  137.6900 O   0  0  0  0  0  1  0  0  0  0  0  0
  180.4830  176.2640  140.5070 C   0  0  0  0  0  2  0  0  0  0  0  0
  181.5800  179.3060  136.6930 C   0  0  0  0  0  2  0  0  0  0  0  0
  179.4010  177.7440  135.4860 C   0  0  0  0  0  2  0  0  0  0  0  0
  179.7380  179.1560  135.0280 C   0  0  0  0  0  2  0  0  0  0  0  0
  178.9310  175.9770  138.2220 S   0  0  0  0  0  0  0  0  0  0  0  0
  183.8030  177.4680  139.8160 C   0  0  1  0  0  3  0  0  0  0  0  0
  181.3160  177.3930  139.9100 C   0  0  2  0  0  3  0  0  0  0  0  0
  184.4720  178.3100  138.7440 C   0  0  2  0  0  3  0  0  0  0  0  0
  184.1620  178.9780  141.8620 C   0  0  0  0  0  1  0  0  0  0  0  0
  182.5920  177.1420  137.6750 C   0  0  1  0  0  3  0  0  0  0  0  0
  1 21  1  1  0  0  0
  1  6  1  0  0  0  0
  1 16  1  0  0  0  0
  4 20  1  0  0  0  0
  5 17  1  0  0  0  0
  5 27  1  0  0  0  0
  6 23  1  0  0  0  0
  8  7  1  6  0  0  0
  8  2  1  0  0  0  0
  8 10  1  0  0  0  0
  9 18  1  1  0  0  0
  9 13  1  0  0  0  0
 10 28  1  0  0  0  0
 10 26  1  0  0  0  0
 12 24  1  0  0  0  0
 12 25  1  0  0  0  0
 14  8  1  0  0  0  0
 14  9  1  0  0  0  0
 15 11  1  0  0  0  0
 15 19  1  0  0  0  0
 16 28  1  0  0  0  0
 17  3  2  0  0  0  0
 20 16  1  0  0  0  0
 22 21  1  0  0  0  0
 22  4  1  0  0  0  0
 23 15  1  0  0  0  0
 24  5  1  0  0  0  0
 25 19  1  0  0  0  0
 25 17  1  0  0  0  0
 26 13  1  0  0  0  0
 26 24  1  0  0  0  0
 28 12  1  0  0  0  0
M  END
>  <MODEL>
3

>  <REMARK>
 VINA RESULT:      -4.7      2.908      4.918
  Name = 
  0 active torsions:
  status: ('A' for Active; 'I' for Inactive)
                            x       y       z     vdW  Elec       q    Type
                         _______ _______ _______ _____ _____    ______ ____

>  <TORSDO>
F 0

$$$$
=
 OpenBabel11122412013D

 28 32  0  0  1  0  0  0  0  0999 V2000
  179.7680  178.5260  137.9560 C   0  0  2  0  0  3  0  0  0  0  0  0
  181.1740  173.9620  137.9580 O   0  0  0  0  0  1  0  0  0  0  0  0
  185.8610  178.8450  138.0900 O   0  0  0  0  0  0  0  0  0  0  0  0
  180.7530  179.9450  135.5660 C   0  0  0  0  0  2  0  0  0  0  0  0
  185.1340  176.6740  137.5570 N   0  0  0  0  0  0  0  0  0  0  0  0
  179.7130  178.3530  139.7800 S   0  0  0  0  0  0  0  0  0  0  0  0
  179.4420  174.9700  136.6920 C   0  0  0  0  0  1  0  0  0  0  0  0
  180.9090  174.5810  136.7330 C   0  0  1  0  0  0  0  0  0  0  0  0
  182.5810  173.5940  135.0260 C   0  0  2  0  0  3  0  0  0  0  0  0
  181.7870  175.8400  136.5680 C   0  0  2  0  0  3  0  0  0  0  0  0
  182.5320  178.7110  142.3570 C   0  0  0  0  0  1  0  0  0  0  0  0
  182.9620  176.7730  138.5280 C   0  0  1  0  0  3  0  0  0  0  0  0
  183.5940  174.0870  136.0500 C   0  0  0  0  0  2  0  0  0  0  0  0
  181.1590  173.5700  135.6020 C   0  0  0  0  0  2  0  0  0  0  0  0
  182.3570  178.5010  140.8680 C   0  0  2  0  0  3  0  0  0  0  0  0
  181.1580  178.2290  137.3670 C   0  0  2  0  0  3  0  0  0  0  0  0
  184.9680  177.9570  138.1220 C   0  0  0  0  0  0  0  0  0  0  0  0
  182.9310  172.3160  134.5940 O   0  0  0  0  0  1  0  0  0  0  0  0
  183.7230  178.5210  140.1890 C   0  0  0  0  0  2  0  0  0  0  0  0
  181.2190  178.5260  135.8610 C   0  0  0  0  0  2  0  0  0  0  0  0
  179.2790  179.9250  137.5710 C   0  0  0  0  0  2  0  0  0  0  0  0
  179.3260  180.1270  136.0630 C   0  0  0  0  0  2  0  0  0  0  0  0
  181.2500  179.7840  140.2040 S   0  0  0  0  0  0  0  0  0  0  0  0
  183.9410  175.8730  137.7630 C   0  0  1  0  0  3  0  0  0  0  0  0
  183.6290  178.1530  138.7120 C   0  0  2  0  0  3  0  0  0  0  0  0
  183.2890  175.5350  136.4340 C   0  0  2  0  0  3  0  0  0  0  0  0
  186.3780  176.1660  137.0040 C   0  0  0  0  0  1  0  0  0  0  0  0
  181.6440  176.8090  137.7420 C   0  0  1  0  0  3  0  0  0  0  0  0
  1 21  1  1  0  0  0
  1  6  1  0  0  0  0
  3 17  2  0  0  0  0
  4 20  1  0  0  0  0
  4 22  1  0  0  0  0
  5 24  1  0  0  0  0
  5 17  1  0  0  0  0
  6 23  1  0  0  0  0
  8  7  1  6  0  0  0
  8  2  1  0  0  0  0
  9 18  1  1  0  0  0
  9 14  1  0  0  0  0
  9 13  1  0  0  0  0
 10  8  1  0  0  0  0
 10 28  1  0  0  0  0
 12 25  1  0  0  0  0
 13 26  1  0  0  0  0
 14  8  1  0  0  0  0
 15 11  1  0  0  0  0
 16 28  1  0  0  0  0
 16  1  1  0  0  0  0
 17 25  1  0  0  0  0
 19 15  1  0  0  0  0
 20 16  1  0  0  0  0
 22 21  1  0  0  0  0
 23 15  1  0  0  0  0
 24 12  1  0  0  0  0
 25 19  1  0  0  0  0
 26 10  1  0  0  0  0
 26 24  1  0  0  0  0
 27  5  1  0  0  0  0
 28 12  1  0  0  0  0
M  END
>  <MODEL>
4

>  <REMARK>
 VINA RESULT:      -4.5      2.168      3.097
  Name = 
  0 active torsions:
  status: ('A' for Active; 'I' for Inactive)
                            x       y       z     vdW  Elec       q    Type
                         _______ _______ _______ _____ _____    ______ ____

>  <TORSDO>
F 0

$$$$
=
 OpenBabel11122412013D

 28 32  0  0  1  0  0  0  0  0999 V2000
  180.8320  179.1320  137.8600 C   0  0  2  0  0  3  0  0  0  0  0  0
  180.8350  174.4180  138.6290 O   0  0  0  0  0  1  0  0  0  0  0  0
  186.2220  177.2710  135.6840 O   0  0  0  0  0  0  0  0  0  0  0  0
  181.0190  179.7430  134.9820 C   0  0  0  0  0  2  0  0  0  0  0  0
  184.7890  175.4500  136.0810 N   0  0  0  0  0  0  0  0  0  0  0  0
  181.5300  179.2560  139.5500 S   0  0  0  0  0  0  0  0  0  0  0  0
  179.0610  175.7840  137.8480 C   0  0  0  0  0  1  0  0  0  0  0  0
  180.2390  174.9070  137.4630 C   0  0  1  0  0  0  0  0  0  0  0  0
  180.6770  173.1520  135.6160 C   0  0  2  0  0  3  0  0  0  0  0  0
  181.2570  175.7320  136.6460 C   0  0  2  0  0  3  0  0  0  0  0  0
  185.1700  178.9550  140.7220 C   0  0  0  0  0  1  0  0  0  0  0  0
  183.3660  176.4580  137.7030 C   0  0  1  0  0  3  0  0  0  0  0  0
  182.1240  173.3930  136.0220 C   0  0  0  0  0  2  0  0  0  0  0  0
  179.6960  173.7200  136.6500 C   0  0  0  0  0  2  0  0  0  0  0  0
  184.3180  178.6070  139.5190 C   0  0  2  0  0  3  0  0  0  0  0  0
  181.6950  178.2770  136.9160 C   0  0  2  0  0  3  0  0  0  0  0  0
  185.2320  176.7750  136.2850 C   0  0  0  0  0  0  0  0  0  0  0  0
  180.4520  171.7850  135.4630 O   0  0  0  0  0  1  0  0  0  0  0  0
  185.2050  178.0400  138.4160 C   0  0  0  0  0  2  0  0  0  0  0  0
  181.1720  178.3100  135.4720 C   0  0  0  0  0  2  0  0  0  0  0  0
  180.6140  180.5410  137.3030 C   0  0  0  0  0  2  0  0  0  0  0  0
  180.0540  180.4930  135.8890 C   0  0  0  0  0  2  0  0  0  0  0  0
  183.4160  180.0900  138.9710 S   0  0  0  0  0  0  0  0  0  0  0  0
  183.6390  175.1660  136.9200 C   0  0  1  0  0  3  0  0  0  0  0  0
  184.3860  177.5200  137.2390 C   0  0  2  0  0  3  0  0  0  0  0  0
  182.4110  174.8950  136.0690 C   0  0  2  0  0  3  0  0  0  0  0  0
  185.4860  174.4570  135.2810 C   0  0  0  0  0  1  0  0  0  0  0  0
  181.9000  176.8470  137.4710 C   0  0  1  0  0  3  0  0  0  0  0  0
  1 21  1  6  0  0  0
  1  6  1  0  0  0  0
  3 17  2  0  0  0  0
  4 20  1  0  0  0  0
  4 22  1  0  0  0  0
  5 17  1  0  0  0  0
  5 24  1  0  0  0  0
  8  7  1  1  0  0  0
  8  2  1  0  0  0  0
  9 18  1  1  0  0  0
  9 13  1  0  0  0  0
  9 14  1  0  0  0  0
 10  8  1  0  0  0  0
 10 28  1  0  0  0  0
 13 26  1  0  0  0  0
 14  8  1  0  0  0  0
 15 11  1  0  0  0  0
 16 28  1  0  0  0  0
 16  1  1  0  0  0  0
 17 25  1  0  0  0  0
 19 15  1  0  0  0  0
 20 16  1  0  0  0  0
 22 21  1  0  0  0  0
 23 15  1  0  0  0  0
 23  6  1  0  0  0  0
 24 12  1  0  0  0  0
 25 12  1  0  0  0  0
 25 19  1  0  0  0  0
 26 10  1  0  0  0  0
 26 24  1  0  0  0  0
 27  5  1  0  0  0  0
 28 12  1  0  0  0  0
M  END
>  <MODEL>
5

>  <REMARK>
 VINA RESULT:      -4.5      2.321      3.591
  Name = 
  0 active torsions:
  status: ('A' for Active; 'I' for Inactive)
                            x       y       z     vdW  Elec       q    Type
                         _______ _______ _______ _____ _____    ______ ____

>  <TORSDO>
F 0

$$$$
=
 OpenBabel11122412013D

 28 32  0  0  1  0  0  0  0  0999 V2000
  180.2470  179.0110  142.2970 C   0  0  2  0  0  3  0  0  0  0  0  0
  180.9740  174.7300  140.3060 O   0  0  0  0  0  1  0  0  0  0  0  0
  185.3070  179.7570  138.9670 O   0  0  0  0  0  0  0  0  0  0  0  0
  179.8030  181.0800  140.2440 C   0  0  0  0  0  2  0  0  0  0  0  0
  184.2110  177.7530  138.4130 N   0  0  0  0  0  0  0  0  0  0  0  0
  181.2350  178.3600  143.6970 S   0  0  0  0  0  0  0  0  0  0  0  0
  178.9300  175.8980  140.5850 C   0  0  0  0  0  1  0  0  0  0  0  0
  180.1110  175.6270  139.6700 C   0  0  1  0  0  0  0  0  0  0  0  0
  180.3990  175.2580  137.1280 C   0  0  2  0  0  3  0  0  0  0  0  0
  180.8450  176.9500  139.3610 C   0  0  2  0  0  3  0  0  0  0  0  0
  185.0420  178.2460  144.1600 C   0  0  0  0  0  1  0  0  0  0  0  0
  183.0120  177.4230  140.4440 C   0  0  1  0  0  3  0  0  0  0  0  0
  181.8560  175.5410  137.4640 C   0  0  0  0  0  2  0  0  0  0  0  0
  179.5720  174.9720  138.3880 C   0  0  0  0  0  2  0  0  0  0  0  0
  184.0240  178.4220  143.0530 C   0  0  2  0  0  3  0  0  0  0  0  0
  181.0120  178.9880  140.9620 C   0  0  2  0  0  3  0  0  0  0  0  0
  184.5190  178.8250  139.2780 C   0  0  0  0  0  0  0  0  0  0  0  0
  180.3180  174.1690  136.2610 O   0  0  0  0  0  1  0  0  0  0  0  0
  184.7460  178.7260  141.7440 C   0  0  0  0  0  2  0  0  0  0  0  0
  180.2220  179.6740  139.8370 C   0  0  0  0  0  2  0  0  0  0  0  0
  179.7560  180.4180  142.6430 C   0  0  0  0  0  2  0  0  0  0  0  0
  178.9460  181.0130  141.5000 C   0  0  0  0  0  2  0  0  0  0  0  0
  182.8590  179.7440  143.5090 S   0  0  0  0  0  0  0  0  0  0  0  0
  183.2870  176.8350  139.0530 C   0  0  1  0  0  3  0  0  0  0  0  0
  183.7860  178.7540  140.5590 C   0  0  2  0  0  3  0  0  0  0  0  0
  181.9610  176.8090  138.3130 C   0  0  2  0  0  3  0  0  0  0  0  0
  184.8590  177.5070  137.1350 C   0  0  0  0  0  1  0  0  0  0  0  0
  181.4930  177.5610  140.6050 C   0  0  1  0  0  3  0  0  0  0  0  0
  1 21  1  1  0  0  0
  1  6  1  0  0  0  0
  3 17  2  0  0  0  0
  4 22  1  0  0  0  0
  5 24  1  0  0  0  0
  5 17  1  0  0  0  0
  8  2  1  0  0  0  0
  8  7  1  1  0  0  0
  9 18  1  6  0  0  0
  9 13  1  0  0  0  0
  9 14  1  0  0  0  0
 10  8  1  0  0  0  0
 10 28  1  0  0  0  0
 12 25  1  0  0  0  0
 12 28  1  0  0  0  0
 13 26  1  0  0  0  0
 14  8  1  0  0  0  0
 15 23  1  0  0  0  0
 15 11  1  0  0  0  0
 16  1  1  0  0  0  0
 17 25  1  0  0  0  0
 19 15  1  0  0  0  0
 20  4  1  0  0  0  0
 20 16  1  0  0  0  0
 22 21  1  0  0  0  0
 23  6  1  0  0  0  0
 24 12  1  0  0  0  0
 25 19  1  0  0  0  0
 26 24  1  0  0  0  0
 26 10  1  0  0  0  0
 27  5  1  0  0  0  0
 28 16  1  0  0  0  0
M  END
>  <MODEL>
6

>  <REMARK>
 VINA RESULT:      -4.5      3.494      5.303
  Name = 
  0 active torsions:
  status: ('A' for Active; 'I' for Inactive)
                            x       y       z     vdW  Elec       q    Type
                         _______ _______ _______ _____ _____    ______ ____

>  <TORSDO>
F 0

$$$$
=
 OpenBabel11122412013D

 28 32  0  0  1  0  0  0  0  0999 V2000
  179.5490  180.0380  139.1510 C   0  0  2  0  0  3  0  0  0  0  0  0
  181.3670  175.9270  137.5360 O   0  0  0  0  0  1  0  0  0  0  0  0
  185.2050  179.9090  141.4390 O   0  0  0  0  0  0  0  0  0  0  0  0
  181.0870  182.3480  138.1570 C   0  0  0  0  0  2  0  0  0  0  0  0
  184.9260  178.2830  139.7660 N   0  0  0  0  0  0  0  0  0  0  0  0
  178.9310  179.0380  140.5570 S   0  0  0  0  0  0  0  0  0  0  0  0
  180.0330  177.5060  136.3750 C   0  0  0  0  0  1  0  0  0  0  0  0
  181.4420  177.0600  136.7200 C   0  0  1  0  0  0  0  0  0  0  0  0
  183.6700  176.8890  135.4190 C   0  0  2  0  0  3  0  0  0  0  0  0
  182.1850  178.1990  137.4520 C   0  0  2  0  0  3  0  0  0  0  0  0
  180.7180  177.9910  143.7860 C   0  0  0  0  0  1  0  0  0  0  0  0
  182.5610  178.0410  139.8870 C   0  0  1  0  0  3  0  0  0  0  0  0
  184.2410  176.7890  136.8270 C   0  0  0  0  0  2  0  0  0  0  0  0
  182.1500  176.6800  135.4090 C   0  0  0  0  0  2  0  0  0  0  0  0
  181.0540  178.5110  142.4040 C   0  0  2  0  0  3  0  0  0  0  0  0
  181.0770  179.9710  138.9940 C   0  0  2  0  0  3  0  0  0  0  0  0
  184.4500  179.1610  140.7630 C   0  0  0  0  0  0  0  0  0  0  0  0
  184.2760  175.9420  134.5960 O   0  0  0  0  0  1  0  0  0  0  0  0
  182.5550  178.7670  142.3090 C   0  0  0  0  0  2  0  0  0  0  0  0
  181.5850  180.9310  137.9070 C   0  0  0  0  0  2  0  0  0  0  0  0
  179.0600  181.4800  139.3100 C   0  0  0  0  0  2  0  0  0  0  0  0
  179.5650  182.3590  138.1740 C   0  0  0  0  0  2  0  0  0  0  0  0
  180.0860  180.0160  142.0730 S   0  0  0  0  0  0  0  0  0  0  0  0
  183.8250  177.5470  139.1710 C   0  0  1  0  0  3  0  0  0  0  0  0
  182.9790  179.1360  140.8920 C   0  0  2  0  0  3  0  0  0  0  0  0
  183.6740  177.9060  137.7040 C   0  0  2  0  0  3  0  0  0  0  0  0
  186.3300  178.0210  139.4930 C   0  0  0  0  0  1  0  0  0  0  0  0
  181.5690  178.5140  138.8160 C   0  0  1  0  0  3  0  0  0  0  0  0
  1 21  1  1  0  0  0
  1  6  1  0  0  0  0
  4 22  1  0  0  0  0
  5 17  1  0  0  0  0
  6 23  1  0  0  0  0
  8  7  1  6  0  0  0
  8 10  1  0  0  0  0
  8  2  1  0  0  0  0
  9 18  1  6  0  0  0
  9 13  1  0  0  0  0
 10 26  1  0  0  0  0
 10 28  1  0  0  0  0
 12 25  1  0  0  0  0
 13 26  1  0  0  0  0
 14  9  1  0  0  0  0
 14  8  1  0  0  0  0
 15 11  1  0  0  0  0
 16  1  1  0  0  0  0
 17 25  1  0  0  0  0
 17  3  2  0  0  0  0
 19 15  1  0  0  0  0
 20  4  1  0  0  0  0
 20 16  1  0  0  0  0
 22 21  1  0  0  0  0
 23 15  1  0  0  0  0
 24  5  1  0  0  0  0
 24 12  1  0  0  0  0
 25 19  1  0  0  0  0
 26 24  1  0  0  0  0
 27  5  1  0  0  0  0
 28 16  1  0  0  0  0
 28 12  1  0  0  0  0
M  END
>  <MODEL>
7

>  <REMARK>
 VINA RESULT:      -4.3      3.242      4.702
  Name = 
  0 active torsions:
  status: ('A' for Active; 'I' for Inactive)
                            x       y       z     vdW  Elec       q    Type
                         _______ _______ _______ _____ _____    ______ ____

>  <TORSDO>
F 0

$$$$
=
 OpenBabel11122412013D

 28 32  0  0  1  0  0  0  0  0999 V2000
  187.2950  177.0700  137.4200 C   0  0  2  0  0  3  0  0  0  0  0  0
  187.7890  172.3460  137.9190 O   0  0  0  0  0  1  0  0  0  0  0  0
  192.9420  175.9410  135.4000 O   0  0  0  0  0  0  0  0  0  0  0  0
  187.5310  177.8740  134.5940 C   0  0  0  0  0  2  0  0  0  0  0  0
  191.7050  173.9560  135.6240 N   0  0  0  0  0  0  0  0  0  0  0  0
  187.9050  177.1640  139.1460 S   0  0  0  0  0  0  0  0  0  0  0  0
  185.9080  173.5570  137.1340 C   0  0  0  0  0  1  0  0  0  0  0  0
  187.1910  172.8380  136.7560 C   0  0  1  0  0  0  0  0  0  0  0  0
  187.8960  171.2580  134.8340 C   0  0  2  0  0  3  0  0  0  0  0  0
  188.1440  173.8170  136.0360 C   0  0  2  0  0  3  0  0  0  0  0  0
  191.5060  177.1870  140.4700 C   0  0  0  0  0  1  0  0  0  0  0  0
  190.1140  174.7000  137.2320 C   0  0  1  0  0  3  0  0  0  0  0  0
  189.2890  171.6300  135.3220 C   0  0  0  0  0  2  0  0  0  0  0  0
  186.8170  171.6520  135.8510 C   0  0  0  0  0  2  0  0  0  0  0  0
  190.7470  176.8240  139.2100 C   0  0  2  0  0  3  0  0  0  0  0  0
  188.2850  176.3730  136.4720 C   0  0  2  0  0  3  0  0  0  0  0  0
  191.9900  175.3050  135.9240 C   0  0  0  0  0  0  0  0  0  0  0  0
  187.8310  169.8870  134.5940 O   0  0  0  0  0  1  0  0  0  0  0  0
  191.7360  176.4250  138.1200 C   0  0  0  0  0  2  0  0  0  0  0  0
  187.8220  176.4390  135.0090 C   0  0  0  0  0  2  0  0  0  0  0  0
  186.9450  178.4790  136.9360 C   0  0  0  0  0  2  0  0  0  0  0  0
  186.4520  178.4580  135.4960 C   0  0  0  0  0  2  0  0  0  0  0  0
  189.7090  178.2320  138.7050 S   0  0  0  0  0  0  0  0  0  0  0  0
  190.5610  173.4970  136.3900 C   0  0  1  0  0  3  0  0  0  0  0  0
  191.0280  175.8930  136.8780 C   0  0  2  0  0  3  0  0  0  0  0  0
  189.4070  173.1470  135.4680 C   0  0  2  0  0  3  0  0  0  0  0  0
  192.5410  173.0950  134.8030 C   0  0  0  0  0  1  0  0  0  0  0  0
  188.6250  174.9420  136.9540 C   0  0  1  0  0  3  0  0  0  0  0  0
  1 21  1  6  0  0  0
  1  6  1  0  0  0  0
  3 17  2  0  0  0  0
  4 20  1  0  0  0  0
  4 22  1  0  0  0  0
  5 17  1  0  0  0  0
  5 24  1  0  0  0  0
  8  7  1  1  0  0  0
  8  2  1  0  0  0  0
  9 18  1  1  0  0  0
  9 13  1  0  0  0  0
  9 14  1  0  0  0  0
 10  8  1  0  0  0  0
 10 28  1  0  0  0  0
 13 26  1  0  0  0  0
 14  8  1  0  0  0  0
 15 11  1  0  0  0  0
 16 28  1  0  0  0  0
 16  1  1  0  0  0  0
 17 25  1  0  0  0  0
 19 15  1  0  0  0  0
 20 16  1  0  0  0  0
 22 21  1  0  0  0  0
 23  6  1  0  0  0  0
 23 15  1  0  0  0  0
 24 12  1  0  0  0  0
 25 12  1  0  0  0  0
 25 19  1  0  0  0  0
 26 10  1  0  0  0  0
 26 24  1  0  0  0  0
 27  5  1  0  0  0  0
 28 12  1  0  0  0  0
M  END
>  <MODEL>
8

>  <REMARK>
 VINA RESULT:      -4.3      3.621      4.972
  Name = 
  0 active torsions:
  status: ('A' for Active; 'I' for Inactive)
                            x       y       z     vdW  Elec       q    Type
                         _______ _______ _______ _____ _____    ______ ____

>  <TORSDO>
F 0

$$$$
=
 OpenBabel11122412013D

 28 32  0  0  1  0  0  0  0  0999 V2000
  183.9260  175.4830  135.8660 C   0  0  2  0  0  3  0  0  0  0  0  0
  181.8300  179.2560  137.9100 O   0  0  0  0  0  1  0  0  0  0  0  0
  188.1100  177.5680  139.7900 O   0  0  0  0  0  0  0  0  0  0  0  0
  184.5580  173.4050  137.8590 C   0  0  0  0  0  2  0  0  0  0  0  0
  186.0060  178.5320  140.1970 N   0  0  0  0  0  0  0  0  0  0  0  0
  184.4900  176.6760  134.5940 S   0  0  0  0  0  0  0  0  0  0  0  0
  180.8830  177.1460  137.3890 C   0  0  0  0  0  1  0  0  0  0  0  0
  181.5870  177.9860  138.4400 C   0  0  1  0  0  0  0  0  0  0  0  0
  181.3470  178.2840  140.9970 C   0  0  2  0  0  3  0  0  0  0  0  0
  182.9160  177.3110  138.8420 C   0  0  2  0  0  3  0  0  0  0  0  0
  187.5480  178.9920  134.5960 C   0  0  0  0  0  1  0  0  0  0  0  0
  185.0520  178.2460  138.0340 C   0  0  1  0  0  3  0  0  0  0  0  0
  182.7230  178.9150  140.8410 C   0  0  0  0  0  2  0  0  0  0  0  0
  180.6410  178.1240  139.6440 C   0  0  0  0  0  2  0  0  0  0  0  0
  186.7150  178.1880  135.5720 C   0  0  2  0  0  3  0  0  0  0  0  0
  184.3950  175.8530  137.2840 C   0  0  2  0  0  3  0  0  0  0  0  0
  186.9640  177.8940  139.3810 C   0  0  0  0  0  0  0  0  0  0  0  0
  180.5620  179.0660  141.8420 O   0  0  0  0  0  1  0  0  0  0  0  0
  187.3420  178.2690  136.9600 C   0  0  0  0  0  2  0  0  0  0  0  0
  184.0400  174.7640  138.3080 C   0  0  0  0  0  2  0  0  0  0  0  0
  184.3810  174.0760  135.4700 C   0  0  0  0  0  2  0  0  0  0  0  0
  183.9540  173.0490  136.5090 C   0  0  0  0  0  2  0  0  0  0  0  0
  186.5860  176.4710  134.9840 S   0  0  0  0  0  0  0  0  0  0  0  0
  184.7920  178.7910  139.4450 C   0  0  1  0  0  3  0  0  0  0  0  0
  186.4610  177.6150  138.0200 C   0  0  2  0  0  3  0  0  0  0  0  0
  183.6300  177.9990  140.0180 C   0  0  2  0  0  3  0  0  0  0  0  0
  186.2560  179.0210  141.5430 C   0  0  0  0  0  1  0  0  0  0  0  0
  183.9200  177.2690  137.6900 C   0  0  1  0  0  3  0  0  0  0  0  0
  1 21  1  6  0  0  0
  1 16  1  0  0  0  0
  2  8  1  0  0  0  0
  4 20  1  0  0  0  0
  5 27  1  0  0  0  0
  6 23  1  0  0  0  0
  6  1  1  0  0  0  0
  8  7  1  6  0  0  0
  8 10  1  0  0  0  0
  8 14  1  0  0  0  0
  9 18  1  1  0  0  0
 10 26  1  0  0  0  0
 11 15  1  0  0  0  0
 12 24  1  0  0  0  0
 13  9  1  0  0  0  0
 14  9  1  0  0  0  0
 15 19  1  0  0  0  0
 16 28  1  0  0  0  0
 16 20  1  0  0  0  0
 17  3  2  0  0  0  0
 17  5  1  0  0  0  0
 19 25  1  0  0  0  0
 21 22  1  0  0  0  0
 22  4  1  0  0  0  0
 23 15  1  0  0  0  0
 24 26  1  0  0  0  0
 24  5  1  0  0  0  0
 25 12  1  0  0  0  0
 25 17  1  0  0  0  0
 26 13  1  0  0  0  0
 28 12  1  0  0  0  0
 28 10  1  0  0  0  0
M  END
>  <MODEL>
9

>  <REMARK>
 VINA RESULT:      -3.9      3.010      5.692
  Name = 
  0 active torsions:
  status: ('A' for Active; 'I' for Inactive)
                            x       y       z     vdW  Elec       q    Type
                         _______ _______ _______ _____ _____    ______ ____

>  <TORSDO>
F 0

$$$$
