=
 OpenBabel11122410213D

 30 35  0  0  1  0  0  0  0  0999 V2000
  185.1180  178.4860  141.3760 C   0  0  1  0  0  3  0  0  0  0  0  0
  186.9250  177.8300  143.0590 C   0  0  0  0  0  0  0  0  0  0  0  0
  182.3130  178.6590  144.6040 N   0  0  0  0  0  2  0  0  0  0  0  0
  183.6920  179.0520  141.2040 C   0  0  1  0  0  3  0  0  0  0  0  0
  186.0480  179.2480  140.5410 N   0  0  0  0  0  2  0  0  0  0  0  0
  184.1090  180.7210  138.7470 O   0  0  0  0  0  1  0  0  0  0  0  0
  181.0360  177.7410  140.1700 C   0  0  1  0  0  3  0  0  0  0  0  0
  184.2820  179.3350  138.7620 C   0  0  1  0  0  3  0  0  0  0  0  0
  180.3840  178.2990  141.4090 C   0  0  1  0  0  3  0  0  0  0  0  0
  181.1120  178.7740  143.8510 C   0  0  0  0  0  0  0  0  0  0  0  0
  185.7450  179.0090  139.1160 C   0  0  2  0  0  3  0  0  0  0  0  0
  183.3120  178.6780  139.7580 C   0  0  2  0  0  3  0  0  0  0  0  0
  187.3380  177.5550  144.3660 C   0  0  0  0  0  3  0  0  0  0  0  0
  179.5310  177.1470  141.8930 C   0  0  0  0  0  2  0  0  0  0  0  0
  179.9240  177.0060  139.4670 C   0  0  0  0  0  2  0  0  0  0  0  0
  187.8250  177.6320  142.0170 O   0  0  0  0  0  1  0  0  0  0  0  0
  183.3520  178.9400  143.6300 C   0  0  2  0  0  3  0  0  0  0  0  0
  186.4540  177.7110  145.4350 C   0  0  0  0  0  3  0  0  0  0  0  0
  185.6150  178.2870  142.8090 C   0  0  0  0  0  0  0  0  0  0  0  0
  182.8060  178.4640  142.3010 C   0  0  1  0  0  3  0  0  0  0  0  0
  179.9730  178.7920  144.3870 O   0  0  0  0  0  0  0  0  0  0  0  0
  181.3690  178.9570  142.3900 C   0  0  1  0  0  3  0  0  0  0  0  0
  179.0650  176.4600  140.6080 C   0  0  0  0  0  2  0  0  0  0  0  0
  181.2570  180.1500  139.3280 C   0  0  0  0  0  1  0  0  0  0  0  0
  185.1450  178.1310  145.2020 C   0  0  0  0  0  3  0  0  0  0  0  0
  184.7120  178.3850  143.8960 C   0  0  0  0  0  0  0  0  0  0  0  0
  181.8360  178.7370  139.3300 C   0  0  2  0  0  3  0  0  0  0  0  0
  186.1120  177.5900  138.6910 C   0  0  0  0  0  2  0  0  0  0  0  0
  187.7660  178.8750  137.5430 O   0  0  0  0  0  1  0  0  0  0  0  0
  187.4140  177.5740  137.9080 C   0  0  0  0  0  2  0  0  0  0  0  0
  1  5  1  1  0  0  0
  1 19  1  0  0  0  0
  2 13  1  0  0  0  0
  4  1  1  0  0  0  0
  4 20  1  0  0  0  0
  6  8  1  0  0  0  0
  7  9  1  0  0  0  0
  8 11  1  0  0  0  0
  8 12  1  0  0  0  0
  9 14  1  0  0  0  0
  9 22  1  0  0  0  0
 10 21  2  0  0  0  0
 10  3  1  0  0  0  0
 11  5  1  0  0  0  0
 12  4  1  0  0  0  0
 13 18  2  0  0  0  0
 15  7  1  0  0  0  0
 15 23  1  0  0  0  0
 16  2  1  0  0  0  0
 17 26  1  0  0  0  0
 17  3  1  0  0  0  0
 19  2  2  0  0  0  0
 19 26  1  0  0  0  0
 20 22  1  0  0  0  0
 20 17  1  0  0  0  0
 22 10  1  0  0  0  0
 23 14  1  0  0  0  0
 24 27  1  0  0  0  0
 25 18  1  0  0  0  0
 26 25  2  0  0  0  0
 27 12  1  0  0  0  0
 27  7  1  0  0  0  0
 28 11  1  0  0  0  0
 29 30  1  0  0  0  0
 30 28  1  0  0  0  0
M  END
>  <MODEL>
1

>  <REMARK>
 VINA RESULT:      -8.0      0.000      0.000
  Name = 
  2 active torsions:
  status: ('A' for Active; 'I' for Inactive)
    1  A    between atoms: C_11  and  C_28
    2  A    between atoms: C_28  and  C_30
                            x       y       z     vdW  Elec       q    Type
                         _______ _______ _______ _____ _____    ______ ____

>  <TORSDO>
F 2

$$$$
=
 OpenBabel11122410213D

 30 35  0  0  1  0  0  0  0  0999 V2000
  187.0330  178.1500  141.0810 C   0  0  1  0  0  3  0  0  0  0  0  0
  186.4260  178.1780  143.5630 C   0  0  0  0  0  0  0  0  0  0  0  0
  182.9240  178.9270  140.1680 N   0  0  0  0  0  2  0  0  0  0  0  0
  186.5520  178.4960  139.6550 C   0  0  1  0  0  3  0  0  0  0  0  0
  188.3530  178.7400  141.3060 N   0  0  0  0  0  2  0  0  0  0  0  0
  189.1400  179.4470  138.4730 O   0  0  0  0  0  1  0  0  0  0  0  0
  185.8080  176.6830  137.2050 C   0  0  1  0  0  3  0  0  0  0  0  0
  188.9540  178.1450  138.9450 C   0  0  1  0  0  3  0  0  0  0  0  0
  184.5420  177.4950  137.1040 C   0  0  1  0  0  3  0  0  0  0  0  0
  182.9610  178.7040  138.7640 C   0  0  0  0  0  0  0  0  0  0  0  0
  189.3460  178.0840  140.4330 C   0  0  2  0  0  3  0  0  0  0  0  0
  187.4980  177.6970  138.7370 C   0  0  2  0  0  3  0  0  0  0  0  0
  185.4910  178.3220  144.5930 C   0  0  0  0  0  3  0  0  0  0  0  0
  183.4810  176.4420  136.8680 C   0  0  0  0  0  2  0  0  0  0  0  0
  185.6880  175.6710  136.0950 C   0  0  0  0  0  2  0  0  0  0  0  0
  187.7220  177.7910  143.8850 O   0  0  0  0  0  1  0  0  0  0  0  0
  184.3260  179.0310  140.5320 C   0  0  2  0  0  3  0  0  0  0  0  0
  184.1720  178.6780  144.3050 C   0  0  0  0  0  3  0  0  0  0  0  0
  186.0500  178.4100  142.2240 C   0  0  0  0  0  0  0  0  0  0  0  0
  185.0680  178.1490  139.5510 C   0  0  1  0  0  3  0  0  0  0  0  0
  181.9310  178.7530  138.0410 O   0  0  0  0  0  0  0  0  0  0  0  0
  184.3500  178.4980  138.2540 C   0  0  1  0  0  3  0  0  0  0  0  0
  184.1890  175.3800  136.0240 C   0  0  0  0  0  2  0  0  0  0  0  0
  187.0830  178.7710  136.4460 C   0  0  0  0  0  1  0  0  0  0  0  0
  183.7760  178.8800  142.9840 C   0  0  0  0  0  3  0  0  0  0  0  0
  184.6950  178.7140  141.9430 C   0  0  0  0  0  0  0  0  0  0  0  0
  187.1100  177.4820  137.2640 C   0  0  2  0  0  3  0  0  0  0  0  0
  189.6210  176.6480  140.8710 C   0  0  0  0  0  2  0  0  0  0  0  0
  190.3120  175.4110  142.7940 O   0  0  0  0  0  1  0  0  0  0  0  0
  190.4980  176.6140  142.1110 C   0  0  0  0  0  2  0  0  0  0  0  0
  1  5  1  1  0  0  0
  1 19  1  0  0  0  0
  2 16  1  0  0  0  0
  2 13  1  0  0  0  0
  3 17  1  0  0  0  0
  4  1  1  0  0  0  0
  6  8  1  0  0  0  0
  7 27  1  0  0  0  0
  8 11  1  0  0  0  0
  9  7  1  0  0  0  0
  9 22  1  0  0  0  0
 10  3  1  0  0  0  0
 11 28  1  0  0  0  0
 11  5  1  0  0  0  0
 12  8  1  0  0  0  0
 12  4  1  0  0  0  0
 14  9  1  0  0  0  0
 15  7  1  0  0  0  0
 17 26  1  0  0  0  0
 18 13  2  0  0  0  0
 19  2  2  0  0  0  0
 20  4  1  0  0  0  0
 20 17  1  0  0  0  0
 21 10  2  0  0  0  0
 22 10  1  0  0  0  0
 22 20  1  0  0  0  0
 23 15  1  0  0  0  0
 23 14  1  0  0  0  0
 24 27  1  0  0  0  0
 25 18  1  0  0  0  0
 26 19  1  0  0  0  0
 26 25  2  0  0  0  0
 27 12  1  0  0  0  0
 28 30  1  0  0  0  0
 30 29  1  0  0  0  0
M  END
>  <MODEL>
2

>  <REMARK>
 VINA RESULT:      -7.8      2.590      4.662
  Name = 
  2 active torsions:
  status: ('A' for Active; 'I' for Inactive)
    1  A    between atoms: C_11  and  C_28
    2  A    between atoms: C_28  and  C_30
                            x       y       z     vdW  Elec       q    Type
                         _______ _______ _______ _____ _____    ______ ____

>  <TORSDO>
F 2

$$$$
=
 OpenBabel11122410213D

 30 35  0  0  1  0  0  0  0  0999 V2000
  188.8280  177.4900  141.5620 C   0  0  1  0  0  3  0  0  0  0  0  0
  186.9430  178.1210  143.1670 C   0  0  0  0  0  0  0  0  0  0  0  0
  186.2320  178.4360  138.2940 N   0  0  0  0  0  2  0  0  0  0  0  0
  189.3260  177.5590  140.1020 C   0  0  1  0  0  3  0  0  0  0  0  0
  189.8750  177.9880  142.4570 N   0  0  0  0  0  2  0  0  0  0  0  0
  192.2560  177.9760  140.5920 O   0  0  0  0  0  1  0  0  0  0  0  0
  189.7480  175.3310  137.9340 C   0  0  1  0  0  3  0  0  0  0  0  0
  191.5710  176.8340  141.0130 C   0  0  1  0  0  3  0  0  0  0  0  0
  188.9640  176.2170  137.0000 C   0  0  1  0  0  3  0  0  0  0  0  0
  187.0110  177.9070  137.2290 C   0  0  0  0  0  0  0  0  0  0  0  0
  191.0260  177.0640  142.4350 C   0  0  2  0  0  3  0  0  0  0  0  0
  190.4360  176.4910  140.0340 C   0  0  2  0  0  3  0  0  0  0  0  0
  185.6430  178.5770  143.4090 C   0  0  0  0  0  3  0  0  0  0  0  0
  188.0350  175.2450  136.3090 C   0  0  0  0  0  2  0  0  0  0  0  0
  190.0730  174.1160  137.1040 C   0  0  0  0  0  2  0  0  0  0  0  0
  187.7130  177.6930  144.2430 O   0  0  0  0  0  1  0  0  0  0  0  0
  187.1640  178.4830  139.4060 C   0  0  2  0  0  3  0  0  0  0  0  0
  184.8290  178.9850  142.3520 C   0  0  0  0  0  3  0  0  0  0  0  0
  187.4510  178.0880  141.8520 C   0  0  0  0  0  0  0  0  0  0  0  0
  188.1300  177.3400  139.1770 C   0  0  1  0  0  3  0  0  0  0  0  0
  186.6110  177.8940  136.0360 O   0  0  0  0  0  0  0  0  0  0  0  0
  188.3660  177.4620  137.6770 C   0  0  1  0  0  3  0  0  0  0  0  0
  188.8570  173.9600  136.1890 C   0  0  0  0  0  2  0  0  0  0  0  0
  191.6260  177.0700  137.8390 C   0  0  0  0  0  1  0  0  0  0  0  0
  185.3030  178.9280  141.0420 C   0  0  0  0  0  3  0  0  0  0  0  0
  186.5930  178.4500  140.7840 C   0  0  0  0  0  0  0  0  0  0  0  0
  190.9180  175.9960  138.6600 C   0  0  2  0  0  3  0  0  0  0  0  0
  190.7010  175.7400  143.1210 C   0  0  0  0  0  2  0  0  0  0  0  0
  191.7780  176.3900  145.1510 O   0  0  0  0  0  1  0  0  0  0  0  0
  191.7450  175.3980  144.1700 C   0  0  0  0  0  2  0  0  0  0  0  0
  1 19  1  6  0  0  0
  1  5  1  0  0  0  0
  2 13  1  0  0  0  0
  2 16  1  0  0  0  0
  3 17  1  0  0  0  0
  4  1  1  0  0  0  0
  6  8  1  0  0  0  0
  7 27  1  0  0  0  0
  8 11  1  0  0  0  0
  9 22  1  0  0  0  0
  9  7  1  0  0  0  0
 10 22  1  0  0  0  0
 10  3  1  0  0  0  0
 11  5  1  0  0  0  0
 11 28  1  0  0  0  0
 12  4  1  0  0  0  0
 12  8  1  0  0  0  0
 14  9  1  0  0  0  0
 15  7  1  0  0  0  0
 17 26  1  0  0  0  0
 18 13  2  0  0  0  0
 19  2  2  0  0  0  0
 20 17  1  0  0  0  0
 20  4  1  0  0  0  0
 21 10  2  0  0  0  0
 22 20  1  0  0  0  0
 23 14  1  0  0  0  0
 23 15  1  0  0  0  0
 24 27  1  0  0  0  0
 25 18  1  0  0  0  0
 26 25  2  0  0  0  0
 26 19  1  0  0  0  0
 27 12  1  0  0  0  0
 28 30  1  0  0  0  0
 30 29  1  0  0  0  0
M  END
>  <MODEL>
3

>  <REMARK>
 VINA RESULT:      -7.5      3.695      7.506
  Name = 
  2 active torsions:
  status: ('A' for Active; 'I' for Inactive)
    1  A    between atoms: C_11  and  C_28
    2  A    between atoms: C_28  and  C_30
                            x       y       z     vdW  Elec       q    Type
                         _______ _______ _______ _____ _____    ______ ____

>  <TORSDO>
F 2

$$$$
=
 OpenBabel11122410213D

 30 35  0  0  1  0  0  0  0  0999 V2000
  188.0130  177.8580  140.7440 C   0  0  1  0  0  3  0  0  0  0  0  0
  188.1930  177.5380  143.2730 C   0  0  0  0  0  0  0  0  0  0  0  0
  183.8690  178.7960  141.2560 N   0  0  0  0  0  2  0  0  0  0  0  0
  187.1410  178.4080  139.5950 C   0  0  1  0  0  3  0  0  0  0  0  0
  189.3690  178.3980  140.6260 N   0  0  0  0  0  2  0  0  0  0  0  0
  189.2920  179.4930  137.8080 O   0  0  0  0  0  1  0  0  0  0  0  0
  185.5910  176.9690  137.2770 C   0  0  1  0  0  3  0  0  0  0  0  0
  189.1900  178.1390  138.1380 C   0  0  1  0  0  3  0  0  0  0  0  0
  184.3990  177.7980  137.6800 C   0  0  1  0  0  3  0  0  0  0  0  0
  183.4650  178.7740  139.8930 C   0  0  0  0  0  0  0  0  0  0  0  0
  190.0120  177.8630  139.4110 C   0  0  2  0  0  3  0  0  0  0  0  0
  187.7180  177.7390  138.3320 C   0  0  2  0  0  3  0  0  0  0  0  0
  187.6250  177.5440  144.5500 C   0  0  0  0  0  3  0  0  0  0  0  0
  183.2630  176.8000  137.6470 C   0  0  0  0  0  2  0  0  0  0  0  0
  185.0860  176.1260  136.1350 C   0  0  0  0  0  2  0  0  0  0  0  0
  189.5040  177.0980  143.1250 O   0  0  0  0  0  1  0  0  0  0  0  0
  185.3180  178.8340  141.1790 C   0  0  2  0  0  3  0  0  0  0  0  0
  186.3020  177.9500  144.7340 C   0  0  0  0  0  3  0  0  0  0  0  0
  187.4410  177.9630  142.1590 C   0  0  0  0  0  0  0  0  0  0  0  0
  185.6790  178.0930  139.9090 C   0  0  1  0  0  3  0  0  0  0  0  0
  182.2680  178.9360  139.5360 O   0  0  0  0  0  0  0  0  0  0  0  0
  184.6200  178.6300  138.9560 C   0  0  1  0  0  3  0  0  0  0  0  0
  183.6230  175.8620  136.4930 C   0  0  0  0  0  2  0  0  0  0  0  0
  186.6830  179.1310  136.4450 C   0  0  0  0  0  1  0  0  0  0  0  0
  185.5340  178.3410  143.6390 C   0  0  0  0  0  3  0  0  0  0  0  0
  186.0820  178.3160  142.3520 C   0  0  0  0  0  0  0  0  0  0  0  0
  186.8900  177.7390  137.0360 C   0  0  2  0  0  3  0  0  0  0  0  0
  190.3320  176.3760  139.5480 C   0  0  0  0  0  2  0  0  0  0  0  0
  190.6760  174.5940  137.9960 O   0  0  0  0  0  1  0  0  0  0  0  0
  191.1110  175.8730  138.3450 C   0  0  0  0  0  2  0  0  0  0  0  0
  1  5  1  1  0  0  0
  1 19  1  0  0  0  0
  2 13  1  0  0  0  0
  4 20  1  0  0  0  0
  4  1  1  0  0  0  0
  6  8  1  0  0  0  0
  7  9  1  0  0  0  0
  8 12  1  0  0  0  0
  8 11  1  0  0  0  0
  9 22  1  0  0  0  0
 10  3  1  0  0  0  0
 11 28  1  0  0  0  0
 11  5  1  0  0  0  0
 12  4  1  0  0  0  0
 13 18  2  0  0  0  0
 14  9  1  0  0  0  0
 15 23  1  0  0  0  0
 15  7  1  0  0  0  0
 16  2  1  0  0  0  0
 17  3  1  0  0  0  0
 17 26  1  0  0  0  0
 19 26  1  0  0  0  0
 19  2  2  0  0  0  0
 20 17  1  0  0  0  0
 21 10  2  0  0  0  0
 22 10  1  0  0  0  0
 22 20  1  0  0  0  0
 23 14  1  0  0  0  0
 24 27  1  0  0  0  0
 25 18  1  0  0  0  0
 26 25  2  0  0  0  0
 27  7  1  0  0  0  0
 27 12  1  0  0  0  0
 29 30  1  0  0  0  0
 30 28  1  0  0  0  0
M  END
>  <MODEL>
4

>  <REMARK>
 VINA RESULT:      -7.4      2.621      4.334
  Name = 
  2 active torsions:
  status: ('A' for Active; 'I' for Inactive)
    1  A    between atoms: C_11  and  C_28
    2  A    between atoms: C_28  and  C_30
                            x       y       z     vdW  Elec       q    Type
                         _______ _______ _______ _____ _____    ______ ____

>  <TORSDO>
F 2

$$$$
=
 OpenBabel11122410213D

 30 35  0  0  1  0  0  0  0  0999 V2000
  188.5180  177.4810  142.8060 C   0  0  1  0  0  3  0  0  0  0  0  0
  186.8880  177.7190  144.7600 C   0  0  0  0  0  0  0  0  0  0  0  0
  185.4520  178.9370  140.1980 N   0  0  0  0  0  2  0  0  0  0  0  0
  188.7900  177.8480  141.3310 C   0  0  1  0  0  3  0  0  0  0  0  0
  189.6830  177.8370  143.6190 N   0  0  0  0  0  2  0  0  0  0  0  0
  191.7570  178.2750  141.4620 O   0  0  0  0  0  1  0  0  0  0  0  0
  188.9030  176.0960  138.7310 C   0  0  1  0  0  3  0  0  0  0  0  0
  191.1530  177.0480  141.7460 C   0  0  1  0  0  3  0  0  0  0  0  0
  187.9790  177.1140  138.1130 C   0  0  1  0  0  3  0  0  0  0  0  0
  186.0680  178.6520  138.9490 C   0  0  0  0  0  0  0  0  0  0  0  0
  190.8250  176.9800  143.2500 C   0  0  2  0  0  3  0  0  0  0  0  0
  189.8870  176.8570  140.8950 C   0  0  2  0  0  3  0  0  0  0  0  0
  185.6360  178.0700  145.2730 C   0  0  0  0  0  3  0  0  0  0  0  0
  186.9660  176.2580  137.3870 C   0  0  0  0  0  2  0  0  0  0  0  0
  189.1110  175.0760  137.6420 C   0  0  0  0  0  2  0  0  0  0  0  0
  187.8150  177.1230  145.6070 O   0  0  0  0  0  1  0  0  0  0  0  0
  186.5400  178.8050  141.1510 C   0  0  2  0  0  3  0  0  0  0  0  0
  184.6680  178.6420  144.4450 C   0  0  0  0  0  3  0  0  0  0  0  0
  187.1940  177.9590  143.4040 C   0  0  0  0  0  0  0  0  0  0  0  0
  187.4710  177.7660  140.5640 C   0  0  1  0  0  3  0  0  0  0  0  0
  185.4930  178.8530  137.8470 O   0  0  0  0  0  0  0  0  0  0  0  0
  187.4780  178.1820  139.1000 C   0  0  1  0  0  3  0  0  0  0  0  0
  187.7730  175.0530  136.9000 C   0  0  0  0  0  2  0  0  0  0  0  0
  190.7300  177.8910  138.7060 C   0  0  0  0  0  1  0  0  0  0  0  0
  184.9410  178.8560  143.0950 C   0  0  0  0  0  3  0  0  0  0  0  0
  186.1820  178.4860  142.5640 C   0  0  0  0  0  0  0  0  0  0  0  0
  190.1620  176.6530  139.3950 C   0  0  2  0  0  3  0  0  0  0  0  0
  190.6180  175.5370  143.7030 C   0  0  0  0  0  2  0  0  0  0  0  0
  192.0800  175.4810  145.5910 O   0  0  0  0  0  1  0  0  0  0  0  0
  191.8910  174.9670  144.3080 C   0  0  0  0  0  2  0  0  0  0  0  0
  1 19  1  1  0  0  0
  1  5  1  0  0  0  0
  2 13  1  0  0  0  0
  2 16  1  0  0  0  0
  3 17  1  0  0  0  0
  4  1  1  0  0  0  0
  6  8  1  0  0  0  0
  7 27  1  0  0  0  0
  8 11  1  0  0  0  0
  9  7  1  0  0  0  0
  9 22  1  0  0  0  0
 10 22  1  0  0  0  0
 10  3  1  0  0  0  0
 11  5  1  0  0  0  0
 11 28  1  0  0  0  0
 12  4  1  0  0  0  0
 12  8  1  0  0  0  0
 14  9  1  0  0  0  0
 15  7  1  0  0  0  0
 17 26  1  0  0  0  0
 18 13  2  0  0  0  0
 19  2  2  0  0  0  0
 20 17  1  0  0  0  0
 20  4  1  0  0  0  0
 21 10  2  0  0  0  0
 22 20  1  0  0  0  0
 23 14  1  0  0  0  0
 23 15  1  0  0  0  0
 24 27  1  0  0  0  0
 25 18  1  0  0  0  0
 26 25  2  0  0  0  0
 26 19  1  0  0  0  0
 27 12  1  0  0  0  0
 28 30  1  0  0  0  0
 30 29  1  0  0  0  0
M  END
>  <MODEL>
5

>  <REMARK>
 VINA RESULT:      -6.9      3.612      6.710
  Name = 
  2 active torsions:
  status: ('A' for Active; 'I' for Inactive)
    1  A    between atoms: C_11  and  C_28
    2  A    between atoms: C_28  and  C_30
                            x       y       z     vdW  Elec       q    Type
                         _______ _______ _______ _____ _____    ______ ____

>  <TORSDO>
F 2

$$$$
=
 OpenBabel11122410213D

 30 35  0  0  1  0  0  0  0  0999 V2000
  189.9200  174.5850  136.6270 C   0  0  1  0  0  3  0  0  0  0  0  0
  191.1330  172.5970  135.5760 C   0  0  0  0  0  0  0  0  0  0  0  0
  193.6600  175.8820  138.2540 N   0  0  0  0  0  2  0  0  0  0  0  0
  190.0940  175.9590  137.3100 C   0  0  1  0  0  3  0  0  0  0  0  0
  188.9780  174.7120  135.5130 N   0  0  0  0  0  2  0  0  0  0  0  0
  187.7520  177.4080  136.1230 O   0  0  0  0  0  1  0  0  0  0  0  0
  189.5240  176.9190  140.2420 C   0  0  1  0  0  3  0  0  0  0  0  0
  187.6150  176.2730  136.9260 C   0  0  1  0  0  3  0  0  0  0  0  0
  190.9130  177.5040  140.2250 C   0  0  1  0  0  3  0  0  0  0  0  0
  193.1830  176.8940  139.1320 C   0  0  0  0  0  0  0  0  0  0  0  0
  187.6320  175.0160  136.0350 C   0  0  2  0  0  3  0  0  0  0  0  0
  188.7310  176.2190  137.9810 C   0  0  2  0  0  3  0  0  0  0  0  0
  192.3000  171.8660  135.3300 C   0  0  0  0  0  3  0  0  0  0  0  0
  191.4640  177.1110  141.5770 C   0  0  0  0  0  2  0  0  0  0  0  0
  189.0060  177.2380  141.6200 C   0  0  0  0  0  2  0  0  0  0  0  0
  189.9160  172.0780  135.1500 O   0  0  0  0  0  1  0  0  0  0  0  0
  192.5200  175.6110  137.3970 C   0  0  2  0  0  3  0  0  0  0  0  0
  193.5370  172.3400  135.7700 C   0  0  0  0  0  3  0  0  0  0  0  0
  191.1980  173.8310  136.2550 C   0  0  0  0  0  0  0  0  0  0  0  0
  191.2970  175.8790  138.2490 C   0  0  1  0  0  3  0  0  0  0  0  0
  193.9420  177.5370  139.9040 O   0  0  0  0  0  0  0  0  0  0  0  0
  191.7210  177.1550  138.9630 C   0  0  1  0  0  3  0  0  0  0  0  0
  190.2500  177.1640  142.5070 C   0  0  0  0  0  2  0  0  0  0  0  0
  188.8580  178.7170  138.5430 C   0  0  0  0  0  1  0  0  0  0  0  0
  193.6150  173.5420  136.4720 C   0  0  0  0  0  3  0  0  0  0  0  0
  192.4520  174.2700  136.7470 C   0  0  0  0  0  0  0  0  0  0  0  0
  188.6240  177.3030  139.0680 C   0  0  2  0  0  3  0  0  0  0  0  0
  187.0230  173.8190  136.7610 C   0  0  0  0  0  2  0  0  0  0  0  0
  185.1090  173.0560  137.9690 O   0  0  0  0  0  1  0  0  0  0  0  0
  185.6050  174.1210  137.2150 C   0  0  0  0  0  2  0  0  0  0  0  0
  1  5  1  6  0  0  0
  1  4  1  0  0  0  0
  2 19  1  0  0  0  0
  3 10  1  0  0  0  0
  4 12  1  0  0  0  0
  4 20  1  0  0  0  0
  5 11  1  0  0  0  0
  6  8  1  0  0  0  0
  7 15  1  0  0  0  0
  8 12  1  0  0  0  0
  9  7  1  0  0  0  0
  9 14  1  0  0  0  0
 10 21  2  0  0  0  0
 11 28  1  0  0  0  0
 11  8  1  0  0  0  0
 12 27  1  0  0  0  0
 13  2  2  0  0  0  0
 13 18  1  0  0  0  0
 14 23  1  0  0  0  0
 15 23  1  0  0  0  0
 16  2  1  0  0  0  0
 17 20  1  0  0  0  0
 17  3  1  0  0  0  0
 18 25  2  0  0  0  0
 19  1  1  0  0  0  0
 19 26  2  0  0  0  0
 20 22  1  0  0  0  0
 22 10  1  0  0  0  0
 22  9  1  0  0  0  0
 24 27  1  0  0  0  0
 25 26  1  0  0  0  0
 26 17  1  0  0  0  0
 27  7  1  0  0  0  0
 28 30  1  0  0  0  0
 30 29  1  0  0  0  0
M  END
>  <MODEL>
6

>  <REMARK>
 VINA RESULT:      -6.6      6.278      9.720
  Name = 
  2 active torsions:
  status: ('A' for Active; 'I' for Inactive)
    1  A    between atoms: C_11  and  C_28
    2  A    between atoms: C_28  and  C_30
                            x       y       z     vdW  Elec       q    Type
                         _______ _______ _______ _____ _____    ______ ____

>  <TORSDO>
F 2

$$$$
=
 OpenBabel11122410213D

 30 35  0  0  1  0  0  0  0  0999 V2000
  189.1000  176.9710  138.4510 C   0  0  1  0  0  3  0  0  0  0  0  0
  190.1170  177.1480  140.7880 C   0  0  0  0  0  0  0  0  0  0  0  0
  185.5900  178.9170  139.9370 N   0  0  0  0  0  2  0  0  0  0  0  0
  187.9660  177.4570  137.5220 C   0  0  1  0  0  3  0  0  0  0  0  0
  190.3890  177.1500  137.7800 N   0  0  0  0  0  2  0  0  0  0  0  0
  189.4770  177.6270  134.9360 O   0  0  0  0  0  1  0  0  0  0  0  0
  185.5040  175.9630  136.2760 C   0  0  1  0  0  3  0  0  0  0  0  0
  189.3030  176.4310  135.6360 C   0  0  1  0  0  3  0  0  0  0  0  0
  184.6660  177.1080  136.7850 C   0  0  1  0  0  3  0  0  0  0  0  0
  184.7300  178.7070  138.8240 C   0  0  0  0  0  0  0  0  0  0  0  0
  190.4740  176.2430  136.6190 C   0  0  2  0  0  3  0  0  0  0  0  0
  187.9540  176.4270  136.3750 C   0  0  2  0  0  3  0  0  0  0  0  0
  190.0470  177.5480  142.1260 C   0  0  0  0  0  3  0  0  0  0  0  0
  183.4600  176.4120  137.3750 C   0  0  0  0  0  2  0  0  0  0  0  0
  184.5100  175.0410  135.6200 C   0  0  0  0  0  2  0  0  0  0  0  0
  191.2110  176.3990  140.3700 O   0  0  0  0  0  1  0  0  0  0  0  0
  186.9070  178.6050  139.4110 C   0  0  2  0  0  3  0  0  0  0  0  0
  188.9490  178.2740  142.5900 C   0  0  0  0  0  3  0  0  0  0  0  0
  189.0880  177.4940  139.8880 C   0  0  0  0  0  0  0  0  0  0  0  0
  186.6820  177.5570  138.3430 C   0  0  1  0  0  3  0  0  0  0  0  0
  183.5220  179.0610  138.8230 O   0  0  0  0  0  0  0  0  0  0  0  0
  185.4440  178.1120  137.6540 C   0  0  1  0  0  3  0  0  0  0  0  0
  183.2470  175.1980  136.4680 C   0  0  0  0  0  2  0  0  0  0  0  0
  186.5310  177.5980  134.5940 C   0  0  0  0  0  1  0  0  0  0  0  0
  187.9070  178.5960  141.7220 C   0  0  0  0  0  3  0  0  0  0  0  0
  187.9540  178.1810  140.3860 C   0  0  0  0  0  0  0  0  0  0  0  0
  186.7300  176.3490  135.4480 C   0  0  2  0  0  3  0  0  0  0  0  0
  190.6020  174.7840  137.0500 C   0  0  0  0  0  2  0  0  0  0  0  0
  192.9190  175.1750  136.6200 O   0  0  0  0  0  1  0  0  0  0  0  0
  192.0370  174.4500  137.4220 C   0  0  0  0  0  2  0  0  0  0  0  0
  1  5  1  6  0  0  0
  1 19  1  0  0  0  0
  2 13  1  0  0  0  0
  4 20  1  0  0  0  0
  4  1  1  0  0  0  0
  6  8  1  0  0  0  0
  7  9  1  0  0  0  0
  8 12  1  0  0  0  0
  8 11  1  0  0  0  0
  9 14  1  0  0  0  0
  9 22  1  0  0  0  0
 10  3  1  0  0  0  0
 11 28  1  0  0  0  0
 11  5  1  0  0  0  0
 12  4  1  0  0  0  0
 13 18  2  0  0  0  0
 15  7  1  0  0  0  0
 15 23  1  0  0  0  0
 16  2  1  0  0  0  0
 17  3  1  0  0  0  0
 17 26  1  0  0  0  0
 19 26  1  0  0  0  0
 19  2  2  0  0  0  0
 20 17  1  0  0  0  0
 21 10  2  0  0  0  0
 22 20  1  0  0  0  0
 22 10  1  0  0  0  0
 23 14  1  0  0  0  0
 24 27  1  0  0  0  0
 25 18  1  0  0  0  0
 26 25  2  0  0  0  0
 27  7  1  0  0  0  0
 27 12  1  0  0  0  0
 28 30  1  0  0  0  0
 29 30  1  0  0  0  0
M  END
>  <MODEL>
7

>  <REMARK>
 VINA RESULT:      -6.3      3.840      5.767
  Name = 
  2 active torsions:
  status: ('A' for Active; 'I' for Inactive)
    1  A    between atoms: C_11  and  C_28
    2  A    between atoms: C_28  and  C_30
                            x       y       z     vdW  Elec       q    Type
                         _______ _______ _______ _____ _____    ______ ____

>  <TORSDO>
F 2

$$$$
=
 OpenBabel11122410213D

 30 35  0  0  1  0  0  0  0  0999 V2000
  182.0310  175.0660  138.0920 C   0  0  1  0  0  3  0  0  0  0  0  0
  182.7700  173.0040  136.7770 C   0  0  0  0  0  0  0  0  0  0  0  0
  185.6990  176.9700  136.9790 N   0  0  0  0  0  2  0  0  0  0  0  0
  182.3020  176.5630  138.3610 C   0  0  1  0  0  3  0  0  0  0  0  0
  180.6170  174.8800  137.7610 N   0  0  0  0  0  2  0  0  0  0  0  0
  179.4800  177.5390  138.6490 O   0  0  0  0  0  1  0  0  0  0  0  0
  183.3510  178.0700  140.9040 C   0  0  1  0  0  3  0  0  0  0  0  0
  180.0470  176.5910  139.5050 C   0  0  1  0  0  3  0  0  0  0  0  0
  184.3370  178.7470  139.9860 C   0  0  1  0  0  3  0  0  0  0  0  0
  185.6320  178.1030  137.8350 C   0  0  0  0  0  0  0  0  0  0  0  0
  179.7870  175.1800  138.9440 C   0  0  2  0  0  3  0  0  0  0  0  0
  181.5540  176.8490  139.6770 C   0  0  2  0  0  3  0  0  0  0  0  0
  183.6950  172.3330  135.9720 C   0  0  0  0  0  3  0  0  0  0  0  0
  185.6270  178.6930  140.7740 C   0  0  0  0  0  2  0  0  0  0  0  0
  183.6700  178.6300  142.2660 C   0  0  0  0  0  2  0  0  0  0  0  0
  181.6530  172.3120  137.2340 O   0  0  0  0  0  1  0  0  0  0  0  0
  184.3500  176.4350  137.0180 C   0  0  2  0  0  3  0  0  0  0  0  0
  184.8440  172.9860  135.5210 C   0  0  0  0  0  3  0  0  0  0  0  0
  182.9780  174.3550  137.1240 C   0  0  0  0  0  0  0  0  0  0  0  0
  183.8150  176.7790  138.3910 C   0  0  1  0  0  3  0  0  0  0  0  0
  186.5580  178.9520  137.9130 O   0  0  0  0  0  0  0  0  0  0  0  0
  184.3220  178.2060  138.5470 C   0  0  1  0  0  3  0  0  0  0  0  0
  185.1840  178.8440  142.2300 C   0  0  0  0  0  2  0  0  0  0  0  0
  181.5050  179.4110  139.7410 C   0  0  0  0  0  1  0  0  0  0  0  0
  185.0820  174.3110  135.8820 C   0  0  0  0  0  3  0  0  0  0  0  0
  184.1760  174.9860  136.7070 C   0  0  0  0  0  0  0  0  0  0  0  0
  181.8870  178.1250  140.4680 C   0  0  2  0  0  3  0  0  0  0  0  0
  179.9460  174.1180  140.0300 C   0  0  0  0  0  2  0  0  0  0  0  0
  179.2820  173.4920  142.2360 O   0  0  0  0  0  1  0  0  0  0  0  0
  179.0390  174.4090  141.2130 C   0  0  0  0  0  2  0  0  0  0  0  0
  1 19  1  6  0  0  0
  1  4  1  0  0  0  0
  2 19  1  0  0  0  0
  2 16  1  0  0  0  0
  3 17  1  0  0  0  0
  3 10  1  0  0  0  0
  4 20  1  0  0  0  0
  4 12  1  0  0  0  0
  5  1  1  0  0  0  0
  5 11  1  0  0  0  0
  6  8  1  0  0  0  0
  7 15  1  0  0  0  0
  8 12  1  0  0  0  0
  9 14  1  0  0  0  0
  9  7  1  0  0  0  0
 10 21  2  0  0  0  0
 10 22  1  0  0  0  0
 11  8  1  0  0  0  0
 11 28  1  0  0  0  0
 12 27  1  0  0  0  0
 13  2  2  0  0  0  0
 14 23  1  0  0  0  0
 17 20  1  0  0  0  0
 18 25  2  0  0  0  0
 18 13  1  0  0  0  0
 20 22  1  0  0  0  0
 22  9  1  0  0  0  0
 23 15  1  0  0  0  0
 24 27  1  0  0  0  0
 25 26  1  0  0  0  0
 26 17  1  0  0  0  0
 26 19  2  0  0  0  0
 27  7  1  0  0  0  0
 28 30  1  0  0  0  0
 30 29  1  0  0  0  0
M  END
>  <MODEL>
8

>  <REMARK>
 VINA RESULT:      -6.2      3.807      7.198
  Name = 
  2 active torsions:
  status: ('A' for Active; 'I' for Inactive)
    1  A    between atoms: C_11  and  C_28
    2  A    between atoms: C_28  and  C_30
                            x       y       z     vdW  Elec       q    Type
                         _______ _______ _______ _____ _____    ______ ____

>  <TORSDO>
F 2

$$$$
=
 OpenBabel11122410213D

 30 35  0  0  1  0  0  0  0  0999 V2000
  186.7650  177.7720  138.6560 C   0  0  1  0  0  3  0  0  0  0  0  0
  185.0230  178.9980  140.0660 C   0  0  0  0  0  0  0  0  0  0  0  0
  183.5910  176.2890  136.1980 N   0  0  0  0  0  2  0  0  0  0  0  0
  187.0250  177.0240  137.3300 C   0  0  1  0  0  3  0  0  0  0  0  0
  187.7720  178.8220  138.8270 N   0  0  0  0  0  2  0  0  0  0  0  0
  189.8020  177.9950  136.7430 O   0  0  0  0  0  1  0  0  0  0  0  0
  187.6760  174.0160  136.7230 C   0  0  1  0  0  3  0  0  0  0  0  0
  189.4820  177.2500  137.8810 C   0  0  1  0  0  3  0  0  0  0  0  0
  186.5770  174.0790  135.6930 C   0  0  1  0  0  3  0  0  0  0  0  0
  184.3220  175.3310  135.4430 C   0  0  0  0  0  0  0  0  0  0  0  0
  189.0990  178.2080  139.0250 C   0  0  2  0  0  3  0  0  0  0  0  0
  188.3410  176.2630  137.5800 C   0  0  2  0  0  3  0  0  0  0  0  0
  183.6980  179.3510  140.3390 C   0  0  0  0  0  3  0  0  0  0  0  0
  185.8280  172.7840  135.9150 C   0  0  0  0  0  2  0  0  0  0  0  0
  188.1710  172.5950  136.6490 C   0  0  0  0  0  2  0  0  0  0  0  0
  186.0160  179.3830  140.9600 O   0  0  0  0  0  1  0  0  0  0  0  0
  184.6280  177.0940  136.8190 C   0  0  2  0  0  3  0  0  0  0  0  0
  182.6700  178.9560  139.4810 C   0  0  0  0  0  3  0  0  0  0  0  0
  185.3370  178.2570  138.9090 C   0  0  0  0  0  0  0  0  0  0  0  0
  185.8030  176.1610  137.0190 C   0  0  1  0  0  3  0  0  0  0  0  0
  183.7760  174.5680  134.6030 O   0  0  0  0  0  0  0  0  0  0  0  0
  185.7920  175.4020  135.6990 C   0  0  1  0  0  3  0  0  0  0  0  0
  186.9160  171.7860  136.3170 C   0  0  0  0  0  2  0  0  0  0  0  0
  189.0390  175.5710  135.2130 C   0  0  0  0  0  1  0  0  0  0  0  0
  182.9590  178.1940  138.3500 C   0  0  0  0  0  3  0  0  0  0  0  0
  184.2770  177.8130  138.0790 C   0  0  0  0  0  0  0  0  0  0  0  0
  188.7360  175.1140  136.6370 C   0  0  2  0  0  3  0  0  0  0  0  0
  189.2060  177.5170  140.3820 C   0  0  0  0  0  2  0  0  0  0  0  0
  191.3190  177.4870  141.4930 O   0  0  0  0  0  1  0  0  0  0  0  0
  190.5490  176.8250  140.5370 C   0  0  0  0  0  2  0  0  0  0  0  0
  1  5  1  6  0  0  0
  1 19  1  0  0  0  0
  2 13  1  0  0  0  0
  2 16  1  0  0  0  0
  3 17  1  0  0  0  0
  4 12  1  0  0  0  0
  4  1  1  0  0  0  0
  5 11  1  0  0  0  0
  6  8  1  0  0  0  0
  8 11  1  0  0  0  0
  9 22  1  0  0  0  0
  9 14  1  0  0  0  0
  9  7  1  0  0  0  0
 10 22  1  0  0  0  0
 10  3  1  0  0  0  0
 11 28  1  0  0  0  0
 12  8  1  0  0  0  0
 14 23  1  0  0  0  0
 15  7  1  0  0  0  0
 17 20  1  0  0  0  0
 17 26  1  0  0  0  0
 18 13  2  0  0  0  0
 19  2  2  0  0  0  0
 20  4  1  0  0  0  0
 21 10  2  0  0  0  0
 22 20  1  0  0  0  0
 23 15  1  0  0  0  0
 24 27  1  0  0  0  0
 25 18  1  0  0  0  0
 26 25  2  0  0  0  0
 26 19  1  0  0  0  0
 27  7  1  0  0  0  0
 27 12  1  0  0  0  0
 28 30  1  0  0  0  0
 30 29  1  0  0  0  0
M  END
>  <MODEL>
9

>  <REMARK>
 VINA RESULT:      -6.1      3.550      7.127
  Name = 
  2 active torsions:
  status: ('A' for Active; 'I' for Inactive)
    1  A    between atoms: C_11  and  C_28
    2  A    between atoms: C_28  and  C_30
                            x       y       z     vdW  Elec       q    Type
                         _______ _______ _______ _____ _____    ______ ____

>  <TORSDO>
F 2

$$$$
