=
 OpenBabel11122411083D

 31 35  0  0  1  0  0  0  0  0999 V2000
  189.7770  177.4640  145.3660 C   0  0  0  0  0  0  0  0  0  0  0  0
  187.0170  178.2240  142.8710 C   0  0  0  0  0  0  0  0  0  0  0  0
  185.8510  178.4630  143.6600 C   0  0  0  0  0  0  0  0  0  0  0  0
  184.6830  178.5480  145.8040 C   0  0  0  0  0  0  0  0  0  0  0  0
  188.2700  177.8230  143.4130 C   0  0  0  0  0  0  0  0  0  0  0  0
  190.9720  177.6110  144.4800 C   0  0  0  0  0  2  0  0  0  0  0  0
  185.8390  178.3090  145.0570 C   0  0  0  0  0  3  0  0  0  0  0  0
  188.0520  178.1760  140.6500 C   0  0  0  0  0  0  0  0  0  0  0  0
  189.9250  177.2430  146.5960 O   0  0  0  0  0  0  0  0  0  0  0  0
  184.5940  179.0370  141.6470 C   0  0  0  0  0  3  0  0  0  0  0  0
  184.7040  178.3880  147.1820 O   0  0  0  0  0  1  0  0  0  0  0  0
  189.2210  177.7760  141.2130 N   0  0  0  0  0  0  0  0  0  0  0  0
  186.9280  178.4040  141.4610 C   0  0  0  0  0  0  0  0  0  0  0  0
  187.9670  178.3450  139.2300 N   0  0  0  0  0  2  0  0  0  0  0  0
  188.4690  177.6450  144.8220 N   0  0  0  0  0  2  0  0  0  0  0  0
  183.5100  178.9480  145.1650 C   0  0  0  0  0  3  0  0  0  0  0  0
  189.3620  177.6080  142.5500 C   0  0  0  0  0  0  0  0  0  0  0  0
  190.6610  177.0750  143.0830 C   0  0  0  0  0  2  0  0  0  0  0  0
  185.7240  178.8060  140.8730 C   0  0  0  0  0  3  0  0  0  0  0  0
  184.6460  178.8690  143.0270 C   0  0  0  0  0  0  0  0  0  0  0  0
  183.4920  179.1080  143.7790 C   0  0  0  0  0  3  0  0  0  0  0  0
  189.0550  179.1530  137.1950 C   0  0  0  0  0  1  0  0  0  0  0  0
  189.1030  178.1520  138.3380 C   0  0  2  0  0  3  0  0  0  0  0  0
  189.1560  174.1260  136.8230 C   0  0  0  0  0  0  0  0  0  0  0  0
  187.9400  176.1570  137.3250 C   0  0  0  0  0  3  0  0  0  0  0  0
  191.4650  176.5680  138.2610 F   0  0  0  0  0  0  0  0  0  0  0  0
  189.1750  172.8270  136.3350 O   0  0  0  0  0  1  0  0  0  0  0  0
  187.9600  174.8490  136.8330 C   0  0  0  0  0  3  0  0  0  0  0  0
  190.3140  176.0180  137.7970 C   0  0  0  0  0  0  0  0  0  0  0  0
  189.1170  176.7490  137.8110 C   0  0  0  0  0  0  0  0  0  0  0  0
  190.3300  174.7090  137.3050 C   0  0  0  0  0  3  0  0  0  0  0  0
  1  9  2  0  0  0  0
  2  5  1  0  0  0  0
  2  3  1  0  0  0  0
  3  7  1  0  0  0  0
  4 11  1  0  0  0  0
  5 15  1  0  0  0  0
  6  1  1  0  0  0  0
  7  4  2  0  0  0  0
  8 12  2  0  0  0  0
  8 13  1  0  0  0  0
 10 20  1  0  0  0  0
 12 17  1  0  0  0  0
 13  2  2  0  0  0  0
 14  8  1  0  0  0  0
 15  1  1  0  0  0  0
 16  4  1  0  0  0  0
 17 18  1  0  0  0  0
 17  5  2  0  0  0  0
 18  6  1  0  0  0  0
 19 13  1  0  0  0  0
 19 10  2  0  0  0  0
 20  3  2  0  0  0  0
 20 21  1  0  0  0  0
 21 16  2  0  0  0  0
 23 22  1  6  0  0  0
 23 14  1  0  0  0  0
 24 28  2  0  0  0  0
 24 31  1  0  0  0  0
 25 30  2  0  0  0  0
 27 24  1  0  0  0  0
 28 25  1  0  0  0  0
 29 30  1  0  0  0  0
 29 26  1  0  0  0  0
 30 23  1  0  0  0  0
 31 29  2  0  0  0  0
M  END
>  <MODEL>
1

>  <REMARK>
 VINA RESULT:     -11.1      0.000      0.000
  Name = 
  2 active torsions:
  status: ('A' for Active; 'I' for Inactive)
    1  A    between atoms: C_5  and  N_16
    2  A    between atoms: C_5  and  C_30
                            x       y       z     vdW  Elec       q    Type
                         _______ _______ _______ _____ _____    ______ ____

>  <TORSDO>
F 2

$$$$
=
 OpenBabel11122411083D

 31 35  0  0  1  0  0  0  0  0999 V2000
  189.7910  177.4460  145.3710 C   0  0  0  0  0  0  0  0  0  0  0  0
  187.0310  178.2190  142.8790 C   0  0  0  0  0  0  0  0  0  0  0  0
  185.8660  178.4560  143.6700 C   0  0  0  0  0  0  0  0  0  0  0  0
  184.6990  178.5350  145.8150 C   0  0  0  0  0  0  0  0  0  0  0  0
  188.2840  177.8140  143.4200 C   0  0  0  0  0  0  0  0  0  0  0  0
  190.9860  177.5940  144.4840 C   0  0  0  0  0  2  0  0  0  0  0  0
  185.8550  178.2980  145.0670 C   0  0  0  0  0  3  0  0  0  0  0  0
  188.0650  178.1780  140.6580 C   0  0  0  0  0  0  0  0  0  0  0  0
  189.9400  177.2200  146.5990 O   0  0  0  0  0  0  0  0  0  0  0  0
  184.6090  179.0390  141.6600 C   0  0  0  0  0  3  0  0  0  0  0  0
  184.7200  178.3700  147.1920 O   0  0  0  0  0  1  0  0  0  0  0  0
  189.2340  177.7740  141.2190 N   0  0  0  0  0  0  0  0  0  0  0  0
  186.9420  178.4040  141.4710 C   0  0  0  0  0  0  0  0  0  0  0  0
  187.9800  178.3520  139.2390 N   0  0  0  0  0  2  0  0  0  0  0  0
  188.4840  177.6300  144.8280 N   0  0  0  0  0  2  0  0  0  0  0  0
  183.5260  178.9390  145.1780 C   0  0  0  0  0  3  0  0  0  0  0  0
  189.3750  177.6010  142.5550 C   0  0  0  0  0  0  0  0  0  0  0  0
  190.6740  177.0640  143.0860 C   0  0  0  0  0  2  0  0  0  0  0  0
  185.7370  178.8100  140.8840 C   0  0  0  0  0  3  0  0  0  0  0  0
  184.6610  178.8660  143.0400 C   0  0  0  0  0  0  0  0  0  0  0  0
  183.5080  179.1040  143.7930 C   0  0  0  0  0  3  0  0  0  0  0  0
  189.0620  179.1590  137.2000 C   0  0  0  0  0  1  0  0  0  0  0  0
  189.1140  178.1600  138.3460 C   0  0  2  0  0  3  0  0  0  0  0  0
  189.1520  174.1300  136.8420 C   0  0  0  0  0  0  0  0  0  0  0  0
  190.3140  175.9990  137.8500 C   0  0  0  0  0  3  0  0  0  0  0  0
  186.8050  176.9010  137.2640 F   0  0  0  0  0  0  0  0  0  0  0  0
  189.1620  172.8300  136.3560 O   0  0  0  0  0  1  0  0  0  0  0  0
  190.3230  174.6890  137.3600 C   0  0  0  0  0  3  0  0  0  0  0  0
  187.9600  176.1880  137.3010 C   0  0  0  0  0  0  0  0  0  0  0  0
  189.1320  176.7570  137.8220 C   0  0  0  0  0  0  0  0  0  0  0  0
  187.9730  174.8790  136.8120 C   0  0  0  0  0  3  0  0  0  0  0  0
  1  9  2  0  0  0  0
  2  5  1  0  0  0  0
  2  3  1  0  0  0  0
  3  7  1  0  0  0  0
  4 11  1  0  0  0  0
  5 15  1  0  0  0  0
  6  1  1  0  0  0  0
  7  4  2  0  0  0  0
  8 12  2  0  0  0  0
  8 13  1  0  0  0  0
 10 20  1  0  0  0  0
 12 17  1  0  0  0  0
 13  2  2  0  0  0  0
 14  8  1  0  0  0  0
 15  1  1  0  0  0  0
 16  4  1  0  0  0  0
 17 18  1  0  0  0  0
 17  5  2  0  0  0  0
 18  6  1  0  0  0  0
 19 13  1  0  0  0  0
 19 10  2  0  0  0  0
 20  3  2  0  0  0  0
 20 21  1  0  0  0  0
 21 16  2  0  0  0  0
 23 22  1  6  0  0  0
 23 14  1  0  0  0  0
 24 28  1  0  0  0  0
 26 29  1  0  0  0  0
 27 24  1  0  0  0  0
 28 25  2  0  0  0  0
 29 30  2  0  0  0  0
 30 25  1  0  0  0  0
 30 23  1  0  0  0  0
 31 24  2  0  0  0  0
 31 29  1  0  0  0  0
M  END
>  <MODEL>
2

>  <REMARK>
 VINA RESULT:     -10.8      0.858      1.222
  Name = 
  2 active torsions:
  status: ('A' for Active; 'I' for Inactive)
    1  A    between atoms: C_5  and  N_16
    2  A    between atoms: C_5  and  C_30
                            x       y       z     vdW  Elec       q    Type
                         _______ _______ _______ _____ _____    ______ ____

>  <TORSDO>
F 2

$$$$
=
 OpenBabel11122411083D

 31 35  0  0  1  0  0  0  0  0999 V2000
  190.6870  177.2310  142.0530 C   0  0  0  0  0  0  0  0  0  0  0  0
  187.2200  178.0800  143.3490 C   0  0  0  0  0  0  0  0  0  0  0  0
  187.3160  177.9860  144.7710 C   0  0  0  0  0  0  0  0  0  0  0  0
  188.5490  177.4720  146.8150 C   0  0  0  0  0  0  0  0  0  0  0  0
  188.2850  177.7590  142.4620 C   0  0  0  0  0  0  0  0  0  0  0  0
  190.5620  177.7210  140.6460 C   0  0  0  0  0  2  0  0  0  0  0  0
  188.4840  177.5540  145.4230 C   0  0  0  0  0  3  0  0  0  0  0  0
  185.8570  178.6270  141.3870 C   0  0  0  0  0  0  0  0  0  0  0  0
  191.7880  176.7910  142.4730 O   0  0  0  0  0  0  0  0  0  0  0  0
  185.0140  178.7690  144.9870 C   0  0  0  0  0  3  0  0  0  0  0  0
  189.7160  177.0420  147.4300 O   0  0  0  0  0  1  0  0  0  0  0  0
  186.8970  178.2920  140.5820 N   0  0  0  0  0  0  0  0  0  0  0  0
  185.9920  178.5250  142.7810 C   0  0  0  0  0  0  0  0  0  0  0  0
  184.6210  179.0650  140.8090 N   0  0  0  0  0  2  0  0  0  0  0  0
  189.5700  177.3300  142.9360 N   0  0  0  0  0  2  0  0  0  0  0  0
  187.4420  177.8210  147.5880 C   0  0  0  0  0  3  0  0  0  0  0  0
  188.0900  177.8790  141.0720 C   0  0  0  0  0  0  0  0  0  0  0  0
  189.1590  177.4400  140.1120 C   0  0  0  0  0  2  0  0  0  0  0  0
  184.9120  178.8620  143.6050 C   0  0  0  0  0  3  0  0  0  0  0  0
  186.1990  178.3360  145.5740 C   0  0  0  0  0  0  0  0  0  0  0  0
  186.2690  178.2530  146.9680 C   0  0  0  0  0  3  0  0  0  0  0  0
  183.2660  180.1590  139.0930 C   0  0  0  0  0  1  0  0  0  0  0  0
  184.4270  179.2180  139.3740 C   0  0  2  0  0  3  0  0  0  0  0  0
  183.7500  175.3890  137.5330 C   0  0  0  0  0  0  0  0  0  0  0  0
  183.1580  177.0460  139.1940 C   0  0  0  0  0  3  0  0  0  0  0  0
  185.9980  178.2530  137.2080 F   0  0  0  0  0  0  0  0  0  0  0  0
  183.5340  174.1540  136.9380 O   0  0  0  0  0  1  0  0  0  0  0  0
  182.9410  175.8020  138.5940 C   0  0  0  0  0  3  0  0  0  0  0  0
  184.9970  177.4610  137.6690 C   0  0  0  0  0  0  0  0  0  0  0  0
  184.1890  177.8830  138.7360 C   0  0  0  0  0  0  0  0  0  0  0  0
  184.7760  176.2170  137.0720 C   0  0  0  0  0  3  0  0  0  0  0  0
  1  9  2  0  0  0  0
  1 15  1  0  0  0  0
  2  3  1  0  0  0  0
  3  7  2  0  0  0  0
  3 20  1  0  0  0  0
  4 11  1  0  0  0  0
  4 16  2  0  0  0  0
  5 15  1  0  0  0  0
  5  2  1  0  0  0  0
  6  1  1  0  0  0  0
  7  4  1  0  0  0  0
  8 13  1  0  0  0  0
 10 20  1  0  0  0  0
 12 17  1  0  0  0  0
 12  8  2  0  0  0  0
 13  2  2  0  0  0  0
 13 19  1  0  0  0  0
 14  8  1  0  0  0  0
 17  5  2  0  0  0  0
 18  6  1  0  0  0  0
 18 17  1  0  0  0  0
 19 10  2  0  0  0  0
 20 21  2  0  0  0  0
 21 16  1  0  0  0  0
 23 22  1  1  0  0  0
 23 14  1  0  0  0  0
 24 28  1  0  0  0  0
 26 29  1  0  0  0  0
 27 24  1  0  0  0  0
 28 25  2  0  0  0  0
 29 30  2  0  0  0  0
 30 25  1  0  0  0  0
 30 23  1  0  0  0  0
 31 24  2  0  0  0  0
 31 29  1  0  0  0  0
M  END
>  <MODEL>
3

>  <REMARK>
 VINA RESULT:     -10.4      2.765      4.135
  Name = 
  2 active torsions:
  status: ('A' for Active; 'I' for Inactive)
    1  A    between atoms: C_5  and  N_16
    2  A    between atoms: C_5  and  C_30
                            x       y       z     vdW  Elec       q    Type
                         _______ _______ _______ _____ _____    ______ ____

>  <TORSDO>
F 2

$$$$
=
 OpenBabel11122411083D

 31 35  0  0  1  0  0  0  0  0999 V2000
  185.3350  178.3760  143.7770 C   0  0  0  0  0  0  0  0  0  0  0  0
  189.0230  177.5460  143.4160 C   0  0  0  0  0  0  0  0  0  0  0  0
  189.4820  177.2840  144.7420 C   0  0  0  0  0  0  0  0  0  0  0  0
  189.1360  177.1800  147.1580 C   0  0  0  0  0  0  0  0  0  0  0  0
  187.7030  177.9770  143.1060 C   0  0  0  0  0  0  0  0  0  0  0  0
  184.9040  178.2530  142.3510 C   0  0  0  0  0  2  0  0  0  0  0  0
  188.6600  177.4420  145.8720 C   0  0  0  0  0  3  0  0  0  0  0  0
  189.5210  177.6100  141.0170 C   0  0  0  0  0  0  0  0  0  0  0  0
  184.4860  178.6040  144.6770 O   0  0  0  0  0  0  0  0  0  0  0  0
  191.6800  176.6760  143.8730 C   0  0  0  0  0  3  0  0  0  0  0  0
  188.3000  177.3450  148.2530 O   0  0  0  0  0  1  0  0  0  0  0  0
  188.2550  178.0370  140.7740 N   0  0  0  0  0  0  0  0  0  0  0  0
  189.9330  177.3600  142.3360 C   0  0  0  0  0  0  0  0  0  0  0  0
  190.4340  177.4340  139.9270 N   0  0  0  0  0  2  0  0  0  0  0  0
  186.7050  178.1640  144.1200 N   0  0  0  0  0  2  0  0  0  0  0  0
  190.4510  176.7530  147.3430 C   0  0  0  0  0  3  0  0  0  0  0  0
  187.3470  178.2130  141.7640 C   0  0  0  0  0  0  0  0  0  0  0  0
  185.9970  178.7770  141.4220 C   0  0  0  0  0  2  0  0  0  0  0  0
  191.2420  176.9290  142.5790 C   0  0  0  0  0  3  0  0  0  0  0  0
  190.8180  176.8500  144.9500 C   0  0  0  0  0  0  0  0  0  0  0  0
  191.2890  176.5880  146.2400 C   0  0  0  0  0  3  0  0  0  0  0  0
  189.0560  178.7870  138.4270 C   0  0  0  0  0  1  0  0  0  0  0  0
  190.0590  177.6500  138.5360 C   0  0  2  0  0  3  0  0  0  0  0  0
  188.4560  174.0340  136.8440 C   0  0  0  0  0  0  0  0  0  0  0  0
  188.1400  176.3130  137.5940 C   0  0  0  0  0  3  0  0  0  0  0  0
  191.6440  175.3330  138.0730 F   0  0  0  0  0  0  0  0  0  0  0  0
  187.9410  172.8670  136.2980 O   0  0  0  0  0  1  0  0  0  0  0  0
  187.6210  175.1370  137.0450 C   0  0  0  0  0  3  0  0  0  0  0  0
  190.3290  175.2810  137.7410 C   0  0  0  0  0  0  0  0  0  0  0  0
  189.4970  176.3920  137.9470 C   0  0  0  0  0  0  0  0  0  0  0  0
  189.8070  174.1070  137.1910 C   0  0  0  0  0  3  0  0  0  0  0  0
  1 15  1  0  0  0  0
  1  9  2  0  0  0  0
  2  3  1  0  0  0  0
  3 20  2  0  0  0  0
  3  7  1  0  0  0  0
  4 16  1  0  0  0  0
  4 11  1  0  0  0  0
  5  2  1  0  0  0  0
  5 15  1  0  0  0  0
  6  1  1  0  0  0  0
  7  4  2  0  0  0  0
  8 13  1  0  0  0  0
 10 20  1  0  0  0  0
 12  8  2  0  0  0  0
 12 17  1  0  0  0  0
 13 19  1  0  0  0  0
 13  2  2  0  0  0  0
 14  8  1  0  0  0  0
 17  5  2  0  0  0  0
 18 17  1  0  0  0  0
 18  6  1  0  0  0  0
 19 10  2  0  0  0  0
 20 21  1  0  0  0  0
 21 16  2  0  0  0  0
 23 22  1  1  0  0  0
 23 14  1  0  0  0  0
 24 28  2  0  0  0  0
 24 31  1  0  0  0  0
 25 30  2  0  0  0  0
 27 24  1  0  0  0  0
 28 25  1  0  0  0  0
 29 30  1  0  0  0  0
 29 26  1  0  0  0  0
 30 23  1  0  0  0  0
 31 29  2  0  0  0  0
M  END
>  <MODEL>
4

>  <REMARK>
 VINA RESULT:      -9.8      1.283      4.057
  Name = 
  2 active torsions:
  status: ('A' for Active; 'I' for Inactive)
    1  A    between atoms: C_5  and  N_16
    2  A    between atoms: C_5  and  C_30
                            x       y       z     vdW  Elec       q    Type
                         _______ _______ _______ _____ _____    ______ ____

>  <TORSDO>
F 2

$$$$
=
 OpenBabel11122411083D

 31 35  0  0  1  0  0  0  0  0999 V2000
  184.4880  178.6670  144.8010 C   0  0  0  0  0  0  0  0  0  0  0  0
  188.0550  177.8710  143.7700 C   0  0  0  0  0  0  0  0  0  0  0  0
  188.7310  177.5330  144.9820 C   0  0  0  0  0  0  0  0  0  0  0  0
  188.7990  177.2840  147.4110 C   0  0  0  0  0  0  0  0  0  0  0  0
  186.7050  178.3160  143.7150 C   0  0  0  0  0  0  0  0  0  0  0  0
  183.8200  178.6280  143.4640 C   0  0  0  0  0  2  0  0  0  0  0  0
  188.1130  177.6210  146.2420 C   0  0  0  0  0  3  0  0  0  0  0  0
  188.1390  178.0790  141.3300 C   0  0  0  0  0  0  0  0  0  0  0  0
  183.8060  178.8390  145.8430 O   0  0  0  0  0  0  0  0  0  0  0  0
  190.7450  176.9840  143.7170 C   0  0  0  0  0  3  0  0  0  0  0  0
  188.1620  177.3810  148.6400 O   0  0  0  0  0  1  0  0  0  0  0  0
  186.8530  178.5160  141.3310 N   0  0  0  0  0  0  0  0  0  0  0  0
  188.7670  177.7520  142.5420 C   0  0  0  0  0  0  0  0  0  0  0  0
  188.8520  177.9710  140.0920 N   0  0  0  0  0  2  0  0  0  0  0  0
  185.8940  178.4400  144.8930 N   0  0  0  0  0  2  0  0  0  0  0  0
  190.1230  176.8510  147.3440 C   0  0  0  0  0  3  0  0  0  0  0  0
  186.1280  178.6300  142.4690 C   0  0  0  0  0  0  0  0  0  0  0  0
  184.7440  179.2090  142.3950 C   0  0  0  0  0  2  0  0  0  0  0  0
  190.0960  177.3120  142.5340 C   0  0  0  0  0  3  0  0  0  0  0  0
  190.0790  177.0900  144.9330 C   0  0  0  0  0  0  0  0  0  0  0  0
  190.7610  176.7540  146.1070 C   0  0  0  0  0  3  0  0  0  0  0  0
  186.7980  177.8150  138.7760 C   0  0  0  0  0  1  0  0  0  0  0  0
  188.2490  178.2680  138.8000 C   0  0  2  0  0  3  0  0  0  0  0  0
  190.4660  176.3790  135.6340 C   0  0  0  0  0  0  0  0  0  0  0  0
  190.0650  176.7150  137.9960 C   0  0  0  0  0  3  0  0  0  0  0  0
  187.7070  178.7420  136.0480 F   0  0  0  0  0  0  0  0  0  0  0  0
  191.1800  175.7710  134.6100 O   0  0  0  0  0  1  0  0  0  0  0  0
  190.7840  176.1020  136.9660 C   0  0  0  0  0  3  0  0  0  0  0  0
  188.7090  177.8820  136.3600 C   0  0  0  0  0  0  0  0  0  0  0  0
  189.0240  177.6090  137.7000 C   0  0  0  0  0  0  0  0  0  0  0  0
  189.4310  177.2670  135.3320 C   0  0  0  0  0  3  0  0  0  0  0  0
  1 15  1  0  0  0  0
  1  9  2  0  0  0  0
  2  3  1  0  0  0  0
  3  7  1  0  0  0  0
  4 11  1  0  0  0  0
  5  2  1  0  0  0  0
  5 15  1  0  0  0  0
  6  1  1  0  0  0  0
  7  4  2  0  0  0  0
  8 12  2  0  0  0  0
  8 13  1  0  0  0  0
 10 20  1  0  0  0  0
 12 17  1  0  0  0  0
 13  2  2  0  0  0  0
 14  8  1  0  0  0  0
 16  4  1  0  0  0  0
 17  5  2  0  0  0  0
 18 17  1  0  0  0  0
 18  6  1  0  0  0  0
 19 13  1  0  0  0  0
 19 10  2  0  0  0  0
 20  3  2  0  0  0  0
 20 21  1  0  0  0  0
 21 16  2  0  0  0  0
 23 22  1  1  0  0  0
 23 14  1  0  0  0  0
 24 28  1  0  0  0  0
 26 29  1  0  0  0  0
 27 24  1  0  0  0  0
 28 25  2  0  0  0  0
 29 30  2  0  0  0  0
 30 25  1  0  0  0  0
 30 23  1  0  0  0  0
 31 24  2  0  0  0  0
 31 29  1  0  0  0  0
M  END
>  <MODEL>
5

>  <REMARK>
 VINA RESULT:      -9.7      1.874      4.292
  Name = 
  2 active torsions:
  status: ('A' for Active; 'I' for Inactive)
    1  A    between atoms: C_5  and  N_16
    2  A    between atoms: C_5  and  C_30
                            x       y       z     vdW  Elec       q    Type
                         _______ _______ _______ _____ _____    ______ ____

>  <TORSDO>
F 2

$$$$
=
 OpenBabel11122411083D

 31 35  0  0  1  0  0  0  0  0999 V2000
  189.8010  177.0880  146.9910 C   0  0  0  0  0  0  0  0  0  0  0  0
  188.0330  177.6510  143.6770 C   0  0  0  0  0  0  0  0  0  0  0  0
  186.7190  178.0930  144.0210 C   0  0  0  0  0  0  0  0  0  0  0  0
  184.9770  178.5940  145.6580 C   0  0  0  0  0  0  0  0  0  0  0  0
  189.0070  177.2480  144.6330 C   0  0  0  0  0  0  0  0  0  0  0  0
  191.2160  177.0080  146.5160 C   0  0  0  0  0  2  0  0  0  0  0  0
  186.2680  178.1590  145.3510 C   0  0  0  0  0  3  0  0  0  0  0  0
  189.6770  177.1830  141.9210 C   0  0  0  0  0  0  0  0  0  0  0  0
  189.5440  177.0510  148.2220 O   0  0  0  0  0  0  0  0  0  0  0  0
  186.2060  178.4370  141.6600 C   0  0  0  0  0  3  0  0  0  0  0  0
  184.5610  178.6490  146.9810 O   0  0  0  0  0  1  0  0  0  0  0  0
  190.5660  176.7920  142.8700 N   0  0  0  0  0  0  0  0  0  0  0  0
  188.3960  177.6150  142.3010 C   0  0  0  0  0  0  0  0  0  0  0  0
  190.0460  177.1350  140.5370 N   0  0  0  0  0  2  0  0  0  0  0  0
  188.7490  177.2770  146.0440 N   0  0  0  0  0  2  0  0  0  0  0  0
  184.1070  178.9740  144.6370 C   0  0  0  0  0  3  0  0  0  0  0  0
  190.2760  176.8230  144.1920 C   0  0  0  0  0  0  0  0  0  0  0  0
  191.2810  176.2860  145.1710 C   0  0  0  0  0  2  0  0  0  0  0  0
  187.4810  178.0070  141.3170 C   0  0  0  0  0  3  0  0  0  0  0  0
  185.8190  178.4820  142.9950 C   0  0  0  0  0  0  0  0  0  0  0  0
  184.5280  178.9180  143.3080 C   0  0  0  0  0  3  0  0  0  0  0  0
  192.3740  177.8410  140.2990 C   0  0  0  0  0  1  0  0  0  0  0  0
  191.3670  176.7240  140.0820 C   0  0  2  0  0  3  0  0  0  0  0  0
  191.2430  175.5950  135.9320 C   0  0  0  0  0  0  0  0  0  0  0  0
  190.1230  176.4310  137.9080 C   0  0  0  0  0  3  0  0  0  0  0  0
  193.6460  175.7550  138.6830 F   0  0  0  0  0  0  0  0  0  0  0  0
  191.2050  175.2310  134.5940 O   0  0  0  0  0  1  0  0  0  0  0  0
  190.0850  176.0640  136.5600 C   0  0  0  0  0  3  0  0  0  0  0  0
  192.4780  175.8600  138.0000 C   0  0  0  0  0  0  0  0  0  0  0  0
  191.3190  176.3300  138.6370 C   0  0  0  0  0  0  0  0  0  0  0  0
  192.4360  175.4940  136.6510 C   0  0  0  0  0  3  0  0  0  0  0  0
  1  9  2  0  0  0  0
  2  3  1  0  0  0  0
  2  5  1  0  0  0  0
  3  7  1  0  0  0  0
  4 11  1  0  0  0  0
  5 15  1  0  0  0  0
  6  1  1  0  0  0  0
  7  4  2  0  0  0  0
  8 13  1  0  0  0  0
  8 12  2  0  0  0  0
 10 20  1  0  0  0  0
 12 17  1  0  0  0  0
 13  2  2  0  0  0  0
 14  8  1  0  0  0  0
 15  1  1  0  0  0  0
 16  4  1  0  0  0  0
 17  5  2  0  0  0  0
 17 18  1  0  0  0  0
 18  6  1  0  0  0  0
 19 10  2  0  0  0  0
 19 13  1  0  0  0  0
 20 21  1  0  0  0  0
 20  3  2  0  0  0  0
 21 16  2  0  0  0  0
 23 22  1  6  0  0  0
 23 14  1  0  0  0  0
 24 28  2  0  0  0  0
 24 31  1  0  0  0  0
 25 30  2  0  0  0  0
 27 24  1  0  0  0  0
 28 25  1  0  0  0  0
 29 30  1  0  0  0  0
 29 26  1  0  0  0  0
 30 23  1  0  0  0  0
 31 29  2  0  0  0  0
M  END
>  <MODEL>
6

>  <REMARK>
 VINA RESULT:      -9.6      1.629      2.163
  Name = 
  2 active torsions:
  status: ('A' for Active; 'I' for Inactive)
    1  A    between atoms: C_5  and  N_16
    2  A    between atoms: C_5  and  C_30
                            x       y       z     vdW  Elec       q    Type
                         _______ _______ _______ _____ _____    ______ ____

>  <TORSDO>
F 2

$$$$
=
 OpenBabel11122411083D

 31 35  0  0  1  0  0  0  0  0999 V2000
  190.0540  177.5670  140.9510 C   0  0  0  0  0  0  0  0  0  0  0  0
  186.6950  178.2520  142.5870 C   0  0  0  0  0  0  0  0  0  0  0  0
  186.9150  178.0740  143.9860 C   0  0  0  0  0  0  0  0  0  0  0  0
  188.3270  177.4620  145.8830 C   0  0  0  0  0  0  0  0  0  0  0  0
  187.6870  178.0120  141.5940 C   0  0  0  0  0  0  0  0  0  0  0  0
  189.8000  178.1400  139.5940 C   0  0  0  0  0  2  0  0  0  0  0  0
  188.1420  177.6300  144.5090 C   0  0  0  0  0  3  0  0  0  0  0  0
  185.1600  178.8880  140.7860 C   0  0  0  0  0  0  0  0  0  0  0  0
  191.1940  177.1270  141.2480 O   0  0  0  0  0  0  0  0  0  0  0  0
  184.6260  178.7880  144.4460 C   0  0  0  0  0  3  0  0  0  0  0  0
  189.5510  177.0230  146.3680 O   0  0  0  0  0  1  0  0  0  0  0  0
  186.1330  178.6280  139.8750 N   0  0  0  0  0  0  0  0  0  0  0  0
  185.4160  178.7030  142.1540 C   0  0  0  0  0  0  0  0  0  0  0  0
  183.8710  179.3320  140.3430 N   0  0  0  0  0  2  0  0  0  0  0  0
  189.0140  177.5850  141.9300 N   0  0  0  0  0  2  0  0  0  0  0  0
  187.2850  177.7370  146.7670 C   0  0  0  0  0  3  0  0  0  0  0  0
  187.3710  178.2140  140.2360 C   0  0  0  0  0  0  0  0  0  0  0  0
  188.3610  177.8600  139.1640 C   0  0  0  0  0  2  0  0  0  0  0  0
  184.4050  178.9630  143.0860 C   0  0  0  0  0  3  0  0  0  0  0  0
  185.8640  178.3470  144.9020 C   0  0  0  0  0  0  0  0  0  0  0  0
  186.0560  178.1790  146.2760 C   0  0  0  0  0  3  0  0  0  0  0  0
  182.5420  180.6980  138.8120 C   0  0  0  0  0  1  0  0  0  0  0  0
  183.5520  179.5680  138.9420 C   0  0  2  0  0  3  0  0  0  0  0  0
  182.0350  175.9700  137.1370 C   0  0  0  0  0  0  0  0  0  0  0  0
  183.6850  177.7390  137.2120 C   0  0  0  0  0  3  0  0  0  0  0  0
  181.2140  178.2460  139.8780 F   0  0  0  0  0  0  0  0  0  0  0  0
  181.5430  174.8090  136.5560 O   0  0  0  0  0  1  0  0  0  0  0  0
  183.1900  176.5700  136.6270 C   0  0  0  0  0  3  0  0  0  0  0  0
  181.8680  177.7080  138.8170 C   0  0  0  0  0  0  0  0  0  0  0  0
  183.0260  178.3160  138.3090 C   0  0  0  0  0  0  0  0  0  0  0  0
  181.3760  176.5390  138.2300 C   0  0  0  0  0  3  0  0  0  0  0  0
  1  9  2  0  0  0  0
  1 15  1  0  0  0  0
  2  3  1  0  0  0  0
  3  7  2  0  0  0  0
  3 20  1  0  0  0  0
  4 11  1  0  0  0  0
  4 16  2  0  0  0  0
  5 15  1  0  0  0  0
  5  2  1  0  0  0  0
  6  1  1  0  0  0  0
  7  4  1  0  0  0  0
  8 13  1  0  0  0  0
 10 20  1  0  0  0  0
 12 17  1  0  0  0  0
 12  8  2  0  0  0  0
 13  2  2  0  0  0  0
 13 19  1  0  0  0  0
 14  8  1  0  0  0  0
 17  5  2  0  0  0  0
 18  6  1  0  0  0  0
 18 17  1  0  0  0  0
 19 10  2  0  0  0  0
 20 21  2  0  0  0  0
 21 16  1  0  0  0  0
 23 22  1  1  0  0  0
 23 14  1  0  0  0  0
 24 31  1  0  0  0  0
 25 30  2  0  0  0  0
 27 24  1  0  0  0  0
 28 24  2  0  0  0  0
 28 25  1  0  0  0  0
 29 26  1  0  0  0  0
 30 29  1  0  0  0  0
 30 23  1  0  0  0  0
 31 29  2  0  0  0  0
M  END
>  <MODEL>
7

>  <REMARK>
 VINA RESULT:      -9.6      3.636      5.126
  Name = 
  2 active torsions:
  status: ('A' for Active; 'I' for Inactive)
    1  A    between atoms: C_5  and  N_16
    2  A    between atoms: C_5  and  C_30
                            x       y       z     vdW  Elec       q    Type
                         _______ _______ _______ _____ _____    ______ ____

>  <TORSDO>
F 2

$$$$
=
 OpenBabel11122411083D

 31 35  0  0  1  0  0  0  0  0999 V2000
  185.1690  178.5110  143.5950 C   0  0  0  0  0  0  0  0  0  0  0  0
  188.8380  177.5390  143.7320 C   0  0  0  0  0  0  0  0  0  0  0  0
  189.1400  177.4040  145.1220 C   0  0  0  0  0  0  0  0  0  0  0  0
  188.5310  177.5640  147.4820 C   0  0  0  0  0  0  0  0  0  0  0  0
  187.5770  177.9740  143.2360 C   0  0  0  0  0  0  0  0  0  0  0  0
  184.8890  178.2520  142.1490 C   0  0  0  0  0  2  0  0  0  0  0  0
  188.2070  177.7030  146.1310 C   0  0  0  0  0  3  0  0  0  0  0  0
  189.5930  177.3360  141.4100 C   0  0  0  0  0  0  0  0  0  0  0  0
  184.2380  178.8570  144.3670 O   0  0  0  0  0  0  0  0  0  0  0  0
  191.3920  176.6440  144.5680 C   0  0  0  0  0  3  0  0  0  0  0  0
  187.5890  177.8670  148.4550 O   0  0  0  0  0  1  0  0  0  0  0  0
  188.3790  177.7740  140.9860 N   0  0  0  0  0  0  0  0  0  0  0  0
  189.8500  177.2140  142.7850 C   0  0  0  0  0  0  0  0  0  0  0  0
  190.6100  177.0210  140.4520 N   0  0  0  0  0  2  0  0  0  0  0  0
  186.4840  178.2960  144.1080 N   0  0  0  0  0  2  0  0  0  0  0  0
  189.8000  177.1190  147.8540 C   0  0  0  0  0  3  0  0  0  0  0  0
  187.3780  178.0790  141.8460 C   0  0  0  0  0  0  0  0  0  0  0  0
  186.0970  178.6430  141.3000 C   0  0  0  0  0  2  0  0  0  0  0  0
  191.1070  176.7730  143.2150 C   0  0  0  0  0  3  0  0  0  0  0  0
  190.4260  176.9540  145.5200 C   0  0  0  0  0  0  0  0  0  0  0  0
  190.7440  176.8150  146.8740 C   0  0  0  0  0  3  0  0  0  0  0  0
  188.9400  176.8290  138.6770 C   0  0  0  0  0  1  0  0  0  0  0  0
  190.3980  177.1010  139.0130 C   0  0  2  0  0  3  0  0  0  0  0  0
  192.9760  174.3310  136.9680 C   0  0  0  0  0  0  0  0  0  0  0  0
  190.7500  175.0540  137.5840 C   0  0  0  0  0  3  0  0  0  0  0  0
  193.2320  177.3400  139.0270 F   0  0  0  0  0  0  0  0  0  0  0  0
  193.8100  173.4380  136.3090 O   0  0  0  0  0  1  0  0  0  0  0  0
  191.5900  174.1550  136.9210 C   0  0  0  0  0  3  0  0  0  0  0  0
  192.6840  176.3040  138.3420 C   0  0  0  0  0  0  0  0  0  0  0  0
  191.2920  176.1330  138.3000 C   0  0  0  0  0  0  0  0  0  0  0  0
  193.5210  175.4030  137.6770 C   0  0  0  0  0  3  0  0  0  0  0  0
  1 15  1  0  0  0  0
  1  9  2  0  0  0  0
  2  3  1  0  0  0  0
  3 20  2  0  0  0  0
  3  7  1  0  0  0  0
  4 16  1  0  0  0  0
  4 11  1  0  0  0  0
  5  2  1  0  0  0  0
  5 15  1  0  0  0  0
  6  1  1  0  0  0  0
  7  4  2  0  0  0  0
  8 13  1  0  0  0  0
 10 20  1  0  0  0  0
 12  8  2  0  0  0  0
 12 17  1  0  0  0  0
 13 19  1  0  0  0  0
 13  2  2  0  0  0  0
 14  8  1  0  0  0  0
 17  5  2  0  0  0  0
 18 17  1  0  0  0  0
 18  6  1  0  0  0  0
 19 10  2  0  0  0  0
 20 21  1  0  0  0  0
 21 16  2  0  0  0  0
 23 22  1  1  0  0  0
 23 14  1  0  0  0  0
 24 31  1  0  0  0  0
 25 30  2  0  0  0  0
 27 24  1  0  0  0  0
 28 24  2  0  0  0  0
 28 25  1  0  0  0  0
 29 26  1  0  0  0  0
 30 29  1  0  0  0  0
 30 23  1  0  0  0  0
 31 29  2  0  0  0  0
M  END
>  <MODEL>
8

>  <REMARK>
 VINA RESULT:      -9.6      1.887      4.334
  Name = 
  2 active torsions:
  status: ('A' for Active; 'I' for Inactive)
    1  A    between atoms: C_5  and  N_16
    2  A    between atoms: C_5  and  C_30
                            x       y       z     vdW  Elec       q    Type
                         _______ _______ _______ _____ _____    ______ ____

>  <TORSDO>
F 2

$$$$
=
 OpenBabel11122411083D

 31 35  0  0  1  0  0  0  0  0999 V2000
  191.1660  176.6850  144.8460 C   0  0  0  0  0  0  0  0  0  0  0  0
  187.7690  177.8340  143.5950 C   0  0  0  0  0  0  0  0  0  0  0  0
  187.0130  178.1250  144.7710 C   0  0  0  0  0  0  0  0  0  0  0  0
  186.7460  178.1830  147.1980 C   0  0  0  0  0  0  0  0  0  0  0  0
  189.0850  177.2920  143.6150 C   0  0  0  0  0  0  0  0  0  0  0  0
  191.9520  176.7800  143.5770 C   0  0  0  0  0  2  0  0  0  0  0  0
  187.5080  177.8890  146.0660 C   0  0  0  0  0  3  0  0  0  0  0  0
  187.8890  177.8300  141.1470 C   0  0  0  0  0  0  0  0  0  0  0  0
  191.7390  176.3790  145.9230 O   0  0  0  0  0  0  0  0  0  0  0  0
  185.1630  178.9270  143.3950 C   0  0  0  0  0  3  0  0  0  0  0  0
  187.2630  177.9390  148.4630 O   0  0  0  0  0  1  0  0  0  0  0  0
  189.1360  177.2960  141.2180 N   0  0  0  0  0  0  0  0  0  0  0  0
  187.1800  178.1050  142.3270 C   0  0  0  0  0  0  0  0  0  0  0  0
  187.2990  178.0910  139.8680 N   0  0  0  0  0  2  0  0  0  0  0  0
  189.7760  177.0120  144.8400 N   0  0  0  0  0  2  0  0  0  0  0  0
  185.4670  178.7210  147.0590 C   0  0  0  0  0  3  0  0  0  0  0  0
  189.7470  177.0350  142.3980 C   0  0  0  0  0  0  0  0  0  0  0  0
  191.0890  176.3590  142.3900 C   0  0  0  0  0  2  0  0  0  0  0  0
  185.8910  178.6460  142.2470 C   0  0  0  0  0  3  0  0  0  0  0  0
  185.7090  178.6730  144.6490 C   0  0  0  0  0  0  0  0  0  0  0  0
  184.9510  178.9650  145.7860 C   0  0  0  0  0  3  0  0  0  0  0  0
  188.7150  179.1120  138.1570 C   0  0  0  0  0  1  0  0  0  0  0  0
  187.9930  177.8530  138.6100 C   0  0  2  0  0  3  0  0  0  0  0  0
  185.2260  176.5320  135.5920 C   0  0  0  0  0  0  0  0  0  0  0  0
  185.6580  177.6890  137.6730 C   0  0  0  0  0  3  0  0  0  0  0  0
  188.8040  176.3670  136.3240 F   0  0  0  0  0  0  0  0  0  0  0  0
  184.3360  176.1050  134.6170 O   0  0  0  0  0  1  0  0  0  0  0  0
  184.7610  177.2590  136.6910 C   0  0  0  0  0  3  0  0  0  0  0  0
  187.4860  176.6650  136.4540 C   0  0  0  0  0  0  0  0  0  0  0  0
  187.0260  177.3940  137.5620 C   0  0  0  0  0  0  0  0  0  0  0  0
  186.5860  176.2360  135.4740 C   0  0  0  0  0  3  0  0  0  0  0  0
  1  9  2  0  0  0  0
  2  5  1  0  0  0  0
  2  3  1  0  0  0  0
  3  7  1  0  0  0  0
  4 11  1  0  0  0  0
  5 15  1  0  0  0  0
  6  1  1  0  0  0  0
  7  4  2  0  0  0  0
  8 12  2  0  0  0  0
  8 13  1  0  0  0  0
 10 20  1  0  0  0  0
 12 17  1  0  0  0  0
 13  2  2  0  0  0  0
 14  8  1  0  0  0  0
 15  1  1  0  0  0  0
 16  4  1  0  0  0  0
 17  5  2  0  0  0  0
 18 17  1  0  0  0  0
 18  6  1  0  0  0  0
 19 13  1  0  0  0  0
 19 10  2  0  0  0  0
 20  3  2  0  0  0  0
 20 21  1  0  0  0  0
 21 16  2  0  0  0  0
 23 22  1  6  0  0  0
 23 14  1  0  0  0  0
 24 28  1  0  0  0  0
 26 29  1  0  0  0  0
 27 24  1  0  0  0  0
 28 25  2  0  0  0  0
 29 30  2  0  0  0  0
 30 25  1  0  0  0  0
 30 23  1  0  0  0  0
 31 24  2  0  0  0  0
 31 29  1  0  0  0  0
M  END
>  <MODEL>
9

>  <REMARK>
 VINA RESULT:      -9.5      2.031      2.502
  Name = 
  2 active torsions:
  status: ('A' for Active; 'I' for Inactive)
    1  A    between atoms: C_5  and  N_16
    2  A    between atoms: C_5  and  C_30
                            x       y       z     vdW  Elec       q    Type
                         _______ _______ _______ _____ _____    ______ ____

>  <TORSDO>
F 2

$$$$
