=
 OpenBabel11122411533D

 28 31  0  0  1  0  0  0  0  0999 V2000
  181.2580  178.8460  138.3510 C   0  0  0  0  0  0  0  0  0  0  0  0
  184.6500  180.0210  138.9560 O   0  0  0  0  0  0  0  0  0  0  0  0
  180.4470  179.0660  141.0260 C   0  0  0  0  0  3  0  0  0  0  0  0
  181.6670  178.7660  136.9130 C   0  0  0  0  0  2  0  0  0  0  0  0
  185.4590  178.1290  140.3050 O   0  0  0  0  0  0  0  0  0  0  0  0
  185.1650  178.6100  138.9110 S   0  0  0  0  0  0  0  0  0  0  0  0
  186.4890  177.6860  136.6710 C   0  0  0  0  0  0  0  0  0  0  0  0
  184.0030  177.5840  138.1390 N   0  0  1  0  0  0  0  0  0  0  0  0
  178.9320  176.9900  137.1780 C   0  0  0  0  0  1  0  0  0  0  0  0
  182.6020  175.6820  138.5640 C   0  0  2  0  0  3  0  0  0  0  0  0
  185.6100  176.6690  136.5990 C   0  0  0  0  0  3  0  0  0  0  0  0
  186.6610  178.5360  137.9170 C   0  0  0  0  0  2  0  0  0  0  0  0
  180.0210  176.9730  136.2050 N   0  0  0  0  0  0  0  0  0  0  0  0
  181.8840  178.0570  139.3460 C   0  0  0  0  0  0  0  0  0  0  0  0
  187.3700  177.9530  135.5010 C   0  0  0  0  0  1  0  0  0  0  0  0
  181.0970  176.0070  136.4980 C   0  0  0  0  0  2  0  0  0  0  0  0
  181.4600  178.1720  140.6760 C   0  0  0  0  0  3  0  0  0  0  0  0
  180.2540  179.7530  138.7180 C   0  0  0  0  0  3  0  0  0  0  0  0
  179.8470  179.8600  140.0490 C   0  0  0  0  0  3  0  0  0  0  0  0
  180.5190  178.3370  135.9880 C   0  0  0  0  0  2  0  0  0  0  0  0
  183.7010  175.2930  137.5780 C   0  0  1  0  0  3  0  0  0  0  0  0
  181.1880  175.5620  137.9680 C   0  0  1  0  0  3  0  0  0  0  0  0
  184.7280  176.3860  137.7720 C   0  0  2  0  0  3  0  0  0  0  0  0
  183.0020  177.0800  139.0670 C   0  0  2  0  0  3  0  0  0  0  0  0
  180.0030  174.2150  139.2680 C   0  0  0  0  0  1  0  0  0  0  0  0
  180.7400  174.2440  138.0820 O   0  0  0  0  0  0  0  0  0  0  0  0
  184.2460  174.0580  137.9350 O   0  0  0  0  0  0  0  0  0  0  0  0
  183.9510  173.2160  136.8630 C   0  0  0  0  0  1  0  0  0  0  0  0
  1 18  2  0  0  0  0
  1 14  1  0  0  0  0
  4  1  1  0  0  0  0
  6  2  2  0  0  0  0
  6  5  2  0  0  0  0
  7 12  1  0  0  0  0
  8  6  1  1  0  0  0
  8 24  1  0  0  0  0
 10 24  1  0  0  0  0
 11  7  2  0  0  0  0
 11 23  1  0  0  0  0
 12  6  1  0  0  0  0
 13 16  1  0  0  0  0
 13  9  1  0  0  0  0
 14 17  2  0  0  0  0
 15  7  1  0  0  0  0
 16 22  1  0  0  0  0
 17  3  1  0  0  0  0
 18 19  1  0  0  0  0
 19  3  2  0  0  0  0
 20 13  1  0  0  0  0
 20  4  1  0  0  0  0
 21 23  1  0  0  0  0
 21 27  1  0  0  0  0
 21 10  1  0  0  0  0
 22 26  1  0  0  0  0
 22 10  1  0  0  0  0
 23  8  1  0  0  0  0
 24 14  1  0  0  0  0
 26 25  1  0  0  0  0
 28 27  1  0  0  0  0
M  END
>  <MODEL>
1

>  <REMARK>
 VINA RESULT:      -4.5      0.000      0.000
  Name = 
  2 active torsions:
  status: ('A' for Active; 'I' for Inactive)
    1  A    between atoms: O_5  and  C_24
    2  A    between atoms: O_17  and  C_25
                            x       y       z     vdW  Elec       q    Type
                         _______ _______ _______ _____ _____    ______ ____

>  <TORSDO>
F 2

$$$$
=
 OpenBabel11122411533D

 28 31  0  0  1  0  0  0  0  0999 V2000
  183.0150  175.8830  138.3420 C   0  0  0  0  0  0  0  0  0  0  0  0
  184.3150  177.3440  141.4120 O   0  0  0  0  0  0  0  0  0  0  0  0
  185.3040  176.4430  136.8220 C   0  0  0  0  0  3  0  0  0  0  0  0
  181.8060  175.5400  139.1550 C   0  0  0  0  0  2  0  0  0  0  0  0
  184.3750  179.6990  140.7020 O   0  0  0  0  0  0  0  0  0  0  0  0
  183.4940  178.5830  141.1900 S   0  0  0  0  0  0  0  0  0  0  0  0
  181.1800  178.9940  142.6420 C   0  0  0  0  0  0  0  0  0  0  0  0
  182.2290  178.2550  140.0530 N   0  0  1  0  0  0  0  0  0  0  0  0
  180.9020  175.2560  136.0230 C   0  0  0  0  0  1  0  0  0  0  0  0
  181.4390  178.9110  137.8840 C   0  0  2  0  0  3  0  0  0  0  0  0
  180.5070  179.1360  141.4850 C   0  0  0  0  0  3  0  0  0  0  0  0
  182.6940  179.0700  142.7260 C   0  0  0  0  0  2  0  0  0  0  0  0
  180.1370  175.4760  137.2470 N   0  0  0  0  0  0  0  0  0  0  0  0
  183.4060  177.2260  138.1230 C   0  0  0  0  0  0  0  0  0  0  0  0
  180.4070  178.8120  143.9010 C   0  0  0  0  0  1  0  0  0  0  0  0
  179.8690  176.8920  137.5640 C   0  0  0  0  0  2  0  0  0  0  0  0
  184.5460  177.4880  137.3530 C   0  0  0  0  0  3  0  0  0  0  0  0
  183.7930  174.8420  137.8180 C   0  0  0  0  0  3  0  0  0  0  0  0
  184.9310  175.1200  137.0580 C   0  0  0  0  0  3  0  0  0  0  0  0
  180.7570  174.7480  138.3620 C   0  0  0  0  0  2  0  0  0  0  0  0
  180.4510  179.3830  138.9490 C   0  0  1  0  0  3  0  0  0  0  0  0
  180.8260  177.8980  136.9000 C   0  0  1  0  0  3  0  0  0  0  0  0
  181.2730  179.3300  140.2160 C   0  0  2  0  0  3  0  0  0  0  0  0
  182.6640  178.4210  138.6740 C   0  0  2  0  0  3  0  0  0  0  0  0
  181.1560  179.0940  135.0650 C   0  0  0  0  0  1  0  0  0  0  0  0
  180.1500  178.5800  135.8850 O   0  0  0  0  0  0  0  0  0  0  0  0
  180.0610  180.6980  138.6880 O   0  0  0  0  0  0  0  0  0  0  0  0
  181.2460  181.3610  138.3640 C   0  0  0  0  0  1  0  0  0  0  0  0
  1  4  1  0  0  0  0
  3 19  2  0  0  0  0
  3 17  1  0  0  0  0
  5  6  2  0  0  0  0
  6  2  2  0  0  0  0
  6 12  1  0  0  0  0
  7 12  1  0  0  0  0
  7 15  1  0  0  0  0
  8 23  1  0  0  0  0
  8  6  1  1  0  0  0
  9 13  1  0  0  0  0
 10 24  1  0  0  0  0
 10 21  1  0  0  0  0
 11  7  2  0  0  0  0
 13 16  1  0  0  0  0
 13 20  1  0  0  0  0
 14  1  1  0  0  0  0
 14 24  1  0  0  0  0
 17 14  2  0  0  0  0
 18  1  2  0  0  0  0
 19 18  1  0  0  0  0
 20  4  1  0  0  0  0
 21 23  1  0  0  0  0
 22 16  1  0  0  0  0
 22 10  1  0  0  0  0
 23 11  1  0  0  0  0
 24  8  1  0  0  0  0
 25 26  1  0  0  0  0
 26 22  1  0  0  0  0
 27 21  1  0  0  0  0
 28 27  1  0  0  0  0
M  END
>  <MODEL>
2

>  <REMARK>
 VINA RESULT:      -4.5      1.960      5.424
  Name = 
  2 active torsions:
  status: ('A' for Active; 'I' for Inactive)
    1  A    between atoms: O_5  and  C_24
    2  A    between atoms: O_17  and  C_25
                            x       y       z     vdW  Elec       q    Type
                         _______ _______ _______ _____ _____    ______ ____

>  <TORSDO>
F 2

$$$$
=
 OpenBabel11122411533D

 28 31  0  0  1  0  0  0  0  0999 V2000
  182.5760  176.0580  138.6590 C   0  0  0  0  0  0  0  0  0  0  0  0
  185.2090  177.4180  140.7720 O   0  0  0  0  0  0  0  0  0  0  0  0
  183.8690  176.6620  136.2460 C   0  0  0  0  0  3  0  0  0  0  0  0
  181.8960  175.6920  139.9420 C   0  0  0  0  0  2  0  0  0  0  0  0
  184.9630  179.7940  140.1840 O   0  0  0  0  0  0  0  0  0  0  0  0
  184.4040  178.6650  141.0040 S   0  0  0  0  0  0  0  0  0  0  0  0
  183.0730  179.0340  143.3960 C   0  0  0  0  0  0  0  0  0  0  0  0
  182.7440  178.3750  140.6020 N   0  0  1  0  0  0  0  0  0  0  0  0
  179.6010  175.5100  137.6180 C   0  0  0  0  0  1  0  0  0  0  0  0
  181.0240  179.1020  139.0940 C   0  0  2  0  0  3  0  0  0  0  0  0
  181.9310  179.2140  142.7060 C   0  0  0  0  0  3  0  0  0  0  0  0
  184.4440  179.1040  142.7480 C   0  0  0  0  0  2  0  0  0  0  0  0
  179.5180  175.6920  139.0640 N   0  0  0  0  0  0  0  0  0  0  0  0
  182.8370  177.4060  138.3170 C   0  0  0  0  0  0  0  0  0  0  0  0
  182.9920  178.8120  144.8660 C   0  0  0  0  0  1  0  0  0  0  0  0
  179.4580  177.0980  139.5090 C   0  0  0  0  0  2  0  0  0  0  0  0
  183.4750  177.6900  137.1030 C   0  0  0  0  0  3  0  0  0  0  0  0
  182.9910  175.0320  137.7990 C   0  0  0  0  0  3  0  0  0  0  0  0
  183.6310  175.3320  136.5950 C   0  0  0  0  0  3  0  0  0  0  0  0
  180.5830  174.9280  139.7260 C   0  0  0  0  0  2  0  0  0  0  0  0
  180.6740  179.5420  140.5140 C   0  0  1  0  0  3  0  0  0  0  0  0
  179.9980  178.1230  138.4960 C   0  0  1  0  0  3  0  0  0  0  0  0
  182.0010  179.4470  141.2310 C   0  0  2  0  0  3  0  0  0  0  0  0
  182.4700  178.5850  139.1880 C   0  0  2  0  0  3  0  0  0  0  0  0
  179.5000  179.6100  136.9310 C   0  0  0  0  0  1  0  0  0  0  0  0
  178.9320  178.8380  137.9460 O   0  0  0  0  0  0  0  0  0  0  0  0
  180.2300  180.8650  140.5070 O   0  0  0  0  0  0  0  0  0  0  0  0
  179.1070  180.8680  141.3360 C   0  0  0  0  0  1  0  0  0  0  0  0
  1  4  1  0  0  0  0
  2  6  2  0  0  0  0
  3 19  2  0  0  0  0
  3 17  1  0  0  0  0
  5  6  2  0  0  0  0
  6 12  1  0  0  0  0
  7 15  1  0  0  0  0
  8  6  1  6  0  0  0
  8 23  1  0  0  0  0
  9 13  1  0  0  0  0
 10 24  1  0  0  0  0
 10 21  1  0  0  0  0
 11  7  2  0  0  0  0
 12  7  1  0  0  0  0
 13 16  1  0  0  0  0
 13 20  1  0  0  0  0
 14  1  1  0  0  0  0
 14 24  1  0  0  0  0
 17 14  2  0  0  0  0
 18  1  2  0  0  0  0
 19 18  1  0  0  0  0
 20  4  1  0  0  0  0
 21 23  1  0  0  0  0
 22 10  1  0  0  0  0
 22 16  1  0  0  0  0
 23 11  1  0  0  0  0
 24  8  1  0  0  0  0
 25 26  1  0  0  0  0
 26 22  1  0  0  0  0
 27 21  1  0  0  0  0
 27 28  1  0  0  0  0
M  END
>  <MODEL>
3

>  <REMARK>
 VINA RESULT:      -4.1      2.369      5.398
  Name = 
  2 active torsions:
  status: ('A' for Active; 'I' for Inactive)
    1  A    between atoms: O_5  and  C_24
    2  A    between atoms: O_17  and  C_25
                            x       y       z     vdW  Elec       q    Type
                         _______ _______ _______ _____ _____    ______ ____

>  <TORSDO>
F 2

$$$$
=
 OpenBabel11122411533D

 28 31  0  0  1  0  0  0  0  0999 V2000
  180.9050  176.4160  137.3150 C   0  0  0  0  0  0  0  0  0  0  0  0
  178.9310  178.9130  139.0820 O   0  0  0  0  0  0  0  0  0  0  0  0
  180.4470  174.3800  139.1870 C   0  0  0  0  0  3  0  0  0  0  0  0
  181.1190  177.4830  136.2870 C   0  0  0  0  0  2  0  0  0  0  0  0
  180.3580  179.1720  141.0680 O   0  0  0  0  0  0  0  0  0  0  0  0
  180.1820  179.5450  139.6220 S   0  0  0  0  0  0  0  0  0  0  0  0
  181.1340  181.8950  138.5270 C   0  0  0  0  0  0  0  0  0  0  0  0
  181.5480  179.0400  138.6850 N   0  0  1  0  0  0  0  0  0  0  0  0
  183.3890  175.1990  135.7100 C   0  0  0  0  0  1  0  0  0  0  0  0
  183.6190  177.8440  138.8810 C   0  0  2  0  0  3  0  0  0  0  0  0
  182.3190  181.2890  138.3170 C   0  0  0  0  0  3  0  0  0  0  0  0
  180.0800  181.3340  139.4650 C   0  0  0  0  0  2  0  0  0  0  0  0
  183.3200  176.6180  135.3730 N   0  0  0  0  0  0  0  0  0  0  0  0
  181.3680  176.5620  138.6440 C   0  0  0  0  0  0  0  0  0  0  0  0
  180.8690  183.1970  137.8580 C   0  0  0  0  0  1  0  0  0  0  0  0
  183.9660  177.5180  136.3480 C   0  0  0  0  0  2  0  0  0  0  0  0
  181.1400  175.5310  139.5640 C   0  0  0  0  0  3  0  0  0  0  0  0
  180.1950  175.2630  136.9520 C   0  0  0  0  0  3  0  0  0  0  0  0
  179.9700  174.2470  137.8830 C   0  0  0  0  0  3  0  0  0  0  0  0
  181.9320  176.9950  135.0800 C   0  0  0  0  0  2  0  0  0  0  0  0
  183.9080  179.3220  138.6290 C   0  0  1  0  0  3  0  0  0  0  0  0
  184.1410  176.9280  137.7590 C   0  0  1  0  0  3  0  0  0  0  0  0
  182.6000  179.9860  138.9920 C   0  0  2  0  0  3  0  0  0  0  0  0
  182.1070  177.7790  139.1510 C   0  0  2  0  0  3  0  0  0  0  0  0
  186.1780  177.3990  137.0290 C   0  0  0  0  0  1  0  0  0  0  0  0
  185.4900  176.6400  137.9770 O   0  0  0  0  0  0  0  0  0  0  0  0
  184.9200  179.7630  139.4840 O   0  0  0  0  0  0  0  0  0  0  0  0
  184.7670  178.9950  140.6400 C   0  0  0  0  0  1  0  0  0  0  0  0
  1 14  1  0  0  0  0
  2  6  2  0  0  0  0
  3 17  1  0  0  0  0
  4  1  1  0  0  0  0
  6  5  2  0  0  0  0
  7 12  1  0  0  0  0
  8 23  1  0  0  0  0
  8 24  1  0  0  0  0
  8  6  1  1  0  0  0
 10 24  1  0  0  0  0
 11  7  2  0  0  0  0
 11 23  1  0  0  0  0
 12  6  1  0  0  0  0
 13  9  1  0  0  0  0
 13 16  1  0  0  0  0
 14 24  1  0  0  0  0
 14 17  2  0  0  0  0
 15  7  1  0  0  0  0
 16 22  1  0  0  0  0
 18  1  2  0  0  0  0
 18 19  1  0  0  0  0
 19  3  2  0  0  0  0
 20 13  1  0  0  0  0
 20  4  1  0  0  0  0
 21 10  1  0  0  0  0
 21 23  1  0  0  0  0
 21 27  1  0  0  0  0
 22 26  1  0  0  0  0
 22 10  1  0  0  0  0
 25 26  1  0  0  0  0
 27 28  1  0  0  0  0
M  END
>  <MODEL>
4

>  <REMARK>
 VINA RESULT:      -4.0      2.469      4.954
  Name = 
  2 active torsions:
  status: ('A' for Active; 'I' for Inactive)
    1  A    between atoms: O_5  and  C_24
    2  A    between atoms: O_17  and  C_25
                            x       y       z     vdW  Elec       q    Type
                         _______ _______ _______ _____ _____    ______ ____

>  <TORSDO>
F 2

$$$$
=
 OpenBabel11122411533D

 28 31  0  0  1  0  0  0  0  0999 V2000
  183.0870  177.4630  137.9260 C   0  0  0  0  0  0  0  0  0  0  0  0
  181.5820  178.6400  134.8270 O   0  0  0  0  0  0  0  0  0  0  0  0
  182.0290  174.8730  137.7380 C   0  0  0  0  0  3  0  0  0  0  0  0
  183.6930  178.8290  138.0140 C   0  0  0  0  0  2  0  0  0  0  0  0
  179.2220  178.5750  135.5170 O   0  0  0  0  0  0  0  0  0  0  0  0
  180.5070  179.3510  135.5990 S   0  0  0  0  0  0  0  0  0  0  0  0
  180.6130  182.0910  135.9260 C   0  0  0  0  0  0  0  0  0  0  0  0
  181.0010  179.5510  137.2470 N   0  0  1  0  0  0  0  0  0  0  0  0
  183.9660  177.5230  141.0010 C   0  0  0  0  0  1  0  0  0  0  0  0
  180.3840  178.9240  139.4800 C   0  0  2  0  0  3  0  0  0  0  0  0
  180.5340  181.9110  137.2580 C   0  0  0  0  0  3  0  0  0  0  0  0
  180.2620  181.0010  134.9290 C   0  0  0  0  0  2  0  0  0  0  0  0
  183.9600  178.9070  140.5330 N   0  0  0  0  0  0  0  0  0  0  0  0
  181.6850  177.2690  137.9530 C   0  0  0  0  0  0  0  0  0  0  0  0
  181.0050  183.4300  135.4070 C   0  0  0  0  0  1  0  0  0  0  0  0
  182.6380  179.5620  140.5550 C   0  0  0  0  0  2  0  0  0  0  0  0
  181.1740  175.9680  137.8680 C   0  0  0  0  0  3  0  0  0  0  0  0
  183.9360  176.3580  137.7770 C   0  0  0  0  0  3  0  0  0  0  0  0
  183.4100  175.0670  137.6880 C   0  0  0  0  0  3  0  0  0  0  0  0
  184.6210  178.9950  139.2250 C   0  0  0  0  0  2  0  0  0  0  0  0
  180.1630  180.4240  139.2940 C   0  0  1  0  0  3  0  0  0  0  0  0
  181.4360  178.6000  140.5560 C   0  0  1  0  0  3  0  0  0  0  0  0
  180.1320  180.5740  137.7900 C   0  0  2  0  0  3  0  0  0  0  0  0
  180.6810  178.3930  138.0680 C   0  0  2  0  0  3  0  0  0  0  0  0
  179.7690  177.7130  141.7140 C   0  0  0  0  0  1  0  0  0  0  0  0
  180.8370  178.6070  141.8170 O   0  0  0  0  0  0  0  0  0  0  0  0
  178.9310  180.7950  139.8350 O   0  0  0  0  0  0  0  0  0  0  0  0
  179.2510  181.5630  140.9550 C   0  0  0  0  0  1  0  0  0  0  0  0
  1 14  1  0  0  0  0
  1  4  1  0  0  0  0
  2  6  2  0  0  0  0
  3 17  1  0  0  0  0
  4 20  1  0  0  0  0
  5  6  2  0  0  0  0
  7 11  2  0  0  0  0
  8  6  1  6  0  0  0
  8 23  1  0  0  0  0
  8 24  1  0  0  0  0
 10 22  1  0  0  0  0
 11 23  1  0  0  0  0
 12  6  1  0  0  0  0
 12  7  1  0  0  0  0
 13 16  1  0  0  0  0
 13  9  1  0  0  0  0
 14 24  1  0  0  0  0
 15  7  1  0  0  0  0
 16 22  1  0  0  0  0
 17 14  2  0  0  0  0
 18  1  2  0  0  0  0
 19  3  2  0  0  0  0
 19 18  1  0  0  0  0
 20 13  1  0  0  0  0
 21 10  1  0  0  0  0
 21 27  1  0  0  0  0
 22 26  1  0  0  0  0
 23 21  1  0  0  0  0
 24 10  1  0  0  0  0
 25 26  1  0  0  0  0
 27 28  1  0  0  0  0
M  END
>  <MODEL>
5

>  <REMARK>
 VINA RESULT:      -3.9      3.003      5.951
  Name = 
  2 active torsions:
  status: ('A' for Active; 'I' for Inactive)
    1  A    between atoms: O_5  and  C_24
    2  A    between atoms: O_17  and  C_25
                            x       y       z     vdW  Elec       q    Type
                         _______ _______ _______ _____ _____    ______ ____

>  <TORSDO>
F 2

$$$$
=
 OpenBabel11122411533D

 28 31  0  0  1  0  0  0  0  0999 V2000
  180.4630  178.1500  138.5420 C   0  0  0  0  0  0  0  0  0  0  0  0
  180.5020  175.7720  135.7860 O   0  0  0  0  0  0  0  0  0  0  0  0
  179.8270  180.3630  136.9410 C   0  0  0  0  0  3  0  0  0  0  0  0
  180.7600  176.9690  139.4120 C   0  0  0  0  0  2  0  0  0  0  0  0
  182.4780  176.6230  134.5930 O   0  0  0  0  0  0  0  0  0  0  0  0
  182.0040  175.8010  135.7590 S   0  0  0  0  0  0  0  0  0  0  0  0
  183.4520  173.7110  136.8390 C   0  0  0  0  0  0  0  0  0  0  0  0
  182.6060  176.4430  137.2510 N   0  0  1  0  0  0  0  0  0  0  0  0
  181.4630  179.6140  141.2050 C   0  0  0  0  0  1  0  0  0  0  0  0
  183.8790  178.2800  138.1250 C   0  0  2  0  0  3  0  0  0  0  0  0
  184.1050  174.5960  137.6160 C   0  0  0  0  0  3  0  0  0  0  0  0
  182.6450  174.1260  135.6210 C   0  0  0  0  0  2  0  0  0  0  0  0
  181.9100  178.2260  141.2890 N   0  0  0  0  0  0  0  0  0  0  0  0
  181.3630  178.5750  137.5350 C   0  0  0  0  0  0  0  0  0  0  0  0
  183.5720  172.2610  137.1510 C   0  0  0  0  0  1  0  0  0  0  0  0
  183.1700  177.9370  140.5780 C   0  0  0  0  0  2  0  0  0  0  0  0
  181.0340  179.6880  136.7510 C   0  0  0  0  0  3  0  0  0  0  0  0
  179.2460  178.8250  138.7110 C   0  0  0  0  0  3  0  0  0  0  0  0
  178.9310  179.9290  137.9170 C   0  0  0  0  0  3  0  0  0  0  0  0
  180.8170  177.3240  140.9040 C   0  0  0  0  0  2  0  0  0  0  0  0
  184.6790  176.9880  138.2800 C   0  0  1  0  0  3  0  0  0  0  0  0
  183.5360  178.9420  139.4710 C   0  0  1  0  0  3  0  0  0  0  0  0
  184.0000  176.0540  137.3050 C   0  0  2  0  0  3  0  0  0  0  0  0
  182.6810  177.8960  137.2410 C   0  0  2  0  0  3  0  0  0  0  0  0
  185.1920  179.0090  140.9410 C   0  0  0  0  0  1  0  0  0  0  0  0
  184.6100  179.7290  139.8950 O   0  0  0  0  0  0  0  0  0  0  0  0
  186.0040  177.1990  137.8940 O   0  0  0  0  0  0  0  0  0  0  0  0
  185.9400  177.4310  136.5190 C   0  0  0  0  0  1  0  0  0  0  0  0
  1 18  1  0  0  0  0
  1  4  1  0  0  0  0
  3 19  1  0  0  0  0
  4 20  1  0  0  0  0
  5  6  2  0  0  0  0
  6  2  2  0  0  0  0
  7 15  1  0  0  0  0
  7 11  2  0  0  0  0
  8  6  1  6  0  0  0
  8 23  1  0  0  0  0
  9 13  1  0  0  0  0
 10 21  1  0  0  0  0
 10 22  1  0  0  0  0
 12  6  1  0  0  0  0
 12  7  1  0  0  0  0
 14  1  2  0  0  0  0
 16 13  1  0  0  0  0
 17  3  2  0  0  0  0
 17 14  1  0  0  0  0
 19 18  2  0  0  0  0
 20 13  1  0  0  0  0
 22 26  1  0  0  0  0
 22 16  1  0  0  0  0
 23 11  1  0  0  0  0
 23 21  1  0  0  0  0
 24  8  1  0  0  0  0
 24 14  1  0  0  0  0
 24 10  1  0  0  0  0
 26 25  1  0  0  0  0
 27 21  1  0  0  0  0
 28 27  1  0  0  0  0
M  END
>  <MODEL>
6

>  <REMARK>
 VINA RESULT:      -3.8      2.156      4.577
  Name = 
  2 active torsions:
  status: ('A' for Active; 'I' for Inactive)
    1  A    between atoms: O_5  and  C_24
    2  A    between atoms: O_17  and  C_25
                            x       y       z     vdW  Elec       q    Type
                         _______ _______ _______ _____ _____    ______ ____

>  <TORSDO>
F 2

$$$$
=
 OpenBabel11122411533D

 28 31  0  0  1  0  0  0  0  0999 V2000
  179.8610  179.6270  138.8930 C   0  0  0  0  0  0  0  0  0  0  0  0
  179.3450  178.7360  135.4020 O   0  0  0  0  0  0  0  0  0  0  0  0
  180.8470  182.1930  138.3430 C   0  0  0  0  0  3  0  0  0  0  0  0
  179.2940  178.2750  139.2010 C   0  0  0  0  0  2  0  0  0  0  0  0
  181.6980  178.6670  134.6880 O   0  0  0  0  0  0  0  0  0  0  0  0
  180.6070  177.9210  135.4050 S   0  0  0  0  0  0  0  0  0  0  0  0
  180.4800  175.1650  135.5390 C   0  0  0  0  0  0  0  0  0  0  0  0
  181.0730  177.5660  137.0350 N   0  0  1  0  0  0  0  0  0  0  0  0
  180.7910  179.2730  141.9330 C   0  0  0  0  0  1  0  0  0  0  0  0
  182.8500  177.9420  138.6030 C   0  0  2  0  0  3  0  0  0  0  0  0
  181.2830  175.2050  136.6190 C   0  0  0  0  0  3  0  0  0  0  0  0
  180.3180  176.3420  134.5940 C   0  0  0  0  0  2  0  0  0  0  0  0
  180.4330  177.9460  141.4410 N   0  0  0  0  0  0  0  0  0  0  0  0
  181.0630  179.7790  138.1620 C   0  0  0  0  0  0  0  0  0  0  0  0
  179.7660  173.8980  135.2260 C   0  0  0  0  0  1  0  0  0  0  0  0
  181.4990  177.2570  140.6880 C   0  0  0  0  0  2  0  0  0  0  0  0
  181.5460  181.0680  137.9050 C   0  0  0  0  0  3  0  0  0  0  0  0
  179.1580  180.7640  139.3140 C   0  0  0  0  0  3  0  0  0  0  0  0
  179.6500  182.0420  139.0440 C   0  0  0  0  0  3  0  0  0  0  0  0
  179.1630  178.0100  140.7070 C   0  0  0  0  0  2  0  0  0  0  0  0
  182.8160  176.4630  138.2190 C   0  0  1  0  0  3  0  0  0  0  0  0
  182.5790  178.1820  140.1000 C   0  0  1  0  0  3  0  0  0  0  0  0
  182.0130  176.4690  136.9380 C   0  0  2  0  0  3  0  0  0  0  0  0
  181.8770  178.6240  137.6270 C   0  0  2  0  0  3  0  0  0  0  0  0
  184.6260  179.0020  140.3120 C   0  0  0  0  0  1  0  0  0  0  0  0
  183.7650  178.0280  140.8220 O   0  0  0  0  0  0  0  0  0  0  0  0
  184.1110  176.0060  137.9690 O   0  0  0  0  0  0  0  0  0  0  0  0
  184.6570  176.9480  137.0950 C   0  0  0  0  0  1  0  0  0  0  0  0
  1  4  1  0  0  0  0
  1 18  1  0  0  0  0
  2  6  2  0  0  0  0
  3 19  1  0  0  0  0
  4 20  1  0  0  0  0
  5  6  2  0  0  0  0
  7 11  2  0  0  0  0
  8  6  1  6  0  0  0
  8 24  1  0  0  0  0
 10 22  1  0  0  0  0
 11 23  1  0  0  0  0
 12  6  1  0  0  0  0
 12  7  1  0  0  0  0
 13  9  1  0  0  0  0
 14  1  2  0  0  0  0
 15  7  1  0  0  0  0
 16 13  1  0  0  0  0
 17 14  1  0  0  0  0
 17  3  2  0  0  0  0
 19 18  2  0  0  0  0
 20 13  1  0  0  0  0
 21 10  1  0  0  0  0
 22 16  1  0  0  0  0
 22 26  1  0  0  0  0
 23  8  1  0  0  0  0
 23 21  1  0  0  0  0
 24 14  1  0  0  0  0
 24 10  1  0  0  0  0
 25 26  1  0  0  0  0
 27 21  1  0  0  0  0
 28 27  1  0  0  0  0
M  END
>  <MODEL>
7

>  <REMARK>
 VINA RESULT:      -3.7      2.535      4.706
  Name = 
  2 active torsions:
  status: ('A' for Active; 'I' for Inactive)
    1  A    between atoms: O_5  and  C_24
    2  A    between atoms: O_17  and  C_25
                            x       y       z     vdW  Elec       q    Type
                         _______ _______ _______ _____ _____    ______ ____

>  <TORSDO>
F 2

$$$$
=
 OpenBabel11122411533D

 28 31  0  0  1  0  0  0  0  0999 V2000
  182.3460  176.6480  138.2630 C   0  0  0  0  0  0  0  0  0  0  0  0
  185.6870  177.9310  138.9230 O   0  0  0  0  0  0  0  0  0  0  0  0
  181.9080  178.2640  136.0130 C   0  0  0  0  0  3  0  0  0  0  0  0
  182.5860  175.7490  139.4360 C   0  0  0  0  0  2  0  0  0  0  0  0
  185.0790  180.2270  139.5630 O   0  0  0  0  0  0  0  0  0  0  0  0
  185.1550  178.7990  140.0270 S   0  0  0  0  0  0  0  0  0  0  0  0
  185.5260  178.0730  142.6660 C   0  0  0  0  0  0  0  0  0  0  0  0
  183.5960  178.2300  140.5220 N   0  0  1  0  0  0  0  0  0  0  0  0
  179.3590  175.6980  138.9010 C   0  0  0  0  0  1  0  0  0  0  0  0
  181.2970  178.9130  140.6350 C   0  0  2  0  0  3  0  0  0  0  0  0
  184.1950  178.1550  142.8510 C   0  0  0  0  0  3  0  0  0  0  0  0
  186.2270  178.6860  141.4660 C   0  0  0  0  0  2  0  0  0  0  0  0
  180.1600  175.4060  140.0860 N   0  0  0  0  0  0  0  0  0  0  0  0
  182.3150  178.0560  138.4000 C   0  0  0  0  0  0  0  0  0  0  0  0
  186.3530  177.4050  143.7080 C   0  0  0  0  0  1  0  0  0  0  0  0
  180.3460  176.5460  141.0040 C   0  0  0  0  0  2  0  0  0  0  0  0
  182.0860  178.8480  137.2680 C   0  0  0  0  0  3  0  0  0  0  0  0
  182.1830  176.0730  136.9950 C   0  0  0  0  0  3  0  0  0  0  0  0
  181.9610  176.8770  135.8750 C   0  0  0  0  0  3  0  0  0  0  0  0
  181.4260  174.7760  139.6910 C   0  0  0  0  0  2  0  0  0  0  0  0
  181.8630  178.7970  142.0500 C   0  0  1  0  0  3  0  0  0  0  0  0
  180.1420  177.9320  140.3660 C   0  0  1  0  0  3  0  0  0  0  0  0
  183.3560  178.8330  141.8170 C   0  0  2  0  0  3  0  0  0  0  0  0
  182.5190  178.7800  139.7110 C   0  0  2  0  0  3  0  0  0  0  0  0
  179.0860  179.8590  140.6490 C   0  0  0  0  0  1  0  0  0  0  0  0
  178.9430  178.4820  140.8270 O   0  0  0  0  0  0  0  0  0  0  0  0
  181.4730  179.9000  142.8100 O   0  0  0  0  0  0  0  0  0  0  0  0
  181.0630  179.3630  144.0310 C   0  0  0  0  0  1  0  0  0  0  0  0
  1 14  1  0  0  0  0
  1  4  1  0  0  0  0
  2  6  2  0  0  0  0
  3 17  1  0  0  0  0
  4 20  1  0  0  0  0
  5  6  2  0  0  0  0
  6 12  1  0  0  0  0
  7 11  2  0  0  0  0
  7 15  1  0  0  0  0
  8  6  1  6  0  0  0
  8 23  1  0  0  0  0
  9 13  1  0  0  0  0
 10 21  1  0  0  0  0
 12  7  1  0  0  0  0
 13 16  1  0  0  0  0
 14 24  1  0  0  0  0
 17 14  2  0  0  0  0
 18  1  2  0  0  0  0
 19  3  2  0  0  0  0
 19 18  1  0  0  0  0
 20 13  1  0  0  0  0
 21 27  1  0  0  0  0
 22 10  1  0  0  0  0
 22 26  1  0  0  0  0
 22 16  1  0  0  0  0
 23 21  1  0  0  0  0
 23 11  1  0  0  0  0
 24  8  1  0  0  0  0
 24 10  1  0  0  0  0
 25 26  1  0  0  0  0
 27 28  1  0  0  0  0
M  END
>  <MODEL>
8

>  <REMARK>
 VINA RESULT:      -3.7      2.660      4.943
  Name = 
  2 active torsions:
  status: ('A' for Active; 'I' for Inactive)
    1  A    between atoms: O_5  and  C_24
    2  A    between atoms: O_17  and  C_25
                            x       y       z     vdW  Elec       q    Type
                         _______ _______ _______ _____ _____    ______ ____

>  <TORSDO>
F 2

$$$$
=
 OpenBabel11122411533D

 28 31  0  0  1  0  0  0  0  0999 V2000
  182.1520  178.7350  138.3770 C   0  0  0  0  0  0  0  0  0  0  0  0
  183.4530  175.9890  136.3720 O   0  0  0  0  0  0  0  0  0  0  0  0
  184.3580  178.8370  140.1050 C   0  0  0  0  0  3  0  0  0  0  0  0
  180.9900  178.7190  137.4330 C   0  0  0  0  0  2  0  0  0  0  0  0
  183.3530  174.2140  138.0720 O   0  0  0  0  0  0  0  0  0  0  0  0
  182.5550  175.0190  137.0860 S   0  0  0  0  0  0  0  0  0  0  0  0
  180.2650  174.0850  135.8560 C   0  0  0  0  0  0  0  0  0  0  0  0
  181.2790  175.8780  137.8820 N   0  0  1  0  0  0  0  0  0  0  0  0
  180.0130  180.4290  140.0450 C   0  0  0  0  0  1  0  0  0  0  0  0
  180.3870  176.3100  140.0690 C   0  0  2  0  0  3  0  0  0  0  0  0
  179.5510  174.5110  136.9150 C   0  0  0  0  0  3  0  0  0  0  0  0
  181.7740  173.9200  135.8960 C   0  0  0  0  0  2  0  0  0  0  0  0
  179.2730  179.7070  139.0140 N   0  0  0  0  0  0  0  0  0  0  0  0
  182.4570  177.6240  139.1990 C   0  0  0  0  0  0  0  0  0  0  0  0
  179.5410  173.7060  134.6110 C   0  0  0  0  0  1  0  0  0  0  0  0
  178.9310  178.3140  139.3580 C   0  0  0  0  0  2  0  0  0  0  0  0
  183.5560  177.6960  140.0640 C   0  0  0  0  0  3  0  0  0  0  0  0
  182.9750  179.8690  138.4130 C   0  0  0  0  0  3  0  0  0  0  0  0
  184.0710  179.9220  139.2770 C   0  0  0  0  0  3  0  0  0  0  0  0
  179.9670  179.8250  137.7260 C   0  0  0  0  0  2  0  0  0  0  0  0
  179.4040  175.4450  139.2810 C   0  0  1  0  0  3  0  0  0  0  0  0
  179.8060  177.6820  140.4550 C   0  0  1  0  0  3  0  0  0  0  0  0
  180.2660  174.8840  138.1730 C   0  0  2  0  0  3  0  0  0  0  0  0
  181.6620  176.3390  139.2090 C   0  0  2  0  0  3  0  0  0  0  0  0
  179.9530  177.8840  142.6560 C   0  0  0  0  0  1  0  0  0  0  0  0
  179.0620  177.5630  141.6310 O   0  0  0  0  0  0  0  0  0  0  0  0
  178.9310  174.4080  140.0870 O   0  0  0  0  0  0  0  0  0  0  0  0
  180.0250  174.0400  140.8710 C   0  0  0  0  0  1  0  0  0  0  0  0
  1 18  2  0  0  0  0
  1 14  1  0  0  0  0
  2  6  2  0  0  0  0
  4 20  1  0  0  0  0
  4  1  1  0  0  0  0
  6  5  2  0  0  0  0
  7 12  1  0  0  0  0
  7 11  2  0  0  0  0
  8  6  1  1  0  0  0
  8 23  1  0  0  0  0
  8 24  1  0  0  0  0
 10 22  1  0  0  0  0
 11 23  1  0  0  0  0
 12  6  1  0  0  0  0
 13 16  1  0  0  0  0
 13  9  1  0  0  0  0
 14 24  1  0  0  0  0
 14 17  2  0  0  0  0
 15  7  1  0  0  0  0
 16 22  1  0  0  0  0
 17  3  1  0  0  0  0
 18 19  1  0  0  0  0
 19  3  2  0  0  0  0
 20 13  1  0  0  0  0
 21 10  1  0  0  0  0
 21 27  1  0  0  0  0
 22 26  1  0  0  0  0
 23 21  1  0  0  0  0
 24 10  1  0  0  0  0
 26 25  1  0  0  0  0
 27 28  1  0  0  0  0
M  END
>  <MODEL>
9

>  <REMARK>
 VINA RESULT:      -3.7      2.803      4.624
  Name = 
  2 active torsions:
  status: ('A' for Active; 'I' for Inactive)
    1  A    between atoms: O_5  and  C_24
    2  A    between atoms: O_17  and  C_25
                            x       y       z     vdW  Elec       q    Type
                         _______ _______ _______ _____ _____    ______ ____

>  <TORSDO>
F 2

$$$$
