=
 OpenBabel11122410253D

 30 35  0  0  1  0  0  0  0  0999 V2000
  189.2400  177.4800  143.5570 C   0  0  1  0  0  3  0  0  0  0  0  0
  191.2010  176.5190  144.8700 C   0  0  0  0  0  0  0  0  0  0  0  0
  187.0610  177.9510  147.2780 C   0  0  0  0  0  2  0  0  0  0  0  0
  187.9520  178.3270  143.6480 C   0  0  1  0  0  3  0  0  0  0  0  0
  190.1000  178.0360  142.5890 O   0  0  0  0  0  0  0  0  0  0  0  0
  187.4520  178.3610  139.9000 C   0  0  0  0  0  1  0  0  0  0  0  0
  184.7850  178.1110  142.8800 C   0  0  1  0  0  3  0  0  0  0  0  0
  188.1030  178.5760  141.2650 C   0  0  2  0  0  3  0  0  0  0  0  0
  184.6940  177.9580  144.4080 C   0  0  2  0  0  3  0  0  0  0  0  0
  185.7760  178.3920  146.6700 C   0  0  0  0  0  0  0  0  0  0  0  0
  189.4860  177.8790  141.3230 C   0  0  2  0  0  3  0  0  0  0  0  0
  187.2250  178.1430  142.3730 N   0  0  2  0  0  0  0  0  0  0  0  0
  191.8060  176.1620  146.0780 C   0  0  0  0  0  3  0  0  0  0  0  0
  183.3660  178.5880  144.7960 C   0  0  0  0  0  2  0  0  0  0  0  0
  183.4630  178.6860  142.4030 C   0  0  0  0  0  2  0  0  0  0  0  0
  191.8480  176.2100  143.6790 O   0  0  0  0  0  1  0  0  0  0  0  0
  188.0010  178.1480  146.1070 C   0  0  2  0  0  3  0  0  0  0  0  0
  191.1740  176.4320  147.2910 C   0  0  0  0  0  3  0  0  0  0  0  0
  189.9520  177.1740  144.8680 C   0  0  0  0  0  0  0  0  0  0  0  0
  187.1650  177.8620  144.8750 C   0  0  1  0  0  3  0  0  0  0  0  0
  184.7840  178.6400  147.3370 O   0  0  0  0  0  0  0  0  0  0  0  0
  185.8600  178.5840  145.1830 C   0  0  1  0  0  3  0  0  0  0  0  0
  182.5040  178.5240  143.5570 C   0  0  0  0  0  2  0  0  0  0  0  0
  186.0710  180.3680  142.7680 C   0  0  0  0  0  1  0  0  0  0  0  0
  189.9240  177.0490  147.3040 C   0  0  0  0  0  3  0  0  0  0  0  0
  189.2930  177.3910  146.1010 C   0  0  0  0  0  0  0  0  0  0  0  0
  185.9670  178.9090  142.3090 C   0  0  2  0  0  3  0  0  0  0  0  0
  189.4540  176.4120  140.8820 C   0  0  0  0  0  2  0  0  0  0  0  0
  190.7250  176.8170  139.1260 C   0  0  0  0  0  1  0  0  0  0  0  0
  190.6720  176.0650  140.2980 O   0  0  0  0  0  0  0  0  0  0  0  0
  1  5  1  6  0  0  0
  1  4  1  0  0  0  0
  1 19  1  0  0  0  0
  2 13  1  0  0  0  0
  4 20  1  0  0  0  0
  6  8  1  0  0  0  0
  7  9  1  0  0  0  0
  8 11  1  0  0  0  0
  8 12  1  0  0  0  0
  9 14  1  0  0  0  0
  9 22  1  0  0  0  0
 10  3  1  0  0  0  0
 10 21  2  0  0  0  0
 11  5  1  0  0  0  0
 12  4  1  0  0  0  0
 13 18  2  0  0  0  0
 15  7  1  0  0  0  0
 15 23  1  0  0  0  0
 16  2  1  0  0  0  0
 17  3  1  0  0  0  0
 18 25  1  0  0  0  0
 19  2  2  0  0  0  0
 19 26  1  0  0  0  0
 20 22  1  0  0  0  0
 20 17  1  0  0  0  0
 22 10  1  0  0  0  0
 23 14  1  0  0  0  0
 26 17  1  0  0  0  0
 26 25  2  0  0  0  0
 27 12  1  0  0  0  0
 27 24  1  0  0  0  0
 27  7  1  0  0  0  0
 28 11  1  0  0  0  0
 29 30  1  0  0  0  0
 30 28  1  0  0  0  0
M  END
>  <MODEL>
1

>  <REMARK>
 VINA RESULT:      -9.4      0.000      0.000
  Name = 
  2 active torsions:
  status: ('A' for Active; 'I' for Inactive)
    1  A    between atoms: C_11  and  C_28
    2  A    between atoms: C_28  and  O_30
                            x       y       z     vdW  Elec       q    Type
                         _______ _______ _______ _____ _____    ______ ____

>  <TORSDO>
F 2

$$$$
=
 OpenBabel11122410253D

 30 35  0  0  1  0  0  0  0  0999 V2000
  187.2310  178.1290  140.6580 C   0  0  1  0  0  3  0  0  0  0  0  0
  184.9830  178.9720  139.8060 C   0  0  0  0  0  0  0  0  0  0  0  0
  185.5780  177.9640  144.6660 C   0  0  0  0  0  2  0  0  0  0  0  0
  187.9510  177.3920  141.8100 C   0  0  1  0  0  3  0  0  0  0  0  0
  187.4990  177.4720  139.4410 O   0  0  0  0  0  0  0  0  0  0  0  0
  191.2460  177.2710  139.9590 C   0  0  0  0  0  1  0  0  0  0  0  0
  190.4630  177.8370  143.8480 C   0  0  1  0  0  3  0  0  0  0  0  0
  189.7690  177.0500  140.2800 C   0  0  2  0  0  3  0  0  0  0  0  0
  189.2930  178.0490  144.8250 C   0  0  2  0  0  3  0  0  0  0  0  0
  186.8450  177.6080  145.3590 C   0  0  0  0  0  0  0  0  0  0  0  0
  188.8770  177.6350  139.1560 C   0  0  2  0  0  3  0  0  0  0  0  0
  189.4020  177.5910  141.6060 N   0  0  2  0  0  0  0  0  0  0  0  0
  183.6470  179.3210  140.0190 C   0  0  0  0  0  3  0  0  0  0  0  0
  189.7950  177.5430  146.1680 C   0  0  0  0  0  2  0  0  0  0  0  0
  191.6510  177.3560  144.6610 C   0  0  0  0  0  2  0  0  0  0  0  0
  185.5390  179.1870  138.5500 O   0  0  0  0  0  1  0  0  0  0  0  0
  185.9530  177.6510  143.2310 C   0  0  2  0  0  3  0  0  0  0  0  0
  183.0630  179.1450  141.2730 C   0  0  0  0  0  3  0  0  0  0  0  0
  185.7490  178.4210  140.8530 C   0  0  0  0  0  0  0  0  0  0  0  0
  187.4330  177.9610  143.1320 C   0  0  1  0  0  3  0  0  0  0  0  0
  186.9140  177.4640  146.5690 O   0  0  0  0  0  0  0  0  0  0  0  0
  187.9870  177.3590  144.4160 C   0  0  1  0  0  3  0  0  0  0  0  0
  191.3020  177.6340  146.1030 C   0  0  0  0  0  2  0  0  0  0  0  0
  189.8270  175.4810  142.9500 C   0  0  0  0  0  1  0  0  0  0  0  0
  183.8170  178.6310  142.3280 C   0  0  0  0  0  3  0  0  0  0  0  0
  185.1650  178.3010  142.1360 C   0  0  0  0  0  0  0  0  0  0  0  0
  190.2250  176.9280  142.6340 C   0  0  2  0  0  3  0  0  0  0  0  0
  189.2170  179.0830  138.7910 C   0  0  0  0  0  2  0  0  0  0  0  0
  189.2280  178.3140  136.7250 C   0  0  0  0  0  1  0  0  0  0  0  0
  188.7600  179.3690  137.5050 O   0  0  0  0  0  0  0  0  0  0  0  0
  1  5  1  6  0  0  0
  1 19  1  0  0  0  0
  1  4  1  0  0  0  0
  2 13  2  0  0  0  0
  2 19  1  0  0  0  0
  3 10  1  0  0  0  0
  4 20  1  0  0  0  0
  6  8  1  0  0  0  0
  7 15  1  0  0  0  0
  7  9  1  0  0  0  0
  8 12  1  0  0  0  0
  9 14  1  0  0  0  0
 10 21  2  0  0  0  0
 11  5  1  0  0  0  0
 11  8  1  0  0  0  0
 12  4  1  0  0  0  0
 12 27  1  0  0  0  0
 13 18  1  0  0  0  0
 15 23  1  0  0  0  0
 16  2  1  0  0  0  0
 17  3  1  0  0  0  0
 18 25  2  0  0  0  0
 19 26  2  0  0  0  0
 20 17  1  0  0  0  0
 20 22  1  0  0  0  0
 22  9  1  0  0  0  0
 22 10  1  0  0  0  0
 23 14  1  0  0  0  0
 26 25  1  0  0  0  0
 26 17  1  0  0  0  0
 27 24  1  0  0  0  0
 27  7  1  0  0  0  0
 28 11  1  0  0  0  0
 29 30  1  0  0  0  0
 30 28  1  0  0  0  0
M  END
>  <MODEL>
2

>  <REMARK>
 VINA RESULT:      -9.3      2.191      5.690
  Name = 
  2 active torsions:
  status: ('A' for Active; 'I' for Inactive)
    1  A    between atoms: C_11  and  C_28
    2  A    between atoms: C_28  and  O_30
                            x       y       z     vdW  Elec       q    Type
                         _______ _______ _______ _____ _____    ______ ____

>  <TORSDO>
F 2

$$$$
=
 OpenBabel11122410253D

 30 35  0  0  1  0  0  0  0  0999 V2000
  187.9640  177.8220  142.2440 C   0  0  1  0  0  3  0  0  0  0  0  0
  186.8260  178.0100  144.5150 C   0  0  0  0  0  0  0  0  0  0  0  0
  184.2150  178.9020  140.3460 C   0  0  0  0  0  2  0  0  0  0  0  0
  187.8880  178.2260  140.7540 C   0  0  1  0  0  3  0  0  0  0  0  0
  189.2020  178.2310  142.7770 O   0  0  0  0  0  0  0  0  0  0  0  0
  191.2980  176.7920  139.9690 C   0  0  0  0  0  1  0  0  0  0  0  0
  187.9260  176.8270  137.8030 C   0  0  1  0  0  3  0  0  0  0  0  0
  190.2150  177.6550  140.6150 C   0  0  2  0  0  3  0  0  0  0  0  0
  186.4360  177.2010  137.8960 C   0  0  2  0  0  3  0  0  0  0  0  0
  184.6680  178.7000  138.9440 C   0  0  0  0  0  0  0  0  0  0  0  0
  190.2170  177.4660  142.1530 C   0  0  2  0  0  3  0  0  0  0  0  0
  188.8810  177.3990  140.0340 N   0  0  2  0  0  0  0  0  0  0  0  0
  185.7080  178.2960  145.3030 C   0  0  0  0  0  3  0  0  0  0  0  0
  186.0090  177.5020  136.4690 C   0  0  0  0  0  2  0  0  0  0  0  0
  188.2910  176.7780  136.3300 C   0  0  0  0  0  2  0  0  0  0  0  0
  187.9680  177.5090  145.1290 O   0  0  0  0  0  1  0  0  0  0  0  0
  185.5490  178.9440  141.0630 C   0  0  2  0  0  3  0  0  0  0  0  0
  184.5360  178.7740  144.7180 C   0  0  0  0  0  3  0  0  0  0  0  0
  186.7850  178.2220  143.1220 C   0  0  0  0  0  0  0  0  0  0  0  0
  186.4500  178.0100  140.2780 C   0  0  1  0  0  3  0  0  0  0  0  0
  183.9300  178.8600  137.9850 O   0  0  0  0  0  0  0  0  0  0  0  0
  186.1300  178.3730  138.8350 C   0  0  1  0  0  3  0  0  0  0  0  0
  186.9790  176.7560  135.5830 C   0  0  0  0  0  2  0  0  0  0  0  0
  188.9660  179.1730  138.2210 C   0  0  0  0  0  1  0  0  0  0  0  0
  184.4700  178.9580  143.3370 C   0  0  0  0  0  3  0  0  0  0  0  0
  185.5740  178.6520  142.5320 C   0  0  0  0  0  0  0  0  0  0  0  0
  188.9290  177.6850  138.5880 C   0  0  2  0  0  3  0  0  0  0  0  0
  190.1760  175.9980  142.5920 C   0  0  0  0  0  2  0  0  0  0  0  0
  191.3430  176.4030  144.4180 C   0  0  0  0  0  1  0  0  0  0  0  0
  191.3660  175.6630  143.2370 O   0  0  0  0  0  0  0  0  0  0  0  0
  1  5  1  1  0  0  0
  1 19  1  0  0  0  0
  2 16  1  0  0  0  0
  2 13  1  0  0  0  0
  3 17  1  0  0  0  0
  4  1  1  0  0  0  0
  6  8  1  0  0  0  0
  7  9  1  0  0  0  0
  7 27  1  0  0  0  0
  8 11  1  0  0  0  0
  9 22  1  0  0  0  0
 10  3  1  0  0  0  0
 11 28  1  0  0  0  0
 11  5  1  0  0  0  0
 12  8  1  0  0  0  0
 12  4  1  0  0  0  0
 14  9  1  0  0  0  0
 15  7  1  0  0  0  0
 17 26  1  0  0  0  0
 18 13  2  0  0  0  0
 19  2  2  0  0  0  0
 20  4  1  0  0  0  0
 20 17  1  0  0  0  0
 21 10  2  0  0  0  0
 22 10  1  0  0  0  0
 22 20  1  0  0  0  0
 23 15  1  0  0  0  0
 23 14  1  0  0  0  0
 24 27  1  0  0  0  0
 25 18  1  0  0  0  0
 26 19  1  0  0  0  0
 26 25  2  0  0  0  0
 27 12  1  0  0  0  0
 28 30  1  0  0  0  0
 30 29  1  0  0  0  0
M  END
>  <MODEL>
3

>  <REMARK>
 VINA RESULT:      -8.3      2.493      5.727
  Name = 
  2 active torsions:
  status: ('A' for Active; 'I' for Inactive)
    1  A    between atoms: C_11  and  C_28
    2  A    between atoms: C_28  and  O_30
                            x       y       z     vdW  Elec       q    Type
                         _______ _______ _______ _____ _____    ______ ____

>  <TORSDO>
F 2

$$$$
=
 OpenBabel11122410253D

 30 35  0  0  1  0  0  0  0  0999 V2000
  186.6020  178.2530  142.5660 C   0  0  1  0  0  3  0  0  0  0  0  0
  187.2330  178.0960  145.0290 C   0  0  0  0  0  0  0  0  0  0  0  0
  182.4430  178.6820  143.7230 C   0  0  0  0  0  2  0  0  0  0  0  0
  185.5180  178.7120  141.5650 C   0  0  1  0  0  3  0  0  0  0  0  0
  187.8290  178.8660  142.2420 O   0  0  0  0  0  0  0  0  0  0  0  0
  187.6960  178.0120  138.5540 C   0  0  0  0  0  1  0  0  0  0  0  0
  183.7570  177.5050  139.0930 C   0  0  1  0  0  3  0  0  0  0  0  0
  187.2210  178.6130  139.8750 C   0  0  2  0  0  3  0  0  0  0  0  0
  182.6690  177.5770  140.1780 C   0  0  2  0  0  3  0  0  0  0  0  0
  181.8780  178.6460  142.3480 C   0  0  0  0  0  0  0  0  0  0  0  0
  188.2570  178.3460  140.9960 C   0  0  2  0  0  3  0  0  0  0  0  0
  185.8740  178.1330  140.2510 N   0  0  2  0  0  0  0  0  0  0  0  0
  186.8890  178.1170  146.3830 C   0  0  0  0  0  3  0  0  0  0  0  0
  181.3770  177.8650  139.4320 C   0  0  0  0  0  2  0  0  0  0  0  0
  183.0630  177.6060  137.7470 C   0  0  0  0  0  2  0  0  0  0  0  0
  188.5430  177.7940  144.6750 O   0  0  0  0  0  1  0  0  0  0  0  0
  183.9030  178.9450  143.4130 C   0  0  2  0  0  3  0  0  0  0  0  0
  185.5790  178.3880  146.7750 C   0  0  0  0  0  3  0  0  0  0  0  0
  186.2610  178.3690  144.0450 C   0  0  0  0  0  0  0  0  0  0  0  0
  184.1600  178.2460  142.0920 C   0  0  1  0  0  3  0  0  0  0  0  0
  180.6790  178.7100  142.1280 O   0  0  0  0  0  0  0  0  0  0  0  0
  182.9290  178.6160  141.2760 C   0  0  1  0  0  3  0  0  0  0  0  0
  181.5980  177.3690  138.0230 C   0  0  0  0  0  2  0  0  0  0  0  0
  184.5430  179.9830  139.1340 C   0  0  0  0  0  1  0  0  0  0  0  0
  184.5990  178.6280  145.8120 C   0  0  0  0  0  3  0  0  0  0  0  0
  184.9230  178.5860  144.4500 C   0  0  0  0  0  0  0  0  0  0  0  0
  184.9250  178.4990  139.1830 C   0  0  2  0  0  3  0  0  0  0  0  0
  188.6800  176.8780  141.1050 C   0  0  0  0  0  2  0  0  0  0  0  0
  190.7950  177.1280  140.5330 C   0  0  0  0  0  1  0  0  0  0  0  0
  189.9780  176.7940  141.6110 O   0  0  0  0  0  0  0  0  0  0  0  0
  1  5  1  1  0  0  0
  1 19  1  0  0  0  0
  2 13  1  0  0  0  0
  4 20  1  0  0  0  0
  4  1  1  0  0  0  0
  6  8  1  0  0  0  0
  7 27  1  0  0  0  0
  7  9  1  0  0  0  0
  8 12  1  0  0  0  0
  8 11  1  0  0  0  0
  9 22  1  0  0  0  0
 10  3  1  0  0  0  0
 11 28  1  0  0  0  0
 11  5  1  0  0  0  0
 12  4  1  0  0  0  0
 13 18  2  0  0  0  0
 14  9  1  0  0  0  0
 15 23  1  0  0  0  0
 15  7  1  0  0  0  0
 16  2  1  0  0  0  0
 17  3  1  0  0  0  0
 17 26  1  0  0  0  0
 19 26  1  0  0  0  0
 19  2  2  0  0  0  0
 20 17  1  0  0  0  0
 21 10  2  0  0  0  0
 22 20  1  0  0  0  0
 22 10  1  0  0  0  0
 23 14  1  0  0  0  0
 24 27  1  0  0  0  0
 25 18  1  0  0  0  0
 26 25  2  0  0  0  0
 27 12  1  0  0  0  0
 28 30  1  0  0  0  0
 29 30  1  0  0  0  0
M  END
>  <MODEL>
4

>  <REMARK>
 VINA RESULT:      -8.1      2.464      4.255
  Name = 
  2 active torsions:
  status: ('A' for Active; 'I' for Inactive)
    1  A    between atoms: C_11  and  C_28
    2  A    between atoms: C_28  and  O_30
                            x       y       z     vdW  Elec       q    Type
                         _______ _______ _______ _____ _____    ______ ____

>  <TORSDO>
F 2

$$$$
=
 OpenBabel11122410253D

 30 35  0  0  1  0  0  0  0  0999 V2000
  188.3100  177.7190  144.3230 C   0  0  1  0  0  3  0  0  0  0  0  0
  189.3810  177.2160  146.5790 C   0  0  0  0  0  0  0  0  0  0  0  0
  184.6240  178.7380  146.3720 C   0  0  0  0  0  2  0  0  0  0  0  0
  187.1530  178.4520  143.6080 C   0  0  1  0  0  3  0  0  0  0  0  0
  189.5400  178.1410  143.7810 O   0  0  0  0  0  0  0  0  0  0  0  0
  188.5110  177.6880  140.1630 C   0  0  0  0  0  1  0  0  0  0  0  0
  184.7380  177.8130  141.5050 C   0  0  1  0  0  3  0  0  0  0  0  0
  188.4330  178.2290  141.5900 C   0  0  2  0  0  3  0  0  0  0  0  0
  183.9230  177.9630  142.8020 C   0  0  2  0  0  3  0  0  0  0  0  0
  183.7980  178.9350  145.1510 C   0  0  0  0  0  0  0  0  0  0  0  0
  189.6040  177.6810  142.4430 C   0  0  2  0  0  3  0  0  0  0  0  0
  187.1230  177.9530  142.2170 N   0  0  2  0  0  0  0  0  0  0  0  0
  189.3260  177.1620  147.9740 C   0  0  0  0  0  3  0  0  0  0  0  0
  182.5840  178.5400  142.3700 C   0  0  0  0  0  2  0  0  0  0  0  0
  183.8190  178.1630  140.3490 C   0  0  0  0  0  2  0  0  0  0  0  0
  190.5130  176.7300  145.9340 O   0  0  0  0  0  1  0  0  0  0  0  0
  186.0140  178.7760  145.7720 C   0  0  2  0  0  3  0  0  0  0  0  0
  188.1960  177.6140  148.6540 C   0  0  0  0  0  3  0  0  0  0  0  0
  188.3000  177.7460  145.8460 C   0  0  0  0  0  0  0  0  0  0  0  0
  185.8650  178.1770  144.3870 C   0  0  1  0  0  3  0  0  0  0  0  0
  182.6130  179.2240  145.1980 O   0  0  0  0  0  0  0  0  0  0  0  0
  184.5880  178.8300  143.8780 C   0  0  1  0  0  3  0  0  0  0  0  0
  182.4210  178.1540  140.9180 C   0  0  0  0  0  2  0  0  0  0  0  0
  185.9670  180.1040  141.5250 C   0  0  0  0  0  1  0  0  0  0  0  0
  187.1050  178.1110  147.9410 C   0  0  0  0  0  3  0  0  0  0  0  0
  187.1360  178.1480  146.5410 C   0  0  0  0  0  0  0  0  0  0  0  0
  186.0650  178.5790  141.4020 C   0  0  2  0  0  3  0  0  0  0  0  0
  189.7570  176.1580  142.3710 C   0  0  0  0  0  2  0  0  0  0  0  0
  191.8670  176.7940  142.4480 C   0  0  0  0  0  1  0  0  0  0  0  0
  191.0050  175.7820  142.8660 O   0  0  0  0  0  0  0  0  0  0  0  0
  1  5  1  6  0  0  0
  1 19  1  0  0  0  0
  2 13  1  0  0  0  0
  4  1  1  0  0  0  0
  4 20  1  0  0  0  0
  6  8  1  0  0  0  0
  7  9  1  0  0  0  0
  8 12  1  0  0  0  0
  8 11  1  0  0  0  0
  9 22  1  0  0  0  0
 10 21  2  0  0  0  0
 10  3  1  0  0  0  0
 11  5  1  0  0  0  0
 12  4  1  0  0  0  0
 13 18  2  0  0  0  0
 14  9  1  0  0  0  0
 15 23  1  0  0  0  0
 15  7  1  0  0  0  0
 16  2  1  0  0  0  0
 17  3  1  0  0  0  0
 17 26  1  0  0  0  0
 19 26  1  0  0  0  0
 19  2  2  0  0  0  0
 20 17  1  0  0  0  0
 22 20  1  0  0  0  0
 22 10  1  0  0  0  0
 23 14  1  0  0  0  0
 25 18  1  0  0  0  0
 26 25  2  0  0  0  0
 27  7  1  0  0  0  0
 27 24  1  0  0  0  0
 27 12  1  0  0  0  0
 28 11  1  0  0  0  0
 28 30  1  0  0  0  0
 29 30  1  0  0  0  0
M  END
>  <MODEL>
5

>  <REMARK>
 VINA RESULT:      -7.8      1.499      2.189
  Name = 
  2 active torsions:
  status: ('A' for Active; 'I' for Inactive)
    1  A    between atoms: C_11  and  C_28
    2  A    between atoms: C_28  and  O_30
                            x       y       z     vdW  Elec       q    Type
                         _______ _______ _______ _____ _____    ______ ____

>  <TORSDO>
F 2

$$$$
=
 OpenBabel11122410253D

 30 35  0  0  1  0  0  0  0  0999 V2000
  186.7310  178.2180  144.8710 C   0  0  1  0  0  3  0  0  0  0  0  0
  184.2720  178.5180  145.4670 C   0  0  0  0  0  0  0  0  0  0  0  0
  185.7180  178.7640  140.6880 C   0  0  0  0  0  2  0  0  0  0  0  0
  187.8100  178.4680  143.7940 C   0  0  1  0  0  3  0  0  0  0  0  0
  187.1450  178.7870  146.0910 O   0  0  0  0  0  0  0  0  0  0  0  0
  190.6210  177.2830  146.0300 C   0  0  0  0  0  1  0  0  0  0  0  0
  190.0460  176.8020  142.0930 C   0  0  1  0  0  3  0  0  0  0  0  0
  189.4340  178.1010  145.5240 C   0  0  2  0  0  3  0  0  0  0  0  0
  189.0040  177.0450  140.9870 C   0  0  2  0  0  3  0  0  0  0  0  0
  187.0710  178.4710  140.1440 C   0  0  0  0  0  0  0  0  0  0  0  0
  188.2720  178.0610  146.5480 C   0  0  2  0  0  3  0  0  0  0  0  0
  188.9950  177.6700  144.1800 N   0  0  2  0  0  0  0  0  0  0  0  0
  182.9480  178.7740  145.1030 C   0  0  0  0  0  3  0  0  0  0  0  0
  189.8050  177.1690  139.7010 C   0  0  0  0  0  2  0  0  0  0  0  0
  191.3960  176.6460  141.4170 C   0  0  0  0  0  2  0  0  0  0  0  0
  184.5510  178.1840  146.7870 O   0  0  0  0  0  1  0  0  0  0  0  0
  186.0530  178.9960  142.1470 C   0  0  2  0  0  3  0  0  0  0  0  0
  182.6270  179.0850  143.7820 C   0  0  0  0  0  3  0  0  0  0  0  0
  185.3000  178.5900  144.5050 C   0  0  0  0  0  0  0  0  0  0  0  0
  187.2240  178.0770  142.4360 C   0  0  1  0  0  3  0  0  0  0  0  0
  187.3130  178.4700  138.9480 O   0  0  0  0  0  0  0  0  0  0  0  0
  188.1080  178.2700  141.2120 C   0  0  1  0  0  3  0  0  0  0  0  0
  191.1000  176.4330  139.9520 C   0  0  0  0  0  2  0  0  0  0  0  0
  190.4410  179.2630  142.8340 C   0  0  0  0  0  1  0  0  0  0  0  0
  183.6280  179.1280  142.8120 C   0  0  0  0  0  3  0  0  0  0  0  0
  184.9570  178.8490  143.1580 C   0  0  0  0  0  0  0  0  0  0  0  0
  190.1220  177.8190  143.2410 C   0  0  2  0  0  3  0  0  0  0  0  0
  187.8960  176.6450  146.9950 C   0  0  0  0  0  2  0  0  0  0  0  0
  188.1810  177.8210  148.8380 C   0  0  0  0  0  1  0  0  0  0  0  0
  188.0970  176.5120  148.3690 O   0  0  0  0  0  0  0  0  0  0  0  0
  1 19  1  6  0  0  0
  1  5  1  0  0  0  0
  2 16  1  0  0  0  0
  3 17  1  0  0  0  0
  4 12  1  0  0  0  0
  4  1  1  0  0  0  0
  5 11  1  0  0  0  0
  7 27  1  0  0  0  0
  8  6  1  0  0  0  0
  8 11  1  0  0  0  0
  9 22  1  0  0  0  0
  9  7  1  0  0  0  0
 10  3  1  0  0  0  0
 10 22  1  0  0  0  0
 11 28  1  0  0  0  0
 12  8  1  0  0  0  0
 13  2  1  0  0  0  0
 14 23  1  0  0  0  0
 14  9  1  0  0  0  0
 15  7  1  0  0  0  0
 17 20  1  0  0  0  0
 17 26  1  0  0  0  0
 18 13  2  0  0  0  0
 19  2  2  0  0  0  0
 20  4  1  0  0  0  0
 21 10  2  0  0  0  0
 22 20  1  0  0  0  0
 23 15  1  0  0  0  0
 24 27  1  0  0  0  0
 25 26  2  0  0  0  0
 25 18  1  0  0  0  0
 26 19  1  0  0  0  0
 27 12  1  0  0  0  0
 28 30  1  0  0  0  0
 30 29  1  0  0  0  0
M  END
>  <MODEL>
6

>  <REMARK>
 VINA RESULT:      -7.6      1.914      6.601
  Name = 
  2 active torsions:
  status: ('A' for Active; 'I' for Inactive)
    1  A    between atoms: C_11  and  C_28
    2  A    between atoms: C_28  and  O_30
                            x       y       z     vdW  Elec       q    Type
                         _______ _______ _______ _____ _____    ______ ____

>  <TORSDO>
F 2

$$$$
=
 OpenBabel11122410253D

 30 35  0  0  1  0  0  0  0  0999 V2000
  186.9560  177.9350  140.0990 C   0  0  1  0  0  3  0  0  0  0  0  0
  188.7000  177.1340  138.4240 C   0  0  0  0  0  0  0  0  0  0  0  0
  189.9070  177.5560  143.2570 C   0  0  0  0  0  2  0  0  0  0  0  0
  186.7360  178.5460  141.5020 C   0  0  1  0  0  3  0  0  0  0  0  0
  186.3290  178.7440  139.1310 O   0  0  0  0  0  0  0  0  0  0  0  0
  183.0210  178.9950  140.9600 C   0  0  0  0  0  1  0  0  0  0  0  0
  185.0650  177.9310  144.2390 C   0  0  1  0  0  3  0  0  0  0  0  0
  184.5290  179.1290  140.7580 C   0  0  2  0  0  3  0  0  0  0  0  0
  186.4830  177.5650  144.7110 C   0  0  2  0  0  3  0  0  0  0  0  0
  188.9890  177.8620  144.3870 C   0  0  0  0  0  0  0  0  0  0  0  0
  184.9310  178.6600  139.3370 C   0  0  2  0  0  3  0  0  0  0  0  0
  185.2950  178.4180  141.8050 N   0  0  2  0  0  0  0  0  0  0  0  0
  189.9990  176.7210  138.1140 C   0  0  0  0  0  3  0  0  0  0  0  0
  186.5170  177.9170  146.1890 C   0  0  0  0  0  2  0  0  0  0  0  0
  184.2720  178.3460  145.4650 C   0  0  0  0  0  2  0  0  0  0  0  0
  187.7280  177.0920  137.4310 O   0  0  0  0  0  1  0  0  0  0  0  0
  189.0800  178.0530  142.0890 C   0  0  2  0  0  3  0  0  0  0  0  0
  190.9930  176.7230  139.0910 C   0  0  0  0  0  3  0  0  0  0  0  0
  188.3890  177.5760  139.7260 C   0  0  0  0  0  0  0  0  0  0  0  0
  187.6390  177.8030  142.4880 C   0  0  1  0  0  3  0  0  0  0  0  0
  189.3560  177.8580  145.5520 O   0  0  0  0  0  0  0  0  0  0  0  0
  187.6120  178.2600  143.9400 C   0  0  1  0  0  3  0  0  0  0  0  0
  185.0800  177.8810  146.6530 C   0  0  0  0  0  2  0  0  0  0  0  0
  185.5160  180.3590  143.4250 C   0  0  0  0  0  1  0  0  0  0  0  0
  190.6920  177.1270  140.3920 C   0  0  0  0  0  3  0  0  0  0  0  0
  189.3890  177.5190  140.7240 C   0  0  0  0  0  0  0  0  0  0  0  0
  184.9300  178.9750  143.1210 C   0  0  2  0  0  3  0  0  0  0  0  0
  184.3810  177.2780  138.9680 C   0  0  0  0  0  2  0  0  0  0  0  0
  182.9750  177.8460  137.3660 C   0  0  0  0  0  1  0  0  0  0  0  0
  184.1880  177.1970  137.5890 O   0  0  0  0  0  0  0  0  0  0  0  0
  1  5  1  6  0  0  0
  1  4  1  0  0  0  0
  2 19  1  0  0  0  0
  3 10  1  0  0  0  0
  4 12  1  0  0  0  0
  4 20  1  0  0  0  0
  5 11  1  0  0  0  0
  7  9  1  0  0  0  0
  7 15  1  0  0  0  0
  8  6  1  0  0  0  0
  8 12  1  0  0  0  0
  9 14  1  0  0  0  0
 10 21  2  0  0  0  0
 11  8  1  0  0  0  0
 12 27  1  0  0  0  0
 13  2  2  0  0  0  0
 13 18  1  0  0  0  0
 14 23  1  0  0  0  0
 15 23  1  0  0  0  0
 16  2  1  0  0  0  0
 17 20  1  0  0  0  0
 17  3  1  0  0  0  0
 18 25  2  0  0  0  0
 19  1  1  0  0  0  0
 19 26  2  0  0  0  0
 20 22  1  0  0  0  0
 22 10  1  0  0  0  0
 22  9  1  0  0  0  0
 25 26  1  0  0  0  0
 26 17  1  0  0  0  0
 27 24  1  0  0  0  0
 27  7  1  0  0  0  0
 28 11  1  0  0  0  0
 29 30  1  0  0  0  0
 30 28  1  0  0  0  0
M  END
>  <MODEL>
7

>  <REMARK>
 VINA RESULT:      -7.4      2.457      4.982
  Name = 
  2 active torsions:
  status: ('A' for Active; 'I' for Inactive)
    1  A    between atoms: C_11  and  C_28
    2  A    between atoms: C_28  and  O_30
                            x       y       z     vdW  Elec       q    Type
                         _______ _______ _______ _____ _____    ______ ____

>  <TORSDO>
F 2

$$$$
=
 OpenBabel11122410253D

 30 35  0  0  1  0  0  0  0  0999 V2000
  186.0250  178.1920  139.3080 C   0  0  1  0  0  3  0  0  0  0  0  0
  187.0940  177.7360  137.0410 C   0  0  0  0  0  0  0  0  0  0  0  0
  189.9500  177.9380  141.1390 C   0  0  0  0  0  2  0  0  0  0  0  0
  186.2840  178.6660  140.7560 C   0  0  1  0  0  3  0  0  0  0  0  0
  185.0190  178.9890  138.7260 O   0  0  0  0  0  0  0  0  0  0  0  0
  182.6050  178.7010  141.6320 C   0  0  0  0  0  1  0  0  0  0  0  0
  185.7930  177.6510  143.8210 C   0  0  1  0  0  3  0  0  0  0  0  0
  183.9170  179.0310  140.9210 C   0  0  2  0  0  3  0  0  0  0  0  0
  187.3110  177.4240  143.7100 C   0  0  2  0  0  3  0  0  0  0  0  0
  189.4890  178.0460  142.5490 C   0  0  0  0  0  0  0  0  0  0  0  0
  183.8070  178.7220  139.4070 C   0  0  2  0  0  3  0  0  0  0  0  0
  185.0710  178.3420  141.5370 N   0  0  2  0  0  0  0  0  0  0  0  0
  188.2170  177.5070  136.2420 C   0  0  0  0  0  3  0  0  0  0  0  0
  187.8560  177.6670  145.1090 C   0  0  0  0  0  2  0  0  0  0  0  0
  185.4740  177.8730  145.2880 C   0  0  0  0  0  2  0  0  0  0  0  0
  185.8320  177.6500  136.4630 O   0  0  0  0  0  1  0  0  0  0  0  0
  188.7130  178.4180  140.4080 C   0  0  2  0  0  3  0  0  0  0  0  0
  189.4970  177.5570  136.7940 C   0  0  0  0  0  3  0  0  0  0  0  0
  187.2450  178.0380  138.4100 C   0  0  0  0  0  0  0  0  0  0  0  0
  187.5460  177.9660  141.2640 C   0  0  1  0  0  3  0  0  0  0  0  0
  190.2560  178.0000  143.4970 O   0  0  0  0  0  0  0  0  0  0  0  0
  188.0140  178.3070  142.6720 C   0  0  1  0  0  3  0  0  0  0  0  0
  186.6980  177.4230  146.0480 C   0  0  0  0  0  2  0  0  0  0  0  0
  185.7050  180.1690  143.1800 C   0  0  0  0  0  1  0  0  0  0  0  0
  189.6610  177.8230  138.1530 C   0  0  0  0  0  3  0  0  0  0  0  0
  188.5430  178.0290  138.9710 C   0  0  0  0  0  0  0  0  0  0  0  0
  185.1690  178.7510  142.9510 C   0  0  2  0  0  3  0  0  0  0  0  0
  183.2800  177.3150  139.1040 C   0  0  0  0  0  2  0  0  0  0  0  0
  181.7180  178.3370  137.9290 C   0  0  0  0  0  1  0  0  0  0  0  0
  182.6490  177.3020  137.8600 O   0  0  0  0  0  0  0  0  0  0  0  0
  1 19  1  6  0  0  0
  1  4  1  0  0  0  0
  2 19  1  0  0  0  0
  3 10  1  0  0  0  0
  4 20  1  0  0  0  0
  4 12  1  0  0  0  0
  5  1  1  0  0  0  0
  5 11  1  0  0  0  0
  7 15  1  0  0  0  0
  8 12  1  0  0  0  0
  8  6  1  0  0  0  0
  9  7  1  0  0  0  0
  9 14  1  0  0  0  0
 10 22  1  0  0  0  0
 10 21  2  0  0  0  0
 11  8  1  0  0  0  0
 12 27  1  0  0  0  0
 13 18  1  0  0  0  0
 13  2  2  0  0  0  0
 14 23  1  0  0  0  0
 15 23  1  0  0  0  0
 16  2  1  0  0  0  0
 17  3  1  0  0  0  0
 17 20  1  0  0  0  0
 18 25  2  0  0  0  0
 19 26  2  0  0  0  0
 20 22  1  0  0  0  0
 22  9  1  0  0  0  0
 25 26  1  0  0  0  0
 26 17  1  0  0  0  0
 27 24  1  0  0  0  0
 27  7  1  0  0  0  0
 28 11  1  0  0  0  0
 30 29  1  0  0  0  0
 30 28  1  0  0  0  0
M  END
>  <MODEL>
8

>  <REMARK>
 VINA RESULT:      -7.4      2.964      6.320
  Name = 
  2 active torsions:
  status: ('A' for Active; 'I' for Inactive)
    1  A    between atoms: C_11  and  C_28
    2  A    between atoms: C_28  and  O_30
                            x       y       z     vdW  Elec       q    Type
                         _______ _______ _______ _____ _____    ______ ____

>  <TORSDO>
F 2

$$$$
=
 OpenBabel11122410253D

 30 35  0  0  1  0  0  0  0  0999 V2000
  185.2380  178.3040  140.0400 C   0  0  1  0  0  3  0  0  0  0  0  0
  185.9830  177.9260  137.6330 C   0  0  0  0  0  0  0  0  0  0  0  0
  189.3960  178.1910  141.2760 C   0  0  0  0  0  2  0  0  0  0  0  0
  185.6870  178.7670  141.4440 C   0  0  1  0  0  3  0  0  0  0  0  0
  184.1280  179.0660  139.6270 O   0  0  0  0  0  0  0  0  0  0  0  0
  182.1770  178.6340  142.8450 C   0  0  0  0  0  1  0  0  0  0  0  0
  185.6900  177.6890  144.5270 C   0  0  1  0  0  3  0  0  0  0  0  0
  183.3570  179.0300  141.9590 C   0  0  2  0  0  3  0  0  0  0  0  0
  187.1830  177.5290  144.1920 C   0  0  2  0  0  3  0  0  0  0  0  0
  189.1410  178.2590  142.7400 C   0  0  0  0  0  0  0  0  0  0  0  0
  183.0390  178.7380  140.4700 C   0  0  2  0  0  3  0  0  0  0  0  0
  184.6150  178.3810  142.3870 N   0  0  2  0  0  0  0  0  0  0  0  0
  186.9860  177.7570  136.6750 C   0  0  0  0  0  3  0  0  0  0  0  0
  187.9160  177.7740  145.5010 C   0  0  0  0  0  2  0  0  0  0  0  0
  185.5790  177.8760  146.0290 C   0  0  0  0  0  2  0  0  0  0  0  0
  184.6550  177.7950  137.2420 O   0  0  0  0  0  1  0  0  0  0  0  0
  188.0470  178.6280  140.7420 C   0  0  2  0  0  3  0  0  0  0  0  0
  188.3290  177.8530  137.0360 C   0  0  0  0  0  3  0  0  0  0  0  0
  186.3200  178.2150  138.9710 C   0  0  0  0  0  0  0  0  0  0  0  0
  187.0370  178.1150  141.7490 C   0  0  1  0  0  3  0  0  0  0  0  0
  190.0400  178.2320  143.5660 O   0  0  0  0  0  0  0  0  0  0  0  0
  187.6920  178.4550  143.0810 C   0  0  1  0  0  3  0  0  0  0  0  0
  186.9180  177.4680  146.5930 C   0  0  0  0  0  2  0  0  0  0  0  0
  185.4090  180.2100  143.9570 C   0  0  0  0  0  1  0  0  0  0  0  0
  188.6790  178.1060  138.3620 C   0  0  0  0  0  3  0  0  0  0  0  0
  187.6850  178.2530  139.3380 C   0  0  0  0  0  0  0  0  0  0  0  0
  184.9020  178.7740  143.7790 C   0  0  2  0  0  3  0  0  0  0  0  0
  182.5310  177.3140  140.2180 C   0  0  0  0  0  2  0  0  0  0  0  0
  180.3950  176.7760  140.1120 C   0  0  0  0  0  1  0  0  0  0  0  0
  181.4260  177.3480  139.3680 O   0  0  0  0  0  0  0  0  0  0  0  0
  1 19  1  6  0  0  0
  1  4  1  0  0  0  0
  2 19  1  0  0  0  0
  3 10  1  0  0  0  0
  4 20  1  0  0  0  0
  4 12  1  0  0  0  0
  5  1  1  0  0  0  0
  5 11  1  0  0  0  0
  7 15  1  0  0  0  0
  8 12  1  0  0  0  0
  8  6  1  0  0  0  0
  9  7  1  0  0  0  0
  9 14  1  0  0  0  0
 10 22  1  0  0  0  0
 10 21  2  0  0  0  0
 11  8  1  0  0  0  0
 12 27  1  0  0  0  0
 13 18  1  0  0  0  0
 13  2  2  0  0  0  0
 14 23  1  0  0  0  0
 15 23  1  0  0  0  0
 16  2  1  0  0  0  0
 17  3  1  0  0  0  0
 17 20  1  0  0  0  0
 18 25  2  0  0  0  0
 19 26  2  0  0  0  0
 20 22  1  0  0  0  0
 22  9  1  0  0  0  0
 25 26  1  0  0  0  0
 26 17  1  0  0  0  0
 27 24  1  0  0  0  0
 27  7  1  0  0  0  0
 28 11  1  0  0  0  0
 30 29  1  0  0  0  0
 30 28  1  0  0  0  0
M  END
>  <MODEL>
9

>  <REMARK>
 VINA RESULT:      -7.2      2.940      6.504
  Name = 
  2 active torsions:
  status: ('A' for Active; 'I' for Inactive)
    1  A    between atoms: C_11  and  C_28
    2  A    between atoms: C_28  and  O_30
                            x       y       z     vdW  Elec       q    Type
                         _______ _______ _______ _____ _____    ______ ____

>  <TORSDO>
F 2

$$$$
