=
 OpenBabel11122411483D

 37 43  0  0  1  0  0  0  0  0999 V2000
  186.4070  178.7020  142.5210 C   0  0  1  0  0  3  0  0  0  0  0  0
  189.6850  178.5050  142.9430 O   0  0  0  0  0  0  0  0  0  0  0  0
  184.5030  179.0060  140.7750 C   0  0  2  0  0  3  0  0  0  0  0  0
  187.5430  177.8420  142.1050 C   0  0  2  0  0  3  0  0  0  0  0  0
  185.9810  179.2540  141.1690 C   0  0  2  0  0  3  0  0  0  0  0  0
  188.6120  177.6300  143.1810 C   0  0  2  0  0  3  0  0  0  0  0  0
  183.7580  178.0740  141.7420 C   0  0  0  0  0  2  0  0  0  0  0  0
  186.9120  178.7940  140.2070 O   0  0  0  0  0  0  0  0  0  0  0  0
  185.7950  177.6840  144.6810 C   0  0  0  0  0  2  0  0  0  0  0  0
  184.1090  178.3550  143.0730 O   0  0  0  0  0  0  0  0  0  0  0  0
  190.5430  176.4670  141.6560 C   0  0  0  0  0  2  0  0  0  0  0  0
  190.7290  177.8850  142.1900 C   0  0  1  0  0  3  0  0  0  0  0  0
  185.3890  177.8110  143.2130 C   0  0  1  0  0  3  0  0  0  0  0  0
  188.0430  178.5180  140.9260 N   0  0  2  0  0  0  0  0  0  0  0  0
  188.0640  177.7480  144.6210 C   0  0  1  0  0  3  0  0  0  0  0  0
  190.3700  177.6370  140.7010 C   0  0  2  0  0  3  0  0  0  0  0  0
  188.9070  177.5770  140.2060 C   0  0  2  0  0  3  0  0  0  0  0  0
  186.9560  176.8930  144.7990 O   0  0  0  0  0  0  0  0  0  0  0  0
  188.9120  177.9220  147.0470 C   0  0  0  0  0  2  0  0  0  0  0  0
  189.1210  177.4360  145.6340 C   0  0  0  0  0  0  0  0  0  0  0  0
  190.2050  176.7360  145.2830 C   0  0  0  0  0  3  0  0  0  0  0  0
  192.2540  175.7720  145.9530 O   0  0  0  0  0  0  0  0  0  0  0  0
  191.0890  176.9150  147.6160 N   0  0  0  0  0  0  0  0  0  0  0  0
  191.2370  176.4390  146.2770 C   0  0  0  0  0  0  0  0  0  0  0  0
  190.0450  177.5950  147.9890 C   0  0  0  0  0  3  0  0  0  0  0  0
  188.9050  177.8440  138.7030 C   0  0  0  0  0  2  0  0  0  0  0  0
  188.9610  176.5390  137.9200 C   0  0  0  0  0  0  0  0  0  0  0  0
  187.6210  175.9000  137.6480 C   0  0  0  0  0  2  0  0  0  0  0  0
  188.3770  176.6050  136.5290 C   0  0  0  0  0  2  0  0  0  0  0  0
  190.1310  175.5700  138.0710 C   0  0  0  0  0  2  0  0  0  0  0  0
  191.2490  175.8620  137.0800 C   0  0  0  0  0  2  0  0  0  0  0  0
  192.7660  176.3630  137.9450 S   0  0  0  0  0  1  0  0  0  0  0  0
  184.3970  178.5150  139.4700 O   0  0  0  0  0  0  0  0  0  0  0  0
  182.9990  179.2290  138.8310 P   0  0  0  0  0  4  0  0  0  0  0  0
  182.6840  178.6070  137.3060 F   0  0  0  0  0  0  0  0  0  0  0  0
  181.6940  178.9300  139.8380 F   0  0  0  0  0  0  0  0  0  0  0  0
  183.2310  180.8820  138.7100 F   0  0  0  0  0  0  0  0  0  0  0  0
  1 13  1  0  0  0  0
  2  6  1  0  0  0  0
  3  5  1  0  0  0  0
  3  7  1  0  0  0  0
  4  1  1  0  0  0  0
  4  6  1  0  0  0  0
  5  1  1  0  0  0  0
  6 15  1  0  0  0  0
  7 10  1  0  0  0  0
  8 14  1  0  0  0  0
  8  5  1  0  0  0  0
  9 18  1  0  0  0  0
 10 13  1  0  0  0  0
 11 12  1  0  0  0  0
 12  2  1  0  0  0  0
 13  9  1  0  0  0  0
 14  4  1  0  0  0  0
 15 18  1  0  0  0  0
 15 20  1  0  0  0  0
 16 11  1  0  0  0  0
 16 12  1  0  0  0  0
 17 16  1  0  0  0  0
 17 14  1  0  0  0  0
 19 25  1  0  0  0  0
 20 19  1  0  0  0  0
 21 20  2  0  0  0  0
 21 24  1  0  0  0  0
 22 24  2  0  0  0  0
 23 25  2  0  0  0  0
 24 23  1  0  0  0  0
 26 17  1  0  0  0  0
 27 30  1  0  0  0  0
 27 26  1  0  0  0  0
 28 27  1  0  0  0  0
 29 28  1  0  0  0  0
 29 27  1  0  0  0  0
 31 32  1  0  0  0  0
 31 30  1  0  0  0  0
 33  3  1  0  0  0  0
 34 33  1  0  0  0  0
 34 36  1  0  0  0  0
 35 34  1  0  0  0  0
 37 34  1  0  0  0  0
M  END
>  <MODEL>
1

>  <REMARK>
 VINA RESULT:      -8.5      0.000      0.000
  Name = 
  7 active torsions:
  status: ('A' for Active; 'I' for Inactive)
    1  A    between atoms: C_1  and  C_4
    2  A    between atoms: C_1  and  C_27
    3  A    between atoms: P_2  and  O_22
    4  A    between atoms: C_4  and  C_12
    5  A    between atoms: C_6  and  O_22
    6  A    between atoms: C_8  and  C_12
    7  A    between atoms: C_23  and  C_30
                            x       y       z     vdW  Elec       q    Type
                         _______ _______ _______ _____ _____    ______ ____

>  <TORSDO>
F 7

$$$$
=
 OpenBabel11122411483D

 37 43  0  0  1  0  0  0  0  0999 V2000
  186.4360  178.6610  142.5420 C   0  0  1  0  0  3  0  0  0  0  0  0
  189.7140  178.5100  142.9800 O   0  0  0  0  0  0  0  0  0  0  0  0
  184.5370  178.9530  140.7880 C   0  0  2  0  0  3  0  0  0  0  0  0
  187.5870  177.8230  142.1240 C   0  0  2  0  0  3  0  0  0  0  0  0
  186.0090  179.2200  141.1930 C   0  0  2  0  0  3  0  0  0  0  0  0
  188.6540  177.6160  143.2040 C   0  0  2  0  0  3  0  0  0  0  0  0
  183.8020  177.9990  141.7420 C   0  0  0  0  0  2  0  0  0  0  0  0
  186.9520  178.7840  140.2320 O   0  0  0  0  0  0  0  0  0  0  0  0
  185.8280  177.6110  144.6880 C   0  0  0  0  0  2  0  0  0  0  0  0
  184.1400  178.2720  143.0770 O   0  0  0  0  0  0  0  0  0  0  0  0
  190.6110  176.4990  141.6780 C   0  0  0  0  0  2  0  0  0  0  0  0
  190.7720  177.9140  142.2270 C   0  0  1  0  0  3  0  0  0  0  0  0
  185.4280  177.7470  143.2190 C   0  0  1  0  0  3  0  0  0  0  0  0
  188.0840  178.5180  140.9540 N   0  0  2  0  0  0  0  0  0  0  0  0
  188.0960  177.7100  144.6410 C   0  0  1  0  0  3  0  0  0  0  0  0
  190.4260  177.6770  140.7340 C   0  0  2  0  0  3  0  0  0  0  0  0
  188.9660  177.5990  140.2300 C   0  0  2  0  0  3  0  0  0  0  0  0
  187.0000  176.8370  144.8040 O   0  0  0  0  0  0  0  0  0  0  0  0
  188.9540  177.9210  147.0620 C   0  0  0  0  0  2  0  0  0  0  0  0
  189.1520  177.4050  145.6570 C   0  0  0  0  0  0  0  0  0  0  0  0
  190.2250  176.6840  145.3160 C   0  0  0  0  0  3  0  0  0  0  0  0
  192.2640  175.7070  145.9990 O   0  0  0  0  0  0  0  0  0  0  0  0
  191.1190  176.8970  147.6430 N   0  0  0  0  0  0  0  0  0  0  0  0
  191.2570  176.3940  146.3130 C   0  0  0  0  0  0  0  0  0  0  0  0
  190.0860  177.5970  148.0060 C   0  0  0  0  0  3  0  0  0  0  0  0
  188.9680  177.8810  138.7300 C   0  0  0  0  0  2  0  0  0  0  0  0
  188.9590  176.5830  137.9330 C   0  0  0  0  0  0  0  0  0  0  0  0
  190.0400  176.4700  136.8860 C   0  0  0  0  0  2  0  0  0  0  0  0
  190.1400  175.6750  138.1820 C   0  0  0  0  0  2  0  0  0  0  0  0
  187.6560  175.8560  137.6100 C   0  0  0  0  0  2  0  0  0  0  0  0
  186.5480  176.8180  137.2050 C   0  0  0  0  0  2  0  0  0  0  0  0
  184.9980  175.9250  136.8890 S   0  0  0  0  0  1  0  0  0  0  0  0
  184.4460  178.4740  139.4780 O   0  0  0  0  0  0  0  0  0  0  0  0
  183.0660  179.2090  138.8220 P   0  0  0  0  0  4  0  0  0  0  0  0
  182.7450  178.5730  137.3050 F   0  0  0  0  0  0  0  0  0  0  0  0
  181.7520  178.9520  139.8280 F   0  0  0  0  0  0  0  0  0  0  0  0
  183.3350  180.8540  138.6800 F   0  0  0  0  0  0  0  0  0  0  0  0
  1 13  1  0  0  0  0
  2  6  1  0  0  0  0
  3  5  1  0  0  0  0
  3  7  1  0  0  0  0
  4  1  1  0  0  0  0
  4  6  1  0  0  0  0
  5  1  1  0  0  0  0
  6 15  1  0  0  0  0
  7 10  1  0  0  0  0
  8 14  1  0  0  0  0
  8  5  1  0  0  0  0
  9 18  1  0  0  0  0
 10 13  1  0  0  0  0
 11 12  1  0  0  0  0
 12  2  1  0  0  0  0
 13  9  1  0  0  0  0
 14  4  1  0  0  0  0
 15 18  1  0  0  0  0
 15 20  1  0  0  0  0
 16 11  1  0  0  0  0
 16 12  1  0  0  0  0
 17 16  1  0  0  0  0
 17 14  1  0  0  0  0
 19 25  1  0  0  0  0
 20 19  1  0  0  0  0
 21 20  2  0  0  0  0
 21 24  1  0  0  0  0
 22 24  2  0  0  0  0
 23 25  2  0  0  0  0
 24 23  1  0  0  0  0
 26 17  1  0  0  0  0
 27 29  1  0  0  0  0
 27 26  1  0  0  0  0
 28 27  1  0  0  0  0
 28 29  1  0  0  0  0
 30 27  1  0  0  0  0
 31 30  1  0  0  0  0
 32 31  1  0  0  0  0
 33  3  1  0  0  0  0
 34 33  1  0  0  0  0
 34 36  1  0  0  0  0
 35 34  1  0  0  0  0
 37 34  1  0  0  0  0
M  END
>  <MODEL>
2

>  <REMARK>
 VINA RESULT:      -8.4      1.335      1.682
  Name = 
  7 active torsions:
  status: ('A' for Active; 'I' for Inactive)
    1  A    between atoms: C_1  and  C_4
    2  A    between atoms: C_1  and  C_27
    3  A    between atoms: P_2  and  O_22
    4  A    between atoms: C_4  and  C_12
    5  A    between atoms: C_6  and  O_22
    6  A    between atoms: C_8  and  C_12
    7  A    between atoms: C_23  and  C_30
                            x       y       z     vdW  Elec       q    Type
                         _______ _______ _______ _____ _____    ______ ____

>  <TORSDO>
F 7

$$$$
=
 OpenBabel11122411483D

 37 43  0  0  1  0  0  0  0  0999 V2000
  188.0340  178.1050  141.8740 C   0  0  1  0  0  3  0  0  0  0  0  0
  189.1500  178.6180  138.7990 O   0  0  0  0  0  0  0  0  0  0  0  0
  185.9700  178.2980  143.4460 C   0  0  2  0  0  3  0  0  0  0  0  0
  187.7590  177.6480  140.4890 C   0  0  2  0  0  3  0  0  0  0  0  0
  186.7210  178.8060  142.1890 C   0  0  2  0  0  3  0  0  0  0  0  0
  189.0030  177.4810  139.6110 C   0  0  2  0  0  3  0  0  0  0  0  0
  186.5900  177.0340  144.0610 C   0  0  0  0  0  2  0  0  0  0  0  0
  185.9360  178.7930  141.0120 O   0  0  0  0  0  0  0  0  0  0  0  0
  189.8180  176.5460  142.5520 C   0  0  0  0  0  2  0  0  0  0  0  0
  187.9920  177.1090  144.0450 O   0  0  0  0  0  0  0  0  0  0  0  0
  187.7940  177.1580  137.1950 C   0  0  0  0  0  2  0  0  0  0  0  0
  188.5660  178.4370  137.5070 C   0  0  1  0  0  3  0  0  0  0  0  0
  188.3340  176.8720  142.7100 C   0  0  1  0  0  3  0  0  0  0  0  0
  186.8400  178.6540  139.9950 N   0  0  2  0  0  0  0  0  0  0  0  0
  190.2820  177.1630  140.4170 C   0  0  1  0  0  3  0  0  0  0  0  0
  187.0160  178.4240  137.5130 C   0  0  2  0  0  3  0  0  0  0  0  0
  186.2000  178.1190  138.7900 C   0  0  2  0  0  3  0  0  0  0  0  0
  190.0730  176.0500  141.2570 O   0  0  0  0  0  0  0  0  0  0  0  0
  192.8130  177.3580  139.9760 C   0  0  0  0  0  2  0  0  0  0  0  0
  191.4480  176.9120  139.5120 C   0  0  0  0  0  0  0  0  0  0  0  0
  191.2690  176.2970  138.3380 C   0  0  0  0  0  3  0  0  0  0  0  0
  192.2500  175.4730  136.3550 O   0  0  0  0  0  0  0  0  0  0  0  0
  193.7130  176.5010  137.8470 N   0  0  0  0  0  0  0  0  0  0  0  0
  192.4120  176.0600  137.4560 C   0  0  0  0  0  0  0  0  0  0  0  0
  193.9200  177.0980  138.9840 C   0  0  0  0  0  3  0  0  0  0  0  0
  184.7930  178.6820  138.6000 C   0  0  0  0  0  2  0  0  0  0  0  0
  183.7580  177.5660  138.5880 C   0  0  0  0  0  0  0  0  0  0  0  0
  182.9890  177.4220  137.2970 C   0  0  0  0  0  2  0  0  0  0  0  0
  184.0730  176.4150  137.6610 C   0  0  0  0  0  2  0  0  0  0  0  0
  182.9950  177.1730  139.8510 C   0  0  0  0  0  2  0  0  0  0  0  0
  182.3510  178.3750  140.5280 C   0  0  0  0  0  2  0  0  0  0  0  0
  180.5830  178.0820  140.8210 S   0  0  0  0  0  1  0  0  0  0  0  0
  184.6160  178.0770  143.1780 O   0  0  0  0  0  0  0  0  0  0  0  0
  183.7720  179.0720  144.2600 P   0  0  0  0  0  4  0  0  0  0  0  0
  182.1390  179.0750  143.8810 F   0  0  0  0  0  0  0  0  0  0  0  0
  183.9840  178.5190  145.8270 F   0  0  0  0  0  0  0  0  0  0  0  0
  184.3640  180.6340  144.1450 F   0  0  0  0  0  0  0  0  0  0  0  0
  1  5  1  0  0  0  0
  1 13  1  0  0  0  0
  2  6  1  0  0  0  0
  3  7  1  0  0  0  0
  4  1  1  0  0  0  0
  5  3  1  0  0  0  0
  6 15  1  0  0  0  0
  6  4  1  0  0  0  0
  8  5  1  0  0  0  0
  9 13  1  0  0  0  0
 10  7  1  0  0  0  0
 11 12  1  0  0  0  0
 11 16  1  0  0  0  0
 12 16  1  0  0  0  0
 12  2  1  0  0  0  0
 13 10  1  0  0  0  0
 14  4  1  0  0  0  0
 14  8  1  0  0  0  0
 15 18  1  0  0  0  0
 16 17  1  0  0  0  0
 17 14  1  0  0  0  0
 18  9  1  0  0  0  0
 20 19  1  0  0  0  0
 20 15  1  0  0  0  0
 21 20  2  0  0  0  0
 22 24  2  0  0  0  0
 23 25  2  0  0  0  0
 24 23  1  0  0  0  0
 24 21  1  0  0  0  0
 25 19  1  0  0  0  0
 26 17  1  0  0  0  0
 27 26  1  0  0  0  0
 27 30  1  0  0  0  0
 28 29  1  0  0  0  0
 28 27  1  0  0  0  0
 29 27  1  0  0  0  0
 30 31  1  0  0  0  0
 31 32  1  0  0  0  0
 33  3  1  0  0  0  0
 33 34  1  0  0  0  0
 34 36  1  0  0  0  0
 35 34  1  0  0  0  0
 37 34  1  0  0  0  0
M  END
>  <MODEL>
3

>  <REMARK>
 VINA RESULT:      -8.3      3.702      6.019
  Name = 
  7 active torsions:
  status: ('A' for Active; 'I' for Inactive)
    1  A    between atoms: C_1  and  C_4
    2  A    between atoms: C_1  and  C_27
    3  A    between atoms: P_2  and  O_22
    4  A    between atoms: C_4  and  C_12
    5  A    between atoms: C_6  and  O_22
    6  A    between atoms: C_8  and  C_12
    7  A    between atoms: C_23  and  C_30
                            x       y       z     vdW  Elec       q    Type
                         _______ _______ _______ _____ _____    ______ ____

>  <TORSDO>
F 7

$$$$
=
 OpenBabel11122411483D

 37 43  0  0  1  0  0  0  0  0999 V2000
  187.1490  178.1680  138.0470 C   0  0  1  0  0  3  0  0  0  0  0  0
  185.3670  179.5930  140.4460 O   0  0  0  0  0  0  0  0  0  0  0  0
  189.5260  177.3700  137.3530 C   0  0  2  0  0  3  0  0  0  0  0  0
  186.7630  177.9190  139.4580 C   0  0  2  0  0  3  0  0  0  0  0  0
  188.6540  178.3260  138.2060 C   0  0  2  0  0  3  0  0  0  0  0  0
  185.3340  178.3390  139.8140 C   0  0  2  0  0  3  0  0  0  0  0  0
  188.7160  176.2870  136.6240 C   0  0  0  0  0  2  0  0  0  0  0  0
  188.9450  178.2810  139.5900 O   0  0  0  0  0  0  0  0  0  0  0  0
  185.2390  177.1810  136.8420 C   0  0  0  0  0  2  0  0  0  0  0  0
  187.5220  176.8190  136.1110 O   0  0  0  0  0  0  0  0  0  0  0  0
  185.4710  178.1030  142.5220 C   0  0  0  0  0  2  0  0  0  0  0  0
  185.3830  179.4810  141.8700 C   0  0  1  0  0  3  0  0  0  0  0  0
  186.7010  176.9660  137.2320 C   0  0  1  0  0  3  0  0  0  0  0  0
  187.7750  178.6420  140.2010 N   0  0  2  0  0  0  0  0  0  0  0  0
  184.3690  178.3110  138.6090 C   0  0  1  0  0  3  0  0  0  0  0  0
  186.7250  178.9600  142.4450 C   0  0  2  0  0  3  0  0  0  0  0  0
  187.7360  178.1660  141.5870 C   0  0  2  0  0  3  0  0  0  0  0  0
  184.4090  177.0520  137.9740 O   0  0  0  0  0  0  0  0  0  0  0  0
  182.3520  179.9110  138.5090 C   0  0  0  0  0  2  0  0  0  0  0  0
  182.9670  178.6320  139.0240 C   0  0  0  0  0  0  0  0  0  0  0  0
  182.2910  177.7950  139.8180 C   0  0  0  0  0  3  0  0  0  0  0  0
  180.2800  177.3280  140.9630 O   0  0  0  0  0  0  0  0  0  0  0  0
  180.3220  179.3370  139.7850 N   0  0  0  0  0  0  0  0  0  0  0  0
  180.9230  178.1180  140.2250 C   0  0  0  0  0  0  0  0  0  0  0  0
  180.9520  180.1700  139.0100 C   0  0  0  0  0  3  0  0  0  0  0  0
  189.1050  178.2630  142.2560 C   0  0  0  0  0  2  0  0  0  0  0  0
  189.2220  177.2640  143.4000 C   0  0  0  0  0  0  0  0  0  0  0  0
  188.4510  175.9800  143.2060 C   0  0  0  0  0  2  0  0  0  0  0  0
  189.9670  175.9940  143.0620 C   0  0  0  0  0  2  0  0  0  0  0  0
  189.3750  177.7240  144.8470 C   0  0  0  0  0  2  0  0  0  0  0  0
  188.0960  177.5250  145.6490 C   0  0  0  0  0  2  0  0  0  0  0  0
  188.4560  177.4160  147.4260 S   0  0  0  0  0  1  0  0  0  0  0  0
  190.5310  176.7730  138.1200 O   0  0  0  0  0  0  0  0  0  0  0  0
  191.6130  176.0990  137.0030 P   0  0  0  0  0  4  0  0  0  0  0  0
  191.5240  174.4250  137.0580 F   0  0  0  0  0  0  0  0  0  0  0  0
  191.2420  176.6300  135.4590 F   0  0  0  0  0  0  0  0  0  0  0  0
  193.1690  176.5770  137.3890 F   0  0  0  0  0  0  0  0  0  0  0  0
  1  5  1  0  0  0  0
  1  4  1  0  0  0  0
  2 12  1  0  0  0  0
  3 33  1  0  0  0  0
  3  5  1  0  0  0  0
  4  6  1  0  0  0  0
  4 14  1  0  0  0  0
  5  8  1  0  0  0  0
  6  2  1  0  0  0  0
  7  3  1  0  0  0  0
  8 14  1  0  0  0  0
  9 13  1  0  0  0  0
  9 18  1  0  0  0  0
 10  7  1  0  0  0  0
 10 13  1  0  0  0  0
 12 16  1  0  0  0  0
 12 11  1  0  0  0  0
 13  1  1  0  0  0  0
 14 17  1  0  0  0  0
 15 20  1  0  0  0  0
 15  6  1  0  0  0  0
 16 11  1  0  0  0  0
 17 26  1  0  0  0  0
 17 16  1  0  0  0  0
 18 15  1  0  0  0  0
 19 25  1  0  0  0  0
 19 20  1  0  0  0  0
 20 21  2  0  0  0  0
 21 24  1  0  0  0  0
 23 24  1  0  0  0  0
 24 22  2  0  0  0  0
 25 23  2  0  0  0  0
 26 27  1  0  0  0  0
 27 30  1  0  0  0  0
 28 27  1  0  0  0  0
 29 28  1  0  0  0  0
 29 27  1  0  0  0  0
 30 31  1  0  0  0  0
 31 32  1  0  0  0  0
 34 35  1  0  0  0  0
 34 37  1  0  0  0  0
 34 33  1  0  0  0  0
 36 34  1  0  0  0  0
M  END
>  <MODEL>
4

>  <REMARK>
 VINA RESULT:      -8.1      4.451      7.943
  Name = 
  7 active torsions:
  status: ('A' for Active; 'I' for Inactive)
    1  A    between atoms: C_1  and  C_4
    2  A    between atoms: C_1  and  C_27
    3  A    between atoms: P_2  and  O_22
    4  A    between atoms: C_4  and  C_12
    5  A    between atoms: C_6  and  O_22
    6  A    between atoms: C_8  and  C_12
    7  A    between atoms: C_23  and  C_30
                            x       y       z     vdW  Elec       q    Type
                         _______ _______ _______ _____ _____    ______ ____

>  <TORSDO>
F 7

$$$$
=
 OpenBabel11122411483D

 37 43  0  0  1  0  0  0  0  0999 V2000
  185.6240  178.9650  141.0280 C   0  0  1  0  0  3  0  0  0  0  0  0
  188.8350  178.7860  140.2430 O   0  0  0  0  0  0  0  0  0  0  0  0
  183.2110  179.1660  140.0760 C   0  0  2  0  0  3  0  0  0  0  0  0
  186.5490  178.0790  140.2790 C   0  0  2  0  0  3  0  0  0  0  0  0
  184.7260  179.4340  139.8920 C   0  0  2  0  0  3  0  0  0  0  0  0
  187.9390  177.9300  140.9040 C   0  0  2  0  0  3  0  0  0  0  0  0
  182.8860  178.2960  141.3000 C   0  0  0  0  0  2  0  0  0  0  0  0
  185.2540  178.9150  138.6870 O   0  0  0  0  0  0  0  0  0  0  0  0
  185.8560  178.0820  143.3170 C   0  0  0  0  0  2  0  0  0  0  0  0
  183.6880  178.6570  142.3940 O   0  0  0  0  0  0  0  0  0  0  0  0
  189.2100  176.6720  138.8530 C   0  0  0  0  0  2  0  0  0  0  0  0
  189.5480  178.1200  139.2000 C   0  0  1  0  0  3  0  0  0  0  0  0
  184.9430  178.1200  142.0920 C   0  0  1  0  0  3  0  0  0  0  0  0
  186.5750  178.6800  138.9610 N   0  0  2  0  0  0  0  0  0  0  0  0
  187.9470  178.1370  142.4350 C   0  0  1  0  0  3  0  0  0  0  0  0
  188.6800  177.7830  137.9600 C   0  0  2  0  0  3  0  0  0  0  0  0
  187.1390  177.6960  138.0330 C   0  0  2  0  0  3  0  0  0  0  0  0
  186.9960  177.2970  143.0520 O   0  0  0  0  0  0  0  0  0  0  0  0
  190.0820  179.0680  143.5370 C   0  0  0  0  0  2  0  0  0  0  0  0
  189.3050  177.8850  143.0120 C   0  0  0  0  0  0  0  0  0  0  0  0
  189.7940  176.6420  143.0660 C   0  0  0  0  0  3  0  0  0  0  0  0
  191.5850  175.2340  143.6870 O   0  0  0  0  0  0  0  0  0  0  0  0
  191.9020  177.5050  144.0990 N   0  0  0  0  0  0  0  0  0  0  0  0
  191.1250  176.4030  143.6260 C   0  0  0  0  0  0  0  0  0  0  0  0
  191.4530  178.7240  144.0640 C   0  0  0  0  0  3  0  0  0  0  0  0
  186.5860  177.8710  136.6200 C   0  0  0  0  0  2  0  0  0  0  0  0
  186.0060  176.5630  136.0990 C   0  0  0  0  0  0  0  0  0  0  0  0
  185.8410  176.4910  134.6000 C   0  0  0  0  0  2  0  0  0  0  0  0
  186.9610  175.7210  135.2870 C   0  0  0  0  0  2  0  0  0  0  0  0
  184.9870  175.7650  136.9080 C   0  0  0  0  0  2  0  0  0  0  0  0
  184.7500  174.3790  136.3230 C   0  0  0  0  0  2  0  0  0  0  0  0
  185.0580  173.0910  137.5650 S   0  0  0  0  0  1  0  0  0  0  0  0
  182.6490  178.5970  138.9290 O   0  0  0  0  0  0  0  0  0  0  0  0
  181.6330  179.7900  138.2830 P   0  0  0  0  0  4  0  0  0  0  0  0
  180.1500  179.7630  139.0630 F   0  0  0  0  0  0  0  0  0  0  0  0
  182.3370  181.2980  138.4660 F   0  0  0  0  0  0  0  0  0  0  0  0
  181.4000  179.4880  136.6530 F   0  0  0  0  0  0  0  0  0  0  0  0
  1 13  1  0  0  0  0
  2  6  1  0  0  0  0
  3  7  1  0  0  0  0
  4  6  1  0  0  0  0
  4  1  1  0  0  0  0
  5  3  1  0  0  0  0
  5  1  1  0  0  0  0
  6 15  1  0  0  0  0
  7 10  1  0  0  0  0
  8 14  1  0  0  0  0
  8  5  1  0  0  0  0
 11 12  1  0  0  0  0
 12  2  1  0  0  0  0
 13 10  1  0  0  0  0
 13  9  1  0  0  0  0
 14  4  1  0  0  0  0
 15 20  1  0  0  0  0
 15 18  1  0  0  0  0
 16 17  1  0  0  0  0
 16 11  1  0  0  0  0
 16 12  1  0  0  0  0
 17 14  1  0  0  0  0
 18  9  1  0  0  0  0
 19 25  1  0  0  0  0
 20 21  2  0  0  0  0
 20 19  1  0  0  0  0
 21 24  1  0  0  0  0
 24 22  2  0  0  0  0
 24 23  1  0  0  0  0
 25 23  2  0  0  0  0
 26 17  1  0  0  0  0
 27 26  1  0  0  0  0
 27 30  1  0  0  0  0
 28 29  1  0  0  0  0
 28 27  1  0  0  0  0
 29 27  1  0  0  0  0
 31 30  1  0  0  0  0
 31 32  1  0  0  0  0
 33  3  1  0  0  0  0
 34 36  1  0  0  0  0
 34 33  1  0  0  0  0
 34 35  1  0  0  0  0
 37 34  1  0  0  0  0
M  END
>  <MODEL>
5

>  <REMARK>
 VINA RESULT:      -7.9      2.409      3.195
  Name = 
  7 active torsions:
  status: ('A' for Active; 'I' for Inactive)
    1  A    between atoms: C_1  and  C_4
    2  A    between atoms: C_1  and  C_27
    3  A    between atoms: P_2  and  O_22
    4  A    between atoms: C_4  and  C_12
    5  A    between atoms: C_6  and  O_22
    6  A    between atoms: C_8  and  C_12
    7  A    between atoms: C_23  and  C_30
                            x       y       z     vdW  Elec       q    Type
                         _______ _______ _______ _____ _____    ______ ____

>  <TORSDO>
F 7

$$$$
=
 OpenBabel11122411483D

 37 43  0  0  1  0  0  0  0  0999 V2000
  188.5130  178.0090  140.6990 C   0  0  1  0  0  3  0  0  0  0  0  0
  188.8550  178.3640  137.4250 O   0  0  0  0  0  0  0  0  0  0  0  0
  186.8980  178.3240  142.7140 C   0  0  2  0  0  3  0  0  0  0  0  0
  187.9010  177.5040  139.4450 C   0  0  2  0  0  3  0  0  0  0  0  0
  187.3290  178.7600  141.2900 C   0  0  2  0  0  3  0  0  0  0  0  0
  188.8910  177.2660  138.3010 C   0  0  2  0  0  3  0  0  0  0  0  0
  187.6270  177.0700  143.2190 C   0  0  0  0  0  2  0  0  0  0  0  0
  186.2810  178.7200  140.3410 O   0  0  0  0  0  0  0  0  0  0  0  0
  190.3810  176.4290  140.9960 C   0  0  0  0  0  2  0  0  0  0  0  0
  188.9840  177.1040  142.8590 O   0  0  0  0  0  0  0  0  0  0  0  0
  187.1240  176.8780  136.2670 C   0  0  0  0  0  2  0  0  0  0  0  0
  187.9720  178.1470  136.3230 C   0  0  1  0  0  3  0  0  0  0  0  0
  188.9860  176.8030  141.4940 C   0  0  1  0  0  3  0  0  0  0  0  0
  186.9080  178.5140  139.1420 N   0  0  2  0  0  0  0  0  0  0  0  0
  190.3220  176.9450  138.7860 C   0  0  1  0  0  3  0  0  0  0  0  0
  186.4690  178.1780  136.7060 C   0  0  2  0  0  3  0  0  0  0  0  0
  185.9830  177.9480  138.1550 C   0  0  2  0  0  3  0  0  0  0  0  0
  190.3040  175.8740  139.7030 O   0  0  0  0  0  0  0  0  0  0  0  0
  190.5960  176.3060  136.3050 C   0  0  0  0  0  2  0  0  0  0  0  0
  191.2280  176.6240  137.6380 C   0  0  0  0  0  0  0  0  0  0  0  0
  192.5550  176.6370  137.8040 C   0  0  0  0  0  3  0  0  0  0  0  0
  194.6840  176.3360  136.8280 O   0  0  0  0  0  0  0  0  0  0  0  0
  192.8690  175.9750  135.4120 N   0  0  0  0  0  0  0  0  0  0  0  0
  193.4340  176.3160  136.6790 C   0  0  0  0  0  0  0  0  0  0  0  0
  191.5840  175.9580  135.2190 C   0  0  0  0  0  3  0  0  0  0  0  0
  184.5830  178.5430  138.2860 C   0  0  0  0  0  2  0  0  0  0  0  0
  183.5340  177.4440  138.3870 C   0  0  0  0  0  0  0  0  0  0  0  0
  183.1310  177.0740  139.7940 C   0  0  0  0  0  2  0  0  0  0  0  0
  182.1920  177.8920  138.9160 C   0  0  0  0  0  2  0  0  0  0  0  0
  183.4670  176.3100  137.3670 C   0  0  0  0  0  2  0  0  0  0  0  0
  183.4470  174.9410  138.0350 C   0  0  0  0  0  2  0  0  0  0  0  0
  184.7720  173.8840  137.3840 S   0  0  0  0  0  1  0  0  0  0  0  0
  185.5160  178.1310  142.7940 O   0  0  0  0  0  0  0  0  0  0  0  0
  185.0190  178.9770  144.1760 P   0  0  0  0  0  4  0  0  0  0  0  0
  183.5290  178.4070  144.6920 F   0  0  0  0  0  0  0  0  0  0  0  0
  186.1480  178.7850  145.3980 F   0  0  0  0  0  0  0  0  0  0  0  0
  184.8840  180.6030  143.8050 F   0  0  0  0  0  0  0  0  0  0  0  0
  1  5  1  0  0  0  0
  1 13  1  0  0  0  0
  2  6  1  0  0  0  0
  3 33  1  0  0  0  0
  3  7  1  0  0  0  0
  4  1  1  0  0  0  0
  5  3  1  0  0  0  0
  6 15  1  0  0  0  0
  6  4  1  0  0  0  0
  8  5  1  0  0  0  0
  9 13  1  0  0  0  0
 10  7  1  0  0  0  0
 11 12  1  0  0  0  0
 11 16  1  0  0  0  0
 12 16  1  0  0  0  0
 12  2  1  0  0  0  0
 13 10  1  0  0  0  0
 14  4  1  0  0  0  0
 14  8  1  0  0  0  0
 15 18  1  0  0  0  0
 16 17  1  0  0  0  0
 17 26  1  0  0  0  0
 17 14  1  0  0  0  0
 18  9  1  0  0  0  0
 19 20  1  0  0  0  0
 20 21  2  0  0  0  0
 20 15  1  0  0  0  0
 23 24  1  0  0  0  0
 24 22  2  0  0  0  0
 24 21  1  0  0  0  0
 25 23  2  0  0  0  0
 25 19  1  0  0  0  0
 26 27  1  0  0  0  0
 27 29  1  0  0  0  0
 27 28  1  0  0  0  0
 29 28  1  0  0  0  0
 30 31  1  0  0  0  0
 30 27  1  0  0  0  0
 32 31  1  0  0  0  0
 33 34  1  0  0  0  0
 34 35  1  0  0  0  0
 34 36  1  0  0  0  0
 37 34  1  0  0  0  0
M  END
>  <MODEL>
6

>  <REMARK>
 VINA RESULT:      -7.9      3.621      6.634
  Name = 
  7 active torsions:
  status: ('A' for Active; 'I' for Inactive)
    1  A    between atoms: C_1  and  C_4
    2  A    between atoms: C_1  and  C_27
    3  A    between atoms: P_2  and  O_22
    4  A    between atoms: C_4  and  C_12
    5  A    between atoms: C_6  and  O_22
    6  A    between atoms: C_8  and  C_12
    7  A    between atoms: C_23  and  C_30
                            x       y       z     vdW  Elec       q    Type
                         _______ _______ _______ _____ _____    ______ ____

>  <TORSDO>
F 7

$$$$
=
 OpenBabel11122411483D

 37 43  0  0  1  0  0  0  0  0999 V2000
  187.1410  178.0300  138.1280 C   0  0  1  0  0  3  0  0  0  0  0  0
  184.9150  179.5020  140.0870 O   0  0  0  0  0  0  0  0  0  0  0  0
  189.6330  177.3170  137.9030 C   0  0  2  0  0  3  0  0  0  0  0  0
  186.5280  177.8460  139.4670 C   0  0  2  0  0  3  0  0  0  0  0  0
  188.5880  178.2760  138.5290 C   0  0  2  0  0  3  0  0  0  0  0  0
  185.0430  178.2120  139.5460 C   0  0  2  0  0  3  0  0  0  0  0  0
  189.0060  176.1510  137.1230 C   0  0  0  0  0  2  0  0  0  0  0  0
  188.6380  178.3290  139.9420 O   0  0  0  0  0  0  0  0  0  0  0  0
  185.5100  176.8740  136.6870 C   0  0  0  0  0  2  0  0  0  0  0  0
  187.8980  176.5880  136.3800 O   0  0  0  0  0  0  0  0  0  0  0  0
  184.7200  178.1470  142.2480 C   0  0  0  0  0  2  0  0  0  0  0  0
  184.6890  179.4770  141.4980 C   0  0  1  0  0  3  0  0  0  0  0  0
  186.8900  176.7590  137.3330 C   0  0  1  0  0  3  0  0  0  0  0  0
  187.3660  178.6650  140.3200 N   0  0  2  0  0  0  0  0  0  0  0  0
  184.3030  178.0610  138.1990 C   0  0  1  0  0  3  0  0  0  0  0  0
  185.9320  179.0620  142.3260 C   0  0  2  0  0  3  0  0  0  0  0  0
  187.1080  178.2720  141.7080 C   0  0  2  0  0  3  0  0  0  0  0  0
  184.5030  176.7700  137.6680 O   0  0  0  0  0  0  0  0  0  0  0  0
  182.0450  177.4510  139.2810 C   0  0  0  0  0  2  0  0  0  0  0  0
  182.8380  178.3330  138.3480 C   0  0  0  0  0  0  0  0  0  0  0  0
  182.2690  179.3410  137.6780 C   0  0  0  0  0  3  0  0  0  0  0  0
  180.2980  180.5510  137.2020 O   0  0  0  0  0  0  0  0  0  0  0  0
  180.0480  178.7600  138.6710 N   0  0  0  0  0  0  0  0  0  0  0  0
  180.8360  179.5980  137.8240 C   0  0  0  0  0  0  0  0  0  0  0  0
  180.5730  177.7760  139.3390 C   0  0  0  0  0  3  0  0  0  0  0  0
  188.3360  178.4800  142.5920 C   0  0  0  0  0  2  0  0  0  0  0  0
  188.5770  177.2660  143.4790 C   0  0  0  0  0  0  0  0  0  0  0  0
  188.8440  177.5820  144.9320 C   0  0  0  0  0  2  0  0  0  0  0  0
  187.5010  177.0030  144.5050 C   0  0  0  0  0  2  0  0  0  0  0  0
  189.2650  176.0120  142.9450 C   0  0  0  0  0  2  0  0  0  0  0  0
  190.7500  175.9860  143.2810 C   0  0  0  0  0  2  0  0  0  0  0  0
  191.6500  177.2440  142.3290 S   0  0  0  0  0  1  0  0  0  0  0  0
  190.5140  176.8200  138.8680 O   0  0  0  0  0  0  0  0  0  0  0  0
  191.8530  176.2430  138.0050 P   0  0  0  0  0  4  0  0  0  0  0  0
  191.8760  174.5670  138.0380 F   0  0  0  0  0  0  0  0  0  0  0  0
  191.7790  176.7720  136.4180 F   0  0  0  0  0  0  0  0  0  0  0  0
  193.2540  176.8230  138.7120 F   0  0  0  0  0  0  0  0  0  0  0  0
  1  5  1  0  0  0  0
  1  4  1  0  0  0  0
  2 12  1  0  0  0  0
  3  5  1  0  0  0  0
  3 33  1  0  0  0  0
  4  6  1  0  0  0  0
  4 14  1  0  0  0  0
  5  8  1  0  0  0  0
  6  2  1  0  0  0  0
  7  3  1  0  0  0  0
  8 14  1  0  0  0  0
  9 13  1  0  0  0  0
  9 18  1  0  0  0  0
 10  7  1  0  0  0  0
 10 13  1  0  0  0  0
 11 16  1  0  0  0  0
 12 11  1  0  0  0  0
 12 16  1  0  0  0  0
 13  1  1  0  0  0  0
 14 17  1  0  0  0  0
 15 20  1  0  0  0  0
 15  6  1  0  0  0  0
 17 16  1  0  0  0  0
 17 26  1  0  0  0  0
 18 15  1  0  0  0  0
 19 25  1  0  0  0  0
 20 19  1  0  0  0  0
 21 24  1  0  0  0  0
 21 20  2  0  0  0  0
 22 24  2  0  0  0  0
 23 25  2  0  0  0  0
 24 23  1  0  0  0  0
 26 27  1  0  0  0  0
 27 29  1  0  0  0  0
 27 28  1  0  0  0  0
 29 28  1  0  0  0  0
 30 31  1  0  0  0  0
 30 27  1  0  0  0  0
 32 31  1  0  0  0  0
 34 35  1  0  0  0  0
 34 37  1  0  0  0  0
 34 33  1  0  0  0  0
 36 34  1  0  0  0  0
M  END
>  <MODEL>
7

>  <REMARK>
 VINA RESULT:      -7.6      4.264      8.102
  Name = 
  7 active torsions:
  status: ('A' for Active; 'I' for Inactive)
    1  A    between atoms: C_1  and  C_4
    2  A    between atoms: C_1  and  C_27
    3  A    between atoms: P_2  and  O_22
    4  A    between atoms: C_4  and  C_12
    5  A    between atoms: C_6  and  O_22
    6  A    between atoms: C_8  and  C_12
    7  A    between atoms: C_23  and  C_30
                            x       y       z     vdW  Elec       q    Type
                         _______ _______ _______ _____ _____    ______ ____

>  <TORSDO>
F 7

$$$$
=
 OpenBabel11122411483D

 37 43  0  0  1  0  0  0  0  0999 V2000
  186.1590  178.7000  141.8330 C   0  0  1  0  0  3  0  0  0  0  0  0
  189.4300  178.4050  141.4140 O   0  0  0  0  0  0  0  0  0  0  0  0
  183.8990  179.1940  140.6410 C   0  0  2  0  0  3  0  0  0  0  0  0
  187.1230  177.8590  141.0800 C   0  0  2  0  0  3  0  0  0  0  0  0
  185.4380  179.3780  140.6770 C   0  0  2  0  0  3  0  0  0  0  0  0
  188.4130  177.5320  141.8370 C   0  0  2  0  0  3  0  0  0  0  0  0
  183.3770  178.1920  141.6830 C   0  0  0  0  0  2  0  0  0  0  0  0
  186.0860  178.9900  139.4810 O   0  0  0  0  0  0  0  0  0  0  0  0
  186.0530  177.5040  143.9850 C   0  0  0  0  0  2  0  0  0  0  0  0
  184.0530  178.3460  142.9040 O   0  0  0  0  0  0  0  0  0  0  0  0
  189.8650  176.4750  139.7920 C   0  0  0  0  0  2  0  0  0  0  0  0
  190.2330  177.8360  140.3780 C   0  0  1  0  0  3  0  0  0  0  0  0
  185.3060  177.7690  142.6790 C   0  0  1  0  0  3  0  0  0  0  0  0
  187.3470  178.6290  139.8730 N   0  0  2  0  0  0  0  0  0  0  0  0
  188.2390  177.5300  143.3720 C   0  0  1  0  0  3  0  0  0  0  0  0
  189.5110  177.7300  139.0090 C   0  0  2  0  0  3  0  0  0  0  0  0
  187.9710  177.7410  138.8870 C   0  0  2  0  0  3  0  0  0  0  0  0
  187.1750  176.6840  143.7470 O   0  0  0  0  0  0  0  0  0  0  0  0
  190.4590  176.2240  143.3080 C   0  0  0  0  0  2  0  0  0  0  0  0
  189.4980  177.1100  144.0630 C   0  0  0  0  0  0  0  0  0  0  0  0
  189.7540  177.5270  145.3080 C   0  0  0  0  0  3  0  0  0  0  0  0
  191.2340  177.5050  147.1480 O   0  0  0  0  0  0  0  0  0  0  0  0
  191.9000  176.2400  145.3080 N   0  0  0  0  0  0  0  0  0  0  0  0
  190.9850  177.1070  145.9800 C   0  0  0  0  0  0  0  0  0  0  0  0
  191.6800  175.8210  144.0970 C   0  0  0  0  0  3  0  0  0  0  0  0
  187.6110  178.1420  137.4590 C   0  0  0  0  0  2  0  0  0  0  0  0
  186.9810  176.9750  136.7100 C   0  0  0  0  0  0  0  0  0  0  0  0
  185.5090  177.1270  136.4140 C   0  0  0  0  0  2  0  0  0  0  0  0
  186.5360  177.2880  135.3010 C   0  0  0  0  0  2  0  0  0  0  0  0
  187.4610  175.5410  136.9200 C   0  0  0  0  0  2  0  0  0  0  0  0
  188.7950  175.2770  136.2330 C   0  0  0  0  0  2  0  0  0  0  0  0
  189.5440  173.7400  136.8430 S   0  0  0  0  0  1  0  0  0  0  0  0
  183.4580  178.8240  139.3680 O   0  0  0  0  0  0  0  0  0  0  0  0
  182.3090  179.9910  138.9300 P   0  0  0  0  0  4  0  0  0  0  0  0
  181.1370  180.1170  140.1220 F   0  0  0  0  0  0  0  0  0  0  0  0
  183.0570  181.4750  138.7190 F   0  0  0  0  0  0  0  0  0  0  0  0
  181.5830  179.5340  137.4930 F   0  0  0  0  0  0  0  0  0  0  0  0
  1 13  1  0  0  0  0
  2  6  1  0  0  0  0
  3  5  1  0  0  0  0
  3  7  1  0  0  0  0
  4  1  1  0  0  0  0
  4  6  1  0  0  0  0
  5  1  1  0  0  0  0
  6 15  1  0  0  0  0
  7 10  1  0  0  0  0
  8 14  1  0  0  0  0
  8  5  1  0  0  0  0
 11 12  1  0  0  0  0
 12  2  1  0  0  0  0
 13 10  1  0  0  0  0
 13  9  1  0  0  0  0
 14  4  1  0  0  0  0
 15 18  1  0  0  0  0
 15 20  1  0  0  0  0
 16 11  1  0  0  0  0
 16 12  1  0  0  0  0
 17 16  1  0  0  0  0
 17 14  1  0  0  0  0
 18  9  1  0  0  0  0
 19 20  1  0  0  0  0
 19 25  1  0  0  0  0
 20 21  2  0  0  0  0
 21 24  1  0  0  0  0
 23 24  1  0  0  0  0
 24 22  2  0  0  0  0
 25 23  2  0  0  0  0
 26 17  1  0  0  0  0
 27 30  1  0  0  0  0
 27 26  1  0  0  0  0
 28 27  1  0  0  0  0
 29 28  1  0  0  0  0
 29 27  1  0  0  0  0
 31 32  1  0  0  0  0
 31 30  1  0  0  0  0
 33  3  1  0  0  0  0
 34 33  1  0  0  0  0
 34 35  1  0  0  0  0
 36 34  1  0  0  0  0
 37 34  1  0  0  0  0
M  END
>  <MODEL>
8

>  <REMARK>
 VINA RESULT:      -7.6      1.514      2.142
  Name = 
  7 active torsions:
  status: ('A' for Active; 'I' for Inactive)
    1  A    between atoms: C_1  and  C_4
    2  A    between atoms: C_1  and  C_27
    3  A    between atoms: P_2  and  O_22
    4  A    between atoms: C_4  and  C_12
    5  A    between atoms: C_6  and  O_22
    6  A    between atoms: C_8  and  C_12
    7  A    between atoms: C_23  and  C_30
                            x       y       z     vdW  Elec       q    Type
                         _______ _______ _______ _____ _____    ______ ____

>  <TORSDO>
F 7

$$$$
=
 OpenBabel11122411483D

 37 43  0  0  1  0  0  0  0  0999 V2000
  188.6490  177.9680  140.3370 C   0  0  1  0  0  3  0  0  0  0  0  0
  189.0420  178.1950  137.0580 O   0  0  0  0  0  0  0  0  0  0  0  0
  186.9850  178.3100  142.3080 C   0  0  2  0  0  3  0  0  0  0  0  0
  188.0800  177.3880  139.0960 C   0  0  2  0  0  3  0  0  0  0  0  0
  187.4280  178.7000  140.8750 C   0  0  2  0  0  3  0  0  0  0  0  0
  189.0990  177.1370  137.9810 C   0  0  2  0  0  3  0  0  0  0  0  0
  187.7480  177.1060  142.8800 C   0  0  0  0  0  2  0  0  0  0  0  0
  186.4000  178.5820  139.9090 O   0  0  0  0  0  0  0  0  0  0  0  0
  190.5660  176.4700  140.7360 C   0  0  0  0  0  2  0  0  0  0  0  0
  189.1100  177.1740  142.5430 O   0  0  0  0  0  0  0  0  0  0  0  0
  187.3870  176.6000  135.9350 C   0  0  0  0  0  2  0  0  0  0  0  0
  188.1880  177.8990  135.9510 C   0  0  1  0  0  3  0  0  0  0  0  0
  189.1490  176.8150  141.1920 C   0  0  1  0  0  3  0  0  0  0  0  0
  187.0570  178.3470  138.7320 N   0  0  2  0  0  0  0  0  0  0  0  0
  190.5310  176.8890  138.5050 C   0  0  1  0  0  3  0  0  0  0  0  0
  186.6780  177.8930  136.3050 C   0  0  2  0  0  3  0  0  0  0  0  0
  186.1730  177.7070  137.7540 C   0  0  2  0  0  3  0  0  0  0  0  0
  190.5330  175.8580  139.4670 O   0  0  0  0  0  0  0  0  0  0  0  0
  190.8760  176.1950  136.0470 C   0  0  0  0  0  2  0  0  0  0  0  0
  191.4700  176.5520  137.3880 C   0  0  0  0  0  0  0  0  0  0  0  0
  192.7910  176.5850  137.5870 C   0  0  0  0  0  3  0  0  0  0  0  0
  194.9480  176.2870  136.6730 O   0  0  0  0  0  0  0  0  0  0  0  0
  193.1750  175.8710  135.2200 N   0  0  0  0  0  0  0  0  0  0  0  0
  193.7040  176.2490  136.4930 C   0  0  0  0  0  0  0  0  0  0  0  0
  191.8950  175.8340  134.9950 C   0  0  0  0  0  3  0  0  0  0  0  0
  184.7500  178.2560  137.8340 C   0  0  0  0  0  2  0  0  0  0  0  0
  183.7320  177.1770  137.4940 C   0  0  0  0  0  0  0  0  0  0  0  0
  184.2200  175.7590  137.6750 C   0  0  0  0  0  2  0  0  0  0  0  0
  183.2430  176.3680  138.6720 C   0  0  0  0  0  2  0  0  0  0  0  0
  182.6980  177.3760  136.3880 C   0  0  0  0  0  2  0  0  0  0  0  0
  181.3160  177.6880  136.9470 C   0  0  0  0  0  2  0  0  0  0  0  0
  180.9580  179.4650  136.8330 S   0  0  0  0  0  1  0  0  0  0  0  0
  185.6090  178.0710  142.3710 O   0  0  0  0  0  0  0  0  0  0  0  0
  185.0940  178.7740  143.8250 P   0  0  0  0  0  4  0  0  0  0  0  0
  186.0800  178.2730  145.0840 F   0  0  0  0  0  0  0  0  0  0  0  0
  185.1450  180.4430  143.7000 F   0  0  0  0  0  0  0  0  0  0  0  0
  183.5210  178.2950  144.1380 F   0  0  0  0  0  0  0  0  0  0  0  0
  1  5  1  0  0  0  0
  1 13  1  0  0  0  0
  2  6  1  0  0  0  0
  3 33  1  0  0  0  0
  3  7  1  0  0  0  0
  4  1  1  0  0  0  0
  5  3  1  0  0  0  0
  6 15  1  0  0  0  0
  6  4  1  0  0  0  0
  8  5  1  0  0  0  0
  9 13  1  0  0  0  0
 10  7  1  0  0  0  0
 11 12  1  0  0  0  0
 11 16  1  0  0  0  0
 12 16  1  0  0  0  0
 12  2  1  0  0  0  0
 13 10  1  0  0  0  0
 14  4  1  0  0  0  0
 14  8  1  0  0  0  0
 15 18  1  0  0  0  0
 16 17  1  0  0  0  0
 17 26  1  0  0  0  0
 17 14  1  0  0  0  0
 18  9  1  0  0  0  0
 19 20  1  0  0  0  0
 20 21  2  0  0  0  0
 20 15  1  0  0  0  0
 23 24  1  0  0  0  0
 24 22  2  0  0  0  0
 24 21  1  0  0  0  0
 25 23  2  0  0  0  0
 25 19  1  0  0  0  0
 27 28  1  0  0  0  0
 27 26  1  0  0  0  0
 27 29  1  0  0  0  0
 28 29  1  0  0  0  0
 30 31  1  0  0  0  0
 30 27  1  0  0  0  0
 32 31  1  0  0  0  0
 33 34  1  0  0  0  0
 34 37  1  0  0  0  0
 34 35  1  0  0  0  0
 36 34  1  0  0  0  0
M  END
>  <MODEL>
9

>  <REMARK>
 VINA RESULT:      -7.4      4.032      6.980
  Name = 
  7 active torsions:
  status: ('A' for Active; 'I' for Inactive)
    1  A    between atoms: C_1  and  C_4
    2  A    between atoms: C_1  and  C_27
    3  A    between atoms: P_2  and  O_22
    4  A    between atoms: C_4  and  C_12
    5  A    between atoms: C_6  and  O_22
    6  A    between atoms: C_8  and  C_12
    7  A    between atoms: C_23  and  C_30
                            x       y       z     vdW  Elec       q    Type
                         _______ _______ _______ _____ _____    ______ ____

>  <TORSDO>
F 7

$$$$
