=
 OpenBabel11122411113D

 31 35  0  0  0  0  0  0  0  0999 V2000
  189.9850  176.7640  142.0150 C   0  0  0  0  0  0  0  0  0  0  0  0
  186.7820  178.3500  143.1810 C   0  0  0  0  0  0  0  0  0  0  0  0
  186.7760  178.2150  144.5950 C   0  0  0  0  0  0  0  0  0  0  0  0
  185.0420  179.3000  138.3110 O   0  0  0  0  0  0  0  0  0  0  0  0
  184.0930  179.4890  139.1200 C   0  0  0  0  0  0  0  0  0  0  0  0
  187.8920  177.7020  146.6410 C   0  0  0  0  0  0  0  0  0  0  0  0
  187.9210  178.1090  142.3650 C   0  0  0  0  0  0  0  0  0  0  0  0
  189.7920  176.8170  140.5230 C   0  0  0  0  0  2  0  0  0  0  0  0
  187.8880  177.8350  145.2880 N   0  0  0  0  0  0  0  0  0  0  0  0
  185.5230  178.8930  141.1560 C   0  0  0  0  0  0  0  0  0  0  0  0
  190.7460  175.9400  142.4930 O   0  0  0  0  0  0  0  0  0  0  0  0
  184.4390  178.8630  144.6380 C   0  0  0  0  0  3  0  0  0  0  0  0
  189.3560  177.2090  147.4640 Cl  0  0  0  0  0  0  0  0  0  0  0  0
  186.6360  178.6580  140.4140 N   0  0  0  0  0  0  0  0  0  0  0  0
  185.5730  178.7460  142.5490 C   0  0  0  0  0  0  0  0  0  0  0  0
  184.2980  179.2970  140.5280 N   0  0  0  0  0  2  0  0  0  0  0  0
  189.2690  177.7240  142.9240 C   0  0  0  0  0  2  0  0  0  0  0  0
  186.7330  177.9570  147.3750 C   0  0  0  0  0  3  0  0  0  0  0  0
  187.8090  178.2710  140.9710 C   0  0  0  0  0  0  0  0  0  0  0  0
  189.0040  178.0550  140.0920 C   0  0  0  0  0  2  0  0  0  0  0  0
  184.4550  178.9870  143.2880 N   0  0  0  0  0  0  0  0  0  0  0  0
  185.5890  178.4790  145.3140 C   0  0  0  0  0  0  0  0  0  0  0  0
  185.5760  178.3480  146.7030 C   0  0  0  0  0  3  0  0  0  0  0  0
  180.2540  180.8090  137.7190 C   0  0  0  0  0  0  0  0  0  0  0  0
  182.4240  181.2730  138.6790 C   0  0  0  0  0  3  0  0  0  0  0  0
  182.0920  177.6350  138.0350 O   0  0  0  0  0  1  0  0  0  0  0  0
  178.9310  181.2840  137.2390 C   0  0  0  0  0  1  0  0  0  0  0  0
  181.1800  181.7200  138.2280 C   0  0  0  0  0  3  0  0  0  0  0  0
  181.8160  178.9960  138.1110 C   0  0  0  0  0  0  0  0  0  0  0  0
  182.7610  179.9110  138.6280 C   0  0  0  0  0  0  0  0  0  0  0  0
  180.5730  179.4520  137.6610 C   0  0  0  0  0  3  0  0  0  0  0  0
  1 11  2  0  0  0  0
  1 17  1  0  0  0  0
  2  3  1  0  0  0  0
  3  9  2  0  0  0  0
  3 22  1  0  0  0  0
  4  5  2  0  0  0  0
  5 16  1  0  0  0  0
  6 18  2  0  0  0  0
  6 13  1  0  0  0  0
  7 17  1  0  0  0  0
  7  2  1  0  0  0  0
  8  1  1  0  0  0  0
  9  6  1  0  0  0  0
 10 15  1  0  0  0  0
 12 22  1  0  0  0  0
 14 19  1  0  0  0  0
 14 10  2  0  0  0  0
 15  2  2  0  0  0  0
 15 21  1  0  0  0  0
 16 10  1  0  0  0  0
 19  7  2  0  0  0  0
 20  8  1  0  0  0  0
 20 19  1  0  0  0  0
 21 12  2  0  0  0  0
 22 23  2  0  0  0  0
 23 18  1  0  0  0  0
 24 28  1  0  0  0  0
 26 29  1  0  0  0  0
 27 24  1  0  0  0  0
 28 25  2  0  0  0  0
 29 30  2  0  0  0  0
 30 25  1  0  0  0  0
 30  5  1  0  0  0  0
 31 24  2  0  0  0  0
 31 29  1  0  0  0  0
M  END
>  <MODEL>
1

>  <REMARK>
 VINA RESULT:     -10.5      0.000      0.000
  Name = 
  1 active torsions:
  status: ('A' for Active; 'I' for Inactive)
    1  A    between atoms: C_5  and  C_30
                            x       y       z     vdW  Elec       q    Type
                         _______ _______ _______ _____ _____    ______ ____

>  <TORSDO>
F 1

$$$$
=
 OpenBabel11122411113D

 31 35  0  0  0  0  0  0  0  0999 V2000
  187.1890  178.4350  147.6350 C   0  0  0  0  0  0  0  0  0  0  0  0
  187.6010  177.5460  144.0060 C   0  0  0  0  0  0  0  0  0  0  0  0
  188.9640  177.1790  143.8500 C   0  0  0  0  0  0  0  0  0  0  0  0
  182.6790  178.8870  142.7320 O   0  0  0  0  0  0  0  0  0  0  0  0
  183.3350  178.7140  141.6690 C   0  0  0  0  0  0  0  0  0  0  0  0
  191.0840  176.6050  144.7830 C   0  0  0  0  0  0  0  0  0  0  0  0
  186.9620  177.7130  145.2650 C   0  0  0  0  0  0  0  0  0  0  0  0
  185.7770  178.9600  147.6320 C   0  0  0  0  0  2  0  0  0  0  0  0
  189.7780  176.9570  144.9220 N   0  0  0  0  0  0  0  0  0  0  0  0
  185.4860  178.1270  142.9260 C   0  0  0  0  0  0  0  0  0  0  0  0
  187.9570  178.7840  148.5150 O   0  0  0  0  0  0  0  0  0  0  0  0
  188.7030  177.2640  141.4400 C   0  0  0  0  0  3  0  0  0  0  0  0
  192.0700  176.3360  146.2040 Cl  0  0  0  0  0  0  0  0  0  0  0  0
  184.9130  178.2710  144.1480 N   0  0  0  0  0  0  0  0  0  0  0  0
  186.8350  177.7630  142.8290 C   0  0  0  0  0  0  0  0  0  0  0  0
  184.7200  178.3390  141.7310 N   0  0  0  0  0  2  0  0  0  0  0  0
  187.6600  177.4710  146.5810 C   0  0  0  0  0  2  0  0  0  0  0  0
  191.6410  176.4600  143.5120 C   0  0  0  0  0  3  0  0  0  0  0  0
  185.6040  178.0830  145.2980 C   0  0  0  0  0  0  0  0  0  0  0  0
  184.8990  178.2330  146.6130 C   0  0  0  0  0  2  0  0  0  0  0  0
  187.4030  177.6160  141.6000 N   0  0  0  0  0  0  0  0  0  0  0  0
  189.5040  177.0400  142.5520 C   0  0  0  0  0  0  0  0  0  0  0  0
  190.8420  176.6800  142.3920 C   0  0  0  0  0  3  0  0  0  0  0  0
  181.3750  179.1850  137.8780 C   0  0  0  0  0  0  0  0  0  0  0  0
  181.4010  178.3670  140.1530 C   0  0  0  0  0  3  0  0  0  0  0  0
  184.5860  180.1190  139.4160 O   0  0  0  0  0  1  0  0  0  0  0  0
  180.6810  179.3380  136.5730 C   0  0  0  0  0  1  0  0  0  0  0  0
  180.7480  178.5110  138.9260 C   0  0  0  0  0  3  0  0  0  0  0  0
  183.3140  179.5760  139.2810 C   0  0  0  0  0  0  0  0  0  0  0  0
  182.6870  178.8940  140.3500 C   0  0  0  0  0  0  0  0  0  0  0  0
  182.6540  179.7150  138.0560 C   0  0  0  0  0  3  0  0  0  0  0  0
  1 11  2  0  0  0  0
  2  7  1  0  0  0  0
  3  2  1  0  0  0  0
  3  9  1  0  0  0  0
  5 16  1  0  0  0  0
  5  4  2  0  0  0  0
  6  9  2  0  0  0  0
  6 13  1  0  0  0  0
  7 19  2  0  0  0  0
  7 17  1  0  0  0  0
  8  1  1  0  0  0  0
 10 14  2  0  0  0  0
 12 21  2  0  0  0  0
 12 22  1  0  0  0  0
 14 19  1  0  0  0  0
 15 10  1  0  0  0  0
 15  2  2  0  0  0  0
 16 10  1  0  0  0  0
 17  1  1  0  0  0  0
 18  6  1  0  0  0  0
 19 20  1  0  0  0  0
 20  8  1  0  0  0  0
 21 15  1  0  0  0  0
 22  3  2  0  0  0  0
 23 22  1  0  0  0  0
 23 18  2  0  0  0  0
 24 31  2  0  0  0  0
 24 28  1  0  0  0  0
 25 30  1  0  0  0  0
 27 24  1  0  0  0  0
 28 25  2  0  0  0  0
 29 26  1  0  0  0  0
 29 30  2  0  0  0  0
 30  5  1  0  0  0  0
 31 29  1  0  0  0  0
M  END
>  <MODEL>
2

>  <REMARK>
 VINA RESULT:     -10.4      2.135      4.366
  Name = 
  1 active torsions:
  status: ('A' for Active; 'I' for Inactive)
    1  A    between atoms: C_5  and  C_30
                            x       y       z     vdW  Elec       q    Type
                         _______ _______ _______ _____ _____    ______ ____

>  <TORSDO>
F 1

$$$$
=
 OpenBabel11122411113D

 31 35  0  0  0  0  0  0  0  0999 V2000
  185.3100  179.0570  144.5320 C   0  0  0  0  0  0  0  0  0  0  0  0
  188.6680  177.4070  144.1660 C   0  0  0  0  0  0  0  0  0  0  0  0
  189.2090  177.3380  145.4770 C   0  0  0  0  0  0  0  0  0  0  0  0
  188.4170  177.2120  138.9180 O   0  0  0  0  0  0  0  0  0  0  0  0
  189.5940  176.9340  139.2730 C   0  0  0  0  0  0  0  0  0  0  0  0
  188.9610  177.5220  147.8430 C   0  0  0  0  0  0  0  0  0  0  0  0
  187.3130  177.7320  143.8830 C   0  0  0  0  0  0  0  0  0  0  0  0
  184.9250  179.2240  143.0860 C   0  0  0  0  0  2  0  0  0  0  0  0
  188.4520  177.5850  146.5840 N   0  0  0  0  0  0  0  0  0  0  0  0
  189.0550  177.1930  141.7610 C   0  0  0  0  0  0  0  0  0  0  0  0
  184.8090  179.7840  145.3740 O   0  0  0  0  0  0  0  0  0  0  0  0
  191.3710  176.7530  144.5440 C   0  0  0  0  0  3  0  0  0  0  0  0
  187.9300  177.8530  149.2180 Cl  0  0  0  0  0  0  0  0  0  0  0  0
  187.7520  177.5030  141.5350 N   0  0  0  0  0  0  0  0  0  0  0  0
  189.5380  177.1390  143.0750 C   0  0  0  0  0  0  0  0  0  0  0  0
  189.9410  176.9170  140.6660 N   0  0  0  0  0  2  0  0  0  0  0  0
  186.2870  177.9960  144.9570 C   0  0  0  0  0  2  0  0  0  0  0  0
  190.3030  177.1960  148.0420 C   0  0  0  0  0  3  0  0  0  0  0  0
  186.8870  177.7740  142.5410 C   0  0  0  0  0  0  0  0  0  0  0  0
  185.4560  178.0820  142.2180 C   0  0  0  0  0  2  0  0  0  0  0  0
  190.8440  176.8230  143.2960 N   0  0  0  0  0  0  0  0  0  0  0  0
  190.5720  177.0060  145.6510 C   0  0  0  0  0  0  0  0  0  0  0  0
  191.1100  176.9370  146.9360 C   0  0  0  0  0  3  0  0  0  0  0  0
  192.6700  176.0480  136.4110 C   0  0  0  0  0  0  0  0  0  0  0  0
  191.9810  176.6630  138.6450 C   0  0  0  0  0  3  0  0  0  0  0  0
  188.9940  176.2310  136.4870 O   0  0  0  0  0  1  0  0  0  0  0  0
  193.7480  175.7440  135.4340 C   0  0  0  0  0  1  0  0  0  0  0  0
  192.9940  176.3780  137.7270 C   0  0  0  0  0  3  0  0  0  0  0  0
  190.3130  176.2870  136.9250 C   0  0  0  0  0  0  0  0  0  0  0  0
  190.6300  176.6230  138.2620 C   0  0  0  0  0  0  0  0  0  0  0  0
  191.3340  176.0030  136.0130 C   0  0  0  0  0  3  0  0  0  0  0  0
  1 17  1  0  0  0  0
  1 11  2  0  0  0  0
  2  3  1  0  0  0  0
  3 22  2  0  0  0  0
  3  9  1  0  0  0  0
  4  5  2  0  0  0  0
  5 16  1  0  0  0  0
  6 18  1  0  0  0  0
  6 13  1  0  0  0  0
  7  2  1  0  0  0  0
  7 17  1  0  0  0  0
  8  1  1  0  0  0  0
  9  6  2  0  0  0  0
 10 15  1  0  0  0  0
 12 22  1  0  0  0  0
 14 10  2  0  0  0  0
 14 19  1  0  0  0  0
 15 21  1  0  0  0  0
 15  2  2  0  0  0  0
 16 10  1  0  0  0  0
 19  7  2  0  0  0  0
 20 19  1  0  0  0  0
 20  8  1  0  0  0  0
 21 12  2  0  0  0  0
 22 23  1  0  0  0  0
 23 18  2  0  0  0  0
 24 28  1  0  0  0  0
 26 29  1  0  0  0  0
 27 24  1  0  0  0  0
 28 25  2  0  0  0  0
 29 30  2  0  0  0  0
 30 25  1  0  0  0  0
 30  5  1  0  0  0  0
 31 24  2  0  0  0  0
 31 29  1  0  0  0  0
M  END
>  <MODEL>
3

>  <REMARK>
 VINA RESULT:     -10.1      3.865      7.041
  Name = 
  1 active torsions:
  status: ('A' for Active; 'I' for Inactive)
    1  A    between atoms: C_5  and  C_30
                            x       y       z     vdW  Elec       q    Type
                         _______ _______ _______ _____ _____    ______ ____

>  <TORSDO>
F 1

$$$$
=
 OpenBabel11122411113D

 31 35  0  0  0  0  0  0  0  0999 V2000
  186.7330  178.3940  147.0540 C   0  0  0  0  0  0  0  0  0  0  0  0
  187.4010  177.8270  143.3980 C   0  0  0  0  0  0  0  0  0  0  0  0
  188.7970  177.5880  143.2930 C   0  0  0  0  0  0  0  0  0  0  0  0
  182.4510  178.8510  141.9520 O   0  0  0  0  0  0  0  0  0  0  0  0
  183.1710  178.8160  140.9180 C   0  0  0  0  0  0  0  0  0  0  0  0
  190.9100  177.1210  144.2990 C   0  0  0  0  0  0  0  0  0  0  0  0
  186.6880  177.8430  144.6280 C   0  0  0  0  0  0  0  0  0  0  0  0
  185.2840  178.7990  147.0100 C   0  0  0  0  0  2  0  0  0  0  0  0
  189.5730  177.3510  144.3890 N   0  0  0  0  0  0  0  0  0  0  0  0
  185.2990  178.3130  142.2460 C   0  0  0  0  0  0  0  0  0  0  0  0
  187.4230  178.7360  147.9990 O   0  0  0  0  0  0  0  0  0  0  0  0
  188.6490  177.8390  140.8840 C   0  0  0  0  0  3  0  0  0  0  0  0
  191.8440  176.8250  145.7490 Cl  0  0  0  0  0  0  0  0  0  0  0  0
  184.6560  178.3140  143.4420 N   0  0  0  0  0  0  0  0  0  0  0  0
  186.6790  178.0710  142.1990 C   0  0  0  0  0  0  0  0  0  0  0  0
  184.5780  178.5540  141.0290 N   0  0  0  0  0  2  0  0  0  0  0  0
  187.3380  177.5580  145.9600 C   0  0  0  0  0  2  0  0  0  0  0  0
  191.5400  177.1220  143.0540 C   0  0  0  0  0  3  0  0  0  0  0  0
  185.3030  178.0950  144.6120 C   0  0  0  0  0  0  0  0  0  0  0  0
  184.5230  178.0830  145.8930 C   0  0  0  0  0  2  0  0  0  0  0  0
  187.3170  178.0680  140.9960 N   0  0  0  0  0  0  0  0  0  0  0  0
  189.4100  177.5950  142.0200 C   0  0  0  0  0  0  0  0  0  0  0  0
  190.7810  177.3620  141.9090 C   0  0  0  0  0  3  0  0  0  0  0  0
  181.4330  179.5750  137.0650 C   0  0  0  0  0  0  0  0  0  0  0  0
  182.1350  180.3360  139.2500 C   0  0  0  0  0  3  0  0  0  0  0  0
  182.8530  176.7140  138.8940 O   0  0  0  0  0  1  0  0  0  0  0  0
  180.8280  179.8570  135.7370 C   0  0  0  0  0  1  0  0  0  0  0  0
  181.5680  180.6010  138.0010 C   0  0  0  0  0  3  0  0  0  0  0  0
  182.4350  178.0120  138.6240 C   0  0  0  0  0  0  0  0  0  0  0  0
  182.5760  179.0440  139.5800 C   0  0  0  0  0  0  0  0  0  0  0  0
  181.8650  178.2860  137.3770 C   0  0  0  0  0  3  0  0  0  0  0  0
  1 11  2  0  0  0  0
  2  7  1  0  0  0  0
  3  2  1  0  0  0  0
  3  9  1  0  0  0  0
  5 16  1  0  0  0  0
  5  4  2  0  0  0  0
  6  9  2  0  0  0  0
  6 13  1  0  0  0  0
  7 17  1  0  0  0  0
  8  1  1  0  0  0  0
 10 14  2  0  0  0  0
 12 21  2  0  0  0  0
 12 22  1  0  0  0  0
 14 19  1  0  0  0  0
 15 10  1  0  0  0  0
 15  2  2  0  0  0  0
 16 10  1  0  0  0  0
 17  1  1  0  0  0  0
 18  6  1  0  0  0  0
 19  7  2  0  0  0  0
 19 20  1  0  0  0  0
 20  8  1  0  0  0  0
 21 15  1  0  0  0  0
 22  3  2  0  0  0  0
 23 22  1  0  0  0  0
 23 18  2  0  0  0  0
 24 31  2  0  0  0  0
 24 28  1  0  0  0  0
 25 30  1  0  0  0  0
 27 24  1  0  0  0  0
 28 25  2  0  0  0  0
 29 26  1  0  0  0  0
 29 30  2  0  0  0  0
 30  5  1  0  0  0  0
 31 29  1  0  0  0  0
M  END
>  <MODEL>
4

>  <REMARK>
 VINA RESULT:      -9.9      1.951      4.071
  Name = 
  1 active torsions:
  status: ('A' for Active; 'I' for Inactive)
    1  A    between atoms: C_5  and  C_30
                            x       y       z     vdW  Elec       q    Type
                         _______ _______ _______ _____ _____    ______ ____

>  <TORSDO>
F 1

$$$$
=
 OpenBabel11122411113D

 31 35  0  0  0  0  0  0  0  0999 V2000
  191.1380  176.7500  142.5930 C   0  0  0  0  0  0  0  0  0  0  0  0
  187.9050  177.9700  144.0720 C   0  0  0  0  0  0  0  0  0  0  0  0
  188.0590  177.8640  145.4800 C   0  0  0  0  0  0  0  0  0  0  0  0
  185.5750  178.6080  139.4020 O   0  0  0  0  0  0  0  0  0  0  0  0
  184.6980  178.7000  140.3030 C   0  0  0  0  0  0  0  0  0  0  0  0
  189.4320  177.5290  147.4030 C   0  0  0  0  0  0  0  0  0  0  0  0
  188.9750  177.8480  143.1440 C   0  0  0  0  0  0  0  0  0  0  0  0
  190.7890  176.7490  141.1280 C   0  0  0  0  0  2  0  0  0  0  0  0
  189.2730  177.6320  146.0560 N   0  0  0  0  0  0  0  0  0  0  0  0
  186.3890  178.3190  142.1850 C   0  0  0  0  0  0  0  0  0  0  0  0
  192.0370  176.0320  142.9950 O   0  0  0  0  0  0  0  0  0  0  0  0
  185.6780  178.2320  145.7610 C   0  0  0  0  0  3  0  0  0  0  0  0
  191.0210  177.2290  148.0730 Cl  0  0  0  0  0  0  0  0  0  0  0  0
  187.4400  178.2010  141.3330 N   0  0  0  0  0  0  0  0  0  0  0  0
  186.5980  178.2060  143.5660 C   0  0  0  0  0  0  0  0  0  0  0  0
  185.0670  178.5620  141.6840 N   0  0  0  0  0  2  0  0  0  0  0  0
  190.4090  177.6370  143.5630 C   0  0  0  0  0  2  0  0  0  0  0  0
  188.3320  177.6600  148.2510 C   0  0  0  0  0  3  0  0  0  0  0  0
  188.7020  177.9680  141.7680 C   0  0  0  0  0  0  0  0  0  0  0  0
  189.8180  177.8760  140.7710 C   0  0  0  0  0  2  0  0  0  0  0  0
  185.5410  178.3290  144.4150 N   0  0  0  0  0  0  0  0  0  0  0  0
  186.9290  178.0000  146.3170 C   0  0  0  0  0  0  0  0  0  0  0  0
  187.0740  177.8970  147.7000 C   0  0  0  0  0  3  0  0  0  0  0  0
  180.5660  179.3410  139.3250 C   0  0  0  0  0  0  0  0  0  0  0  0
  182.3100  178.0240  140.3590 C   0  0  0  0  0  3  0  0  0  0  0  0
  183.7860  181.0400  138.7830 O   0  0  0  0  0  1  0  0  0  0  0  0
  179.1320  179.5460  138.9960 C   0  0  0  0  0  1  0  0  0  0  0  0
  180.9610  178.2160  140.0500 C   0  0  0  0  0  3  0  0  0  0  0  0
  182.8710  180.0880  139.2160 C   0  0  0  0  0  0  0  0  0  0  0  0
  183.2820  178.9510  139.9490 C   0  0  0  0  0  0  0  0  0  0  0  0
  181.5180  180.2730  138.9100 C   0  0  0  0  0  3  0  0  0  0  0  0
  1 11  2  0  0  0  0
  1 17  1  0  0  0  0
  2  3  1  0  0  0  0
  3  9  2  0  0  0  0
  3 22  1  0  0  0  0
  4  5  2  0  0  0  0
  5 16  1  0  0  0  0
  6 13  1  0  0  0  0
  6 18  2  0  0  0  0
  7 17  1  0  0  0  0
  7  2  1  0  0  0  0
  8  1  1  0  0  0  0
  9  6  1  0  0  0  0
 10 15  1  0  0  0  0
 12 22  1  0  0  0  0
 14 19  1  0  0  0  0
 14 10  2  0  0  0  0
 15  2  2  0  0  0  0
 15 21  1  0  0  0  0
 16 10  1  0  0  0  0
 19  7  2  0  0  0  0
 20  8  1  0  0  0  0
 20 19  1  0  0  0  0
 21 12  2  0  0  0  0
 22 23  2  0  0  0  0
 23 18  1  0  0  0  0
 24 28  1  0  0  0  0
 26 29  1  0  0  0  0
 27 24  1  0  0  0  0
 28 25  2  0  0  0  0
 29 30  2  0  0  0  0
 30  5  1  0  0  0  0
 30 25  1  0  0  0  0
 31 29  1  0  0  0  0
 31 24  2  0  0  0  0
M  END
>  <MODEL>
5

>  <REMARK>
 VINA RESULT:      -9.8      1.488      1.953
  Name = 
  1 active torsions:
  status: ('A' for Active; 'I' for Inactive)
    1  A    between atoms: C_5  and  C_30
                            x       y       z     vdW  Elec       q    Type
                         _______ _______ _______ _____ _____    ______ ____

>  <TORSDO>
F 1

$$$$
=
 OpenBabel11122411113D

 31 35  0  0  0  0  0  0  0  0999 V2000
  179.9380  178.4310  142.4760 C   0  0  0  0  0  0  0  0  0  0  0  0
  183.5980  178.6310  141.6420 C   0  0  0  0  0  0  0  0  0  0  0  0
  183.6710  178.6470  140.2240 C   0  0  0  0  0  0  0  0  0  0  0  0
  185.1410  178.2740  146.6560 O   0  0  0  0  0  0  0  0  0  0  0  0
  186.1510  178.1250  145.9140 C   0  0  0  0  0  0  0  0  0  0  0  0
  182.6260  178.8570  138.0890 C   0  0  0  0  0  0  0  0  0  0  0  0
  182.3940  178.8110  142.3780 C   0  0  0  0  0  0  0  0  0  0  0  0
  180.0040  178.2500  143.9690 C   0  0  0  0  0  2  0  0  0  0  0  0
  182.5670  178.8400  139.4470 N   0  0  0  0  0  0  0  0  0  0  0  0
  184.7860  178.3910  143.7660 C   0  0  0  0  0  0  0  0  0  0  0  0
  178.9490  178.0560  141.8690 O   0  0  0  0  0  0  0  0  0  0  0  0
  186.0610  178.2530  140.3520 C   0  0  0  0  0  3  0  0  0  0  0  0
  181.1680  179.1090  137.1550 Cl  0  0  0  0  0  0  0  0  0  0  0  0
  183.6160  178.5730  144.4290 N   0  0  0  0  0  0  0  0  0  0  0  0
  184.8020  178.4170  142.3650 C   0  0  0  0  0  0  0  0  0  0  0  0
  186.0090  178.1780  144.4870 N   0  0  0  0  0  2  0  0  0  0  0  0
  181.0620  179.0870  141.7230 C   0  0  0  0  0  2  0  0  0  0  0  0
  183.8460  178.6720  137.4370 C   0  0  0  0  0  3  0  0  0  0  0  0
  182.4410  178.7730  143.7840 C   0  0  0  0  0  0  0  0  0  0  0  0
  181.1920  178.9930  144.5830 C   0  0  0  0  0  2  0  0  0  0  0  0
  185.9800  178.2380  141.7050 N   0  0  0  0  0  0  0  0  0  0  0  0
  184.9190  178.4570  139.5890 C   0  0  0  0  0  0  0  0  0  0  0  0
  184.9980  178.4710  138.1960 C   0  0  0  0  0  3  0  0  0  0  0  0
  189.9990  177.5020  147.7160 C   0  0  0  0  0  0  0  0  0  0  0  0
  187.7040  178.2540  147.8460 C   0  0  0  0  0  3  0  0  0  0  0  0
  188.4070  176.9610  144.4410 O   0  0  0  0  0  1  0  0  0  0  0  0
  191.3230  177.2940  148.3560 C   0  0  0  0  0  1  0  0  0  0  0  0
  188.9490  178.0590  148.4480 C   0  0  0  0  0  3  0  0  0  0  0  0
  188.5590  177.3340  145.7720 C   0  0  0  0  0  0  0  0  0  0  0  0
  187.4890  177.8970  146.5050 C   0  0  0  0  0  0  0  0  0  0  0  0
  189.8030  177.1410  146.3820 C   0  0  0  0  0  3  0  0  0  0  0  0
  1  8  1  0  0  0  0
  2 15  1  0  0  0  0
  2  7  1  0  0  0  0
  3  2  2  0  0  0  0
  5 30  1  0  0  0  0
  5  4  2  0  0  0  0
  6  9  2  0  0  0  0
  7 19  2  0  0  0  0
  8 20  1  0  0  0  0
  9  3  1  0  0  0  0
 10 14  2  0  0  0  0
 10 16  1  0  0  0  0
 11  1  2  0  0  0  0
 12 21  1  0  0  0  0
 13  6  1  0  0  0  0
 15 10  1  0  0  0  0
 16  5  1  0  0  0  0
 17  7  1  0  0  0  0
 17  1  1  0  0  0  0
 18  6  1  0  0  0  0
 18 23  2  0  0  0  0
 19 14  1  0  0  0  0
 19 20  1  0  0  0  0
 21 15  2  0  0  0  0
 22  3  1  0  0  0  0
 22 12  2  0  0  0  0
 23 22  1  0  0  0  0
 24 27  1  0  0  0  0
 24 28  1  0  0  0  0
 25 28  2  0  0  0  0
 26 29  1  0  0  0  0
 29 31  1  0  0  0  0
 29 30  2  0  0  0  0
 30 25  1  0  0  0  0
 31 24  2  0  0  0  0
M  END
>  <MODEL>
6

>  <REMARK>
 VINA RESULT:      -8.5      3.642      9.195
  Name = 
  1 active torsions:
  status: ('A' for Active; 'I' for Inactive)
    1  A    between atoms: C_5  and  C_30
                            x       y       z     vdW  Elec       q    Type
                         _______ _______ _______ _____ _____    ______ ____

>  <TORSDO>
F 1

$$$$
=
 OpenBabel11122411113D

 31 35  0  0  0  0  0  0  0  0999 V2000
  190.8990  177.5040  145.0660 C   0  0  0  0  0  0  0  0  0  0  0  0
  188.9470  177.5730  141.8530 C   0  0  0  0  0  0  0  0  0  0  0  0
  189.9120  177.5050  140.8130 C   0  0  0  0  0  0  0  0  0  0  0  0
  184.3160  178.2640  144.2450 O   0  0  0  0  0  0  0  0  0  0  0  0
  184.1630  178.4640  143.0100 C   0  0  0  0  0  0  0  0  0  0  0  0
  192.1480  177.1220  140.0710 C   0  0  0  0  0  0  0  0  0  0  0  0
  189.2370  177.3250  143.2230 C   0  0  0  0  0  0  0  0  0  0  0  0
  189.7980  177.7520  146.0630 C   0  0  0  0  0  2  0  0  0  0  0  0
  191.2160  177.1900  141.0590 N   0  0  0  0  0  0  0  0  0  0  0  0
  186.6240  177.9980  142.4860 C   0  0  0  0  0  0  0  0  0  0  0  0
  192.0500  177.7720  145.3650 O   0  0  0  0  0  0  0  0  0  0  0  0
  188.2020  178.1010  139.2000 C   0  0  0  0  0  3  0  0  0  0  0  0
  193.8040  176.7120  140.4600 Cl  0  0  0  0  0  0  0  0  0  0  0  0
  186.9420  177.7480  143.7820 N   0  0  0  0  0  0  0  0  0  0  0  0
  187.6150  177.9170  141.4990 C   0  0  0  0  0  0  0  0  0  0  0  0
  185.2800  178.3420  142.1160 N   0  0  0  0  0  2  0  0  0  0  0  0
  190.6030  176.9140  143.7150 C   0  0  0  0  0  2  0  0  0  0  0  0
  191.7870  177.3800  138.7480 C   0  0  0  0  0  3  0  0  0  0  0  0
  188.1990  177.4260  144.1700 C   0  0  0  0  0  0  0  0  0  0  0  0
  188.4710  177.1360  145.6150 C   0  0  0  0  0  2  0  0  0  0  0  0
  187.2890  178.1650  140.2000 N   0  0  0  0  0  0  0  0  0  0  0  0
  189.5210  177.7710  139.4820 C   0  0  0  0  0  0  0  0  0  0  0  0
  190.4640  177.7070  138.4560 C   0  0  0  0  0  3  0  0  0  0  0  0
  180.2790  179.5460  141.5300 C   0  0  0  0  0  0  0  0  0  0  0  0
  181.8770  179.3750  143.3370 C   0  0  0  0  0  3  0  0  0  0  0  0
  183.3940  178.1040  140.2000 O   0  0  0  0  0  1  0  0  0  0  0  0
  178.9310  179.9260  141.0370 C   0  0  0  0  0  1  0  0  0  0  0  0
  180.6090  179.7320  142.8730 C   0  0  0  0  0  3  0  0  0  0  0  0
  182.4900  178.6420  141.1080 C   0  0  0  0  0  0  0  0  0  0  0  0
  182.8330  178.8270  142.4670 C   0  0  0  0  0  0  0  0  0  0  0  0
  181.2180  179.0030  140.6520 C   0  0  0  0  0  3  0  0  0  0  0  0
  1 11  2  0  0  0  0
  1  8  1  0  0  0  0
  2  7  1  0  0  0  0
  3  9  1  0  0  0  0
  3  2  2  0  0  0  0
  5  4  2  0  0  0  0
  6 13  1  0  0  0  0
  6  9  2  0  0  0  0
  7 17  1  0  0  0  0
  7 19  2  0  0  0  0
 10 14  2  0  0  0  0
 12 22  2  0  0  0  0
 12 21  1  0  0  0  0
 14 19  1  0  0  0  0
 15  2  1  0  0  0  0
 15 10  1  0  0  0  0
 16 10  1  0  0  0  0
 16  5  1  0  0  0  0
 17  1  1  0  0  0  0
 18  6  1  0  0  0  0
 19 20  1  0  0  0  0
 20  8  1  0  0  0  0
 21 15  2  0  0  0  0
 22  3  1  0  0  0  0
 23 18  2  0  0  0  0
 23 22  1  0  0  0  0
 24 28  1  0  0  0  0
 26 29  1  0  0  0  0
 27 24  1  0  0  0  0
 28 25  2  0  0  0  0
 29 30  2  0  0  0  0
 30  5  1  0  0  0  0
 30 25  1  0  0  0  0
 31 29  1  0  0  0  0
 31 24  2  0  0  0  0
M  END
>  <MODEL>
7

>  <REMARK>
 VINA RESULT:      -8.2      2.987      5.100
  Name = 
  1 active torsions:
  status: ('A' for Active; 'I' for Inactive)
    1  A    between atoms: C_5  and  C_30
                            x       y       z     vdW  Elec       q    Type
                         _______ _______ _______ _____ _____    ______ ____

>  <TORSDO>
F 1

$$$$
=
 OpenBabel11122411113D

 31 35  0  0  0  0  0  0  0  0999 V2000
  187.5580  179.2320  137.0800 C   0  0  0  0  0  0  0  0  0  0  0  0
  186.4290  178.2070  140.5160 C   0  0  0  0  0  0  0  0  0  0  0  0
  185.0450  178.5200  140.5770 C   0  0  0  0  0  0  0  0  0  0  0  0
  191.2560  176.8640  142.1100 O   0  0  0  0  0  0  0  0  0  0  0  0
  190.4960  176.8950  143.1150 C   0  0  0  0  0  0  0  0  0  0  0  0
  183.0050  179.1500  139.5120 C   0  0  0  0  0  0  0  0  0  0  0  0
  187.1900  178.2030  139.3150 C   0  0  0  0  0  0  0  0  0  0  0  0
  189.0430  179.0130  137.2010 C   0  0  0  0  0  2  0  0  0  0  0  0
  184.3300  178.8480  139.4640 N   0  0  0  0  0  0  0  0  0  0  0  0
  188.4540  177.5670  141.7280 C   0  0  0  0  0  0  0  0  0  0  0  0
  187.1330  180.0110  136.2450 O   0  0  0  0  0  0  0  0  0  0  0  0
  185.0810  178.1710  142.9780 C   0  0  0  0  0  3  0  0  0  0  0  0
  182.1500  179.5620  138.0410 Cl  0  0  0  0  0  0  0  0  0  0  0  0
  189.1420  177.5700  140.5580 N   0  0  0  0  0  0  0  0  0  0  0  0
  187.0890  177.8840  141.7320 C   0  0  0  0  0  0  0  0  0  0  0  0
  189.1110  177.2390  142.9610 N   0  0  0  0  0  2  0  0  0  0  0  0
  186.5910  178.4890  137.9590 C   0  0  0  0  0  2  0  0  0  0  0  0
  182.3250  179.1330  140.7300 C   0  0  0  0  0  3  0  0  0  0  0  0
  188.5590  177.8790  139.3750 C   0  0  0  0  0  0  0  0  0  0  0  0
  189.3750  177.8360  138.1180 C   0  0  0  0  0  2  0  0  0  0  0  0
  186.4030  177.8760  142.9080 N   0  0  0  0  0  0  0  0  0  0  0  0
  184.3800  178.4960  141.8240 C   0  0  0  0  0  0  0  0  0  0  0  0
  183.0210  178.8030  141.8920 C   0  0  0  0  0  3  0  0  0  0  0  0
  192.0720  175.9000  146.9840 C   0  0  0  0  0  0  0  0  0  0  0  0
  191.8890  175.4840  144.6100 C   0  0  0  0  0  3  0  0  0  0  0  0
  189.8310  178.4310  145.5270 O   0  0  0  0  0  1  0  0  0  0  0  0
  192.6270  175.5400  148.3150 C   0  0  0  0  0  1  0  0  0  0  0  0
  192.4110  175.1460  145.8600 C   0  0  0  0  0  3  0  0  0  0  0  0
  190.6850  177.3370  145.6090 C   0  0  0  0  0  0  0  0  0  0  0  0
  191.0220  176.5790  144.4640 C   0  0  0  0  0  0  0  0  0  0  0  0
  191.2110  176.9910  146.8580 C   0  0  0  0  0  3  0  0  0  0  0  0
  1  8  1  0  0  0  0
  1 17  1  0  0  0  0
  2  3  2  0  0  0  0
  2 15  1  0  0  0  0
  3 22  1  0  0  0  0
  4  5  2  0  0  0  0
  5 30  1  0  0  0  0
  6 18  1  0  0  0  0
  7 19  2  0  0  0  0
  7  2  1  0  0  0  0
  8 20  1  0  0  0  0
  9  6  2  0  0  0  0
  9  3  1  0  0  0  0
 10 15  1  0  0  0  0
 10 16  1  0  0  0  0
 11  1  2  0  0  0  0
 13  6  1  0  0  0  0
 14 10  2  0  0  0  0
 15 21  2  0  0  0  0
 16  5  1  0  0  0  0
 17  7  1  0  0  0  0
 18 23  2  0  0  0  0
 19 14  1  0  0  0  0
 20 19  1  0  0  0  0
 21 12  1  0  0  0  0
 22 23  1  0  0  0  0
 22 12  2  0  0  0  0
 24 27  1  0  0  0  0
 25 28  1  0  0  0  0
 26 29  1  0  0  0  0
 28 24  2  0  0  0  0
 29 31  2  0  0  0  0
 30 25  2  0  0  0  0
 30 29  1  0  0  0  0
 31 24  1  0  0  0  0
M  END
>  <MODEL>
8

>  <REMARK>
 VINA RESULT:      -8.2      3.445      8.639
  Name = 
  1 active torsions:
  status: ('A' for Active; 'I' for Inactive)
    1  A    between atoms: C_5  and  C_30
                            x       y       z     vdW  Elec       q    Type
                         _______ _______ _______ _____ _____    ______ ____

>  <TORSDO>
F 1

$$$$
=
 OpenBabel11122411113D

 31 35  0  0  0  0  0  0  0  0999 V2000
  189.7600  177.1100  147.0110 C   0  0  0  0  0  0  0  0  0  0  0  0
  188.2730  177.8100  143.6300 C   0  0  0  0  0  0  0  0  0  0  0  0
  186.8960  178.0770  143.8610 C   0  0  0  0  0  0  0  0  0  0  0  0
  192.7230  176.7520  141.0380 O   0  0  0  0  0  0  0  0  0  0  0  0
  191.7820  176.8340  140.2020 C   0  0  0  0  0  0  0  0  0  0  0  0
  185.0890  178.5450  145.3460 C   0  0  0  0  0  0  0  0  0  0  0  0
  189.2520  177.7420  144.6580 C   0  0  0  0  0  0  0  0  0  0  0  0
  191.1500  176.6820  146.6180 C   0  0  0  0  0  2  0  0  0  0  0  0
  186.4040  178.2890  145.1140 N   0  0  0  0  0  0  0  0  0  0  0  0
  190.0350  177.3280  142.0050 C   0  0  0  0  0  0  0  0  0  0  0  0
  189.3010  176.7480  148.0810 O   0  0  0  0  0  0  0  0  0  0  0  0
  186.4730  177.9050  141.4790 C   0  0  0  0  0  3  0  0  0  0  0  0
  184.5260  178.8080  146.9820 Cl  0  0  0  0  0  0  0  0  0  0  0  0
  190.9390  177.2770  143.0170 N   0  0  0  0  0  0  0  0  0  0  0  0
  188.6890  177.5950  142.2890 C   0  0  0  0  0  0  0  0  0  0  0  0
  190.4470  177.1160  140.6470 N   0  0  0  0  0  2  0  0  0  0  0  0
  188.9380  177.9920  146.1130 C   0  0  0  0  0  2  0  0  0  0  0  0
  184.1860  178.5960  144.2830 C   0  0  0  0  0  3  0  0  0  0  0  0
  190.5880  177.4670  144.3120 C   0  0  0  0  0  0  0  0  0  0  0  0
  191.6450  177.4220  145.3740 C   0  0  0  0  0  2  0  0  0  0  0  0
  187.7880  177.6490  141.2690 N   0  0  0  0  0  0  0  0  0  0  0  0
  186.0030  178.1230  142.7670 C   0  0  0  0  0  0  0  0  0  0  0  0
  184.6510  178.3830  142.9870 C   0  0  0  0  0  3  0  0  0  0  0  0
  192.6380  176.2690  136.0320 C   0  0  0  0  0  0  0  0  0  0  0  0
  193.3700  176.4810  138.3270 C   0  0  0  0  0  3  0  0  0  0  0  0
  189.6750  176.7650  138.1590 O   0  0  0  0  0  1  0  0  0  0  0  0
  192.9540  176.0730  134.5940 C   0  0  0  0  0  1  0  0  0  0  0  0
  193.6670  176.2960  136.9740 C   0  0  0  0  0  3  0  0  0  0  0  0
  191.0080  176.6120  137.7940 C   0  0  0  0  0  0  0  0  0  0  0  0
  192.0430  176.6410  138.7570 C   0  0  0  0  0  0  0  0  0  0  0  0
  191.3140  176.4270  136.4420 C   0  0  0  0  0  3  0  0  0  0  0  0
  1 11  2  0  0  0  0
  2  3  1  0  0  0  0
  2  7  1  0  0  0  0
  3  9  1  0  0  0  0
  5 16  1  0  0  0  0
  5  4  2  0  0  0  0
  6 13  1  0  0  0  0
  7 17  1  0  0  0  0
  8  1  1  0  0  0  0
  9  6  2  0  0  0  0
 10 15  1  0  0  0  0
 10 14  2  0  0  0  0
 12 22  1  0  0  0  0
 14 19  1  0  0  0  0
 15  2  2  0  0  0  0
 16 10  1  0  0  0  0
 17  1  1  0  0  0  0
 18  6  1  0  0  0  0
 19  7  2  0  0  0  0
 19 20  1  0  0  0  0
 20  8  1  0  0  0  0
 21 12  2  0  0  0  0
 21 15  1  0  0  0  0
 22 23  1  0  0  0  0
 22  3  2  0  0  0  0
 23 18  2  0  0  0  0
 24 31  2  0  0  0  0
 24 28  1  0  0  0  0
 25 30  1  0  0  0  0
 27 24  1  0  0  0  0
 28 25  2  0  0  0  0
 29 26  1  0  0  0  0
 29 30  2  0  0  0  0
 30  5  1  0  0  0  0
 31 29  1  0  0  0  0
M  END
>  <MODEL>
9

>  <REMARK>
 VINA RESULT:      -8.1      3.997      7.264
  Name = 
  1 active torsions:
  status: ('A' for Active; 'I' for Inactive)
    1  A    between atoms: C_5  and  C_30
                            x       y       z     vdW  Elec       q    Type
                         _______ _______ _______ _____ _____    ______ ____

>  <TORSDO>
F 1

$$$$
