=
 OpenBabel11122411273D

 37 43  0  0  1  0  0  0  0  0999 V2000
  184.2380  174.9210  137.0530 C   0  0  0  0  0  2  0  0  0  0  0  0
  188.6780  177.2360  136.5690 C   0  0  1  0  0  0  0  0  0  0  0  0
  185.3470  177.8710  139.1550 N   0  0  1  0  0  0  0  0  0  0  0  0
  184.1190  173.6580  136.2050 C   0  0  2  0  0  3  0  0  0  0  0  0
  181.9160  177.4220  137.7630 O   0  0  0  0  0  0  0  0  0  0  0  0
  187.8540  178.0110  138.8720 C   0  0  1  0  0  3  0  0  0  0  0  0
  184.2170  178.0020  138.2140 C   0  0  2  0  0  3  0  0  0  0  0  0
  181.7010  174.3140  135.6940 C   0  0  1  0  0  3  0  0  0  0  0  0
  186.4560  178.1060  138.2510 C   0  0  1  0  0  3  0  0  0  0  0  0
  182.9360  177.2900  138.7130 C   0  0  1  0  0  3  0  0  0  0  0  0
  187.7600  177.7360  140.3680 C   0  0  0  0  0  2  0  0  0  0  0  0
  183.0020  173.7210  135.1540 C   0  0  0  0  0  2  0  0  0  0  0  0
  186.2160  177.1960  137.1120 C   0  0  2  0  0  3  0  0  0  0  0  0
  189.1930  176.1000  135.9480 O   0  0  0  0  0  1  0  0  0  0  0  0
  184.2820  179.0380  141.1280 C   0  0  0  0  0  2  0  0  0  0  0  0
  186.7470  178.6960  141.0260 C   0  0  0  0  0  2  0  0  0  0  0  0
  187.2420  177.4820  136.0300 C   0  0  0  0  0  2  0  0  0  0  0  0
  181.8010  175.8150  136.0060 C   0  0  1  0  0  3  0  0  0  0  0  0
  181.5230  176.1170  137.4740 C   0  0  0  0  0  2  0  0  0  0  0  0
  185.4700  178.9220  140.1790 C   0  0  1  0  0  3  0  0  0  0  0  0
  184.7600  177.4780  136.8280 C   0  0  1  0  0  3  0  0  0  0  0  0
  188.7560  177.0300  138.1080 C   0  0  0  0  0  2  0  0  0  0  0  0
  182.4020  177.7640  140.0770 C   0  0  1  0  0  3  0  0  0  0  0  0
  189.5390  178.4230  136.1860 C   0  0  0  0  0  1  0  0  0  0  0  0
  182.9530  176.4580  135.4740 O   0  0  0  0  0  0  0  0  0  0  0  0
  180.6820  174.1040  134.7660 O   0  0  0  0  0  1  0  0  0  0  0  0
  184.1500  176.2070  136.2050 C   0  0  2  0  0  3  0  0  0  0  0  0
  183.4280  177.7840  141.2040 C   0  0  0  0  0  2  0  0  0  0  0  0
  180.5150  179.1310  141.0040 C   0  0  0  0  0  3  0  0  0  0  0  0
  181.5160  178.9850  140.0370 C   0  0  0  0  0  0  0  0  0  0  0  0
  181.6900  179.9810  139.0640 C   0  0  0  0  0  3  0  0  0  0  0  0
  181.0850  182.3430  137.8370 Cl  0  0  0  0  0  0  0  0  0  0  0  0
  179.8620  181.2460  140.0210 C   0  0  0  0  0  3  0  0  0  0  0  0
  180.8630  181.1070  139.0560 C   0  0  0  0  0  0  0  0  0  0  0  0
  179.6880  180.2590  140.9950 C   0  0  0  0  0  3  0  0  0  0  0  0
  184.1220  171.0420  135.9370 C   0  0  0  0  0  1  0  0  0  0  0  0
  183.8840  172.2230  137.2950 S   0  0  0  0  0  0  0  0  0  0  0  0
  2 24  1  6  0  0  0
  2 22  1  0  0  0  0
  3 20  1  0  0  0  0
  4  1  1  0  0  0  0
  4 37  1  0  0  0  0
  5 10  1  0  0  0  0
  6 11  1  0  0  0  0
  7 10  1  0  0  0  0
  7  3  1  0  0  0  0
  8 18  1  0  0  0  0
  9  6  1  0  0  0  0
  9  3  1  0  0  0  0
 10 23  1  0  0  0  0
 11 16  1  0  0  0  0
 12  8  1  0  0  0  0
 12  4  1  0  0  0  0
 13  9  1  0  0  0  0
 14  2  1  0  0  0  0
 15 28  1  0  0  0  0
 17  2  1  0  0  0  0
 17 13  1  0  0  0  0
 18 19  1  0  0  0  0
 19  5  1  0  0  0  0
 20 16  1  0  0  0  0
 20 15  1  0  0  0  0
 21 13  1  0  0  0  0
 21  7  1  0  0  0  0
 22  6  1  0  0  0  0
 23 28  1  0  0  0  0
 25 18  1  0  0  0  0
 25 27  1  0  0  0  0
 26  8  1  0  0  0  0
 27 21  1  0  0  0  0
 27  1  1  0  0  0  0
 30 23  1  0  0  0  0
 30 29  2  0  0  0  0
 31 30  1  0  0  0  0
 32 34  1  0  0  0  0
 33 35  2  0  0  0  0
 34 31  2  0  0  0  0
 34 33  1  0  0  0  0
 35 29  1  0  0  0  0
 36 37  1  0  0  0  0
M  END
>  <MODEL>
1

>  <REMARK>
 VINA RESULT:      -6.1      0.000      0.000
  Name = 
  2 active torsions:
  status: ('A' for Active; 'I' for Inactive)
    1  A    between atoms: C_4  and  S_37
    2  A    between atoms: C_23  and  C_30
                            x       y       z     vdW  Elec       q    Type
                         _______ _______ _______ _____ _____    ______ ____

>  <TORSDO>
F 2

$$$$
=
 OpenBabel11122411273D

 37 43  0  0  1  0  0  0  0  0999 V2000
  180.7720  179.0870  140.4280 C   0  0  0  0  0  2  0  0  0  0  0  0
  179.9380  182.3220  136.6670 C   0  0  1  0  0  0  0  0  0  0  0  0
  181.2330  178.2600  136.7600 N   0  0  1  0  0  0  0  0  0  0  0  0
  180.3410  179.6210  141.7920 C   0  0  2  0  0  3  0  0  0  0  0  0
  183.5500  177.2050  139.4860 O   0  0  0  0  0  0  0  0  0  0  0  0
  179.9690  180.0430  135.4910 C   0  0  1  0  0  3  0  0  0  0  0  0
  182.3930  178.3030  137.6720 C   0  0  2  0  0  3  0  0  0  0  0  0
  182.4370  178.5520  142.7930 C   0  0  1  0  0  3  0  0  0  0  0  0
  181.1260  179.6670  136.4240 C   0  0  1  0  0  3  0  0  0  0  0  0
  182.4500  177.0860  138.6270 C   0  0  1  0  0  3  0  0  0  0  0  0
  179.1960  178.7990  135.0660 C   0  0  0  0  0  2  0  0  0  0  0  0
  181.4940  179.7550  142.7950 C   0  0  0  0  0  2  0  0  0  0  0  0
  181.1330  180.3690  137.7230 C   0  0  2  0  0  3  0  0  0  0  0  0
  179.1230  183.0770  137.5080 O   0  0  0  0  0  1  0  0  0  0  0  0
  181.8160  176.1070  135.5710 C   0  0  0  0  0  2  0  0  0  0  0  0
  180.1700  177.7000  134.5940 C   0  0  0  0  0  2  0  0  0  0  0  0
  181.1850  181.8660  137.4720 C   0  0  0  0  0  2  0  0  0  0  0  0
  183.2710  178.4370  141.5080 C   0  0  1  0  0  3  0  0  0  0  0  0
  183.0130  177.1290  140.7690 C   0  0  0  0  0  2  0  0  0  0  0  0
  181.4410  177.5820  135.4700 C   0  0  1  0  0  3  0  0  0  0  0  0
  182.3080  179.7020  138.3980 C   0  0  1  0  0  3  0  0  0  0  0  0
  179.0930  181.1560  136.0830 C   0  0  0  0  0  2  0  0  0  0  0  0
  182.5060  175.7080  137.9440 C   0  0  1  0  0  3  0  0  0  0  0  0
  180.4050  183.2100  135.5300 C   0  0  0  0  0  1  0  0  0  0  0  0
  183.2570  179.5970  140.6840 O   0  0  0  0  0  0  0  0  0  0  0  0
  183.2920  178.6380  143.8900 O   0  0  0  0  0  1  0  0  0  0  0  0
  182.0660  179.7550  139.9190 C   0  0  2  0  0  3  0  0  0  0  0  0
  181.4300  175.4620  136.8910 C   0  0  0  0  0  2  0  0  0  0  0  0
  184.1890  173.8810  137.5960 C   0  0  0  0  0  3  0  0  0  0  0  0
  183.8800  175.2450  137.5300 C   0  0  0  0  0  0  0  0  0  0  0  0
  184.8460  176.1510  137.0650 C   0  0  0  0  0  3  0  0  0  0  0  0
  187.3080  176.8320  136.1010 Cl  0  0  0  0  0  0  0  0  0  0  0  0
  186.4120  174.3330  136.7490 C   0  0  0  0  0  3  0  0  0  0  0  0
  186.1080  175.6950  136.6780 C   0  0  0  0  0  0  0  0  0  0  0  0
  185.4530  173.4260  137.2080 C   0  0  0  0  0  3  0  0  0  0  0  0
  178.9710  179.4750  144.0310 C   0  0  0  0  0  1  0  0  0  0  0  0
  179.0320  178.5570  142.4660 S   0  0  0  0  0  0  0  0  0  0  0  0
  1  4  1  0  0  0  0
  2 24  1  6  0  0  0
  2 17  1  0  0  0  0
  2 14  1  0  0  0  0
  3  7  1  0  0  0  0
  4 37  1  0  0  0  0
  4 12  1  0  0  0  0
  5 19  1  0  0  0  0
  6 22  1  0  0  0  0
  6  9  1  0  0  0  0
  7 21  1  0  0  0  0
  7 10  1  0  0  0  0
  8 12  1  0  0  0  0
  8 26  1  0  0  0  0
  9  3  1  0  0  0  0
  9 13  1  0  0  0  0
 10  5  1  0  0  0  0
 11  6  1  0  0  0  0
 13 21  1  0  0  0  0
 15 28  1  0  0  0  0
 16 11  1  0  0  0  0
 16 20  1  0  0  0  0
 17 13  1  0  0  0  0
 18  8  1  0  0  0  0
 19 18  1  0  0  0  0
 20 15  1  0  0  0  0
 20  3  1  0  0  0  0
 21 27  1  0  0  0  0
 22  2  1  0  0  0  0
 23 10  1  0  0  0  0
 25 18  1  0  0  0  0
 27  1  1  0  0  0  0
 27 25  1  0  0  0  0
 28 23  1  0  0  0  0
 30 29  1  0  0  0  0
 30 23  1  0  0  0  0
 31 30  2  0  0  0  0
 32 34  1  0  0  0  0
 33 35  1  0  0  0  0
 34 33  2  0  0  0  0
 34 31  1  0  0  0  0
 35 29  2  0  0  0  0
 37 36  1  0  0  0  0
M  END
>  <MODEL>
2

>  <REMARK>
 VINA RESULT:      -5.2      3.471      7.797
  Name = 
  2 active torsions:
  status: ('A' for Active; 'I' for Inactive)
    1  A    between atoms: C_4  and  S_37
    2  A    between atoms: C_23  and  C_30
                            x       y       z     vdW  Elec       q    Type
                         _______ _______ _______ _____ _____    ______ ____

>  <TORSDO>
F 2

$$$$
=
 OpenBabel11122411273D

 37 43  0  0  1  0  0  0  0  0999 V2000
  180.7540  180.5380  138.5620 C   0  0  0  0  0  2  0  0  0  0  0  0
  179.9060  179.1020  143.3080 C   0  0  1  0  0  0  0  0  0  0  0  0
  183.2230  178.5940  140.6760 N   0  0  1  0  0  0  0  0  0  0  0  0
  179.6680  181.4560  138.0050 C   0  0  2  0  0  3  0  0  0  0  0  0
  182.5350  177.9410  137.0690 O   0  0  0  0  0  0  0  0  0  0  0  0
  182.4500  178.8740  143.0660 C   0  0  1  0  0  3  0  0  0  0  0  0
  182.6080  177.9790  139.4830 C   0  0  2  0  0  3  0  0  0  0  0  0
  179.8660  180.2200  135.7760 C   0  0  1  0  0  3  0  0  0  0  0  0
  182.1860  178.3320  141.6560 C   0  0  1  0  0  3  0  0  0  0  0  0
  183.1820  178.5370  138.1580 C   0  0  1  0  0  3  0  0  0  0  0  0
  183.8180  179.5430  143.1370 C   0  0  0  0  0  2  0  0  0  0  0  0
  178.9310  180.8760  136.7920 C   0  0  0  0  0  2  0  0  0  0  0  0
  180.9400  178.8110  141.0270 C   0  0  2  0  0  3  0  0  0  0  0  0
  178.9310  180.0900  143.4240 O   0  0  0  0  0  1  0  0  0  0  0  0
  185.6030  177.8560  140.2500 C   0  0  0  0  0  2  0  0  0  0  0  0
  184.8920  178.6320  142.5070 C   0  0  0  0  0  2  0  0  0  0  0  0
  179.7660  178.4340  141.9130 C   0  0  0  0  0  2  0  0  0  0  0  0
  180.5060  178.9210  136.2910 C   0  0  1  0  0  3  0  0  0  0  0  0
  182.0270  179.0040  136.3260 C   0  0  0  0  0  2  0  0  0  0  0  0
  184.4210  177.9260  141.2120 C   0  0  1  0  0  3  0  0  0  0  0  0
  181.0520  178.1790  139.6590 C   0  0  1  0  0  3  0  0  0  0  0  0
  181.2940  179.7510  143.5690 C   0  0  0  0  0  2  0  0  0  0  0  0
  184.7020  178.3790  137.9740 C   0  0  1  0  0  3  0  0  0  0  0  0
  179.6490  178.0480  144.3670 C   0  0  0  0  0  1  0  0  0  0  0  0
  179.9120  178.3930  137.4710 O   0  0  0  0  0  0  0  0  0  0  0  0
  179.1560  179.9500  134.6070 O   0  0  0  0  0  1  0  0  0  0  0  0
  180.2850  179.0720  138.6660 C   0  0  2  0  0  3  0  0  0  0  0  0
  185.5520  178.8860  139.1340 C   0  0  0  0  0  2  0  0  0  0  0  0
  186.3630  176.9770  136.7230 C   0  0  0  0  0  3  0  0  0  0  0  0
  185.1530  177.0500  137.4230 C   0  0  0  0  0  0  0  0  0  0  0  0
  184.3930  175.8850  137.6140 C   0  0  0  0  0  3  0  0  0  0  0  0
  183.8840  173.2170  137.3430 Cl  0  0  0  0  0  0  0  0  0  0  0  0
  186.0460  174.5980  136.4010 C   0  0  0  0  0  3  0  0  0  0  0  0
  184.8390  174.6640  137.1020 C   0  0  0  0  0  0  0  0  0  0  0  0
  186.8080  175.7540  136.2120 C   0  0  0  0  0  3  0  0  0  0  0  0
  179.0020  183.9820  138.3050 C   0  0  0  0  0  1  0  0  0  0  0  0
  180.4000  183.0680  137.5930 S   0  0  0  0  0  0  0  0  0  0  0  0
  1 27  1  0  0  0  0
  2 14  1  0  0  0  0
  2 22  1  0  0  0  0
  2 24  1  1  0  0  0
  3 20  1  0  0  0  0
  3  9  1  0  0  0  0
  4  1  1  0  0  0  0
  5 10  1  0  0  0  0
  6 11  1  0  0  0  0
  6 22  1  0  0  0  0
  7 21  1  0  0  0  0
  7  3  1  0  0  0  0
  8 18  1  0  0  0  0
  8 12  1  0  0  0  0
  9  6  1  0  0  0  0
 10  7  1  0  0  0  0
 12  4  1  0  0  0  0
 13  9  1  0  0  0  0
 13 17  1  0  0  0  0
 15 20  1  0  0  0  0
 16 11  1  0  0  0  0
 17  2  1  0  0  0  0
 18 19  1  0  0  0  0
 18 25  1  0  0  0  0
 19  5  1  0  0  0  0
 20 16  1  0  0  0  0
 21 13  1  0  0  0  0
 23 10  1  0  0  0  0
 23 28  1  0  0  0  0
 25 27  1  0  0  0  0
 26  8  1  0  0  0  0
 27 21  1  0  0  0  0
 28 15  1  0  0  0  0
 29 30  1  0  0  0  0
 30 31  2  0  0  0  0
 30 23  1  0  0  0  0
 33 34  2  0  0  0  0
 34 32  1  0  0  0  0
 34 31  1  0  0  0  0
 35 33  1  0  0  0  0
 35 29  2  0  0  0  0
 37  4  1  0  0  0  0
 37 36  1  0  0  0  0
M  END
>  <MODEL>
3

>  <REMARK>
 VINA RESULT:      -4.7      3.385      7.338
  Name = 
  2 active torsions:
  status: ('A' for Active; 'I' for Inactive)
    1  A    between atoms: C_4  and  S_37
    2  A    between atoms: C_23  and  C_30
                            x       y       z     vdW  Elec       q    Type
                         _______ _______ _______ _____ _____    ______ ____

>  <TORSDO>
F 2

$$$$
=
 OpenBabel11122411273D

 37 43  0  0  1  0  0  0  0  0999 V2000
  188.2010  176.6820  138.7820 C   0  0  0  0  0  2  0  0  0  0  0  0
  190.2110  178.1240  143.1620 C   0  0  1  0  0  0  0  0  0  0  0  0
  186.2090  178.0700  141.6890 N   0  0  1  0  0  0  0  0  0  0  0  0
  189.2020  175.9990  137.8530 C   0  0  2  0  0  3  0  0  0  0  0  0
  185.6310  178.9380  138.1080 O   0  0  0  0  0  0  0  0  0  0  0  0
  187.7160  177.8770  143.7080 C   0  0  1  0  0  3  0  0  0  0  0  0
  186.3130  178.8220  140.4220 C   0  0  2  0  0  3  0  0  0  0  0  0
  188.1200  177.2350  135.8940 C   0  0  1  0  0  3  0  0  0  0  0  0
  187.4370  178.4960  142.3340 C   0  0  1  0  0  3  0  0  0  0  0  0
  185.4630  178.2010  139.2870 C   0  0  1  0  0  3  0  0  0  0  0  0
  186.5720  176.9610  144.1280 C   0  0  0  0  0  2  0  0  0  0  0  0
  189.4210  176.7390  136.5270 C   0  0  0  0  0  2  0  0  0  0  0  0
  188.4910  178.2770  141.3240 C   0  0  2  0  0  3  0  0  0  0  0  0
  191.3280  177.3340  142.9010 O   0  0  0  0  0  1  0  0  0  0  0  0
  183.7250  178.3590  142.0530 C   0  0  0  0  0  2  0  0  0  0  0  0
  185.2170  177.6710  143.9240 C   0  0  0  0  0  2  0  0  0  0  0  0
  189.7990  178.8430  141.8490 C   0  0  0  0  0  2  0  0  0  0  0  0
  187.4590  178.3770  136.6820 C   0  0  1  0  0  3  0  0  0  0  0  0
  186.0590  178.0090  137.1620 C   0  0  0  0  0  2  0  0  0  0  0  0
  185.1390  178.4870  142.6100 C   0  0  1  0  0  3  0  0  0  0  0  0
  187.8570  178.9120  140.1100 C   0  0  1  0  0  3  0  0  0  0  0  0
  189.1020  177.2190  143.7700 C   0  0  0  0  0  2  0  0  0  0  0  0
  183.9560  178.0760  139.5770 C   0  0  1  0  0  3  0  0  0  0  0  0
  190.5980  179.1780  144.1810 C   0  0  0  0  0  1  0  0  0  0  0  0
  188.2870  178.9760  137.6720 O   0  0  0  0  0  0  0  0  0  0  0  0
  188.3790  177.6650  134.5940 O   0  0  0  0  0  1  0  0  0  0  0  0
  188.4220  178.2060  138.8630 C   0  0  2  0  0  3  0  0  0  0  0  0
  183.6040  177.3870  140.8910 C   0  0  0  0  0  2  0  0  0  0  0  0
  183.7950  180.5090  138.9920 C   0  0  0  0  0  3  0  0  0  0  0  0
  183.1380  179.3110  139.2970 C   0  0  0  0  0  0  0  0  0  0  0  0
  181.7350  179.2770  139.3190 C   0  0  0  0  0  3  0  0  0  0  0  0
  179.2510  180.3840  139.0770 Cl  0  0  0  0  0  0  0  0  0  0  0  0
  181.6610  181.6280  138.7460 C   0  0  0  0  0  3  0  0  0  0  0  0
  181.0000  180.4340  139.0450 C   0  0  0  0  0  0  0  0  0  0  0  0
  183.0580  181.6650  138.7180 C   0  0  0  0  0  3  0  0  0  0  0  0
  190.2820  173.8130  136.8680 C   0  0  0  0  0  1  0  0  0  0  0  0
  188.6660  174.2900  137.5460 S   0  0  0  0  0  0  0  0  0  0  0  0
  1 27  1  0  0  0  0
  2 22  1  0  0  0  0
  2 24  1  1  0  0  0
  3  9  1  0  0  0  0
  3 20  1  0  0  0  0
  4  1  1  0  0  0  0
  5 10  1  0  0  0  0
  6 22  1  0  0  0  0
  6 11  1  0  0  0  0
  7  3  1  0  0  0  0
  8 12  1  0  0  0  0
  8 18  1  0  0  0  0
  9  6  1  0  0  0  0
 10 23  1  0  0  0  0
 10  7  1  0  0  0  0
 12  4  1  0  0  0  0
 13 17  1  0  0  0  0
 13  9  1  0  0  0  0
 14  2  1  0  0  0  0
 15 20  1  0  0  0  0
 16 11  1  0  0  0  0
 17  2  1  0  0  0  0
 18 19  1  0  0  0  0
 18 25  1  0  0  0  0
 19  5  1  0  0  0  0
 20 16  1  0  0  0  0
 21  7  1  0  0  0  0
 21 13  1  0  0  0  0
 23 28  1  0  0  0  0
 25 27  1  0  0  0  0
 26  8  1  0  0  0  0
 27 21  1  0  0  0  0
 28 15  1  0  0  0  0
 29 30  1  0  0  0  0
 30 31  2  0  0  0  0
 30 23  1  0  0  0  0
 33 34  2  0  0  0  0
 34 32  1  0  0  0  0
 34 31  1  0  0  0  0
 35 33  1  0  0  0  0
 35 29  2  0  0  0  0
 36 37  1  0  0  0  0
 37  4  1  0  0  0  0
M  END
>  <MODEL>
4

>  <REMARK>
 VINA RESULT:      -4.6      3.171      4.925
  Name = 
  2 active torsions:
  status: ('A' for Active; 'I' for Inactive)
    1  A    between atoms: C_4  and  S_37
    2  A    between atoms: C_23  and  C_30
                            x       y       z     vdW  Elec       q    Type
                         _______ _______ _______ _____ _____    ______ ____

>  <TORSDO>
F 2

$$$$
=
 OpenBabel11122411273D

 37 43  0  0  1  0  0  0  0  0999 V2000
  182.3100  179.9930  139.0790 C   0  0  0  0  0  2  0  0  0  0  0  0
  183.9230  179.1650  143.7710 C   0  0  1  0  0  0  0  0  0  0  0  0
  185.6120  178.3510  139.9410 N   0  0  1  0  0  0  0  0  0  0  0  0
  181.0310  180.8260  139.0170 C   0  0  2  0  0  3  0  0  0  0  0  0
  183.3350  177.2400  137.2040 O   0  0  0  0  0  0  0  0  0  0  0  0
  186.0540  178.9260  142.3610 C   0  0  1  0  0  3  0  0  0  0  0  0
  184.5460  177.5850  139.2640 C   0  0  2  0  0  3  0  0  0  0  0  0
  180.2260  179.3180  137.1160 C   0  0  1  0  0  3  0  0  0  0  0  0
  185.1880  178.2080  141.3200 C   0  0  1  0  0  3  0  0  0  0  0  0
  184.3810  177.9750  137.7760 C   0  0  1  0  0  3  0  0  0  0  0  0
  187.2420  179.6090  141.6940 C   0  0  0  0  0  2  0  0  0  0  0  0
  179.8450  180.0910  138.3790 C   0  0  0  0  0  2  0  0  0  0  0  0
  183.7630  178.5940  141.3200 C   0  0  2  0  0  3  0  0  0  0  0  0
  183.0570  180.1530  144.2350 O   0  0  0  0  0  1  0  0  0  0  0  0
  187.5450  177.5820  138.5050 C   0  0  0  0  0  2  0  0  0  0  0  0
  187.9450  178.6330  140.7270 C   0  0  0  0  0  2  0  0  0  0  0  0
  183.1810  178.3250  142.6970 C   0  0  0  0  0  2  0  0  0  0  0  0
  181.1190  178.0990  137.3960 C   0  0  1  0  0  3  0  0  0  0  0  0
  182.4650  178.1970  136.6860 C   0  0  0  0  0  2  0  0  0  0  0  0
  186.9630  177.7650  139.9020 C   0  0  1  0  0  3  0  0  0  0  0  0
  183.2530  177.7950  140.1440 C   0  0  1  0  0  3  0  0  0  0  0  0
  185.2210  179.8520  143.2600 C   0  0  0  0  0  2  0  0  0  0  0  0
  185.6370  177.8060  136.9010 C   0  0  1  0  0  3  0  0  0  0  0  0
  184.2730  178.2520  144.9300 C   0  0  0  0  0  1  0  0  0  0  0  0
  181.1970  177.7210  138.7650 O   0  0  0  0  0  0  0  0  0  0  0  0
  179.0650  178.8970  136.4690 O   0  0  0  0  0  1  0  0  0  0  0  0
  182.0470  178.5490  139.5530 C   0  0  2  0  0  3  0  0  0  0  0  0
  186.9000  178.4620  137.4470 C   0  0  0  0  0  2  0  0  0  0  0  0
  186.5210  176.2730  135.1240 C   0  0  0  0  0  3  0  0  0  0  0  0
  185.8590  176.4200  136.3480 C   0  0  0  0  0  0  0  0  0  0  0  0
  185.4330  175.2790  137.0460 C   0  0  0  0  0  3  0  0  0  0  0  0
  185.1240  172.5890  137.3910 Cl  0  0  0  0  0  0  0  0  0  0  0  0
  186.3180  173.8660  135.2910 C   0  0  0  0  0  3  0  0  0  0  0  0
  185.6610  174.0070  136.5160 C   0  0  0  0  0  0  0  0  0  0  0  0
  186.7480  174.9990  134.5950 C   0  0  0  0  0  3  0  0  0  0  0  0
  179.6230  182.8770  138.1680 C   0  0  0  0  0  1  0  0  0  0  0  0
  181.3680  182.3770  138.1330 S   0  0  0  0  0  0  0  0  0  0  0  0
  1 27  1  0  0  0  0
  2 14  1  0  0  0  0
  2 24  1  1  0  0  0
  3  9  1  0  0  0  0
  4  1  1  0  0  0  0
  5 10  1  0  0  0  0
  6 22  1  0  0  0  0
  7  3  1  0  0  0  0
  7 21  1  0  0  0  0
  8 18  1  0  0  0  0
  8 12  1  0  0  0  0
  9  6  1  0  0  0  0
 10  7  1  0  0  0  0
 11  6  1  0  0  0  0
 12  4  1  0  0  0  0
 13  9  1  0  0  0  0
 13 17  1  0  0  0  0
 15 20  1  0  0  0  0
 16 11  1  0  0  0  0
 17  2  1  0  0  0  0
 18 25  1  0  0  0  0
 19  5  1  0  0  0  0
 19 18  1  0  0  0  0
 20  3  1  0  0  0  0
 20 16  1  0  0  0  0
 21 13  1  0  0  0  0
 22  2  1  0  0  0  0
 23 28  1  0  0  0  0
 23 10  1  0  0  0  0
 25 27  1  0  0  0  0
 26  8  1  0  0  0  0
 27 21  1  0  0  0  0
 28 15  1  0  0  0  0
 29 30  1  0  0  0  0
 30 23  1  0  0  0  0
 30 31  2  0  0  0  0
 33 34  2  0  0  0  0
 34 31  1  0  0  0  0
 34 32  1  0  0  0  0
 35 29  2  0  0  0  0
 35 33  1  0  0  0  0
 37 36  1  0  0  0  0
 37  4  1  0  0  0  0
M  END
>  <MODEL>
5

>  <REMARK>
 VINA RESULT:      -4.3      3.237      6.776
  Name = 
  2 active torsions:
  status: ('A' for Active; 'I' for Inactive)
    1  A    between atoms: C_4  and  S_37
    2  A    between atoms: C_23  and  C_30
                            x       y       z     vdW  Elec       q    Type
                         _______ _______ _______ _____ _____    ______ ____

>  <TORSDO>
F 2

$$$$
=
 OpenBabel11122411273D

 37 43  0  0  1  0  0  0  0  0999 V2000
  184.8890  176.8430  136.3330 C   0  0  0  0  0  2  0  0  0  0  0  0
  182.3670  172.5230  135.8050 C   0  0  1  0  0  0  0  0  0  0  0  0
  181.1230  176.5250  136.5930 N   0  0  1  0  0  0  0  0  0  0  0  0
  186.3750  176.7200  136.0070 C   0  0  2  0  0  3  0  0  0  0  0  0
  183.2400  178.6260  138.8340 O   0  0  0  0  0  0  0  0  0  0  0  0
  180.5470  174.3090  135.5240 C   0  0  1  0  0  3  0  0  0  0  0  0
  181.9290  176.8960  137.7740 C   0  0  2  0  0  3  0  0  0  0  0  0
  186.8640  178.2690  137.9810 C   0  0  1  0  0  3  0  0  0  0  0  0
  181.2440  175.0810  136.6500 C   0  0  1  0  0  3  0  0  0  0  0  0
  182.4580  178.3490  137.7060 C   0  0  1  0  0  3  0  0  0  0  0  0
  179.8090  175.2650  134.5940 C   0  0  0  0  0  2  0  0  0  0  0  0
  187.2970  177.0320  137.1930 C   0  0  0  0  0  2  0  0  0  0  0  0
  182.6930  174.8260  136.7780 C   0  0  2  0  0  3  0  0  0  0  0  0
  183.4490  171.9860  135.1100 O   0  0  0  0  0  1  0  0  0  0  0  0
  179.2950  178.2480  136.8760 C   0  0  0  0  0  2  0  0  0  0  0  0
  178.9610  176.2610  135.4120 C   0  0  0  0  0  2  0  0  0  0  0  0
  182.9120  173.3410  137.0070 C   0  0  0  0  0  2  0  0  0  0  0  0
  185.5560  178.0650  138.7610 C   0  0  1  0  0  3  0  0  0  0  0  0
  184.4690  179.0410  138.3260 C   0  0  0  0  0  2  0  0  0  0  0  0
  179.6760  176.7840  136.6820 C   0  0  1  0  0  3  0  0  0  0  0  0
  183.0540  175.7940  137.8790 C   0  0  1  0  0  3  0  0  0  0  0  0
  181.5070  173.3490  134.8070 C   0  0  0  0  0  2  0  0  0  0  0  0
  181.3810  179.4420  137.5740 C   0  0  1  0  0  3  0  0  0  0  0  0
  181.5310  171.3810  136.3460 C   0  0  0  0  0  1  0  0  0  0  0  0
  185.1320  176.7120  138.8680 O   0  0  0  0  0  0  0  0  0  0  0  0
  187.8780  178.6240  138.8700 O   0  0  0  0  0  1  0  0  0  0  0  0
  184.5290  176.1940  137.6850 C   0  0  2  0  0  3  0  0  0  0  0  0
  180.3740  179.2280  136.4490 C   0  0  0  0  0  2  0  0  0  0  0  0
  180.2130  181.1850  138.9480 C   0  0  0  0  0  3  0  0  0  0  0  0
  180.7590  179.8980  138.8700 C   0  0  0  0  0  0  0  0  0  0  0  0
  180.7010  179.0530  139.9890 C   0  0  0  0  0  3  0  0  0  0  0  0
  180.0450  178.4360  142.5660 Cl  0  0  0  0  0  0  0  0  0  0  0  0
  179.5710  180.7830  141.2480 C   0  0  0  0  0  3  0  0  0  0  0  0
  180.1100  179.4960  141.1740 C   0  0  0  0  0  0  0  0  0  0  0  0
  179.6220  181.6270  140.1350 C   0  0  0  0  0  3  0  0  0  0  0  0
  188.5550  177.5030  134.7630 C   0  0  0  0  0  1  0  0  0  0  0  0
  186.7710  177.7930  134.5960 S   0  0  0  0  0  0  0  0  0  0  0  0
  1 27  1  0  0  0  0
  2 24  1  1  0  0  0
  2 17  1  0  0  0  0
  3  9  1  0  0  0  0
  3 20  1  0  0  0  0
  3  7  1  0  0  0  0
  4  1  1  0  0  0  0
  4 12  1  0  0  0  0
  6  9  1  0  0  0  0
  7 21  1  0  0  0  0
  8 18  1  0  0  0  0
  8 26  1  0  0  0  0
  9 13  1  0  0  0  0
 10  7  1  0  0  0  0
 10  5  1  0  0  0  0
 11 16  1  0  0  0  0
 11  6  1  0  0  0  0
 12  8  1  0  0  0  0
 13 17  1  0  0  0  0
 13 21  1  0  0  0  0
 14  2  1  0  0  0  0
 16 20  1  0  0  0  0
 18 25  1  0  0  0  0
 19 18  1  0  0  0  0
 19  5  1  0  0  0  0
 20 15  1  0  0  0  0
 22  6  1  0  0  0  0
 22  2  1  0  0  0  0
 23 10  1  0  0  0  0
 23 30  1  0  0  0  0
 27 21  1  0  0  0  0
 27 25  1  0  0  0  0
 28 15  1  0  0  0  0
 28 23  1  0  0  0  0
 29 35  1  0  0  0  0
 30 29  2  0  0  0  0
 30 31  1  0  0  0  0
 31 34  2  0  0  0  0
 34 33  1  0  0  0  0
 34 32  1  0  0  0  0
 35 33  2  0  0  0  0
 37 36  1  0  0  0  0
 37  4  1  0  0  0  0
M  END
>  <MODEL>
6

>  <REMARK>
 VINA RESULT:      -4.1      2.532      5.901
  Name = 
  2 active torsions:
  status: ('A' for Active; 'I' for Inactive)
    1  A    between atoms: C_4  and  S_37
    2  A    between atoms: C_23  and  C_30
                            x       y       z     vdW  Elec       q    Type
                         _______ _______ _______ _____ _____    ______ ____

>  <TORSDO>
F 2

$$$$
=
 OpenBabel11122411273D

 37 43  0  0  1  0  0  0  0  0999 V2000
  184.3910  177.7290  137.6680 C   0  0  0  0  0  2  0  0  0  0  0  0
  180.9350  181.3500  138.1620 C   0  0  1  0  0  0  0  0  0  0  0  0
  180.7430  177.1010  138.4720 N   0  0  1  0  0  0  0  0  0  0  0  0
  185.8130  178.2660  137.5180 C   0  0  2  0  0  3  0  0  0  0  0  0
  182.7810  175.0620  136.1050 O   0  0  0  0  0  0  0  0  0  0  0  0
  179.8240  179.3170  139.2660 C   0  0  1  0  0  3  0  0  0  0  0  0
  181.3190  176.6490  137.1890 C   0  0  2  0  0  3  0  0  0  0  0  0
  186.2450  176.4370  135.7840 C   0  0  1  0  0  3  0  0  0  0  0  0
  180.4270  178.4760  138.1350 C   0  0  1  0  0  3  0  0  0  0  0  0
  182.2430  175.4180  137.3480 C   0  0  1  0  0  3  0  0  0  0  0  0
  179.6350  178.4730  140.5210 C   0  0  0  0  0  2  0  0  0  0  0  0
  186.4770  177.8940  136.1860 C   0  0  0  0  0  2  0  0  0  0  0  0
  181.6680  179.0170  137.5470 C   0  0  2  0  0  3  0  0  0  0  0  0
  181.9490  182.2740  138.4060 O   0  0  0  0  0  1  0  0  0  0  0  0
  179.4750  174.9890  139.0370 C   0  0  0  0  0  2  0  0  0  0  0  0
  178.9400  177.1410  140.1700 C   0  0  0  0  0  2  0  0  0  0  0  0
  181.3910  180.4110  137.0120 C   0  0  0  0  0  2  0  0  0  0  0  0
  184.7880  176.1390  135.3980 C   0  0  1  0  0  3  0  0  0  0  0  0
  184.1620  175.0770  136.2940 C   0  0  0  0  0  2  0  0  0  0  0  0
  179.4540  176.5030  138.8560 C   0  0  1  0  0  3  0  0  0  0  0  0
  182.0220  177.9200  136.5710 C   0  0  1  0  0  3  0  0  0  0  0  0
  180.6100  180.6170  139.4940 C   0  0  0  0  0  2  0  0  0  0  0  0
  181.5880  174.1730  137.9750 C   0  0  1  0  0  3  0  0  0  0  0  0
  179.7020  182.1030  137.7010 C   0  0  0  0  0  1  0  0  0  0  0  0
  183.9790  177.2910  135.1900 O   0  0  0  0  0  0  0  0  0  0  0  0
  187.0770  176.1200  134.7120 O   0  0  0  0  0  1  0  0  0  0  0  0
  183.5510  177.9290  136.3900 C   0  0  2  0  0  3  0  0  0  0  0  0
  180.8590  174.4170  139.2910 C   0  0  0  0  0  2  0  0  0  0  0  0
  179.6430  173.7490  136.4510 C   0  0  0  0  0  3  0  0  0  0  0  0
  180.8360  173.2850  137.0160 C   0  0  0  0  0  0  0  0  0  0  0  0
  181.3180  172.0130  136.6670 C   0  0  0  0  0  3  0  0  0  0  0  0
  181.2140  169.6300  135.3410 Cl  0  0  0  0  0  0  0  0  0  0  0  0
  179.4140  171.6820  135.2100 C   0  0  0  0  0  3  0  0  0  0  0  0
  180.6070  171.2150  135.7680 C   0  0  0  0  0  0  0  0  0  0  0  0
  178.9320  172.9490  135.5510 C   0  0  0  0  0  3  0  0  0  0  0  0
  188.3650  178.2650  138.1500 C   0  0  0  0  0  1  0  0  0  0  0  0
  186.8220  177.6890  138.9140 S   0  0  0  0  0  0  0  0  0  0  0  0
  2 24  1  6  0  0  0
  2 14  1  0  0  0  0
  2 22  1  0  0  0  0
  3 20  1  0  0  0  0
  4  1  1  0  0  0  0
  4 37  1  0  0  0  0
  5 19  1  0  0  0  0
  5 10  1  0  0  0  0
  6 22  1  0  0  0  0
  6 11  1  0  0  0  0
  7 10  1  0  0  0  0
  7  3  1  0  0  0  0
  8 12  1  0  0  0  0
  9  3  1  0  0  0  0
  9  6  1  0  0  0  0
 10 23  1  0  0  0  0
 12  4  1  0  0  0  0
 13  9  1  0  0  0  0
 15 28  1  0  0  0  0
 16 11  1  0  0  0  0
 17 13  1  0  0  0  0
 17  2  1  0  0  0  0
 18  8  1  0  0  0  0
 18 19  1  0  0  0  0
 20 15  1  0  0  0  0
 20 16  1  0  0  0  0
 21  7  1  0  0  0  0
 21 13  1  0  0  0  0
 23 28  1  0  0  0  0
 25 18  1  0  0  0  0
 25 27  1  0  0  0  0
 26  8  1  0  0  0  0
 27 21  1  0  0  0  0
 27  1  1  0  0  0  0
 29 30  1  0  0  0  0
 30 23  1  0  0  0  0
 31 30  2  0  0  0  0
 32 34  1  0  0  0  0
 33 35  1  0  0  0  0
 33 34  2  0  0  0  0
 34 31  1  0  0  0  0
 35 29  2  0  0  0  0
 36 37  1  0  0  0  0
M  END
>  <MODEL>
7

>  <REMARK>
 VINA RESULT:      -3.8      3.216      6.910
  Name = 
  2 active torsions:
  status: ('A' for Active; 'I' for Inactive)
    1  A    between atoms: C_4  and  S_37
    2  A    between atoms: C_23  and  C_30
                            x       y       z     vdW  Elec       q    Type
                         _______ _______ _______ _____ _____    ______ ____

>  <TORSDO>
F 2

$$$$
=
 OpenBabel11122411273D

 37 43  0  0  1  0  0  0  0  0999 V2000
  188.3450  176.7610  140.7710 C   0  0  0  0  0  2  0  0  0  0  0  0
  184.2630  177.8310  138.0330 C   0  0  1  0  0  0  0  0  0  0  0  0
  187.7180  175.4500  137.2730 N   0  0  1  0  0  0  0  0  0  0  0  0
  188.2630  177.2750  142.2060 C   0  0  2  0  0  3  0  0  0  0  0  0
  191.0130  176.6620  138.5310 O   0  0  0  0  0  0  0  0  0  0  0  0
  185.2490  175.7800  136.8490 C   0  0  1  0  0  3  0  0  0  0  0  0
  188.8300  176.3850  137.5370 C   0  0  2  0  0  3  0  0  0  0  0  0
  190.7340  177.9090  142.0460 C   0  0  1  0  0  3  0  0  0  0  0  0
  186.6290  176.3940  137.1090 C   0  0  1  0  0  3  0  0  0  0  0  0
  190.0110  175.7170  138.2820 C   0  0  1  0  0  3  0  0  0  0  0  0
  185.3430  174.2610  136.7640 C   0  0  0  0  0  2  0  0  0  0  0  0
  189.3480  178.3000  142.5600 C   0  0  0  0  0  2  0  0  0  0  0  0
  186.7090  177.2740  138.2910 C   0  0  2  0  0  3  0  0  0  0  0  0
  183.5770  178.1610  139.2000 O   0  0  0  0  0  1  0  0  0  0  0  0
  188.9890  173.8120  135.8270 C   0  0  0  0  0  2  0  0  0  0  0  0
  186.4990  173.8490  135.8280 C   0  0  0  0  0  2  0  0  0  0  0  0
  185.7040  178.4020  138.1330 C   0  0  0  0  0  2  0  0  0  0  0  0
  190.8550  177.9740  140.5160 C   0  0  1  0  0  3  0  0  0  0  0  0
  191.2110  176.6220  139.9090 C   0  0  0  0  0  2  0  0  0  0  0  0
  187.7710  174.7140  135.9990 C   0  0  1  0  0  3  0  0  0  0  0  0
  188.1820  177.6070  138.2980 C   0  0  1  0  0  3  0  0  0  0  0  0
  184.1980  176.2890  137.8460 C   0  0  0  0  0  2  0  0  0  0  0  0
  190.6430  174.5050  137.5730 C   0  0  1  0  0  3  0  0  0  0  0  0
  183.5670  178.4990  136.8640 C   0  0  0  0  0  1  0  0  0  0  0  0
  189.7900  178.6560  139.8630 O   0  0  0  0  0  0  0  0  0  0  0  0
  191.6880  178.7500  142.6180 O   0  0  0  0  0  1  0  0  0  0  0  0
  188.5900  177.8960  139.7550 C   0  0  2  0  0  3  0  0  0  0  0  0
  189.6600  173.4250  137.1340 C   0  0  0  0  0  2  0  0  0  0  0  0
  191.4020  175.7910  135.5580 C   0  0  0  0  0  3  0  0  0  0  0  0
  191.6890  174.8340  136.5380 C   0  0  0  0  0  0  0  0  0  0  0  0
  192.9480  174.2130  136.5510 C   0  0  0  0  0  3  0  0  0  0  0  0
  195.4710  173.7630  135.6080 Cl  0  0  0  0  0  0  0  0  0  0  0  0
  193.6100  175.4970  134.6080 C   0  0  0  0  0  3  0  0  0  0  0  0
  193.9040  174.5440  135.5870 C   0  0  0  0  0  0  0  0  0  0  0  0
  192.3600  176.1210  134.5940 C   0  0  0  0  0  3  0  0  0  0  0  0
  188.3990  176.9440  144.8110 C   0  0  0  0  0  1  0  0  0  0  0  0
  188.3230  175.8660  143.3520 S   0  0  0  0  0  0  0  0  0  0  0  0
  1  4  1  0  0  0  0
  2 24  1  6  0  0  0
  2 17  1  0  0  0  0
  2 14  1  0  0  0  0
  3  7  1  0  0  0  0
  4 12  1  0  0  0  0
  4 37  1  0  0  0  0
  5 19  1  0  0  0  0
  6  9  1  0  0  0  0
  6 22  1  0  0  0  0
  7 10  1  0  0  0  0
  7 21  1  0  0  0  0
  8 12  1  0  0  0  0
  8 26  1  0  0  0  0
  9  3  1  0  0  0  0
  9 13  1  0  0  0  0
 10  5  1  0  0  0  0
 11  6  1  0  0  0  0
 13 21  1  0  0  0  0
 15 20  1  0  0  0  0
 15 28  1  0  0  0  0
 16 20  1  0  0  0  0
 16 11  1  0  0  0  0
 17 13  1  0  0  0  0
 18  8  1  0  0  0  0
 19 18  1  0  0  0  0
 20  3  1  0  0  0  0
 21 27  1  0  0  0  0
 22  2  1  0  0  0  0
 23 10  1  0  0  0  0
 25 18  1  0  0  0  0
 27 25  1  0  0  0  0
 27  1  1  0  0  0  0
 28 23  1  0  0  0  0
 29 30  1  0  0  0  0
 30 31  2  0  0  0  0
 30 23  1  0  0  0  0
 33 34  2  0  0  0  0
 34 32  1  0  0  0  0
 34 31  1  0  0  0  0
 35 33  1  0  0  0  0
 35 29  2  0  0  0  0
 37 36  1  0  0  0  0
M  END
>  <MODEL>
8

>  <REMARK>
 VINA RESULT:      -3.7      4.434      9.319
  Name = 
  2 active torsions:
  status: ('A' for Active; 'I' for Inactive)
    1  A    between atoms: C_4  and  S_37
    2  A    between atoms: C_23  and  C_30
                            x       y       z     vdW  Elec       q    Type
                         _______ _______ _______ _____ _____    ______ ____

>  <TORSDO>
F 2

$$$$
