=
 OpenBabel11122410223D

 30 35  0  0  1  0  0  0  0  0999 V2000
  189.1060  177.3200  143.2630 C   0  0  1  0  0  3  0  0  0  0  0  0
  191.2600  177.0470  144.6040 C   0  0  0  0  0  0  0  0  0  0  0  0
  187.0800  177.7140  146.9240 N   0  0  0  0  0  2  0  0  0  0  0  0
  187.7410  177.9900  143.4490 C   0  0  1  0  0  3  0  0  0  0  0  0
  189.8540  178.1060  142.3570 O   0  0  0  0  0  0  0  0  0  0  0  0
  187.4130  178.5990  139.8710 O   0  0  0  0  0  0  0  0  0  0  0  0
  184.4950  178.1730  142.7500 C   0  0  1  0  0  3  0  0  0  0  0  0
  187.8800  178.2340  140.9390 C   0  0  0  0  0  0  0  0  0  0  0  0
  184.4770  178.0770  144.2890 C   0  0  2  0  0  3  0  0  0  0  0  0
  185.7670  178.1650  146.4910 C   0  0  1  0  0  3  0  0  0  0  0  0
  189.3530  177.9340  141.0430 C   0  0  2  0  0  3  0  0  0  0  0  0
  186.9810  177.9450  142.1170 C   0  0  2  0  0  3  0  0  0  0  0  0
  191.9260  176.8530  145.8150 C   0  0  0  0  0  3  0  0  0  0  0  0
  183.4130  179.0600  144.7400 C   0  0  0  0  0  2  0  0  0  0  0  0
  183.2420  178.9320  142.3380 C   0  0  0  0  0  2  0  0  0  0  0  0
  192.0170  177.1120  143.4400 O   0  0  0  0  0  1  0  0  0  0  0  0
  187.6200  176.9340  145.8150 C   0  0  1  0  0  3  0  0  0  0  0  0
  191.2100  176.7290  147.0020 C   0  0  0  0  0  3  0  0  0  0  0  0
  189.8480  177.1580  144.5730 C   0  0  0  0  0  0  0  0  0  0  0  0
  186.8840  177.3340  144.5350 C   0  0  1  0  0  3  0  0  0  0  0  0
  185.4540  179.4920  147.1530 C   0  0  0  0  0  1  0  0  0  0  0  0
  185.8290  178.3280  144.9860 C   0  0  1  0  0  3  0  0  0  0  0  0
  182.4240  179.1240  143.5990 C   0  0  0  0  0  2  0  0  0  0  0  0
  185.7970  179.9930  141.9260 O   0  0  0  0  0  0  0  0  0  0  0  0
  189.8190  176.7860  146.9810 C   0  0  0  0  0  3  0  0  0  0  0  0
  189.1270  177.0000  145.7800 C   0  0  0  0  0  0  0  0  0  0  0  0
  185.7450  178.7960  142.1780 C   0  0  0  0  0  0  0  0  0  0  0  0
  189.6870  176.5570  140.4670 C   0  0  0  0  0  2  0  0  0  0  0  0
  190.2720  177.1250  138.1110 C   0  0  0  0  0  1  0  0  0  0  0  0
  190.8090  176.6470  139.4470 C   0  0  0  0  0  2  0  0  0  0  0  0
  1  5  1  6  0  0  0
  1  4  1  0  0  0  0
  1 19  1  0  0  0  0
  2 13  1  0  0  0  0
  4 20  1  0  0  0  0
  6  8  2  0  0  0  0
  7  9  1  0  0  0  0
  8 11  1  0  0  0  0
  8 12  1  0  0  0  0
  9 14  1  0  0  0  0
  9 22  1  0  0  0  0
 10  3  1  0  0  0  0
 10 21  1  0  0  0  0
 11  5  1  0  0  0  0
 12 27  1  0  0  0  0
 12  4  1  0  0  0  0
 13 18  2  0  0  0  0
 15  7  1  0  0  0  0
 15 23  1  0  0  0  0
 16  2  1  0  0  0  0
 17  3  1  0  0  0  0
 19  2  2  0  0  0  0
 19 26  1  0  0  0  0
 20 22  1  0  0  0  0
 20 17  1  0  0  0  0
 22 10  1  0  0  0  0
 23 14  1  0  0  0  0
 24 27  2  0  0  0  0
 25 18  1  0  0  0  0
 26 17  1  0  0  0  0
 26 25  2  0  0  0  0
 27  7  1  0  0  0  0
 28 11  1  0  0  0  0
 29 30  1  0  0  0  0
 30 28  1  0  0  0  0
M  END
>  <MODEL>
1

>  <REMARK>
 VINA RESULT:     -10.9      0.000      0.000
  Name = 
  2 active torsions:
  status: ('A' for Active; 'I' for Inactive)
    1  A    between atoms: C_11  and  C_28
    2  A    between atoms: C_28  and  C_30
                            x       y       z     vdW  Elec       q    Type
                         _______ _______ _______ _____ _____    ______ ____

>  <TORSDO>
F 2

$$$$
=
 OpenBabel11122410223D

 30 35  0  0  1  0  0  0  0  0999 V2000
  186.3770  178.1300  140.7740 C   0  0  1  0  0  3  0  0  0  0  0  0
  187.3770  178.5030  138.4560 C   0  0  0  0  0  0  0  0  0  0  0  0
  190.3000  177.6350  142.1980 N   0  0  0  0  0  2  0  0  0  0  0  0
  186.8160  178.3040  142.2310 C   0  0  1  0  0  3  0  0  0  0  0  0
  185.4660  179.1670  140.4700 O   0  0  0  0  0  0  0  0  0  0  0  0
  183.4000  178.9700  143.3120 O   0  0  0  0  0  0  0  0  0  0  0  0
  186.5870  177.4530  145.4370 C   0  0  1  0  0  3  0  0  0  0  0  0
  184.3500  178.7190  142.5860 C   0  0  0  0  0  0  0  0  0  0  0  0
  188.0950  177.2710  145.1740 C   0  0  2  0  0  3  0  0  0  0  0  0
  190.0980  177.6540  143.6380 C   0  0  1  0  0  3  0  0  0  0  0  0
  184.2210  178.9130  141.0970 C   0  0  2  0  0  3  0  0  0  0  0  0
  185.6010  178.0870  143.1440 C   0  0  2  0  0  3  0  0  0  0  0  0
  188.4590  178.4720  137.5760 C   0  0  0  0  0  3  0  0  0  0  0  0
  188.7870  177.8250  146.4060 C   0  0  0  0  0  2  0  0  0  0  0  0
  186.4310  177.7810  146.9150 C   0  0  0  0  0  2  0  0  0  0  0  0
  186.1350  178.8770  137.9580 O   0  0  0  0  0  1  0  0  0  0  0  0
  189.0520  177.1380  141.6270 C   0  0  1  0  0  3  0  0  0  0  0  0
  189.7130  178.0540  138.0140 C   0  0  0  0  0  3  0  0  0  0  0  0
  187.5500  178.1470  139.8170 C   0  0  0  0  0  0  0  0  0  0  0  0
  187.9330  177.3450  142.6500 C   0  0  1  0  0  3  0  0  0  0  0  0
  190.9330  178.7660  144.2420 C   0  0  0  0  0  1  0  0  0  0  0  0
  188.6250  177.9120  143.8760 C   0  0  1  0  0  3  0  0  0  0  0  0
  187.8040  177.6240  147.5360 C   0  0  0  0  0  2  0  0  0  0  0  0
  185.7900  179.6410  144.9280 O   0  0  0  0  0  0  0  0  0  0  0  0
  189.8860  177.6540  139.3360 C   0  0  0  0  0  3  0  0  0  0  0  0
  188.8200  177.6950  140.2450 C   0  0  0  0  0  0  0  0  0  0  0  0
  185.9200  178.4810  144.5590 C   0  0  0  0  0  0  0  0  0  0  0  0
  183.4640  177.7560  140.4450 C   0  0  0  0  0  2  0  0  0  0  0  0
  181.0920  178.4990  140.6400 C   0  0  0  0  0  1  0  0  0  0  0  0
  182.2450  178.2560  139.6860 C   0  0  0  0  0  2  0  0  0  0  0  0
  1 19  1  6  0  0  0
  1  4  1  0  0  0  0
  2 19  1  0  0  0  0
  3 10  1  0  0  0  0
  4 20  1  0  0  0  0
  4 12  1  0  0  0  0
  5  1  1  0  0  0  0
  5 11  1  0  0  0  0
  7 15  1  0  0  0  0
  8 12  1  0  0  0  0
  8  6  2  0  0  0  0
  9  7  1  0  0  0  0
  9 14  1  0  0  0  0
 10 22  1  0  0  0  0
 10 21  1  0  0  0  0
 11  8  1  0  0  0  0
 12 27  1  0  0  0  0
 13 18  1  0  0  0  0
 13  2  2  0  0  0  0
 14 23  1  0  0  0  0
 15 23  1  0  0  0  0
 16  2  1  0  0  0  0
 17  3  1  0  0  0  0
 17 20  1  0  0  0  0
 18 25  2  0  0  0  0
 19 26  2  0  0  0  0
 20 22  1  0  0  0  0
 22  9  1  0  0  0  0
 25 26  1  0  0  0  0
 26 17  1  0  0  0  0
 27 24  2  0  0  0  0
 27  7  1  0  0  0  0
 28 11  1  0  0  0  0
 30 28  1  0  0  0  0
 30 29  1  0  0  0  0
M  END
>  <MODEL>
2

>  <REMARK>
 VINA RESULT:     -10.0      2.349      5.828
  Name = 
  2 active torsions:
  status: ('A' for Active; 'I' for Inactive)
    1  A    between atoms: C_11  and  C_28
    2  A    between atoms: C_28  and  C_30
                            x       y       z     vdW  Elec       q    Type
                         _______ _______ _______ _____ _____    ______ ____

>  <TORSDO>
F 2

$$$$
=
 OpenBabel11122410223D

 30 35  0  0  1  0  0  0  0  0999 V2000
  189.2780  177.4090  141.5270 C   0  0  1  0  0  3  0  0  0  0  0  0
  190.0500  176.8730  139.1550 C   0  0  0  0  0  0  0  0  0  0  0  0
  185.6110  178.6280  139.8720 N   0  0  0  0  0  2  0  0  0  0  0  0
  187.9500  177.4930  142.2870 C   0  0  1  0  0  3  0  0  0  0  0  0
  189.9340  176.2250  141.9330 O   0  0  0  0  0  0  0  0  0  0  0  0
  189.5360  176.5100  145.4170 O   0  0  0  0  0  0  0  0  0  0  0  0
  186.1200  178.7230  144.7760 C   0  0  1  0  0  3  0  0  0  0  0  0
  189.3940  176.7910  144.2370 C   0  0  0  0  0  0  0  0  0  0  0  0
  185.2540  179.0750  143.5500 C   0  0  2  0  0  3  0  0  0  0  0  0
  184.7830  178.7720  141.0590 C   0  0  1  0  0  3  0  0  0  0  0  0
  190.4500  176.3860  143.2430 C   0  0  2  0  0  3  0  0  0  0  0  0
  188.2450  177.6600  143.7840 C   0  0  2  0  0  3  0  0  0  0  0  0
  189.8760  176.9360  137.7720 C   0  0  0  0  0  3  0  0  0  0  0  0
  183.8250  178.7910  143.9720 C   0  0  0  0  0  2  0  0  0  0  0  0
  185.1740  178.5770  145.9590 C   0  0  0  0  0  2  0  0  0  0  0  0
  191.2020  176.2680  139.6450 O   0  0  0  0  0  1  0  0  0  0  0  0
  186.9830  178.8670  140.3120 C   0  0  1  0  0  3  0  0  0  0  0  0
  188.7660  177.5780  137.2300 C   0  0  0  0  0  3  0  0  0  0  0  0
  189.0800  177.4270  140.0260 C   0  0  0  0  0  0  0  0  0  0  0  0
  187.0540  178.6450  141.8240 C   0  0  1  0  0  3  0  0  0  0  0  0
  183.5670  177.8770  140.9280 C   0  0  0  0  0  1  0  0  0  0  0  0
  185.6260  178.3470  142.2430 C   0  0  1  0  0  3  0  0  0  0  0  0
  183.8060  179.0030  145.4690 C   0  0  0  0  0  2  0  0  0  0  0  0
  186.6120  176.3980  144.9560 O   0  0  0  0  0  0  0  0  0  0  0  0
  187.8290  178.1710  138.0730 C   0  0  0  0  0  3  0  0  0  0  0  0
  187.9710  178.1040  139.4660 C   0  0  0  0  0  0  0  0  0  0  0  0
  186.9910  177.5050  144.5960 C   0  0  0  0  0  0  0  0  0  0  0  0
  191.6520  177.3290  143.2850 C   0  0  0  0  0  2  0  0  0  0  0  0
  191.3060  179.7020  143.9690 C   0  0  0  0  0  1  0  0  0  0  0  0
  191.5570  178.2880  144.4590 C   0  0  0  0  0  2  0  0  0  0  0  0
  1 19  1  6  0  0  0
  1  5  1  0  0  0  0
  1  4  1  0  0  0  0
  2 16  1  0  0  0  0
  2 19  1  0  0  0  0
  3 17  1  0  0  0  0
  3 10  1  0  0  0  0
  4 12  1  0  0  0  0
  5 11  1  0  0  0  0
  7 15  1  0  0  0  0
  8  6  2  0  0  0  0
  9 14  1  0  0  0  0
  9  7  1  0  0  0  0
 10 22  1  0  0  0  0
 11 28  1  0  0  0  0
 11  8  1  0  0  0  0
 12  8  1  0  0  0  0
 12 27  1  0  0  0  0
 13  2  2  0  0  0  0
 14 23  1  0  0  0  0
 17 20  1  0  0  0  0
 18 13  1  0  0  0  0
 18 25  2  0  0  0  0
 20 22  1  0  0  0  0
 20  4  1  0  0  0  0
 21 10  1  0  0  0  0
 22  9  1  0  0  0  0
 23 15  1  0  0  0  0
 25 26  1  0  0  0  0
 26 19  2  0  0  0  0
 26 17  1  0  0  0  0
 27  7  1  0  0  0  0
 27 24  2  0  0  0  0
 28 30  1  0  0  0  0
 29 30  1  0  0  0  0
M  END
>  <MODEL>
3

>  <REMARK>
 VINA RESULT:      -9.6      2.231      5.066
  Name = 
  2 active torsions:
  status: ('A' for Active; 'I' for Inactive)
    1  A    between atoms: C_11  and  C_28
    2  A    between atoms: C_28  and  C_30
                            x       y       z     vdW  Elec       q    Type
                         _______ _______ _______ _____ _____    ______ ____

>  <TORSDO>
F 2

$$$$
=
 OpenBabel11122410223D

 30 35  0  0  1  0  0  0  0  0999 V2000
  185.4890  178.3290  142.2280 C   0  0  1  0  0  3  0  0  0  0  0  0
  185.8100  178.6950  139.7240 C   0  0  0  0  0  0  0  0  0  0  0  0
  189.6280  177.6400  142.4820 N   0  0  0  0  0  2  0  0  0  0  0  0
  186.3300  178.4610  143.5020 C   0  0  1  0  0  3  0  0  0  0  0  0
  184.5780  179.4100  142.1980 O   0  0  0  0  0  0  0  0  0  0  0  0
  183.3930  179.2580  145.5080 O   0  0  0  0  0  0  0  0  0  0  0  0
  186.9780  177.5690  146.6390 C   0  0  1  0  0  3  0  0  0  0  0  0
  184.0870  178.9770  144.5420 C   0  0  0  0  0  0  0  0  0  0  0  0
  188.3400  177.3260  145.9600 C   0  0  2  0  0  3  0  0  0  0  0  0
  189.8420  177.6450  143.9200 C   0  0  1  0  0  3  0  0  0  0  0  0
  183.5520  179.2000  143.1510 C   0  0  2  0  0  3  0  0  0  0  0  0
  185.4140  178.2820  144.7210 C   0  0  2  0  0  3  0  0  0  0  0  0
  186.5960  178.6310  138.5720 C   0  0  0  0  0  3  0  0  0  0  0  0
  189.3760  177.8290  146.9460 C   0  0  0  0  0  2  0  0  0  0  0  0
  187.2610  177.8790  148.1020 C   0  0  0  0  0  2  0  0  0  0  0  0
  184.4960  179.1310  139.5990 O   0  0  0  0  0  1  0  0  0  0  0  0
  188.2470  177.2080  142.2870 C   0  0  1  0  0  3  0  0  0  0  0  0
  187.9010  178.1520  138.6360 C   0  0  0  0  0  3  0  0  0  0  0  0
  186.3430  178.3100  140.9780 C   0  0  0  0  0  0  0  0  0  0  0  0
  187.4740  177.4470  143.5850 C   0  0  1  0  0  3  0  0  0  0  0  0
  190.8640  178.7100  144.2660 C   0  0  0  0  0  1  0  0  0  0  0  0
  188.5100  177.9630  144.5660 C   0  0  1  0  0  3  0  0  0  0  0  0
  188.7450  177.6530  148.3080 C   0  0  0  0  0  2  0  0  0  0  0  0
  186.1720  179.7980  146.3830 O   0  0  0  0  0  0  0  0  0  0  0  0
  188.4230  177.7230  139.8540 C   0  0  0  0  0  3  0  0  0  0  0  0
  187.6600  177.7970  141.0280 C   0  0  0  0  0  0  0  0  0  0  0  0
  186.1370  178.6400  145.9890 C   0  0  0  0  0  0  0  0  0  0  0  0
  182.5880  178.0880  142.7360 C   0  0  0  0  0  2  0  0  0  0  0  0
  181.0800  179.2240  141.1070 C   0  0  0  0  0  1  0  0  0  0  0  0
  181.1890  178.6340  142.5000 C   0  0  0  0  0  2  0  0  0  0  0  0
  1 19  1  6  0  0  0
  1  4  1  0  0  0  0
  2 19  1  0  0  0  0
  3 10  1  0  0  0  0
  4 20  1  0  0  0  0
  4 12  1  0  0  0  0
  5  1  1  0  0  0  0
  5 11  1  0  0  0  0
  7 15  1  0  0  0  0
  8 12  1  0  0  0  0
  8  6  2  0  0  0  0
  9  7  1  0  0  0  0
  9 14  1  0  0  0  0
 10 21  1  0  0  0  0
 10 22  1  0  0  0  0
 11  8  1  0  0  0  0
 12 27  1  0  0  0  0
 13 18  1  0  0  0  0
 13  2  2  0  0  0  0
 14 23  1  0  0  0  0
 15 23  1  0  0  0  0
 16  2  1  0  0  0  0
 17  3  1  0  0  0  0
 17 20  1  0  0  0  0
 18 25  2  0  0  0  0
 19 26  2  0  0  0  0
 20 22  1  0  0  0  0
 22  9  1  0  0  0  0
 25 26  1  0  0  0  0
 26 17  1  0  0  0  0
 27 24  2  0  0  0  0
 27  7  1  0  0  0  0
 28 11  1  0  0  0  0
 29 30  1  0  0  0  0
 30 28  1  0  0  0  0
M  END
>  <MODEL>
4

>  <REMARK>
 VINA RESULT:      -9.2      2.362      6.269
  Name = 
  2 active torsions:
  status: ('A' for Active; 'I' for Inactive)
    1  A    between atoms: C_11  and  C_28
    2  A    between atoms: C_28  and  C_30
                            x       y       z     vdW  Elec       q    Type
                         _______ _______ _______ _____ _____    ______ ____

>  <TORSDO>
F 2

$$$$
=
 OpenBabel11122410223D

 30 35  0  0  1  0  0  0  0  0999 V2000
  187.5360  178.0130  139.2740 C   0  0  1  0  0  3  0  0  0  0  0  0
  185.1980  178.1260  138.2580 C   0  0  0  0  0  0  0  0  0  0  0  0
  185.7410  178.5690  143.0340 N   0  0  0  0  0  2  0  0  0  0  0  0
  188.1620  177.6250  140.6180 C   0  0  1  0  0  3  0  0  0  0  0  0
  187.8070  176.9730  138.3550 O   0  0  0  0  0  0  0  0  0  0  0  0
  191.2340  176.5090  139.0060 O   0  0  0  0  0  0  0  0  0  0  0  0
  190.6210  177.8890  142.8400 C   0  0  1  0  0  3  0  0  0  0  0  0
  190.1070  176.9580  139.1510 C   0  0  0  0  0  0  0  0  0  0  0  0
  189.3880  178.2350  143.6990 C   0  0  2  0  0  3  0  0  0  0  0  0
  186.8460  178.2860  143.9350 C   0  0  1  0  0  3  0  0  0  0  0  0
  189.1710  177.0140  137.9720 C   0  0  2  0  0  3  0  0  0  0  0  0
  189.6880  177.5830  140.4590 C   0  0  2  0  0  3  0  0  0  0  0  0
  183.8330  178.3960  138.3660 C   0  0  0  0  0  3  0  0  0  0  0  0
  189.6130  177.5340  145.0250 C   0  0  0  0  0  2  0  0  0  0  0  0
  191.6630  177.3000  143.7790 C   0  0  0  0  0  2  0  0  0  0  0  0
  185.6970  177.7450  137.0180 O   0  0  0  0  0  1  0  0  0  0  0  0
  186.3490  179.0550  141.7980 C   0  0  1  0  0  3  0  0  0  0  0  0
  183.2940  178.8320  139.5730 C   0  0  0  0  0  3  0  0  0  0  0  0
  186.0460  178.2550  139.3860 C   0  0  0  0  0  0  0  0  0  0  0  0
  187.8040  178.5850  141.7560 C   0  0  1  0  0  3  0  0  0  0  0  0
  186.4500  177.1570  144.8670 C   0  0  0  0  0  1  0  0  0  0  0  0
  188.0240  177.8730  143.0780 C   0  0  1  0  0  3  0  0  0  0  0  0
  191.1140  177.4570  145.1820 C   0  0  0  0  0  2  0  0  0  0  0  0
  190.4690  175.7650  141.7700 O   0  0  0  0  0  0  0  0  0  0  0  0
  184.1230  179.0110  140.6770 C   0  0  0  0  0  3  0  0  0  0  0  0
  185.4940  178.7280  140.6000 C   0  0  0  0  0  0  0  0  0  0  0  0
  190.3340  176.9770  141.6730 C   0  0  0  0  0  0  0  0  0  0  0  0
  189.4870  178.2010  137.0620 C   0  0  0  0  0  2  0  0  0  0  0  0
  189.5520  176.5120  135.2290 C   0  0  0  0  0  1  0  0  0  0  0  0
  189.1010  177.9060  135.6220 C   0  0  0  0  0  2  0  0  0  0  0  0
  1  5  1  6  0  0  0
  1 19  1  0  0  0  0
  1  4  1  0  0  0  0
  2 13  2  0  0  0  0
  2 19  1  0  0  0  0
  3 10  1  0  0  0  0
  4 20  1  0  0  0  0
  6  8  2  0  0  0  0
  7  9  1  0  0  0  0
  7 15  1  0  0  0  0
  8 12  1  0  0  0  0
  9 14  1  0  0  0  0
 10 21  1  0  0  0  0
 11  5  1  0  0  0  0
 11  8  1  0  0  0  0
 12  4  1  0  0  0  0
 12 27  1  0  0  0  0
 13 18  1  0  0  0  0
 14 23  1  0  0  0  0
 15 23  1  0  0  0  0
 16  2  1  0  0  0  0
 17  3  1  0  0  0  0
 18 25  2  0  0  0  0
 19 26  2  0  0  0  0
 20 17  1  0  0  0  0
 20 22  1  0  0  0  0
 22  9  1  0  0  0  0
 22 10  1  0  0  0  0
 26 25  1  0  0  0  0
 26 17  1  0  0  0  0
 27 24  2  0  0  0  0
 27  7  1  0  0  0  0
 28 11  1  0  0  0  0
 29 30  1  0  0  0  0
 30 28  1  0  0  0  0
M  END
>  <MODEL>
5

>  <REMARK>
 VINA RESULT:      -8.5      2.190      6.086
  Name = 
  2 active torsions:
  status: ('A' for Active; 'I' for Inactive)
    1  A    between atoms: C_11  and  C_28
    2  A    between atoms: C_28  and  C_30
                            x       y       z     vdW  Elec       q    Type
                         _______ _______ _______ _____ _____    ______ ____

>  <TORSDO>
F 2

$$$$
=
 OpenBabel11122410223D

 30 35  0  0  1  0  0  0  0  0999 V2000
  188.3950  177.7060  142.9340 C   0  0  1  0  0  3  0  0  0  0  0  0
  189.9420  177.8540  144.9580 C   0  0  0  0  0  0  0  0  0  0  0  0
  185.1650  178.1390  145.5890 N   0  0  0  0  0  2  0  0  0  0  0  0
  186.9950  178.1950  142.5490 C   0  0  1  0  0  3  0  0  0  0  0  0
  189.3370  178.5050  142.2450 O   0  0  0  0  0  0  0  0  0  0  0  0
  187.9100  178.4330  139.0290 O   0  0  0  0  0  0  0  0  0  0  0  0
  184.2130  177.8640  140.7580 C   0  0  1  0  0  3  0  0  0  0  0  0
  187.9980  178.2320  140.2310 C   0  0  0  0  0  0  0  0  0  0  0  0
  183.6550  177.9040  142.1950 C   0  0  2  0  0  3  0  0  0  0  0  0
  184.0570  178.3640  144.6740 C   0  0  1  0  0  3  0  0  0  0  0  0
  189.3580  178.1490  140.8740 C   0  0  2  0  0  3  0  0  0  0  0  0
  186.7700  177.9270  141.0540 C   0  0  2  0  0  3  0  0  0  0  0  0
  190.1470  177.8630  146.3380 C   0  0  0  0  0  3  0  0  0  0  0  0
  182.4100  178.7660  142.1190 C   0  0  0  0  0  2  0  0  0  0  0  0
  183.1220  178.4020  139.8440 C   0  0  0  0  0  2  0  0  0  0  0  0
  191.0550  177.9200  144.1280 O   0  0  0  0  0  1  0  0  0  0  0  0
  186.1410  177.3470  144.8460 C   0  0  1  0  0  3  0  0  0  0  0  0
  189.0700  177.7460  147.2110 C   0  0  0  0  0  3  0  0  0  0  0  0
  188.6310  177.7650  144.4280 C   0  0  0  0  0  0  0  0  0  0  0  0
  185.8750  177.5250  143.3500 C   0  0  1  0  0  3  0  0  0  0  0  0
  183.3990  179.6880  145.0070 C   0  0  0  0  0  1  0  0  0  0  0  0
  184.6370  178.4000  143.2750 C   0  0  1  0  0  3  0  0  0  0  0  0
  181.8920  178.5910  140.7090 C   0  0  0  0  0  2  0  0  0  0  0  0
  185.5370  179.7660  140.2000 O   0  0  0  0  0  0  0  0  0  0  0  0
  187.7800  177.6090  146.7050 C   0  0  0  0  0  3  0  0  0  0  0  0
  187.5460  177.6170  145.3230 C   0  0  0  0  0  0  0  0  0  0  0  0
  185.5160  178.6010  140.5740 C   0  0  0  0  0  0  0  0  0  0  0  0
  190.0090  176.7870  140.6350 C   0  0  0  0  0  2  0  0  0  0  0  0
  192.3600  177.5040  140.2150 C   0  0  0  0  0  1  0  0  0  0  0  0
  191.1200  176.8820  139.6020 C   0  0  0  0  0  2  0  0  0  0  0  0
  1  5  1  6  0  0  0
  1 19  1  0  0  0  0
  2 13  1  0  0  0  0
  4  1  1  0  0  0  0
  4 20  1  0  0  0  0
  6  8  2  0  0  0  0
  7  9  1  0  0  0  0
  8 11  1  0  0  0  0
  8 12  1  0  0  0  0
  9 22  1  0  0  0  0
 10 21  1  0  0  0  0
 10  3  1  0  0  0  0
 11  5  1  0  0  0  0
 12  4  1  0  0  0  0
 13 18  2  0  0  0  0
 14  9  1  0  0  0  0
 15 23  1  0  0  0  0
 15  7  1  0  0  0  0
 16  2  1  0  0  0  0
 17 26  1  0  0  0  0
 17  3  1  0  0  0  0
 19  2  2  0  0  0  0
 19 26  1  0  0  0  0
 20 17  1  0  0  0  0
 22 20  1  0  0  0  0
 22 10  1  0  0  0  0
 23 14  1  0  0  0  0
 24 27  2  0  0  0  0
 25 18  1  0  0  0  0
 26 25  2  0  0  0  0
 27  7  1  0  0  0  0
 27 12  1  0  0  0  0
 28 11  1  0  0  0  0
 30 29  1  0  0  0  0
 30 28  1  0  0  0  0
M  END
>  <MODEL>
6

>  <REMARK>
 VINA RESULT:      -8.3      1.332      1.901
  Name = 
  2 active torsions:
  status: ('A' for Active; 'I' for Inactive)
    1  A    between atoms: C_11  and  C_28
    2  A    between atoms: C_28  and  C_30
                            x       y       z     vdW  Elec       q    Type
                         _______ _______ _______ _____ _____    ______ ____

>  <TORSDO>
F 2

$$$$
=
 OpenBabel11122410223D

 30 35  0  0  1  0  0  0  0  0999 V2000
  187.9320  177.8100  140.7160 C   0  0  1  0  0  3  0  0  0  0  0  0
  190.2110  177.6390  139.5800 C   0  0  0  0  0  0  0  0  0  0  0  0
  189.8870  177.0740  144.3630 N   0  0  0  0  0  2  0  0  0  0  0  0
  187.3890  178.1810  142.1000 C   0  0  1  0  0  3  0  0  0  0  0  0
  187.6560  178.8860  139.8410 O   0  0  0  0  0  0  0  0  0  0  0  0
  184.2870  179.4590  140.6780 O   0  0  0  0  0  0  0  0  0  0  0  0
  185.0340  177.9430  144.4360 C   0  0  1  0  0  3  0  0  0  0  0  0
  185.4010  178.9640  140.7530 C   0  0  0  0  0  0  0  0  0  0  0  0
  186.2940  177.5260  145.2200 C   0  0  2  0  0  3  0  0  0  0  0  0
  188.8400  177.3720  145.3270 C   0  0  1  0  0  3  0  0  0  0  0  0
  186.2750  178.9080  139.5270 C   0  0  2  0  0  3  0  0  0  0  0  0
  185.8590  178.2850  142.0200 C   0  0  2  0  0  3  0  0  0  0  0  0
  191.5680  177.3150  139.6120 C   0  0  0  0  0  3  0  0  0  0  0  0
  186.1620  178.1940  146.5760 C   0  0  0  0  0  2  0  0  0  0  0  0
  184.0630  178.5430  145.4420 C   0  0  0  0  0  2  0  0  0  0  0  0
  189.6670  178.0750  138.3780 O   0  0  0  0  0  1  0  0  0  0  0  0
  189.2000  176.6490  143.1470 C   0  0  1  0  0  3  0  0  0  0  0  0
  192.1480  176.8230  140.7780 C   0  0  0  0  0  3  0  0  0  0  0  0
  189.4160  177.5080  140.7460 C   0  0  0  0  0  0  0  0  0  0  0  0
  187.7640  177.1740  143.1910 C   0  0  1  0  0  3  0  0  0  0  0  0
  189.3250  178.4570  146.2690 C   0  0  0  0  0  1  0  0  0  0  0  0
  187.6380  177.8550  144.5420 C   0  0  1  0  0  3  0  0  0  0  0  0
  184.6740  178.3230  146.8110 C   0  0  0  0  0  2  0  0  0  0  0  0
  185.2160  180.0910  143.4180 O   0  0  0  0  0  0  0  0  0  0  0  0
  191.3680  176.6420  141.9170 C   0  0  0  0  0  3  0  0  0  0  0  0
  190.0070  176.9800  141.9170 C   0  0  0  0  0  0  0  0  0  0  0  0
  185.2990  178.8780  143.2820 C   0  0  0  0  0  0  0  0  0  0  0  0
  185.8690  177.7620  138.6010 C   0  0  0  0  0  2  0  0  0  0  0  0
  185.7570  176.9640  136.2410 C   0  0  0  0  0  1  0  0  0  0  0  0
  186.3070  178.0300  137.1700 C   0  0  0  0  0  2  0  0  0  0  0  0
  1  5  1  6  0  0  0
  1 19  1  0  0  0  0
  1  4  1  0  0  0  0
  2 13  2  0  0  0  0
  2 19  1  0  0  0  0
  3 10  1  0  0  0  0
  4 20  1  0  0  0  0
  6  8  2  0  0  0  0
  7  9  1  0  0  0  0
  7 15  1  0  0  0  0
  8 12  1  0  0  0  0
  9 14  1  0  0  0  0
 10 21  1  0  0  0  0
 11  5  1  0  0  0  0
 11  8  1  0  0  0  0
 12  4  1  0  0  0  0
 12 27  1  0  0  0  0
 13 18  1  0  0  0  0
 14 23  1  0  0  0  0
 15 23  1  0  0  0  0
 16  2  1  0  0  0  0
 17 20  1  0  0  0  0
 17  3  1  0  0  0  0
 18 25  2  0  0  0  0
 19 26  2  0  0  0  0
 20 22  1  0  0  0  0
 22  9  1  0  0  0  0
 22 10  1  0  0  0  0
 26 25  1  0  0  0  0
 26 17  1  0  0  0  0
 27 24  2  0  0  0  0
 27  7  1  0  0  0  0
 28 11  1  0  0  0  0
 29 30  1  0  0  0  0
 30 28  1  0  0  0  0
M  END
>  <MODEL>
7

>  <REMARK>
 VINA RESULT:      -8.3      1.977      3.784
  Name = 
  2 active torsions:
  status: ('A' for Active; 'I' for Inactive)
    1  A    between atoms: C_11  and  C_28
    2  A    between atoms: C_28  and  C_30
                            x       y       z     vdW  Elec       q    Type
                         _______ _______ _______ _____ _____    ______ ____

>  <TORSDO>
F 2

$$$$
=
 OpenBabel11122410223D

 30 35  0  0  1  0  0  0  0  0999 V2000
  187.0660  178.1820  142.5320 C   0  0  1  0  0  3  0  0  0  0  0  0
  184.5680  178.5310  142.1440 C   0  0  0  0  0  0  0  0  0  0  0  0
  186.2300  178.0290  146.6480 N   0  0  0  0  0  2  0  0  0  0  0  0
  187.9600  177.5300  143.5910 C   0  0  1  0  0  3  0  0  0  0  0  0
  187.0510  177.3360  141.3990 O   0  0  0  0  0  0  0  0  0  0  0  0
  190.4990  176.6950  141.1130 O   0  0  0  0  0  0  0  0  0  0  0  0
  190.8790  177.3150  145.1700 C   0  0  1  0  0  3  0  0  0  0  0  0
  189.4670  177.1260  141.6040 C   0  0  0  0  0  0  0  0  0  0  0  0
  189.9030  177.5080  146.3470 C   0  0  2  0  0  3  0  0  0  0  0  0
  187.4940  177.5560  147.1910 C   0  0  1  0  0  3  0  0  0  0  0  0
  188.2890  177.4270  140.7150 C   0  0  2  0  0  3  0  0  0  0  0  0
  189.4030  177.4930  143.0670 C   0  0  2  0  0  3  0  0  0  0  0  0
  183.2850  178.7990  142.6240 C   0  0  0  0  0  3  0  0  0  0  0  0
  190.3850  176.5590  147.4280 C   0  0  0  0  0  2  0  0  0  0  0  0
  192.0720  176.5360  145.7060 C   0  0  0  0  0  2  0  0  0  0  0  0
  184.7410  178.3900  140.7720 O   0  0  0  0  0  1  0  0  0  0  0  0
  186.5650  178.7340  145.4150 C   0  0  1  0  0  3  0  0  0  0  0  0
  183.0690  179.0010  143.9840 C   0  0  0  0  0  3  0  0  0  0  0  0
  185.6600  178.4240  143.0400 C   0  0  0  0  0  0  0  0  0  0  0  0
  187.9380  178.2570  144.9390 C   0  0  1  0  0  3  0  0  0  0  0  0
  187.2540  176.2750  147.9650 C   0  0  0  0  0  1  0  0  0  0  0  0
  188.4120  177.2970  146.0150 C   0  0  1  0  0  3  0  0  0  0  0  0
  191.8730  176.4270  147.2040 C   0  0  0  0  0  2  0  0  0  0  0  0
  190.3500  175.4410  143.7930 O   0  0  0  0  0  0  0  0  0  0  0  0
  184.1410  178.9480  144.8710 C   0  0  0  0  0  3  0  0  0  0  0  0
  185.4360  178.6610  144.4170 C   0  0  0  0  0  0  0  0  0  0  0  0
  190.2730  176.6520  143.9580 C   0  0  0  0  0  0  0  0  0  0  0  0
  188.4590  178.7620  139.9910 C   0  0  0  0  0  2  0  0  0  0  0  0
  188.4790  177.3030  137.9690 C   0  0  0  0  0  1  0  0  0  0  0  0
  189.0400  178.5630  138.6010 C   0  0  0  0  0  2  0  0  0  0  0  0
  1  5  1  6  0  0  0
  1 19  1  0  0  0  0
  1  4  1  0  0  0  0
  2 13  2  0  0  0  0
  2 19  1  0  0  0  0
  3 10  1  0  0  0  0
  4 20  1  0  0  0  0
  6  8  2  0  0  0  0
  7 15  1  0  0  0  0
  7  9  1  0  0  0  0
  8 12  1  0  0  0  0
  9 14  1  0  0  0  0
 10 21  1  0  0  0  0
 11  5  1  0  0  0  0
 11  8  1  0  0  0  0
 12  4  1  0  0  0  0
 12 27  1  0  0  0  0
 13 18  1  0  0  0  0
 15 23  1  0  0  0  0
 16  2  1  0  0  0  0
 17  3  1  0  0  0  0
 18 25  2  0  0  0  0
 19 26  2  0  0  0  0
 20 17  1  0  0  0  0
 20 22  1  0  0  0  0
 22  9  1  0  0  0  0
 22 10  1  0  0  0  0
 23 14  1  0  0  0  0
 24 27  2  0  0  0  0
 26 25  1  0  0  0  0
 26 17  1  0  0  0  0
 27  7  1  0  0  0  0
 28 11  1  0  0  0  0
 29 30  1  0  0  0  0
 30 28  1  0  0  0  0
M  END
>  <MODEL>
8

>  <REMARK>
 VINA RESULT:      -8.2      1.308      5.417
  Name = 
  2 active torsions:
  status: ('A' for Active; 'I' for Inactive)
    1  A    between atoms: C_11  and  C_28
    2  A    between atoms: C_28  and  C_30
                            x       y       z     vdW  Elec       q    Type
                         _______ _______ _______ _____ _____    ______ ____

>  <TORSDO>
F 2

$$$$
=
 OpenBabel11122410223D

 30 35  0  0  1  0  0  0  0  0999 V2000
  186.5930  178.1530  142.8470 C   0  0  1  0  0  3  0  0  0  0  0  0
  188.8670  177.0820  143.2860 C   0  0  0  0  0  0  0  0  0  0  0  0
  187.4000  177.7770  138.7400 N   0  0  0  0  0  2  0  0  0  0  0  0
  185.5370  178.1400  141.7370 C   0  0  1  0  0  3  0  0  0  0  0  0
  186.1000  177.3780  143.9220 O   0  0  0  0  0  0  0  0  0  0  0  0
  182.8390  178.6840  144.1260 O   0  0  0  0  0  0  0  0  0  0  0  0
  183.0340  179.6100  140.1150 C   0  0  1  0  0  3  0  0  0  0  0  0
  183.9620  178.5140  143.6760 C   0  0  0  0  0  0  0  0  0  0  0  0
  184.0130  179.3050  138.9650 C   0  0  2  0  0  3  0  0  0  0  0  0
  186.1060  178.0880  138.1530 C   0  0  1  0  0  3  0  0  0  0  0  0
  185.0750  178.0880  144.5960 C   0  0  2  0  0  3  0  0  0  0  0  0
  184.2790  178.8600  142.2420 C   0  0  2  0  0  3  0  0  0  0  0  0
  190.1120  176.6390  142.8390 C   0  0  0  0  0  3  0  0  0  0  0  0
  183.1470  178.8200  137.8180 C   0  0  0  0  0  2  0  0  0  0  0  0
  181.6360  179.6250  139.5150 C   0  0  0  0  0  2  0  0  0  0  0  0
  188.5840  176.9880  144.6430 O   0  0  0  0  0  1  0  0  0  0  0  0
  187.4410  178.4900  140.0130 C   0  0  1  0  0  3  0  0  0  0  0  0
  190.4640  176.7600  141.4980 C   0  0  0  0  0  3  0  0  0  0  0  0
  187.9300  177.6250  142.3720 C   0  0  0  0  0  0  0  0  0  0  0  0
  186.0070  178.8050  140.4410 C   0  0  1  0  0  3  0  0  0  0  0  0
  185.6550  176.9200  137.2990 C   0  0  0  0  0  1  0  0  0  0  0  0
  185.1410  178.3070  139.2990 C   0  0  1  0  0  3  0  0  0  0  0  0
  181.8120  179.5000  138.0160 C   0  0  0  0  0  2  0  0  0  0  0  0
  182.4120  177.6820  141.3710 O   0  0  0  0  0  0  0  0  0  0  0  0
  189.5730  177.3360  140.5970 C   0  0  0  0  0  3  0  0  0  0  0  0
  188.3080  177.7710  141.0170 C   0  0  0  0  0  0  0  0  0  0  0  0
  183.1340  178.6660  141.2880 C   0  0  0  0  0  0  0  0  0  0  0  0
  185.6170  179.2670  145.4050 C   0  0  0  0  0  2  0  0  0  0  0  0
  186.8920  178.2550  147.2950 C   0  0  0  0  0  1  0  0  0  0  0  0
  185.6100  178.9610  146.8940 C   0  0  0  0  0  2  0  0  0  0  0  0
  1 19  1  6  0  0  0
  1  5  1  0  0  0  0
  2 16  1  0  0  0  0
  3 17  1  0  0  0  0
  4 12  1  0  0  0  0
  4  1  1  0  0  0  0
  5 11  1  0  0  0  0
  7 27  1  0  0  0  0
  8  6  2  0  0  0  0
  8 11  1  0  0  0  0
  9 22  1  0  0  0  0
  9  7  1  0  0  0  0
 10  3  1  0  0  0  0
 10 22  1  0  0  0  0
 11 28  1  0  0  0  0
 12  8  1  0  0  0  0
 13  2  1  0  0  0  0
 14 23  1  0  0  0  0
 14  9  1  0  0  0  0
 15  7  1  0  0  0  0
 17 20  1  0  0  0  0
 17 26  1  0  0  0  0
 18 13  2  0  0  0  0
 19  2  2  0  0  0  0
 20  4  1  0  0  0  0
 21 10  1  0  0  0  0
 22 20  1  0  0  0  0
 23 15  1  0  0  0  0
 25 26  2  0  0  0  0
 25 18  1  0  0  0  0
 26 19  1  0  0  0  0
 27 24  2  0  0  0  0
 27 12  1  0  0  0  0
 28 30  1  0  0  0  0
 30 29  1  0  0  0  0
M  END
>  <MODEL>
9

>  <REMARK>
 VINA RESULT:      -8.1      2.865      5.744
  Name = 
  2 active torsions:
  status: ('A' for Active; 'I' for Inactive)
    1  A    between atoms: C_11  and  C_28
    2  A    between atoms: C_28  and  C_30
                            x       y       z     vdW  Elec       q    Type
                         _______ _______ _______ _____ _____    ______ ____

>  <TORSDO>
F 2

$$$$
