=
 OpenBabel11122411283D

 37 43  0  0  1  0  0  0  0  0999 V2000
  184.3380  174.9770  137.3390 C   0  0  0  0  0  2  0  0  0  0  0  0
  188.7000  177.5350  136.9630 C   0  0  1  0  0  0  0  0  0  0  0  0
  185.1890  178.0080  139.2910 C   0  0  1  0  0  3  0  0  0  0  0  0
  184.3560  173.6050  136.6520 C   0  0  2  0  0  3  0  0  0  0  0  0
  181.7350  177.3810  137.6280 C   0  0  0  0  0  2  0  0  0  0  0  0
  187.7270  178.2530  139.2140 C   0  0  1  0  0  3  0  0  0  0  0  0
  184.1160  178.0550  138.2210 C   0  0  2  0  0  3  0  0  0  0  0  0
  182.0660  174.1100  135.6870 C   0  0  0  0  0  0  0  0  0  0  0  0
  186.3910  178.2740  138.4660 C   0  0  1  0  0  3  0  0  0  0  0  0
  182.8340  177.3320  138.6840 C   0  0  1  0  0  3  0  0  0  0  0  0
  187.5410  177.9310  140.7050 C   0  0  0  0  0  2  0  0  0  0  0  0
  183.4080  173.4740  135.4510 C   0  0  0  0  0  2  0  0  0  0  0  0
  186.2920  177.3040  137.4090 N   0  0  2  0  0  0  0  0  0  0  0  0
  189.3580  176.3350  136.3140 C   0  0  0  0  0  1  0  0  0  0  0  0
  183.8820  178.9670  141.2530 C   0  0  0  0  0  2  0  0  0  0  0  0
  186.4090  178.7830  141.3430 C   0  0  0  0  0  2  0  0  0  0  0  0
  187.2660  177.6820  136.3940 C   0  0  0  0  0  2  0  0  0  0  0  0
  181.9230  175.6050  135.8210 C   0  0  1  0  0  3  0  0  0  0  0  0
  181.3870  175.9630  137.2120 C   0  0  0  0  0  2  0  0  0  0  0  0
  185.1720  179.0030  140.4370 C   0  0  1  0  0  3  0  0  0  0  0  0
  184.8990  177.4680  136.9810 C   0  0  1  0  0  3  0  0  0  0  0  0
  188.7300  177.3360  138.5010 C   0  0  0  0  0  2  0  0  0  0  0  0
  182.2760  177.8370  140.0380 C   0  0  1  0  0  3  0  0  0  0  0  0
  189.4310  178.6770  136.6370 O   0  0  0  0  0  1  0  0  0  0  0  0
  183.2100  176.3580  135.4240 C   0  0  0  0  0  2  0  0  0  0  0  0
  181.0770  173.3990  135.7640 O   0  0  0  0  0  0  0  0  0  0  0  0
  184.4160  176.1510  136.3540 C   0  0  2  0  0  3  0  0  0  0  0  0
  183.1890  177.7460  141.1200 O   0  0  0  0  0  0  0  0  0  0  0  0
  180.3460  179.1600  140.9570 C   0  0  0  0  0  3  0  0  0  0  0  0
  181.3790  179.0580  140.0200 C   0  0  0  0  0  0  0  0  0  0  0  0
  181.5850  180.0960  139.1000 C   0  0  0  0  0  3  0  0  0  0  0  0
  181.0160  182.5090  137.9570 Cl  0  0  0  0  0  0  0  0  0  0  0  0
  179.7200  181.3150  140.0460 C   0  0  0  0  0  3  0  0  0  0  0  0
  180.7550  181.2200  139.1110 C   0  0  0  0  0  0  0  0  0  0  0  0
  179.5160  180.2850  140.9690 C   0  0  0  0  0  3  0  0  0  0  0  0
  183.8970  171.4480  136.8440 C   0  0  0  0  0  1  0  0  0  0  0  0
  184.0690  172.6130  137.5920 O   0  0  0  0  0  0  0  0  0  0  0  0
  2 14  1  6  0  0  0
  2 22  1  0  0  0  0
  3 20  1  0  0  0  0
  4  1  1  0  0  0  0
  4 37  1  0  0  0  0
  5 10  1  0  0  0  0
  6 11  1  0  0  0  0
  7 10  1  0  0  0  0
  7  3  1  0  0  0  0
  8 26  2  0  0  0  0
  8 18  1  0  0  0  0
  9  6  1  0  0  0  0
  9  3  1  0  0  0  0
 10 23  1  0  0  0  0
 11 16  1  0  0  0  0
 12  8  1  0  0  0  0
 12  4  1  0  0  0  0
 13  9  1  0  0  0  0
 17  2  1  0  0  0  0
 17 13  1  0  0  0  0
 18 19  1  0  0  0  0
 19  5  1  0  0  0  0
 20 15  1  0  0  0  0
 20 16  1  0  0  0  0
 21 13  1  0  0  0  0
 21  7  1  0  0  0  0
 22  6  1  0  0  0  0
 23 28  1  0  0  0  0
 24  2  1  0  0  0  0
 25 18  1  0  0  0  0
 25 27  1  0  0  0  0
 27 21  1  0  0  0  0
 27  1  1  0  0  0  0
 28 15  1  0  0  0  0
 29 35  1  0  0  0  0
 30 23  1  0  0  0  0
 30 29  2  0  0  0  0
 31 34  2  0  0  0  0
 31 30  1  0  0  0  0
 32 34  1  0  0  0  0
 33 35  2  0  0  0  0
 34 33  1  0  0  0  0
 36 37  1  0  0  0  0
M  END
>  <MODEL>
1

>  <REMARK>
 VINA RESULT:      -6.6      0.000      0.000
  Name = 
  2 active torsions:
  status: ('A' for Active; 'I' for Inactive)
    1  A    between atoms: C_4  and  O_37
    2  A    between atoms: C_23  and  C_30
                            x       y       z     vdW  Elec       q    Type
                         _______ _______ _______ _____ _____    ______ ____

>  <TORSDO>
F 2

$$$$
=
 OpenBabel11122411283D

 37 43  0  0  1  0  0  0  0  0999 V2000
  180.8480  180.6620  139.0350 C   0  0  0  0  0  2  0  0  0  0  0  0
  180.0680  178.6570  143.6280 C   0  0  1  0  0  0  0  0  0  0  0  0
  183.3070  178.6080  140.8940 C   0  0  1  0  0  3  0  0  0  0  0  0
  179.8030  181.7070  138.6230 C   0  0  2  0  0  3  0  0  0  0  0  0
  182.5600  178.2180  137.1030 C   0  0  0  0  0  2  0  0  0  0  0  0
  182.6070  178.6490  143.3470 C   0  0  1  0  0  3  0  0  0  0  0  0
  182.6430  178.0710  139.6420 C   0  0  2  0  0  3  0  0  0  0  0  0
  179.7100  180.6370  136.3250 C   0  0  0  0  0  0  0  0  0  0  0  0
  182.3030  178.2160  141.9100 C   0  0  1  0  0  3  0  0  0  0  0  0
  183.2030  178.7550  138.3760 C   0  0  1  0  0  3  0  0  0  0  0  0
  183.9220  179.4400  143.4370 C   0  0  0  0  0  2  0  0  0  0  0  0
  178.9310  181.3050  137.4250 C   0  0  0  0  0  2  0  0  0  0  0  0
  181.0720  178.7450  141.3840 N   0  0  2  0  0  0  0  0  0  0  0  0
  178.9310  179.6280  143.8680 C   0  0  0  0  0  1  0  0  0  0  0  0
  185.7490  178.2370  140.2800 C   0  0  0  0  0  2  0  0  0  0  0  0
  185.0750  178.7340  142.6720 C   0  0  0  0  0  2  0  0  0  0  0  0
  179.9910  178.1580  142.1620 C   0  0  0  0  0  2  0  0  0  0  0  0
  180.3230  179.2730  136.5210 C   0  0  1  0  0  3  0  0  0  0  0  0
  181.8480  179.3560  136.3920 C   0  0  0  0  0  2  0  0  0  0  0  0
  184.6580  178.0730  141.3340 C   0  0  1  0  0  3  0  0  0  0  0  0
  181.1180  178.2830  139.9930 C   0  0  1  0  0  3  0  0  0  0  0  0
  181.4020  179.3750  143.9590 C   0  0  0  0  0  2  0  0  0  0  0  0
  184.7450  178.6850  138.2480 C   0  0  1  0  0  3  0  0  0  0  0  0
  179.9120  177.5660  144.4820 O   0  0  0  0  0  1  0  0  0  0  0  0
  179.8320  178.5850  137.8110 C   0  0  0  0  0  2  0  0  0  0  0  0
  179.8390  181.2110  135.2560 O   0  0  0  0  0  0  0  0  0  0  0  0
  180.2820  179.2380  139.1270 C   0  0  2  0  0  3  0  0  0  0  0  0
  185.4510  179.2470  139.3420 O   0  0  0  0  0  0  0  0  0  0  0  0
  186.5330  177.5400  136.9020 C   0  0  0  0  0  3  0  0  0  0  0  0
  185.3460  177.4370  137.6360 C   0  0  0  0  0  0  0  0  0  0  0  0
  184.7480  176.1810  137.8140 C   0  0  0  0  0  3  0  0  0  0  0  0
  184.5740  173.4770  137.4750 Cl  0  0  0  0  0  0  0  0  0  0  0  0
  186.5120  175.1490  136.5150 C   0  0  0  0  0  3  0  0  0  0  0  0
  185.3290  175.0400  137.2520 C   0  0  0  0  0  0  0  0  0  0  0  0
  187.1140  176.3980  136.3410 C   0  0  0  0  0  3  0  0  0  0  0  0
  179.4070  183.8110  138.0600 C   0  0  0  0  0  1  0  0  0  0  0  0
  180.4400  182.9210  138.3600 O   0  0  0  0  0  0  0  0  0  0  0  0
  1 27  1  0  0  0  0
  2 14  1  1  0  0  0
  2 22  1  0  0  0  0
  2 24  1  0  0  0  0
  3 20  1  0  0  0  0
  3  9  1  0  0  0  0
  4  1  1  0  0  0  0
  5 10  1  0  0  0  0
  6 11  1  0  0  0  0
  6 22  1  0  0  0  0
  7 21  1  0  0  0  0
  7  3  1  0  0  0  0
  8 18  1  0  0  0  0
  8 12  1  0  0  0  0
  9  6  1  0  0  0  0
 10  7  1  0  0  0  0
 12  4  1  0  0  0  0
 13  9  1  0  0  0  0
 13 17  1  0  0  0  0
 15 20  1  0  0  0  0
 16 11  1  0  0  0  0
 17  2  1  0  0  0  0
 18 25  1  0  0  0  0
 19 18  1  0  0  0  0
 19  5  1  0  0  0  0
 20 16  1  0  0  0  0
 21 13  1  0  0  0  0
 23 10  1  0  0  0  0
 23 28  1  0  0  0  0
 25 27  1  0  0  0  0
 26  8  2  0  0  0  0
 27 21  1  0  0  0  0
 28 15  1  0  0  0  0
 29 30  1  0  0  0  0
 30 31  2  0  0  0  0
 30 23  1  0  0  0  0
 33 34  2  0  0  0  0
 34 32  1  0  0  0  0
 34 31  1  0  0  0  0
 35 33  1  0  0  0  0
 35 29  2  0  0  0  0
 36 37  1  0  0  0  0
 37  4  1  0  0  0  0
M  END
>  <MODEL>
2

>  <REMARK>
 VINA RESULT:      -6.5      3.297      7.360
  Name = 
  2 active torsions:
  status: ('A' for Active; 'I' for Inactive)
    1  A    between atoms: C_4  and  O_37
    2  A    between atoms: C_23  and  C_30
                            x       y       z     vdW  Elec       q    Type
                         _______ _______ _______ _____ _____    ______ ____

>  <TORSDO>
F 2

$$$$
=
 OpenBabel11122411283D

 37 43  0  0  1  0  0  0  0  0999 V2000
  185.2380  175.3600  137.8040 C   0  0  0  0  0  2  0  0  0  0  0  0
  189.1930  177.8840  139.7290 C   0  0  1  0  0  0  0  0  0  0  0  0
  184.9940  178.1160  140.2660 C   0  0  1  0  0  3  0  0  0  0  0  0
  185.6210  174.0820  137.0450 C   0  0  2  0  0  3  0  0  0  0  0  0
  182.6810  177.7450  137.1690 C   0  0  0  0  0  2  0  0  0  0  0  0
  187.2850  178.3330  141.3680 C   0  0  1  0  0  3  0  0  0  0  0  0
  184.5130  178.3090  138.8420 C   0  0  2  0  0  3  0  0  0  0  0  0
  183.9850  174.7340  135.2190 C   0  0  0  0  0  0  0  0  0  0  0  0
  186.4250  178.4650  140.1070 C   0  0  1  0  0  3  0  0  0  0  0  0
  183.1910  177.5520  138.5920 C   0  0  1  0  0  3  0  0  0  0  0  0
  186.4650  177.8330  142.5670 C   0  0  0  0  0  2  0  0  0  0  0  0
  185.3180  174.1130  135.5400 C   0  0  0  0  0  2  0  0  0  0  0  0
  186.8520  177.6330  139.0140 N   0  0  2  0  0  0  0  0  0  0  0  0
  190.1220  176.7640  139.3090 C   0  0  0  0  0  1  0  0  0  0  0  0
  182.9080  178.8440  141.5280 C   0  0  0  0  0  2  0  0  0  0  0  0
  185.1320  178.6150  142.7230 C   0  0  0  0  0  2  0  0  0  0  0  0
  188.1600  178.1190  138.5970 C   0  0  0  0  0  2  0  0  0  0  0  0
  183.7340  176.2030  135.4470 C   0  0  1  0  0  3  0  0  0  0  0  0
  182.6170  176.3940  136.4790 C   0  0  0  0  0  2  0  0  0  0  0  0
  184.4230  178.9620  141.3900 C   0  0  1  0  0  3  0  0  0  0  0  0
  185.7920  177.8680  138.0280 C   0  0  1  0  0  3  0  0  0  0  0  0
  188.5390  177.4970  141.0810 C   0  0  0  0  0  2  0  0  0  0  0  0
  182.0650  177.8940  139.5990 C   0  0  1  0  0  3  0  0  0  0  0  0
  189.9420  179.0480  139.9000 O   0  0  0  0  0  1  0  0  0  0  0  0
  185.0280  176.9810  135.7610 C   0  0  0  0  0  2  0  0  0  0  0  0
  183.0990  174.0330  134.7600 O   0  0  0  0  0  0  0  0  0  0  0  0
  185.6990  176.6450  137.1020 C   0  0  2  0  0  3  0  0  0  0  0  0
  182.4000  177.6590  140.9570 O   0  0  0  0  0  0  0  0  0  0  0  0
  179.8880  179.1420  139.7500 C   0  0  0  0  0  3  0  0  0  0  0  0
  181.2200  179.1200  139.3220 C   0  0  0  0  0  0  0  0  0  0  0  0
  181.7570  180.2390  138.6700 C   0  0  0  0  0  3  0  0  0  0  0  0
  181.6390  182.7570  137.6200 Cl  0  0  0  0  0  0  0  0  0  0  0  0
  179.6310  181.3810  138.8620 C   0  0  0  0  0  3  0  0  0  0  0  0
  180.9630  181.3660  138.4380 C   0  0  0  0  0  0  0  0  0  0  0  0
  179.0940  180.2700  139.5190 C   0  0  0  0  0  3  0  0  0  0  0  0
  185.0840  171.9650  136.6870 C   0  0  0  0  0  1  0  0  0  0  0  0
  184.9870  172.9860  137.6330 O   0  0  0  0  0  0  0  0  0  0  0  0
  2 14  1  6  0  0  0
  2 24  1  0  0  0  0
  2 22  1  0  0  0  0
  3 20  1  0  0  0  0
  4 37  1  0  0  0  0
  4  1  1  0  0  0  0
  5 10  1  0  0  0  0
  6 11  1  0  0  0  0
  7  3  1  0  0  0  0
  8 18  1  0  0  0  0
  8 12  1  0  0  0  0
  9  3  1  0  0  0  0
  9  6  1  0  0  0  0
 10  7  1  0  0  0  0
 10 23  1  0  0  0  0
 11 16  1  0  0  0  0
 12  4  1  0  0  0  0
 13  9  1  0  0  0  0
 17 13  1  0  0  0  0
 17  2  1  0  0  0  0
 18 25  1  0  0  0  0
 18 19  1  0  0  0  0
 19  5  1  0  0  0  0
 20 15  1  0  0  0  0
 20 16  1  0  0  0  0
 21  7  1  0  0  0  0
 21 13  1  0  0  0  0
 22  6  1  0  0  0  0
 23 28  1  0  0  0  0
 25 27  1  0  0  0  0
 26  8  2  0  0  0  0
 27  1  1  0  0  0  0
 27 21  1  0  0  0  0
 28 15  1  0  0  0  0
 30 23  1  0  0  0  0
 30 29  2  0  0  0  0
 31 30  1  0  0  0  0
 32 34  1  0  0  0  0
 33 35  2  0  0  0  0
 34 31  2  0  0  0  0
 34 33  1  0  0  0  0
 35 29  1  0  0  0  0
 36 37  1  0  0  0  0
M  END
>  <MODEL>
3

>  <REMARK>
 VINA RESULT:      -4.6      1.388      1.707
  Name = 
  2 active torsions:
  status: ('A' for Active; 'I' for Inactive)
    1  A    between atoms: C_4  and  O_37
    2  A    between atoms: C_23  and  C_30
                            x       y       z     vdW  Elec       q    Type
                         _______ _______ _______ _____ _____    ______ ____

>  <TORSDO>
F 2

$$$$
=
 OpenBabel11122411283D

 37 43  0  0  1  0  0  0  0  0999 V2000
  187.9830  176.2690  138.5220 C   0  0  0  0  0  2  0  0  0  0  0  0
  190.1590  178.1630  142.6930 C   0  0  1  0  0  0  0  0  0  0  0  0
  186.1850  178.0580  141.2220 C   0  0  1  0  0  3  0  0  0  0  0  0
  188.8880  175.3240  137.7190 C   0  0  2  0  0  3  0  0  0  0  0  0
  185.5690  178.6390  137.4310 C   0  0  0  0  0  2  0  0  0  0  0  0
  187.6800  177.9840  143.2870 C   0  0  1  0  0  3  0  0  0  0  0  0
  186.3480  178.6890  139.8530 C   0  0  2  0  0  3  0  0  0  0  0  0
  188.1250  176.4790  135.5940 C   0  0  0  0  0  0  0  0  0  0  0  0
  187.4490  178.4900  141.8600 C   0  0  1  0  0  3  0  0  0  0  0  0
  185.4320  178.0090  138.8120 C   0  0  1  0  0  3  0  0  0  0  0  0
  186.5260  177.0900  143.7680 C   0  0  0  0  0  2  0  0  0  0  0  0
  189.2730  175.8350  136.3230 C   0  0  0  0  0  2  0  0  0  0  0  0
  188.4560  178.0770  140.9190 N   0  0  2  0  0  0  0  0  0  0  0  0
  191.3670  177.2760  142.4770 C   0  0  0  0  0  1  0  0  0  0  0  0
  183.6620  178.2580  141.4900 C   0  0  0  0  0  2  0  0  0  0  0  0
  185.1400  177.7310  143.4810 C   0  0  0  0  0  2  0  0  0  0  0  0
  189.7000  178.7190  141.3200 C   0  0  0  0  0  2  0  0  0  0  0  0
  187.5330  177.7830  136.0660 C   0  0  1  0  0  3  0  0  0  0  0  0
  186.0640  177.5860  136.4550 C   0  0  0  0  0  2  0  0  0  0  0  0
  185.0350  178.4690  142.1230 C   0  0  1  0  0  3  0  0  0  0  0  0
  187.9110  178.5840  139.6550 C   0  0  1  0  0  3  0  0  0  0  0  0
  189.0640  177.3330  143.4120 C   0  0  0  0  0  2  0  0  0  0  0  0
  183.9380  177.9630  139.2170 C   0  0  1  0  0  3  0  0  0  0  0  0
  190.5290  179.2330  143.5080 O   0  0  0  0  0  1  0  0  0  0  0  0
  188.3920  178.4610  137.1530 C   0  0  0  0  0  2  0  0  0  0  0  0
  187.6750  175.9350  134.5990 O   0  0  0  0  0  0  0  0  0  0  0  0
  188.4580  177.7280  138.5030 C   0  0  2  0  0  3  0  0  0  0  0  0
  183.6830  177.3080  140.4490 O   0  0  0  0  0  0  0  0  0  0  0  0
  183.6650  180.4530  139.0070 C   0  0  0  0  0  3  0  0  0  0  0  0
  183.0890  179.1810  138.9190 C   0  0  0  0  0  0  0  0  0  0  0  0
  181.7470  179.0530  138.5320 C   0  0  0  0  0  3  0  0  0  0  0  0
  179.3110  180.0230  137.7680 Cl  0  0  0  0  0  0  0  0  0  0  0  0
  181.5640  181.4590  138.3420 C   0  0  0  0  0  3  0  0  0  0  0  0
  180.9860  180.1900  138.2470 C   0  0  0  0  0  0  0  0  0  0  0  0
  182.9040  181.5910  138.7210 C   0  0  0  0  0  3  0  0  0  0  0  0
  189.1800  173.2890  136.9000 C   0  0  0  0  0  1  0  0  0  0  0  0
  188.2740  174.0740  137.6140 O   0  0  0  0  0  0  0  0  0  0  0  0
  2 14  1  6  0  0  0
  2 22  1  0  0  0  0
  2 24  1  0  0  0  0
  3  9  1  0  0  0  0
  3 20  1  0  0  0  0
  4  1  1  0  0  0  0
  5 10  1  0  0  0  0
  6 22  1  0  0  0  0
  6 11  1  0  0  0  0
  7  3  1  0  0  0  0
  8 18  1  0  0  0  0
  8 12  1  0  0  0  0
  9  6  1  0  0  0  0
 10 23  1  0  0  0  0
 10  7  1  0  0  0  0
 12  4  1  0  0  0  0
 13 17  1  0  0  0  0
 13  9  1  0  0  0  0
 15 20  1  0  0  0  0
 16 11  1  0  0  0  0
 17  2  1  0  0  0  0
 18 19  1  0  0  0  0
 18 25  1  0  0  0  0
 19  5  1  0  0  0  0
 20 16  1  0  0  0  0
 21  7  1  0  0  0  0
 21 13  1  0  0  0  0
 23 28  1  0  0  0  0
 25 27  1  0  0  0  0
 26  8  2  0  0  0  0
 27  1  1  0  0  0  0
 27 21  1  0  0  0  0
 28 15  1  0  0  0  0
 30 29  1  0  0  0  0
 30 23  1  0  0  0  0
 31 30  2  0  0  0  0
 32 34  1  0  0  0  0
 33 35  1  0  0  0  0
 34 33  2  0  0  0  0
 34 31  1  0  0  0  0
 35 29  2  0  0  0  0
 36 37  1  0  0  0  0
 37  4  1  0  0  0  0
M  END
>  <MODEL>
4

>  <REMARK>
 VINA RESULT:      -4.4      2.917      4.390
  Name = 
  2 active torsions:
  status: ('A' for Active; 'I' for Inactive)
    1  A    between atoms: C_4  and  O_37
    2  A    between atoms: C_23  and  C_30
                            x       y       z     vdW  Elec       q    Type
                         _______ _______ _______ _____ _____    ______ ____

>  <TORSDO>
F 2

$$$$
=
 OpenBabel11122411283D

 37 43  0  0  1  0  0  0  0  0999 V2000
  182.4840  180.0940  138.8520 C   0  0  0  0  0  2  0  0  0  0  0  0
  183.7070  178.9290  143.6340 C   0  0  1  0  0  0  0  0  0  0  0  0
  185.5590  178.2990  139.8730 C   0  0  1  0  0  3  0  0  0  0  0  0
  181.3230  181.0900  138.7290 C   0  0  2  0  0  3  0  0  0  0  0  0
  183.3530  177.2970  136.8380 C   0  0  0  0  0  2  0  0  0  0  0  0
  185.9130  178.7820  142.3530 C   0  0  1  0  0  3  0  0  0  0  0  0
  184.4640  177.5810  139.1090 C   0  0  2  0  0  3  0  0  0  0  0  0
  180.3460  179.6500  136.8840 C   0  0  0  0  0  0  0  0  0  0  0  0
  185.0680  178.1220  141.2600 C   0  0  1  0  0  3  0  0  0  0  0  0
  184.4380  178.0190  137.6290 C   0  0  1  0  0  3  0  0  0  0  0  0
  187.1210  179.5280  141.7670 C   0  0  0  0  0  2  0  0  0  0  0  0
  180.0560  180.5220  138.0740 C   0  0  0  0  0  2  0  0  0  0  0  0
  183.7110  178.5980  141.1960 N   0  0  2  0  0  0  0  0  0  0  0  0
  182.7300  179.9670  144.1460 C   0  0  0  0  0  1  0  0  0  0  0  0
  187.5530  177.7410  138.3940 C   0  0  0  0  0  2  0  0  0  0  0  0
  187.8900  178.6610  140.7320 C   0  0  0  0  0  2  0  0  0  0  0  0
  183.0610  178.1910  142.4340 C   0  0  0  0  0  2  0  0  0  0  0  0
  181.0360  178.3180  137.0430 C   0  0  1  0  0  3  0  0  0  0  0  0
  182.3730  178.3220  136.2950 C   0  0  0  0  0  2  0  0  0  0  0  0
  186.9910  177.7980  139.8120 C   0  0  1  0  0  3  0  0  0  0  0  0
  183.2060  177.9040  140.0070 C   0  0  1  0  0  3  0  0  0  0  0  0
  185.0340  179.6440  143.2690 C   0  0  0  0  0  2  0  0  0  0  0  0
  185.7960  177.8730  136.9010 C   0  0  1  0  0  3  0  0  0  0  0  0
  183.9510  178.0050  144.6490 O   0  0  0  0  0  1  0  0  0  0  0  0
  181.1350  177.8770  138.5180 C   0  0  0  0  0  2  0  0  0  0  0  0
  180.0100  180.0280  135.7740 O   0  0  0  0  0  0  0  0  0  0  0  0
  182.0560  178.7280  139.4060 C   0  0  2  0  0  3  0  0  0  0  0  0
  186.8650  178.5870  137.5010 O   0  0  0  0  0  0  0  0  0  0  0  0
  186.9120  176.4520  135.1520 C   0  0  0  0  0  3  0  0  0  0  0  0
  186.1430  176.5180  136.3190 C   0  0  0  0  0  0  0  0  0  0  0  0
  185.7280  175.3330  136.9430 C   0  0  0  0  0  3  0  0  0  0  0  0
  185.5470  172.6180  137.1790 Cl  0  0  0  0  0  0  0  0  0  0  0  0
  186.8360  174.0320  135.2280 C   0  0  0  0  0  3  0  0  0  0  0  0
  186.0720  174.0930  136.3970 C   0  0  0  0  0  0  0  0  0  0  0  0
  187.2570  175.2120  134.6060 C   0  0  0  0  0  3  0  0  0  0  0  0
  180.6200  183.0220  137.9090 C   0  0  0  0  0  1  0  0  0  0  0  0
  181.7540  182.2180  138.0270 O   0  0  0  0  0  0  0  0  0  0  0  0
  1 27  1  0  0  0  0
  2 14  1  1  0  0  0
  2 24  1  0  0  0  0
  3  9  1  0  0  0  0
  4  1  1  0  0  0  0
  5 10  1  0  0  0  0
  6 22  1  0  0  0  0
  7  3  1  0  0  0  0
  7 21  1  0  0  0  0
  8 18  1  0  0  0  0
  8 12  1  0  0  0  0
  9  6  1  0  0  0  0
 10  7  1  0  0  0  0
 11  6  1  0  0  0  0
 12  4  1  0  0  0  0
 13  9  1  0  0  0  0
 13 17  1  0  0  0  0
 15 20  1  0  0  0  0
 16 11  1  0  0  0  0
 17  2  1  0  0  0  0
 18 25  1  0  0  0  0
 19  5  1  0  0  0  0
 19 18  1  0  0  0  0
 20  3  1  0  0  0  0
 20 16  1  0  0  0  0
 21 13  1  0  0  0  0
 22  2  1  0  0  0  0
 23 28  1  0  0  0  0
 23 10  1  0  0  0  0
 25 27  1  0  0  0  0
 26  8  2  0  0  0  0
 27 21  1  0  0  0  0
 28 15  1  0  0  0  0
 29 30  1  0  0  0  0
 30 23  1  0  0  0  0
 30 31  2  0  0  0  0
 33 34  2  0  0  0  0
 34 31  1  0  0  0  0
 34 32  1  0  0  0  0
 35 29  2  0  0  0  0
 35 33  1  0  0  0  0
 36 37  1  0  0  0  0
 37  4  1  0  0  0  0
M  END
>  <MODEL>
5

>  <REMARK>
 VINA RESULT:      -4.2      3.103      6.798
  Name = 
  2 active torsions:
  status: ('A' for Active; 'I' for Inactive)
    1  A    between atoms: C_4  and  O_37
    2  A    between atoms: C_23  and  C_30
                            x       y       z     vdW  Elec       q    Type
                         _______ _______ _______ _____ _____    ______ ____

>  <TORSDO>
F 2

$$$$
=
 OpenBabel11122411283D

 37 43  0  0  1  0  0  0  0  0999 V2000
  188.5410  176.6120  140.5340 C   0  0  0  0  0  2  0  0  0  0  0  0
  184.5840  177.3740  137.4540 C   0  0  1  0  0  0  0  0  0  0  0  0
  188.1760  175.1410  137.1540 C   0  0  1  0  0  3  0  0  0  0  0  0
  188.3100  177.0830  141.9760 C   0  0  2  0  0  3  0  0  0  0  0  0
  191.4670  176.6860  138.5180 C   0  0  0  0  0  2  0  0  0  0  0  0
  185.6980  175.2570  136.5570 C   0  0  1  0  0  3  0  0  0  0  0  0
  189.2210  176.2050  137.4240 C   0  0  2  0  0  3  0  0  0  0  0  0
  190.6290  178.1110  141.9590 C   0  0  0  0  0  0  0  0  0  0  0  0
  187.0080  175.9980  136.8420 C   0  0  1  0  0  3  0  0  0  0  0  0
  190.3960  175.6360  138.2480 C   0  0  1  0  0  3  0  0  0  0  0  0
  185.8670  173.7340  136.6750 C   0  0  0  0  0  2  0  0  0  0  0  0
  189.2040  178.2490  142.4220 C   0  0  0  0  0  2  0  0  0  0  0  0
  186.9430  176.8960  137.9640 N   0  0  2  0  0  0  0  0  0  0  0  0
  183.7480  177.8360  138.6290 C   0  0  0  0  0  1  0  0  0  0  0  0
  189.6470  173.3450  136.1130 C   0  0  0  0  0  2  0  0  0  0  0  0
  187.1230  173.2300  135.9120 C   0  0  0  0  0  2  0  0  0  0  0  0
  186.0130  177.9570  137.6050 C   0  0  0  0  0  2  0  0  0  0  0  0
  190.9880  178.2040  140.4980 C   0  0  1  0  0  3  0  0  0  0  0  0
  191.5990  176.8830  140.0180 C   0  0  0  0  0  2  0  0  0  0  0  0
  188.3600  174.1580  136.0120 C   0  0  1  0  0  3  0  0  0  0  0  0
  188.3370  177.3430  138.0700 C   0  0  1  0  0  3  0  0  0  0  0  0
  184.5590  175.8240  137.4140 C   0  0  0  0  0  2  0  0  0  0  0  0
  191.0490  174.3740  137.6330 C   0  0  1  0  0  3  0  0  0  0  0  0
  184.0200  177.8700  136.2800 O   0  0  0  0  0  1  0  0  0  0  0  0
  189.8150  178.7120  139.6340 C   0  0  0  0  0  2  0  0  0  0  0  0
  191.5060  177.9270  142.7870 O   0  0  0  0  0  0  0  0  0  0  0  0
  188.6110  177.7630  139.5220 C   0  0  2  0  0  3  0  0  0  0  0  0
  190.1550  173.2920  137.4270 O   0  0  0  0  0  0  0  0  0  0  0  0
  191.9070  175.5340  135.5740 C   0  0  0  0  0  3  0  0  0  0  0  0
  192.1110  174.5750  136.5720 C   0  0  0  0  0  0  0  0  0  0  0  0
  193.3030  173.8360  136.5900 C   0  0  0  0  0  3  0  0  0  0  0  0
  195.7590  173.1200  135.6350 Cl  0  0  0  0  0  0  0  0  0  0  0  0
  194.0650  175.0050  134.6110 C   0  0  0  0  0  3  0  0  0  0  0  0
  194.2760  174.0490  135.6090 C   0  0  0  0  0  0  0  0  0  0  0  0
  192.8810  175.7470  134.5940 C   0  0  0  0  0  3  0  0  0  0  0  0
  188.0210  176.4700  144.0830 C   0  0  0  0  0  1  0  0  0  0  0  0
  188.4710  176.0040  142.8470 O   0  0  0  0  0  0  0  0  0  0  0  0
  1  4  1  0  0  0  0
  2 17  1  0  0  0  0
  2 14  1  1  0  0  0
  3  7  1  0  0  0  0
  4 12  1  0  0  0  0
  4 37  1  0  0  0  0
  5 19  1  0  0  0  0
  6 11  1  0  0  0  0
  6  9  1  0  0  0  0
  6 22  1  0  0  0  0
  7 21  1  0  0  0  0
  7 10  1  0  0  0  0
  8 12  1  0  0  0  0
  8 26  2  0  0  0  0
  9  3  1  0  0  0  0
  9 13  1  0  0  0  0
 10  5  1  0  0  0  0
 13 21  1  0  0  0  0
 15 28  1  0  0  0  0
 16 20  1  0  0  0  0
 16 11  1  0  0  0  0
 17 13  1  0  0  0  0
 18  8  1  0  0  0  0
 19 18  1  0  0  0  0
 20 15  1  0  0  0  0
 20  3  1  0  0  0  0
 21 27  1  0  0  0  0
 22  2  1  0  0  0  0
 23 10  1  0  0  0  0
 24  2  1  0  0  0  0
 25 18  1  0  0  0  0
 27 25  1  0  0  0  0
 27  1  1  0  0  0  0
 28 23  1  0  0  0  0
 29 30  1  0  0  0  0
 30 31  2  0  0  0  0
 30 23  1  0  0  0  0
 33 34  2  0  0  0  0
 34 32  1  0  0  0  0
 34 31  1  0  0  0  0
 35 33  1  0  0  0  0
 35 29  2  0  0  0  0
 37 36  1  0  0  0  0
M  END
>  <MODEL>
6

>  <REMARK>
 VINA RESULT:      -4.2      4.282      9.487
  Name = 
  2 active torsions:
  status: ('A' for Active; 'I' for Inactive)
    1  A    between atoms: C_4  and  O_37
    2  A    between atoms: C_23  and  C_30
                            x       y       z     vdW  Elec       q    Type
                         _______ _______ _______ _____ _____    ______ ____

>  <TORSDO>
F 2

$$$$
=
 OpenBabel11122411283D

 37 43  0  0  1  0  0  0  0  0999 V2000
  184.2360  177.0930  139.8190 C   0  0  0  0  0  2  0  0  0  0  0  0
  188.2950  178.8670  137.3490 C   0  0  1  0  0  0  0  0  0  0  0  0
  187.5750  177.6190  141.3360 C   0  0  1  0  0  3  0  0  0  0  0  0
  183.0740  176.6890  138.9030 C   0  0  2  0  0  3  0  0  0  0  0  0
  184.2250  178.6050  143.0360 C   0  0  0  0  0  2  0  0  0  0  0  0
  189.2550  177.7170  139.4180 C   0  0  1  0  0  3  0  0  0  0  0  0
  186.4030  178.4990  141.7250 C   0  0  2  0  0  3  0  0  0  0  0  0
  181.4780  177.8540  140.4930 C   0  0  0  0  0  0  0  0  0  0  0  0
  188.0660  178.3520  140.1460 C   0  0  1  0  0  3  0  0  0  0  0  0
  185.4040  177.7340  142.6200 C   0  0  1  0  0  3  0  0  0  0  0  0
  189.6920  176.4020  140.0830 C   0  0  0  0  0  2  0  0  0  0  0  0
  181.8060  177.5420  139.0590 C   0  0  0  0  0  2  0  0  0  0  0  0
  186.8880  178.4970  139.3330 N   0  0  2  0  0  0  0  0  0  0  0  0
  187.6500  178.5190  136.0230 C   0  0  0  0  0  1  0  0  0  0  0  0
  188.3290  176.8600  143.6450 C   0  0  0  0  0  2  0  0  0  0  0  0
  189.8270  176.5480  141.6240 C   0  0  0  0  0  2  0  0  0  0  0  0
  187.2100  179.4570  138.2870 C   0  0  0  0  0  2  0  0  0  0  0  0
  182.3610  178.7580  141.3160 C   0  0  1  0  0  3  0  0  0  0  0  0
  182.9430  177.9870  142.5070 C   0  0  0  0  0  2  0  0  0  0  0  0
  188.7400  177.4290  142.2890 C   0  0  1  0  0  3  0  0  0  0  0  0
  185.9110  178.9920  140.3080 C   0  0  1  0  0  3  0  0  0  0  0  0
  188.9640  177.5880  137.9180 C   0  0  0  0  0  2  0  0  0  0  0  0
  186.0430  177.0890  143.8750 C   0  0  1  0  0  3  0  0  0  0  0  0
  189.2740  179.8360  137.1310 O   0  0  0  0  0  1  0  0  0  0  0  0
  183.4140  179.4930  140.4610 C   0  0  0  0  0  2  0  0  0  0  0  0
  180.4750  177.3720  140.9910 O   0  0  0  0  0  0  0  0  0  0  0  0
  184.5010  178.6050  139.8350 C   0  0  2  0  0  3  0  0  0  0  0  0
  187.0960  176.1800  143.5970 O   0  0  0  0  0  0  0  0  0  0  0  0
  185.4190  179.0980  145.2530 C   0  0  0  0  0  3  0  0  0  0  0  0
  186.2180  177.9590  145.1030 C   0  0  0  0  0  0  0  0  0  0  0  0
  187.1460  177.6270  146.1010 C   0  0  0  0  0  3  0  0  0  0  0  0
  188.4430  178.0180  148.4720 Cl  0  0  0  0  0  0  0  0  0  0  0  0
  186.4830  179.5750  147.3760 C   0  0  0  0  0  3  0  0  0  0  0  0
  187.2800  178.4360  147.2330 C   0  0  0  0  0  0  0  0  0  0  0  0
  185.5520  179.9060  146.3860 C   0  0  0  0  0  3  0  0  0  0  0  0
  183.2730  174.6830  137.9880 C   0  0  0  0  0  1  0  0  0  0  0  0
  182.7670  175.3430  139.1090 O   0  0  0  0  0  0  0  0  0  0  0  0
  1 27  1  0  0  0  0
  2 14  1  6  0  0  0
  2 22  1  0  0  0  0
  2 17  1  0  0  0  0
  3  7  1  0  0  0  0
  3 20  1  0  0  0  0
  4 12  1  0  0  0  0
  4 37  1  0  0  0  0
  4  1  1  0  0  0  0
  6 11  1  0  0  0  0
  6  9  1  0  0  0  0
  7 10  1  0  0  0  0
  8 26  2  0  0  0  0
  8 18  1  0  0  0  0
  9  3  1  0  0  0  0
 10  5  1  0  0  0  0
 10 23  1  0  0  0  0
 11 16  1  0  0  0  0
 12  8  1  0  0  0  0
 13  9  1  0  0  0  0
 13 21  1  0  0  0  0
 16 20  1  0  0  0  0
 17 13  1  0  0  0  0
 18 19  1  0  0  0  0
 19  5  1  0  0  0  0
 20 15  1  0  0  0  0
 21  7  1  0  0  0  0
 22  6  1  0  0  0  0
 23 30  1  0  0  0  0
 24  2  1  0  0  0  0
 25 18  1  0  0  0  0
 27 21  1  0  0  0  0
 27 25  1  0  0  0  0
 28 15  1  0  0  0  0
 28 23  1  0  0  0  0
 29 35  1  0  0  0  0
 30 29  2  0  0  0  0
 30 31  1  0  0  0  0
 31 34  2  0  0  0  0
 34 33  1  0  0  0  0
 34 32  1  0  0  0  0
 35 33  2  0  0  0  0
 36 37  1  0  0  0  0
M  END
>  <MODEL>
7

>  <REMARK>
 VINA RESULT:      -4.0      3.513      5.702
  Name = 
  2 active torsions:
  status: ('A' for Active; 'I' for Inactive)
    1  A    between atoms: C_4  and  O_37
    2  A    between atoms: C_23  and  C_30
                            x       y       z     vdW  Elec       q    Type
                         _______ _______ _______ _____ _____    ______ ____

>  <TORSDO>
F 2

$$$$
