=
 OpenBabel11122410293D

 30 35  0  0  1  0  0  0  0  0999 V2000
  189.0420  177.4020  143.5990 C   0  0  0  0  0  0  0  0  0  0  0  0
  191.0120  176.3740  144.7910 C   0  0  0  0  0  0  0  0  0  0  0  0
  187.0420  178.1920  147.2720 C   0  0  0  0  0  2  0  0  0  0  0  0
  187.7580  178.0120  143.6810 C   0  0  0  0  0  0  0  0  0  0  0  0
  189.6000  177.2190  142.3710 N   0  0  0  0  0  0  0  0  0  0  0  0
  187.1030  178.5580  140.0710 O   0  0  0  0  0  1  0  0  0  0  0  0
  184.6800  178.1780  143.2320 C   0  0  1  0  0  3  0  0  0  0  0  0
  187.7280  178.1840  141.2580 C   0  0  0  0  0  0  0  0  0  0  0  0
  184.7620  178.1300  144.7120 N   0  0  2  0  0  0  0  0  0  0  0  0
  185.8240  178.8410  146.7700 N   0  0  0  0  0  0  0  0  0  0  0  0
  188.9890  177.5900  141.2170 C   0  0  0  0  0  0  0  0  0  0  0  0
  187.0970  178.3960  142.4910 C   0  0  0  0  0  0  0  0  0  0  0  0
  191.6120  176.0170  146.0020 C   0  0  0  0  0  3  0  0  0  0  0  0
  183.5190  178.7290  145.1900 C   0  0  0  0  0  2  0  0  0  0  0  0
  183.2840  178.6160  142.8350 C   0  0  0  0  0  2  0  0  0  0  0  0
  191.9520  175.9970  143.3510 Cl  0  0  0  0  0  0  0  0  0  0  0  0
  187.8380  177.8300  146.0810 C   0  0  0  0  0  0  0  0  0  0  0  0
  190.9780  176.2560  147.2180 C   0  0  0  0  0  3  0  0  0  0  0  0
  189.7280  176.9950  144.7880 C   0  0  0  0  0  0  0  0  0  0  0  0
  187.1880  178.2020  144.9480 C   0  0  0  0  0  0  0  0  0  0  0  0
  185.8670  180.2230  147.2180 C   0  0  0  0  0  1  0  0  0  0  0  0
  185.9000  178.8610  145.2960 C   0  0  1  0  0  3  0  0  0  0  0  0
  182.4860  178.5600  144.1050 C   0  0  0  0  0  2  0  0  0  0  0  0
  185.7690  180.3500  142.9290 O   0  0  0  0  0  1  0  0  0  0  0  0
  189.7260  176.8580  147.2390 C   0  0  0  0  0  3  0  0  0  0  0  0
  189.0960  177.2260  146.0460 C   0  0  0  0  0  0  0  0  0  0  0  0
  185.7310  179.0240  142.4890 C   0  0  2  0  0  3  0  0  0  0  0  0
  189.6150  177.3780  139.9890 O   0  0  0  0  0  0  0  0  0  0  0  0
  191.3120  176.6590  138.6650 C   0  0  0  0  0  1  0  0  0  0  0  0
  190.4800  176.3230  139.8050 N   0  0  0  0  0  2  0  0  0  0  0  0
  1  4  2  0  0  0  0
  1 19  1  0  0  0  0
  2 13  1  0  0  0  0
  4 20  1  0  0  0  0
  5  1  1  0  0  0  0
  6  8  1  0  0  0  0
  7 15  1  1  0  0  0
  7  9  1  0  0  0  0
  8 12  2  0  0  0  0
  9 14  1  1  0  0  0
  9 22  1  0  0  0  0
 10 21  1  0  0  0  0
 10  3  1  0  0  0  0
 11  8  1  0  0  0  0
 11  5  2  0  0  0  0
 12  4  1  0  0  0  0
 13 18  2  0  0  0  0
 15 23  1  0  0  0  0
 16  2  1  0  0  0  0
 17  3  1  0  0  0  0
 18 25  1  0  0  0  0
 19  2  2  0  0  0  0
 19 26  1  0  0  0  0
 20 17  2  0  0  0  0
 22 20  1  1  0  0  0
 22 10  1  0  0  0  0
 23 14  1  0  0  0  0
 26 17  1  0  0  0  0
 26 25  2  0  0  0  0
 27 12  1  0  0  0  0
 27 24  1  1  0  0  0
 27  7  1  0  0  0  0
 28 11  1  0  0  0  0
 29 30  1  0  0  0  0
 30 28  1  0  0  0  0
M  END
>  <MODEL>
1

>  <REMARK>
 VINA RESULT:      -9.3      0.000      0.000
  Name = 
  2 active torsions:
  status: ('A' for Active; 'I' for Inactive)
    1  A    between atoms: C_11  and  O_28
    2  A    between atoms: O_28  and  N_30
                            x       y       z     vdW  Elec       q    Type
                         _______ _______ _______ _____ _____    ______ ____

>  <TORSDO>
F 2

$$$$
=
 OpenBabel11122410293D

 30 35  0  0  1  0  0  0  0  0999 V2000
  187.9200  177.8740  142.5190 C   0  0  0  0  0  0  0  0  0  0  0  0
  189.2160  177.3640  144.6210 C   0  0  0  0  0  0  0  0  0  0  0  0
  184.2880  178.3270  144.6920 C   0  0  0  0  0  2  0  0  0  0  0  0
  186.6700  178.1810  141.9090 C   0  0  0  0  0  0  0  0  0  0  0  0
  189.0250  177.7770  141.7300 N   0  0  0  0  0  0  0  0  0  0  0  0
  187.7570  178.4320  138.3710 O   0  0  0  0  0  1  0  0  0  0  0  0
  184.2210  177.6310  140.0640 C   0  0  1  0  0  3  0  0  0  0  0  0
  187.7850  178.2520  139.7520 C   0  0  0  0  0  0  0  0  0  0  0  0
  183.5840  177.6580  141.4040 N   0  0  2  0  0  0  0  0  0  0  0  0
  183.3710  178.6660  143.5960 N   0  0  0  0  0  0  0  0  0  0  0  0
  188.9920  177.9570  140.3840 C   0  0  0  0  0  0  0  0  0  0  0  0
  186.6110  178.3620  140.5070 C   0  0  0  0  0  0  0  0  0  0  0  0
  189.2090  177.1960  146.0090 C   0  0  0  0  0  3  0  0  0  0  0  0
  182.1800  177.9770  141.1610 C   0  0  0  0  0  2  0  0  0  0  0  0
  183.1390  177.7270  139.0080 C   0  0  0  0  0  2  0  0  0  0  0  0
  190.7850  177.1560  143.8500 Cl  0  0  0  0  0  0  0  0  0  0  0  0
  185.6110  178.1110  144.0710 C   0  0  0  0  0  0  0  0  0  0  0  0
  188.0360  177.3300  146.7440 C   0  0  0  0  0  3  0  0  0  0  0  0
  188.0060  177.6770  143.9340 C   0  0  0  0  0  0  0  0  0  0  0  0
  185.5350  178.2850  142.7260 C   0  0  0  0  0  0  0  0  0  0  0  0
  182.9420  180.0370  143.8130 C   0  0  0  0  0  1  0  0  0  0  0  0
  184.1450  178.6470  142.3400 C   0  0  1  0  0  3  0  0  0  0  0  0
  181.8510  177.5390  139.7570 C   0  0  0  0  0  2  0  0  0  0  0  0
  184.9080  179.9800  139.9990 O   0  0  0  0  0  1  0  0  0  0  0  0
  186.8440  177.6340  146.0960 C   0  0  0  0  0  3  0  0  0  0  0  0
  186.8150  177.8060  144.7090 C   0  0  0  0  0  0  0  0  0  0  0  0
  185.3280  178.6640  139.7830 C   0  0  2  0  0  3  0  0  0  0  0  0
  190.1600  177.8480  139.6310 O   0  0  0  0  0  0  0  0  0  0  0  0
  190.5230  176.0350  138.3150 C   0  0  0  0  0  1  0  0  0  0  0  0
  190.8630  176.6640  139.5770 N   0  0  0  0  0  2  0  0  0  0  0  0
  1 19  1  0  0  0  0
  2 13  1  0  0  0  0
  4  1  2  0  0  0  0
  4 20  1  0  0  0  0
  5  1  1  0  0  0  0
  6  8  1  0  0  0  0
  7 15  1  6  0  0  0
  7  9  1  0  0  0  0
  8 11  1  0  0  0  0
  8 12  2  0  0  0  0
  9 14  1  6  0  0  0
  9 22  1  0  0  0  0
 10 21  1  0  0  0  0
 10  3  1  0  0  0  0
 11  5  2  0  0  0  0
 12  4  1  0  0  0  0
 13 18  2  0  0  0  0
 15 23  1  0  0  0  0
 16  2  1  0  0  0  0
 17  3  1  0  0  0  0
 17 26  1  0  0  0  0
 19  2  2  0  0  0  0
 19 26  1  0  0  0  0
 20 17  2  0  0  0  0
 22 20  1  1  0  0  0
 22 10  1  0  0  0  0
 23 14  1  0  0  0  0
 25 18  1  0  0  0  0
 26 25  2  0  0  0  0
 27 24  1  1  0  0  0
 27  7  1  0  0  0  0
 27 12  1  0  0  0  0
 28 11  1  0  0  0  0
 29 30  1  0  0  0  0
 30 28  1  0  0  0  0
M  END
>  <MODEL>
2

>  <REMARK>
 VINA RESULT:      -9.2      1.807      2.832
  Name = 
  2 active torsions:
  status: ('A' for Active; 'I' for Inactive)
    1  A    between atoms: C_11  and  O_28
    2  A    between atoms: O_28  and  N_30
                            x       y       z     vdW  Elec       q    Type
                         _______ _______ _______ _____ _____    ______ ____

>  <TORSDO>
F 2

$$$$
=
 OpenBabel11122410293D

 30 35  0  0  1  0  0  0  0  0999 V2000
  186.0120  178.4050  142.6980 C   0  0  0  0  0  0  0  0  0  0  0  0
  186.8200  178.2150  145.0790 C   0  0  0  0  0  0  0  0  0  0  0  0
  181.9540  178.7240  143.9440 C   0  0  0  0  0  2  0  0  0  0  0  0
  184.9190  178.5370  141.7950 C   0  0  0  0  0  0  0  0  0  0  0  0
  187.2730  178.3360  142.1910 N   0  0  0  0  0  0  0  0  0  0  0  0
  186.7730  178.5530  138.5820 O   0  0  0  0  0  1  0  0  0  0  0  0
  183.0050  177.5920  139.5260 C   0  0  1  0  0  3  0  0  0  0  0  0
  186.4940  178.5070  139.9460 C   0  0  0  0  0  0  0  0  0  0  0  0
  182.0760  177.6860  140.6790 N   0  0  2  0  0  0  0  0  0  0  0  0
  181.2940  178.8710  142.6410 N   0  0  0  0  0  0  0  0  0  0  0  0
  187.5390  178.3850  140.8600 C   0  0  0  0  0  0  0  0  0  0  0  0
  185.1720  178.5790  140.4040 C   0  0  0  0  0  0  0  0  0  0  0  0
  186.5040  178.1790  146.4410 C   0  0  0  0  0  3  0  0  0  0  0  0
  180.7470  177.8500  140.0950 C   0  0  0  0  0  2  0  0  0  0  0  0
  182.1920  177.4890  138.2510 C   0  0  0  0  0  2  0  0  0  0  0  0
  188.5350  178.0810  144.7050 Cl  0  0  0  0  0  0  0  0  0  0  0  0
  183.3970  178.5730  143.6610 C   0  0  0  0  0  0  0  0  0  0  0  0
  185.1860  178.2730  146.8770 C   0  0  0  0  0  3  0  0  0  0  0  0
  185.7820  178.3500  144.1100 C   0  0  0  0  0  0  0  0  0  0  0  0
  183.6220  178.6110  142.3220 C   0  0  0  0  0  0  0  0  0  0  0  0
  180.7330  180.2120  142.6010 C   0  0  0  0  0  1  0  0  0  0  0  0
  182.3360  178.8070  141.5990 C   0  0  1  0  0  3  0  0  0  0  0  0
  180.7820  177.2540  138.7110 C   0  0  0  0  0  2  0  0  0  0  0  0
  183.5260  179.9780  139.3510 O   0  0  0  0  0  1  0  0  0  0  0  0
  184.1580  178.4030  145.9500 C   0  0  0  0  0  3  0  0  0  0  0  0
  184.4390  178.4410  144.5810 C   0  0  0  0  0  0  0  0  0  0  0  0
  184.0730  178.6920  139.3840 C   0  0  2  0  0  3  0  0  0  0  0  0
  188.8550  178.3140  140.4020 O   0  0  0  0  0  0  0  0  0  0  0  0
  190.5050  177.0180  141.2670 C   0  0  0  0  0  1  0  0  0  0  0  0
  189.4850  177.1000  140.2380 N   0  0  0  0  0  2  0  0  0  0  0  0
  1 19  1  0  0  0  0
  2 13  1  0  0  0  0
  4 20  1  0  0  0  0
  4  1  2  0  0  0  0
  5  1  1  0  0  0  0
  6  8  1  0  0  0  0
  7 15  1  6  0  0  0
  7  9  1  0  0  0  0
  8 12  2  0  0  0  0
  8 11  1  0  0  0  0
  9 14  1  6  0  0  0
  9 22  1  0  0  0  0
 10  3  1  0  0  0  0
 11  5  2  0  0  0  0
 12  4  1  0  0  0  0
 13 18  2  0  0  0  0
 15 23  1  0  0  0  0
 16  2  1  0  0  0  0
 17  3  1  0  0  0  0
 17 26  1  0  0  0  0
 19 26  1  0  0  0  0
 19  2  2  0  0  0  0
 20 17  2  0  0  0  0
 21 10  1  0  0  0  0
 22 20  1  1  0  0  0
 22 10  1  0  0  0  0
 23 14  1  0  0  0  0
 25 18  1  0  0  0  0
 26 25  2  0  0  0  0
 27 24  1  1  0  0  0
 27  7  1  0  0  0  0
 27 12  1  0  0  0  0
 28 11  1  0  0  0  0
 30 28  1  0  0  0  0
 30 29  1  0  0  0  0
M  END
>  <MODEL>
3

>  <REMARK>
 VINA RESULT:      -9.1      2.642      4.474
  Name = 
  2 active torsions:
  status: ('A' for Active; 'I' for Inactive)
    1  A    between atoms: C_11  and  O_28
    2  A    between atoms: O_28  and  N_30
                            x       y       z     vdW  Elec       q    Type
                         _______ _______ _______ _____ _____    ______ ____

>  <TORSDO>
F 2

$$$$
=
 OpenBabel11122410293D

 30 35  0  0  1  0  0  0  0  0999 V2000
  187.3300  178.1060  141.8430 C   0  0  0  0  0  0  0  0  0  0  0  0
  186.6950  178.1930  144.2820 C   0  0  0  0  0  0  0  0  0  0  0  0
  183.3320  178.9060  140.6200 C   0  0  0  0  0  2  0  0  0  0  0  0
  186.9260  178.1920  140.4810 C   0  0  0  0  0  0  0  0  0  0  0  0
  188.6420  177.8710  142.1210 N   0  0  0  0  0  0  0  0  0  0  0  0
  190.1970  177.6140  138.8290 O   0  0  0  0  0  1  0  0  0  0  0  0
  186.4220  177.0860  137.6120 C   0  0  1  0  0  3  0  0  0  0  0  0
  189.2260  177.7830  139.8130 C   0  0  0  0  0  0  0  0  0  0  0  0
  185.0430  177.4120  138.0520 N   0  0  2  0  0  0  0  0  0  0  0  0
  183.5050  178.9180  139.1620 N   0  0  0  0  0  0  0  0  0  0  0  0
  189.5860  177.7110  141.1580 C   0  0  0  0  0  0  0  0  0  0  0  0
  187.8910  178.0180  139.4610 C   0  0  0  0  0  0  0  0  0  0  0  0
  185.6950  178.3730  145.2420 C   0  0  0  0  0  3  0  0  0  0  0  0
  184.2760  177.5930  136.8230 C   0  0  0  0  0  2  0  0  0  0  0  0
  186.4170  176.8670  136.1130 C   0  0  0  0  0  2  0  0  0  0  0  0
  188.3030  177.8770  144.9260 Cl  0  0  0  0  0  0  0  0  0  0  0  0
  184.6630  178.6070  141.1910 C   0  0  0  0  0  0  0  0  0  0  0  0
  184.3780  178.6280  144.8720 C   0  0  0  0  0  3  0  0  0  0  0  0
  186.3720  178.2690  142.8940 C   0  0  0  0  0  0  0  0  0  0  0  0
  185.5750  178.4390  140.1990 C   0  0  0  0  0  0  0  0  0  0  0  0
  183.2500  180.2780  138.7180 C   0  0  0  0  0  1  0  0  0  0  0  0
  184.9230  178.6280  138.8750 C   0  0  1  0  0  3  0  0  0  0  0  0
  184.9650  176.8070  135.7370 C   0  0  0  0  0  2  0  0  0  0  0  0
  187.2860  179.3770  137.5730 O   0  0  0  0  0  1  0  0  0  0  0  0
  184.0400  178.7040  143.5260 C   0  0  0  0  0  3  0  0  0  0  0  0
  185.0150  178.5270  142.5390 C   0  0  0  0  0  0  0  0  0  0  0  0
  187.5420  178.0700  137.9990 C   0  0  2  0  0  3  0  0  0  0  0  0
  190.9150  177.4760  141.5070 O   0  0  0  0  0  0  0  0  0  0  0  0
  191.6780  176.6490  143.4780 C   0  0  0  0  0  1  0  0  0  0  0  0
  191.4070  177.8640  142.7340 N   0  0  0  0  0  2  0  0  0  0  0  0
  1  5  1  0  0  0  0
  1 19  1  0  0  0  0
  2 16  1  0  0  0  0
  2 13  1  0  0  0  0
  3 17  1  0  0  0  0
  4  1  2  0  0  0  0
  6  8  1  0  0  0  0
  7 15  1  6  0  0  0
  7 27  1  0  0  0  0
  7  9  1  0  0  0  0
  8 11  1  0  0  0  0
  9 14  1  6  0  0  0
  9 22  1  0  0  0  0
 10  3  1  0  0  0  0
 11 28  1  0  0  0  0
 11  5  2  0  0  0  0
 12  8  2  0  0  0  0
 12  4  1  0  0  0  0
 17 26  1  0  0  0  0
 18 13  2  0  0  0  0
 19  2  2  0  0  0  0
 20  4  1  0  0  0  0
 20 17  2  0  0  0  0
 21 10  1  0  0  0  0
 22 10  1  0  0  0  0
 22 20  1  1  0  0  0
 23 15  1  0  0  0  0
 23 14  1  0  0  0  0
 25 18  1  0  0  0  0
 26 19  1  0  0  0  0
 26 25  2  0  0  0  0
 27 24  1  1  0  0  0
 27 12  1  0  0  0  0
 28 30  1  0  0  0  0
 30 29  1  0  0  0  0
M  END
>  <MODEL>
4

>  <REMARK>
 VINA RESULT:      -8.4      3.128      5.680
  Name = 
  2 active torsions:
  status: ('A' for Active; 'I' for Inactive)
    1  A    between atoms: C_11  and  O_28
    2  A    between atoms: O_28  and  N_30
                            x       y       z     vdW  Elec       q    Type
                         _______ _______ _______ _____ _____    ______ ____

>  <TORSDO>
F 2

$$$$
=
 OpenBabel11122410293D

 30 35  0  0  1  0  0  0  0  0999 V2000
  187.4430  177.9940  144.7210 C   0  0  0  0  0  0  0  0  0  0  0  0
  186.8630  178.3930  147.1420 C   0  0  0  0  0  0  0  0  0  0  0  0
  191.3200  176.5560  145.7340 C   0  0  0  0  0  2  0  0  0  0  0  0
  188.4010  177.5660  143.7580 C   0  0  0  0  0  0  0  0  0  0  0  0
  186.2230  178.4120  144.2870 N   0  0  0  0  0  0  0  0  0  0  0  0
  186.4280  178.0760  140.6580 O   0  0  0  0  0  1  0  0  0  0  0  0
  190.3630  177.9480  141.3690 C   0  0  1  0  0  3  0  0  0  0  0  0
  186.7890  178.0380  142.0030 C   0  0  0  0  0  0  0  0  0  0  0  0
  191.2970  177.5960  142.4670 N   0  0  2  0  0  0  0  0  0  0  0  0
  191.8340  176.2340  144.3970 N   0  0  0  0  0  0  0  0  0  0  0  0
  185.8740  178.4430  142.9740 C   0  0  0  0  0  0  0  0  0  0  0  0
  188.0640  177.6000  142.3850 C   0  0  0  0  0  0  0  0  0  0  0  0
  187.2560  178.3360  148.4820 C   0  0  0  0  0  3  0  0  0  0  0  0
  192.4900  177.0710  141.8100 C   0  0  0  0  0  2  0  0  0  0  0  0
  191.0960  177.8250  140.0480 C   0  0  0  0  0  2  0  0  0  0  0  0
  185.2330  179.0000  146.8660 Cl  0  0  0  0  0  0  0  0  0  0  0  0
  189.9610  177.1020  145.5330 C   0  0  0  0  0  0  0  0  0  0  0  0
  188.5200  177.8780  148.8420 C   0  0  0  0  0  3  0  0  0  0  0  0
  187.7630  177.9780  146.1160 C   0  0  0  0  0  0  0  0  0  0  0  0
  189.6550  177.1320  144.2100 C   0  0  0  0  0  0  0  0  0  0  0  0
  191.9970  174.7910  144.3430 C   0  0  0  0  0  1  0  0  0  0  0  0
  190.7910  176.5890  143.4160 C   0  0  1  0  0  3  0  0  0  0  0  0
  192.5400  177.6580  140.4220 C   0  0  0  0  0  2  0  0  0  0  0  0
  189.1900  175.8020  141.2570 O   0  0  0  0  0  1  0  0  0  0  0  0
  189.4140  177.4700  147.8600 C   0  0  0  0  0  3  0  0  0  0  0  0
  189.0530  177.5160  146.5100 C   0  0  0  0  0  0  0  0  0  0  0  0
  189.0250  177.1890  141.3040 C   0  0  2  0  0  3  0  0  0  0  0  0
  184.6060  178.8790  142.5930 O   0  0  0  0  0  0  0  0  0  0  0  0
  182.8270  179.1830  143.9690 C   0  0  0  0  0  1  0  0  0  0  0  0
  183.4700  178.2540  143.0590 N   0  0  0  0  0  2  0  0  0  0  0  0
  1 19  1  0  0  0  0
  2 13  1  0  0  0  0
  4 20  1  0  0  0  0
  4  1  2  0  0  0  0
  5  1  1  0  0  0  0
  6  8  1  0  0  0  0
  7 15  1  6  0  0  0
  7  9  1  0  0  0  0
  8 12  2  0  0  0  0
  8 11  1  0  0  0  0
  9 14  1  6  0  0  0
  9 22  1  0  0  0  0
 10  3  1  0  0  0  0
 11  5  2  0  0  0  0
 12  4  1  0  0  0  0
 13 18  2  0  0  0  0
 15 23  1  0  0  0  0
 16  2  1  0  0  0  0
 17  3  1  0  0  0  0
 17 26  1  0  0  0  0
 19 26  1  0  0  0  0
 19  2  2  0  0  0  0
 20 17  2  0  0  0  0
 21 10  1  0  0  0  0
 22 20  1  1  0  0  0
 22 10  1  0  0  0  0
 23 14  1  0  0  0  0
 25 18  1  0  0  0  0
 26 25  2  0  0  0  0
 27 24  1  1  0  0  0
 27  7  1  0  0  0  0
 27 12  1  0  0  0  0
 28 11  1  0  0  0  0
 28 30  1  0  0  0  0
 30 29  1  0  0  0  0
M  END
>  <MODEL>
5

>  <REMARK>
 VINA RESULT:      -8.1      2.132      5.753
  Name = 
  2 active torsions:
  status: ('A' for Active; 'I' for Inactive)
    1  A    between atoms: C_11  and  O_28
    2  A    between atoms: O_28  and  N_30
                            x       y       z     vdW  Elec       q    Type
                         _______ _______ _______ _____ _____    ______ ____

>  <TORSDO>
F 2

$$$$
=
 OpenBabel11122410293D

 30 35  0  0  1  0  0  0  0  0999 V2000
  185.9600  178.3320  142.0270 C   0  0  0  0  0  0  0  0  0  0  0  0
  183.5300  178.8700  142.4300 C   0  0  0  0  0  0  0  0  0  0  0  0
  186.7430  178.0520  146.2020 C   0  0  0  0  0  2  0  0  0  0  0  0
  187.2440  178.0430  142.5700 C   0  0  0  0  0  0  0  0  0  0  0  0
  185.8170  178.3730  140.6740 N   0  0  0  0  0  0  0  0  0  0  0  0
  189.1700  177.6510  139.4230 O   0  0  0  0  0  1  0  0  0  0  0  0
  190.2520  178.6070  143.1550 C   0  0  1  0  0  3  0  0  0  0  0  0
  188.1180  177.8720  140.3100 C   0  0  0  0  0  0  0  0  0  0  0  0
  189.6720  178.6400  144.5200 N   0  0  2  0  0  0  0  0  0  0  0  0
  188.1690  177.7070  146.1760 N   0  0  0  0  0  0  0  0  0  0  0  0
  186.8450  178.1520  139.8140 C   0  0  0  0  0  0  0  0  0  0  0  0
  188.3320  177.8210  141.6930 C   0  0  0  0  0  0  0  0  0  0  0  0
  182.4970  179.0800  143.3480 C   0  0  0  0  0  3  0  0  0  0  0  0
  190.7840  178.3540  145.4220 C   0  0  0  0  0  2  0  0  0  0  0  0
  191.7600  178.5090  143.2680 C   0  0  0  0  0  2  0  0  0  0  0  0
  183.0660  179.0080  140.7370 Cl  0  0  0  0  0  0  0  0  0  0  0  0
  186.3300  178.2100  144.7910 C   0  0  0  0  0  0  0  0  0  0  0  0
  182.7250  179.0030  144.7180 C   0  0  0  0  0  3  0  0  0  0  0  0
  184.8450  178.5700  142.8930 C   0  0  0  0  0  0  0  0  0  0  0  0
  187.3860  177.9980  143.9640 C   0  0  0  0  0  0  0  0  0  0  0  0
  188.2870  176.3560  146.6980 C   0  0  0  0  0  1  0  0  0  0  0  0
  188.5960  177.6640  144.7630 C   0  0  1  0  0  3  0  0  0  0  0  0
  192.0550  178.7580  144.7190 C   0  0  0  0  0  2  0  0  0  0  0  0
  189.8350  176.2380  142.6980 O   0  0  0  0  0  1  0  0  0  0  0  0
  183.9990  178.7140  145.1930 C   0  0  0  0  0  3  0  0  0  0  0  0
  185.0550  178.5000  144.3020 C   0  0  0  0  0  0  0  0  0  0  0  0
  189.7230  177.5340  142.1850 C   0  0  2  0  0  3  0  0  0  0  0  0
  186.6340  178.2040  138.4370 O   0  0  0  0  0  0  0  0  0  0  0  0
  185.0120  177.1130  137.2850 C   0  0  0  0  0  1  0  0  0  0  0  0
  185.3690  178.3680  137.9180 N   0  0  0  0  0  2  0  0  0  0  0  0
  1  4  2  0  0  0  0
  1 19  1  0  0  0  0
  2 19  2  0  0  0  0
  2 13  1  0  0  0  0
  4 20  1  0  0  0  0
  5  1  1  0  0  0  0
  6  8  1  0  0  0  0
  7 15  1  1  0  0  0
  7  9  1  0  0  0  0
  8 12  2  0  0  0  0
  9 22  1  0  0  0  0
  9 14  1  1  0  0  0
 10  3  1  0  0  0  0
 10 21  1  0  0  0  0
 11  8  1  0  0  0  0
 11  5  2  0  0  0  0
 12 27  1  0  0  0  0
 12  4  1  0  0  0  0
 13 18  2  0  0  0  0
 15 23  1  0  0  0  0
 16  2  1  0  0  0  0
 17  3  1  0  0  0  0
 18 25  1  0  0  0  0
 19 26  1  0  0  0  0
 20 17  2  0  0  0  0
 22 20  1  6  0  0  0
 22 10  1  0  0  0  0
 23 14  1  0  0  0  0
 26 17  1  0  0  0  0
 26 25  2  0  0  0  0
 27 24  1  1  0  0  0
 27  7  1  0  0  0  0
 28 11  1  0  0  0  0
 29 30  1  0  0  0  0
 30 28  1  0  0  0  0
M  END
>  <MODEL>
6

>  <REMARK>
 VINA RESULT:      -8.0      2.791      5.597
  Name = 
  2 active torsions:
  status: ('A' for Active; 'I' for Inactive)
    1  A    between atoms: C_11  and  O_28
    2  A    between atoms: O_28  and  N_30
                            x       y       z     vdW  Elec       q    Type
                         _______ _______ _______ _____ _____    ______ ____

>  <TORSDO>
F 2

$$$$
=
 OpenBabel11122410293D

 30 35  0  0  1  0  0  0  0  0999 V2000
  186.8140  178.2020  142.1130 C   0  0  0  0  0  0  0  0  0  0  0  0
  185.3390  178.7260  144.0900 C   0  0  0  0  0  0  0  0  0  0  0  0
  189.8920  176.6770  144.6270 C   0  0  0  0  0  2  0  0  0  0  0  0
  188.0530  177.7000  141.6240 C   0  0  0  0  0  0  0  0  0  0  0  0
  185.8880  178.6420  141.2170 N   0  0  0  0  0  0  0  0  0  0  0  0
  187.5030  178.1410  137.9820 O   0  0  0  0  0  1  0  0  0  0  0  0
  190.8200  177.9090  140.2080 C   0  0  1  0  0  3  0  0  0  0  0  0
  187.2970  178.1490  139.3600 C   0  0  0  0  0  0  0  0  0  0  0  0
  191.2210  177.5740  141.5960 N   0  0  2  0  0  0  0  0  0  0  0  0
  190.8800  176.2800  143.6150 N   0  0  0  0  0  0  0  0  0  0  0  0
  186.0930  178.6270  139.8740 C   0  0  0  0  0  0  0  0  0  0  0  0
  188.2920  177.6850  140.2300 C   0  0  0  0  0  0  0  0  0  0  0  0
  185.1640  178.7140  145.4770 C   0  0  0  0  0  3  0  0  0  0  0  0
  192.5500  176.9800  141.4840 C   0  0  0  0  0  2  0  0  0  0  0  0
  192.0100  177.7040  139.2930 C   0  0  0  0  0  2  0  0  0  0  0  0
  183.9850  179.3750  143.1710 Cl  0  0  0  0  0  0  0  0  0  0  0  0
  188.7540  177.2600  143.8860 C   0  0  0  0  0  0  0  0  0  0  0  0
  186.1560  178.2290  146.3240 C   0  0  0  0  0  3  0  0  0  0  0  0
  186.5510  178.2360  143.5200 C   0  0  0  0  0  0  0  0  0  0  0  0
  189.0010  177.2430  142.5510 C   0  0  0  0  0  0  0  0  0  0  0  0
  190.9790  174.8310  143.6690 C   0  0  0  0  0  1  0  0  0  0  0  0
  190.3310  176.6270  142.2900 C   0  0  1  0  0  3  0  0  0  0  0  0
  193.1760  177.5030  140.2170 C   0  0  0  0  0  2  0  0  0  0  0  0
  189.6840  175.8020  139.6940 O   0  0  0  0  0  1  0  0  0  0  0  0
  187.3460  177.7480  145.7910 C   0  0  0  0  0  3  0  0  0  0  0  0
  187.5550  177.7470  144.4080 C   0  0  0  0  0  0  0  0  0  0  0  0
  189.5820  177.1950  139.6340 C   0  0  2  0  0  3  0  0  0  0  0  0
  185.1040  179.0890  139.0070 O   0  0  0  0  0  0  0  0  0  0  0  0
  182.9430  179.7240  138.7250 C   0  0  0  0  0  1  0  0  0  0  0  0
  184.1820  180.0280  139.4160 N   0  0  0  0  0  2  0  0  0  0  0  0
  1 19  1  0  0  0  0
  2 13  1  0  0  0  0
  4  1  2  0  0  0  0
  4 20  1  0  0  0  0
  5  1  1  0  0  0  0
  6  8  1  0  0  0  0
  7 15  1  6  0  0  0
  7  9  1  0  0  0  0
  8 11  1  0  0  0  0
  8 12  2  0  0  0  0
  9 14  1  6  0  0  0
  9 22  1  0  0  0  0
 10 21  1  0  0  0  0
 10  3  1  0  0  0  0
 11  5  2  0  0  0  0
 12  4  1  0  0  0  0
 13 18  2  0  0  0  0
 15 23  1  0  0  0  0
 16  2  1  0  0  0  0
 17 26  1  0  0  0  0
 17  3  1  0  0  0  0
 19  2  2  0  0  0  0
 19 26  1  0  0  0  0
 20 17  2  0  0  0  0
 22 20  1  1  0  0  0
 22 10  1  0  0  0  0
 23 14  1  0  0  0  0
 25 18  1  0  0  0  0
 26 25  2  0  0  0  0
 27 24  1  1  0  0  0
 27  7  1  0  0  0  0
 27 12  1  0  0  0  0
 28 30  1  0  0  0  0
 28 11  1  0  0  0  0
 29 30  1  0  0  0  0
M  END
>  <MODEL>
7

>  <REMARK>
 VINA RESULT:      -7.5      2.649      6.048
  Name = 
  2 active torsions:
  status: ('A' for Active; 'I' for Inactive)
    1  A    between atoms: C_11  and  O_28
    2  A    between atoms: O_28  and  N_30
                            x       y       z     vdW  Elec       q    Type
                         _______ _______ _______ _____ _____    ______ ____

>  <TORSDO>
F 2

$$$$
=
 OpenBabel11122410293D

 30 35  0  0  1  0  0  0  0  0999 V2000
  185.7410  178.4130  142.7100 C   0  0  0  0  0  0  0  0  0  0  0  0
  185.4240  178.4540  140.2090 C   0  0  0  0  0  0  0  0  0  0  0  0
  189.9580  177.9870  142.3190 C   0  0  0  0  0  2  0  0  0  0  0  0
  186.6270  178.3060  143.8190 C   0  0  0  0  0  0  0  0  0  0  0  0
  184.4100  178.5720  142.9510 N   0  0  0  0  0  0  0  0  0  0  0  0
  184.1810  178.5780  146.5940 O   0  0  0  0  0  1  0  0  0  0  0  0
  187.8250  176.9440  146.3520 C   0  0  1  0  0  3  0  0  0  0  0  0
  184.7240  178.5220  145.3130 C   0  0  0  0  0  0  0  0  0  0  0  0
  188.9750  176.8930  145.4150 N   0  0  2  0  0  0  0  0  0  0  0  0
  190.3490  177.9660  143.7340 N   0  0  0  0  0  0  0  0  0  0  0  0
  183.8870  178.6300  144.2040 C   0  0  0  0  0  0  0  0  0  0  0  0
  186.1030  178.3530  145.1320 C   0  0  0  0  0  0  0  0  0  0  0  0
  186.0040  178.4000  138.9380 C   0  0  0  0  0  3  0  0  0  0  0  0
  190.1600  176.7820  146.2610 C   0  0  0  0  0  2  0  0  0  0  0  0
  188.3240  176.6480  147.7520 C   0  0  0  0  0  2  0  0  0  0  0  0
  183.6730  178.6400  140.2260 Cl  0  0  0  0  0  0  0  0  0  0  0  0
  188.4850  178.1070  142.2990 C   0  0  0  0  0  0  0  0  0  0  0  0
  187.3780  178.2530  138.7800 C   0  0  0  0  0  3  0  0  0  0  0  0
  186.2450  178.3580  141.3720 C   0  0  0  0  0  0  0  0  0  0  0  0
  187.9980  178.1470  143.5660 C   0  0  0  0  0  0  0  0  0  0  0  0
  191.1220  179.1720  143.9760 C   0  0  0  0  0  1  0  0  0  0  0  0
  189.1180  178.0700  144.5420 C   0  0  1  0  0  3  0  0  0  0  0  0
  189.7310  176.1620  147.5660 C   0  0  0  0  0  2  0  0  0  0  0  0
  187.7200  179.3790  146.5840 O   0  0  0  0  0  1  0  0  0  0  0  0
  188.1980  178.1560  139.8980 C   0  0  0  0  0  3  0  0  0  0  0  0
  187.6500  178.2040  141.1840 C   0  0  0  0  0  0  0  0  0  0  0  0
  186.9680  178.2230  146.3550 C   0  0  2  0  0  3  0  0  0  0  0  0
  182.5140  178.7980  144.3850 O   0  0  0  0  0  0  0  0  0  0  0  0
  180.3470  178.6280  143.7350 C   0  0  0  0  0  1  0  0  0  0  0  0
  181.6780  179.0210  143.3140 N   0  0  0  0  0  2  0  0  0  0  0  0
  1  5  1  0  0  0  0
  1  4  1  0  0  0  0
  2 16  1  0  0  0  0
  2 19  1  0  0  0  0
  3 10  1  0  0  0  0
  4 12  1  0  0  0  0
  5 11  2  0  0  0  0
  7 27  1  0  0  0  0
  7 15  1  1  0  0  0
  8  6  1  0  0  0  0
  9 14  1  1  0  0  0
  9  7  1  0  0  0  0
 10 21  1  0  0  0  0
 10 22  1  0  0  0  0
 11 28  1  0  0  0  0
 11  8  1  0  0  0  0
 12  8  2  0  0  0  0
 12 27  1  0  0  0  0
 13  2  2  0  0  0  0
 14 23  1  0  0  0  0
 17  3  1  0  0  0  0
 17 20  1  0  0  0  0
 18 13  1  0  0  0  0
 18 25  2  0  0  0  0
 19  1  2  0  0  0  0
 20  4  2  0  0  0  0
 22 20  1  6  0  0  0
 22  9  1  0  0  0  0
 23 15  1  0  0  0  0
 25 26  1  0  0  0  0
 26 19  1  0  0  0  0
 26 17  2  0  0  0  0
 27 24  1  6  0  0  0
 30 29  1  0  0  0  0
 30 28  1  0  0  0  0
M  END
>  <MODEL>
8

>  <REMARK>
 VINA RESULT:      -7.4      3.040      6.558
  Name = 
  2 active torsions:
  status: ('A' for Active; 'I' for Inactive)
    1  A    between atoms: C_11  and  O_28
    2  A    between atoms: O_28  and  N_30
                            x       y       z     vdW  Elec       q    Type
                         _______ _______ _______ _____ _____    ______ ____

>  <TORSDO>
F 2

$$$$
=
 OpenBabel11122410293D

 30 35  0  0  1  0  0  0  0  0999 V2000
  187.7200  177.8520  139.5590 C   0  0  0  0  0  0  0  0  0  0  0  0
  185.5840  178.6200  138.4600 C   0  0  0  0  0  0  0  0  0  0  0  0
  186.0800  178.3820  143.4520 C   0  0  0  0  0  2  0  0  0  0  0  0
  188.4420  177.5960  140.7600 C   0  0  0  0  0  0  0  0  0  0  0  0
  188.3340  177.6240  138.3670 N   0  0  0  0  0  0  0  0  0  0  0  0
  191.6560  176.4430  139.3110 O   0  0  0  0  0  1  0  0  0  0  0  0
  190.7100  178.0690  142.8420 C   0  0  1  0  0  3  0  0  0  0  0  0
  190.3490  176.9100  139.4200 C   0  0  0  0  0  0  0  0  0  0  0  0
  189.5030  178.4190  143.6320 N   0  0  2  0  0  0  0  0  0  0  0  0
  187.2160  177.9460  144.2730 N   0  0  0  0  0  0  0  0  0  0  0  0
  189.6090  177.1650  138.2660 C   0  0  0  0  0  0  0  0  0  0  0  0
  189.7740  177.1280  140.6790 C   0  0  0  0  0  0  0  0  0  0  0  0
  184.2730  179.0810  138.6070 C   0  0  0  0  0  3  0  0  0  0  0  0
  189.8920  178.2510  145.0300 C   0  0  0  0  0  2  0  0  0  0  0  0
  191.8800  177.8970  143.7900 C   0  0  0  0  0  2  0  0  0  0  0  0
  186.1320  178.4390  136.7960 Cl  0  0  0  0  0  0  0  0  0  0  0  0
  186.5220  178.2750  142.0460 C   0  0  0  0  0  0  0  0  0  0  0  0
  183.7130  179.2710  139.8660 C   0  0  0  0  0  3  0  0  0  0  0  0
  186.3730  178.3360  139.6140 C   0  0  0  0  0  0  0  0  0  0  0  0
  187.8030  177.8280  141.9860 C   0  0  0  0  0  0  0  0  0  0  0  0
  186.8050  176.7250  144.9470 C   0  0  0  0  0  1  0  0  0  0  0  0
  188.3190  177.5860  143.3610 C   0  0  1  0  0  3  0  0  0  0  0  0
  191.3870  178.4180  145.1090 C   0  0  0  0  0  2  0  0  0  0  0  0
  190.2130  175.6890  142.5530 O   0  0  0  0  0  1  0  0  0  0  0  0
  184.4640  179.0030  141.0050 C   0  0  0  0  0  3  0  0  0  0  0  0
  185.7800  178.5420  140.8940 C   0  0  0  0  0  0  0  0  0  0  0  0
  190.6130  176.8570  141.8970 C   0  0  2  0  0  3  0  0  0  0  0  0
  190.1820  176.9480  137.0140 O   0  0  0  0  0  0  0  0  0  0  0  0
  189.3890  177.2720  134.9120 C   0  0  0  0  0  1  0  0  0  0  0  0
  189.4760  176.3250  136.0080 N   0  0  0  0  0  2  0  0  0  0  0  0
  1 19  2  0  0  0  0
  1  4  1  0  0  0  0
  2 13  2  0  0  0  0
  2 19  1  0  0  0  0
  3 10  1  0  0  0  0
  4 20  2  0  0  0  0
  5  1  1  0  0  0  0
  6  8  1  0  0  0  0
  7  9  1  0  0  0  0
  7 15  1  1  0  0  0
  8 12  2  0  0  0  0
  9 14  1  1  0  0  0
 10 21  1  0  0  0  0
 11  5  2  0  0  0  0
 11  8  1  0  0  0  0
 12  4  1  0  0  0  0
 12 27  1  0  0  0  0
 13 18  1  0  0  0  0
 14 23  1  0  0  0  0
 15 23  1  0  0  0  0
 16  2  1  0  0  0  0
 17  3  1  0  0  0  0
 18 25  2  0  0  0  0
 19 26  1  0  0  0  0
 20 17  1  0  0  0  0
 22 20  1  6  0  0  0
 22  9  1  0  0  0  0
 22 10  1  0  0  0  0
 26 25  1  0  0  0  0
 26 17  2  0  0  0  0
 27 24  1  1  0  0  0
 27  7  1  0  0  0  0
 28 11  1  0  0  0  0
 29 30  1  0  0  0  0
 30 28  1  0  0  0  0
M  END
>  <MODEL>
9

>  <REMARK>
 VINA RESULT:      -7.3      3.054      6.048
  Name = 
  2 active torsions:
  status: ('A' for Active; 'I' for Inactive)
    1  A    between atoms: C_11  and  O_28
    2  A    between atoms: O_28  and  N_30
                            x       y       z     vdW  Elec       q    Type
                         _______ _______ _______ _____ _____    ______ ____

>  <TORSDO>
F 2

$$$$
