=
 OpenBabel11122411053D

 31 35  0  0  1  0  0  0  0  0999 V2000
  184.6490  178.6590  144.5470 C   0  0  0  0  0  0  0  0  0  0  0  0
  188.2760  177.7300  143.7480 C   0  0  0  0  0  0  0  0  0  0  0  0
  188.9610  177.6430  144.9140 C   0  0  2  0  0  3  0  0  0  0  0  0
  188.9970  177.4590  147.3530 C   0  0  0  0  0  0  0  0  0  0  0  0
  186.8250  178.0720  143.6240 C   0  0  0  0  0  0  0  0  0  0  0  0
  184.1210  178.7590  143.2590 C   0  0  0  0  0  3  0  0  0  0  0  0
  188.3310  177.7860  146.2430 C   0  0  0  0  0  3  0  0  0  0  0  0
  188.4170  177.5330  141.2990 C   0  0  0  0  0  0  0  0  0  0  0  0
  183.8600  178.8940  145.6230 F   0  0  0  0  0  0  0  0  0  0  0  0
  190.9910  176.8920  143.6820 N   0  0  0  0  0  0  0  0  0  0  0  0
  188.2100  177.6130  148.9090 Cl  0  0  0  0  0  0  0  0  0  0  0  0
  187.0760  177.9340  141.2070 O   0  0  0  0  0  0  0  0  0  0  0  0
  189.0160  177.4250  142.4950 C   0  0  0  0  0  0  0  0  0  0  0  0
  185.9920  178.3210  144.7270 C   0  0  0  0  0  3  0  0  0  0  0  0
  190.3550  176.8840  147.2760 C   0  0  0  0  0  3  0  0  0  0  0  0
  186.2800  178.1760  142.3290 C   0  0  1  0  0  3  0  0  0  0  0  0
  184.9360  178.5180  142.1520 C   0  0  0  0  0  3  0  0  0  0  0  0
  190.3440  176.8970  142.5840 N   0  0  0  0  0  0  0  0  0  0  0  0
  190.4760  177.5290  144.8930 C   0  0  2  0  0  3  0  0  0  0  0  0
  191.0330  176.8720  146.1260 C   0  0  0  0  0  3  0  0  0  0  0  0
  188.5530  179.1040  138.8570 O   0  0  0  0  0  0  0  0  0  0  0  0
  189.1980  178.0240  138.9270 C   0  0  0  0  0  0  0  0  0  0  0  0
  189.1540  177.2190  140.1120 N   0  0  0  0  0  2  0  0  0  0  0  0
  188.6450  175.7470  135.9410 N   0  0  0  0  0  0  0  0  0  0  0  0
  189.3750  178.0400  136.4260 C   0  0  0  0  0  2  0  0  0  0  0  0
  190.7200  175.6190  138.9690 O   0  0  0  0  0  1  0  0  0  0  0  0
  187.4780  174.9650  135.5790 C   0  0  0  0  0  1  0  0  0  0  0  0
  188.2000  177.1360  136.0470 C   0  0  0  0  0  2  0  0  0  0  0  0
  190.2940  176.0720  137.7190 C   0  0  2  0  0  3  0  0  0  0  0  0
  190.0100  177.5840  137.7440 C   0  0  2  0  0  3  0  0  0  0  0  0
  189.0630  175.2890  137.2630 C   0  0  0  0  0  2  0  0  0  0  0  0
  1 14  2  0  0  0  0
  1  9  1  0  0  0  0
  2  3  1  0  0  0  0
  3  7  1  1  0  0  0
  4 11  1  0  0  0  0
  5  2  2  0  0  0  0
  5 14  1  0  0  0  0
  6  1  1  0  0  0  0
  7  4  2  0  0  0  0
  8 13  2  0  0  0  0
 10 19  1  0  0  0  0
 12  8  1  0  0  0  0
 12 16  1  0  0  0  0
 13 18  1  0  0  0  0
 13  2  1  0  0  0  0
 15  4  1  0  0  0  0
 16 17  1  1  0  0  0
 16  5  1  0  0  0  0
 17  6  2  0  0  0  0
 18 10  2  0  0  0  0
 19  3  1  0  0  0  0
 19 20  1  1  0  0  0
 20 15  2  0  0  0  0
 21 22  2  0  0  0  0
 22 23  1  0  0  0  0
 23  8  1  0  0  0  0
 24 28  1  0  0  0  0
 24 31  1  0  0  0  0
 25 30  1  0  0  0  0
 27 24  1  0  0  0  0
 28 25  1  0  0  0  0
 29 30  1  0  0  0  0
 29 26  1  1  0  0  0
 30 22  1  1  0  0  0
 31 29  1  0  0  0  0
M  END
>  <MODEL>
1

>  <REMARK>
 VINA RESULT:     -11.4      0.000      0.000
  Name = 
  2 active torsions:
  status: ('A' for Active; 'I' for Inactive)
    1  A    between atoms: C_5  and  C_30
    2  A    between atoms: C_10  and  N_16
                            x       y       z     vdW  Elec       q    Type
                         _______ _______ _______ _____ _____    ______ ____

>  <TORSDO>
F 2

$$$$
=
 OpenBabel11122411053D

 31 35  0  0  1  0  0  0  0  0999 V2000
  190.3020  176.9470  145.9550 C   0  0  0  0  0  0  0  0  0  0  0  0
  187.9170  177.8210  143.0900 C   0  0  0  0  0  0  0  0  0  0  0  0
  186.6800  178.0130  143.6090 C   0  0  2  0  0  3  0  0  0  0  0  0
  185.2130  178.4110  145.5270 C   0  0  0  0  0  0  0  0  0  0  0  0
  189.1360  177.4620  143.8800 C   0  0  0  0  0  0  0  0  0  0  0  0
  191.4850  176.7320  145.2460 C   0  0  0  0  0  3  0  0  0  0  0  0
  186.3890  177.9840  145.0580 C   0  0  0  0  0  3  0  0  0  0  0  0
  189.2690  177.8040  141.0350 C   0  0  0  0  0  0  0  0  0  0  0  0
  190.2840  176.8030  147.3020 F   0  0  0  0  0  0  0  0  0  0  0  0
  185.8230  178.6650  141.3630 N   0  0  0  0  0  0  0  0  0  0  0  0
  184.9130  178.3890  147.2510 Cl  0  0  0  0  0  0  0  0  0  0  0  0
  190.3770  177.3890  141.7870 O   0  0  0  0  0  0  0  0  0  0  0  0
  188.0840  178.0190  141.6270 C   0  0  0  0  0  0  0  0  0  0  0  0
  189.1360  177.3060  145.2750 C   0  0  0  0  0  3  0  0  0  0  0  0
  184.2010  178.9830  144.6170 C   0  0  0  0  0  3  0  0  0  0  0  0
  190.3360  177.2430  143.1760 C   0  0  1  0  0  3  0  0  0  0  0  0
  191.5010  176.8790  143.8580 C   0  0  0  0  0  3  0  0  0  0  0  0
  186.9940  178.5600  140.8710 N   0  0  0  0  0  0  0  0  0  0  0  0
  185.4820  178.1330  142.6820 C   0  0  2  0  0  3  0  0  0  0  0  0
  184.3410  178.8990  143.2910 C   0  0  0  0  0  3  0  0  0  0  0  0
  190.2360  175.9020  139.0600 O   0  0  0  0  0  0  0  0  0  0  0  0
  189.8790  177.0490  138.6820 C   0  0  0  0  0  0  0  0  0  0  0  0
  189.3990  178.0160  139.6240 N   0  0  0  0  0  2  0  0  0  0  0  0
  187.4270  177.3670  135.8010 N   0  0  0  0  0  0  0  0  0  0  0  0
  189.1900  178.6740  136.9000 C   0  0  0  0  0  2  0  0  0  0  0  0
  190.1300  175.0400  136.6800 O   0  0  0  0  0  1  0  0  0  0  0  0
  185.9910  177.1610  135.7830 C   0  0  0  0  0  1  0  0  0  0  0  0
  187.6900  178.3900  136.8130 C   0  0  0  0  0  2  0  0  0  0  0  0
  189.5470  176.2470  136.2900 C   0  0  2  0  0  3  0  0  0  0  0  0
  189.9700  177.3950  137.2230 C   0  0  2  0  0  3  0  0  0  0  0  0
  188.0260  176.1100  136.2430 C   0  0  0  0  0  2  0  0  0  0  0  0
  1  9  1  0  0  0  0
  2  3  1  0  0  0  0
  2  5  2  0  0  0  0
  3  7  1  1  0  0  0
  4 11  1  0  0  0  0
  5 14  1  0  0  0  0
  6  1  1  0  0  0  0
  7  4  2  0  0  0  0
  8 13  2  0  0  0  0
  8 12  1  0  0  0  0
 10 19  1  0  0  0  0
 12 16  1  0  0  0  0
 13  2  1  0  0  0  0
 14  1  2  0  0  0  0
 15  4  1  0  0  0  0
 16 17  1  1  0  0  0
 16  5  1  0  0  0  0
 17  6  2  0  0  0  0
 18 10  2  0  0  0  0
 18 13  1  0  0  0  0
 19 20  1  1  0  0  0
 19  3  1  0  0  0  0
 20 15  2  0  0  0  0
 22 21  2  0  0  0  0
 22 23  1  0  0  0  0
 23  8  1  0  0  0  0
 24 31  1  0  0  0  0
 24 28  1  0  0  0  0
 25 30  1  0  0  0  0
 27 24  1  0  0  0  0
 28 25  1  0  0  0  0
 29 26  1  1  0  0  0
 29 30  1  0  0  0  0
 30 22  1  1  0  0  0
 31 29  1  0  0  0  0
M  END
>  <MODEL>
2

>  <REMARK>
 VINA RESULT:     -11.2      2.189      4.101
  Name = 
  2 active torsions:
  status: ('A' for Active; 'I' for Inactive)
    1  A    between atoms: C_5  and  C_30
    2  A    between atoms: C_10  and  N_16
                            x       y       z     vdW  Elec       q    Type
                         _______ _______ _______ _____ _____    ______ ____

>  <TORSDO>
F 2

$$$$
=
 OpenBabel11122411053D

 31 35  0  0  1  0  0  0  0  0999 V2000
  184.2080  178.6400  144.9110 C   0  0  0  0  0  0  0  0  0  0  0  0
  187.5910  178.1060  143.2010 C   0  0  0  0  0  0  0  0  0  0  0  0
  188.5260  177.8980  144.1600 C   0  0  2  0  0  3  0  0  0  0  0  0
  189.1210  177.3580  146.4710 C   0  0  0  0  0  0  0  0  0  0  0  0
  186.1380  178.3570  143.4530 C   0  0  0  0  0  0  0  0  0  0  0  0
  183.3970  178.8910  143.8020 C   0  0  0  0  0  3  0  0  0  0  0  0
  188.2090  177.7960  145.6000 C   0  0  0  0  0  3  0  0  0  0  0  0
  187.1800  178.2840  140.7820 C   0  0  0  0  0  0  0  0  0  0  0  0
  183.6750  178.6550  146.1570 F   0  0  0  0  0  0  0  0  0  0  0  0
  190.2500  177.4870  142.4110 N   0  0  0  0  0  0  0  0  0  0  0  0
  188.7020  177.2220  148.1650 Cl  0  0  0  0  0  0  0  0  0  0  0  0
  185.8390  178.5960  141.0500 O   0  0  0  0  0  0  0  0  0  0  0  0
  188.0380  178.0450  141.7850 C   0  0  0  0  0  0  0  0  0  0  0  0
  185.5680  178.3780  144.7370 C   0  0  0  0  0  3  0  0  0  0  0  0
  190.4470  176.9020  146.0080 C   0  0  0  0  0  3  0  0  0  0  0  0
  185.3100  178.6100  142.3420 C   0  0  1  0  0  3  0  0  0  0  0  0
  183.9490  178.8760  142.5200 C   0  0  0  0  0  3  0  0  0  0  0  0
  189.3710  177.6070  141.4960 N   0  0  0  0  0  0  0  0  0  0  0  0
  189.9990  177.8990  143.7910 C   0  0  2  0  0  3  0  0  0  0  0  0
  190.8460  177.1090  144.7510 C   0  0  0  0  0  3  0  0  0  0  0  0
  185.5440  178.1510  138.3810 O   0  0  0  0  0  0  0  0  0  0  0  0
  186.7990  178.1430  138.2690 C   0  0  0  0  0  0  0  0  0  0  0  0
  187.6400  178.2040  139.4280 N   0  0  0  0  0  2  0  0  0  0  0  0
  189.7140  176.2960  136.6880 N   0  0  0  0  0  0  0  0  0  0  0  0
  187.3110  176.6420  136.3270 C   0  0  0  0  0  2  0  0  0  0  0  0
  188.9790  179.8030  137.4950 O   0  0  0  0  0  1  0  0  0  0  0  0
  190.6650  175.3820  137.2930 C   0  0  0  0  0  1  0  0  0  0  0  0
  188.3850  175.7380  136.9350 C   0  0  0  0  0  2  0  0  0  0  0  0
  188.8520  178.5810  136.8310 C   0  0  2  0  0  3  0  0  0  0  0  0
  187.4050  178.0610  136.8980 C   0  0  2  0  0  3  0  0  0  0  0  0
  189.8300  177.5600  137.4110 C   0  0  0  0  0  2  0  0  0  0  0  0
  1  9  1  0  0  0  0
  2  5  2  0  0  0  0
  2  3  1  0  0  0  0
  3  7  1  1  0  0  0
  4 11  1  0  0  0  0
  5 14  1  0  0  0  0
  6  1  1  0  0  0  0
  7  4  2  0  0  0  0
  8 12  1  0  0  0  0
  8 13  2  0  0  0  0
 10 19  1  0  0  0  0
 12 16  1  0  0  0  0
 13  2  1  0  0  0  0
 14  1  2  0  0  0  0
 15  4  1  0  0  0  0
 16 17  1  6  0  0  0
 16  5  1  0  0  0  0
 17  6  2  0  0  0  0
 18 13  1  0  0  0  0
 18 10  2  0  0  0  0
 19  3  1  0  0  0  0
 19 20  1  1  0  0  0
 20 15  2  0  0  0  0
 22 21  2  0  0  0  0
 22 23  1  0  0  0  0
 23  8  1  0  0  0  0
 24 28  1  0  0  0  0
 24 27  1  0  0  0  0
 24 31  1  0  0  0  0
 25 30  1  0  0  0  0
 25 28  1  0  0  0  0
 29 30  1  0  0  0  0
 29 31  1  0  0  0  0
 29 26  1  1  0  0  0
 30 22  1  1  0  0  0
M  END
>  <MODEL>
3

>  <REMARK>
 VINA RESULT:     -11.1      1.337      1.925
  Name = 
  2 active torsions:
  status: ('A' for Active; 'I' for Inactive)
    1  A    between atoms: C_5  and  C_30
    2  A    between atoms: C_10  and  N_16
                            x       y       z     vdW  Elec       q    Type
                         _______ _______ _______ _____ _____    ______ ____

>  <TORSDO>
F 2

$$$$
=
 OpenBabel11122411053D

 31 35  0  0  1  0  0  0  0  0999 V2000
  190.2920  176.7940  146.1940 C   0  0  0  0  0  0  0  0  0  0  0  0
  188.1780  177.7060  143.1350 C   0  0  0  0  0  0  0  0  0  0  0  0
  186.9100  177.9490  143.5490 C   0  0  2  0  0  3  0  0  0  0  0  0
  185.3090  178.4250  145.3370 C   0  0  0  0  0  0  0  0  0  0  0  0
  189.3160  177.3170  144.0250 C   0  0  0  0  0  0  0  0  0  0  0  0
  191.5210  176.5280  145.5850 C   0  0  0  0  0  3  0  0  0  0  0  0
  186.5030  177.9510  144.9700 C   0  0  0  0  0  3  0  0  0  0  0  0
  189.6890  177.6120  141.1960 C   0  0  0  0  0  0  0  0  0  0  0  0
  190.1610  176.6710  147.5370 F   0  0  0  0  0  0  0  0  0  0  0  0
  186.2610  178.5950  141.2340 N   0  0  0  0  0  0  0  0  0  0  0  0
  184.8710  178.4400  147.0320 Cl  0  0  0  0  0  0  0  0  0  0  0  0
  190.7180  177.1710  142.0410 O   0  0  0  0  0  0  0  0  0  0  0  0
  188.4680  177.8760  141.6880 C   0  0  0  0  0  0  0  0  0  0  0  0
  189.1980  177.1830  145.4180 C   0  0  0  0  0  3  0  0  0  0  0  0
  184.3940  179.0180  144.3420 C   0  0  0  0  0  3  0  0  0  0  0  0
  190.5600  177.0470  143.4230 C   0  0  1  0  0  3  0  0  0  0  0  0
  191.6530  176.6540  144.2010 C   0  0  0  0  0  3  0  0  0  0  0  0
  187.4630  178.4430  140.8390 N   0  0  0  0  0  0  0  0  0  0  0  0
  185.7960  178.0950  142.5270 C   0  0  2  0  0  3  0  0  0  0  0  0
  184.6370  178.9080  143.0330 C   0  0  0  0  0  3  0  0  0  0  0  0
  190.4750  175.5790  139.2720 O   0  0  0  0  0  0  0  0  0  0  0  0
  190.3230  176.7670  138.8800 C   0  0  0  0  0  0  0  0  0  0  0  0
  189.9400  177.7980  139.7980 N   0  0  0  0  0  2  0  0  0  0  0  0
  190.2880  174.8300  135.6160 N   0  0  0  0  0  0  0  0  0  0  0  0
  189.3010  176.8540  136.5930 C   0  0  0  0  0  2  0  0  0  0  0  0
  192.8780  176.4320  137.6690 O   0  0  0  0  0  1  0  0  0  0  0  0
  190.0260  173.4230  135.3800 C   0  0  0  0  0  1  0  0  0  0  0  0
  189.1120  175.3630  136.3030 C   0  0  0  0  0  2  0  0  0  0  0  0
  191.7680  176.3570  136.8260 C   0  0  2  0  0  3  0  0  0  0  0  0
  190.5590  177.0910  137.4330 C   0  0  2  0  0  3  0  0  0  0  0  0
  191.4290  174.8980  136.5250 C   0  0  0  0  0  2  0  0  0  0  0  0
  1  9  1  0  0  0  0
  2  3  1  0  0  0  0
  2  5  2  0  0  0  0
  3  7  1  1  0  0  0
  4 11  1  0  0  0  0
  5 14  1  0  0  0  0
  6  1  1  0  0  0  0
  7  4  2  0  0  0  0
  8 13  2  0  0  0  0
  8 12  1  0  0  0  0
 10 19  1  0  0  0  0
 12 16  1  0  0  0  0
 13  2  1  0  0  0  0
 14  1  2  0  0  0  0
 15  4  1  0  0  0  0
 16  5  1  0  0  0  0
 16 17  1  1  0  0  0
 17  6  2  0  0  0  0
 18 10  2  0  0  0  0
 18 13  1  0  0  0  0
 19 20  1  1  0  0  0
 19  3  1  0  0  0  0
 20 15  2  0  0  0  0
 22 21  2  0  0  0  0
 22 23  1  0  0  0  0
 23  8  1  0  0  0  0
 24 28  1  0  0  0  0
 24 31  1  0  0  0  0
 25 30  1  0  0  0  0
 27 24  1  0  0  0  0
 28 25  1  0  0  0  0
 29 30  1  0  0  0  0
 29 26  1  1  0  0  0
 30 22  1  1  0  0  0
 31 29  1  0  0  0  0
M  END
>  <MODEL>
4

>  <REMARK>
 VINA RESULT:     -11.0      2.206      4.167
  Name = 
  2 active torsions:
  status: ('A' for Active; 'I' for Inactive)
    1  A    between atoms: C_5  and  C_30
    2  A    between atoms: C_10  and  N_16
                            x       y       z     vdW  Elec       q    Type
                         _______ _______ _______ _____ _____    ______ ____

>  <TORSDO>
F 2

$$$$
=
 OpenBabel11122411053D

 31 35  0  0  1  0  0  0  0  0999 V2000
  191.3880  176.9230  144.5710 C   0  0  0  0  0  0  0  0  0  0  0  0
  187.8720  177.8950  143.4090 C   0  0  0  0  0  0  0  0  0  0  0  0
  187.0650  177.9560  144.4950 C   0  0  2  0  0  3  0  0  0  0  0  0
  186.7650  178.0770  146.9210 C   0  0  0  0  0  0  0  0  0  0  0  0
  189.3270  177.5470  143.4330 C   0  0  0  0  0  0  0  0  0  0  0  0
  192.0530  176.8540  143.3450 C   0  0  0  0  0  3  0  0  0  0  0  0
  187.5470  177.7750  145.8810 C   0  0  0  0  0  3  0  0  0  0  0  0
  187.9980  178.1570  140.9650 C   0  0  0  0  0  0  0  0  0  0  0  0
  192.0560  176.6560  145.7190 F   0  0  0  0  0  0  0  0  0  0  0  0
  185.1830  178.7520  143.0720 N   0  0  0  0  0  0  0  0  0  0  0  0
  187.3790  177.8780  148.5480 Cl  0  0  0  0  0  0  0  0  0  0  0  0
  189.3400  177.7500  141.0080 O   0  0  0  0  0  0  0  0  0  0  0  0
  187.2740  178.2370  142.0920 C   0  0  0  0  0  0  0  0  0  0  0  0
  190.0350  177.2650  144.6130 C   0  0  0  0  0  3  0  0  0  0  0  0
  185.4260  178.6620  146.7130 C   0  0  0  0  0  3  0  0  0  0  0  0
  190.0080  177.4740  142.2030 C   0  0  1  0  0  3  0  0  0  0  0  0
  191.3620  177.1290  142.1630 C   0  0  0  0  0  3  0  0  0  0  0  0
  185.9450  178.7710  142.0500 N   0  0  0  0  0  0  0  0  0  0  0  0
  185.5620  178.0810  144.3140 C   0  0  2  0  0  3  0  0  0  0  0  0
  184.8770  178.7090  145.4960 C   0  0  0  0  0  3  0  0  0  0  0  0
  188.2770  176.7520  138.4350 O   0  0  0  0  0  0  0  0  0  0  0  0
  187.5560  177.7830  138.4870 C   0  0  0  0  0  0  0  0  0  0  0  0
  187.3950  178.5060  139.7140 N   0  0  0  0  0  2  0  0  0  0  0  0
  186.0740  176.1290  135.4090 N   0  0  0  0  0  0  0  0  0  0  0  0
  185.4320  177.7280  137.1560 C   0  0  0  0  0  2  0  0  0  0  0  0
  188.9940  178.2550  136.0750 O   0  0  0  0  0  1  0  0  0  0  0  0
  186.0080  174.7220  135.0570 C   0  0  0  0  0  1  0  0  0  0  0  0
  185.4100  176.2670  136.7040 C   0  0  0  0  0  2  0  0  0  0  0  0
  187.6430  177.9270  135.9480 C   0  0  2  0  0  3  0  0  0  0  0  0
  186.8680  178.2530  137.2370 C   0  0  2  0  0  3  0  0  0  0  0  0
  187.4890  176.4540  135.5730 C   0  0  0  0  0  2  0  0  0  0  0  0
  1 14  2  0  0  0  0
  1  9  1  0  0  0  0
  2  5  2  0  0  0  0
  2  3  1  0  0  0  0
  3  7  1  6  0  0  0
  4 11  1  0  0  0  0
  5 14  1  0  0  0  0
  6  1  1  0  0  0  0
  7  4  2  0  0  0  0
  8 12  1  0  0  0  0
  8 13  2  0  0  0  0
 10 19  1  0  0  0  0
 12 16  1  0  0  0  0
 13  2  1  0  0  0  0
 15  4  1  0  0  0  0
 16 17  1  1  0  0  0
 16  5  1  0  0  0  0
 17  6  2  0  0  0  0
 18 13  1  0  0  0  0
 18 10  2  0  0  0  0
 19  3  1  0  0  0  0
 19 20  1  1  0  0  0
 20 15  2  0  0  0  0
 21 22  2  0  0  0  0
 22 23  1  0  0  0  0
 23  8  1  0  0  0  0
 24 31  1  0  0  0  0
 24 28  1  0  0  0  0
 25 30  1  0  0  0  0
 27 24  1  0  0  0  0
 28 25  1  0  0  0  0
 29 26  1  1  0  0  0
 29 30  1  0  0  0  0
 30 22  1  1  0  0  0
 31 29  1  0  0  0  0
M  END
>  <MODEL>
5

>  <REMARK>
 VINA RESULT:     -10.6      2.657      4.183
  Name = 
  2 active torsions:
  status: ('A' for Active; 'I' for Inactive)
    1  A    between atoms: C_5  and  C_30
    2  A    between atoms: C_10  and  N_16
                            x       y       z     vdW  Elec       q    Type
                         _______ _______ _______ _____ _____    ______ ____

>  <TORSDO>
F 2

$$$$
=
 OpenBabel11122411053D

 31 35  0  0  1  0  0  0  0  0999 V2000
  190.6870  177.2690  141.6310 C   0  0  0  0  0  0  0  0  0  0  0  0
  187.2300  178.1070  143.0470 C   0  0  0  0  0  0  0  0  0  0  0  0
  187.2490  177.8770  144.3830 C   0  0  2  0  0  3  0  0  0  0  0  0
  188.4840  177.4940  146.4600 C   0  0  0  0  0  0  0  0  0  0  0  0
  188.3870  177.9020  142.1200 C   0  0  0  0  0  0  0  0  0  0  0  0
  190.4710  177.5030  140.2720 C   0  0  0  0  0  3  0  0  0  0  0  0
  188.4630  177.4760  145.1250 C   0  0  0  0  0  3  0  0  0  0  0  0
  185.8640  178.8510  141.1410 C   0  0  0  0  0  0  0  0  0  0  0  0
  191.9010  176.8470  142.0610 F   0  0  0  0  0  0  0  0  0  0  0  0
  184.9250  178.7510  144.5800 N   0  0  0  0  0  0  0  0  0  0  0  0
  189.9480  177.0410  147.3060 Cl  0  0  0  0  0  0  0  0  0  0  0  0
  186.9380  178.5730  140.2840 O   0  0  0  0  0  0  0  0  0  0  0  0
  185.9720  178.6400  142.4620 C   0  0  0  0  0  0  0  0  0  0  0  0
  189.6510  177.4640  142.5470 C   0  0  0  0  0  3  0  0  0  0  0  0
  187.3180  177.9770  147.2260 C   0  0  0  0  0  3  0  0  0  0  0  0
  188.1810  178.1360  140.7470 C   0  0  1  0  0  3  0  0  0  0  0  0
  189.2190  177.9360  139.8320 C   0  0  0  0  0  3  0  0  0  0  0  0
  184.9140  179.0420  143.3400 N   0  0  0  0  0  0  0  0  0  0  0  0
  185.9500  177.8900  145.1690 C   0  0  2  0  0  3  0  0  0  0  0  0
  186.1470  178.2070  146.6260 C   0  0  0  0  0  3  0  0  0  0  0  0
  183.4310  177.3730  140.5470 O   0  0  0  0  0  0  0  0  0  0  0  0
  183.4610  178.6140  140.3340 C   0  0  0  0  0  0  0  0  0  0  0  0
  184.6420  179.3780  140.6110 N   0  0  0  0  0  2  0  0  0  0  0  0
  179.8590  177.6080  139.6870 N   0  0  0  0  0  0  0  0  0  0  0  0
  181.1240  179.3790  140.8220 C   0  0  0  0  0  2  0  0  0  0  0  0
  182.7630  178.4010  137.5820 O   0  0  0  0  0  1  0  0  0  0  0  0
  179.1980  176.3380  139.9200 C   0  0  0  0  0  1  0  0  0  0  0  0
  180.4050  178.0370  140.9740 C   0  0  0  0  0  2  0  0  0  0  0  0
  181.7200  178.6390  138.4800 C   0  0  2  0  0  3  0  0  0  0  0  0
  182.2400  179.2850  139.7760 C   0  0  2  0  0  3  0  0  0  0  0  0
  180.9680  177.3430  138.7750 C   0  0  0  0  0  2  0  0  0  0  0  0
  1  9  1  0  0  0  0
  1 14  2  0  0  0  0
  2  3  1  0  0  0  0
  3  7  1  6  0  0  0
  3 19  1  0  0  0  0
  4 15  1  0  0  0  0
  4 11  1  0  0  0  0
  5 14  1  0  0  0  0
  5  2  2  0  0  0  0
  6  1  1  0  0  0  0
  7  4  2  0  0  0  0
  8 13  2  0  0  0  0
 10 19  1  0  0  0  0
 12 16  1  0  0  0  0
 12  8  1  0  0  0  0
 13  2  1  0  0  0  0
 13 18  1  0  0  0  0
 16 17  1  1  0  0  0
 16  5  1  0  0  0  0
 17  6  2  0  0  0  0
 18 10  2  0  0  0  0
 19 20  1  1  0  0  0
 20 15  2  0  0  0  0
 22 21  2  0  0  0  0
 22 23  1  0  0  0  0
 23  8  1  0  0  0  0
 24 27  1  0  0  0  0
 24 28  1  0  0  0  0
 25 28  1  0  0  0  0
 29 26  1  6  0  0  0
 29 31  1  0  0  0  0
 29 30  1  0  0  0  0
 30 22  1  1  0  0  0
 30 25  1  0  0  0  0
 31 24  1  0  0  0  0
M  END
>  <MODEL>
6

>  <REMARK>
 VINA RESULT:     -10.6      3.947      6.075
  Name = 
  2 active torsions:
  status: ('A' for Active; 'I' for Inactive)
    1  A    between atoms: C_5  and  C_30
    2  A    between atoms: C_10  and  N_16
                            x       y       z     vdW  Elec       q    Type
                         _______ _______ _______ _____ _____    ______ ____

>  <TORSDO>
F 2

$$$$
=
 OpenBabel11122411053D

 31 35  0  0  1  0  0  0  0  0999 V2000
  190.6210  177.5030  140.5840 C   0  0  0  0  0  0  0  0  0  0  0  0
  187.5720  177.9420  142.8580 C   0  0  0  0  0  0  0  0  0  0  0  0
  187.9270  177.5970  144.1190 C   0  0  2  0  0  3  0  0  0  0  0  0
  189.6490  177.1280  145.7930 C   0  0  0  0  0  0  0  0  0  0  0  0
  188.4780  177.9100  141.6670 C   0  0  0  0  0  0  0  0  0  0  0  0
  190.0680  177.8390  139.3470 C   0  0  0  0  0  3  0  0  0  0  0  0
  189.3050  177.2270  144.5060 C   0  0  0  0  0  3  0  0  0  0  0  0
  185.7450  178.7440  141.4180 C   0  0  0  0  0  0  0  0  0  0  0  0
  191.9240  177.1400  140.6670 F   0  0  0  0  0  0  0  0  0  0  0  0
  185.6780  178.2670  144.9520 N   0  0  0  0  0  0  0  0  0  0  0  0
  191.2970  176.7160  146.2160 Cl  0  0  0  0  0  0  0  0  0  0  0  0
  186.5920  178.6270  140.3070 O   0  0  0  0  0  0  0  0  0  0  0  0
  186.1830  178.4260  142.6460 C   0  0  0  0  0  0  0  0  0  0  0  0
  189.8300  177.5350  141.7340 C   0  0  0  0  0  3  0  0  0  0  0  0
  188.6800  177.4490  146.8600 C   0  0  0  0  0  3  0  0  0  0  0  0
  187.9320  178.2480  140.4140 C   0  0  1  0  0  3  0  0  0  0  0  0
  188.7250  178.2110  139.2630 C   0  0  0  0  0  3  0  0  0  0  0  0
  185.3500  178.6650  143.7860 N   0  0  0  0  0  0  0  0  0  0  0  0
  186.8600  177.4390  145.1880 C   0  0  2  0  0  3  0  0  0  0  0  0
  187.3880  177.6400  146.5810 C   0  0  0  0  0  3  0  0  0  0  0  0
  183.4290  177.1940  140.5890 O   0  0  0  0  0  0  0  0  0  0  0  0
  183.2870  178.4200  140.8420 C   0  0  0  0  0  0  0  0  0  0  0  0
  184.4040  179.2190  141.2500 N   0  0  0  0  0  2  0  0  0  0  0  0
  180.1050  177.5960  138.9430 N   0  0  0  0  0  0  0  0  0  0  0  0
  180.8300  178.1100  141.2310 C   0  0  0  0  0  2  0  0  0  0  0  0
  182.6710  180.2140  138.7190 O   0  0  0  0  0  1  0  0  0  0  0  0
  179.8250  176.4890  138.0470 C   0  0  0  0  0  1  0  0  0  0  0  0
  180.5130  177.0080  140.2180 C   0  0  0  0  0  2  0  0  0  0  0  0
  181.6050  179.5010  139.2690 C   0  0  2  0  0  3  0  0  0  0  0  0
  181.9260  179.0390  140.7010 C   0  0  2  0  0  3  0  0  0  0  0  0
  181.2440  178.3150  138.3770 C   0  0  0  0  0  2  0  0  0  0  0  0
  1  9  1  0  0  0  0
  1 14  2  0  0  0  0
  2  3  1  0  0  0  0
  3  7  1  6  0  0  0
  3 19  1  0  0  0  0
  4 11  1  0  0  0  0
  4 15  1  0  0  0  0
  5 14  1  0  0  0  0
  5  2  2  0  0  0  0
  6  1  1  0  0  0  0
  7  4  2  0  0  0  0
  8 13  2  0  0  0  0
 10 19  1  0  0  0  0
 12 16  1  0  0  0  0
 12  8  1  0  0  0  0
 13  2  1  0  0  0  0
 13 18  1  0  0  0  0
 16 17  1  1  0  0  0
 16  5  1  0  0  0  0
 17  6  2  0  0  0  0
 18 10  2  0  0  0  0
 19 20  1  1  0  0  0
 20 15  2  0  0  0  0
 21 22  2  0  0  0  0
 22 23  1  0  0  0  0
 23  8  1  0  0  0  0
 24 28  1  0  0  0  0
 27 24  1  0  0  0  0
 28 25  1  0  0  0  0
 29 26  1  6  0  0  0
 29 30  1  0  0  0  0
 30 22  1  6  0  0  0
 30 25  1  0  0  0  0
 31 24  1  0  0  0  0
 31 29  1  0  0  0  0
M  END
>  <MODEL>
7

>  <REMARK>
 VINA RESULT:     -10.5      4.001      6.074
  Name = 
  2 active torsions:
  status: ('A' for Active; 'I' for Inactive)
    1  A    between atoms: C_5  and  C_30
    2  A    between atoms: C_10  and  N_16
                            x       y       z     vdW  Elec       q    Type
                         _______ _______ _______ _____ _____    ______ ____

>  <TORSDO>
F 2

$$$$
=
 OpenBabel11122411053D

 31 35  0  0  1  0  0  0  0  0999 V2000
  186.5290  178.0280  147.0870 C   0  0  0  0  0  0  0  0  0  0  0  0
  187.7950  178.1000  143.4740 C   0  0  0  0  0  0  0  0  0  0  0  0
  189.0980  177.7280  143.4710 C   0  0  2  0  0  3  0  0  0  0  0  0
  191.0220  176.7020  144.5810 C   0  0  0  0  0  0  0  0  0  0  0  0
  186.9300  178.2010  144.6910 C   0  0  0  0  0  0  0  0  0  0  0  0
  185.2210  178.4820  146.9090 C   0  0  0  0  0  3  0  0  0  0  0  0
  189.8210  177.2770  144.6790 C   0  0  0  0  0  3  0  0  0  0  0  0
  185.8910  178.8110  142.0880 C   0  0  0  0  0  0  0  0  0  0  0  0
  186.9770  177.7220  148.3290 F   0  0  0  0  0  0  0  0  0  0  0  0
  189.1380  177.8340  140.9840 N   0  0  0  0  0  0  0  0  0  0  0  0
  191.8360  176.1530  146.0300 Cl  0  0  0  0  0  0  0  0  0  0  0  0
  185.1260  178.9750  143.2520 O   0  0  0  0  0  0  0  0  0  0  0  0
  187.1650  178.3950  142.1610 C   0  0  0  0  0  0  0  0  0  0  0  0
  187.3770  177.8920  145.9860 C   0  0  0  0  0  3  0  0  0  0  0  0
  191.6280  176.4420  143.2600 C   0  0  0  0  0  3  0  0  0  0  0  0
  185.6080  178.6580  144.5240 C   0  0  1  0  0  3  0  0  0  0  0  0
  184.7630  178.7970  145.6280 C   0  0  0  0  0  3  0  0  0  0  0  0
  187.8950  178.1130  140.9620 N   0  0  0  0  0  0  0  0  0  0  0  0
  189.9290  177.8990  142.2110 C   0  0  2  0  0  3  0  0  0  0  0  0
  191.1000  176.9580  142.1480 C   0  0  0  0  0  3  0  0  0  0  0  0
  183.5360  177.5480  140.9400 O   0  0  0  0  0  0  0  0  0  0  0  0
  184.1430  178.4310  140.2760 C   0  0  0  0  0  0  0  0  0  0  0  0
  185.3090  179.0740  140.8060 N   0  0  0  0  0  2  0  0  0  0  0  0
  181.8950  176.8020  137.6870 N   0  0  0  0  0  0  0  0  0  0  0  0
  182.1050  178.9240  138.9030 C   0  0  0  0  0  2  0  0  0  0  0  0
  185.4760  177.5930  137.9040 O   0  0  0  0  0  1  0  0  0  0  0  0
  181.2230  175.5170  137.7260 C   0  0  0  0  0  1  0  0  0  0  0  0
  181.4420  177.5450  138.8620 C   0  0  0  0  0  2  0  0  0  0  0  0
  184.1060  177.8440  137.8010 C   0  0  2  0  0  3  0  0  0  0  0  0
  183.6310  178.7960  138.9130 C   0  0  2  0  0  3  0  0  0  0  0  0
  183.3240  176.5320  137.8290 C   0  0  0  0  0  2  0  0  0  0  0  0
  1  9  1  0  0  0  0
  2  5  2  0  0  0  0
  3  2  1  0  0  0  0
  3  7  1  1  0  0  0
  4  7  2  0  0  0  0
  4 11  1  0  0  0  0
  5 14  1  0  0  0  0
  6  1  1  0  0  0  0
  8 13  2  0  0  0  0
  8 12  1  0  0  0  0
 10 19  1  0  0  0  0
 12 16  1  0  0  0  0
 13  2  1  0  0  0  0
 14  1  2  0  0  0  0
 15  4  1  0  0  0  0
 16  5  1  0  0  0  0
 16 17  1  6  0  0  0
 17  6  2  0  0  0  0
 18 10  2  0  0  0  0
 18 13  1  0  0  0  0
 19 20  1  6  0  0  0
 19  3  1  0  0  0  0
 20 15  2  0  0  0  0
 22 23  1  0  0  0  0
 22 21  2  0  0  0  0
 23  8  1  0  0  0  0
 24 27  1  0  0  0  0
 24 31  1  0  0  0  0
 24 28  1  0  0  0  0
 25 30  1  0  0  0  0
 28 25  1  0  0  0  0
 29 31  1  0  0  0  0
 29 26  1  1  0  0  0
 29 30  1  0  0  0  0
 30 22  1  1  0  0  0
M  END
>  <MODEL>
8

>  <REMARK>
 VINA RESULT:     -10.4      3.266      4.517
  Name = 
  2 active torsions:
  status: ('A' for Active; 'I' for Inactive)
    1  A    between atoms: C_5  and  C_30
    2  A    between atoms: C_10  and  N_16
                            x       y       z     vdW  Elec       q    Type
                         _______ _______ _______ _____ _____    ______ ____

>  <TORSDO>
F 2

$$$$
=
 OpenBabel11122411053D

 31 35  0  0  1  0  0  0  0  0999 V2000
  185.2670  178.1810  146.1800 C   0  0  0  0  0  0  0  0  0  0  0  0
  184.7420  178.5580  142.4060 C   0  0  0  0  0  0  0  0  0  0  0  0
  183.4120  178.6660  142.1690 C   0  0  2  0  0  3  0  0  0  0  0  0
  181.1340  179.0720  142.9640 C   0  0  0  0  0  0  0  0  0  0  0  0
  185.3670  178.3940  143.7560 C   0  0  0  0  0  0  0  0  0  0  0  0
  186.6540  178.0280  146.2310 C   0  0  0  0  0  3  0  0  0  0  0  0
  182.3950  178.7300  143.2400 C   0  0  0  0  0  3  0  0  0  0  0  0
  186.9810  178.5040  141.3870 C   0  0  0  0  0  0  0  0  0  0  0  0
  184.5390  178.1510  147.3230 F   0  0  0  0  0  0  0  0  0  0  0  0
  183.8580  179.0310  139.7470 N   0  0  0  0  0  0  0  0  0  0  0  0
  179.9620  179.1680  144.2600 Cl  0  0  0  0  0  0  0  0  0  0  0  0
  187.5330  178.2710  142.6550 O   0  0  0  0  0  0  0  0  0  0  0  0
  185.6550  178.6460  141.2370 C   0  0  0  0  0  0  0  0  0  0  0  0
  184.6290  178.3590  144.9510 C   0  0  0  0  0  3  0  0  0  0  0  0
  180.7400  179.4580  141.5940 C   0  0  0  0  0  3  0  0  0  0  0  0
  186.7650  178.2400  143.8210 C   0  0  1  0  0  3  0  0  0  0  0  0
  187.4010  178.0580  145.0520 C   0  0  0  0  0  3  0  0  0  0  0  0
  185.1150  179.0060  139.9600 N   0  0  0  0  0  0  0  0  0  0  0  0
  182.8890  178.5820  140.7450 C   0  0  2  0  0  3  0  0  0  0  0  0
  181.5680  179.2760  140.5620 C   0  0  0  0  0  3  0  0  0  0  0  0
  189.2810  176.8400  140.7620 O   0  0  0  0  0  0  0  0  0  0  0  0
  188.9590  177.7640  139.9680 C   0  0  0  0  0  0  0  0  0  0  0  0
  187.8340  178.6080  140.2420 N   0  0  0  0  0  2  0  0  0  0  0  0
  188.5540  176.9940  136.2730 N   0  0  0  0  0  0  0  0  0  0  0  0
  189.0660  178.8980  137.7340 C   0  0  0  0  0  2  0  0  0  0  0  0
  190.7130  175.7530  138.9730 O   0  0  0  0  0  1  0  0  0  0  0  0
  187.4600  176.3370  135.5810 C   0  0  0  0  0  1  0  0  0  0  0  0
  187.9760  178.1410  136.9720 C   0  0  0  0  0  2  0  0  0  0  0  0
  190.2100  176.6660  138.0430 C   0  0  2  0  0  3  0  0  0  0  0  0
  189.7790  177.9750  138.7270 C   0  0  2  0  0  3  0  0  0  0  0  0
  189.0510  176.0440  137.2660 C   0  0  0  0  0  2  0  0  0  0  0  0
  1  6  1  0  0  0  0
  1  9  1  0  0  0  0
  2  5  2  0  0  0  0
  3  2  1  0  0  0  0
  3  7  1  1  0  0  0
  4  7  2  0  0  0  0
  4 11  1  0  0  0  0
  5 16  1  0  0  0  0
  5 14  1  0  0  0  0
  8 12  1  0  0  0  0
 10 18  2  0  0  0  0
 10 19  1  0  0  0  0
 12 16  1  0  0  0  0
 13  8  2  0  0  0  0
 13  2  1  0  0  0  0
 14  1  2  0  0  0  0
 15  4  1  0  0  0  0
 16 17  1  1  0  0  0
 17  6  2  0  0  0  0
 18 13  1  0  0  0  0
 19 20  1  1  0  0  0
 19  3  1  0  0  0  0
 20 15  2  0  0  0  0
 22 23  1  0  0  0  0
 22 21  2  0  0  0  0
 23  8  1  0  0  0  0
 24 28  1  0  0  0  0
 24 31  1  0  0  0  0
 25 30  1  0  0  0  0
 27 24  1  0  0  0  0
 28 25  1  0  0  0  0
 29 30  1  0  0  0  0
 29 26  1  1  0  0  0
 30 22  1  1  0  0  0
 31 29  1  0  0  0  0
M  END
>  <MODEL>
9

>  <REMARK>
 VINA RESULT:     -10.3      2.724      5.102
  Name = 
  2 active torsions:
  status: ('A' for Active; 'I' for Inactive)
    1  A    between atoms: C_5  and  C_30
    2  A    between atoms: C_10  and  N_16
                            x       y       z     vdW  Elec       q    Type
                         _______ _______ _______ _____ _____    ______ ____

>  <TORSDO>
F 2

$$$$
