=
 OpenBabel11122410373D

 32 37  0  0  1  0  0  0  0  0999 V2000
  191.6830  175.4690  137.9370 C   0  0  0  0  0  2  0  0  0  0  0  0
  189.0350  177.8040  141.9570 C   0  0  1  0  0  3  0  0  0  0  0  0
  191.7220  176.5740  145.9460 C   0  0  0  0  0  3  0  0  0  0  0  0
  190.5890  176.6710  146.7530 C   0  0  0  0  0  3  0  0  0  0  0  0
  186.5660  178.1910  142.2580 C   0  0  0  0  0  0  0  0  0  0  0  0
  185.6000  178.6490  143.2470 C   0  0  0  0  0  0  0  0  0  0  0  0
  190.1390  177.6500  139.7600 N   0  0  1  0  0  0  0  0  0  0  0  0
  191.5110  177.4530  141.7870 C   0  0  0  0  0  2  0  0  0  0  0  0
  184.6510  178.8510  145.2070 N   0  0  0  0  0  0  0  0  0  0  0  0
  192.6050  177.1950  139.5810 C   0  0  0  0  0  2  0  0  0  0  0  0
  191.6150  176.7790  144.5700 C   0  0  0  0  0  3  0  0  0  0  0  0
  190.2780  177.3110  142.5660 N   0  0  0  0  0  0  0  0  0  0  0  0
  190.3740  177.0820  143.9820 C   0  0  0  0  0  0  0  0  0  0  0  0
  187.9440  177.4530  144.2040 N   0  0  0  0  0  0  0  0  0  0  0  0
  183.8790  179.4920  144.3400 N   0  0  0  0  0  0  0  0  0  0  0  0
  190.1810  175.7890  138.0440 C   0  0  0  0  0  2  0  0  0  0  0  0
  191.3030  176.9640  140.3590 C   0  0  2  0  0  3  0  0  0  0  0  0
  184.4360  179.3870  143.1090 C   0  0  0  0  0  3  0  0  0  0  0  0
  189.8750  177.2630  138.3640 C   0  0  0  0  0  2  0  0  0  0  0  0
  192.5880  176.6920  138.1340 C   0  0  1  0  0  3  0  0  0  0  0  0
  189.3520  176.9650  146.1770 C   0  0  0  0  0  3  0  0  0  0  0  0
  189.2280  177.1650  144.7900 C   0  0  0  0  0  0  0  0  0  0  0  0
  186.7700  177.4470  145.0970 C   0  0  0  0  0  2  0  0  0  0  0  0
  188.9490  177.2780  140.5210 C   0  0  0  0  0  2  0  0  0  0  0  0
  186.3600  178.4110  141.0340 O   0  0  0  0  0  0  0  0  0  0  0  0
  184.3510  178.7200  146.6220 C   0  0  0  0  0  1  0  0  0  0  0  0
  187.7680  177.3790  142.7270 C   0  0  2  0  0  3  0  0  0  0  0  0
  185.7090  178.3440  144.5620 C   0  0  0  0  0  0  0  0  0  0  0  0
  193.9470  176.3830  137.7160 N   0  0  0  0  0  2  0  0  0  0  0  0
  194.3110  176.2060  136.3450 C   0  0  0  0  0  0  0  0  0  0  0  0
  193.4540  176.3380  135.4310 O   0  0  0  0  0  0  0  0  0  0  0  0
  195.6540  175.8820  136.0090 N   0  0  0  0  0  1  0  0  0  0  0  0
  1 16  1  0  0  0  0
  1 20  1  0  0  0  0
  2 24  1  6  0  0  0
  2 12  1  0  0  0  0
  2 27  1  0  0  0  0
  3  4  1  0  0  0  0
  5  6  1  0  0  0  0
  6 28  2  0  0  0  0
  7 19  1  6  0  0  0
  7 17  1  0  0  0  0
  7 24  1  0  0  0  0
  8 12  1  0  0  0  0
  9 26  1  0  0  0  0
 11  3  2  0  0  0  0
 12 13  1  0  0  0  0
 13 11  1  0  0  0  0
 13 22  2  0  0  0  0
 14 22  1  0  0  0  0
 14 23  1  0  0  0  0
 15  9  1  0  0  0  0
 16 19  1  0  0  0  0
 17 10  1  6  0  0  0
 17  8  1  0  0  0  0
 18  6  1  0  0  0  0
 18 15  2  0  0  0  0
 20 29  1  1  0  0  0
 20 10  1  0  0  0  0
 21  4  2  0  0  0  0
 22 21  1  0  0  0  0
 25  5  2  0  0  0  0
 27  5  1  6  0  0  0
 27 14  1  0  0  0  0
 28 23  1  0  0  0  0
 28  9  1  0  0  0  0
 30 29  1  0  0  0  0
 31 30  2  0  0  0  0
 32 30  1  0  0  0  0
M  END
>  <MODEL>
1

>  <REMARK>
 VINA RESULT:     -10.8      0.000      0.000
  Name = 
  1 active torsions:
  status: ('A' for Active; 'I' for Inactive)
    1  A    between atoms: C_20  and  N_29
                            x       y       z     vdW  Elec       q    Type
                         _______ _______ _______ _____ _____    ______ ____

>  <TORSDO>
F 1

$$$$
=
 OpenBabel11122410373D

 32 37  0  0  1  0  0  0  0  0999 V2000
  181.8260  177.9720  139.8170 C   0  0  0  0  0  2  0  0  0  0  0  0
  186.1480  178.4660  142.9300 C   0  0  1  0  0  3  0  0  0  0  0  0
  189.9010  177.5660  139.8080 C   0  0  0  0  0  3  0  0  0  0  0  0
  190.6870  177.1130  140.8650 C   0  0  0  0  0  3  0  0  0  0  0  0
  186.4620  177.8980  145.3630 C   0  0  0  0  0  0  0  0  0  0  0  0
  187.4980  177.8020  146.3830 C   0  0  0  0  0  0  0  0  0  0  0  0
  183.9850  179.1060  141.9420 N   0  0  1  0  0  0  0  0  0  0  0  0
  185.9710  179.0450  140.4990 C   0  0  0  0  0  2  0  0  0  0  0  0
  189.4410  177.3020  147.2540 N   0  0  0  0  0  0  0  0  0  0  0  0
  183.7790  179.5890  139.4830 C   0  0  0  0  0  2  0  0  0  0  0  0
  188.5840  177.9630  140.0410 C   0  0  0  0  0  3  0  0  0  0  0  0
  186.6830  178.3410  141.5680 N   0  0  0  0  0  0  0  0  0  0  0  0
  188.0350  177.9110  141.3350 C   0  0  0  0  0  0  0  0  0  0  0  0
  188.2690  177.3570  143.7280 N   0  0  0  0  0  0  0  0  0  0  0  0
  188.6890  177.7740  148.2390 N   0  0  0  0  0  0  0  0  0  0  0  0
  181.9580  177.7190  141.3290 C   0  0  0  0  0  2  0  0  0  0  0  0
  184.4730  178.7790  140.5870 C   0  0  2  0  0  3  0  0  0  0  0  0
  187.4720  178.0940  147.7360 C   0  0  0  0  0  3  0  0  0  0  0  0
  182.5360  178.9080  142.1160 C   0  0  0  0  0  2  0  0  0  0  0  0
  182.2640  179.3790  139.3880 C   0  0  1  0  0  3  0  0  0  0  0  0
  190.1490  177.0510  142.1520 C   0  0  0  0  0  3  0  0  0  0  0  0
  188.8200  177.4390  142.4000 C   0  0  0  0  0  0  0  0  0  0  0  0
  189.1200  176.7770  144.7850 C   0  0  0  0  0  2  0  0  0  0  0  0
  184.6390  178.2100  142.8920 C   0  0  0  0  0  2  0  0  0  0  0  0
  185.2950  178.2470  145.6870 O   0  0  0  0  0  0  0  0  0  0  0  0
  190.8000  176.8230  147.4250 C   0  0  0  0  0  1  0  0  0  0  0  0
  186.8000  177.4910  143.9330 C   0  0  2  0  0  3  0  0  0  0  0  0
  188.7360  177.3240  146.1150 C   0  0  0  0  0  0  0  0  0  0  0  0
  181.8250  179.6490  138.0270 N   0  0  0  0  0  2  0  0  0  0  0  0
  181.1840  180.8690  137.6510 C   0  0  0  0  0  0  0  0  0  0  0  0
  180.9930  181.7820  138.4980 O   0  0  0  0  0  0  0  0  0  0  0  0
  180.7600  181.0560  136.3070 N   0  0  0  0  0  1  0  0  0  0  0  0
  1 16  1  0  0  0  0
  2 24  1  6  0  0  0
  2 27  1  0  0  0  0
  3 11  2  0  0  0  0
  3  4  1  0  0  0  0
  4 21  2  0  0  0  0
  5 25  2  0  0  0  0
  5  6  1  0  0  0  0
  6 18  1  0  0  0  0
  7 19  1  6  0  0  0
  7 24  1  0  0  0  0
  8 17  1  0  0  0  0
  8 12  1  0  0  0  0
  9 26  1  0  0  0  0
  9 15  1  0  0  0  0
 11 13  1  0  0  0  0
 12  2  1  0  0  0  0
 13 12  1  0  0  0  0
 13 22  2  0  0  0  0
 14 27  1  0  0  0  0
 14 23  1  0  0  0  0
 16 19  1  0  0  0  0
 17 10  1  6  0  0  0
 17  7  1  0  0  0  0
 18 15  2  0  0  0  0
 20 29  1  6  0  0  0
 20 10  1  0  0  0  0
 20  1  1  0  0  0  0
 21 22  1  0  0  0  0
 22 14  1  0  0  0  0
 23 28  1  0  0  0  0
 27  5  1  1  0  0  0
 28  6  2  0  0  0  0
 28  9  1  0  0  0  0
 30 29  1  0  0  0  0
 30 31  2  0  0  0  0
 32 30  1  0  0  0  0
M  END
>  <MODEL>
2

>  <REMARK>
 VINA RESULT:     -10.0      4.031      7.491
  Name = 
  1 active torsions:
  status: ('A' for Active; 'I' for Inactive)
    1  A    between atoms: C_20  and  N_29
                            x       y       z     vdW  Elec       q    Type
                         _______ _______ _______ _____ _____    ______ ____

>  <TORSDO>
F 1

$$$$
=
 OpenBabel11122410373D

 32 37  0  0  1  0  0  0  0  0999 V2000
  189.1850  176.1610  138.2870 C   0  0  0  0  0  2  0  0  0  0  0  0
  185.1420  178.9500  140.4070 C   0  0  1  0  0  3  0  0  0  0  0  0
  185.7730  178.3220  145.2910 C   0  0  0  0  0  3  0  0  0  0  0  0
  184.4070  178.5010  145.5020 C   0  0  0  0  0  3  0  0  0  0  0  0
  182.8050  179.3170  139.5470 C   0  0  0  0  0  0  0  0  0  0  0  0
  181.5230  179.8810  139.9470 C   0  0  0  0  0  0  0  0  0  0  0  0
  187.0850  178.5300  138.9540 N   0  0  1  0  0  0  0  0  0  0  0  0
  187.4280  178.6360  141.3830 C   0  0  0  0  0  2  0  0  0  0  0  0
  179.8230  180.3210  141.2510 N   0  0  0  0  0  0  0  0  0  0  0  0
  189.3640  178.1120  139.9300 C   0  0  0  0  0  2  0  0  0  0  0  0
  186.2840  178.3400  143.9930 C   0  0  0  0  0  3  0  0  0  0  0  0
  185.9760  178.5700  141.5560 N   0  0  0  0  0  0  0  0  0  0  0  0
  185.4360  178.5340  142.8880 C   0  0  0  0  0  0  0  0  0  0  0  0
  183.1680  178.8770  141.9760 N   0  0  0  0  0  0  0  0  0  0  0  0
  179.5310  180.8220  140.0580 N   0  0  0  0  0  0  0  0  0  0  0  0
  187.8010  176.4590  137.6850 C   0  0  0  0  0  2  0  0  0  0  0  0
  187.8450  177.9570  140.0840 C   0  0  2  0  0  3  0  0  0  0  0  0
  180.5640  180.5670  139.2190 C   0  0  0  0  0  3  0  0  0  0  0  0
  187.4420  177.9550  137.6450 C   0  0  0  0  0  2  0  0  0  0  0  0
  189.9600  177.4200  138.6990 C   0  0  1  0  0  3  0  0  0  0  0  0
  183.5560  178.6870  144.4110 C   0  0  0  0  0  3  0  0  0  0  0  0
  184.0560  178.6980  143.0960 C   0  0  0  0  0  0  0  0  0  0  0  0
  181.7230  178.9620  142.2600 C   0  0  0  0  0  2  0  0  0  0  0  0
  185.6690  178.2360  139.1590 C   0  0  0  0  0  2  0  0  0  0  0  0
  183.1610  179.3680  138.3390 O   0  0  0  0  0  0  0  0  0  0  0  0
  178.9320  180.3720  142.3960 C   0  0  0  0  0  1  0  0  0  0  0  0
  183.6500  178.6020  140.5950 C   0  0  2  0  0  3  0  0  0  0  0  0
  181.0360  179.7560  141.2040 C   0  0  0  0  0  0  0  0  0  0  0  0
  191.3530  177.0890  138.9610 N   0  0  0  0  0  2  0  0  0  0  0  0
  192.2200  176.5570  137.9570 C   0  0  0  0  0  0  0  0  0  0  0  0
  191.8060  176.3740  136.7820 O   0  0  0  0  0  0  0  0  0  0  0  0
  193.5650  176.2340  138.2890 N   0  0  0  0  0  1  0  0  0  0  0  0
  1 20  1  0  0  0  0
  2 24  1  6  0  0  0
  2 27  1  0  0  0  0
  2 12  1  0  0  0  0
  3  4  1  0  0  0  0
  5  6  1  0  0  0  0
  6 28  2  0  0  0  0
  7 19  1  6  0  0  0
  7 24  1  0  0  0  0
  7 17  1  0  0  0  0
  8 12  1  0  0  0  0
  9 26  1  0  0  0  0
 11  3  2  0  0  0  0
 12 13  1  0  0  0  0
 13 22  2  0  0  0  0
 13 11  1  0  0  0  0
 14 23  1  0  0  0  0
 14 22  1  0  0  0  0
 15  9  1  0  0  0  0
 16  1  1  0  0  0  0
 17 10  1  6  0  0  0
 17  8  1  0  0  0  0
 18  6  1  0  0  0  0
 18 15  2  0  0  0  0
 19 16  1  0  0  0  0
 20 29  1  1  0  0  0
 20 10  1  0  0  0  0
 21  4  2  0  0  0  0
 22 21  1  0  0  0  0
 25  5  2  0  0  0  0
 27  5  1  6  0  0  0
 27 14  1  0  0  0  0
 28  9  1  0  0  0  0
 28 23  1  0  0  0  0
 30 32  1  0  0  0  0
 30 29  1  0  0  0  0
 31 30  2  0  0  0  0
M  END
>  <MODEL>
3

>  <REMARK>
 VINA RESULT:      -9.0      3.014      4.786
  Name = 
  1 active torsions:
  status: ('A' for Active; 'I' for Inactive)
    1  A    between atoms: C_20  and  N_29
                            x       y       z     vdW  Elec       q    Type
                         _______ _______ _______ _____ _____    ______ ____

>  <TORSDO>
F 1

$$$$
=
 OpenBabel11122410373D

 32 37  0  0  1  0  0  0  0  0999 V2000
  192.7160  174.6840  136.9140 C   0  0  0  0  0  2  0  0  0  0  0  0
  189.5300  177.6890  139.9860 C   0  0  1  0  0  3  0  0  0  0  0  0
  191.6900  177.4330  144.4480 C   0  0  0  0  0  3  0  0  0  0  0  0
  190.4610  177.6470  145.0690 C   0  0  0  0  0  3  0  0  0  0  0  0
  187.0370  178.0240  139.8880 C   0  0  0  0  0  0  0  0  0  0  0  0
  185.9430  178.6370  140.6300 C   0  0  0  0  0  0  0  0  0  0  0  0
  190.9140  177.1290  138.0270 N   0  0  1  0  0  0  0  0  0  0  0  0
  192.0110  177.4170  140.2050 C   0  0  0  0  0  2  0  0  0  0  0  0
  184.7430  179.2010  142.3690 N   0  0  0  0  0  0  0  0  0  0  0  0
  193.3890  176.7530  138.2570 C   0  0  0  0  0  2  0  0  0  0  0  0
  191.7610  177.3420  143.0580 C   0  0  0  0  0  3  0  0  0  0  0  0
  190.6900  177.3870  140.8360 N   0  0  0  0  0  0  0  0  0  0  0  0
  190.6030  177.4620  142.2690 C   0  0  0  0  0  0  0  0  0  0  0  0
  188.1600  177.7680  142.1020 N   0  0  0  0  0  0  0  0  0  0  0  0
  184.0810  179.6140  141.2960 N   0  0  0  0  0  0  0  0  0  0  0  0
  191.2090  174.9540  136.7630 C   0  0  0  0  0  2  0  0  0  0  0  0
  191.9990  176.6330  138.8980 C   0  0  2  0  0  3  0  0  0  0  0  0
  184.7950  179.2780  140.1950 C   0  0  0  0  0  3  0  0  0  0  0  0
  190.8410  176.4480  136.7230 C   0  0  0  0  0  2  0  0  0  0  0  0
  193.5690  175.9580  136.9590 C   0  0  1  0  0  3  0  0  0  0  0  0
  189.3050  177.7620  144.2950 C   0  0  0  0  0  3  0  0  0  0  0  0
  189.3600  177.6630  142.8920 C   0  0  0  0  0  0  0  0  0  0  0  0
  186.8790  177.8970  142.8240 C   0  0  0  0  0  2  0  0  0  0  0  0
  189.6400  176.8730  138.6950 C   0  0  0  0  0  2  0  0  0  0  0  0
  186.9900  177.9760  138.6300 O   0  0  0  0  0  0  0  0  0  0  0  0
  184.2620  179.3550  143.7310 C   0  0  0  0  0  1  0  0  0  0  0  0
  188.1790  177.3800  140.6650 C   0  0  2  0  0  3  0  0  0  0  0  0
  185.8830  178.6160  141.9830 C   0  0  0  0  0  0  0  0  0  0  0  0
  194.9760  175.6280  136.7880 N   0  0  0  0  0  2  0  0  0  0  0  0
  195.8580  176.4060  135.9770 C   0  0  0  0  0  0  0  0  0  0  0  0
  195.4440  177.4410  135.3890 O   0  0  0  0  0  0  0  0  0  0  0  0
  197.2170  176.0110  135.8360 N   0  0  0  0  0  1  0  0  0  0  0  0
  1 20  1  0  0  0  0
  2 24  1  6  0  0  0
  2 27  1  0  0  0  0
  2 12  1  0  0  0  0
  3  4  1  0  0  0  0
  5  6  1  0  0  0  0
  6 28  2  0  0  0  0
  7 19  1  6  0  0  0
  7 24  1  0  0  0  0
  7 17  1  0  0  0  0
  8 12  1  0  0  0  0
  9 26  1  0  0  0  0
 11  3  2  0  0  0  0
 12 13  1  0  0  0  0
 13 22  2  0  0  0  0
 13 11  1  0  0  0  0
 14 23  1  0  0  0  0
 14 22  1  0  0  0  0
 15  9  1  0  0  0  0
 16  1  1  0  0  0  0
 17 10  1  6  0  0  0
 17  8  1  0  0  0  0
 18  6  1  0  0  0  0
 18 15  2  0  0  0  0
 19 16  1  0  0  0  0
 20 29  1  1  0  0  0
 20 10  1  0  0  0  0
 21  4  2  0  0  0  0
 22 21  1  0  0  0  0
 25  5  2  0  0  0  0
 27  5  1  6  0  0  0
 27 14  1  0  0  0  0
 28  9  1  0  0  0  0
 28 23  1  0  0  0  0
 30 29  1  0  0  0  0
 31 30  2  0  0  0  0
 32 30  1  0  0  0  0
M  END
>  <MODEL>
4

>  <REMARK>
 VINA RESULT:      -8.8      1.593      2.129
  Name = 
  1 active torsions:
  status: ('A' for Active; 'I' for Inactive)
    1  A    between atoms: C_20  and  N_29
                            x       y       z     vdW  Elec       q    Type
                         _______ _______ _______ _____ _____    ______ ____

>  <TORSDO>
F 1

$$$$
=
 OpenBabel11122410373D

 32 37  0  0  1  0  0  0  0  0999 V2000
  180.1800  178.1360  138.9640 C   0  0  0  0  0  2  0  0  0  0  0  0
  184.4600  178.8850  142.0850 C   0  0  1  0  0  3  0  0  0  0  0  0
  188.2650  178.2390  138.9630 C   0  0  0  0  0  3  0  0  0  0  0  0
  189.0770  177.8300  140.0190 C   0  0  0  0  0  3  0  0  0  0  0  0
  184.8060  178.3260  144.5150 C   0  0  0  0  0  0  0  0  0  0  0  0
  185.8450  178.2910  145.5360 C   0  0  0  0  0  0  0  0  0  0  0  0
  182.2620  179.3930  141.0970 N   0  0  1  0  0  0  0  0  0  0  0  0
  184.2490  179.4640  139.6570 C   0  0  0  0  0  2  0  0  0  0  0  0
  187.8150  177.9100  146.4070 N   0  0  0  0  0  0  0  0  0  0  0  0
  182.0280  179.8730  138.6410 C   0  0  0  0  0  2  0  0  0  0  0  0
  186.9250  178.5510  139.1970 C   0  0  0  0  0  3  0  0  0  0  0  0
  185.0030  178.8010  140.7220 N   0  0  0  0  0  0  0  0  0  0  0  0
  186.3790  178.4570  140.4890 C   0  0  0  0  0  0  0  0  0  0  0  0
  186.6450  177.9080  142.8810 N   0  0  0  0  0  0  0  0  0  0  0  0
  187.0340  178.3290  147.3940 N   0  0  0  0  0  0  0  0  0  0  0  0
  180.3260  177.8830  140.4740 C   0  0  0  0  0  2  0  0  0  0  0  0
  182.7700  179.1030  139.7410 C   0  0  2  0  0  3  0  0  0  0  0  0
  185.8000  178.5740  146.8910 C   0  0  0  0  0  3  0  0  0  0  0  0
  180.8280  179.1030  141.2690 C   0  0  0  0  0  2  0  0  0  0  0  0
  180.5290  179.5690  138.5420 C   0  0  1  0  0  3  0  0  0  0  0  0
  188.5430  177.7280  141.3050 C   0  0  0  0  0  3  0  0  0  0  0  0
  187.1910  178.0310  141.5530 C   0  0  0  0  0  0  0  0  0  0  0  0
  187.5310  177.3780  143.9350 C   0  0  0  0  0  2  0  0  0  0  0  0
  182.9700  178.5350  142.0440 C   0  0  0  0  0  2  0  0  0  0  0  0
  183.6190  178.6000  144.8400 O   0  0  0  0  0  0  0  0  0  0  0  0
  189.2020  177.5160  146.5780 C   0  0  0  0  0  1  0  0  0  0  0  0
  185.1710  177.9480  143.0840 C   0  0  2  0  0  3  0  0  0  0  0  0
  187.1110  177.8930  145.2680 C   0  0  0  0  0  0  0  0  0  0  0  0
  180.0760  179.8170  137.1820 N   0  0  0  0  0  2  0  0  0  0  0  0
  179.6250  181.1000  136.7410 C   0  0  0  0  0  0  0  0  0  0  0  0
  179.6270  182.0860  137.5260 O   0  0  0  0  0  0  0  0  0  0  0  0
  179.1740  181.2650  135.4030 N   0  0  0  0  0  1  0  0  0  0  0  0
  1 16  1  0  0  0  0
  2 24  1  6  0  0  0
  2 27  1  0  0  0  0
  3 11  2  0  0  0  0
  3  4  1  0  0  0  0
  4 21  2  0  0  0  0
  5 25  2  0  0  0  0
  5  6  1  0  0  0  0
  6 18  1  0  0  0  0
  7 19  1  6  0  0  0
  7 24  1  0  0  0  0
  8 17  1  0  0  0  0
  8 12  1  0  0  0  0
  9 26  1  0  0  0  0
  9 15  1  0  0  0  0
 11 13  1  0  0  0  0
 12  2  1  0  0  0  0
 13 12  1  0  0  0  0
 13 22  2  0  0  0  0
 14 27  1  0  0  0  0
 14 23  1  0  0  0  0
 16 19  1  0  0  0  0
 17 10  1  6  0  0  0
 17  7  1  0  0  0  0
 18 15  2  0  0  0  0
 20 29  1  6  0  0  0
 20 10  1  0  0  0  0
 20  1  1  0  0  0  0
 21 22  1  0  0  0  0
 22 14  1  0  0  0  0
 23 28  1  0  0  0  0
 27  5  1  1  0  0  0
 28  6  2  0  0  0  0
 28  9  1  0  0  0  0
 30 29  1  0  0  0  0
 30 31  2  0  0  0  0
 32 30  1  0  0  0  0
M  END
>  <MODEL>
5

>  <REMARK>
 VINA RESULT:      -8.6      4.504      8.391
  Name = 
  1 active torsions:
  status: ('A' for Active; 'I' for Inactive)
    1  A    between atoms: C_20  and  N_29
                            x       y       z     vdW  Elec       q    Type
                         _______ _______ _______ _____ _____    ______ ____

>  <TORSDO>
F 1

$$$$
=
 OpenBabel11122410373D

 32 37  0  0  1  0  0  0  0  0999 V2000
  188.8240  178.5810  147.7090 C   0  0  0  0  0  2  0  0  0  0  0  0
  186.0080  177.8270  143.2230 C   0  0  1  0  0  3  0  0  0  0  0  0
  189.4990  177.7540  139.6940 C   0  0  0  0  0  3  0  0  0  0  0  0
  188.5760  178.2100  138.7560 C   0  0  0  0  0  3  0  0  0  0  0  0
  183.7070  178.6370  142.6040 C   0  0  0  0  0  0  0  0  0  0  0  0
  182.7910  178.7000  141.4730 C   0  0  0  0  0  0  0  0  0  0  0  0
  186.7340  177.4050  145.5390 N   0  0  1  0  0  0  0  0  0  0  0  0
  188.3180  176.9850  143.7100 C   0  0  0  0  0  2  0  0  0  0  0  0
  182.1450  179.0030  139.4050 N   0  0  0  0  0  0  0  0  0  0  0  0
  189.0810  176.6590  146.0430 C   0  0  0  0  0  2  0  0  0  0  0  0
  189.1150  177.5930  141.0260 C   0  0  0  0  0  3  0  0  0  0  0  0
  187.4120  177.7000  142.8070 N   0  0  0  0  0  0  0  0  0  0  0  0
  187.8030  177.8880  141.4370 C   0  0  0  0  0  0  0  0  0  0  0  0
  185.5320  178.6920  140.9020 N   0  0  0  0  0  0  0  0  0  0  0  0
  181.0510  178.7760  140.1190 N   0  0  0  0  0  0  0  0  0  0  0  0
  187.3750  178.9970  147.4000 C   0  0  0  0  0  2  0  0  0  0  0  0
  188.1540  177.4850  145.1410 C   0  0  2  0  0  3  0  0  0  0  0  0
  181.4120  178.5850  141.4110 C   0  0  0  0  0  3  0  0  0  0  0  0
  186.4790  177.8400  146.9220 C   0  0  0  0  0  2  0  0  0  0  0  0
  189.0890  177.0820  147.5160 C   0  0  1  0  0  3  0  0  0  0  0  0
  187.2730  178.5120  139.1550 C   0  0  0  0  0  3  0  0  0  0  0  0
  186.8740  178.3640  140.4960 C   0  0  0  0  0  0  0  0  0  0  0  0
  184.6310  179.2610  139.8810 C   0  0  0  0  0  2  0  0  0  0  0  0
  185.9670  178.3020  144.6780 C   0  0  0  0  0  2  0  0  0  0  0  0
  183.2500  178.5110  143.7720 O   0  0  0  0  0  0  0  0  0  0  0  0
  182.1440  179.2890  137.9810 C   0  0  0  0  0  1  0  0  0  0  0  0
  185.2000  178.8080  142.3490 C   0  0  2  0  0  3  0  0  0  0  0  0
  183.2140  178.9480  140.2110 C   0  0  0  0  0  0  0  0  0  0  0  0
  190.3640  176.7160  148.1150 N   0  0  0  0  0  2  0  0  0  0  0  0
  191.5930  176.7370  147.3860 C   0  0  0  0  0  0  0  0  0  0  0  0
  191.6180  177.1040  146.1800 O   0  0  0  0  0  0  0  0  0  0  0  0
  192.7990  176.3440  148.0280 N   0  0  0  0  0  1  0  0  0  0  0  0
  2 24  1  1  0  0  0
  3 11  1  0  0  0  0
  4 21  1  0  0  0  0
  4  3  2  0  0  0  0
  5 25  2  0  0  0  0
  6  5  1  0  0  0  0
  7 24  1  6  0  0  0
  7 19  1  0  0  0  0
  9 15  1  0  0  0  0
  9 28  1  0  0  0  0
 10 20  1  0  0  0  0
 11 13  2  0  0  0  0
 12  2  1  0  0  0  0
 12  8  1  0  0  0  0
 13 12  1  0  0  0  0
 14 27  1  0  0  0  0
 15 18  2  0  0  0  0
 16  1  1  0  0  0  0
 17  8  1  6  0  0  0
 17  7  1  0  0  0  0
 17 10  1  0  0  0  0
 18  6  1  0  0  0  0
 19 16  1  0  0  0  0
 20  1  1  0  0  0  0
 20 29  1  6  0  0  0
 21 22  2  0  0  0  0
 22 14  1  0  0  0  0
 22 13  1  0  0  0  0
 23 28  1  0  0  0  0
 23 14  1  0  0  0  0
 26  9  1  0  0  0  0
 27  5  1  6  0  0  0
 27  2  1  0  0  0  0
 28  6  2  0  0  0  0
 30 32  1  0  0  0  0
 30 29  1  0  0  0  0
 31 30  2  0  0  0  0
M  END
>  <MODEL>
6

>  <REMARK>
 VINA RESULT:      -8.4      3.936      7.146
  Name = 
  1 active torsions:
  status: ('A' for Active; 'I' for Inactive)
    1  A    between atoms: C_20  and  N_29
                            x       y       z     vdW  Elec       q    Type
                         _______ _______ _______ _____ _____    ______ ____

>  <TORSDO>
F 1

$$$$
=
 OpenBabel11122410373D

 32 37  0  0  1  0  0  0  0  0999 V2000
  190.1390  176.0670  139.2780 C   0  0  0  0  0  2  0  0  0  0  0  0
  185.6400  178.7460  140.3720 C   0  0  1  0  0  3  0  0  0  0  0  0
  185.3490  178.4970  145.3210 C   0  0  0  0  0  3  0  0  0  0  0  0
  183.9620  178.6060  145.2570 C   0  0  0  0  0  3  0  0  0  0  0  0
  183.4970  178.9110  139.0610 C   0  0  0  0  0  0  0  0  0  0  0  0
  182.1370  179.4230  139.1660 C   0  0  0  0  0  0  0  0  0  0  0  0
  187.8430  178.3450  139.3470 N   0  0  1  0  0  0  0  0  0  0  0  0
  187.7080  178.6390  141.7810 C   0  0  0  0  0  2  0  0  0  0  0  0
  180.2000  179.8470  140.0880 N   0  0  0  0  0  0  0  0  0  0  0  0
  189.9090  178.1330  140.7650 C   0  0  0  0  0  2  0  0  0  0  0  0
  186.0990  178.4550  144.1450 C   0  0  0  0  0  3  0  0  0  0  0  0
  186.2540  178.4980  141.6830 N   0  0  0  0  0  0  0  0  0  0  0  0
  185.4710  178.5210  142.8880 C   0  0  0  0  0  0  0  0  0  0  0  0
  183.4070  178.6620  141.5420 N   0  0  0  0  0  0  0  0  0  0  0  0
  180.1190  180.2470  138.8260 N   0  0  0  0  0  0  0  0  0  0  0  0
  188.8840  176.2370  138.4050 C   0  0  0  0  0  2  0  0  0  0  0  0
  188.3970  177.8980  140.6420 C   0  0  2  0  0  3  0  0  0  0  0  0
  181.3050  179.9970  138.2190 C   0  0  0  0  0  3  0  0  0  0  0  0
  188.4700  177.7030  138.1790 C   0  0  0  0  0  2  0  0  0  0  0  0
  190.7620  177.3950  139.7270 C   0  0  1  0  0  3  0  0  0  0  0  0
  183.3280  178.6650  144.0140 C   0  0  0  0  0  3  0  0  0  0  0  0
  184.0710  178.6150  142.8200 C   0  0  0  0  0  0  0  0  0  0  0  0
  181.9310  178.6790  141.5410 C   0  0  0  0  0  2  0  0  0  0  0  0
  186.4290  177.9810  139.3060 C   0  0  0  0  0  2  0  0  0  0  0  0
  184.0760  178.8990  137.9410 O   0  0  0  0  0  0  0  0  0  0  0  0
  179.1040  179.9240  141.0380 C   0  0  0  0  0  1  0  0  0  0  0  0
  184.1570  178.3220  140.3020 C   0  0  2  0  0  3  0  0  0  0  0  0
  181.4240  179.3550  140.3150 C   0  0  0  0  0  0  0  0  0  0  0  0
  192.0920  177.1680  140.2710 N   0  0  0  0  0  2  0  0  0  0  0  0
  193.2500  177.0330  139.4450 C   0  0  0  0  0  0  0  0  0  0  0  0
  193.1600  177.1320  138.1920 O   0  0  0  0  0  0  0  0  0  0  0  0
  194.5170  176.7880  140.0430 N   0  0  0  0  0  1  0  0  0  0  0  0
  1 20  1  0  0  0  0
  2 24  1  6  0  0  0
  2 12  1  0  0  0  0
  4  3  1  0  0  0  0
  5  6  1  0  0  0  0
  6 28  2  0  0  0  0
  7 19  1  6  0  0  0
  7 17  1  0  0  0  0
  9 28  1  0  0  0  0
  9 26  1  0  0  0  0
 11  3  2  0  0  0  0
 12  8  1  0  0  0  0
 12 13  1  0  0  0  0
 13 11  1  0  0  0  0
 14 22  1  0  0  0  0
 15  9  1  0  0  0  0
 16  1  1  0  0  0  0
 17 10  1  6  0  0  0
 17  8  1  0  0  0  0
 18 15  2  0  0  0  0
 18  6  1  0  0  0  0
 19 16  1  0  0  0  0
 20 29  1  1  0  0  0
 20 10  1  0  0  0  0
 21  4  2  0  0  0  0
 22 13  2  0  0  0  0
 22 21  1  0  0  0  0
 23 14  1  0  0  0  0
 24  7  1  0  0  0  0
 25  5  2  0  0  0  0
 27  5  1  6  0  0  0
 27  2  1  0  0  0  0
 27 14  1  0  0  0  0
 28 23  1  0  0  0  0
 30 32  1  0  0  0  0
 30 29  1  0  0  0  0
 31 30  2  0  0  0  0
M  END
>  <MODEL>
7

>  <REMARK>
 VINA RESULT:      -7.9      3.097      4.850
  Name = 
  1 active torsions:
  status: ('A' for Active; 'I' for Inactive)
    1  A    between atoms: C_20  and  N_29
                            x       y       z     vdW  Elec       q    Type
                         _______ _______ _______ _____ _____    ______ ____

>  <TORSDO>
F 1

$$$$
