=
 OpenBabel11122411503D

 28 32  0  0  1  0  0  0  0  0999 V2000
  185.0350  178.7950  144.0760 C   0  0  0  0  0  0  0  0  0  0  0  0
  188.8110  179.9580  141.4070 O   0  0  0  0  0  0  0  0  0  0  0  0
  182.4180  175.8780  139.8980 C   0  0  0  0  0  1  0  0  0  0  0  0
  186.8870  176.8500  144.8750 C   0  0  0  0  0  3  0  0  0  0  0  0
  183.7220  177.7700  138.7320 C   0  0  1  0  0  3  0  0  0  0  0  0
  183.9660  179.7660  143.7220 C   0  0  0  0  0  2  0  0  0  0  0  0
  188.9600  177.5540  141.9220 O   0  0  0  0  0  0  0  0  0  0  0  0
  188.4400  178.5750  140.9530 S   0  0  0  0  0  0  0  0  0  0  0  0
  188.3000  178.8620  138.2290 C   0  0  1  0  0  3  0  0  0  0  0  0
  186.7060  178.4530  140.7230 C   0  0  0  0  0  0  0  0  0  0  0  0
  180.5760  178.5500  142.7590 O   0  0  0  0  0  1  0  0  0  0  0  0
  184.5060  178.2170  140.9040 N   0  0  0  0  0  0  0  0  0  0  0  0
  186.9230  178.3650  138.2460 N   0  0  0  0  0  2  0  0  0  0  0  0
  189.1480  178.2410  139.3440 C   0  0  0  0  0  2  0  0  0  0  0  0
  181.6940  179.3830  142.7040 C   0  0  2  0  0  3  0  0  0  0  0  0
  185.7690  178.0860  143.0960 C   0  0  0  0  0  0  0  0  0  0  0  0
  182.6290  177.3820  139.7760 C   0  0  2  0  0  3  0  0  0  0  0  0
  188.9290  178.5640  136.8850 C   0  0  0  0  0  1  0  0  0  0  0  0
  182.3700  179.2580  141.3420 C   0  0  0  0  0  2  0  0  0  0  0  0
  186.6800  177.1080  143.5190 C   0  0  0  0  0  3  0  0  0  0  0  0
  185.2520  178.5320  145.4360 C   0  0  0  0  0  3  0  0  0  0  0  0
  186.1760  177.5670  145.8350 C   0  0  0  0  0  3  0  0  0  0  0  0
  182.6260  179.0600  143.8610 C   0  0  0  0  0  2  0  0  0  0  0  0
  184.8210  178.1870  139.6210 C   0  0  0  0  0  0  0  0  0  0  0  0
  183.1040  177.9330  141.1400 C   0  0  2  0  0  3  0  0  0  0  0  0
  186.1690  178.3680  139.4590 C   0  0  0  0  0  0  0  0  0  0  0  0
  184.1190  176.6840  137.9460 O   0  0  0  0  0  1  0  0  0  0  0  0
  185.6450  178.3360  141.6350 C   0  0  0  0  0  0  0  0  0  0  0  0
  1 21  1  0  0  0  0
  4 22  1  0  0  0  0
  5 27  1  1  0  0  0
  5 24  1  0  0  0  0
  5 17  1  0  0  0  0
  6 23  1  0  0  0  0
  6  1  1  0  0  0  0
  8  2  2  0  0  0  0
  8  7  2  0  0  0  0
  9 18  1  6  0  0  0
  9 13  1  0  0  0  0
  9 14  1  0  0  0  0
 10  8  1  0  0  0  0
 10 28  2  0  0  0  0
 12 25  1  0  0  0  0
 12 28  1  0  0  0  0
 13 26  1  0  0  0  0
 14  8  1  0  0  0  0
 15 11  1  6  0  0  0
 15 23  1  0  0  0  0
 16 20  1  0  0  0  0
 16  1  2  0  0  0  0
 17  3  1  1  0  0  0
 17 25  1  0  0  0  0
 19 15  1  0  0  0  0
 20  4  2  0  0  0  0
 21 22  2  0  0  0  0
 24 12  1  0  0  0  0
 25 19  1  6  0  0  0
 26 24  2  0  0  0  0
 26 10  1  0  0  0  0
 28 16  1  0  0  0  0
M  END
>  <MODEL>
1

>  <REMARK>
 VINA RESULT:      -6.8      0.000      0.000
  Name = 
  0 active torsions:
  status: ('A' for Active; 'I' for Inactive)
                            x       y       z     vdW  Elec       q    Type
                         _______ _______ _______ _____ _____    ______ ____

>  <TORSDO>
F 0

$$$$
=
 OpenBabel11122411503D

 28 32  0  0  1  0  0  0  0  0999 V2000
  191.0820  175.4670  136.8410 C   0  0  0  0  0  0  0  0  0  0  0  0
  186.9910  177.6130  135.6650 O   0  0  0  0  0  0  0  0  0  0  0  0
  190.2850  176.0500  142.4840 C   0  0  0  0  0  1  0  0  0  0  0  0
  189.4190  173.2580  136.3900 C   0  0  0  0  0  3  0  0  0  0  0  0
  189.1740  178.1040  141.3950 C   0  0  1  0  0  3  0  0  0  0  0  0
  192.0530  176.5580  137.1220 C   0  0  0  0  0  2  0  0  0  0  0  0
  186.4430  175.4040  136.6080 O   0  0  0  0  0  0  0  0  0  0  0  0
  186.6710  176.8550  136.9210 S   0  0  0  0  0  0  0  0  0  0  0  0
  185.4970  178.7730  138.4910 C   0  0  1  0  0  3  0  0  0  0  0  0
  187.9350  177.0880  138.1130 C   0  0  0  0  0  0  0  0  0  0  0  0
  193.9890  176.5680  140.3080 O   0  0  0  0  0  1  0  0  0  0  0  0
  189.7540  177.0290  139.3850 N   0  0  0  0  0  0  0  0  0  0  0  0
  186.4870  178.5230  139.5400 N   0  0  0  0  0  2  0  0  0  0  0  0
  185.1880  177.5100  137.6800 C   0  0  0  0  0  2  0  0  0  0  0  0
  193.2860  177.1310  139.2430 C   0  0  2  0  0  3  0  0  0  0  0  0
  189.7890  175.4390  137.4140 C   0  0  0  0  0  0  0  0  0  0  0  0
  190.4800  177.2750  141.6000 C   0  0  2  0  0  3  0  0  0  0  0  0
  184.2220  179.3020  139.1130 C   0  0  0  0  0  1  0  0  0  0  0  0
  192.0140  177.8010  139.7530 C   0  0  0  0  0  2  0  0  0  0  0  0
  188.9790  174.3180  137.1840 C   0  0  0  0  0  3  0  0  0  0  0  0
  191.5150  174.4000  136.0420 C   0  0  0  0  0  3  0  0  0  0  0  0
  190.6870  173.3020  135.8120 C   0  0  0  0  0  3  0  0  0  0  0  0
  193.0160  176.0660  138.1920 C   0  0  0  0  0  2  0  0  0  0  0  0
  188.8430  177.7630  140.0000 C   0  0  0  0  0  0  0  0  0  0  0  0
  190.9360  176.8130  140.1970 C   0  0  2  0  0  3  0  0  0  0  0  0
  187.7140  177.8590  139.2320 C   0  0  0  0  0  0  0  0  0  0  0  0
  188.1450  177.6990  142.2520 O   0  0  0  0  0  1  0  0  0  0  0  0
  189.2270  176.5490  138.2290 C   0  0  0  0  0  0  0  0  0  0  0  0
  1  6  1  0  0  0  0
  1 16  1  0  0  0  0
  2  8  2  0  0  0  0
  4 20  1  0  0  0  0
  5 17  1  0  0  0  0
  5 27  1  1  0  0  0
  6 23  1  0  0  0  0
  7  8  2  0  0  0  0
  8 14  1  0  0  0  0
  8 10  1  0  0  0  0
  9 18  1  1  0  0  0
  9 13  1  0  0  0  0
 10 28  2  0  0  0  0
 10 26  1  0  0  0  0
 12 24  1  0  0  0  0
 12 25  1  0  0  0  0
 14  9  1  0  0  0  0
 15 19  1  0  0  0  0
 15 11  1  1  0  0  0
 16 28  1  0  0  0  0
 17  3  1  1  0  0  0
 20 16  2  0  0  0  0
 21  1  2  0  0  0  0
 22 21  1  0  0  0  0
 22  4  2  0  0  0  0
 23 15  1  0  0  0  0
 24  5  1  0  0  0  0
 25 19  1  6  0  0  0
 25 17  1  0  0  0  0
 26 13  1  0  0  0  0
 26 24  2  0  0  0  0
 28 12  1  0  0  0  0
M  END
>  <MODEL>
2

>  <REMARK>
 VINA RESULT:      -6.6      3.607      8.037
  Name = 
  0 active torsions:
  status: ('A' for Active; 'I' for Inactive)
                            x       y       z     vdW  Elec       q    Type
                         _______ _______ _______ _____ _____    ______ ____

>  <TORSDO>
F 0

$$$$
=
 OpenBabel11122411503D

 28 32  0  0  1  0  0  0  0  0999 V2000
  188.0310  174.1960  135.5850 C   0  0  0  0  0  0  0  0  0  0  0  0
  183.9510  176.6540  135.7770 O   0  0  0  0  0  0  0  0  0  0  0  0
  190.2680  176.6820  140.2360 C   0  0  0  0  0  1  0  0  0  0  0  0
  186.3430  172.3490  136.8460 C   0  0  0  0  0  3  0  0  0  0  0  0
  188.7830  178.4700  139.1210 C   0  0  1  0  0  3  0  0  0  0  0  0
  189.0230  175.0950  134.9380 C   0  0  0  0  0  2  0  0  0  0  0  0
  183.9370  175.0180  137.6200 O   0  0  0  0  0  0  0  0  0  0  0  0
  184.3140  176.4140  137.2150 S   0  0  0  0  0  0  0  0  0  0  0  0
  184.1460  178.9280  138.2980 C   0  0  1  0  0  3  0  0  0  0  0  0
  186.0150  176.7460  137.4770 C   0  0  0  0  0  0  0  0  0  0  0  0
  192.3250  175.7130  136.5550 O   0  0  0  0  0  1  0  0  0  0  0  0
  188.2290  176.7190  137.6510 N   0  0  0  0  0  0  0  0  0  0  0  0
  185.5310  178.8240  138.7580 N   0  0  0  0  0  2  0  0  0  0  0  0
  183.4450  177.5650  138.2740 C   0  0  0  0  0  2  0  0  0  0  0  0
  191.1820  176.0430  135.8270 C   0  0  2  0  0  3  0  0  0  0  0  0
  187.2180  174.6170  136.6640 C   0  0  0  0  0  0  0  0  0  0  0  0
  189.9960  177.4980  138.9780 C   0  0  2  0  0  3  0  0  0  0  0  0
  183.3830  179.8770  139.1970 C   0  0  0  0  0  1  0  0  0  0  0  0
  190.3650  177.0860  136.5840 C   0  0  0  0  0  2  0  0  0  0  0  0
  186.3910  173.6720  137.2870 C   0  0  0  0  0  3  0  0  0  0  0  0
  187.9740  172.8660  135.1460 C   0  0  0  0  0  3  0  0  0  0  0  0
  187.1310  171.9470  135.7690 C   0  0  0  0  0  3  0  0  0  0  0  0
  190.3930  174.7800  135.5200 C   0  0  0  0  0  2  0  0  0  0  0  0
  187.7760  177.7810  138.2960 C   0  0  0  0  0  0  0  0  0  0  0  0
  189.6570  176.5330  137.8200 C   0  0  2  0  0  3  0  0  0  0  0  0
  186.4140  177.8600  138.1830 C   0  0  0  0  0  0  0  0  0  0  0  0
  188.3390  178.5770  140.4430 O   0  0  0  0  0  1  0  0  0  0  0  0
  187.1740  176.0180  137.1610 C   0  0  0  0  0  0  0  0  0  0  0  0
  1 16  1  0  0  0  0
  2  8  2  0  0  0  0
  4 20  1  0  0  0  0
  5 27  1  1  0  0  0
  6 23  1  0  0  0  0
  6  1  1  0  0  0  0
  8 10  1  0  0  0  0
  8  7  2  0  0  0  0
  8 14  1  0  0  0  0
  9 13  1  0  0  0  0
  9 18  1  1  0  0  0
 10 26  1  0  0  0  0
 12 25  1  0  0  0  0
 12 24  1  0  0  0  0
 14  9  1  0  0  0  0
 15 11  1  1  0  0  0
 15 19  1  0  0  0  0
 16 28  1  0  0  0  0
 16 20  2  0  0  0  0
 17  5  1  0  0  0  0
 17  3  1  1  0  0  0
 21  1  2  0  0  0  0
 21 22  1  0  0  0  0
 22  4  2  0  0  0  0
 23 15  1  0  0  0  0
 24  5  1  0  0  0  0
 25 19  1  6  0  0  0
 25 17  1  0  0  0  0
 26 24  2  0  0  0  0
 26 13  1  0  0  0  0
 28 10  2  0  0  0  0
 28 12  1  0  0  0  0
M  END
>  <MODEL>
3

>  <REMARK>
 VINA RESULT:      -6.3      3.863      8.066
  Name = 
  0 active torsions:
  status: ('A' for Active; 'I' for Inactive)
                            x       y       z     vdW  Elec       q    Type
                         _______ _______ _______ _____ _____    ______ ____

>  <TORSDO>
F 0

$$$$
=
 OpenBabel11122411503D

 28 32  0  0  1  0  0  0  0  0999 V2000
  186.1370  177.7200  142.9460 C   0  0  0  0  0  0  0  0  0  0  0  0
  187.5570  175.9550  138.7510 O   0  0  0  0  0  0  0  0  0  0  0  0
  191.3050  179.7580  144.3430 C   0  0  0  0  0  1  0  0  0  0  0  0
  185.3240  179.7520  141.1970 C   0  0  0  0  0  3  0  0  0  0  0  0
  191.7350  177.6400  142.9400 C   0  0  1  0  0  3  0  0  0  0  0  0
  186.5360  176.7180  143.9700 C   0  0  0  0  0  2  0  0  0  0  0  0
  187.5060  178.4110  138.5600 O   0  0  0  0  0  0  0  0  0  0  0  0
  188.3490  177.2200  138.9150 S   0  0  0  0  0  0  0  0  0  0  0  0
  190.9180  176.3780  138.4520 C   0  0  1  0  0  3  0  0  0  0  0  0
  189.0010  177.3260  140.5390 C   0  0  0  0  0  0  0  0  0  0  0  0
  188.4910  177.7750  146.9630 O   0  0  0  0  0  1  0  0  0  0  0  0
  189.3940  177.6380  142.7020 N   0  0  0  0  0  0  0  0  0  0  0  0
  191.3240  176.8950  139.7600 N   0  0  0  0  0  2  0  0  0  0  0  0
  189.7800  177.2000  137.8390 C   0  0  0  0  0  2  0  0  0  0  0  0
  188.1160  176.9270  145.9210 C   0  0  2  0  0  3  0  0  0  0  0  0
  187.0370  178.1960  141.9630 C   0  0  0  0  0  0  0  0  0  0  0  0
  191.0760  178.2580  144.2120 C   0  0  2  0  0  3  0  0  0  0  0  0
  192.1070  176.3780  137.5160 C   0  0  0  0  0  1  0  0  0  0  0  0
  189.2770  176.7530  144.9470 C   0  0  0  0  0  2  0  0  0  0  0  0
  186.6120  179.2220  141.1070 C   0  0  0  0  0  3  0  0  0  0  0  0
  184.8450  178.2560  143.0260 C   0  0  0  0  0  3  0  0  0  0  0  0
  184.4360  179.2630  142.1540 C   0  0  0  0  0  3  0  0  0  0  0  0
  186.8590  177.4640  145.2560 C   0  0  0  0  0  2  0  0  0  0  0  0
  190.5470  177.3950  142.1020 C   0  0  0  0  0  0  0  0  0  0  0  0
  189.5570  177.9930  144.0980 C   0  0  2  0  0  3  0  0  0  0  0  0
  190.3480  177.1580  140.7690 C   0  0  0  0  0  0  0  0  0  0  0  0
  192.6030  178.5320  142.3030 O   0  0  0  0  0  1  0  0  0  0  0  0
  188.4070  177.6510  141.7690 C   0  0  0  0  0  0  0  0  0  0  0  0
  1 21  1  0  0  0  0
  1  6  1  0  0  0  0
  2  8  2  0  0  0  0
  4 22  1  0  0  0  0
  5 27  1  6  0  0  0
  5 17  1  0  0  0  0
  6 23  1  0  0  0  0
  7  8  2  0  0  0  0
  8 10  1  0  0  0  0
  9 18  1  6  0  0  0
  9 13  1  0  0  0  0
 10 26  1  0  0  0  0
 10 28  2  0  0  0  0
 12 25  1  0  0  0  0
 13 26  1  0  0  0  0
 14  9  1  0  0  0  0
 14  8  1  0  0  0  0
 15 11  1  1  0  0  0
 16  1  2  0  0  0  0
 17  3  1  6  0  0  0
 19 15  1  0  0  0  0
 20  4  2  0  0  0  0
 20 16  1  0  0  0  0
 22 21  2  0  0  0  0
 23 15  1  0  0  0  0
 24 12  1  0  0  0  0
 24  5  1  0  0  0  0
 25 17  1  0  0  0  0
 25 19  1  1  0  0  0
 26 24  2  0  0  0  0
 28 16  1  0  0  0  0
 28 12  1  0  0  0  0
M  END
>  <MODEL>
4

>  <REMARK>
 VINA RESULT:      -5.9      3.074      5.813
  Name = 
  0 active torsions:
  status: ('A' for Active; 'I' for Inactive)
                            x       y       z     vdW  Elec       q    Type
                         _______ _______ _______ _____ _____    ______ ____

>  <TORSDO>
F 0

$$$$
=
 OpenBabel11122411503D

 28 32  0  0  1  0  0  0  0  0999 V2000
  190.5950  176.8970  138.7390 C   0  0  0  0  0  0  0  0  0  0  0  0
  187.0450  179.3110  136.6650 O   0  0  0  0  0  0  0  0  0  0  0  0
  187.7390  176.0170  143.6260 C   0  0  0  0  0  1  0  0  0  0  0  0
  189.4140  174.8940  137.1760 C   0  0  0  0  0  3  0  0  0  0  0  0
  186.9260  178.2920  142.7300 C   0  0  1  0  0  3  0  0  0  0  0  0
  191.2950  177.8700  139.6190 C   0  0  0  0  0  2  0  0  0  0  0  0
  186.3880  176.9390  136.7690 O   0  0  0  0  0  0  0  0  0  0  0  0
  186.3560  178.2580  137.4850 S   0  0  0  0  0  0  0  0  0  0  0  0
  184.5240  179.7190  138.9110 C   0  0  1  0  0  3  0  0  0  0  0  0
  187.0700  178.1650  139.0840 C   0  0  0  0  0  0  0  0  0  0  0  0
  191.9210  177.0430  143.2000 O   0  0  0  0  0  1  0  0  0  0  0  0
  188.2950  177.7650  140.8910 N   0  0  0  0  0  0  0  0  0  0  0  0
  185.0800  179.1980  140.1610 N   0  0  0  0  0  2  0  0  0  0  0  0
  184.6470  178.7100  137.7640 C   0  0  0  0  0  2  0  0  0  0  0  0
  191.6100  177.8670  142.1190 C   0  0  2  0  0  3  0  0  0  0  0  0
  189.1890  176.7350  138.7570 C   0  0  0  0  0  0  0  0  0  0  0  0
  188.1350  177.4270  143.2050 C   0  0  2  0  0  3  0  0  0  0  0  0
  183.0690  180.0820  139.1150 C   0  0  0  0  0  1  0  0  0  0  0  0
  190.1850  178.3950  142.2580 C   0  0  0  0  0  2  0  0  0  0  0  0
  188.6220  175.7180  137.9760 C   0  0  0  0  0  3  0  0  0  0  0  0
  191.3820  176.0670  137.9290 C   0  0  0  0  0  3  0  0  0  0  0  0
  190.7960  175.0730  137.1470 C   0  0  0  0  0  3  0  0  0  0  0  0
  191.8380  177.1110  140.8200 C   0  0  0  0  0  2  0  0  0  0  0  0
  187.1610  178.3240  141.2760 C   0  0  0  0  0  0  0  0  0  0  0  0
  189.1120  177.3360  142.0110 C   0  0  2  0  0  3  0  0  0  0  0  0
  186.3870  178.6250  140.1870 C   0  0  0  0  0  0  0  0  0  0  0  0
  185.6960  177.6900  143.0120 O   0  0  0  0  0  1  0  0  0  0  0  0
  188.2720  177.6020  139.5430 C   0  0  0  0  0  0  0  0  0  0  0  0
  1 16  1  0  0  0  0
  1  6  1  0  0  0  0
  2  8  2  0  0  0  0
  4 20  1  0  0  0  0
  5 27  1  6  0  0  0
  5 17  1  0  0  0  0
  6 23  1  0  0  0  0
  7  8  2  0  0  0  0
  8 14  1  0  0  0  0
  8 10  1  0  0  0  0
  9 18  1  1  0  0  0
  9 13  1  0  0  0  0
 10 28  2  0  0  0  0
 10 26  1  0  0  0  0
 12 24  1  0  0  0  0
 12 25  1  0  0  0  0
 13 26  1  0  0  0  0
 14  9  1  0  0  0  0
 15 19  1  0  0  0  0
 15 11  1  1  0  0  0
 16 28  1  0  0  0  0
 17  3  1  6  0  0  0
 20 16  2  0  0  0  0
 21  1  2  0  0  0  0
 22  4  2  0  0  0  0
 22 21  1  0  0  0  0
 23 15  1  0  0  0  0
 24  5  1  0  0  0  0
 25 19  1  1  0  0  0
 25 17  1  0  0  0  0
 26 24  2  0  0  0  0
 28 12  1  0  0  0  0
M  END
>  <MODEL>
5

>  <REMARK>
 VINA RESULT:      -5.9      2.852      6.683
  Name = 
  0 active torsions:
  status: ('A' for Active; 'I' for Inactive)
                            x       y       z     vdW  Elec       q    Type
                         _______ _______ _______ _____ _____    ______ ____

>  <TORSDO>
F 0

$$$$
=
 OpenBabel11122411503D

 28 32  0  0  1  0  0  0  0  0999 V2000
  182.9390  177.8780  136.8970 C   0  0  0  0  0  0  0  0  0  0  0  0
  187.4630  179.3780  136.9840 O   0  0  0  0  0  0  0  0  0  0  0  0
  184.2980  172.3350  137.3890 C   0  0  0  0  0  1  0  0  0  0  0  0
  183.2090  178.6350  139.5810 C   0  0  0  0  0  3  0  0  0  0  0  0
  186.2250  173.4230  136.0690 C   0  0  1  0  0  3  0  0  0  0  0  0
  182.6810  177.4300  135.5020 C   0  0  0  0  0  2  0  0  0  0  0  0
  186.8710  178.6280  139.2540 O   0  0  0  0  0  0  0  0  0  0  0  0
  187.4350  178.2100  137.9280 S   0  0  0  0  0  0  0  0  0  0  0  0
  189.5250  176.6740  137.0350 C   0  0  1  0  0  3  0  0  0  0  0  0
  186.5500  176.8730  137.2180 C   0  0  0  0  0  0  0  0  0  0  0  0
  181.2390  174.0520  134.8570 O   0  0  0  0  0  1  0  0  0  0  0  0
  185.0440  175.4130  136.4890 N   0  0  0  0  0  0  0  0  0  0  0  0
  188.6180  175.5380  136.8630 N   0  0  0  0  0  2  0  0  0  0  0  0
  189.0920  177.5840  138.1890 C   0  0  0  0  0  2  0  0  0  0  0  0
  182.0570  175.1560  134.6140 C   0  0  2  0  0  3  0  0  0  0  0  0
  184.0730  177.4550  137.6300 C   0  0  0  0  0  0  0  0  0  0  0  0
  184.6960  173.1210  136.1460 C   0  0  2  0  0  3  0  0  0  0  0  0
  190.9300  176.1680  137.2860 C   0  0  0  0  0  1  0  0  0  0  0  0
  183.5240  174.7530  134.7310 C   0  0  0  0  0  2  0  0  0  0  0  0
  184.1800  177.8360  138.9750 C   0  0  0  0  0  3  0  0  0  0  0  0
  181.9710  178.6830  137.5120 C   0  0  0  0  0  3  0  0  0  0  0  0
  182.1060  179.0650  138.8460 C   0  0  0  0  0  3  0  0  0  0  0  0
  181.6760  176.2890  135.5540 C   0  0  0  0  0  2  0  0  0  0  0  0
  186.2410  174.8630  136.3810 C   0  0  0  0  0  0  0  0  0  0  0  0
  183.9750  174.4880  136.1670 C   0  0  2  0  0  3  0  0  0  0  0  0
  187.2070  175.7440  136.7850 C   0  0  0  0  0  0  0  0  0  0  0  0
  186.9580  172.7100  137.0230 O   0  0  0  0  0  1  0  0  0  0  0  0
  185.1740  176.6460  137.0450 C   0  0  0  0  0  0  0  0  0  0  0  0
  1 21  2  0  0  0  0
  1 16  1  0  0  0  0
  2  8  2  0  0  0  0
  5 17  1  0  0  0  0
  5 24  1  0  0  0  0
  5 27  1  1  0  0  0
  6 23  1  0  0  0  0
  6  1  1  0  0  0  0
  8 14  1  0  0  0  0
  8  7  2  0  0  0  0
  9 18  1  1  0  0  0
  9 14  1  0  0  0  0
 10  8  1  0  0  0  0
 12 28  1  0  0  0  0
 13  9  1  0  0  0  0
 15 19  1  0  0  0  0
 15 11  1  1  0  0  0
 15 23  1  0  0  0  0
 16 20  2  0  0  0  0
 17 25  1  0  0  0  0
 17  3  1  1  0  0  0
 20  4  1  0  0  0  0
 21 22  1  0  0  0  0
 22  4  2  0  0  0  0
 24 12  1  0  0  0  0
 24 26  2  0  0  0  0
 25 19  1  6  0  0  0
 25 12  1  0  0  0  0
 26 13  1  0  0  0  0
 26 10  1  0  0  0  0
 28 10  2  0  0  0  0
 28 16  1  0  0  0  0
M  END
>  <MODEL>
6

>  <REMARK>
 VINA RESULT:      -5.6      3.957      6.041
  Name = 
  0 active torsions:
  status: ('A' for Active; 'I' for Inactive)
                            x       y       z     vdW  Elec       q    Type
                         _______ _______ _______ _____ _____    ______ ____

>  <TORSDO>
F 0

$$$$
=
 OpenBabel11122411503D

 28 32  0  0  1  0  0  0  0  0999 V2000
  189.3640  177.7790  137.7740 C   0  0  0  0  0  0  0  0  0  0  0  0
  193.9650  177.1280  136.7060 O   0  0  0  0  0  0  0  0  0  0  0  0
  187.7780  172.5260  136.1310 C   0  0  0  0  0  1  0  0  0  0  0  0
  190.4230  177.1500  140.2900 C   0  0  0  0  0  3  0  0  0  0  0  0
  189.7400  173.1860  134.5970 C   0  0  1  0  0  3  0  0  0  0  0  0
  188.6870  178.1100  136.4920 C   0  0  0  0  0  2  0  0  0  0  0  0
  193.4590  175.8000  138.7190 O   0  0  0  0  0  0  0  0  0  0  0  0
  193.5040  175.7930  137.2190 S   0  0  0  0  0  0  0  0  0  0  0  0
  194.3420  174.0800  135.2480 C   0  0  1  0  0  3  0  0  0  0  0  0
  191.9590  175.3680  136.5080 C   0  0  0  0  0  0  0  0  0  0  0  0
  185.6450  176.2260  135.4410 O   0  0  0  0  0  1  0  0  0  0  0  0
  189.8230  175.1010  135.9610 N   0  0  0  0  0  0  0  0  0  0  0  0
  192.9700  173.5980  135.0820 N   0  0  0  0  0  2  0  0  0  0  0  0
  194.6290  174.5060  136.6910 C   0  0  0  0  0  2  0  0  0  0  0  0
  186.8570  176.8930  135.2590 C   0  0  2  0  0  3  0  0  0  0  0  0
  190.2290  176.6680  137.9090 C   0  0  0  0  0  0  0  0  0  0  0  0
  188.3070  173.5270  135.1120 C   0  0  2  0  0  3  0  0  0  0  0  0
  195.3130  172.9950  134.8340 C   0  0  0  0  0  1  0  0  0  0  0  0
  187.9110  175.9230  134.7340 C   0  0  0  0  0  2  0  0  0  0  0  0
  190.7360  176.3650  139.1800 C   0  0  0  0  0  3  0  0  0  0  0  0
  189.0570  178.5650  138.8940 C   0  0  0  0  0  3  0  0  0  0  0  0
  189.5870  178.2560  140.1460 C   0  0  0  0  0  3  0  0  0  0  0  0
  187.2670  177.5690  136.5580 C   0  0  0  0  0  2  0  0  0  0  0  0
  190.5380  174.2150  135.2870 C   0  0  0  0  0  0  0  0  0  0  0  0
  188.3960  174.9190  135.7790 C   0  0  2  0  0  3  0  0  0  0  0  0
  191.8690  174.3690  135.5650 C   0  0  0  0  0  0  0  0  0  0  0  0
  190.1560  171.9080  134.9840 O   0  0  0  0  0  1  0  0  0  0  0  0
  190.6520  175.8130  136.7680 C   0  0  0  0  0  0  0  0  0  0  0  0
  1 16  2  0  0  0  0
  1 21  1  0  0  0  0
  2  8  2  0  0  0  0
  5 27  1  1  0  0  0
  5 17  1  0  0  0  0
  5 24  1  0  0  0  0
  6 23  1  0  0  0  0
  6  1  1  0  0  0  0
  8  7  2  0  0  0  0
  9 18  1  1  0  0  0
  9 14  1  0  0  0  0
 10 28  2  0  0  0  0
 10  8  1  0  0  0  0
 12 28  1  0  0  0  0
 13  9  1  0  0  0  0
 13 26  1  0  0  0  0
 14  8  1  0  0  0  0
 15 11  1  1  0  0  0
 15 23  1  0  0  0  0
 16 20  1  0  0  0  0
 17 25  1  0  0  0  0
 17  3  1  1  0  0  0
 19 15  1  0  0  0  0
 20  4  2  0  0  0  0
 21 22  2  0  0  0  0
 22  4  1  0  0  0  0
 24 26  2  0  0  0  0
 24 12  1  0  0  0  0
 25 19  1  6  0  0  0
 25 12  1  0  0  0  0
 26 10  1  0  0  0  0
 28 16  1  0  0  0  0
M  END
>  <MODEL>
7

>  <REMARK>
 VINA RESULT:      -5.5      5.725      7.858
  Name = 
  0 active torsions:
  status: ('A' for Active; 'I' for Inactive)
                            x       y       z     vdW  Elec       q    Type
                         _______ _______ _______ _____ _____    ______ ____

>  <TORSDO>
F 0

$$$$
=
 OpenBabel11122411503D

 28 32  0  0  1  0  0  0  0  0999 V2000
  188.4800  177.7550  137.3650 C   0  0  0  0  0  0  0  0  0  0  0  0
  192.3610  175.6540  135.5610 O   0  0  0  0  0  0  0  0  0  0  0  0
  185.3940  172.9310  137.5220 C   0  0  0  0  0  1  0  0  0  0  0  0
  190.0140  177.3690  139.6770 C   0  0  0  0  0  3  0  0  0  0  0  0
  186.9640  172.7020  135.4920 C   0  0  1  0  0  3  0  0  0  0  0  0
  187.5710  177.9990  136.2130 C   0  0  0  0  0  2  0  0  0  0  0  0
  192.1390  174.9450  137.9110 O   0  0  0  0  0  0  0  0  0  0  0  0
  191.7740  174.6290  136.4900 S   0  0  0  0  0  0  0  0  0  0  0  0
  191.6500  172.3940  134.9040 C   0  0  1  0  0  3  0  0  0  0  0  0
  190.0400  174.5160  136.2560 C   0  0  0  0  0  0  0  0  0  0  0  0
  184.0220  176.8650  136.3540 O   0  0  0  0  0  1  0  0  0  0  0  0
  187.8320  174.7500  136.2600 N   0  0  0  0  0  0  0  0  0  0  0  0
  190.2130  172.2890  135.1620 N   0  0  0  0  0  2  0  0  0  0  0  0
  192.4030  173.0010  136.0930 C   0  0  0  0  0  2  0  0  0  0  0  0
  185.2560  177.1180  135.7540 C   0  0  2  0  0  3  0  0  0  0  0  0
  189.0830  176.4970  137.6000 C   0  0  0  0  0  0  0  0  0  0  0  0
  185.8360  173.5230  136.1900 C   0  0  2  0  0  3  0  0  0  0  0  0
  192.2110  171.0220  134.5940 C   0  0  0  0  0  1  0  0  0  0  0  0
  185.8890  175.8100  135.2910 C   0  0  0  0  0  2  0  0  0  0  0  0
  189.8350  176.3240  138.7700 C   0  0  0  0  0  3  0  0  0  0  0  0
  188.6670  178.8010  138.2790 C   0  0  0  0  0  3  0  0  0  0  0  0
  189.4340  178.6120  139.4280 C   0  0  0  0  0  3  0  0  0  0  0  0
  186.1390  177.8980  136.7150 C   0  0  0  0  0  2  0  0  0  0  0  0
  188.1250  173.5850  135.7060 C   0  0  0  0  0  0  0  0  0  0  0  0
  186.4050  174.9390  136.4360 C   0  0  2  0  0  3  0  0  0  0  0  0
  189.4820  173.4150  135.6470 C   0  0  0  0  0  0  0  0  0  0  0  0
  187.1780  171.4630  136.1030 O   0  0  0  0  0  1  0  0  0  0  0  0
  188.9830  175.3490  136.6600 C   0  0  0  0  0  0  0  0  0  0  0  0
  1 16  2  0  0  0  0
  1 21  1  0  0  0  0
  2  8  2  0  0  0  0
  5 24  1  0  0  0  0
  5 27  1  1  0  0  0
  5 17  1  0  0  0  0
  6 23  1  0  0  0  0
  6  1  1  0  0  0  0
  8  7  2  0  0  0  0
  9 18  1  1  0  0  0
  9 13  1  0  0  0  0
  9 14  1  0  0  0  0
 10  8  1  0  0  0  0
 10 28  2  0  0  0  0
 12 25  1  0  0  0  0
 12 28  1  0  0  0  0
 13 26  1  0  0  0  0
 14  8  1  0  0  0  0
 15 11  1  1  0  0  0
 15 23  1  0  0  0  0
 16 20  1  0  0  0  0
 17 25  1  0  0  0  0
 17  3  1  1  0  0  0
 19 15  1  0  0  0  0
 20  4  2  0  0  0  0
 21 22  2  0  0  0  0
 22  4  1  0  0  0  0
 24 12  1  0  0  0  0
 25 19  1  6  0  0  0
 26 24  2  0  0  0  0
 26 10  1  0  0  0  0
 28 16  1  0  0  0  0
M  END
>  <MODEL>
8

>  <REMARK>
 VINA RESULT:      -5.3      5.437      7.118
  Name = 
  0 active torsions:
  status: ('A' for Active; 'I' for Inactive)
                            x       y       z     vdW  Elec       q    Type
                         _______ _______ _______ _____ _____    ______ ____

>  <TORSDO>
F 0

$$$$
=
 OpenBabel11122411503D

 28 32  0  0  1  0  0  0  0  0999 V2000
  186.1770  174.1110  135.4240 C   0  0  0  0  0  0  0  0  0  0  0  0
  182.1040  176.4760  136.1630 O   0  0  0  0  0  0  0  0  0  0  0  0
  189.0390  176.8500  139.5620 C   0  0  0  0  0  1  0  0  0  0  0  0
  184.7640  172.2810  137.0070 C   0  0  0  0  0  3  0  0  0  0  0  0
  187.3440  178.5510  138.6270 C   0  0  1  0  0  3  0  0  0  0  0  0
  187.0270  175.0050  134.5940 C   0  0  0  0  0  2  0  0  0  0  0  0
  182.4290  174.9220  138.0470 O   0  0  0  0  0  0  0  0  0  0  0  0
  182.6950  176.3080  137.5330 S   0  0  0  0  0  0  0  0  0  0  0  0
  182.6230  178.8620  138.5300 C   0  0  1  0  0  3  0  0  0  0  0  0
  184.4060  176.6920  137.5100 C   0  0  0  0  0  0  0  0  0  0  0  0
  190.5220  175.7720  135.6430 O   0  0  0  0  0  1  0  0  0  0  0  0
  186.6190  176.7260  137.3320 N   0  0  0  0  0  0  0  0  0  0  0  0
  184.0660  178.8110  138.7690 N   0  0  0  0  0  2  0  0  0  0  0  0
  181.9690  177.4830  138.6710 C   0  0  0  0  0  2  0  0  0  0  0  0
  189.2680  176.0420  135.0920 C   0  0  2  0  0  3  0  0  0  0  0  0
  185.5310  174.5590  136.6010 C   0  0  0  0  0  0  0  0  0  0  0  0
  188.5490  177.6030  138.3320 C   0  0  2  0  0  3  0  0  0  0  0  0
  181.9820  179.8300  139.5010 C   0  0  0  0  0  1  0  0  0  0  0  0
  188.5490  177.0970  135.9270 C   0  0  0  0  0  2  0  0  0  0  0  0
  184.8410  173.6220  137.3830 C   0  0  0  0  0  3  0  0  0  0  0  0
  186.0920  172.7620  135.0520 C   0  0  0  0  0  3  0  0  0  0  0  0
  185.3850  171.8510  135.8350 C   0  0  0  0  0  3  0  0  0  0  0  0
  188.4800  174.7480  134.9640 C   0  0  0  0  0  2  0  0  0  0  0  0
  186.2410  177.8030  137.9990 C   0  0  0  0  0  0  0  0  0  0  0  0
  188.0610  176.5810  137.2800 C   0  0  2  0  0  3  0  0  0  0  0  0
  184.8760  177.8440  138.1000 C   0  0  0  0  0  0  0  0  0  0  0  0
  187.1100  178.7040  139.9970 O   0  0  0  0  0  1  0  0  0  0  0  0
  185.5220  175.9780  137.0440 C   0  0  0  0  0  0  0  0  0  0  0  0
  1 16  1  0  0  0  0
  2  8  2  0  0  0  0
  4 20  1  0  0  0  0
  5 27  1  1  0  0  0
  6 23  1  0  0  0  0
  6  1  1  0  0  0  0
  8  7  2  0  0  0  0
  8 14  1  0  0  0  0
  9 14  1  0  0  0  0
  9 13  1  0  0  0  0
  9 18  1  1  0  0  0
 10  8  1  0  0  0  0
 10 26  1  0  0  0  0
 12 24  1  0  0  0  0
 15 11  1  1  0  0  0
 15 19  1  0  0  0  0
 16 28  1  0  0  0  0
 16 20  2  0  0  0  0
 17  5  1  0  0  0  0
 17  3  1  1  0  0  0
 21  1  2  0  0  0  0
 21 22  1  0  0  0  0
 22  4  2  0  0  0  0
 23 15  1  0  0  0  0
 24 26  2  0  0  0  0
 24  5  1  0  0  0  0
 25 19  1  6  0  0  0
 25 12  1  0  0  0  0
 25 17  1  0  0  0  0
 26 13  1  0  0  0  0
 28 12  1  0  0  0  0
 28 10  2  0  0  0  0
M  END
>  <MODEL>
9

>  <REMARK>
 VINA RESULT:      -5.3      3.877      7.903
  Name = 
  0 active torsions:
  status: ('A' for Active; 'I' for Inactive)
                            x       y       z     vdW  Elec       q    Type
                         _______ _______ _______ _____ _____    ______ ____

>  <TORSDO>
F 0

$$$$
