=
 OpenBabel11122410213D

 30 35  0  0  1  0  0  0  0  0999 V2000
  187.8060  177.8170  140.7350 C   0  0  0  0  0  0  0  0  0  0  0  0
  189.6430  177.0000  142.2190 C   0  0  0  0  0  0  0  0  0  0  0  0
  185.2480  178.3330  143.9790 O   0  0  0  0  0  0  0  0  0  0  0  0
  186.4920  178.3320  140.6030 C   0  0  0  0  0  0  0  0  0  0  0  0
  188.5900  177.6160  139.5520 N   0  0  0  0  0  2  0  0  0  0  0  0
  186.7690  179.2260  137.0770 O   0  0  0  0  0  0  0  0  0  0  0  0
  183.8460  177.3900  139.7450 C   0  0  1  0  0  3  0  0  0  0  0  0
  186.9070  178.5980  138.1150 C   0  0  0  0  0  0  0  0  0  0  0  0
  183.4090  177.8040  141.1510 C   0  0  2  0  0  3  0  0  0  0  0  0
  184.1030  178.7770  143.3280 C   0  0  0  0  0  0  0  0  0  0  0  0
  187.9970  177.5780  138.2170 C   0  0  2  0  0  3  0  0  0  0  0  0
  185.9710  178.8420  139.2690 C   0  0  1  0  0  3  0  0  0  0  0  0
  190.0960  176.6950  143.5060 C   0  0  0  0  0  3  0  0  0  0  0  0
  182.0670  178.2030  141.0880 O   0  0  0  0  0  0  0  0  0  0  0  0
  182.5510  176.9640  139.1120 C   0  0  0  0  0  2  0  0  0  0  0  0
  190.5160  176.8040  141.1560 O   0  0  0  0  0  1  0  0  0  0  0  0
  186.2020  178.1410  142.9970 C   0  0  0  0  0  0  0  0  0  0  0  0
  189.2680  176.8700  144.6140 C   0  0  0  0  0  3  0  0  0  0  0  0
  188.3290  177.4960  142.0250 C   0  0  0  0  0  0  0  0  0  0  0  0
  185.7160  178.4680  141.7550 C   0  0  0  0  0  0  0  0  0  0  0  0
  183.0430  179.0760  143.9380 O   0  0  0  0  0  0  0  0  0  0  0  0
  184.2770  178.8650  141.8390 C   0  0  1  0  0  3  0  0  0  0  0  0
  181.4900  177.3610  140.1220 C   0  0  0  0  0  2  0  0  0  0  0  0
  183.6860  179.7690  138.7830 C   0  0  0  0  0  1  0  0  0  0  0  0
  187.9720  177.3550  144.4480 C   0  0  0  0  0  3  0  0  0  0  0  0
  187.5000  177.6680  143.1710 C   0  0  0  0  0  0  0  0  0  0  0  0
  184.5160  178.4960  138.9000 C   0  0  2  0  0  3  0  0  0  0  0  0
  187.4320  176.1920  137.9300 C   0  0  0  0  0  2  0  0  0  0  0  0
  188.6050  176.3710  135.8910 O   0  0  0  0  0  0  0  0  0  0  0  0
  187.9560  175.6570  136.6370 C   0  0  0  0  0  3  0  0  0  0  0  0
  1 19  1  0  0  0  0
  2 13  1  0  0  0  0
  4  1  2  0  0  0  0
  4 20  1  0  0  0  0
  5  1  1  0  0  0  0
  6  8  2  0  0  0  0
  7 15  1  6  0  0  0
  7  9  1  0  0  0  0
  8 11  1  0  0  0  0
  9 14  1  6  0  0  0
  9 22  1  0  0  0  0
 10 21  2  0  0  0  0
 10  3  1  0  0  0  0
 11 28  1  1  0  0  0
 11  5  1  0  0  0  0
 12  8  1  6  0  0  0
 12  4  1  0  0  0  0
 13 18  2  0  0  0  0
 15 23  1  0  0  0  0
 16  2  1  0  0  0  0
 17 26  1  0  0  0  0
 17  3  1  0  0  0  0
 19  2  2  0  0  0  0
 19 26  1  0  0  0  0
 20 17  2  0  0  0  0
 22 20  1  1  0  0  0
 22 10  1  0  0  0  0
 23 14  1  0  0  0  0
 25 18  1  0  0  0  0
 26 25  2  0  0  0  0
 27 24  1  1  0  0  0
 27 12  1  0  0  0  0
 27  7  1  0  0  0  0
 29 30  2  0  0  0  0
 30 28  1  0  0  0  0
M  END
>  <MODEL>
1

>  <REMARK>
 VINA RESULT:      -7.4      0.000      0.000
  Name = 
  2 active torsions:
  status: ('A' for Active; 'I' for Inactive)
    1  A    between atoms: C_11  and  C_28
    2  A    between atoms: C_28  and  C_30
                            x       y       z     vdW  Elec       q    Type
                         _______ _______ _______ _____ _____    ______ ____

>  <TORSDO>
F 2

$$$$
=
 OpenBabel11122410213D

 30 35  0  0  1  0  0  0  0  0999 V2000
  189.6280  177.3160  138.5990 C   0  0  0  0  0  0  0  0  0  0  0  0
  190.6920  177.4040  140.8580 C   0  0  0  0  0  0  0  0  0  0  0  0
  186.0120  178.7200  140.1130 O   0  0  0  0  0  0  0  0  0  0  0  0
  188.4940  177.5560  137.7820 C   0  0  0  0  0  0  0  0  0  0  0  0
  190.8080  176.7720  137.9960 N   0  0  0  0  0  2  0  0  0  0  0  0
  190.1810  177.0180  134.5940 O   0  0  0  0  0  0  0  0  0  0  0  0
  186.3740  176.0080  136.4680 C   0  0  1  0  0  3  0  0  0  0  0  0
  189.8720  176.8740  135.7660 C   0  0  0  0  0  0  0  0  0  0  0  0
  185.4290  176.8790  137.2980 C   0  0  2  0  0  3  0  0  0  0  0  0
  185.2370  178.7140  138.9600 C   0  0  0  0  0  0  0  0  0  0  0  0
  190.7930  176.1330  136.6830 C   0  0  2  0  0  3  0  0  0  0  0  0
  188.5650  177.4250  136.2700 C   0  0  1  0  0  3  0  0  0  0  0  0
  190.5850  177.6940  142.2220 C   0  0  0  0  0  3  0  0  0  0  0  0
  184.2390  177.0380  136.5760 O   0  0  0  0  0  0  0  0  0  0  0  0
  185.4220  175.1980  135.6330 C   0  0  0  0  0  2  0  0  0  0  0  0
  191.9080  176.9230  140.3860 O   0  0  0  0  0  1  0  0  0  0  0  0
  187.2700  178.2870  139.7370 C   0  0  0  0  0  0  0  0  0  0  0  0
  189.3930  178.1790  142.7570 C   0  0  0  0  0  3  0  0  0  0  0  0
  189.5820  177.6030  139.9980 C   0  0  0  0  0  0  0  0  0  0  0  0
  187.3300  178.0300  138.3890 C   0  0  0  0  0  0  0  0  0  0  0  0
  184.0340  179.0850  138.9430 O   0  0  0  0  0  0  0  0  0  0  0  0
  185.9910  178.2320  137.7540 C   0  0  1  0  0  3  0  0  0  0  0  0
  184.0620  175.8150  135.9070 C   0  0  0  0  0  2  0  0  0  0  0  0
  186.6970  177.7700  134.6250 C   0  0  0  0  0  1  0  0  0  0  0  0
  188.2880  178.3810  141.9310 C   0  0  0  0  0  3  0  0  0  0  0  0
  188.3740  178.1000  140.5650 C   0  0  0  0  0  0  0  0  0  0  0  0
  187.3650  176.7700  135.5610 C   0  0  2  0  0  3  0  0  0  0  0  0
  190.3380  174.6840  136.8070 C   0  0  0  0  0  2  0  0  0  0  0  0
  192.5380  173.9540  137.2510 O   0  0  0  0  0  0  0  0  0  0  0  0
  191.4910  173.7450  136.6600 C   0  0  0  0  0  3  0  0  0  0  0  0
  1 19  1  0  0  0  0
  2 13  1  0  0  0  0
  4 20  1  0  0  0  0
  4  1  2  0  0  0  0
  5  1  1  0  0  0  0
  6  8  2  0  0  0  0
  7 15  1  6  0  0  0
  7  9  1  0  0  0  0
  8 11  1  0  0  0  0
  9 14  1  6  0  0  0
  9 22  1  0  0  0  0
 10  3  1  0  0  0  0
 11 28  1  1  0  0  0
 11  5  1  0  0  0  0
 12  8  1  1  0  0  0
 12  4  1  0  0  0  0
 13 18  2  0  0  0  0
 15 23  1  0  0  0  0
 16  2  1  0  0  0  0
 17  3  1  0  0  0  0
 17 26  1  0  0  0  0
 19 26  1  0  0  0  0
 19  2  2  0  0  0  0
 20 17  2  0  0  0  0
 21 10  2  0  0  0  0
 22 20  1  1  0  0  0
 22 10  1  0  0  0  0
 23 14  1  0  0  0  0
 25 18  1  0  0  0  0
 26 25  2  0  0  0  0
 27 24  1  1  0  0  0
 27 12  1  0  0  0  0
 27  7  1  0  0  0  0
 30 28  1  0  0  0  0
 30 29  2  0  0  0  0
M  END
>  <MODEL>
2

>  <REMARK>
 VINA RESULT:      -6.9      2.498      3.919
  Name = 
  2 active torsions:
  status: ('A' for Active; 'I' for Inactive)
    1  A    between atoms: C_11  and  C_28
    2  A    between atoms: C_28  and  C_30
                            x       y       z     vdW  Elec       q    Type
                         _______ _______ _______ _____ _____    ______ ____

>  <TORSDO>
F 2

$$$$
=
 OpenBabel11122410213D

 30 35  0  0  1  0  0  0  0  0999 V2000
  186.7240  177.8080  141.4580 C   0  0  0  0  0  0  0  0  0  0  0  0
  184.3920  178.6740  141.2130 C   0  0  0  0  0  0  0  0  0  0  0  0
  186.4420  177.8750  145.6110 O   0  0  0  0  0  0  0  0  0  0  0  0
  187.7720  177.3720  142.3070 C   0  0  0  0  0  0  0  0  0  0  0  0
  186.9380  177.8060  140.0410 N   0  0  0  0  0  2  0  0  0  0  0  0
  189.8920  176.0300  139.6590 O   0  0  0  0  0  0  0  0  0  0  0  0
  190.3420  178.3790  143.3080 C   0  0  1  0  0  3  0  0  0  0  0  0
  189.1170  176.7720  140.2420 C   0  0  0  0  0  0  0  0  0  0  0  0
  189.7150  178.1740  144.6880 C   0  0  2  0  0  3  0  0  0  0  0  0
  187.7130  177.4330  145.9570 C   0  0  0  0  0  0  0  0  0  0  0  0
  188.2710  177.7190  139.4510 C   0  0  2  0  0  3  0  0  0  0  0  0
  189.0340  176.7370  141.7450 C   0  0  1  0  0  3  0  0  0  0  0  0
  183.2060  179.1050  141.8130 C   0  0  0  0  0  3  0  0  0  0  0  0
  190.7410  177.8620  145.5890 O   0  0  0  0  0  0  0  0  0  0  0  0
  191.7410  178.8110  143.6460 C   0  0  0  0  0  2  0  0  0  0  0  0
  184.4600  178.6770  139.8240 O   0  0  0  0  0  1  0  0  0  0  0  0
  186.3940  177.8770  144.2300 C   0  0  0  0  0  0  0  0  0  0  0  0
  183.0750  179.1260  143.2010 C   0  0  0  0  0  3  0  0  0  0  0  0
  185.4840  178.2490  142.0130 C   0  0  0  0  0  0  0  0  0  0  0  0
  187.5750  177.4330  143.6870 C   0  0  0  0  0  0  0  0  0  0  0  0
  188.0840  177.2850  147.1510 O   0  0  0  0  0  0  0  0  0  0  0  0
  188.5760  177.1490  144.7610 C   0  0  1  0  0  3  0  0  0  0  0  0
  191.8430  178.6160  145.1480 C   0  0  0  0  0  2  0  0  0  0  0  0
  191.0270  175.9160  143.0360 C   0  0  0  0  0  1  0  0  0  0  0  0
  184.1340  178.7140  144.0090 C   0  0  0  0  0  3  0  0  0  0  0  0
  185.3280  178.2780  143.4290 C   0  0  0  0  0  0  0  0  0  0  0  0
  190.3730  177.1340  142.3940 C   0  0  2  0  0  3  0  0  0  0  0  0
  188.9270  179.0940  139.4250 C   0  0  0  0  0  2  0  0  0  0  0  0
  188.3690  179.4250  137.1570 O   0  0  0  0  0  0  0  0  0  0  0  0
  189.2220  179.5210  138.0240 C   0  0  0  0  0  3  0  0  0  0  0  0
  1 19  2  0  0  0  0
  1  4  1  0  0  0  0
  2 13  2  0  0  0  0
  2 19  1  0  0  0  0
  3 10  1  0  0  0  0
  4 20  2  0  0  0  0
  5  1  1  0  0  0  0
  6  8  2  0  0  0  0
  7 15  1  1  0  0  0
  7  9  1  0  0  0  0
  9 22  1  0  0  0  0
  9 14  1  1  0  0  0
 10 21  2  0  0  0  0
 11 28  1  1  0  0  0
 11  5  1  0  0  0  0
 11  8  1  0  0  0  0
 12  8  1  6  0  0  0
 12  4  1  0  0  0  0
 12 27  1  0  0  0  0
 13 18  1  0  0  0  0
 15 23  1  0  0  0  0
 16  2  1  0  0  0  0
 17  3  1  0  0  0  0
 18 25  2  0  0  0  0
 19 26  1  0  0  0  0
 20 17  1  0  0  0  0
 22 20  1  6  0  0  0
 22 10  1  0  0  0  0
 23 14  1  0  0  0  0
 26 25  1  0  0  0  0
 26 17  2  0  0  0  0
 27 24  1  1  0  0  0
 27  7  1  0  0  0  0
 29 30  2  0  0  0  0
 30 28  1  0  0  0  0
M  END
>  <MODEL>
3

>  <REMARK>
 VINA RESULT:      -6.8      2.037      5.789
  Name = 
  2 active torsions:
  status: ('A' for Active; 'I' for Inactive)
    1  A    between atoms: C_11  and  C_28
    2  A    between atoms: C_28  and  C_30
                            x       y       z     vdW  Elec       q    Type
                         _______ _______ _______ _____ _____    ______ ____

>  <TORSDO>
F 2

$$$$
=
 OpenBabel11122410213D

 30 35  0  0  1  0  0  0  0  0999 V2000
  188.3090  178.0590  140.2910 C   0  0  0  0  0  0  0  0  0  0  0  0
  186.1630  178.8080  141.3300 C   0  0  0  0  0  0  0  0  0  0  0  0
  186.4910  177.6050  136.5730 O   0  0  0  0  0  0  0  0  0  0  0  0
  189.0200  177.6570  139.1320 C   0  0  0  0  0  0  0  0  0  0  0  0
  189.0080  178.1260  141.5400 N   0  0  0  0  0  2  0  0  0  0  0  0
  192.3410  177.8070  140.6320 O   0  0  0  0  0  0  0  0  0  0  0  0
  190.0930  175.1850  137.9680 C   0  0  1  0  0  3  0  0  0  0  0  0
  191.1420  177.6070  140.5200 C   0  0  0  0  0  0  0  0  0  0  0  0
  189.1970  175.5330  136.7770 C   0  0  2  0  0  3  0  0  0  0  0  0
  187.5660  177.1430  135.8220 C   0  0  0  0  0  0  0  0  0  0  0  0
  190.2990  177.4760  141.7500 C   0  0  2  0  0  3  0  0  0  0  0  0
  190.5290  177.4780  139.1510 C   0  0  1  0  0  3  0  0  0  0  0  0
  184.8030  179.0970  141.1920 C   0  0  0  0  0  3  0  0  0  0  0  0
  189.8070  175.0400  135.6170 O   0  0  0  0  0  0  0  0  0  0  0  0
  190.8150  173.9590  137.4840 C   0  0  0  0  0  2  0  0  0  0  0  0
  186.7370  178.9550  142.5870 O   0  0  0  0  0  1  0  0  0  0  0  0
  186.9740  177.8210  137.8490 C   0  0  0  0  0  0  0  0  0  0  0  0
  184.1680  178.9690  139.9570 C   0  0  0  0  0  3  0  0  0  0  0  0
  186.9190  178.3790  140.2090 C   0  0  0  0  0  0  0  0  0  0  0  0
  188.3160  177.5380  137.9330 C   0  0  0  0  0  0  0  0  0  0  0  0
  187.4770  176.8740  134.5960 O   0  0  0  0  0  0  0  0  0  0  0  0
  188.8270  177.0140  136.6280 C   0  0  1  0  0  3  0  0  0  0  0  0
  190.4280  173.8460  136.0210 C   0  0  0  0  0  2  0  0  0  0  0  0
  191.9970  176.7530  137.2450 C   0  0  0  0  0  1  0  0  0  0  0  0
  184.8890  178.5470  138.8410 C   0  0  0  0  0  3  0  0  0  0  0  0
  186.2510  178.2550  138.9570 C   0  0  0  0  0  0  0  0  0  0  0  0
  191.1070  176.2730  138.3840 C   0  0  2  0  0  3  0  0  0  0  0  0
  190.1010  176.0020  142.0810 C   0  0  0  0  0  2  0  0  0  0  0  0
  191.5080  176.4490  143.9210 O   0  0  0  0  0  0  0  0  0  0  0  0
  190.9130  175.6060  143.2700 C   0  0  0  0  0  3  0  0  0  0  0  0
  1  5  1  0  0  0  0
  2 16  1  0  0  0  0
  3 17  1  0  0  0  0
  4  1  2  0  0  0  0
  5 11  1  0  0  0  0
  7 15  1  6  0  0  0
  7 27  1  0  0  0  0
  8  6  2  0  0  0  0
  8 11  1  0  0  0  0
  9 14  1  6  0  0  0
  9  7  1  0  0  0  0
 10  3  1  0  0  0  0
 11 28  1  6  0  0  0
 12  4  1  1  0  0  0
 12  8  1  0  0  0  0
 13  2  1  0  0  0  0
 14 23  1  0  0  0  0
 17 20  2  0  0  0  0
 17 26  1  0  0  0  0
 18 13  2  0  0  0  0
 19  1  1  0  0  0  0
 19  2  2  0  0  0  0
 20  4  1  0  0  0  0
 21 10  2  0  0  0  0
 22 10  1  6  0  0  0
 22  9  1  0  0  0  0
 22 20  1  0  0  0  0
 23 15  1  0  0  0  0
 25 26  2  0  0  0  0
 25 18  1  0  0  0  0
 26 19  1  0  0  0  0
 27 24  1  6  0  0  0
 27 12  1  0  0  0  0
 28 30  1  0  0  0  0
 30 29  2  0  0  0  0
M  END
>  <MODEL>
4

>  <REMARK>
 VINA RESULT:      -6.6      2.098      6.670
  Name = 
  2 active torsions:
  status: ('A' for Active; 'I' for Inactive)
    1  A    between atoms: C_11  and  C_28
    2  A    between atoms: C_28  and  C_30
                            x       y       z     vdW  Elec       q    Type
                         _______ _______ _______ _____ _____    ______ ____

>  <TORSDO>
F 2

$$$$
=
 OpenBabel11122410213D

 30 35  0  0  1  0  0  0  0  0999 V2000
  186.3570  178.4530  139.6600 C   0  0  0  0  0  0  0  0  0  0  0  0
  185.7030  178.8200  142.0440 C   0  0  0  0  0  0  0  0  0  0  0  0
  182.4140  177.6790  138.5690 O   0  0  0  0  0  0  0  0  0  0  0  0
  185.9680  178.1780  138.3240 C   0  0  0  0  0  0  0  0  0  0  0  0
  187.7470  178.6440  139.9480 N   0  0  0  0  0  2  0  0  0  0  0  0
  189.2070  178.9070  136.8130 O   0  0  0  0  0  0  0  0  0  0  0  0
  186.0440  175.9260  136.4420 C   0  0  1  0  0  3  0  0  0  0  0  0
  188.3820  178.5020  137.6170 C   0  0  0  0  0  0  0  0  0  0  0  0
  184.5260  176.1090  136.3940 C   0  0  2  0  0  3  0  0  0  0  0  0
  182.5760  177.4080  137.2160 C   0  0  0  0  0  0  0  0  0  0  0  0
  188.8020  178.2300  139.0270 C   0  0  2  0  0  3  0  0  0  0  0  0
  186.9620  178.2640  137.1770 C   0  0  1  0  0  3  0  0  0  0  0  0
  184.6990  178.8680  143.0160 C   0  0  0  0  0  3  0  0  0  0  0  0
  184.0830  175.7260  135.1210 O   0  0  0  0  0  0  0  0  0  0  0  0
  186.2740  174.8430  135.4260 C   0  0  0  0  0  2  0  0  0  0  0  0
  187.0110  179.0690  142.4420 O   0  0  0  0  0  1  0  0  0  0  0  0
  183.6710  177.9790  139.0580 C   0  0  0  0  0  0  0  0  0  0  0  0
  183.3680  178.6270  142.6800 C   0  0  0  0  0  3  0  0  0  0  0  0
  185.3750  178.5260  140.6950 C   0  0  0  0  0  0  0  0  0  0  0  0
  184.6190  177.9340  138.0650 C   0  0  0  0  0  0  0  0  0  0  0  0
  181.6130  177.1240  136.4560 O   0  0  0  0  0  0  0  0  0  0  0  0
  184.0070  177.5030  136.7700 C   0  0  1  0  0  3  0  0  0  0  0  0
  184.9230  174.6590  134.7580 C   0  0  0  0  0  2  0  0  0  0  0  0
  186.5210  177.7990  134.7470 C   0  0  0  0  0  1  0  0  0  0  0  0
  183.0220  178.3340  141.3620 C   0  0  0  0  0  3  0  0  0  0  0  0
  184.0090  178.2840  140.3740 C   0  0  0  0  0  0  0  0  0  0  0  0
  186.8810  177.1750  136.0900 C   0  0  2  0  0  3  0  0  0  0  0  0
  189.0970  176.7450  139.1970 C   0  0  0  0  0  2  0  0  0  0  0  0
  190.9310  175.3380  138.7190 O   0  0  0  0  0  0  0  0  0  0  0  0
  190.5520  176.4620  139.0040 C   0  0  0  0  0  3  0  0  0  0  0  0
  1  5  1  0  0  0  0
  1 19  1  0  0  0  0
  2 16  1  0  0  0  0
  2 13  1  0  0  0  0
  3 17  1  0  0  0  0
  4  1  2  0  0  0  0
  6  8  2  0  0  0  0
  7 15  1  6  0  0  0
  8 11  1  0  0  0  0
  9 14  1  6  0  0  0
  9  7  1  0  0  0  0
  9 22  1  0  0  0  0
 10  3  1  0  0  0  0
 11 28  1  6  0  0  0
 11  5  1  0  0  0  0
 12  8  1  1  0  0  0
 12  4  1  0  0  0  0
 17 26  1  0  0  0  0
 18 13  2  0  0  0  0
 19  2  2  0  0  0  0
 20  4  1  0  0  0  0
 20 17  2  0  0  0  0
 21 10  2  0  0  0  0
 22 10  1  1  0  0  0
 22 20  1  0  0  0  0
 23 14  1  0  0  0  0
 23 15  1  0  0  0  0
 25 18  1  0  0  0  0
 26 19  1  0  0  0  0
 26 25  2  0  0  0  0
 27 24  1  6  0  0  0
 27  7  1  0  0  0  0
 27 12  1  0  0  0  0
 29 30  2  0  0  0  0
 30 28  1  0  0  0  0
M  END
>  <MODEL>
5

>  <REMARK>
 VINA RESULT:      -6.5      2.355      4.688
  Name = 
  2 active torsions:
  status: ('A' for Active; 'I' for Inactive)
    1  A    between atoms: C_11  and  C_28
    2  A    between atoms: C_28  and  C_30
                            x       y       z     vdW  Elec       q    Type
                         _______ _______ _______ _____ _____    ______ ____

>  <TORSDO>
F 2

$$$$
=
 OpenBabel11122410213D

 30 35  0  0  1  0  0  0  0  0999 V2000
  189.0660  177.4370  139.8330 C   0  0  0  0  0  0  0  0  0  0  0  0
  189.7690  177.1770  142.2170 C   0  0  0  0  0  0  0  0  0  0  0  0
  185.2760  178.7350  140.9640 O   0  0  0  0  0  0  0  0  0  0  0  0
  188.0750  177.8250  138.8960 C   0  0  0  0  0  0  0  0  0  0  0  0
  190.3200  176.9440  139.3450 N   0  0  0  0  0  2  0  0  0  0  0  0
  190.2300  177.6780  135.9570 O   0  0  0  0  0  0  0  0  0  0  0  0
  186.1680  176.5420  137.0690 C   0  0  1  0  0  3  0  0  0  0  0  0
  189.7420  177.3830  137.0360 C   0  0  0  0  0  0  0  0  0  0  0  0
  185.1150  177.3210  137.8610 C   0  0  2  0  0  3  0  0  0  0  0  0
  184.6880  178.9130  139.7170 C   0  0  0  0  0  0  0  0  0  0  0  0
  190.5020  176.4930  137.9680 C   0  0  2  0  0  3  0  0  0  0  0  0
  188.3780  177.9020  137.4090 C   0  0  1  0  0  3  0  0  0  0  0  0
  189.4560  177.2790  143.5760 C   0  0  0  0  0  3  0  0  0  0  0  0
  184.0530  177.6170  136.9960 O   0  0  0  0  0  0  0  0  0  0  0  0
  185.3480  175.8870  135.9930 C   0  0  0  0  0  2  0  0  0  0  0  0
  191.0380  176.7270  141.8720 O   0  0  0  0  0  1  0  0  0  0  0  0
  186.5710  178.3170  140.7260 C   0  0  0  0  0  0  0  0  0  0  0  0
  188.1990  177.7240  143.9860 C   0  0  0  0  0  3  0  0  0  0  0  0
  188.8080  177.5290  141.2350 C   0  0  0  0  0  0  0  0  0  0  0  0
  186.8360  178.2470  139.3800 C   0  0  0  0  0  0  0  0  0  0  0  0
  183.5070  179.3220  139.5700 O   0  0  0  0  0  0  0  0  0  0  0  0
  185.6140  178.5780  138.5840 C   0  0  1  0  0  3  0  0  0  0  0  0
  183.9690  176.5040  136.1420 C   0  0  0  0  0  2  0  0  0  0  0  0
  186.7920  178.5310  135.5650 C   0  0  0  0  0  1  0  0  0  0  0  0
  187.2380  178.0730  143.0400 C   0  0  0  0  0  3  0  0  0  0  0  0
  187.5310  177.9810  141.6770 C   0  0  0  0  0  0  0  0  0  0  0  0
  187.2950  177.3900  136.4400 C   0  0  2  0  0  3  0  0  0  0  0  0
  190.0170  175.0560  137.8150 C   0  0  0  0  0  2  0  0  0  0  0  0
  192.2520  174.3550  137.5270 O   0  0  0  0  0  0  0  0  0  0  0  0
  191.0820  174.1920  137.2220 C   0  0  0  0  0  3  0  0  0  0  0  0
  1 19  1  0  0  0  0
  2 13  1  0  0  0  0
  4 20  1  0  0  0  0
  4  1  2  0  0  0  0
  5  1  1  0  0  0  0
  6  8  2  0  0  0  0
  7 15  1  6  0  0  0
  7  9  1  0  0  0  0
  8 11  1  0  0  0  0
  9 14  1  6  0  0  0
  9 22  1  0  0  0  0
 10  3  1  0  0  0  0
 11 28  1  1  0  0  0
 11  5  1  0  0  0  0
 12  8  1  1  0  0  0
 12  4  1  0  0  0  0
 13 18  2  0  0  0  0
 15 23  1  0  0  0  0
 16  2  1  0  0  0  0
 17  3  1  0  0  0  0
 17 26  1  0  0  0  0
 19 26  1  0  0  0  0
 19  2  2  0  0  0  0
 20 17  2  0  0  0  0
 21 10  2  0  0  0  0
 22 20  1  1  0  0  0
 22 10  1  0  0  0  0
 23 14  1  0  0  0  0
 25 18  1  0  0  0  0
 26 25  2  0  0  0  0
 27 24  1  1  0  0  0
 27  7  1  0  0  0  0
 27 12  1  0  0  0  0
 30 29  2  0  0  0  0
 30 28  1  0  0  0  0
M  END
>  <MODEL>
6

>  <REMARK>
 VINA RESULT:      -6.4      2.060      3.157
  Name = 
  2 active torsions:
  status: ('A' for Active; 'I' for Inactive)
    1  A    between atoms: C_11  and  C_28
    2  A    between atoms: C_28  and  C_30
                            x       y       z     vdW  Elec       q    Type
                         _______ _______ _______ _____ _____    ______ ____

>  <TORSDO>
F 2

$$$$
=
 OpenBabel11122410213D

 30 35  0  0  1  0  0  0  0  0999 V2000
  187.0650  178.2790  143.0810 C   0  0  0  0  0  0  0  0  0  0  0  0
  185.6000  178.1710  145.1030 C   0  0  0  0  0  0  0  0  0  0  0  0
  183.8350  179.2510  140.6410 O   0  0  0  0  0  0  0  0  0  0  0  0
  187.2000  178.5380  141.6940 C   0  0  0  0  0  0  0  0  0  0  0  0
  188.2260  177.8890  143.8260 N   0  0  0  0  0  2  0  0  0  0  0  0
  190.8470  178.4930  141.6360 O   0  0  0  0  0  0  0  0  0  0  0  0
  187.5390  177.0180  139.2050 C   0  0  1  0  0  3  0  0  0  0  0  0
  189.7020  178.1910  141.9310 C   0  0  0  0  0  0  0  0  0  0  0  0
  186.2500  177.7200  138.7760 C   0  0  2  0  0  3  0  0  0  0  0  0
  184.4670  179.3300  139.4060 C   0  0  0  0  0  0  0  0  0  0  0  0
  189.4450  177.4100  143.1810 C   0  0  2  0  0  3  0  0  0  0  0  0
  188.5650  178.5910  141.0270 C   0  0  1  0  0  3  0  0  0  0  0  0
  184.3260  178.2900  145.6660 C   0  0  0  0  0  3  0  0  0  0  0  0
  186.2870  177.8840  137.3850 O   0  0  0  0  0  0  0  0  0  0  0  0
  187.9190  176.2500  137.9700 C   0  0  0  0  0  2  0  0  0  0  0  0
  186.6550  177.8310  145.9410 O   0  0  0  0  0  1  0  0  0  0  0  0
  184.8200  178.9500  141.5620 C   0  0  0  0  0  0  0  0  0  0  0  0
  183.2270  178.6280  144.8780 C   0  0  0  0  0  3  0  0  0  0  0  0
  185.7910  178.3950  143.7150 C   0  0  0  0  0  0  0  0  0  0  0  0
  186.0540  178.8580  140.9660 C   0  0  0  0  0  0  0  0  0  0  0  0
  183.8570  179.6190  138.3430 O   0  0  0  0  0  0  0  0  0  0  0  0
  185.9390  179.0440  139.4860 C   0  0  1  0  0  3  0  0  0  0  0  0
  186.9490  176.7390  136.9090 C   0  0  0  0  0  2  0  0  0  0  0  0
  189.0550  179.0030  138.5970 C   0  0  0  0  0  1  0  0  0  0  0  0
  183.3880  178.8520  143.5120 C   0  0  0  0  0  3  0  0  0  0  0  0
  184.6530  178.7400  142.9290 C   0  0  0  0  0  0  0  0  0  0  0  0
  188.6970  177.9460  139.6350 C   0  0  2  0  0  3  0  0  0  0  0  0
  189.3160  175.9290  142.8440 C   0  0  0  0  0  2  0  0  0  0  0  0
  191.5320  175.7820  143.6420 O   0  0  0  0  0  0  0  0  0  0  0  0
  190.5560  175.1850  143.2190 C   0  0  0  0  0  3  0  0  0  0  0  0
  1 19  1  0  0  0  0
  1  5  1  0  0  0  0
  2 13  1  0  0  0  0
  2 16  1  0  0  0  0
  3 17  1  0  0  0  0
  4  1  2  0  0  0  0
  6  8  2  0  0  0  0
  7 15  1  6  0  0  0
  7 27  1  0  0  0  0
  8 11  1  0  0  0  0
  9 14  1  6  0  0  0
  9  7  1  0  0  0  0
  9 22  1  0  0  0  0
 10  3  1  0  0  0  0
 11 28  1  6  0  0  0
 11  5  1  0  0  0  0
 12  4  1  1  0  0  0
 12  8  1  0  0  0  0
 17 26  1  0  0  0  0
 18 13  2  0  0  0  0
 19  2  2  0  0  0  0
 20 17  2  0  0  0  0
 20  4  1  0  0  0  0
 21 10  2  0  0  0  0
 22 10  1  1  0  0  0
 22 20  1  0  0  0  0
 23 14  1  0  0  0  0
 23 15  1  0  0  0  0
 25 18  1  0  0  0  0
 26 25  2  0  0  0  0
 26 19  1  0  0  0  0
 27 24  1  6  0  0  0
 27 12  1  0  0  0  0
 28 30  1  0  0  0  0
 30 29  2  0  0  0  0
M  END
>  <MODEL>
7

>  <REMARK>
 VINA RESULT:      -6.3      1.907      4.877
  Name = 
  2 active torsions:
  status: ('A' for Active; 'I' for Inactive)
    1  A    between atoms: C_11  and  C_28
    2  A    between atoms: C_28  and  C_30
                            x       y       z     vdW  Elec       q    Type
                         _______ _______ _______ _____ _____    ______ ____

>  <TORSDO>
F 2

$$$$
=
 OpenBabel11122410213D

 30 35  0  0  1  0  0  0  0  0999 V2000
  188.0000  177.9990  142.1920 C   0  0  0  0  0  0  0  0  0  0  0  0
  186.1920  178.3060  143.8900 C   0  0  0  0  0  0  0  0  0  0  0  0
  185.3120  178.5180  139.0560 O   0  0  0  0  0  0  0  0  0  0  0  0
  188.3950  177.9800  140.8300 C   0  0  0  0  0  0  0  0  0  0  0  0
  188.9880  177.7470  143.1990 N   0  0  0  0  0  2  0  0  0  0  0  0
  191.9860  177.8780  141.4600 O   0  0  0  0  0  0  0  0  0  0  0  0
  189.1010  175.9990  138.7810 C   0  0  1  0  0  3  0  0  0  0  0  0
  190.7930  177.6540  141.5890 C   0  0  0  0  0  0  0  0  0  0  0  0
  187.9450  176.6210  137.9950 C   0  0  2  0  0  3  0  0  0  0  0  0
  186.1580  178.3460  137.9670 C   0  0  0  0  0  0  0  0  0  0  0  0
  190.2780  177.1350  142.8950 C   0  0  2  0  0  3  0  0  0  0  0  0
  189.8580  177.8850  140.4310 C   0  0  1  0  0  3  0  0  0  0  0  0
  184.8450  178.5490  144.1730 C   0  0  0  0  0  3  0  0  0  0  0  0
  188.2400  176.5100  136.6300 O   0  0  0  0  0  0  0  0  0  0  0  0
  189.6590  175.0010  137.8060 C   0  0  0  0  0  2  0  0  0  0  0  0
  187.0620  178.1220  144.9580 O   0  0  0  0  0  1  0  0  0  0  0  0
  186.0990  178.3890  140.1840 C   0  0  0  0  0  0  0  0  0  0  0  0
  183.9230  178.7410  143.1450 C   0  0  0  0  0  3  0  0  0  0  0  0
  186.6390  178.2530  142.5450 C   0  0  0  0  0  0  0  0  0  0  0  0
  187.4140  178.1670  139.8550 C   0  0  0  0  0  0  0  0  0  0  0  0
  185.7650  178.4300  136.7740 O   0  0  0  0  0  0  0  0  0  0  0  0
  187.5770  178.0620  138.3720 C   0  0  1  0  0  3  0  0  0  0  0  0
  188.9200  175.2860  136.5110 C   0  0  0  0  0  2  0  0  0  0  0  0
  190.7960  177.8080  138.1010 C   0  0  0  0  0  1  0  0  0  0  0  0
  184.3380  178.6920  141.8160 C   0  0  0  0  0  3  0  0  0  0  0  0
  185.6800  178.4520  141.5100 C   0  0  0  0  0  0  0  0  0  0  0  0
  190.2060  176.9790  139.2350 C   0  0  2  0  0  3  0  0  0  0  0  0
  190.1400  175.6190  142.8260 C   0  0  0  0  0  2  0  0  0  0  0  0
  192.0540  175.6080  144.2060 O   0  0  0  0  0  0  0  0  0  0  0  0
  191.2170  174.9470  143.6140 C   0  0  0  0  0  3  0  0  0  0  0  0
  1 19  1  0  0  0  0
  1  5  1  0  0  0  0
  2 13  1  0  0  0  0
  2 16  1  0  0  0  0
  3 17  1  0  0  0  0
  4  1  2  0  0  0  0
  6  8  2  0  0  0  0
  7 15  1  6  0  0  0
  7 27  1  0  0  0  0
  8 11  1  0  0  0  0
  9 14  1  6  0  0  0
  9 22  1  0  0  0  0
  9  7  1  0  0  0  0
 10  3  1  0  0  0  0
 11 28  1  6  0  0  0
 11  5  1  0  0  0  0
 12  4  1  1  0  0  0
 12  8  1  0  0  0  0
 17 26  1  0  0  0  0
 18 13  2  0  0  0  0
 19  2  2  0  0  0  0
 20 17  2  0  0  0  0
 20  4  1  0  0  0  0
 21 10  2  0  0  0  0
 22 10  1  6  0  0  0
 22 20  1  0  0  0  0
 23 14  1  0  0  0  0
 23 15  1  0  0  0  0
 25 18  1  0  0  0  0
 26 25  2  0  0  0  0
 26 19  1  0  0  0  0
 27 24  1  6  0  0  0
 27 12  1  0  0  0  0
 28 30  1  0  0  0  0
 30 29  2  0  0  0  0
M  END
>  <MODEL>
8

>  <REMARK>
 VINA RESULT:      -6.2      2.000      5.634
  Name = 
  2 active torsions:
  status: ('A' for Active; 'I' for Inactive)
    1  A    between atoms: C_11  and  C_28
    2  A    between atoms: C_28  and  C_30
                            x       y       z     vdW  Elec       q    Type
                         _______ _______ _______ _____ _____    ______ ____

>  <TORSDO>
F 2

$$$$
=
 OpenBabel11122410213D

 30 35  0  0  1  0  0  0  0  0999 V2000
  185.6740  178.2530  139.1470 C   0  0  0  0  0  0  0  0  0  0  0  0
  185.9070  179.0370  141.5080 C   0  0  0  0  0  0  0  0  0  0  0  0
  181.6810  177.2390  139.7480 O   0  0  0  0  0  0  0  0  0  0  0  0
  184.8490  177.7350  138.1170 C   0  0  0  0  0  0  0  0  0  0  0  0
  187.0530  178.5130  138.8600 N   0  0  0  0  0  2  0  0  0  0  0  0
  187.2430  178.2230  135.4080 O   0  0  0  0  0  0  0  0  0  0  0  0
  184.4130  175.1800  136.7360 C   0  0  1  0  0  3  0  0  0  0  0  0
  186.8040  177.9590  136.5170 C   0  0  0  0  0  0  0  0  0  0  0  0
  182.9730  175.3310  137.2290 C   0  0  2  0  0  3  0  0  0  0  0  0
  181.3590  176.7300  138.4960 C   0  0  0  0  0  0  0  0  0  0  0  0
  187.7290  177.9530  137.6920 C   0  0  2  0  0  3  0  0  0  0  0  0
  185.3450  177.6260  136.6840 C   0  0  1  0  0  3  0  0  0  0  0  0
  185.3270  179.2460  142.7630 C   0  0  0  0  0  3  0  0  0  0  0  0
  182.1280  174.7170  136.2950 O   0  0  0  0  0  0  0  0  0  0  0  0
  184.3430  173.9340  135.8990 C   0  0  0  0  0  2  0  0  0  0  0  0
  187.2460  179.3720  141.3430 O   0  0  0  0  0  1  0  0  0  0  0  0
  183.0010  177.6400  139.6760 C   0  0  0  0  0  0  0  0  0  0  0  0
  183.9880  178.9300  142.9920 C   0  0  0  0  0  3  0  0  0  0  0  0
  185.1350  178.4980  140.4470 C   0  0  0  0  0  0  0  0  0  0  0  0
  183.5220  177.4290  138.4230 C   0  0  0  0  0  0  0  0  0  0  0  0
  180.2120  176.2990  138.2070 O   0  0  0  0  0  0  0  0  0  0  0  0
  182.5160  176.7620  137.5390 C   0  0  1  0  0  3  0  0  0  0  0  0
  182.8610  173.6140  135.8230 C   0  0  0  0  0  2  0  0  0  0  0  0
  184.0870  176.7220  134.7050 C   0  0  0  0  0  1  0  0  0  0  0  0
  183.2110  178.3980  141.9650 C   0  0  0  0  0  3  0  0  0  0  0  0
  183.7700  178.1830  140.7030 C   0  0  0  0  0  0  0  0  0  0  0  0
  184.9610  176.3570  135.8990 C   0  0  2  0  0  3  0  0  0  0  0  0
  188.1850  176.5270  137.9800 C   0  0  0  0  0  2  0  0  0  0  0  0
  190.2480  175.6290  138.6900 O   0  0  0  0  0  0  0  0  0  0  0  0
  189.6750  176.4290  137.9680 C   0  0  0  0  0  3  0  0  0  0  0  0
  1 19  1  0  0  0  0
  2 13  1  0  0  0  0
  4 20  1  0  0  0  0
  4  1  2  0  0  0  0
  5  1  1  0  0  0  0
  6  8  2  0  0  0  0
  7 15  1  6  0  0  0
  7  9  1  0  0  0  0
  8 11  1  0  0  0  0
  9 14  1  6  0  0  0
  9 22  1  0  0  0  0
 10  3  1  0  0  0  0
 11 28  1  1  0  0  0
 11  5  1  0  0  0  0
 12  8  1  1  0  0  0
 12  4  1  0  0  0  0
 13 18  2  0  0  0  0
 16  2  1  0  0  0  0
 17  3  1  0  0  0  0
 17 26  1  0  0  0  0
 19 26  1  0  0  0  0
 19  2  2  0  0  0  0
 20 17  2  0  0  0  0
 21 10  2  0  0  0  0
 22 20  1  1  0  0  0
 22 10  1  0  0  0  0
 23 15  1  0  0  0  0
 23 14  1  0  0  0  0
 25 18  1  0  0  0  0
 26 25  2  0  0  0  0
 27 24  1  6  0  0  0
 27 12  1  0  0  0  0
 27  7  1  0  0  0  0
 30 28  1  0  0  0  0
 30 29  2  0  0  0  0
M  END
>  <MODEL>
9

>  <REMARK>
 VINA RESULT:      -6.2      2.551      4.342
  Name = 
  2 active torsions:
  status: ('A' for Active; 'I' for Inactive)
    1  A    between atoms: C_11  and  C_28
    2  A    between atoms: C_28  and  C_30
                            x       y       z     vdW  Elec       q    Type
                         _______ _______ _______ _____ _____    ______ ____

>  <TORSDO>
F 2

$$$$
