=
 OpenBabel11122412013D

 28 32  0  0  1  0  0  0  0  0999 V2000
  190.9310  174.0730  136.1110 C   0  0  0  0  0  0  0  0  0  0  0  0
  190.2220  175.4170  138.9540 F   0  0  0  0  0  0  0  0  0  0  0  0
  185.9340  177.5420  134.5950 C   0  0  0  0  0  1  0  0  0  0  0  0
  193.2430  175.1580  134.9430 C   0  0  0  0  0  3  0  0  0  0  0  0
  186.7910  177.4700  136.8760 N   0  0  0  0  0  0  0  0  0  0  0  0
  189.7300  173.4010  136.7100 C   0  0  0  0  0  2  0  0  0  0  0  0
  192.3310  176.4300  138.6470 C   0  0  0  0  0  1  0  0  0  0  0  0
  190.8390  176.6480  138.7980 C   0  0  1  0  0  0  0  0  0  0  0  0
  189.1500  177.7570  140.2730 C   0  0  1  0  0  3  0  0  0  0  0  0
  190.2900  177.4060  137.5530 C   0  0  2  0  0  3  0  0  0  0  0  0
  186.5400  173.2430  135.9650 O   0  0  0  0  0  0  0  0  0  0  0  0
  188.5840  176.0310  136.5430 C   0  0  1  0  0  3  0  0  0  0  0  0
  188.6640  178.6380  139.1360 C   0  0  0  0  0  2  0  0  0  0  0  0
  190.6270  177.4600  140.0730 C   0  0  0  0  0  2  0  0  0  0  0  0
  187.6200  173.5790  135.4130 C   0  0  0  0  0  0  0  0  0  0  0  0
  191.0500  175.4840  135.9490 C   0  0  0  0  0  0  0  0  0  0  0  0
  186.5080  176.6650  135.6920 C   0  0  2  0  0  3  0  0  0  0  0  0
  188.9630  178.4480  141.5340 N   0  0  0  0  0  1  0  0  0  0  0  0
  187.6880  174.7820  134.6440 N   0  0  0  0  0  2  0  0  0  0  0  0
  192.2110  176.0000  135.3560 C   0  0  0  0  0  3  0  0  0  0  0  0
  191.9790  173.2430  135.6940 C   0  0  0  0  0  3  0  0  0  0  0  0
  193.1280  173.7800  135.1140 C   0  0  0  0  0  3  0  0  0  0  0  0
  188.8550  172.7680  135.6310 C   0  0  0  0  0  2  0  0  0  0  0  0
  187.9210  176.9060  137.5100 N   0  0  1  0  0  0  0  0  0  0  0  0
  187.8260  176.1050  135.2500 C   0  0  2  0  0  3  0  0  0  0  0  0
  188.8830  177.9770  137.7730 C   0  0  2  0  0  3  0  0  0  0  0  0
  185.6690  177.2950  137.7860 C   0  0  0  0  0  1  0  0  0  0  0  0
  190.0070  176.5070  136.3560 C   0  0  2  0  0  3  0  0  0  0  0  0
  1  6  1  0  0  0  0
  3 17  1  0  0  0  0
  4 22  2  0  0  0  0
  4 20  1  0  0  0  0
  5 24  1  0  0  0  0
  5 27  1  0  0  0  0
  8  7  1  6  0  0  0
  8  2  1  0  0  0  0
  8 14  1  0  0  0  0
  9 18  1  1  0  0  0
 10 26  1  0  0  0  0
 10  8  1  0  0  0  0
 12 24  1  0  0  0  0
 13  9  1  0  0  0  0
 14  9  1  0  0  0  0
 15 23  1  0  0  0  0
 15 11  2  0  0  0  0
 16  1  1  0  0  0  0
 16 28  1  0  0  0  0
 17  5  1  0  0  0  0
 19 25  1  0  0  0  0
 19 15  1  0  0  0  0
 20 16  2  0  0  0  0
 21  1  2  0  0  0  0
 22 21  1  0  0  0  0
 23  6  1  0  0  0  0
 24 26  1  0  0  0  0
 25 17  1  0  0  0  0
 25 12  1  0  0  0  0
 26 13  1  0  0  0  0
 28 12  1  0  0  0  0
 28 10  1  0  0  0  0
M  END
>  <MODEL>
1

>  <REMARK>
 VINA RESULT:      -5.7      0.000      0.000
  Name = 
  0 active torsions:
  status: ('A' for Active; 'I' for Inactive)
                            x       y       z     vdW  Elec       q    Type
                         _______ _______ _______ _____ _____    ______ ____

>  <TORSDO>
F 0

$$$$
=
 OpenBabel11122412013D

 28 32  0  0  1  0  0  0  0  0999 V2000
  181.9350  178.2910  140.0500 C   0  0  0  0  0  0  0  0  0  0  0  0
  182.4920  175.2530  139.1310 F   0  0  0  0  0  0  0  0  0  0  0  0
  187.1810  178.9880  136.6900 C   0  0  0  0  0  1  0  0  0  0  0  0
  179.7660  179.4560  138.6970 C   0  0  0  0  0  3  0  0  0  0  0  0
  186.1550  176.7990  137.0130 N   0  0  0  0  0  0  0  0  0  0  0  0
  183.0560  177.7100  140.8590 C   0  0  0  0  0  2  0  0  0  0  0  0
  180.4580  175.5610  137.9740 C   0  0  0  0  0  1  0  0  0  0  0  0
  181.9440  175.2820  137.8590 C   0  0  1  0  0  0  0  0  0  0  0  0
  183.5670  173.5610  137.0470 C   0  0  1  0  0  3  0  0  0  0  0  0
  182.6170  176.3740  136.9750 C   0  0  2  0  0  3  0  0  0  0  0  0
  186.2820  178.2530  141.0910 O   0  0  0  0  0  0  0  0  0  0  0  0
  184.3290  177.4440  138.2970 C   0  0  1  0  0  3  0  0  0  0  0  0
  184.1750  174.5340  136.0510 C   0  0  0  0  0  2  0  0  0  0  0  0
  182.0970  173.8980  137.2340 C   0  0  0  0  0  2  0  0  0  0  0  0
  185.2620  178.8260  140.6280 C   0  0  0  0  0  0  0  0  0  0  0  0
  181.8910  178.2690  138.6260 C   0  0  0  0  0  0  0  0  0  0  0  0
  186.4880  178.0590  137.6700 C   0  0  2  0  0  3  0  0  0  0  0  0
  183.6920  172.2090  136.5380 N   0  0  0  0  0  1  0  0  0  0  0  0
  185.3050  179.4290  139.3320 N   0  0  0  0  0  2  0  0  0  0  0  0
  180.8020  178.8640  137.9740 C   0  0  0  0  0  3  0  0  0  0  0  0
  180.8830  178.8870  140.7590 C   0  0  0  0  0  3  0  0  0  0  0  0
  179.8060  179.4650  140.0890 C   0  0  0  0  0  3  0  0  0  0  0  0
  183.9790  178.8020  141.3920 C   0  0  0  0  0  2  0  0  0  0  0  0
  184.9570  176.3240  137.5930 N   0  0  1  0  0  0  0  0  0  0  0  0
  185.1830  178.6600  138.0950 C   0  0  2  0  0  3  0  0  0  0  0  0
  184.0280  175.9850  136.5150 C   0  0  2  0  0  3  0  0  0  0  0  0
  187.1980  175.8480  137.3670 C   0  0  0  0  0  1  0  0  0  0  0  0
  182.9460  177.6590  137.7230 C   0  0  2  0  0  3  0  0  0  0  0  0
  1 21  1  0  0  0  0
  1  6  1  0  0  0  0
  3 17  1  0  0  0  0
  4 22  1  0  0  0  0
  5 27  1  0  0  0  0
  5 24  1  0  0  0  0
  5 17  1  0  0  0  0
  6 23  1  0  0  0  0
  8  7  1  1  0  0  0
  8  2  1  0  0  0  0
  9 18  1  6  0  0  0
  9 14  1  0  0  0  0
 10 28  1  0  0  0  0
 10  8  1  0  0  0  0
 13 26  1  0  0  0  0
 13  9  1  0  0  0  0
 14  8  1  0  0  0  0
 15 11  2  0  0  0  0
 15 23  1  0  0  0  0
 16  1  2  0  0  0  0
 17 25  1  0  0  0  0
 19 15  1  0  0  0  0
 20 16  1  0  0  0  0
 20  4  2  0  0  0  0
 22 21  2  0  0  0  0
 24 12  1  0  0  0  0
 25 12  1  0  0  0  0
 25 19  1  0  0  0  0
 26 10  1  0  0  0  0
 26 24  1  0  0  0  0
 28 12  1  0  0  0  0
 28 16  1  0  0  0  0
M  END
>  <MODEL>
2

>  <REMARK>
 VINA RESULT:      -5.5      4.315      8.687
  Name = 
  0 active torsions:
  status: ('A' for Active; 'I' for Inactive)
                            x       y       z     vdW  Elec       q    Type
                         _______ _______ _______ _____ _____    ______ ____

>  <TORSDO>
F 0

$$$$
=
 OpenBabel11122412013D

 28 32  0  0  1  0  0  0  0  0999 V2000
  191.6960  174.5820  136.9540 C   0  0  0  0  0  0  0  0  0  0  0  0
  190.2370  175.5700  139.6530 F   0  0  0  0  0  0  0  0  0  0  0  0
  186.8820  177.8360  134.6020 C   0  0  0  0  0  1  0  0  0  0  0  0
  194.1050  175.9400  136.4610 C   0  0  0  0  0  3  0  0  0  0  0  0
  187.1980  177.5860  137.0070 N   0  0  0  0  0  0  0  0  0  0  0  0
  190.4570  173.7690  137.1920 C   0  0  0  0  0  2  0  0  0  0  0  0
  192.2600  176.7520  139.9400 C   0  0  0  0  0  1  0  0  0  0  0  0
  190.7580  176.8500  139.7530 C   0  0  1  0  0  0  0  0  0  0  0  0
  188.6830  177.6790  140.8770 C   0  0  1  0  0  3  0  0  0  0  0  0
  190.4410  177.6940  138.4820 C   0  0  2  0  0  3  0  0  0  0  0  0
  187.5500  173.4700  135.7050 O   0  0  0  0  0  0  0  0  0  0  0  0
  189.1440  176.3170  136.9840 C   0  0  1  0  0  3  0  0  0  0  0  0
  188.3910  178.6390  139.7370 C   0  0  0  0  0  2  0  0  0  0  0  0
  190.1880  177.5070  141.0060 C   0  0  0  0  0  2  0  0  0  0  0  0
  188.6920  173.9350  135.4540 C   0  0  0  0  0  0  0  0  0  0  0  0
  191.7190  176.0060  136.9460 C   0  0  0  0  0  0  0  0  0  0  0  0
  187.2680  176.8920  135.7260 C   0  0  2  0  0  3  0  0  0  0  0  0
  188.1510  178.2210  142.1120 N   0  0  0  0  0  1  0  0  0  0  0  0
  188.8230  175.2140  134.8280 N   0  0  0  0  0  2  0  0  0  0  0  0
  192.9330  176.6610  136.6890 C   0  0  0  0  0  3  0  0  0  0  0  0
  192.8840  173.8740  136.7260 C   0  0  0  0  0  3  0  0  0  0  0  0
  194.0800  174.5470  136.4820 C   0  0  0  0  0  3  0  0  0  0  0  0
  189.9130  173.1930  135.8880 C   0  0  0  0  0  2  0  0  0  0  0  0
  188.2000  177.0380  137.8390 N   0  0  1  0  0  0  0  0  0  0  0  0
  188.6970  176.4730  135.5610 C   0  0  2  0  0  3  0  0  0  0  0  0
  188.9750  178.1400  138.4130 C   0  0  2  0  0  3  0  0  0  0  0  0
  185.9190  177.2400  137.6080 C   0  0  0  0  0  1  0  0  0  0  0  0
  190.5230  176.9070  137.1810 C   0  0  2  0  0  3  0  0  0  0  0  0
  1  6  1  0  0  0  0
  2  8  1  0  0  0  0
  3 17  1  0  0  0  0
  4 22  2  0  0  0  0
  4 20  1  0  0  0  0
  5 27  1  0  0  0  0
  5 24  1  0  0  0  0
  8  7  1  1  0  0  0
  8 14  1  0  0  0  0
  9 14  1  0  0  0  0
  9 18  1  1  0  0  0
 10  8  1  0  0  0  0
 12 28  1  0  0  0  0
 12 24  1  0  0  0  0
 13  9  1  0  0  0  0
 15 11  2  0  0  0  0
 15 23  1  0  0  0  0
 16  1  1  0  0  0  0
 16 28  1  0  0  0  0
 17  5  1  0  0  0  0
 19 15  1  0  0  0  0
 19 25  1  0  0  0  0
 20 16  2  0  0  0  0
 21  1  2  0  0  0  0
 22 21  1  0  0  0  0
 23  6  1  0  0  0  0
 24 26  1  0  0  0  0
 25 17  1  0  0  0  0
 25 12  1  0  0  0  0
 26 10  1  0  0  0  0
 26 13  1  0  0  0  0
 28 10  1  0  0  0  0
M  END
>  <MODEL>
3

>  <REMARK>
 VINA RESULT:      -5.4      1.075      1.103
  Name = 
  0 active torsions:
  status: ('A' for Active; 'I' for Inactive)
                            x       y       z     vdW  Elec       q    Type
                         _______ _______ _______ _____ _____    ______ ____

>  <TORSDO>
F 0

$$$$
=
 OpenBabel11122412013D

 28 32  0  0  1  0  0  0  0  0999 V2000
  187.9480  176.1120  136.5300 C   0  0  0  0  0  0  0  0  0  0  0  0
  188.7920  176.0040  139.6380 F   0  0  0  0  0  0  0  0  0  0  0  0
  183.8390  180.1270  139.0380 C   0  0  0  0  0  1  0  0  0  0  0  0
  189.8050  177.5030  134.9470 C   0  0  0  0  0  3  0  0  0  0  0  0
  185.4770  178.9550  140.4120 N   0  0  0  0  0  0  0  0  0  0  0  0
  186.9520  175.2970  137.3010 C   0  0  0  0  0  2  0  0  0  0  0  0
  190.7930  176.9370  138.8030 C   0  0  0  0  0  1  0  0  0  0  0  0
  189.5930  177.1320  139.7090 C   0  0  1  0  0  0  0  0  0  0  0  0
  188.9720  177.5040  142.1040 C   0  0  1  0  0  3  0  0  0  0  0  0
  188.8130  178.4110  139.2800 C   0  0  2  0  0  3  0  0  0  0  0  0
  183.8050  175.6630  138.1480 O   0  0  0  0  0  0  0  0  0  0  0  0
  186.5550  177.7530  138.7410 C   0  0  1  0  0  3  0  0  0  0  0  0
  188.3230  178.8370  141.7790 C   0  0  0  0  0  2  0  0  0  0  0  0
  190.1190  177.2630  141.1350 C   0  0  0  0  0  2  0  0  0  0  0  0
  184.6260  176.1650  137.3360 C   0  0  0  0  0  0  0  0  0  0  0  0
  188.3530  177.4270  136.9000 C   0  0  0  0  0  0  0  0  0  0  0  0
  184.5520  178.8120  139.2920 C   0  0  2  0  0  3  0  0  0  0  0  0
  189.4840  177.5330  143.4600 N   0  0  0  0  0  1  0  0  0  0  0  0
  184.6920  177.5830  137.1690 N   0  0  0  0  0  2  0  0  0  0  0  0
  189.2760  178.1030  136.0890 C   0  0  0  0  0  3  0  0  0  0  0  0
  188.4930  175.5230  135.3810 C   0  0  0  0  0  3  0  0  0  0  0  0
  189.4160  176.2120  134.5940 C   0  0  0  0  0  3  0  0  0  0  0  0
  185.5910  175.2860  136.6110 C   0  0  0  0  0  2  0  0  0  0  0  0
  186.5780  178.1050  140.1610 N   0  0  1  0  0  0  0  0  0  0  0  0
  185.3950  178.4600  138.1040 C   0  0  2  0  0  3  0  0  0  0  0  0
  187.8070  178.8810  140.3390 C   0  0  2  0  0  3  0  0  0  0  0  0
  184.8020  178.4300  141.5880 C   0  0  0  0  0  1  0  0  0  0  0  0
  187.8590  178.1900  138.1130 C   0  0  2  0  0  3  0  0  0  0  0  0
  1 16  1  0  0  0  0
  1  6  1  0  0  0  0
  2  8  1  0  0  0  0
  3 17  1  0  0  0  0
  4 20  1  0  0  0  0
  5 27  1  0  0  0  0
  8  7  1  6  0  0  0
  8 14  1  0  0  0  0
  9 18  1  1  0  0  0
 10  8  1  0  0  0  0
 10 26  1  0  0  0  0
 12 24  1  0  0  0  0
 13  9  1  0  0  0  0
 14  9  1  0  0  0  0
 15 11  2  0  0  0  0
 16 28  1  0  0  0  0
 17  5  1  0  0  0  0
 19 15  1  0  0  0  0
 19 25  1  0  0  0  0
 20 16  2  0  0  0  0
 21  1  2  0  0  0  0
 22  4  2  0  0  0  0
 22 21  1  0  0  0  0
 23  6  1  0  0  0  0
 23 15  1  0  0  0  0
 24 26  1  0  0  0  0
 24  5  1  0  0  0  0
 25 12  1  0  0  0  0
 25 17  1  0  0  0  0
 26 13  1  0  0  0  0
 28 12  1  0  0  0  0
 28 10  1  0  0  0  0
M  END
>  <MODEL>
4

>  <REMARK>
 VINA RESULT:      -5.3      2.567      3.590
  Name = 
  0 active torsions:
  status: ('A' for Active; 'I' for Inactive)
                            x       y       z     vdW  Elec       q    Type
                         _______ _______ _______ _____ _____    ______ ____

>  <TORSDO>
F 0

$$$$
=
 OpenBabel11122412013D

 28 32  0  0  1  0  0  0  0  0999 V2000
  182.8440  178.3820  138.5910 C   0  0  0  0  0  0  0  0  0  0  0  0
  183.0010  175.1640  138.5110 F   0  0  0  0  0  0  0  0  0  0  0  0
  188.1550  177.5120  135.3770 C   0  0  0  0  0  1  0  0  0  0  0  0
  180.8550  179.4150  136.8970 C   0  0  0  0  0  3  0  0  0  0  0  0
  186.8490  175.6310  136.2140 N   0  0  0  0  0  0  0  0  0  0  0  0
  183.8740  177.8970  139.5670 C   0  0  0  0  0  2  0  0  0  0  0  0
  181.0330  175.4120  137.2330 C   0  0  0  0  0  1  0  0  0  0  0  0
  182.4690  174.9280  137.2540 C   0  0  1  0  0  0  0  0  0  0  0  0
  183.8570  172.8650  136.9800 C   0  0  1  0  0  3  0  0  0  0  0  0
  183.2850  175.6580  136.1450 C   0  0  2  0  0  3  0  0  0  0  0  0
  187.1420  178.0720  139.7800 O   0  0  0  0  0  0  0  0  0  0  0  0
  185.1150  176.8120  137.2130 C   0  0  1  0  0  3  0  0  0  0  0  0
  184.5930  173.4590  135.7920 C   0  0  0  0  0  2  0  0  0  0  0  0
  182.4430  173.4210  137.0150 C   0  0  0  0  0  2  0  0  0  0  0  0
  186.2090  178.6280  139.1440 C   0  0  0  0  0  0  0  0  0  0  0  0
  182.8060  177.9940  137.2200 C   0  0  0  0  0  0  0  0  0  0  0  0
  187.3410  176.9670  136.5360 C   0  0  2  0  0  3  0  0  0  0  0  0
  183.8050  171.4230  136.8440 N   0  0  0  0  0  1  0  0  0  0  0  0
  186.3390  178.8600  137.7390 N   0  0  0  0  0  2  0  0  0  0  0  0
  181.8080  178.5300  136.3940 C   0  0  0  0  0  3  0  0  0  0  0  0
  181.8760  179.2700  139.0800 C   0  0  0  0  0  3  0  0  0  0  0  0
  180.8880  179.7830  138.2410 C   0  0  0  0  0  3  0  0  0  0  0  0
  184.9300  178.9650  139.8360 C   0  0  0  0  0  2  0  0  0  0  0  0
  185.5950  175.4780  136.8490 N   0  0  1  0  0  0  0  0  0  0  0  0
  186.1240  177.8160  136.7380 C   0  0  2  0  0  3  0  0  0  0  0  0
  184.6350  174.9880  135.8590 C   0  0  2  0  0  3  0  0  0  0  0  0
  187.7550  174.6820  136.8430 C   0  0  0  0  0  1  0  0  0  0  0  0
  183.7760  177.0420  136.5490 C   0  0  2  0  0  3  0  0  0  0  0  0
  1 21  1  0  0  0  0
  1  6  1  0  0  0  0
  3 17  1  0  0  0  0
  4 22  1  0  0  0  0
  5 17  1  0  0  0  0
  5 27  1  0  0  0  0
  5 24  1  0  0  0  0
  6 23  1  0  0  0  0
  8  7  1  6  0  0  0
  8  2  1  0  0  0  0
  9 18  1  6  0  0  0
  9 14  1  0  0  0  0
 10 28  1  0  0  0  0
 10  8  1  0  0  0  0
 13 26  1  0  0  0  0
 13  9  1  0  0  0  0
 14  8  1  0  0  0  0
 15 11  2  0  0  0  0
 15 23  1  0  0  0  0
 16  1  2  0  0  0  0
 17 25  1  0  0  0  0
 19 15  1  0  0  0  0
 20  4  2  0  0  0  0
 20 16  1  0  0  0  0
 22 21  2  0  0  0  0
 24 12  1  0  0  0  0
 25 12  1  0  0  0  0
 25 19  1  0  0  0  0
 26 10  1  0  0  0  0
 26 24  1  0  0  0  0
 28 12  1  0  0  0  0
 28 16  1  0  0  0  0
M  END
>  <MODEL>
5

>  <REMARK>
 VINA RESULT:      -5.3      3.742      7.988
  Name = 
  0 active torsions:
  status: ('A' for Active; 'I' for Inactive)
                            x       y       z     vdW  Elec       q    Type
                         _______ _______ _______ _____ _____    ______ ____

>  <TORSDO>
F 0

$$$$
=
 OpenBabel11122412013D

 28 32  0  0  1  0  0  0  0  0999 V2000
  185.0710  175.0320  137.0390 C   0  0  0  0  0  0  0  0  0  0  0  0
  183.0550  175.6280  139.4820 F   0  0  0  0  0  0  0  0  0  0  0  0
  179.6490  172.9670  134.6630 C   0  0  0  0  0  1  0  0  0  0  0  0
  185.8780  177.3660  135.7010 C   0  0  0  0  0  3  0  0  0  0  0  0
  179.7860  173.8850  136.9180 N   0  0  0  0  0  0  0  0  0  0  0  0
  184.7380  173.7530  137.7500 C   0  0  0  0  0  2  0  0  0  0  0  0
  183.6270  177.8650  138.9950 C   0  0  0  0  0  1  0  0  0  0  0  0
  182.5180  176.8340  139.0620 C   0  0  1  0  0  0  0  0  0  0  0  0
  180.3500  176.3450  140.2080 C   0  0  1  0  0  3  0  0  0  0  0  0
  181.8420  176.6990  137.6640 C   0  0  2  0  0  3  0  0  0  0  0  0
  183.0530  171.0430  136.9940 O   0  0  0  0  0  0  0  0  0  0  0  0
  182.0510  174.4010  136.9610 C   0  0  1  0  0  3  0  0  0  0  0  0
  179.5960  176.3470  138.8890 C   0  0  0  0  0  2  0  0  0  0  0  0
  181.5190  177.3110  140.1110 C   0  0  0  0  0  2  0  0  0  0  0  0
  183.5630  172.0300  136.4030 C   0  0  0  0  0  0  0  0  0  0  0  0
  184.0920  175.9510  136.5600 C   0  0  0  0  0  0  0  0  0  0  0  0
  180.4600  173.0320  135.9440 C   0  0  2  0  0  3  0  0  0  0  0  0
  179.4600  176.7670  141.2720 N   0  0  0  0  0  1  0  0  0  0  0  0
  182.8290  172.7090  135.3800 N   0  0  0  0  0  2  0  0  0  0  0  0
  184.5210  177.1050  135.8890 C   0  0  0  0  0  3  0  0  0  0  0  0
  186.4300  175.3130  136.8440 C   0  0  0  0  0  3  0  0  0  0  0  0
  186.8320  176.4710  136.1800 C   0  0  0  0  0  3  0  0  0  0  0  0
  184.8970  172.5480  136.8270 C   0  0  0  0  0  2  0  0  0  0  0  0
  180.7870  174.5200  137.6880 N   0  0  1  0  0  0  0  0  0  0  0  0
  181.7810  173.6850  135.6700 C   0  0  2  0  0  3  0  0  0  0  0  0
  180.5010  175.9550  137.7190 C   0  0  2  0  0  3  0  0  0  0  0  0
  179.0590  173.0050  137.8200 C   0  0  0  0  0  1  0  0  0  0  0  0
  182.5920  175.7890  136.7000 C   0  0  2  0  0  3  0  0  0  0  0  0
  1  6  1  0  0  0  0
  3 17  1  0  0  0  0
  4 20  2  0  0  0  0
  4 22  1  0  0  0  0
  5 24  1  0  0  0  0
  5 27  1  0  0  0  0
  8  7  1  6  0  0  0
  8  2  1  0  0  0  0
  8 14  1  0  0  0  0
  9 18  1  1  0  0  0
 10 26  1  0  0  0  0
 10  8  1  0  0  0  0
 12 24  1  0  0  0  0
 13  9  1  0  0  0  0
 14  9  1  0  0  0  0
 15 23  1  0  0  0  0
 15 11  2  0  0  0  0
 16 28  1  0  0  0  0
 16  1  2  0  0  0  0
 17  5  1  0  0  0  0
 19 25  1  0  0  0  0
 19 15  1  0  0  0  0
 20 16  1  0  0  0  0
 21  1  1  0  0  0  0
 22 21  2  0  0  0  0
 23  6  1  0  0  0  0
 24 26  1  0  0  0  0
 25 17  1  0  0  0  0
 25 12  1  0  0  0  0
 26 13  1  0  0  0  0
 28 12  1  0  0  0  0
 28 10  1  0  0  0  0
M  END
>  <MODEL>
6

>  <REMARK>
 VINA RESULT:      -5.1      5.135      7.374
  Name = 
  0 active torsions:
  status: ('A' for Active; 'I' for Inactive)
                            x       y       z     vdW  Elec       q    Type
                         _______ _______ _______ _____ _____    ______ ____

>  <TORSDO>
F 0

$$$$
=
 OpenBabel11122412013D

 28 32  0  0  1  0  0  0  0  0999 V2000
  182.9600  176.9610  137.3250 C   0  0  0  0  0  0  0  0  0  0  0  0
  184.7120  174.2670  137.5690 F   0  0  0  0  0  0  0  0  0  0  0  0
  188.7790  179.2900  137.2180 C   0  0  0  0  0  1  0  0  0  0  0  0
  181.7620  177.2550  134.8020 C   0  0  0  0  0  3  0  0  0  0  0  0
  188.3680  176.8970  137.4380 N   0  0  0  0  0  0  0  0  0  0  0  0
  183.5110  176.8340  138.7150 C   0  0  0  0  0  2  0  0  0  0  0  0
  183.7280  173.8110  135.4730 C   0  0  0  0  0  1  0  0  0  0  0  0
  185.0160  174.0560  136.2330 C   0  0  1  0  0  0  0  0  0  0  0  0
  187.1880  172.9690  136.8300 C   0  0  1  0  0  3  0  0  0  0  0  0
  185.7640  175.2780  135.6210 C   0  0  2  0  0  3  0  0  0  0  0  0
  185.7310  178.4630  140.4960 O   0  0  0  0  0  0  0  0  0  0  0  0
  186.0460  176.9220  137.3640 C   0  0  1  0  0  3  0  0  0  0  0  0
  187.9810  174.0520  136.1190 C   0  0  0  0  0  2  0  0  0  0  0  0
  185.8550  172.7870  136.1230 C   0  0  0  0  0  2  0  0  0  0  0  0
  185.0600  178.6310  139.4440 C   0  0  0  0  0  0  0  0  0  0  0  0
  183.7560  176.8700  136.1460 C   0  0  0  0  0  0  0  0  0  0  0  0
  187.9180  178.2190  137.8620 C   0  0  2  0  0  3  0  0  0  0  0  0
  187.9310  171.7240  136.7910 N   0  0  0  0  0  1  0  0  0  0  0  0
  185.6870  179.1610  138.2730 N   0  0  0  0  0  2  0  0  0  0  0  0
  183.1350  177.0280  134.8990 C   0  0  0  0  0  3  0  0  0  0  0  0
  181.5820  177.1860  137.2080 C   0  0  0  0  0  3  0  0  0  0  0  0
  180.9860  177.3310  135.9560 C   0  0  0  0  0  3  0  0  0  0  0  0
  183.6330  178.1970  139.3900 C   0  0  0  0  0  2  0  0  0  0  0  0
  187.2290  176.0620  137.3820 N   0  0  1  0  0  0  0  0  0  0  0  0
  186.5070  178.3500  137.3760 C   0  0  2  0  0  3  0  0  0  0  0  0
  187.2220  175.3810  136.0860 C   0  0  2  0  0  3  0  0  0  0  0  0
  189.2170  176.3780  138.4990 C   0  0  0  0  0  1  0  0  0  0  0  0
  185.2520  176.6260  136.1120 C   0  0  2  0  0  3  0  0  0  0  0  0
  1  6  1  0  0  0  0
  3 17  1  0  0  0  0
  4 20  2  0  0  0  0
  4 22  1  0  0  0  0
  5 17  1  0  0  0  0
  5 27  1  0  0  0  0
  6 23  1  0  0  0  0
  8  7  1  6  0  0  0
  8  2  1  0  0  0  0
  9 18  1  6  0  0  0
 10 26  1  0  0  0  0
 10 28  1  0  0  0  0
 10  8  1  0  0  0  0
 12 25  1  0  0  0  0
 12 24  1  0  0  0  0
 13  9  1  0  0  0  0
 14  8  1  0  0  0  0
 14  9  1  0  0  0  0
 15 11  2  0  0  0  0
 16  1  2  0  0  0  0
 19 15  1  0  0  0  0
 20 16  1  0  0  0  0
 21  1  1  0  0  0  0
 22 21  2  0  0  0  0
 23 15  1  0  0  0  0
 24  5  1  0  0  0  0
 25 17  1  0  0  0  0
 25 19  1  0  0  0  0
 26 13  1  0  0  0  0
 26 24  1  0  0  0  0
 28 16  1  0  0  0  0
 28 12  1  0  0  0  0
M  END
>  <MODEL>
7

>  <REMARK>
 VINA RESULT:      -5.0      3.155      7.050
  Name = 
  0 active torsions:
  status: ('A' for Active; 'I' for Inactive)
                            x       y       z     vdW  Elec       q    Type
                         _______ _______ _______ _____ _____    ______ ____

>  <TORSDO>
F 0

$$$$
=
 OpenBabel11122412013D

 28 32  0  0  1  0  0  0  0  0999 V2000
  181.5930  178.2560  141.6560 C   0  0  0  0  0  0  0  0  0  0  0  0
  181.2780  175.3940  140.2080 F   0  0  0  0  0  0  0  0  0  0  0  0
  180.9210  179.9970  135.6710 C   0  0  0  0  0  1  0  0  0  0  0  0
  179.3160  178.9860  143.1290 C   0  0  0  0  0  3  0  0  0  0  0  0
  180.9250  177.6470  136.3230 N   0  0  0  0  0  0  0  0  0  0  0  0
  182.8670  177.8980  140.9480 C   0  0  0  0  0  2  0  0  0  0  0  0
  179.3050  175.3090  141.5020 C   0  0  0  0  0  1  0  0  0  0  0  0
  179.8980  175.3270  140.1060 C   0  0  1  0  0  0  0  0  0  0  0  0
  180.0510  173.9650  138.0140 C   0  0  1  0  0  3  0  0  0  0  0  0
  179.3270  176.5380  139.3090 C   0  0  2  0  0  3  0  0  0  0  0  0
  184.4860  179.0600  138.3440 O   0  0  0  0  0  0  0  0  0  0  0  0
  181.1870  177.9100  138.6160 C   0  0  1  0  0  3  0  0  0  0  0  0
  179.3610  175.0460  137.2010 C   0  0  0  0  0  2  0  0  0  0  0  0
  179.5250  174.0060  139.4400 C   0  0  0  0  0  2  0  0  0  0  0  0
  183.5660  179.4270  139.1210 C   0  0  0  0  0  0  0  0  0  0  0  0
  180.3100  178.2390  141.0360 C   0  0  0  0  0  0  0  0  0  0  0  0
  181.5560  178.9420  136.5590 C   0  0  2  0  0  3  0  0  0  0  0  0
  179.7660  172.6680  137.4310 N   0  0  0  0  0  1  0  0  0  0  0  0
  182.3850  180.0380  138.5950 N   0  0  0  0  0  2  0  0  0  0  0  0
  179.1900  178.6150  141.7910 C   0  0  0  0  0  3  0  0  0  0  0  0
  181.7000  178.6280  143.0030 C   0  0  0  0  0  3  0  0  0  0  0  0
  180.5700  178.9900  143.7360 C   0  0  0  0  0  3  0  0  0  0  0  0
  183.6670  179.1460  140.5830 C   0  0  0  0  0  2  0  0  0  0  0  0
  180.9380  176.9420  137.5470 N   0  0  1  0  0  0  0  0  0  0  0  0
  181.2940  179.2720  137.9970 C   0  0  2  0  0  3  0  0  0  0  0  0
  179.5880  176.4360  137.8010 C   0  0  2  0  0  3  0  0  0  0  0  0
  181.7890  176.9160  135.4090 C   0  0  0  0  0  1  0  0  0  0  0  0
  180.0350  177.8560  139.5950 C   0  0  2  0  0  3  0  0  0  0  0  0
  1 21  1  0  0  0  0
  3 17  1  0  0  0  0
  4 22  1  0  0  0  0
  5 17  1  0  0  0  0
  5 24  1  0  0  0  0
  6  1  1  0  0  0  0
  8  2  1  0  0  0  0
  8  7  1  1  0  0  0
  9 18  1  6  0  0  0
  9 14  1  0  0  0  0
 10 28  1  0  0  0  0
 10  8  1  0  0  0  0
 11 15  2  0  0  0  0
 12 28  1  0  0  0  0
 13 26  1  0  0  0  0
 13  9  1  0  0  0  0
 14  8  1  0  0  0  0
 15 23  1  0  0  0  0
 16  1  2  0  0  0  0
 16 20  1  0  0  0  0
 17 25  1  0  0  0  0
 19 15  1  0  0  0  0
 20  4  2  0  0  0  0
 21 22  2  0  0  0  0
 23  6  1  0  0  0  0
 24 26  1  0  0  0  0
 24 12  1  0  0  0  0
 25 19  1  0  0  0  0
 25 12  1  0  0  0  0
 26 10  1  0  0  0  0
 27  5  1  0  0  0  0
 28 16  1  0  0  0  0
M  END
>  <MODEL>
8

>  <REMARK>
 VINA RESULT:      -5.0      7.761     10.447
  Name = 
  0 active torsions:
  status: ('A' for Active; 'I' for Inactive)
                            x       y       z     vdW  Elec       q    Type
                         _______ _______ _______ _____ _____    ______ ____

>  <TORSDO>
F 0

$$$$
=
 OpenBabel11122412013D

 28 32  0  0  1  0  0  0  0  0999 V2000
  182.5390  179.2480  138.5450 C   0  0  0  0  0  0  0  0  0  0  0  0
  181.4050  176.9200  140.4650 F   0  0  0  0  0  0  0  0  0  0  0  0
  182.4020  174.3840  134.5940 C   0  0  0  0  0  1  0  0  0  0  0  0
  180.5720  181.1220  137.8300 C   0  0  0  0  0  3  0  0  0  0  0  0
  181.7220  174.1530  136.9240 N   0  0  0  0  0  0  0  0  0  0  0  0
  183.6530  178.3260  138.9440 C   0  0  0  0  0  2  0  0  0  0  0  0
  179.4930  178.3040  140.4890 C   0  0  0  0  0  1  0  0  0  0  0  0
  180.0640  176.9510  140.1140 C   0  0  1  0  0  0  0  0  0  0  0  0
  179.8150  174.5080  140.5880 C   0  0  1  0  0  3  0  0  0  0  0  0
  179.8700  176.7030  138.5880 C   0  0  2  0  0  3  0  0  0  0  0  0
  185.5400  176.1470  137.3810 O   0  0  0  0  0  0  0  0  0  0  0  0
  182.0490  176.3470  137.6140 C   0  0  1  0  0  3  0  0  0  0  0  0
  179.4700  174.2120  139.1390 C   0  0  0  0  0  2  0  0  0  0  0  0
  179.3240  175.9030  140.9390 C   0  0  0  0  0  2  0  0  0  0  0  0
  184.7670  177.0980  137.0960 C   0  0  0  0  0  0  0  0  0  0  0  0
  181.3060  178.8050  137.9840 C   0  0  0  0  0  0  0  0  0  0  0  0
  182.7020  174.7640  136.0320 C   0  0  2  0  0  3  0  0  0  0  0  0
  179.1660  173.5370  141.4470 N   0  0  0  0  0  1  0  0  0  0  0  0
  183.8150  176.9540  136.0390 N   0  0  0  0  0  2  0  0  0  0  0  0
  180.3440  179.7610  137.6280 C   0  0  0  0  0  3  0  0  0  0  0  0
  182.7480  180.6190  138.7450 C   0  0  0  0  0  3  0  0  0  0  0  0
  181.7730  181.5500  138.3900 C   0  0  0  0  0  3  0  0  0  0  0  0
  184.7820  178.3440  137.9170 C   0  0  0  0  0  2  0  0  0  0  0  0
  181.5300  175.0370  138.0090 N   0  0  1  0  0  0  0  0  0  0  0  0
  182.5470  176.2440  136.2030 C   0  0  2  0  0  3  0  0  0  0  0  0
  180.0910  175.2390  138.1880 C   0  0  2  0  0  3  0  0  0  0  0  0
  182.3360  172.9510  137.4670 C   0  0  0  0  0  1  0  0  0  0  0  0
  180.9310  177.3610  137.7150 C   0  0  2  0  0  3  0  0  0  0  0  0
  1 21  1  0  0  0  0
  1  6  1  0  0  0  0
  3 17  1  0  0  0  0
  4 22  1  0  0  0  0
  5 27  1  0  0  0  0
  5 24  1  0  0  0  0
  8  2  1  0  0  0  0
  8  7  1  1  0  0  0
  8 14  1  0  0  0  0
  9 14  1  0  0  0  0
  9 18  1  1  0  0  0
 10  8  1  0  0  0  0
 12 28  1  0  0  0  0
 12 24  1  0  0  0  0
 13  9  1  0  0  0  0
 15 11  2  0  0  0  0
 15 23  1  0  0  0  0
 16  1  2  0  0  0  0
 17 25  1  0  0  0  0
 17  5  1  0  0  0  0
 19 25  1  0  0  0  0
 19 15  1  0  0  0  0
 20  4  2  0  0  0  0
 20 16  1  0  0  0  0
 22 21  2  0  0  0  0
 23  6  1  0  0  0  0
 24 26  1  0  0  0  0
 25 12  1  0  0  0  0
 26 10  1  0  0  0  0
 26 13  1  0  0  0  0
 28 16  1  0  0  0  0
 28 10  1  0  0  0  0
M  END
>  <MODEL>
9

>  <REMARK>
 VINA RESULT:      -4.8      5.944      9.320
  Name = 
  0 active torsions:
  status: ('A' for Active; 'I' for Inactive)
                            x       y       z     vdW  Elec       q    Type
                         _______ _______ _______ _____ _____    ______ ____

>  <TORSDO>
F 0

$$$$
