=
 OpenBabel11122410223D

 30 35  0  0  1  0  0  0  0  0999 V2000
  189.0220  177.1740  143.4970 C   0  0  0  0  0  0  0  0  0  0  0  0
  191.1630  176.3020  144.6090 C   0  0  0  0  0  0  0  0  0  0  0  0
  187.2180  177.8470  147.2300 N   0  0  0  0  0  2  0  0  0  0  0  0
  187.7240  177.7470  143.6060 C   0  0  0  0  0  0  0  0  0  0  0  0
  189.5340  176.8250  142.1280 C   0  0  0  0  0  2  0  0  0  0  0  0
  187.1320  178.4700  140.0750 O   0  0  0  0  0  0  0  0  0  0  0  0
  184.6790  178.1580  143.1890 C   0  0  1  0  0  3  0  0  0  0  0  0
  187.7370  178.1850  141.1460 C   0  0  0  0  0  0  0  0  0  0  0  0
  184.7560  178.3890  144.6430 C   0  0  0  0  0  0  0  0  0  0  0  0
  185.8940  178.3540  146.8830 C   0  0  1  0  0  3  0  0  0  0  0  0
  189.2080  177.9090  141.1150 C   0  0  2  0  0  3  0  0  0  0  0  0
  187.0400  178.2100  142.4060 N   0  0  0  0  0  0  0  0  0  0  0  0
  191.9490  176.1880  145.8420 C   0  0  0  0  0  3  0  0  0  0  0  0
  183.4340  178.7330  145.1590 C   0  0  0  0  0  2  0  0  0  0  0  0
  183.4020  178.5720  142.7690 O   0  0  0  0  0  0  0  0  0  0  0  0
  191.6990  175.9590  143.5230 O   0  0  0  0  0  0  0  0  0  0  0  0
  187.9290  177.6030  146.0220 C   0  0  0  0  0  0  0  0  0  0  0  0
  191.4020  176.4130  147.0330 C   0  0  0  0  0  3  0  0  0  0  0  0
  189.7790  176.8510  144.6650 C   0  0  0  0  0  0  0  0  0  0  0  0
  187.1880  177.8880  144.9040 C   0  0  0  0  0  0  0  0  0  0  0  0
  185.7700  179.7940  147.3490 C   0  0  0  0  0  1  0  0  0  0  0  0
  185.8630  178.2880  145.3810 C   0  0  0  0  0  0  0  0  0  0  0  0
  182.5780  178.5880  143.9170 C   0  0  0  0  0  2  0  0  0  0  0  0
  185.9210  180.3790  142.8220 C   0  0  0  0  0  1  0  0  0  0  0  0
  189.9420  176.7240  147.2150 C   0  0  0  0  0  2  0  0  0  0  0  0
  189.2230  177.0980  145.9420 C   0  0  0  0  0  0  0  0  0  0  0  0
  185.7560  178.9170  142.4200 C   0  0  2  0  0  3  0  0  0  0  0  0
  189.6120  177.4940  139.8170 O   0  0  0  0  0  0  0  0  0  0  0  0
  190.9010  175.9920  138.5500 C   0  0  0  0  0  2  0  0  0  0  0  0
  190.7580  176.7280  139.6410 C   0  0  0  0  0  3  0  0  0  0  0  0
  1  4  2  0  0  0  0
  1 19  1  0  0  0  0
  2 19  1  0  0  0  0
  2 13  1  0  0  0  0
  4 20  1  0  0  0  0
  5  1  1  0  0  0  0
  6  8  2  0  0  0  0
  7 15  1  6  0  0  0
  7  9  1  0  0  0  0
  8 12  1  0  0  0  0
  9 14  1  0  0  0  0
  9 22  2  0  0  0  0
 10  3  1  0  0  0  0
 10 21  1  6  0  0  0
 11 28  1  6  0  0  0
 11  8  1  0  0  0  0
 11  5  1  0  0  0  0
 12 27  1  0  0  0  0
 12  4  1  0  0  0  0
 13 18  2  0  0  0  0
 15 23  1  0  0  0  0
 16  2  2  0  0  0  0
 17  3  1  0  0  0  0
 18 25  1  0  0  0  0
 19 26  2  0  0  0  0
 20 22  1  0  0  0  0
 20 17  2  0  0  0  0
 22 10  1  0  0  0  0
 23 14  1  0  0  0  0
 26 17  1  0  0  0  0
 26 25  1  0  0  0  0
 27 24  1  1  0  0  0
 27  7  1  0  0  0  0
 29 30  2  0  0  0  0
 30 28  1  0  0  0  0
M  END
>  <MODEL>
1

>  <REMARK>
 VINA RESULT:     -10.0      0.000      0.000
  Name = 
  2 active torsions:
  status: ('A' for Active; 'I' for Inactive)
    1  A    between atoms: C_11  and  O_28
    2  A    between atoms: O_28  and  C_30
                            x       y       z     vdW  Elec       q    Type
                         _______ _______ _______ _____ _____    ______ ____

>  <TORSDO>
F 2

$$$$
=
 OpenBabel11122410223D

 30 35  0  0  1  0  0  0  0  0999 V2000
  185.9340  178.2100  142.6570 C   0  0  0  0  0  0  0  0  0  0  0  0
  186.8310  178.2250  145.0600 C   0  0  0  0  0  0  0  0  0  0  0  0
  181.9910  178.7450  144.0020 N   0  0  0  0  0  2  0  0  0  0  0  0
  184.8480  178.3440  141.7480 C   0  0  0  0  0  0  0  0  0  0  0  0
  187.2890  177.8700  142.1020 C   0  0  0  0  0  2  0  0  0  0  0  0
  186.7340  178.3750  138.6200 O   0  0  0  0  0  0  0  0  0  0  0  0
  182.9000  177.6960  139.4250 C   0  0  1  0  0  3  0  0  0  0  0  0
  186.4750  178.4410  139.8540 C   0  0  0  0  0  0  0  0  0  0  0  0
  181.9240  178.1250  140.4430 C   0  0  0  0  0  0  0  0  0  0  0  0
  181.2080  178.7490  142.7700 C   0  0  1  0  0  3  0  0  0  0  0  0
  187.5880  178.6510  140.8340 C   0  0  2  0  0  3  0  0  0  0  0  0
  185.1110  178.4030  140.3160 N   0  0  0  0  0  0  0  0  0  0  0  0
  186.5650  178.5310  146.4690 C   0  0  0  0  0  3  0  0  0  0  0  0
  180.5760  178.0900  139.8830 C   0  0  0  0  0  2  0  0  0  0  0  0
  182.2130  177.6190  138.1990 O   0  0  0  0  0  0  0  0  0  0  0  0
  188.0090  177.9350  144.7220 O   0  0  0  0  0  0  0  0  0  0  0  0
  183.3620  178.5870  143.6540 C   0  0  0  0  0  0  0  0  0  0  0  0
  185.3260  178.7200  146.9130 C   0  0  0  0  0  3  0  0  0  0  0  0
  185.7230  178.3020  144.0670 C   0  0  0  0  0  0  0  0  0  0  0  0
  183.5560  178.4720  142.3010 C   0  0  0  0  0  0  0  0  0  0  0  0
  180.5840  180.1200  142.5770 C   0  0  0  0  0  1  0  0  0  0  0  0
  182.2240  178.4830  141.6940 C   0  0  0  0  0  0  0  0  0  0  0  0
  180.8370  177.5170  138.5040 C   0  0  0  0  0  2  0  0  0  0  0  0
  183.7030  180.1310  139.2400 C   0  0  0  0  0  1  0  0  0  0  0  0
  184.1130  178.5660  146.0380 C   0  0  0  0  0  2  0  0  0  0  0  0
  184.4160  178.5200  144.5610 C   0  0  0  0  0  0  0  0  0  0  0  0
  184.0800  178.6540  139.3060 C   0  0  2  0  0  3  0  0  0  0  0  0
  188.8260  178.2240  140.2840 O   0  0  0  0  0  0  0  0  0  0  0  0
  190.8890  177.1560  140.6450 C   0  0  0  0  0  2  0  0  0  0  0  0
  189.6020  177.2730  140.9360 C   0  0  0  0  0  3  0  0  0  0  0  0
  1 19  1  0  0  0  0
  2 13  1  0  0  0  0
  4 20  1  0  0  0  0
  4  1  2  0  0  0  0
  5  1  1  0  0  0  0
  6  8  2  0  0  0  0
  7 15  1  6  0  0  0
  7  9  1  0  0  0  0
  8 12  1  0  0  0  0
  8 11  1  0  0  0  0
  9 22  2  0  0  0  0
 10 21  1  6  0  0  0
 10  3  1  0  0  0  0
 11 28  1  6  0  0  0
 11  5  1  0  0  0  0
 12  4  1  0  0  0  0
 13 18  2  0  0  0  0
 14  9  1  0  0  0  0
 15 23  1  0  0  0  0
 16  2  2  0  0  0  0
 17  3  1  0  0  0  0
 17 26  1  0  0  0  0
 19 26  2  0  0  0  0
 19  2  1  0  0  0  0
 20 17  2  0  0  0  0
 22 20  1  0  0  0  0
 22 10  1  0  0  0  0
 23 14  1  0  0  0  0
 25 18  1  0  0  0  0
 26 25  1  0  0  0  0
 27 24  1  1  0  0  0
 27  7  1  0  0  0  0
 27 12  1  0  0  0  0
 28 30  1  0  0  0  0
 29 30  2  0  0  0  0
M  END
>  <MODEL>
2

>  <REMARK>
 VINA RESULT:      -8.8      2.783      4.579
  Name = 
  2 active torsions:
  status: ('A' for Active; 'I' for Inactive)
    1  A    between atoms: C_11  and  O_28
    2  A    between atoms: O_28  and  C_30
                            x       y       z     vdW  Elec       q    Type
                         _______ _______ _______ _____ _____    ______ ____

>  <TORSDO>
F 2

$$$$
=
 OpenBabel11122410223D

 30 35  0  0  1  0  0  0  0  0999 V2000
  185.8820  178.5710  141.8950 C   0  0  0  0  0  0  0  0  0  0  0  0
  183.3630  178.9790  142.1550 C   0  0  0  0  0  0  0  0  0  0  0  0
  186.3580  178.1270  146.0440 N   0  0  0  0  0  2  0  0  0  0  0  0
  187.1440  178.2530  142.4710 C   0  0  0  0  0  0  0  0  0  0  0  0
  185.8250  178.8630  140.4210 C   0  0  0  0  0  2  0  0  0  0  0  0
  189.0600  177.7770  139.3980 O   0  0  0  0  0  0  0  0  0  0  0  0
  190.1600  178.4450  143.1600 C   0  0  1  0  0  3  0  0  0  0  0  0
  188.0760  177.9050  140.1790 C   0  0  0  0  0  0  0  0  0  0  0  0
  189.6250  178.1540  144.5020 C   0  0  0  0  0  0  0  0  0  0  0  0
  187.7900  177.8950  146.2010 C   0  0  1  0  0  3  0  0  0  0  0  0
  186.6840  177.8960  139.6250 C   0  0  2  0  0  3  0  0  0  0  0  0
  188.2790  177.9700  141.6030 N   0  0  0  0  0  0  0  0  0  0  0  0
  182.1890  178.8990  143.0310 C   0  0  0  0  0  3  0  0  0  0  0  0
  190.7230  178.0510  145.4600 C   0  0  0  0  0  2  0  0  0  0  0  0
  191.5580  178.2970  143.2280 O   0  0  0  0  0  0  0  0  0  0  0  0
  183.1850  179.2500  140.9390 O   0  0  0  0  0  0  0  0  0  0  0  0
  186.0820  178.2720  144.6550 C   0  0  0  0  0  0  0  0  0  0  0  0
  182.3160  178.7420  144.3460 C   0  0  0  0  0  3  0  0  0  0  0  0
  184.7170  178.7030  142.7110 C   0  0  0  0  0  0  0  0  0  0  0  0
  187.2070  178.1720  143.8780 C   0  0  0  0  0  0  0  0  0  0  0  0
  188.0160  176.4890  146.7310 C   0  0  0  0  0  1  0  0  0  0  0  0
  188.3320  178.0160  144.8030 C   0  0  0  0  0  0  0  0  0  0  0  0
  191.9150  178.4000  144.5920 C   0  0  0  0  0  2  0  0  0  0  0  0
  189.5730  176.0420  142.4600 C   0  0  0  0  0  1  0  0  0  0  0  0
  183.6500  178.7090  145.0370 C   0  0  0  0  0  2  0  0  0  0  0  0
  184.8260  178.5230  144.1110 C   0  0  0  0  0  0  0  0  0  0  0  0
  189.5870  177.5220  142.0900 C   0  0  2  0  0  3  0  0  0  0  0  0
  186.6890  178.2700  138.2540 O   0  0  0  0  0  0  0  0  0  0  0  0
  184.8880  177.1910  137.1990 C   0  0  0  0  0  2  0  0  0  0  0  0
  186.1910  177.4110  137.2820 C   0  0  0  0  0  3  0  0  0  0  0  0
  1  4  2  0  0  0  0
  1 19  1  0  0  0  0
  2 19  1  0  0  0  0
  2 13  1  0  0  0  0
  3 10  1  0  0  0  0
  4 20  1  0  0  0  0
  5  1  1  0  0  0  0
  6  8  2  0  0  0  0
  7 15  1  1  0  0  0
  7  9  1  0  0  0  0
  8 12  1  0  0  0  0
  9 22  2  0  0  0  0
  9 14  1  0  0  0  0
 10 21  1  6  0  0  0
 11 28  1  6  0  0  0
 11  8  1  0  0  0  0
 11  5  1  0  0  0  0
 12 27  1  0  0  0  0
 12  4  1  0  0  0  0
 13 18  2  0  0  0  0
 15 23  1  0  0  0  0
 16  2  2  0  0  0  0
 17  3  1  0  0  0  0
 18 25  1  0  0  0  0
 19 26  2  0  0  0  0
 20 17  2  0  0  0  0
 20 22  1  0  0  0  0
 22 10  1  0  0  0  0
 23 14  1  0  0  0  0
 26 17  1  0  0  0  0
 26 25  1  0  0  0  0
 27 24  1  1  0  0  0
 27  7  1  0  0  0  0
 29 30  2  0  0  0  0
 30 28  1  0  0  0  0
M  END
>  <MODEL>
3

>  <REMARK>
 VINA RESULT:      -8.6      1.784      5.640
  Name = 
  2 active torsions:
  status: ('A' for Active; 'I' for Inactive)
    1  A    between atoms: C_11  and  O_28
    2  A    between atoms: O_28  and  C_30
                            x       y       z     vdW  Elec       q    Type
                         _______ _______ _______ _____ _____    ______ ____

>  <TORSDO>
F 2

$$$$
=
 OpenBabel11122410223D

 30 35  0  0  1  0  0  0  0  0999 V2000
  187.2930  178.2510  140.4690 C   0  0  0  0  0  0  0  0  0  0  0  0
  184.9900  178.8380  139.5040 C   0  0  0  0  0  0  0  0  0  0  0  0
  185.7730  178.2120  144.3840 N   0  0  0  0  0  2  0  0  0  0  0  0
  188.1130  177.9180  141.5840 C   0  0  0  0  0  0  0  0  0  0  0  0
  187.9460  178.3910  139.1220 C   0  0  0  0  0  2  0  0  0  0  0  0
  191.1610  177.0090  139.7890 O   0  0  0  0  0  0  0  0  0  0  0  0
  190.4830  177.9960  143.5800 C   0  0  1  0  0  3  0  0  0  0  0  0
  189.9480  177.2770  140.0140 C   0  0  0  0  0  0  0  0  0  0  0  0
  189.3670  177.8800  144.5370 C   0  0  0  0  0  0  0  0  0  0  0  0
  186.9440  177.9110  145.2020 C   0  0  1  0  0  3  0  0  0  0  0  0
  188.9700  177.2960  138.8790 C   0  0  2  0  0  3  0  0  0  0  0  0
  189.4830  177.4780  141.3620 N   0  0  0  0  0  0  0  0  0  0  0  0
  183.5450  178.9210  139.7380 C   0  0  0  0  0  3  0  0  0  0  0  0
  189.8890  177.8100  145.8990 C   0  0  0  0  0  2  0  0  0  0  0  0
  191.6720  177.7710  144.2990 O   0  0  0  0  0  0  0  0  0  0  0  0
  185.4160  178.9910  138.3300 O   0  0  0  0  0  0  0  0  0  0  0  0
  186.1790  178.2300  143.0200 C   0  0  0  0  0  0  0  0  0  0  0  0
  183.0410  178.8940  140.9690 C   0  0  0  0  0  3  0  0  0  0  0  0
  185.9050  178.5390  140.6420 C   0  0  0  0  0  0  0  0  0  0  0  0
  187.5180  177.9800  142.8620 C   0  0  0  0  0  0  0  0  0  0  0  0
  186.7570  176.5570  145.8650 C   0  0  0  0  0  1  0  0  0  0  0  0
  188.0730  177.8530  144.2110 C   0  0  0  0  0  0  0  0  0  0  0  0
  191.3750  177.9920  145.6630 C   0  0  0  0  0  2  0  0  0  0  0  0
  190.0380  175.5740  142.8440 C   0  0  0  0  0  1  0  0  0  0  0  0
  183.9000  178.8510  142.2010 C   0  0  0  0  0  2  0  0  0  0  0  0
  185.3440  178.4990  141.9400 C   0  0  0  0  0  0  0  0  0  0  0  0
  190.3710  177.0030  142.4280 C   0  0  2  0  0  3  0  0  0  0  0  0
  189.6390  177.5250  137.6470 O   0  0  0  0  0  0  0  0  0  0  0  0
  188.6270  177.6250  135.5280 C   0  0  0  0  0  2  0  0  0  0  0  0
  189.0250  178.2440  136.6290 C   0  0  0  0  0  3  0  0  0  0  0  0
  1 19  2  0  0  0  0
  1  4  1  0  0  0  0
  2 13  1  0  0  0  0
  2 19  1  0  0  0  0
  3 10  1  0  0  0  0
  4 20  2  0  0  0  0
  5  1  1  0  0  0  0
  6  8  2  0  0  0  0
  7 15  1  1  0  0  0
  7  9  1  0  0  0  0
  8 12  1  0  0  0  0
  9 14  1  0  0  0  0
 10 21  1  6  0  0  0
 11 28  1  6  0  0  0
 11  5  1  0  0  0  0
 11  8  1  0  0  0  0
 12  4  1  0  0  0  0
 12 27  1  0  0  0  0
 13 18  2  0  0  0  0
 15 23  1  0  0  0  0
 16  2  2  0  0  0  0
 17  3  1  0  0  0  0
 18 25  1  0  0  0  0
 19 26  1  0  0  0  0
 20 17  1  0  0  0  0
 20 22  1  0  0  0  0
 22  9  2  0  0  0  0
 22 10  1  0  0  0  0
 23 14  1  0  0  0  0
 26 25  1  0  0  0  0
 26 17  2  0  0  0  0
 27 24  1  1  0  0  0
 27  7  1  0  0  0  0
 29 30  2  0  0  0  0
 30 28  1  0  0  0  0
M  END
>  <MODEL>
4

>  <REMARK>
 VINA RESULT:      -8.5      2.024      5.718
  Name = 
  2 active torsions:
  status: ('A' for Active; 'I' for Inactive)
    1  A    between atoms: C_11  and  O_28
    2  A    between atoms: O_28  and  C_30
                            x       y       z     vdW  Elec       q    Type
                         _______ _______ _______ _____ _____    ______ ____

>  <TORSDO>
F 2

$$$$
=
 OpenBabel11122410223D

 30 35  0  0  1  0  0  0  0  0999 V2000
  187.7370  177.8020  142.7710 C   0  0  0  0  0  0  0  0  0  0  0  0
  186.6180  178.1020  145.0590 C   0  0  0  0  0  0  0  0  0  0  0  0
  184.2050  178.8800  140.7710 N   0  0  0  0  0  2  0  0  0  0  0  0
  187.6820  177.8920  141.3510 C   0  0  0  0  0  0  0  0  0  0  0  0
  188.9910  177.2630  143.4010 C   0  0  0  0  0  2  0  0  0  0  0  0
  191.2060  177.2810  140.6110 O   0  0  0  0  0  0  0  0  0  0  0  0
  187.9270  177.0740  138.3710 C   0  0  1  0  0  3  0  0  0  0  0  0
  190.1560  177.5560  141.2560 C   0  0  0  0  0  0  0  0  0  0  0  0
  186.6110  177.7370  138.3310 C   0  0  0  0  0  0  0  0  0  0  0  0
  184.5630  178.7670  139.3600 C   0  0  1  0  0  3  0  0  0  0  0  0
  190.2370  177.8130  142.7290 C   0  0  2  0  0  3  0  0  0  0  0  0
  188.8980  177.7090  140.5710 N   0  0  0  0  0  0  0  0  0  0  0  0
  185.4780  178.6400  145.8090 C   0  0  0  0  0  3  0  0  0  0  0  0
  186.0990  177.7360  136.9630 C   0  0  0  0  0  2  0  0  0  0  0  0
  188.3320  176.8730  137.0390 O   0  0  0  0  0  0  0  0  0  0  0  0
  187.6050  177.6620  145.7040 O   0  0  0  0  0  0  0  0  0  0  0  0
  185.3520  178.5520  141.5460 C   0  0  0  0  0  0  0  0  0  0  0  0
  184.3560  179.0030  145.1930 C   0  0  0  0  0  3  0  0  0  0  0  0
  186.5980  178.1240  143.5690 C   0  0  0  0  0  0  0  0  0  0  0  0
  186.4350  178.2160  140.7750 C   0  0  0  0  0  0  0  0  0  0  0  0
  184.5160  180.1430  138.7190 C   0  0  0  0  0  1  0  0  0  0  0  0
  185.9760  178.2520  139.3850 C   0  0  0  0  0  0  0  0  0  0  0  0
  187.1680  176.9400  136.2410 C   0  0  0  0  0  2  0  0  0  0  0  0
  189.0180  179.3720  138.7410 C   0  0  0  0  0  1  0  0  0  0  0  0
  184.1410  178.8250  143.7160 C   0  0  0  0  0  2  0  0  0  0  0  0
  185.3990  178.5300  142.9370 C   0  0  0  0  0  0  0  0  0  0  0  0
  188.9720  177.8950  139.1190 C   0  0  2  0  0  3  0  0  0  0  0  0
  191.3940  177.2000  143.2810 O   0  0  0  0  0  0  0  0  0  0  0  0
  191.6800  176.7580  145.5710 C   0  0  0  0  0  2  0  0  0  0  0  0
  191.2930  176.3470  144.3730 C   0  0  0  0  0  3  0  0  0  0  0  0
  1  5  1  0  0  0  0
  1 19  1  0  0  0  0
  2 16  2  0  0  0  0
  2 13  1  0  0  0  0
  3 17  1  0  0  0  0
  4  1  2  0  0  0  0
  6  8  2  0  0  0  0
  7 15  1  6  0  0  0
  7 27  1  0  0  0  0
  8 11  1  0  0  0  0
  9  7  1  0  0  0  0
  9 22  2  0  0  0  0
 10 21  1  1  0  0  0
 10 22  1  0  0  0  0
 10  3  1  0  0  0  0
 11 28  1  1  0  0  0
 11  5  1  0  0  0  0
 12  8  1  0  0  0  0
 12  4  1  0  0  0  0
 14  9  1  0  0  0  0
 17 26  1  0  0  0  0
 18 13  2  0  0  0  0
 19  2  1  0  0  0  0
 20  4  1  0  0  0  0
 20 17  2  0  0  0  0
 22 20  1  0  0  0  0
 23 14  1  0  0  0  0
 23 15  1  0  0  0  0
 25 18  1  0  0  0  0
 26 19  2  0  0  0  0
 26 25  1  0  0  0  0
 27 24  1  1  0  0  0
 27 12  1  0  0  0  0
 28 30  1  0  0  0  0
 30 29  2  0  0  0  0
M  END
>  <MODEL>
5

>  <REMARK>
 VINA RESULT:      -7.9      2.406      5.753
  Name = 
  2 active torsions:
  status: ('A' for Active; 'I' for Inactive)
    1  A    between atoms: C_11  and  O_28
    2  A    between atoms: O_28  and  C_30
                            x       y       z     vdW  Elec       q    Type
                         _______ _______ _______ _____ _____    ______ ____

>  <TORSDO>
F 2

$$$$
=
 OpenBabel11122410223D

 30 35  0  0  1  0  0  0  0  0999 V2000
  188.2070  177.2910  142.8030 C   0  0  0  0  0  0  0  0  0  0  0  0
  186.0350  178.1070  143.8970 C   0  0  0  0  0  0  0  0  0  0  0  0
  186.9430  178.6280  139.0270 N   0  0  0  0  0  2  0  0  0  0  0  0
  189.0390  177.1780  141.6540 C   0  0  0  0  0  0  0  0  0  0  0  0
  188.6690  176.6530  144.0830 C   0  0  0  0  0  2  0  0  0  0  0  0
  192.0530  175.8930  143.2700 O   0  0  0  0  0  0  0  0  0  0  0  0
  190.8440  175.8990  139.4820 C   0  0  1  0  0  3  0  0  0  0  0  0
  190.9200  176.4300  143.1200 C   0  0  0  0  0  0  0  0  0  0  0  0
  190.0060  176.7560  138.6240 C   0  0  0  0  0  0  0  0  0  0  0  0
  188.0420  178.2490  138.1450 C   0  0  1  0  0  3  0  0  0  0  0  0
  190.1510  176.8850  144.3220 C   0  0  2  0  0  3  0  0  0  0  0  0
  190.4020  176.6850  141.8000 N   0  0  0  0  0  0  0  0  0  0  0  0
  184.8280  178.9300  143.7700 C   0  0  0  0  0  3  0  0  0  0  0  0
  190.4380  176.6370  137.2340 C   0  0  0  0  0  2  0  0  0  0  0  0
  191.9140  175.4390  138.6920 O   0  0  0  0  0  0  0  0  0  0  0  0
  186.3050  177.6110  145.0220 O   0  0  0  0  0  0  0  0  0  0  0  0
  187.2820  178.2330  140.3510 C   0  0  0  0  0  0  0  0  0  0  0  0
  184.4190  179.3780  142.5860 C   0  0  0  0  0  3  0  0  0  0  0  0
  186.9230  177.9110  142.7170 C   0  0  0  0  0  0  0  0  0  0  0  0
  188.5030  177.6140  140.4230 C   0  0  0  0  0  0  0  0  0  0  0  0
  188.6970  179.5040  137.5930 C   0  0  0  0  0  1  0  0  0  0  0  0
  188.9970  177.5190  139.0490 C   0  0  0  0  0  0  0  0  0  0  0  0
  191.5170  175.5780  137.3430 C   0  0  0  0  0  2  0  0  0  0  0  0
  191.9650  178.0150  140.4160 C   0  0  0  0  0  1  0  0  0  0  0  0
  185.1060  179.0210  141.2970 C   0  0  0  0  0  2  0  0  0  0  0  0
  186.4750  178.4100  141.4710 C   0  0  0  0  0  0  0  0  0  0  0  0
  191.3750  176.6380  140.7050 C   0  0  2  0  0  3  0  0  0  0  0  0
  190.5700  176.1790  145.4810 O   0  0  0  0  0  0  0  0  0  0  0  0
  192.0550  176.0030  147.2940 C   0  0  0  0  0  2  0  0  0  0  0  0
  191.4610  176.7540  146.3790 C   0  0  0  0  0  3  0  0  0  0  0  0
  1  5  1  0  0  0  0
  2 16  2  0  0  0  0
  3 17  1  0  0  0  0
  4 12  1  0  0  0  0
  4  1  2  0  0  0  0
  5 11  1  0  0  0  0
  7  9  1  6  0  0  0
  7 27  1  0  0  0  0
  8  6  2  0  0  0  0
  8 11  1  0  0  0  0
  9 22  2  0  0  0  0
 10 21  1  1  0  0  0
 10  3  1  0  0  0  0
 10 22  1  0  0  0  0
 11 28  1  1  0  0  0
 12  8  1  0  0  0  0
 13  2  1  0  0  0  0
 14 23  1  0  0  0  0
 14  9  1  0  0  0  0
 15  7  1  0  0  0  0
 17 20  2  0  0  0  0
 17 26  1  0  0  0  0
 18 13  2  0  0  0  0
 19  1  1  0  0  0  0
 19  2  1  0  0  0  0
 20  4  1  0  0  0  0
 22 20  1  0  0  0  0
 23 15  1  0  0  0  0
 25 26  1  0  0  0  0
 25 18  1  0  0  0  0
 26 19  2  0  0  0  0
 27 24  1  6  0  0  0
 27 12  1  0  0  0  0
 28 30  1  0  0  0  0
 30 29  2  0  0  0  0
M  END
>  <MODEL>
6

>  <REMARK>
 VINA RESULT:      -7.7      2.371      7.026
  Name = 
  2 active torsions:
  status: ('A' for Active; 'I' for Inactive)
    1  A    between atoms: C_11  and  O_28
    2  A    between atoms: O_28  and  C_30
                            x       y       z     vdW  Elec       q    Type
                         _______ _______ _______ _____ _____    ______ ____

>  <TORSDO>
F 2

$$$$
=
 OpenBabel11122410223D

 30 35  0  0  1  0  0  0  0  0999 V2000
  185.3200  178.2730  142.2860 C   0  0  0  0  0  0  0  0  0  0  0  0
  185.3560  178.3430  139.7220 C   0  0  0  0  0  0  0  0  0  0  0  0
  189.4990  177.8780  142.4500 N   0  0  0  0  0  2  0  0  0  0  0  0
  186.0170  178.2240  143.5260 C   0  0  0  0  0  0  0  0  0  0  0  0
  183.8170  178.2620  142.3120 C   0  0  0  0  0  2  0  0  0  0  0  0
  183.2040  178.8330  145.7750 O   0  0  0  0  0  0  0  0  0  0  0  0
  186.8260  177.3080  146.3750 C   0  0  1  0  0  3  0  0  0  0  0  0
  183.8890  178.7720  144.7160 C   0  0  0  0  0  0  0  0  0  0  0  0
  188.1670  177.4610  145.7820 C   0  0  0  0  0  0  0  0  0  0  0  0
  189.7770  177.7850  143.8790 C   0  0  1  0  0  3  0  0  0  0  0  0
  183.2690  179.1590  143.4090 C   0  0  2  0  0  3  0  0  0  0  0  0
  185.2840  178.4190  144.7700 N   0  0  0  0  0  0  0  0  0  0  0  0
  186.1630  178.5050  138.5080 C   0  0  0  0  0  3  0  0  0  0  0  0
  189.1880  177.1710  146.7860 C   0  0  0  0  0  2  0  0  0  0  0  0
  187.0000  177.1560  147.7630 O   0  0  0  0  0  0  0  0  0  0  0  0
  184.1030  178.3310  139.6100 O   0  0  0  0  0  0  0  0  0  0  0  0
  188.0940  178.0370  142.2820 C   0  0  0  0  0  0  0  0  0  0  0  0
  187.4890  178.4000  138.5400 C   0  0  0  0  0  3  0  0  0  0  0  0
  186.0300  178.2380  141.0470 C   0  0  0  0  0  0  0  0  0  0  0  0
  187.4150  178.0420  143.4730 C   0  0  0  0  0  0  0  0  0  0  0  0
  190.5770  179.0010  144.3150 C   0  0  0  0  0  1  0  0  0  0  0  0
  188.4140  177.8030  144.5160 C   0  0  0  0  0  0  0  0  0  0  0  0
  188.3380  176.7460  147.9660 C   0  0  0  0  0  2  0  0  0  0  0  0
  186.5640  179.8650  146.3190 C   0  0  0  0  0  1  0  0  0  0  0  0
  188.2480  178.0410  139.7870 C   0  0  0  0  0  2  0  0  0  0  0  0
  187.4420  178.1450  141.0580 C   0  0  0  0  0  0  0  0  0  0  0  0
  185.9210  178.5010  146.0880 C   0  0  2  0  0  3  0  0  0  0  0  0
  181.8550  179.0380  143.4700 O   0  0  0  0  0  0  0  0  0  0  0  0
  179.9030  178.4030  142.3270 C   0  0  0  0  0  2  0  0  0  0  0  0
  181.0970  178.9740  142.3070 C   0  0  0  0  0  3  0  0  0  0  0  0
  1  5  1  0  0  0  0
  1  4  1  0  0  0  0
  2 19  1  0  0  0  0
  3 10  1  0  0  0  0
  4 12  1  0  0  0  0
  5 11  1  0  0  0  0
  7  9  1  6  0  0  0
  7 15  1  0  0  0  0
  8 12  1  0  0  0  0
  8  6  2  0  0  0  0
  9 14  1  0  0  0  0
 10 21  1  1  0  0  0
 10 22  1  0  0  0  0
 11 28  1  1  0  0  0
 11  8  1  0  0  0  0
 12 27  1  0  0  0  0
 13 18  2  0  0  0  0
 13  2  1  0  0  0  0
 14 23  1  0  0  0  0
 15 23  1  0  0  0  0
 16  2  2  0  0  0  0
 17  3  1  0  0  0  0
 17 20  1  0  0  0  0
 18 25  1  0  0  0  0
 19 26  1  0  0  0  0
 19  1  2  0  0  0  0
 20  4  2  0  0  0  0
 20 22  1  0  0  0  0
 22  9  2  0  0  0  0
 25 26  1  0  0  0  0
 26 17  2  0  0  0  0
 27 24  1  6  0  0  0
 27  7  1  0  0  0  0
 30 29  2  0  0  0  0
 30 28  1  0  0  0  0
M  END
>  <MODEL>
7

>  <REMARK>
 VINA RESULT:      -7.3      2.356      6.432
  Name = 
  2 active torsions:
  status: ('A' for Active; 'I' for Inactive)
    1  A    between atoms: C_11  and  O_28
    2  A    between atoms: O_28  and  C_30
                            x       y       z     vdW  Elec       q    Type
                         _______ _______ _______ _____ _____    ______ ____

>  <TORSDO>
F 2

$$$$
=
 OpenBabel11122410223D

 30 35  0  0  1  0  0  0  0  0999 V2000
  188.0570  177.8790  141.1830 C   0  0  0  0  0  0  0  0  0  0  0  0
  190.0020  177.6560  142.8400 C   0  0  0  0  0  0  0  0  0  0  0  0
  185.2810  178.2490  144.3130 N   0  0  0  0  0  2  0  0  0  0  0  0
  186.6740  178.0970  140.9310 C   0  0  0  0  0  0  0  0  0  0  0  0
  188.9600  177.6050  140.0130 C   0  0  0  0  0  2  0  0  0  0  0  0
  186.8150  178.4580  137.2990 O   0  0  0  0  0  0  0  0  0  0  0  0
  183.8200  177.6760  139.7950 C   0  0  1  0  0  3  0  0  0  0  0  0
  187.1880  178.3960  138.5040 C   0  0  0  0  0  0  0  0  0  0  0  0
  183.4780  177.9940  141.1930 C   0  0  0  0  0  0  0  0  0  0  0  0
  184.0010  178.3730  143.6220 C   0  0  1  0  0  3  0  0  0  0  0  0
  188.6430  178.5130  138.8370 C   0  0  2  0  0  3  0  0  0  0  0  0
  186.2160  178.3030  139.5630 N   0  0  0  0  0  0  0  0  0  0  0  0
  190.4630  177.8150  144.2230 C   0  0  0  0  0  3  0  0  0  0  0  0
  182.0260  178.0070  141.3550 C   0  0  0  0  0  2  0  0  0  0  0  0
  182.6250  177.7200  139.0530 O   0  0  0  0  0  0  0  0  0  0  0  0
  190.8570  177.4090  141.9490 O   0  0  0  0  0  0  0  0  0  0  0  0
  186.3050  178.1370  143.3310 C   0  0  0  0  0  0  0  0  0  0  0  0
  189.6020  177.9500  145.2270 C   0  0  0  0  0  3  0  0  0  0  0  0
  188.5570  177.8260  142.5200 C   0  0  0  0  0  0  0  0  0  0  0  0
  185.8160  178.1600  142.0500 C   0  0  0  0  0  0  0  0  0  0  0  0
  183.4220  179.7530  143.8810 C   0  0  0  0  0  1  0  0  0  0  0  0
  184.3590  178.2240  142.1680 C   0  0  0  0  0  0  0  0  0  0  0  0
  181.5640  177.5790  139.9770 C   0  0  0  0  0  2  0  0  0  0  0  0
  184.5400  180.1220  139.4690 C   0  0  0  0  0  1  0  0  0  0  0  0
  188.1120  177.8780  145.0390 C   0  0  0  0  0  2  0  0  0  0  0  0
  187.6610  177.9840  143.6030 C   0  0  0  0  0  0  0  0  0  0  0  0
  184.8370  178.6490  139.2070 C   0  0  2  0  0  3  0  0  0  0  0  0
  189.4420  178.1520  137.7190 O   0  0  0  0  0  0  0  0  0  0  0  0
  190.5720  176.3520  136.7150 C   0  0  0  0  0  2  0  0  0  0  0  0
  190.3240  177.0800  137.7930 C   0  0  0  0  0  3  0  0  0  0  0  0
  1 19  1  0  0  0  0
  2 13  1  0  0  0  0
  4  1  2  0  0  0  0
  4 20  1  0  0  0  0
  5  1  1  0  0  0  0
  6  8  2  0  0  0  0
  7 15  1  6  0  0  0
  7  9  1  0  0  0  0
  8 11  1  0  0  0  0
  8 12  1  0  0  0  0
  9 14  1  0  0  0  0
  9 22  2  0  0  0  0
 10 21  1  6  0  0  0
 10  3  1  0  0  0  0
 11 28  1  6  0  0  0
 11  5  1  0  0  0  0
 12  4  1  0  0  0  0
 13 18  2  0  0  0  0
 15 23  1  0  0  0  0
 16  2  2  0  0  0  0
 17 26  1  0  0  0  0
 17  3  1  0  0  0  0
 19  2  1  0  0  0  0
 19 26  2  0  0  0  0
 20 22  1  0  0  0  0
 20 17  2  0  0  0  0
 22 10  1  0  0  0  0
 23 14  1  0  0  0  0
 25 18  1  0  0  0  0
 26 25  1  0  0  0  0
 27 24  1  1  0  0  0
 27 12  1  0  0  0  0
 27  7  1  0  0  0  0
 28 30  1  0  0  0  0
 29 30  2  0  0  0  0
M  END
>  <MODEL>
8

>  <REMARK>
 VINA RESULT:      -7.3      2.227      3.125
  Name = 
  2 active torsions:
  status: ('A' for Active; 'I' for Inactive)
    1  A    between atoms: C_11  and  O_28
    2  A    between atoms: O_28  and  C_30
                            x       y       z     vdW  Elec       q    Type
                         _______ _______ _______ _____ _____    ______ ____

>  <TORSDO>
F 2

$$$$
=
 OpenBabel11122410223D

 30 35  0  0  1  0  0  0  0  0999 V2000
  183.8360  178.6510  140.7650 C   0  0  0  0  0  0  0  0  0  0  0  0
  182.8700  178.9700  143.1190 C   0  0  0  0  0  0  0  0  0  0  0  0
  187.7430  178.3610  142.2800 N   0  0  0  0  0  2  0  0  0  0  0  0
  184.9500  178.4000  139.9140 C   0  0  0  0  0  0  0  0  0  0  0  0
  182.4950  178.8910  140.1300 C   0  0  0  0  0  2  0  0  0  0  0  0
  183.1550  177.8980  136.7730 O   0  0  0  0  0  0  0  0  0  0  0  0
  186.9590  178.7310  137.5770 C   0  0  1  0  0  3  0  0  0  0  0  0
  183.3780  178.0130  138.0100 C   0  0  0  0  0  0  0  0  0  0  0  0
  187.9070  178.4640  138.6730 C   0  0  0  0  0  0  0  0  0  0  0  0
  188.5610  178.1900  141.0840 C   0  0  1  0  0  3  0  0  0  0  0  0
  182.2390  177.9330  138.9800 C   0  0  2  0  0  3  0  0  0  0  0  0
  184.7280  178.1330  138.5000 N   0  0  0  0  0  0  0  0  0  0  0  0
  183.0970  178.8740  144.5650 C   0  0  0  0  0  3  0  0  0  0  0  0
  189.2710  178.4350  138.1500 C   0  0  0  0  0  2  0  0  0  0  0  0
  187.6790  178.6390  136.3720 O   0  0  0  0  0  0  0  0  0  0  0  0
  181.7010  179.1940  142.7110 O   0  0  0  0  0  0  0  0  0  0  0  0
  186.3810  178.4510  141.8760 C   0  0  0  0  0  0  0  0  0  0  0  0
  184.3250  178.7650  145.0650 C   0  0  0  0  0  3  0  0  0  0  0  0
  184.0070  178.7650  142.1780 C   0  0  0  0  0  0  0  0  0  0  0  0
  186.2260  178.3680  140.5160 C   0  0  0  0  0  0  0  0  0  0  0  0
  189.2010  176.8120  141.1070 C   0  0  0  0  0  1  0  0  0  0  0  0
  187.5750  178.2860  139.9530 C   0  0  0  0  0  0  0  0  0  0  0  0
  189.0450  178.8000  136.6970 C   0  0  0  0  0  2  0  0  0  0  0  0
  186.1800  176.2850  137.7230 C   0  0  0  0  0  1  0  0  0  0  0  0
  185.5610  178.8060  144.2110 C   0  0  0  0  0  2  0  0  0  0  0  0
  185.3010  178.6350  142.7340 C   0  0  0  0  0  0  0  0  0  0  0  0
  185.7900  177.7520  137.5650 C   0  0  2  0  0  3  0  0  0  0  0  0
  181.0140  178.2620  138.3400 O   0  0  0  0  0  0  0  0  0  0  0  0
  180.5190  180.3070  137.2940 C   0  0  0  0  0  2  0  0  0  0  0  0
  180.5150  179.5580  138.3860 C   0  0  0  0  0  3  0  0  0  0  0  0
  1 19  1  0  0  0  0
  2 13  1  0  0  0  0
  4 20  1  0  0  0  0
  4  1  2  0  0  0  0
  5  1  1  0  0  0  0
  6  8  2  0  0  0  0
  7 15  1  6  0  0  0
  7  9  1  0  0  0  0
  8 12  1  0  0  0  0
  8 11  1  0  0  0  0
  9 22  2  0  0  0  0
 10 21  1  1  0  0  0
 10  3  1  0  0  0  0
 11 28  1  6  0  0  0
 11  5  1  0  0  0  0
 12  4  1  0  0  0  0
 13 18  2  0  0  0  0
 14  9  1  0  0  0  0
 15 23  1  0  0  0  0
 16  2  2  0  0  0  0
 17  3  1  0  0  0  0
 17 26  1  0  0  0  0
 19 26  2  0  0  0  0
 19  2  1  0  0  0  0
 20 17  2  0  0  0  0
 22 20  1  0  0  0  0
 22 10  1  0  0  0  0
 23 14  1  0  0  0  0
 25 18  1  0  0  0  0
 26 25  1  0  0  0  0
 27  7  1  0  0  0  0
 27 24  1  1  0  0  0
 27 12  1  0  0  0  0
 28 30  1  0  0  0  0
 29 30  2  0  0  0  0
M  END
>  <MODEL>
9

>  <REMARK>
 VINA RESULT:      -7.3      3.414      7.280
  Name = 
  2 active torsions:
  status: ('A' for Active; 'I' for Inactive)
    1  A    between atoms: C_11  and  O_28
    2  A    between atoms: O_28  and  C_30
                            x       y       z     vdW  Elec       q    Type
                         _______ _______ _______ _____ _____    ______ ____

>  <TORSDO>
F 2

$$$$
