=
 OpenBabel11122410583D

 31 35  0  0  1  0  0  0  0  0999 V2000
  191.3270  175.7060  143.4750 C   0  0  0  0  0  0  0  0  0  0  0  0
  187.6970  176.9550  143.5740 C   0  0  2  0  0  3  0  0  0  0  0  0
  186.9040  177.6850  144.6420 C   0  0  0  0  0  0  0  0  0  0  0  0
  186.5050  178.2120  146.9820 C   0  0  0  0  0  0  0  0  0  0  0  0
  189.2010  176.9130  143.8820 C   0  0  1  0  0  3  0  0  0  0  0  0
  192.1130  176.9850  143.4750 C   0  0  0  0  0  2  0  0  0  0  0  0
  187.2450  177.5530  145.9980 C   0  0  0  0  0  3  0  0  0  0  0  0
  188.2360  178.7680  141.7910 C   0  0  2  0  0  3  0  0  0  0  0  0
  191.8900  174.6480  143.7010 O   0  0  0  0  0  0  0  0  0  0  0  0
  185.3760  178.5660  142.9240 N   0  0  0  0  0  2  0  0  0  0  0  0
  186.8520  178.0890  148.2850 F   0  0  0  0  0  0  0  0  0  0  0  0
  189.0630  179.3280  142.9570 C   0  0  0  0  0  2  0  0  0  0  0  0
  187.4430  177.5020  142.1510 C   0  0  2  0  0  3  0  0  0  0  0  0
  189.8590  175.7210  143.1800 C   0  0  0  0  0  2  0  0  0  0  0  0
  185.4100  179.0010  146.6220 C   0  0  0  0  0  3  0  0  0  0  0  0
  189.9320  178.2670  143.6370 C   0  0  2  0  0  3  0  0  0  0  0  0
  191.2790  178.1360  142.9170 C   0  0  0  0  0  2  0  0  0  0  0  0
  185.9540  177.7060  141.8960 C   0  0  0  0  0  2  0  0  0  0  0  0
  185.7740  178.4510  144.2910 C   0  0  0  0  0  0  0  0  0  0  0  0
  185.0440  179.1190  145.2800 C   0  0  0  0  0  3  0  0  0  0  0  0
  187.3700  178.7430  139.0640 O   0  0  0  0  0  0  0  0  0  0  0  0
  188.5790  178.4740  139.2960 C   0  0  0  0  0  0  0  0  0  0  0  0
  189.0800  178.4980  140.6350 N   0  0  0  0  0  2  0  0  0  0  0  0
  187.8890  176.6740  136.0070 C   0  0  0  0  0  0  0  0  0  0  0  0
  189.0210  178.7270  136.8200 C   0  0  0  0  0  2  0  0  0  0  0  0
  189.9250  175.8600  139.4490 O   0  0  0  0  0  0  0  0  0  0  0  0
  188.0830  176.2800  134.8700 O   0  0  0  0  0  0  0  0  0  0  0  0
  187.7170  178.1310  136.2810 C   0  0  0  0  0  2  0  0  0  0  0  0
  189.7940  176.3300  138.0070 S   0  0  2  0  0  0  0  0  0  0  0  0
  189.4780  178.1150  138.1510 C   0  0  2  0  0  3  0  0  0  0  0  0
  187.9410  175.5290  137.3790 S   0  0  0  0  0  0  0  0  0  0  0  0
  1  9  2  0  0  0  0
  2  5  1  0  0  0  0
  2  3  1  1  0  0  0
  3  7  1  0  0  0  0
  4 11  1  0  0  0  0
  5 14  1  6  0  0  0
  6  1  1  0  0  0  0
  7  4  2  0  0  0  0
  8 23  1  6  0  0  0
  8 13  1  0  0  0  0
  8 12  1  0  0  0  0
 10 19  1  0  0  0  0
 12 16  1  0  0  0  0
 13 18  1  1  0  0  0
 13  2  1  0  0  0  0
 14  1  1  0  0  0  0
 15  4  1  0  0  0  0
 16 17  1  6  0  0  0
 16  5  1  0  0  0  0
 17  6  1  0  0  0  0
 18 10  1  0  0  0  0
 19  3  2  0  0  0  0
 19 20  1  0  0  0  0
 20 15  2  0  0  0  0
 21 22  2  0  0  0  0
 22 23  1  0  0  0  0
 24 28  1  0  0  0  0
 24 31  1  0  0  0  0
 25 30  1  0  0  0  0
 27 24  2  0  0  0  0
 28 25  1  0  0  0  0
 29 30  1  0  0  0  0
 29 26  2  1  0  0  0
 30 22  1  1  0  0  0
 31 29  1  0  0  0  0
M  END
>  <MODEL>
1

>  <REMARK>
 VINA RESULT:      -7.9      0.000      0.000
  Name = 
  2 active torsions:
  status: ('A' for Active; 'I' for Inactive)
    1  A    between atoms: C_5  and  C_30
    2  A    between atoms: C_10  and  N_16
                            x       y       z     vdW  Elec       q    Type
                         _______ _______ _______ _____ _____    ______ ____

>  <TORSDO>
F 2

$$$$
=
 OpenBabel11122410583D

 31 35  0  0  1  0  0  0  0  0999 V2000
  190.6280  175.5780  142.8750 C   0  0  0  0  0  0  0  0  0  0  0  0
  187.1540  177.0080  143.6730 C   0  0  2  0  0  3  0  0  0  0  0  0
  186.6470  177.8550  144.8250 C   0  0  0  0  0  0  0  0  0  0  0  0
  186.8040  178.5790  147.1400 C   0  0  0  0  0  0  0  0  0  0  0  0
  188.6870  176.9150  143.6400 C   0  0  1  0  0  3  0  0  0  0  0  0
  191.4320  176.8130  142.5890 C   0  0  0  0  0  2  0  0  0  0  0  0
  187.2820  177.8110  146.0760 C   0  0  0  0  0  3  0  0  0  0  0  0
  187.3310  178.6500  141.6660 C   0  0  2  0  0  3  0  0  0  0  0  0
  191.1950  174.5140  143.0580 O   0  0  0  0  0  0  0  0  0  0  0  0
  184.7970  178.6760  143.4210 N   0  0  0  0  0  2  0  0  0  0  0  0
  187.4320  178.5390  148.3390 F   0  0  0  0  0  0  0  0  0  0  0  0
  188.4170  179.2570  142.5660 C   0  0  0  0  0  2  0  0  0  0  0  0
  186.6020  177.4560  142.3000 C   0  0  2  0  0  3  0  0  0  0  0  0
  189.1320  175.6430  142.9140 C   0  0  0  0  0  2  0  0  0  0  0  0
  185.6800  179.3910  146.9680 C   0  0  0  0  0  3  0  0  0  0  0  0
  189.3850  178.2100  143.1240 C   0  0  2  0  0  3  0  0  0  0  0  0
  190.5290  177.9570  142.1350 C   0  0  0  0  0  2  0  0  0  0  0  0
  185.1000  177.7120  142.3680 C   0  0  0  0  0  2  0  0  0  0  0  0
  185.4900  178.6470  144.6710 C   0  0  0  0  0  0  0  0  0  0  0  0
  185.0240  179.4240  145.7360 C   0  0  0  0  0  3  0  0  0  0  0  0
  185.9310  178.6800  139.1710 O   0  0  0  0  0  0  0  0  0  0  0  0
  187.1200  178.2630  139.1690 C   0  0  0  0  0  0  0  0  0  0  0  0
  187.8830  178.2510  140.3780 N   0  0  0  0  0  2  0  0  0  0  0  0
  190.2400  176.1890  138.4640 C   0  0  0  0  0  0  0  0  0  0  0  0
  187.8400  176.2410  137.8350 C   0  0  0  0  0  2  0  0  0  0  0  0
  189.0550  180.0460  137.8460 O   0  0  0  0  0  0  0  0  0  0  0  0
  191.0220  175.4990  137.8340 O   0  0  0  0  0  0  0  0  0  0  0  0
  188.8820  175.6730  138.8040 C   0  0  0  0  0  2  0  0  0  0  0  0
  189.2770  178.5940  137.4450 S   0  0  2  0  0  0  0  0  0  0  0  0
  187.7170  177.7700  137.8850 C   0  0  2  0  0  3  0  0  0  0  0  0
  190.6580  177.8770  138.8770 S   0  0  0  0  0  0  0  0  0  0  0  0
  1 14  1  0  0  0  0
  1  9  2  0  0  0  0
  2  3  1  1  0  0  0
  3  7  1  0  0  0  0
  4 11  1  0  0  0  0
  5 14  1  6  0  0  0
  5  2  1  0  0  0  0
  6  1  1  0  0  0  0
  7  4  2  0  0  0  0
  8 23  1  6  0  0  0
  8 13  1  0  0  0  0
  8 12  1  0  0  0  0
 10 19  1  0  0  0  0
 12 16  1  0  0  0  0
 13 18  1  1  0  0  0
 13  2  1  0  0  0  0
 15  4  1  0  0  0  0
 16 17  1  6  0  0  0
 16  5  1  0  0  0  0
 17  6  1  0  0  0  0
 18 10  1  0  0  0  0
 19  3  2  0  0  0  0
 19 20  1  0  0  0  0
 20 15  2  0  0  0  0
 22 21  2  0  0  0  0
 22 23  1  0  0  0  0
 24 28  1  0  0  0  0
 24 31  1  0  0  0  0
 25 30  1  0  0  0  0
 25 28  1  0  0  0  0
 27 24  2  0  0  0  0
 29 26  2  1  0  0  0
 29 30  1  0  0  0  0
 29 31  1  0  0  0  0
 30 22  1  1  0  0  0
M  END
>  <MODEL>
2

>  <REMARK>
 VINA RESULT:      -6.1      1.476      1.923
  Name = 
  2 active torsions:
  status: ('A' for Active; 'I' for Inactive)
    1  A    between atoms: C_5  and  C_30
    2  A    between atoms: C_10  and  N_16
                            x       y       z     vdW  Elec       q    Type
                         _______ _______ _______ _____ _____    ______ ____

>  <TORSDO>
F 2

$$$$
=
 OpenBabel11122410583D

 31 35  0  0  1  0  0  0  0  0999 V2000
  179.7850  179.4180  139.4230 C   0  0  0  0  0  0  0  0  0  0  0  0
  183.5040  179.2700  140.3670 C   0  0  2  0  0  3  0  0  0  0  0  0
  184.2080  178.8990  141.6580 C   0  0  0  0  0  0  0  0  0  0  0  0
  184.2140  178.7270  144.0830 C   0  0  0  0  0  0  0  0  0  0  0  0
  182.0100  178.9110  140.3850 C   0  0  1  0  0  3  0  0  0  0  0  0
  179.3770  177.9740  139.4700 C   0  0  0  0  0  2  0  0  0  0  0  0
  183.5600  179.0530  142.8940 C   0  0  0  0  0  3  0  0  0  0  0  0
  183.8530  177.2210  138.8060 C   0  0  2  0  0  3  0  0  0  0  0  0
  178.9310  180.2880  139.3820 O   0  0  0  0  0  0  0  0  0  0  0  0
  186.2470  178.3350  140.3980 N   0  0  0  0  0  2  0  0  0  0  0  0
  183.5750  178.8670  145.2690 F   0  0  0  0  0  0  0  0  0  0  0  0
  182.9690  176.5590  139.8720 C   0  0  0  0  0  2  0  0  0  0  0  0
  184.1930  178.6890  139.1110 C   0  0  2  0  0  3  0  0  0  0  0  0
  181.2340  179.7950  139.4060 C   0  0  0  0  0  2  0  0  0  0  0  0
  185.5280  178.2530  144.0510 C   0  0  0  0  0  3  0  0  0  0  0  0
  181.7280  177.3870  140.2160 C   0  0  2  0  0  3  0  0  0  0  0  0
  180.5820  177.0620  139.2510 C   0  0  0  0  0  2  0  0  0  0  0  0
  185.7020  178.8950  139.1660 C   0  0  0  0  0  2  0  0  0  0  0  0
  185.5470  178.4580  141.6380 C   0  0  0  0  0  0  0  0  0  0  0  0
  186.1940  178.1200  142.8310 C   0  0  0  0  0  3  0  0  0  0  0  0
  185.2180  176.5990  136.3690 O   0  0  0  0  0  0  0  0  0  0  0  0
  183.9840  176.8420  136.3020 C   0  0  0  0  0  0  0  0  0  0  0  0
  183.2400  177.1310  137.4880 N   0  0  0  0  0  2  0  0  0  0  0  0
  180.3010  176.9190  135.3190 C   0  0  0  0  0  0  0  0  0  0  0  0
  182.4230  178.0670  134.7370 C   0  0  0  0  0  2  0  0  0  0  0  0
  183.3440  174.2040  135.1600 O   0  0  0  0  0  0  0  0  0  0  0  0
  179.3230  177.0430  134.6020 O   0  0  0  0  0  0  0  0  0  0  0  0
  181.1710  178.0950  135.6180 C   0  0  0  0  0  2  0  0  0  0  0  0
  182.4360  175.2870  134.5940 S   0  0  2  0  0  0  0  0  0  0  0  0
  183.3120  176.8370  134.9610 C   0  0  2  0  0  3  0  0  0  0  0  0
  180.7840  175.3040  135.9140 S   0  0  0  0  0  0  0  0  0  0  0  0
  1  6  1  0  0  0  0
  2  5  1  0  0  0  0
  2  3  1  1  0  0  0
  3  7  1  0  0  0  0
  4 11  1  0  0  0  0
  5 14  1  6  0  0  0
  7  4  2  0  0  0  0
  8 23  1  6  0  0  0
  8 13  1  0  0  0  0
  8 12  1  0  0  0  0
  9  1  2  0  0  0  0
 10 19  1  0  0  0  0
 12 16  1  0  0  0  0
 13 18  1  1  0  0  0
 13  2  1  0  0  0  0
 14  1  1  0  0  0  0
 15  4  1  0  0  0  0
 16 17  1  6  0  0  0
 16  5  1  0  0  0  0
 17  6  1  0  0  0  0
 18 10  1  0  0  0  0
 19  3  2  0  0  0  0
 19 20  1  0  0  0  0
 20 15  2  0  0  0  0
 22 21  2  0  0  0  0
 22 23  1  0  0  0  0
 24 28  1  0  0  0  0
 24 31  1  0  0  0  0
 25 30  1  0  0  0  0
 25 28  1  0  0  0  0
 27 24  2  0  0  0  0
 29 30  1  0  0  0  0
 29 26  2  1  0  0  0
 29 31  1  0  0  0  0
 30 22  1  1  0  0  0
M  END
>  <MODEL>
3

>  <REMARK>
 VINA RESULT:      -6.0      5.059      7.525
  Name = 
  2 active torsions:
  status: ('A' for Active; 'I' for Inactive)
    1  A    between atoms: C_5  and  C_30
    2  A    between atoms: C_10  and  N_16
                            x       y       z     vdW  Elec       q    Type
                         _______ _______ _______ _____ _____    ______ ____

>  <TORSDO>
F 2

$$$$
=
 OpenBabel11122410583D

 31 35  0  0  1  0  0  0  0  0999 V2000
  186.0540  179.0770  146.9680 C   0  0  0  0  0  0  0  0  0  0  0  0
  189.2540  178.2020  145.0350 C   0  0  2  0  0  3  0  0  0  0  0  0
  190.2930  177.1150  145.2330 C   0  0  0  0  0  0  0  0  0  0  0  0
  191.4840  175.5760  146.6910 C   0  0  0  0  0  0  0  0  0  0  0  0
  187.9990  177.9820  145.8940 C   0  0  1  0  0  3  0  0  0  0  0  0
  185.1700  177.8960  146.6900 C   0  0  0  0  0  2  0  0  0  0  0  0
  190.5150  176.5650  146.5060 C   0  0  0  0  0  3  0  0  0  0  0  0
  187.8460  177.4110  142.9970 C   0  0  2  0  0  3  0  0  0  0  0  0
  185.7600  179.8580  147.8580 O   0  0  0  0  0  0  0  0  0  0  0  0
  190.9230  177.2660  142.8570 N   0  0  0  0  0  2  0  0  0  0  0  0
  191.6800  175.0430  147.9210 F   0  0  0  0  0  0  0  0  0  0  0  0
  187.4630  176.3080  143.9920 C   0  0  0  0  0  2  0  0  0  0  0  0
  188.8720  178.4120  143.5510 C   0  0  2  0  0  3  0  0  0  0  0  0
  187.2830  179.3120  146.1450 C   0  0  0  0  0  2  0  0  0  0  0  0
  192.2480  175.1340  145.6090 C   0  0  0  0  0  3  0  0  0  0  0  0
  187.0630  176.8540  145.3660 C   0  0  2  0  0  3  0  0  0  0  0  0
  185.5730  177.2100  145.3870 C   0  0  0  0  0  2  0  0  0  0  0  0
  190.1120  178.4640  142.6660 C   0  0  0  0  0  2  0  0  0  0  0  0
  191.0960  176.6910  144.1540 C   0  0  0  0  0  0  0  0  0  0  0  0
  192.0550  175.6910  144.3430 C   0  0  0  0  0  3  0  0  0  0  0  0
  187.3740  178.2990  140.3180 O   0  0  0  0  0  0  0  0  0  0  0  0
  186.5040  178.5730  141.1860 C   0  0  0  0  0  0  0  0  0  0  0  0
  186.6680  178.1320  142.5360 N   0  0  0  0  0  2  0  0  0  0  0  0
  182.8960  177.5580  140.4910 C   0  0  0  0  0  0  0  0  0  0  0  0
  184.1480  179.2620  141.7880 C   0  0  0  0  0  2  0  0  0  0  0  0
  186.0560  178.9200  138.2970 O   0  0  0  0  0  0  0  0  0  0  0  0
  181.6980  177.6890  140.3060 O   0  0  0  0  0  0  0  0  0  0  0  0
  183.4930  177.8780  141.8200 C   0  0  0  0  0  2  0  0  0  0  0  0
  184.7580  179.0690  139.0790 S   0  0  2  0  0  0  0  0  0  0  0  0
  185.3040  179.3780  140.7860 C   0  0  2  0  0  3  0  0  0  0  0  0
  183.9730  177.1070  139.1370 S   0  0  0  0  0  0  0  0  0  0  0  0
  1  9  2  0  0  0  0
  2  3  1  6  0  0  0
  2  5  1  0  0  0  0
  3  7  1  0  0  0  0
  4 11  1  0  0  0  0
  5 14  1  6  0  0  0
  6  1  1  0  0  0  0
  7  4  2  0  0  0  0
  8 23  1  1  0  0  0
  8 13  1  0  0  0  0
  8 12  1  0  0  0  0
 10 19  1  0  0  0  0
 13 18  1  6  0  0  0
 13  2  1  0  0  0  0
 14  1  1  0  0  0  0
 15  4  1  0  0  0  0
 16 12  1  6  0  0  0
 16 17  1  0  0  0  0
 16  5  1  0  0  0  0
 17  6  1  0  0  0  0
 18 10  1  0  0  0  0
 19 20  1  0  0  0  0
 19  3  2  0  0  0  0
 20 15  2  0  0  0  0
 21 22  2  0  0  0  0
 22 23  1  0  0  0  0
 24 28  1  0  0  0  0
 25 28  1  0  0  0  0
 27 24  2  0  0  0  0
 29 26  2  6  0  0  0
 29 31  1  0  0  0  0
 29 30  1  0  0  0  0
 30 22  1  1  0  0  0
 30 25  1  0  0  0  0
 31 24  1  0  0  0  0
M  END
>  <MODEL>
4

>  <REMARK>
 VINA RESULT:      -5.9      3.218      5.520
  Name = 
  2 active torsions:
  status: ('A' for Active; 'I' for Inactive)
    1  A    between atoms: C_5  and  C_30
    2  A    between atoms: C_10  and  N_16
                            x       y       z     vdW  Elec       q    Type
                         _______ _______ _______ _____ _____    ______ ____

>  <TORSDO>
F 2

$$$$
=
 OpenBabel11122410583D

 31 35  0  0  1  0  0  0  0  0999 V2000
  187.4470  175.3290  135.3690 C   0  0  0  0  0  0  0  0  0  0  0  0
  189.0940  176.2410  138.7150 C   0  0  2  0  0  3  0  0  0  0  0  0
  190.5260  176.5880  139.0790 C   0  0  0  0  0  0  0  0  0  0  0  0
  192.9120  176.4170  138.6500 C   0  0  0  0  0  0  0  0  0  0  0  0
  188.8600  176.2220  137.1970 C   0  0  1  0  0  3  0  0  0  0  0  0
  187.5500  176.6100  134.5940 C   0  0  0  0  0  2  0  0  0  0  0  0
  191.5940  176.1110  138.3040 C   0  0  0  0  0  3  0  0  0  0  0  0
  187.8280  178.5100  138.7590 C   0  0  2  0  0  3  0  0  0  0  0  0
  187.1620  174.2930  134.7920 O   0  0  0  0  0  0  0  0  0  0  0  0
  189.7370  177.8000  141.0730 N   0  0  0  0  0  2  0  0  0  0  0  0
  193.9350  175.9630  137.8870 F   0  0  0  0  0  0  0  0  0  0  0  0
  188.7620  178.7830  137.5720 C   0  0  0  0  0  2  0  0  0  0  0  0
  188.0540  177.1410  139.4200 C   0  0  2  0  0  3  0  0  0  0  0  0
  187.6720  175.3210  136.8490 C   0  0  0  0  0  2  0  0  0  0  0  0
  193.1770  177.1950  139.7790 C   0  0  0  0  0  3  0  0  0  0  0  0
  188.7840  177.6390  136.5540 C   0  0  2  0  0  3  0  0  0  0  0  0
  187.6520  177.8080  135.5340 C   0  0  0  0  0  2  0  0  0  0  0  0
  188.3770  177.3010  140.9010 C   0  0  0  0  0  2  0  0  0  0  0  0
  190.8030  177.3390  140.2400 C   0  0  0  0  0  0  0  0  0  0  0  0
  192.1240  177.6540  140.5740 C   0  0  0  0  0  3  0  0  0  0  0  0
  185.6690  179.2750  140.4750 O   0  0  0  0  0  0  0  0  0  0  0  0
  185.3930  178.9930  139.2780 C   0  0  0  0  0  0  0  0  0  0  0  0
  186.4310  178.6320  138.3640 N   0  0  0  0  0  2  0  0  0  0  0  0
  182.5100  176.5620  139.8370 C   0  0  0  0  0  0  0  0  0  0  0  0
  182.9720  178.9940  140.0050 C   0  0  0  0  0  2  0  0  0  0  0  0
  184.7950  177.7580  136.6730 O   0  0  0  0  0  0  0  0  0  0  0  0
  181.3610  176.1550  139.8650 O   0  0  0  0  0  0  0  0  0  0  0  0
  182.9450  177.6570  140.7520 C   0  0  0  0  0  2  0  0  0  0  0  0
  183.5630  177.7840  137.5690 S   0  0  2  0  0  0  0  0  0  0  0  0
  183.9620  179.0280  138.8330 C   0  0  2  0  0  3  0  0  0  0  0  0
  183.6550  175.9460  138.6100 S   0  0  0  0  0  0  0  0  0  0  0  0
  1 14  1  0  0  0  0
  2  3  1  6  0  0  0
  2 13  1  0  0  0  0
  3 19  1  0  0  0  0
  4 15  2  0  0  0  0
  5 14  1  1  0  0  0
  5  2  1  0  0  0  0
  6  1  1  0  0  0  0
  6 17  1  0  0  0  0
  7  4  1  0  0  0  0
  7  3  2  0  0  0  0
  8 23  1  6  0  0  0
  8 13  1  0  0  0  0
  9  1  2  0  0  0  0
 11  4  1  0  0  0  0
 12  8  1  0  0  0  0
 13 18  1  1  0  0  0
 15 20  1  0  0  0  0
 16 17  1  1  0  0  0
 16  5  1  0  0  0  0
 16 12  1  0  0  0  0
 18 10  1  0  0  0  0
 19 20  2  0  0  0  0
 19 10  1  0  0  0  0
 22 21  2  0  0  0  0
 23 22  1  0  0  0  0
 24 27  2  0  0  0  0
 24 28  1  0  0  0  0
 25 28  1  0  0  0  0
 29 26  2  6  0  0  0
 29 31  1  0  0  0  0
 29 30  1  0  0  0  0
 30 22  1  1  0  0  0
 30 25  1  0  0  0  0
 31 24  1  0  0  0  0
M  END
>  <MODEL>
5

>  <REMARK>
 VINA RESULT:      -5.6      4.479      7.155
  Name = 
  2 active torsions:
  status: ('A' for Active; 'I' for Inactive)
    1  A    between atoms: C_5  and  C_30
    2  A    between atoms: C_10  and  N_16
                            x       y       z     vdW  Elec       q    Type
                         _______ _______ _______ _____ _____    ______ ____

>  <TORSDO>
F 2

$$$$
=
 OpenBabel11122410583D

 31 35  0  0  1  0  0  0  0  0999 V2000
  186.7120  178.3350  139.2050 C   0  0  0  0  0  0  0  0  0  0  0  0
  182.9070  178.6350  139.6180 C   0  0  2  0  0  3  0  0  0  0  0  0
  181.9010  179.6220  139.0570 C   0  0  0  0  0  0  0  0  0  0  0  0
  181.3680  181.8350  138.2020 C   0  0  0  0  0  0  0  0  0  0  0  0
  184.2840  178.7510  138.9470 C   0  0  1  0  0  3  0  0  0  0  0  0
  186.8570  177.9720  137.7550 C   0  0  0  0  0  2  0  0  0  0  0  0
  182.2980  180.9210  138.7030 C   0  0  0  0  0  3  0  0  0  0  0  0
  182.5510  176.4640  138.2330 C   0  0  2  0  0  3  0  0  0  0  0  0
  187.6890  178.6990  139.8390 O   0  0  0  0  0  0  0  0  0  0  0  0
  180.0990  177.9680  139.3430 N   0  0  0  0  0  2  0  0  0  0  0  0
  181.7650  183.0810  137.8510 F   0  0  0  0  0  0  0  0  0  0  0  0
  183.0760  177.3750  137.1150 C   0  0  0  0  0  2  0  0  0  0  0  0
  182.4040  177.1730  139.5890 C   0  0  2  0  0  3  0  0  0  0  0  0
  185.3800  178.2310  139.8810 C   0  0  0  0  0  2  0  0  0  0  0  0
  180.0290  181.4630  138.0600 C   0  0  0  0  0  3  0  0  0  0  0  0
  184.3390  178.1430  137.5130 C   0  0  2  0  0  3  0  0  0  0  0  0
  185.5880  177.3000  137.2340 C   0  0  0  0  0  2  0  0  0  0  0  0
  180.9700  177.0740  140.0990 C   0  0  0  0  0  2  0  0  0  0  0  0
  180.5400  179.2680  138.9480 C   0  0  0  0  0  0  0  0  0  0  0  0
  179.6160  180.1820  138.4330 C   0  0  0  0  0  3  0  0  0  0  0  0
  182.8610  174.3590  136.3200 O   0  0  0  0  0  0  0  0  0  0  0  0
  183.4890  174.2570  137.4070 C   0  0  0  0  0  0  0  0  0  0  0  0
  183.3990  175.2900  138.3920 N   0  0  0  0  0  2  0  0  0  0  0  0
  185.7790  172.2440  135.1190 C   0  0  0  0  0  0  0  0  0  0  0  0
  185.8120  173.2620  137.3820 C   0  0  0  0  0  2  0  0  0  0  0  0
  182.1790  171.6600  136.9510 O   0  0  0  0  0  0  0  0  0  0  0  0
  186.6360  171.4380  134.8000 O   0  0  0  0  0  0  0  0  0  0  0  0
  186.1440  173.4620  135.9000 C   0  0  0  0  0  2  0  0  0  0  0  0
  183.6920  171.5470  136.8230 S   0  0  2  0  0  0  0  0  0  0  0  0
  184.3200  173.0350  137.6580 C   0  0  2  0  0  3  0  0  0  0  0  0
  184.0570  171.9140  134.7730 S   0  0  0  0  0  0  0  0  0  0  0  0
  1  9  2  0  0  0  0
  1 14  1  0  0  0  0
  2  3  1  6  0  0  0
  4  7  1  0  0  0  0
  5  2  1  0  0  0  0
  5 14  1  1  0  0  0
  6  1  1  0  0  0  0
  7  3  2  0  0  0  0
  8 23  1  1  0  0  0
  8 13  1  0  0  0  0
 10 18  1  0  0  0  0
 11  4  1  0  0  0  0
 12  8  1  0  0  0  0
 13  2  1  0  0  0  0
 13 18  1  6  0  0  0
 15  4  2  0  0  0  0
 15 20  1  0  0  0  0
 16 12  1  1  0  0  0
 16  5  1  0  0  0  0
 17 16  1  0  0  0  0
 17  6  1  0  0  0  0
 19  3  1  0  0  0  0
 19 10  1  0  0  0  0
 20 19  2  0  0  0  0
 21 22  2  0  0  0  0
 22 23  1  0  0  0  0
 24 28  1  0  0  0  0
 25 30  1  0  0  0  0
 27 24  2  0  0  0  0
 28 25  1  0  0  0  0
 29 26  2  6  0  0  0
 29 30  1  0  0  0  0
 30 22  1  6  0  0  0
 31 24  1  0  0  0  0
 31 29  1  0  0  0  0
M  END
>  <MODEL>
6

>  <REMARK>
 VINA RESULT:      -5.6      5.586      7.631
  Name = 
  2 active torsions:
  status: ('A' for Active; 'I' for Inactive)
    1  A    between atoms: C_5  and  C_30
    2  A    between atoms: C_10  and  N_16
                            x       y       z     vdW  Elec       q    Type
                         _______ _______ _______ _____ _____    ______ ____

>  <TORSDO>
F 2

$$$$
=
 OpenBabel11122410583D

 31 35  0  0  1  0  0  0  0  0999 V2000
  179.7280  177.9130  136.8200 C   0  0  0  0  0  0  0  0  0  0  0  0
  182.4610  178.7660  139.3790 C   0  0  2  0  0  3  0  0  0  0  0  0
  182.4520  178.8090  140.8960 C   0  0  0  0  0  0  0  0  0  0  0  0
  181.2530  179.1020  142.9900 C   0  0  0  0  0  0  0  0  0  0  0  0
  181.2050  178.0970  138.8010 C   0  0  1  0  0  3  0  0  0  0  0  0
  179.4970  176.4500  137.0640 C   0  0  0  0  0  2  0  0  0  0  0  0
  181.2580  179.0470  141.5950 C   0  0  0  0  0  3  0  0  0  0  0  0
  183.7470  176.5880  138.7820 C   0  0  2  0  0  3  0  0  0  0  0  0
  178.9310  178.5500  136.1520 O   0  0  0  0  0  0  0  0  0  0  0  0
  184.8920  178.4800  140.9310 N   0  0  0  0  0  2  0  0  0  0  0  0
  180.0940  179.3190  143.6550 F   0  0  0  0  0  0  0  0  0  0  0  0
  182.5160  175.9610  139.4520 C   0  0  0  0  0  2  0  0  0  0  0  0
  183.7410  178.1250  138.7980 C   0  0  2  0  0  3  0  0  0  0  0  0
  180.9440  178.5880  137.3740 C   0  0  0  0  0  2  0  0  0  0  0  0
  182.4440  178.9310  143.7010 C   0  0  0  0  0  3  0  0  0  0  0  0
  181.1960  176.5450  138.9420 C   0  0  2  0  0  3  0  0  0  0  0  0
  180.7310  175.8010  137.6860 C   0  0  0  0  0  2  0  0  0  0  0  0
  184.9890  178.6640  139.4870 C   0  0  0  0  0  2  0  0  0  0  0  0
  183.6550  178.6770  141.6190 C   0  0  0  0  0  0  0  0  0  0  0  0
  183.6430  178.7200  143.0160 C   0  0  0  0  0  3  0  0  0  0  0  0
  184.5670  173.9620  137.9960 O   0  0  0  0  0  0  0  0  0  0  0  0
  184.3340  174.7990  137.0840 C   0  0  0  0  0  0  0  0  0  0  0  0
  183.8930  176.1190  137.4110 N   0  0  0  0  0  2  0  0  0  0  0  0
  185.6870  171.5900  135.5310 C   0  0  0  0  0  0  0  0  0  0  0  0
  183.7570  173.1290  135.2760 C   0  0  0  0  0  2  0  0  0  0  0  0
  186.9440  175.4570  135.8900 O   0  0  0  0  0  0  0  0  0  0  0  0
  185.9280  170.7650  134.6680 O   0  0  0  0  0  0  0  0  0  0  0  0
  184.2790  171.8560  135.9490 C   0  0  0  0  0  2  0  0  0  0  0  0
  186.2880  174.2850  135.1730 S   0  0  2  0  0  0  0  0  0  0  0  0
  184.5380  174.3950  135.6540 C   0  0  2  0  0  3  0  0  0  0  0  0
  187.0020  172.5900  136.2160 S   0  0  0  0  0  0  0  0  0  0  0  0
  1  6  1  0  0  0  0
  1 14  1  0  0  0  0
  2  3  1  1  0  0  0
  3  7  2  0  0  0  0
  3 19  1  0  0  0  0
  4 11  1  0  0  0  0
  4 15  2  0  0  0  0
  5 14  1  6  0  0  0
  5 16  1  0  0  0  0
  5  2  1  0  0  0  0
  6 17  1  0  0  0  0
  7  4  1  0  0  0  0
  8 23  1  6  0  0  0
  8 13  1  0  0  0  0
  8 12  1  0  0  0  0
  9  1  2  0  0  0  0
 10 19  1  0  0  0  0
 13  2  1  0  0  0  0
 13 18  1  1  0  0  0
 16 17  1  6  0  0  0
 16 12  1  0  0  0  0
 18 10  1  0  0  0  0
 19 20  2  0  0  0  0
 20 15  1  0  0  0  0
 22 23  1  0  0  0  0
 22 21  2  0  0  0  0
 24 28  1  0  0  0  0
 24 31  1  0  0  0  0
 25 30  1  0  0  0  0
 25 28  1  0  0  0  0
 27 24  2  0  0  0  0
 29 30  1  0  0  0  0
 29 26  2  1  0  0  0
 29 31  1  0  0  0  0
 30 22  1  1  0  0  0
M  END
>  <MODEL>
7

>  <REMARK>
 VINA RESULT:      -5.6      5.259      7.832
  Name = 
  2 active torsions:
  status: ('A' for Active; 'I' for Inactive)
    1  A    between atoms: C_5  and  C_30
    2  A    between atoms: C_10  and  N_16
                            x       y       z     vdW  Elec       q    Type
                         _______ _______ _______ _____ _____    ______ ____

>  <TORSDO>
F 2

$$$$
=
 OpenBabel11122410583D

 31 35  0  0  1  0  0  0  0  0999 V2000
  184.4330  179.0110  140.2700 C   0  0  0  0  0  0  0  0  0  0  0  0
  183.5800  176.8660  137.2020 C   0  0  2  0  0  3  0  0  0  0  0  0
  183.7370  175.3820  136.9260 C   0  0  0  0  0  0  0  0  0  0  0  0
  184.8820  173.2740  137.3200 C   0  0  0  0  0  0  0  0  0  0  0  0
  183.8050  177.2180  138.6800 C   0  0  1  0  0  3  0  0  0  0  0  0
  183.4650  178.5080  141.3010 C   0  0  0  0  0  2  0  0  0  0  0  0
  184.7260  174.6360  137.5860 C   0  0  0  0  0  3  0  0  0  0  0  0
  181.0380  177.1950  137.6370 C   0  0  2  0  0  3  0  0  0  0  0  0
  185.3750  179.7070  140.6110 O   0  0  0  0  0  0  0  0  0  0  0  0
  181.9530  175.4950  135.2330 N   0  0  0  0  0  2  0  0  0  0  0  0
  185.8300  172.5610  137.9730 F   0  0  0  0  0  0  0  0  0  0  0  0
  181.3780  176.3310  138.8590 C   0  0  0  0  0  2  0  0  0  0  0  0
  182.2330  177.4360  136.7010 C   0  0  2  0  0  3  0  0  0  0  0  0
  184.2360  178.6800  138.8230 C   0  0  0  0  0  2  0  0  0  0  0  0
  184.0580  172.6460  136.3830 C   0  0  0  0  0  3  0  0  0  0  0  0
  182.6190  176.8190  139.6100 C   0  0  2  0  0  3  0  0  0  0  0  0
  182.2370  177.8910  140.6370 C   0  0  0  0  0  2  0  0  0  0  0  0
  181.9210  176.9520  135.2890 C   0  0  0  0  0  2  0  0  0  0  0  0
  182.9360  174.7500  135.9530 C   0  0  0  0  0  0  0  0  0  0  0  0
  183.0880  173.3830  135.7000 C   0  0  0  0  0  3  0  0  0  0  0  0
  178.9310  178.5920  136.2960 O   0  0  0  0  0  0  0  0  0  0  0  0
  179.4390  179.1360  137.3120 C   0  0  0  0  0  0  0  0  0  0  0  0
  180.4750  178.4760  138.0430 N   0  0  0  0  0  2  0  0  0  0  0  0
  181.1600  182.5370  137.3760 C   0  0  0  0  0  0  0  0  0  0  0  0
  179.0280  181.5280  136.6070 C   0  0  0  0  0  2  0  0  0  0  0  0
  179.8240  179.8500  140.1430 O   0  0  0  0  0  0  0  0  0  0  0  0
  181.2700  183.7490  137.4500 O   0  0  0  0  0  0  0  0  0  0  0  0
  180.4580  181.9130  136.2170 C   0  0  0  0  0  2  0  0  0  0  0  0
  179.7180  181.0920  139.2680 S   0  0  2  0  0  0  0  0  0  0  0  0
  178.9510  180.4900  137.7340 C   0  0  2  0  0  3  0  0  0  0  0  0
  181.7190  181.4970  138.7180 S   0  0  0  0  0  0  0  0  0  0  0  0
  1  9  2  0  0  0  0
  1  6  1  0  0  0  0
  2  3  1  1  0  0  0
  2  5  1  0  0  0  0
  3  7  1  0  0  0  0
  4  7  2  0  0  0  0
  4 11  1  0  0  0  0
  5 14  1  6  0  0  0
  5 16  1  0  0  0  0
  8 23  1  1  0  0  0
  8 12  1  0  0  0  0
 10 18  1  0  0  0  0
 10 19  1  0  0  0  0
 13 18  1  6  0  0  0
 13  2  1  0  0  0  0
 13  8  1  0  0  0  0
 14  1  1  0  0  0  0
 15  4  1  0  0  0  0
 16 12  1  6  0  0  0
 16 17  1  0  0  0  0
 17  6  1  0  0  0  0
 19  3  2  0  0  0  0
 20 19  1  0  0  0  0
 20 15  2  0  0  0  0
 21 22  2  0  0  0  0
 22 23  1  0  0  0  0
 24 27  2  0  0  0  0
 24 31  1  0  0  0  0
 25 30  1  0  0  0  0
 28 25  1  0  0  0  0
 28 24  1  0  0  0  0
 29 26  2  1  0  0  0
 30 22  1  6  0  0  0
 30 29  1  0  0  0  0
 31 29  1  0  0  0  0
M  END
>  <MODEL>
8

>  <REMARK>
 VINA RESULT:      -5.6      6.720      9.418
  Name = 
  2 active torsions:
  status: ('A' for Active; 'I' for Inactive)
    1  A    between atoms: C_5  and  C_30
    2  A    between atoms: C_10  and  N_16
                            x       y       z     vdW  Elec       q    Type
                         _______ _______ _______ _____ _____    ______ ____

>  <TORSDO>
F 2

$$$$
=
 OpenBabel11122410583D

 31 35  0  0  1  0  0  0  0  0999 V2000
  182.9370  176.8460  138.1160 C   0  0  0  0  0  0  0  0  0  0  0  0
  184.4670  173.4210  137.2960 C   0  0  2  0  0  3  0  0  0  0  0  0
  183.9240  172.2230  136.5400 C   0  0  0  0  0  0  0  0  0  0  0  0
  182.0420  170.8810  135.7850 C   0  0  0  0  0  0  0  0  0  0  0  0
  183.5920  174.6720  137.1250 C   0  0  1  0  0  3  0  0  0  0  0  0
  182.8300  177.4890  136.7640 C   0  0  0  0  0  2  0  0  0  0  0  0
  182.5410  171.9930  136.4660 C   0  0  0  0  0  3  0  0  0  0  0  0
  186.1560  174.5300  135.6600 C   0  0  2  0  0  3  0  0  0  0  0  0
  182.3460  177.3310  139.0670 O   0  0  0  0  0  0  0  0  0  0  0  0
  186.2190  171.4730  136.0560 N   0  0  0  0  0  2  0  0  0  0  0  0
  180.7060  170.6770  135.7090 F   0  0  0  0  0  0  0  0  0  0  0  0
  184.8630  174.7800  134.8710 C   0  0  0  0  0  2  0  0  0  0  0  0
  185.9430  173.7340  136.9570 C   0  0  2  0  0  3  0  0  0  0  0  0
  183.7830  175.6250  138.3080 C   0  0  0  0  0  2  0  0  0  0  0  0
  182.9210  169.9810  135.1780 C   0  0  0  0  0  3  0  0  0  0  0  0
  183.7390  175.3590  135.7340 C   0  0  2  0  0  3  0  0  0  0  0  0
  183.8430  176.8870  135.7940 C   0  0  0  0  0  2  0  0  0  0  0  0
  186.7890  172.4660  136.9600 C   0  0  0  0  0  2  0  0  0  0  0  0
  184.8050  171.2890  135.9580 C   0  0  0  0  0  0  0  0  0  0  0  0
  184.3000  170.1840  135.2650 C   0  0  0  0  0  3  0  0  0  0  0  0
  188.9440  175.0570  135.2900 O   0  0  0  0  0  0  0  0  0  0  0  0
  188.2360  175.9750  135.7850 C   0  0  0  0  0  0  0  0  0  0  0  0
  186.8310  175.7830  135.9670 N   0  0  0  0  0  2  0  0  0  0  0  0
  188.0880  177.9750  139.0270 C   0  0  0  0  0  0  0  0  0  0  0  0
  189.7810  177.1120  137.4300 C   0  0  0  0  0  2  0  0  0  0  0  0
  186.7490  178.4470  135.2000 O   0  0  0  0  0  0  0  0  0  0  0  0
  188.4020  178.8110  139.8560 O   0  0  0  0  0  0  0  0  0  0  0  0
  189.0030  176.8360  138.7200 C   0  0  0  0  0  2  0  0  0  0  0  0
  187.7260  178.6490  136.3500 S   0  0  2  0  0  0  0  0  0  0  0  0
  188.8900  177.2610  136.1900 C   0  0  2  0  0  3  0  0  0  0  0  0
  186.5910  178.1710  138.0690 S   0  0  0  0  0  0  0  0  0  0  0  0
  1 14  1  0  0  0  0
  1  9  2  0  0  0  0
  2  3  1  6  0  0  0
  4  7  2  0  0  0  0
  5  2  1  0  0  0  0
  5 14  1  1  0  0  0
  6  1  1  0  0  0  0
  7  3  1  0  0  0  0
  8 23  1  1  0  0  0
  8 13  1  0  0  0  0
 10 18  1  0  0  0  0
 11  4  1  0  0  0  0
 12  8  1  0  0  0  0
 13 18  1  6  0  0  0
 13  2  1  0  0  0  0
 15 20  2  0  0  0  0
 15  4  1  0  0  0  0
 16 12  1  1  0  0  0
 16 17  1  0  0  0  0
 16  5  1  0  0  0  0
 17  6  1  0  0  0  0
 19 10  1  0  0  0  0
 19  3  2  0  0  0  0
 20 19  1  0  0  0  0
 21 22  2  0  0  0  0
 22 23  1  0  0  0  0
 24 27  2  0  0  0  0
 25 28  1  0  0  0  0
 28 24  1  0  0  0  0
 29 26  2  6  0  0  0
 29 31  1  0  0  0  0
 30 22  1  1  0  0  0
 30 29  1  0  0  0  0
 30 25  1  0  0  0  0
 31 24  1  0  0  0  0
M  END
>  <MODEL>
9

>  <REMARK>
 VINA RESULT:      -5.5      5.564      9.070
  Name = 
  2 active torsions:
  status: ('A' for Active; 'I' for Inactive)
    1  A    between atoms: C_5  and  C_30
    2  A    between atoms: C_10  and  N_16
                            x       y       z     vdW  Elec       q    Type
                         _______ _______ _______ _____ _____    ______ ____

>  <TORSDO>
F 2

$$$$
