=
 OpenBabel11122410523D

 32 38  0  0  1  0  0  0  0  0999 V2000
  192.0460  176.7550  143.3850 O   0  0  0  0  0  0  0  0  0  0  0  0
  187.2280  177.9790  142.0410 C   0  0  2  0  0  3  0  0  0  0  0  0
  184.5570  178.6280  146.1270 C   0  0  0  0  0  3  0  0  0  0  0  0
  183.4030  178.7790  145.3590 C   0  0  0  0  0  3  0  0  0  0  0  0
  186.0260  178.4030  139.8500 C   0  0  0  0  0  0  0  0  0  0  0  0
  184.8600  178.9820  139.0950 C   0  0  1  0  0  3  0  0  0  0  0  0
  189.7250  178.1740  142.3630 C   0  0  1  0  0  3  0  0  0  0  0  0
  188.2480  178.1480  144.3200 O   0  0  0  0  0  0  0  0  0  0  0  0
  182.6120  179.5670  139.1480 C   0  0  2  0  0  3  0  0  0  0  0  0
  190.6520  178.2110  144.7160 C   0  0  0  0  0  2  0  0  0  0  0  0
  185.7890  178.4380  145.5000 C   0  0  0  0  0  3  0  0  0  0  0  0
  187.0890  178.1960  143.5310 C   0  0  0  0  0  0  0  0  0  0  0  0
  185.8870  178.3880  144.1010 C   0  0  0  0  0  0  0  0  0  0  0  0
  184.7860  178.6040  141.9670 C   0  0  0  0  0  0  0  0  0  0  0  0
  182.8140  178.6050  137.9830 C   0  0  0  0  0  2  0  0  0  0  0  0
  190.8630  176.0010  143.2520 C   0  0  2  0  0  3  0  0  0  0  0  0
  189.4980  178.6080  143.8100 C   0  0  1  0  0  3  0  0  0  0  0  0
  184.1720  177.9860  138.1960 C   0  0  0  0  0  2  0  0  0  0  0  0
  189.9000  176.6540  142.2500 C   0  0  0  0  0  2  0  0  0  0  0  0
  191.1600  176.7860  144.4840 C   0  0  1  0  0  0  0  0  0  0  0  0
  183.4840  178.7530  143.9680 C   0  0  0  0  0  3  0  0  0  0  0  0
  184.7180  178.5670  143.3150 C   0  0  0  0  0  0  0  0  0  0  0  0
  183.5510  178.7690  141.1270 C   0  0  0  0  0  2  0  0  0  0  0  0
  188.5250  178.6280  141.5310 C   0  0  0  0  0  2  0  0  0  0  0  0
  186.9930  177.9160  139.2020 O   0  0  0  0  0  0  0  0  0  0  0  0
  182.3060  180.9550  138.6200 C   0  0  0  0  0  1  0  0  0  0  0  0
  186.0410  178.4140  141.2900 N   0  0  0  0  0  0  0  0  0  0  0  0
  183.8330  179.5970  139.9510 N   0  0  1  0  0  0  0  0  0  0  0  0
  191.7130  176.0000  145.6660 C   0  0  0  0  0  2  0  0  0  0  0  0
  191.2490  176.5520  146.9780 C   0  0  0  0  0  0  0  0  0  0  0  0
  189.7910  176.6320  147.2710 C   0  0  0  0  0  1  0  0  0  0  0  0
  192.0560  176.9610  147.7960 O   0  0  0  0  0  0  0  0  0  0  0  0
  1 20  1  0  0  0  0
  2 24  1  6  0  0  0
  2 12  1  0  0  0  0
  4  3  1  0  0  0  0
  5 27  1  0  0  0  0
  6 18  1  1  0  0  0
  6  5  1  0  0  0  0
  6 28  1  0  0  0  0
  7 24  1  6  0  0  0
  7 17  1  0  0  0  0
  9 26  1  6  0  0  0
  9 28  1  0  0  0  0
 11  3  2  0  0  0  0
 12 13  2  0  0  0  0
 12  8  1  0  0  0  0
 13 11  1  0  0  0  0
 14 22  2  0  0  0  0
 15 18  1  0  0  0  0
 15  9  1  0  0  0  0
 16 19  1  6  0  0  0
 16  1  1  0  0  0  0
 16 20  1  0  0  0  0
 17  8  1  0  0  0  0
 17 10  1  1  0  0  0
 19  7  1  0  0  0  0
 20 10  1  0  0  0  0
 20 29  1  1  0  0  0
 21  4  2  0  0  0  0
 22 21  1  0  0  0  0
 22 13  1  0  0  0  0
 23 14  1  0  0  0  0
 25  5  2  0  0  0  0
 27 14  1  0  0  0  0
 27  2  1  0  0  0  0
 28 23  1  1  0  0  0
 29 30  1  0  0  0  0
 30 31  1  0  0  0  0
 30 32  2  0  0  0  0
M  END
>  <MODEL>
1

>  <REMARK>
 VINA RESULT:     -10.7      0.000      0.000
  Name = 
  2 active torsions:
  status: ('A' for Active; 'I' for Inactive)
    1  A    between atoms: C_20  and  C_29
    2  A    between atoms: C_29  and  C_30
                            x       y       z     vdW  Elec       q    Type
                         _______ _______ _______ _____ _____    ______ ____

>  <TORSDO>
F 2

$$$$
=
 OpenBabel11122410523D

 32 38  0  0  1  0  0  0  0  0999 V2000
  192.0540  176.8130  145.8420 O   0  0  0  0  0  0  0  0  0  0  0  0
  189.8270  177.0520  141.2050 C   0  0  2  0  0  3  0  0  0  0  0  0
  185.4360  179.2320  141.6630 C   0  0  0  0  0  3  0  0  0  0  0  0
  185.1560  178.9700  140.3230 C   0  0  0  0  0  3  0  0  0  0  0  0
  190.5130  176.4220  138.8470 C   0  0  0  0  0  0  0  0  0  0  0  0
  190.3290  176.5510  137.3590 C   0  0  1  0  0  3  0  0  0  0  0  0
  191.4440  177.5150  143.0890 C   0  0  1  0  0  3  0  0  0  0  0  0
  189.1110  178.2440  143.2850 O   0  0  0  0  0  0  0  0  0  0  0  0
  188.8510  176.9660  135.6160 C   0  0  2  0  0  3  0  0  0  0  0  0
  190.5790  178.6140  145.1960 C   0  0  0  0  0  2  0  0  0  0  0  0
  186.6700  178.8660  142.2000 C   0  0  0  0  0  3  0  0  0  0  0  0
  188.8140  177.8790  141.9640 C   0  0  0  0  0  0  0  0  0  0  0  0
  187.6400  178.2260  141.4120 C   0  0  0  0  0  0  0  0  0  0  0  0
  188.3040  177.4380  139.2320 C   0  0  0  0  0  0  0  0  0  0  0  0
  189.4990  175.6110  135.3600 C   0  0  0  0  0  2  0  0  0  0  0  0
  191.1010  176.0060  145.1890 C   0  0  2  0  0  3  0  0  0  0  0  0
  190.4540  178.5130  143.6840 C   0  0  1  0  0  3  0  0  0  0  0  0
  190.1630  175.2260  136.6580 C   0  0  0  0  0  2  0  0  0  0  0  0
  191.2410  176.1070  143.6630 C   0  0  0  0  0  2  0  0  0  0  0  0
  190.7150  177.2600  145.8970 C   0  0  1  0  0  0  0  0  0  0  0  0
  186.1140  178.3540  139.5190 C   0  0  0  0  0  3  0  0  0  0  0  0
  187.3670  177.9800  140.0400 C   0  0  0  0  0  0  0  0  0  0  0  0
  188.0180  177.1530  137.7850 C   0  0  0  0  0  2  0  0  0  0  0  0
  191.2530  177.4950  141.5710 C   0  0  0  0  0  2  0  0  0  0  0  0
  191.4950  175.7630  139.2870 O   0  0  0  0  0  0  0  0  0  0  0  0
  189.3430  177.9720  134.5940 C   0  0  0  0  0  1  0  0  0  0  0  0
  189.5880  177.0510  139.7540 N   0  0  0  0  0  0  0  0  0  0  0  0
  189.2030  177.4110  136.9630 N   0  0  1  0  0  0  0  0  0  0  0  0
  190.1310  177.0920  147.2940 C   0  0  0  0  0  2  0  0  0  0  0  0
  188.6860  177.4790  147.3520 C   0  0  0  0  0  0  0  0  0  0  0  0
  188.1750  178.2540  148.5160 C   0  0  0  0  0  1  0  0  0  0  0  0
  187.9200  177.1400  146.4650 O   0  0  0  0  0  0  0  0  0  0  0  0
  1 20  1  0  0  0  0
  2 24  1  6  0  0  0
  2 12  1  0  0  0  0
  3 11  2  0  0  0  0
  4  3  1  0  0  0  0
  5 25  2  0  0  0  0
  5 27  1  0  0  0  0
  6 18  1  1  0  0  0
  6  5  1  0  0  0  0
  7 24  1  6  0  0  0
  7 19  1  0  0  0  0
  7 17  1  0  0  0  0
  8 17  1  0  0  0  0
  9 26  1  6  0  0  0
  9 28  1  0  0  0  0
 10 20  1  0  0  0  0
 12  8  1  0  0  0  0
 13 12  2  0  0  0  0
 13 11  1  0  0  0  0
 14 27  1  0  0  0  0
 14 22  2  0  0  0  0
 15  9  1  0  0  0  0
 15 18  1  0  0  0  0
 16 19  1  6  0  0  0
 16  1  1  0  0  0  0
 16 20  1  0  0  0  0
 17 10  1  1  0  0  0
 20 29  1  1  0  0  0
 21 22  1  0  0  0  0
 21  4  2  0  0  0  0
 22 13  1  0  0  0  0
 23 14  1  0  0  0  0
 27  2  1  0  0  0  0
 28  6  1  0  0  0  0
 28 23  1  1  0  0  0
 29 30  1  0  0  0  0
 30 31  1  0  0  0  0
 32 30  2  0  0  0  0
M  END
>  <MODEL>
2

>  <REMARK>
 VINA RESULT:      -8.9      3.039      4.488
  Name = 
  2 active torsions:
  status: ('A' for Active; 'I' for Inactive)
    1  A    between atoms: C_20  and  C_29
    2  A    between atoms: C_29  and  C_30
                            x       y       z     vdW  Elec       q    Type
                         _______ _______ _______ _____ _____    ______ ____

>  <TORSDO>
F 2

$$$$
=
 OpenBabel11122410523D

 32 38  0  0  1  0  0  0  0  0999 V2000
  187.7750  178.0720  145.0580 O   0  0  0  0  0  0  0  0  0  0  0  0
  183.8920  178.4150  141.6930 C   0  0  2  0  0  3  0  0  0  0  0  0
  179.6620  178.7990  144.1840 C   0  0  0  0  0  3  0  0  0  0  0  0
  178.9430  178.7210  142.9930 C   0  0  0  0  0  3  0  0  0  0  0  0
  183.7080  178.5310  139.1670 C   0  0  0  0  0  0  0  0  0  0  0  0
  182.9150  178.8730  137.9340 C   0  0  1  0  0  3  0  0  0  0  0  0
  185.9570  179.0370  143.0060 C   0  0  1  0  0  3  0  0  0  0  0  0
  183.7990  178.8570  144.1540 O   0  0  0  0  0  0  0  0  0  0  0  0
  180.8100  179.0780  136.9750 C   0  0  2  0  0  3  0  0  0  0  0  0
  185.7670  179.3370  145.5100 C   0  0  0  0  0  2  0  0  0  0  0  0
  181.0560  178.7880  144.1560 C   0  0  0  0  0  3  0  0  0  0  0  0
  183.0970  178.6750  142.9530 C   0  0  0  0  0  0  0  0  0  0  0  0
  181.7540  178.6910  142.9420 C   0  0  0  0  0  0  0  0  0  0  0  0
  181.6610  178.6210  140.5340 C   0  0  0  0  0  0  0  0  0  0  0  0
  181.6170  178.1100  136.1180 C   0  0  0  0  0  2  0  0  0  0  0  0
  186.8740  177.1270  144.5280 C   0  0  2  0  0  3  0  0  0  0  0  0
  185.0750  179.4940  144.1650 C   0  0  1  0  0  3  0  0  0  0  0  0
  182.8190  177.7360  136.9480 C   0  0  0  0  0  2  0  0  0  0  0  0
  186.3600  177.5640  143.1480 C   0  0  0  0  0  2  0  0  0  0  0  0
  186.5060  178.0070  145.6740 C   0  0  1  0  0  0  0  0  0  0  0  0
  179.6180  178.6440  141.7750 C   0  0  0  0  0  3  0  0  0  0  0  0
  181.0250  178.6370  141.7240 C   0  0  0  0  0  0  0  0  0  0  0  0
  180.9000  178.5400  139.2420 C   0  0  0  0  0  2  0  0  0  0  0  0
  185.1850  179.2460  141.7020 C   0  0  0  0  0  2  0  0  0  0  0  0
  184.9140  178.1830  139.0430 O   0  0  0  0  0  0  0  0  0  0  0  0
  180.5820  180.3690  136.2140 C   0  0  0  0  0  1  0  0  0  0  0  0
  183.0990  178.6120  140.4700 N   0  0  0  0  0  0  0  0  0  0  0  0
  181.5500  179.3480  138.2060 N   0  0  1  0  0  0  0  0  0  0  0  0
  186.5930  177.3790  147.0590 C   0  0  0  0  0  2  0  0  0  0  0  0
  187.8720  177.7270  147.7570 C   0  0  0  0  0  0  0  0  0  0  0  0
  189.0490  176.8230  147.6360 C   0  0  0  0  0  1  0  0  0  0  0  0
  187.9470  178.7320  148.4440 O   0  0  0  0  0  0  0  0  0  0  0  0
  1 20  1  0  0  0  0
  2 24  1  6  0  0  0
  2 12  1  0  0  0  0
  4  3  1  0  0  0  0
  5 27  1  0  0  0  0
  6 18  1  6  0  0  0
  6 28  1  0  0  0  0
  6  5  1  0  0  0  0
  7 24  1  6  0  0  0
  7 19  1  0  0  0  0
  7 17  1  0  0  0  0
  8 17  1  0  0  0  0
  9 26  1  6  0  0  0
  9 28  1  0  0  0  0
 10 20  1  0  0  0  0
 11  3  2  0  0  0  0
 12  8  1  0  0  0  0
 13 12  2  0  0  0  0
 13 11  1  0  0  0  0
 14 22  2  0  0  0  0
 15 18  1  0  0  0  0
 15  9  1  0  0  0  0
 16 19  1  6  0  0  0
 16  1  1  0  0  0  0
 16 20  1  0  0  0  0
 17 10  1  1  0  0  0
 20 29  1  1  0  0  0
 21  4  2  0  0  0  0
 22 21  1  0  0  0  0
 22 13  1  0  0  0  0
 23 14  1  0  0  0  0
 25  5  2  0  0  0  0
 27 14  1  0  0  0  0
 27  2  1  0  0  0  0
 28 23  1  1  0  0  0
 29 30  1  0  0  0  0
 30 32  2  0  0  0  0
 31 30  1  0  0  0  0
M  END
>  <MODEL>
3

>  <REMARK>
 VINA RESULT:      -8.2      2.499      3.873
  Name = 
  2 active torsions:
  status: ('A' for Active; 'I' for Inactive)
    1  A    between atoms: C_20  and  C_29
    2  A    between atoms: C_29  and  C_30
                            x       y       z     vdW  Elec       q    Type
                         _______ _______ _______ _____ _____    ______ ____

>  <TORSDO>
F 2

$$$$
=
 OpenBabel11122410523D

 32 38  0  0  1  0  0  0  0  0999 V2000
  181.9920  179.9230  137.9720 O   0  0  0  0  0  0  0  0  0  0  0  0
  185.7460  178.6200  141.2460 C   0  0  2  0  0  3  0  0  0  0  0  0
  183.9330  178.6280  145.8250 C   0  0  0  0  0  3  0  0  0  0  0  0
  185.2070  178.3920  146.3390 C   0  0  0  0  0  3  0  0  0  0  0  0
  188.1680  177.9090  141.0130 C   0  0  0  0  0  0  0  0  0  0  0  0
  189.3940  177.2500  141.5890 C   0  0  1  0  0  3  0  0  0  0  0  0
  184.0150  178.4210  139.4190 C   0  0  1  0  0  3  0  0  0  0  0  0
  183.2970  178.7620  141.7390 O   0  0  0  0  0  0  0  0  0  0  0  0
  190.5950  176.7280  143.5060 C   0  0  2  0  0  3  0  0  0  0  0  0
  181.5730  178.7050  140.0160 C   0  0  0  0  0  2  0  0  0  0  0  0
  183.7430  178.6990  144.4450 C   0  0  0  0  0  3  0  0  0  0  0  0
  184.6010  178.6250  142.2350 C   0  0  0  0  0  0  0  0  0  0  0  0
  184.8200  178.5430  143.5580 C   0  0  0  0  0  0  0  0  0  0  0  0
  187.1590  178.0440  143.2550 C   0  0  0  0  0  0  0  0  0  0  0  0
  191.5190  177.5060  142.5780 C   0  0  0  0  0  2  0  0  0  0  0  0
  182.8660  180.6740  138.7810 C   0  0  2  0  0  3  0  0  0  0  0  0
  182.9340  178.2060  140.4760 C   0  0  1  0  0  3  0  0  0  0  0  0
  190.6240  178.1200  141.5320 C   0  0  0  0  0  2  0  0  0  0  0  0
  184.1650  179.9030  139.0580 C   0  0  0  0  0  2  0  0  0  0  0  0
  181.6170  180.0710  139.3250 C   0  0  1  0  0  0  0  0  0  0  0  0
  186.2850  178.2140  145.4740 C   0  0  0  0  0  3  0  0  0  0  0  0
  186.1140  178.2770  144.0780 C   0  0  0  0  0  0  0  0  0  0  0  0
  188.5370  177.7840  143.7950 C   0  0  0  0  0  2  0  0  0  0  0  0
  185.3360  177.8760  139.9650 C   0  0  0  0  0  2  0  0  0  0  0  0
  188.1810  178.2750  139.8050 O   0  0  0  0  0  0  0  0  0  0  0  0
  191.0520  175.2850  143.5950 C   0  0  0  0  0  1  0  0  0  0  0  0
  186.9960  178.1060  141.8260 N   0  0  0  0  0  0  0  0  0  0  0  0
  189.2340  176.7890  142.9760 N   0  0  1  0  0  0  0  0  0  0  0  0
  180.4250  181.0080  139.4710 C   0  0  0  0  0  2  0  0  0  0  0  0
  179.4990  180.9320  138.2960 C   0  0  0  0  0  0  0  0  0  0  0  0
  179.2470  182.1480  137.4760 C   0  0  0  0  0  1  0  0  0  0  0  0
  178.9310  179.8880  138.0240 O   0  0  0  0  0  0  0  0  0  0  0  0
  1 16  1  0  0  0  0
  1 20  1  0  0  0  0
  2 24  1  6  0  0  0
  2 27  1  0  0  0  0
  2 12  1  0  0  0  0
  3  4  1  0  0  0  0
  5  6  1  0  0  0  0
  5 27  1  0  0  0  0
  6 18  1  1  0  0  0
  6 28  1  0  0  0  0
  7 19  1  1  0  0  0
  7 24  1  0  0  0  0
  7 17  1  0  0  0  0
  8 12  1  0  0  0  0
  9 26  1  6  0  0  0
 11  3  2  0  0  0  0
 12 13  2  0  0  0  0
 13 22  1  0  0  0  0
 13 11  1  0  0  0  0
 14 23  1  0  0  0  0
 14 22  2  0  0  0  0
 15  9  1  0  0  0  0
 16 19  1  1  0  0  0
 16 20  1  0  0  0  0
 17 10  1  6  0  0  0
 17  8  1  0  0  0  0
 18 15  1  0  0  0  0
 20 29  1  1  0  0  0
 20 10  1  0  0  0  0
 21  4  2  0  0  0  0
 22 21  1  0  0  0  0
 25  5  2  0  0  0  0
 27 14  1  0  0  0  0
 28  9  1  0  0  0  0
 28 23  1  1  0  0  0
 30 29  1  0  0  0  0
 31 30  1  0  0  0  0
 32 30  2  0  0  0  0
M  END
>  <MODEL>
4

>  <REMARK>
 VINA RESULT:      -8.1      2.541      8.193
  Name = 
  2 active torsions:
  status: ('A' for Active; 'I' for Inactive)
    1  A    between atoms: C_20  and  C_29
    2  A    between atoms: C_29  and  C_30
                            x       y       z     vdW  Elec       q    Type
                         _______ _______ _______ _____ _____    ______ ____

>  <TORSDO>
F 2

$$$$
=
 OpenBabel11122410523D

 32 38  0  0  1  0  0  0  0  0999 V2000
  188.3210  177.3030  136.5970 O   0  0  0  0  0  0  0  0  0  0  0  0
  187.8370  177.5460  141.7170 C   0  0  2  0  0  3  0  0  0  0  0  0
  192.0550  176.0650  143.7820 C   0  0  0  0  0  3  0  0  0  0  0  0
  191.4730  176.1410  145.0470 C   0  0  0  0  0  3  0  0  0  0  0  0
  186.0310  178.3250  143.3170 C   0  0  0  0  0  0  0  0  0  0  0  0
  185.6160  178.7810  144.6900 C   0  0  1  0  0  3  0  0  0  0  0  0
  188.0370  178.2930  139.3140 C   0  0  1  0  0  3  0  0  0  0  0  0
  189.9500  177.2260  140.4150 O   0  0  0  0  0  0  0  0  0  0  0  0
  186.0280  178.6830  146.9740 C   0  0  2  0  0  3  0  0  0  0  0  0
  190.1780  177.8050  138.0580 C   0  0  0  0  0  2  0  0  0  0  0  0
  191.3200  176.4330  142.6560 C   0  0  0  0  0  3  0  0  0  0  0  0
  189.3120  177.2150  141.6640 C   0  0  0  0  0  0  0  0  0  0  0  0
  189.9930  176.8760  142.7720 C   0  0  0  0  0  0  0  0  0  0  0  0
  188.1590  177.4730  144.2180 C   0  0  0  0  0  0  0  0  0  0  0  0
  184.5850  178.2510  146.7440 C   0  0  0  0  0  2  0  0  0  0  0  0
  188.0070  176.3440  137.5800 C   0  0  2  0  0  3  0  0  0  0  0  0
  189.5550  178.1490  139.4020 C   0  0  1  0  0  3  0  0  0  0  0  0
  184.4690  177.9890  145.2640 C   0  0  0  0  0  2  0  0  0  0  0  0
  187.3750  177.0040  138.8140 C   0  0  0  0  0  2  0  0  0  0  0  0
  189.4160  176.7290  137.2800 C   0  0  1  0  0  0  0  0  0  0  0  0
  190.1630  176.5970  145.1840 C   0  0  0  0  0  3  0  0  0  0  0  0
  189.4050  176.9790  144.0600 C   0  0  0  0  0  0  0  0  0  0  0  0
  187.5200  177.5650  145.5740 C   0  0  0  0  0  2  0  0  0  0  0  0
  187.5070  178.6530  140.7030 C   0  0  0  0  0  2  0  0  0  0  0  0
  185.1880  178.3600  142.3790 O   0  0  0  0  0  0  0  0  0  0  0  0
  186.0550  180.0290  147.6710 C   0  0  0  0  0  1  0  0  0  0  0  0
  187.3750  177.8650  143.0760 N   0  0  0  0  0  0  0  0  0  0  0  0
  186.7030  178.7770  145.6810 N   0  0  1  0  0  0  0  0  0  0  0  0
  190.1960  175.7790  136.3800 C   0  0  0  0  0  2  0  0  0  0  0  0
  191.4480  175.2830  137.0340 C   0  0  0  0  0  0  0  0  0  0  0  0
  192.7750  175.7220  136.5190 C   0  0  0  0  0  1  0  0  0  0  0  0
  191.3890  174.5010  137.9680 O   0  0  0  0  0  0  0  0  0  0  0  0
  1 20  1  0  0  0  0
  1 16  1  0  0  0  0
  2 24  1  6  0  0  0
  2 27  1  0  0  0  0
  3  4  1  0  0  0  0
  4 21  2  0  0  0  0
  5  6  1  0  0  0  0
  6 18  1  1  0  0  0
  6 28  1  0  0  0  0
  7 19  1  1  0  0  0
  7 17  1  0  0  0  0
  7 24  1  0  0  0  0
  8 12  1  0  0  0  0
  9 26  1  6  0  0  0
 11 13  1  0  0  0  0
 11  3  2  0  0  0  0
 12  2  1  0  0  0  0
 12 13  2  0  0  0  0
 13 22  1  0  0  0  0
 14 23  1  0  0  0  0
 15  9  1  0  0  0  0
 16 19  1  1  0  0  0
 17 10  1  6  0  0  0
 17  8  1  0  0  0  0
 18 15  1  0  0  0  0
 20 29  1  6  0  0  0
 20 16  1  0  0  0  0
 20 10  1  0  0  0  0
 22 14  2  0  0  0  0
 22 21  1  0  0  0  0
 25  5  2  0  0  0  0
 27  5  1  0  0  0  0
 27 14  1  0  0  0  0
 28 23  1  6  0  0  0
 28  9  1  0  0  0  0
 29 30  1  0  0  0  0
 30 32  2  0  0  0  0
 31 30  1  0  0  0  0
M  END
>  <MODEL>
5

>  <REMARK>
 VINA RESULT:      -7.8      3.023      6.704
  Name = 
  2 active torsions:
  status: ('A' for Active; 'I' for Inactive)
    1  A    between atoms: C_20  and  C_29
    2  A    between atoms: C_29  and  C_30
                            x       y       z     vdW  Elec       q    Type
                         _______ _______ _______ _____ _____    ______ ____

>  <TORSDO>
F 2

$$$$
