=
 OpenBabel11122411203D

 31 35  0  0  1  0  0  0  0  0999 V2000
  193.5230  175.5260  135.7500 C   0  0  0  0  0  0  0  0  0  0  0  0
  190.0950  176.7440  136.8720 C   0  0  2  0  0  3  0  0  0  0  0  0
  189.1000  175.6060  136.6960 C   0  0  0  0  0  0  0  0  0  0  0  0
  188.4830  173.4610  135.7250 C   0  0  0  0  0  0  0  0  0  0  0  0
  191.5290  176.2710  136.9130 C   0  0  0  0  0  0  0  0  0  0  0  0
  194.1740  175.3480  136.9740 C   0  0  0  0  0  3  0  0  0  0  0  0
  189.4160  174.4860  135.9100 C   0  0  0  0  0  3  0  0  0  0  0  0
  190.1430  176.8790  139.4050 C   0  0  2  0  0  3  0  0  0  0  0  0
  194.1710  175.2490  134.5940 F   0  0  0  0  0  0  0  0  0  0  0  0
  187.4440  176.8490  138.0310 N   0  0  0  0  0  2  0  0  0  0  0  0
  188.8230  172.3270  134.9380 N   0  0  0  0  0  1  0  0  0  0  0  0
  191.5390  176.4500  139.3680 N   0  0  0  0  0  2  0  0  0  0  0  0
  189.7760  177.6170  138.1080 C   0  0  2  0  0  3  0  0  0  0  0  0
  192.2040  175.9880  135.7190 C   0  0  0  0  0  3  0  0  0  0  0  0
  187.2190  173.5520  136.3110 C   0  0  0  0  0  3  0  0  0  0  0  0
  192.1890  176.0920  138.1440 C   0  0  0  0  0  0  0  0  0  0  0  0
  193.5100  175.6360  138.1700 C   0  0  0  0  0  3  0  0  0  0  0  0
  188.3020  178.0270  138.0930 C   0  0  0  0  0  2  0  0  0  0  0  0
  187.8070  175.7050  137.2530 C   0  0  0  0  0  0  0  0  0  0  0  0
  186.8830  174.6730  137.0740 C   0  0  0  0  0  3  0  0  0  0  0  0
  189.9720  176.0010  142.1120 O   0  0  0  0  0  0  0  0  0  0  0  0
  189.8630  177.2390  141.8910 C   0  0  0  0  0  0  0  0  0  0  0  0
  189.9290  177.7440  140.5570 N   0  0  0  0  0  2  0  0  0  0  0  0
  191.0670  177.0300  145.2340 C   0  0  0  0  0  0  0  0  0  0  0  0
  190.9900  178.7600  143.5290 C   0  0  0  0  0  2  0  0  0  0  0  0
  187.6520  177.5140  144.1400 O   0  0  0  0  0  0  0  0  0  0  0  0
  191.8450  176.1630  146.1560 C   0  0  0  0  0  1  0  0  0  0  0  0
  191.6910  177.8220  144.4130 N   0  0  0  0  0  0  0  0  0  0  0  0
  188.9110  177.5540  144.1500 C   0  0  0  0  0  0  0  0  0  0  0  0
  189.6570  178.1970  143.0220 C   0  0  2  0  0  3  0  0  0  0  0  0
  189.6400  176.9410  145.2130 N   0  0  0  0  0  2  0  0  0  0  0  0
  1  6  1  0  0  0  0
  2  3  1  1  0  0  0
  2  5  1  0  0  0  0
  2 13  1  0  0  0  0
  3 19  1  0  0  0  0
  4  7  1  0  0  0  0
  4 15  2  0  0  0  0
  5 16  2  0  0  0  0
  6 17  2  0  0  0  0
  7  3  2  0  0  0  0
  8 23  1  1  0  0  0
  9  1  1  0  0  0  0
 10 18  1  0  0  0  0
 11  4  1  0  0  0  0
 12  8  1  0  0  0  0
 13 18  1  1  0  0  0
 13  8  1  0  0  0  0
 14  1  2  0  0  0  0
 14  5  1  0  0  0  0
 15 20  1  0  0  0  0
 16 17  1  0  0  0  0
 16 12  1  0  0  0  0
 19 10  1  0  0  0  0
 20 19  2  0  0  0  0
 22 21  2  0  0  0  0
 23 22  1  0  0  0  0
 24 27  1  0  0  0  0
 25 28  1  0  0  0  0
 26 29  2  0  0  0  0
 28 24  2  0  0  0  0
 29 31  1  0  0  0  0
 30 22  1  6  0  0  0
 30 25  1  0  0  0  0
 30 29  1  0  0  0  0
 31 24  1  0  0  0  0
M  END
>  <MODEL>
1

>  <REMARK>
 VINA RESULT:      -7.8      0.000      0.000
  Name = 
  2 active torsions:
  status: ('A' for Active; 'I' for Inactive)
    1  A    between atoms: C_5  and  C_30
    2  A    between atoms: C_10  and  N_16
                            x       y       z     vdW  Elec       q    Type
                         _______ _______ _______ _____ _____    ______ ____

>  <TORSDO>
F 2

$$$$
=
 OpenBabel11122411203D

 31 35  0  0  1  0  0  0  0  0999 V2000
  191.3820  176.0590  143.6740 C   0  0  0  0  0  0  0  0  0  0  0  0
  187.6700  176.8820  143.8820 C   0  0  2  0  0  3  0  0  0  0  0  0
  187.4160  177.6290  145.1830 C   0  0  0  0  0  0  0  0  0  0  0  0
  188.1150  178.2900  147.4180 C   0  0  0  0  0  0  0  0  0  0  0  0
  189.1200  176.9100  143.4600 C   0  0  0  0  0  0  0  0  0  0  0  0
  191.8230  176.9820  142.7220 C   0  0  0  0  0  3  0  0  0  0  0  0
  188.3710  177.6310  146.2130 C   0  0  0  0  0  3  0  0  0  0  0  0
  187.2260  178.7510  142.2250 C   0  0  2  0  0  3  0  0  0  0  0  0
  192.2610  175.2010  144.2420 F   0  0  0  0  0  0  0  0  0  0  0  0
  185.1670  178.2470  144.3890 N   0  0  0  0  0  2  0  0  0  0  0  0
  189.0980  178.2950  148.4460 N   0  0  0  0  0  1  0  0  0  0  0  0
  188.6350  178.7000  141.8420 N   0  0  0  0  0  2  0  0  0  0  0  0
  186.7610  177.3780  142.7330 C   0  0  2  0  0  3  0  0  0  0  0  0
  190.0330  176.0220  144.0410 C   0  0  0  0  0  3  0  0  0  0  0  0
  186.8960  178.9420  147.6140 C   0  0  0  0  0  3  0  0  0  0  0  0
  189.5680  177.8380  142.5000 C   0  0  0  0  0  0  0  0  0  0  0  0
  190.9160  177.8670  142.1320 C   0  0  0  0  0  3  0  0  0  0  0  0
  185.3030  177.4150  143.1970 C   0  0  0  0  0  2  0  0  0  0  0  0
  186.1730  178.2600  145.4050 C   0  0  0  0  0  0  0  0  0  0  0  0
  185.9270  178.9260  146.6080 C   0  0  0  0  0  3  0  0  0  0  0  0
  187.3550  177.5980  139.6210 O   0  0  0  0  0  0  0  0  0  0  0  0
  186.5320  178.5370  139.8040 C   0  0  0  0  0  0  0  0  0  0  0  0
  186.4240  179.1650  141.0820 N   0  0  0  0  0  2  0  0  0  0  0  0
  183.5600  177.0610  138.5150 C   0  0  0  0  0  0  0  0  0  0  0  0
  184.2340  179.3020  139.1690 C   0  0  0  0  0  2  0  0  0  0  0  0
  186.5250  178.0290  136.6790 O   0  0  0  0  0  0  0  0  0  0  0  0
  182.6620  175.8870  138.6710 C   0  0  0  0  0  1  0  0  0  0  0  0
  183.4350  178.0800  139.3120 N   0  0  0  0  0  0  0  0  0  0  0  0
  185.6280  178.0200  137.5630 C   0  0  0  0  0  0  0  0  0  0  0  0
  185.6600  179.0120  138.6840 C   0  0  2  0  0  3  0  0  0  0  0  0
  184.5980  177.0330  137.5300 N   0  0  0  0  0  2  0  0  0  0  0  0
  1 14  1  0  0  0  0
  1  9  1  0  0  0  0
  2  5  1  6  0  0  0
  2  3  1  0  0  0  0
  3 19  2  0  0  0  0
  3  7  1  0  0  0  0
  4 15  1  0  0  0  0
  4 11  1  0  0  0  0
  5 14  2  0  0  0  0
  6  1  2  0  0  0  0
  7  4  2  0  0  0  0
  8 23  1  6  0  0  0
  8 13  1  0  0  0  0
 10 19  1  0  0  0  0
 12  8  1  0  0  0  0
 12 16  1  0  0  0  0
 13 18  1  1  0  0  0
 13  2  1  0  0  0  0
 16  5  1  0  0  0  0
 17 16  2  0  0  0  0
 17  6  1  0  0  0  0
 18 10  1  0  0  0  0
 19 20  1  0  0  0  0
 20 15  2  0  0  0  0
 21 22  2  0  0  0  0
 22 23  1  0  0  0  0
 24 27  1  0  0  0  0
 24 28  2  0  0  0  0
 25 28  1  0  0  0  0
 26 29  2  0  0  0  0
 29 30  1  0  0  0  0
 30 25  1  0  0  0  0
 30 22  1  1  0  0  0
 31 29  1  0  0  0  0
 31 24  1  0  0  0  0
M  END
>  <MODEL>
2

>  <REMARK>
 VINA RESULT:      -7.8      4.587      8.405
  Name = 
  2 active torsions:
  status: ('A' for Active; 'I' for Inactive)
    1  A    between atoms: C_5  and  C_30
    2  A    between atoms: C_10  and  N_16
                            x       y       z     vdW  Elec       q    Type
                         _______ _______ _______ _____ _____    ______ ____

>  <TORSDO>
F 2

$$$$
=
 OpenBabel11122411203D

 31 35  0  0  1  0  0  0  0  0999 V2000
  191.4110  176.5180  145.0130 C   0  0  0  0  0  0  0  0  0  0  0  0
  187.7730  176.9690  143.9850 C   0  0  2  0  0  3  0  0  0  0  0  0
  187.0560  177.7400  145.0830 C   0  0  0  0  0  0  0  0  0  0  0  0
  186.9480  178.5620  147.3720 C   0  0  0  0  0  0  0  0  0  0  0  0
  189.2750  177.1260  144.0390 C   0  0  0  0  0  0  0  0  0  0  0  0
  192.0550  177.4410  144.1830 C   0  0  0  0  0  3  0  0  0  0  0  0
  187.6290  177.8820  146.3590 C   0  0  0  0  0  3  0  0  0  0  0  0
  187.7280  178.7120  142.1430 C   0  0  2  0  0  3  0  0  0  0  0  0
  192.1320  175.7780  145.8880 F   0  0  0  0  0  0  0  0  0  0  0  0
  185.1360  178.0930  143.5810 N   0  0  0  0  0  2  0  0  0  0  0  0
  187.5470  178.7100  148.6530 N   0  0  0  0  0  1  0  0  0  0  0  0
  189.1850  178.7880  142.2260 N   0  0  0  0  0  2  0  0  0  0  0  0
  187.2400  177.3210  142.5770 C   0  0  2  0  0  3  0  0  0  0  0  0
  190.0240  176.3600  144.9390 C   0  0  0  0  0  3  0  0  0  0  0  0
  185.6810  179.0950  147.1270 C   0  0  0  0  0  3  0  0  0  0  0  0
  189.9270  178.0540  143.2040 C   0  0  0  0  0  0  0  0  0  0  0  0
  191.3150  178.2040  143.2760 C   0  0  0  0  0  3  0  0  0  0  0  0
  185.7130  177.2310  142.5560 C   0  0  0  0  0  2  0  0  0  0  0  0
  185.7600  178.2510  144.8580 C   0  0  0  0  0  0  0  0  0  0  0  0
  185.0890  178.9390  145.8720 C   0  0  0  0  0  3  0  0  0  0  0  0
  188.6100  177.3140  139.8200 O   0  0  0  0  0  0  0  0  0  0  0  0
  187.7770  178.2480  139.6590 C   0  0  0  0  0  0  0  0  0  0  0  0
  187.3020  178.9950  140.7790 N   0  0  0  0  0  2  0  0  0  0  0  0
  187.9890  176.3340  136.6640 C   0  0  0  0  0  0  0  0  0  0  0  0
  186.2370  177.5750  137.8030 C   0  0  0  0  0  2  0  0  0  0  0  0
  189.0550  179.7530  137.1840 O   0  0  0  0  0  0  0  0  0  0  0  0
  188.5160  175.0580  136.1150 C   0  0  0  0  0  1  0  0  0  0  0  0
  186.8550  176.3430  137.3000 N   0  0  0  0  0  0  0  0  0  0  0  0
  188.4030  178.6830  137.3080 C   0  0  0  0  0  0  0  0  0  0  0  0
  187.2770  178.5910  138.2900 C   0  0  2  0  0  3  0  0  0  0  0  0
  188.7640  177.5310  136.5460 N   0  0  0  0  0  2  0  0  0  0  0  0
  1  9  1  0  0  0  0
  2  5  1  6  0  0  0
  2  3  1  0  0  0  0
  3  7  1  0  0  0  0
  4 11  1  0  0  0  0
  5 14  2  0  0  0  0
  6  1  2  0  0  0  0
  7  4  2  0  0  0  0
  8 23  1  6  0  0  0
  8 12  1  0  0  0  0
  8 13  1  0  0  0  0
 10 19  1  0  0  0  0
 12 16  1  0  0  0  0
 13 18  1  1  0  0  0
 13  2  1  0  0  0  0
 14  1  1  0  0  0  0
 15  4  1  0  0  0  0
 16 17  2  0  0  0  0
 16  5  1  0  0  0  0
 17  6  1  0  0  0  0
 18 10  1  0  0  0  0
 19  3  2  0  0  0  0
 19 20  1  0  0  0  0
 20 15  2  0  0  0  0
 22 21  2  0  0  0  0
 22 23  1  0  0  0  0
 24 28  2  0  0  0  0
 25 30  1  0  0  0  0
 26 29  2  0  0  0  0
 27 24  1  0  0  0  0
 28 25  1  0  0  0  0
 29 30  1  0  0  0  0
 30 22  1  1  0  0  0
 31 24  1  0  0  0  0
 31 29  1  0  0  0  0
M  END
>  <MODEL>
3

>  <REMARK>
 VINA RESULT:      -7.6      3.596      8.359
  Name = 
  2 active torsions:
  status: ('A' for Active; 'I' for Inactive)
    1  A    between atoms: C_5  and  C_30
    2  A    between atoms: C_10  and  N_16
                            x       y       z     vdW  Elec       q    Type
                         _______ _______ _______ _____ _____    ______ ____

>  <TORSDO>
F 2

$$$$
=
 OpenBabel11122411203D

 31 35  0  0  1  0  0  0  0  0999 V2000
  186.3430  177.8890  138.0310 C   0  0  0  0  0  0  0  0  0  0  0  0
  189.8020  177.8660  139.6220 C   0  0  2  0  0  3  0  0  0  0  0  0
  189.6630  177.4070  141.0660 C   0  0  0  0  0  0  0  0  0  0  0  0
  188.2940  176.9950  143.0370 C   0  0  0  0  0  0  0  0  0  0  0  0
  188.6190  177.4810  138.7650 C   0  0  0  0  0  0  0  0  0  0  0  0
  186.3990  176.7540  137.2180 C   0  0  0  0  0  3  0  0  0  0  0  0
  188.4090  177.3840  141.7000 C   0  0  0  0  0  3  0  0  0  0  0  0
  191.0510  175.8770  138.6640 C   0  0  2  0  0  3  0  0  0  0  0  0
  185.2150  178.6370  138.0720 F   0  0  0  0  0  0  0  0  0  0  0  0
  192.1060  177.1280  141.2130 N   0  0  0  0  0  2  0  0  0  0  0  0
  187.0160  176.9630  143.6590 N   0  0  0  0  0  1  0  0  0  0  0  0
  189.8830  175.5840  137.8380 N   0  0  0  0  0  2  0  0  0  0  0  0
  191.1200  177.3800  138.9770 C   0  0  2  0  0  3  0  0  0  0  0  0
  187.4510  178.2530  138.8020 C   0  0  0  0  0  3  0  0  0  0  0  0
  189.4330  176.6390  143.7610 C   0  0  0  0  0  3  0  0  0  0  0  0
  188.6720  176.3390  137.9440 C   0  0  0  0  0  0  0  0  0  0  0  0
  187.5640  175.9820  137.1700 C   0  0  0  0  0  3  0  0  0  0  0  0
  192.3030  177.7090  139.8890 C   0  0  0  0  0  2  0  0  0  0  0  0
  190.8110  177.0810  141.8190 C   0  0  0  0  0  0  0  0  0  0  0  0
  190.6900  176.6830  143.1520 C   0  0  0  0  0  3  0  0  0  0  0  0
  191.3370  173.4420  137.2100 O   0  0  0  0  0  0  0  0  0  0  0  0
  192.3310  174.2180  137.2500 C   0  0  0  0  0  0  0  0  0  0  0  0
  192.2580  175.4490  137.9690 N   0  0  0  0  0  2  0  0  0  0  0  0
  195.6600  174.2690  138.5130 C   0  0  0  0  0  0  0  0  0  0  0  0
  194.3150  172.6910  137.2440 C   0  0  0  0  0  2  0  0  0  0  0  0
  194.4060  175.8660  135.5170 O   0  0  0  0  0  0  0  0  0  0  0  0
  196.4580  174.6020  139.7200 C   0  0  0  0  0  1  0  0  0  0  0  0
  195.0570  173.1190  138.4350 N   0  0  0  0  0  0  0  0  0  0  0  0
  194.5240  175.0370  136.4580 C   0  0  0  0  0  0  0  0  0  0  0  0
  193.6040  173.8590  136.5490 C   0  0  2  0  0  3  0  0  0  0  0  0
  195.5070  175.2400  137.4730 N   0  0  0  0  0  2  0  0  0  0  0  0
  1  9  1  0  0  0  0
  1 14  1  0  0  0  0
  2  5  1  6  0  0  0
  2  3  1  0  0  0  0
  3  7  2  0  0  0  0
  3 19  1  0  0  0  0
  4 11  1  0  0  0  0
  4 15  2  0  0  0  0
  5 14  2  0  0  0  0
  6  1  2  0  0  0  0
  7  4  1  0  0  0  0
  8 23  1  6  0  0  0
  8 13  1  0  0  0  0
 10 19  1  0  0  0  0
 12 16  1  0  0  0  0
 12  8  1  0  0  0  0
 13  2  1  0  0  0  0
 13 18  1  1  0  0  0
 16  5  1  0  0  0  0
 17  6  1  0  0  0  0
 17 16  2  0  0  0  0
 18 10  1  0  0  0  0
 19 20  2  0  0  0  0
 20 15  1  0  0  0  0
 21 22  2  0  0  0  0
 22 23  1  0  0  0  0
 24 27  1  0  0  0  0
 25 28  1  0  0  0  0
 26 29  2  0  0  0  0
 28 24  2  0  0  0  0
 29 30  1  0  0  0  0
 29 31  1  0  0  0  0
 30 25  1  0  0  0  0
 30 22  1  1  0  0  0
 31 24  1  0  0  0  0
M  END
>  <MODEL>
4

>  <REMARK>
 VINA RESULT:      -7.2      3.352      7.103
  Name = 
  2 active torsions:
  status: ('A' for Active; 'I' for Inactive)
    1  A    between atoms: C_5  and  C_30
    2  A    between atoms: C_10  and  N_16
                            x       y       z     vdW  Elec       q    Type
                         _______ _______ _______ _____ _____    ______ ____

>  <TORSDO>
F 2

$$$$
=
 OpenBabel11122411203D

 31 35  0  0  1  0  0  0  0  0999 V2000
  183.6040  178.9030  143.1910 C   0  0  0  0  0  0  0  0  0  0  0  0
  183.0900  177.7780  139.5910 C   0  0  2  0  0  3  0  0  0  0  0  0
  182.1900  178.7890  138.8960 C   0  0  0  0  0  0  0  0  0  0  0  0
  180.5910  180.6220  138.9920 C   0  0  0  0  0  0  0  0  0  0  0  0
  183.7390  178.3280  140.8390 C   0  0  0  0  0  0  0  0  0  0  0  0
  184.9140  179.3870  143.1520 C   0  0  0  0  0  3  0  0  0  0  0  0
  181.4420  179.7200  139.6360 C   0  0  0  0  0  3  0  0  0  0  0  0
  185.2600  178.2210  138.3540 C   0  0  2  0  0  3  0  0  0  0  0  0
  182.9010  178.9470  144.3480 F   0  0  0  0  0  0  0  0  0  0  0  0
  182.7500  177.7890  136.7150 N   0  0  0  0  0  2  0  0  0  0  0  0
  179.8520  181.5670  139.7550 N   0  0  0  0  0  1  0  0  0  0  0  0
  185.8350  178.7070  139.6050 N   0  0  0  0  0  2  0  0  0  0  0  0
  184.1560  177.1900  138.6380 C   0  0  2  0  0  3  0  0  0  0  0  0
  183.0180  178.3720  142.0380 C   0  0  0  0  0  3  0  0  0  0  0  0
  180.4670  180.5950  137.6020 C   0  0  0  0  0  3  0  0  0  0  0  0
  185.0600  178.8160  140.8030 C   0  0  0  0  0  0  0  0  0  0  0  0
  185.6430  179.3390  141.9600 C   0  0  0  0  0  3  0  0  0  0  0  0
  183.4960  176.7050  137.3460 C   0  0  0  0  0  2  0  0  0  0  0  0
  182.0280  178.7460  137.4940 C   0  0  0  0  0  0  0  0  0  0  0  0
  181.1840  179.6580  136.8550 C   0  0  0  0  0  3  0  0  0  0  0  0
  187.1650  179.6760  136.8100 O   0  0  0  0  0  0  0  0  0  0  0  0
  187.2380  178.4160  136.7920 C   0  0  0  0  0  0  0  0  0  0  0  0
  186.3080  177.6270  137.5340 N   0  0  0  0  0  2  0  0  0  0  0  0
  187.7960  174.9260  136.3650 C   0  0  0  0  0  0  0  0  0  0  0  0
  187.6820  176.8520  134.8880 C   0  0  0  0  0  2  0  0  0  0  0  0
  190.1760  177.4310  137.4400 O   0  0  0  0  0  0  0  0  0  0  0  0
  187.2950  173.5910  136.7840 C   0  0  0  0  0  1  0  0  0  0  0  0
  187.1990  175.5670  135.4050 N   0  0  0  0  0  0  0  0  0  0  0  0
  189.1910  176.9030  136.8590 C   0  0  0  0  0  0  0  0  0  0  0  0
  188.2960  177.7280  135.9870 C   0  0  2  0  0  3  0  0  0  0  0  0
  188.8910  175.5230  137.0650 N   0  0  0  0  0  2  0  0  0  0  0  0
  1  9  1  0  0  0  0
  2  3  1  6  0  0  0
  2  5  1  0  0  0  0
  3  7  1  0  0  0  0
  4  7  2  0  0  0  0
  4 11  1  0  0  0  0
  5 14  1  0  0  0  0
  6  1  1  0  0  0  0
  8 23  1  6  0  0  0
  8 13  1  0  0  0  0
  8 12  1  0  0  0  0
 10 18  1  0  0  0  0
 10 19  1  0  0  0  0
 12 16  1  0  0  0  0
 13 18  1  6  0  0  0
 13  2  1  0  0  0  0
 14  1  2  0  0  0  0
 15  4  1  0  0  0  0
 16  5  2  0  0  0  0
 16 17  1  0  0  0  0
 17  6  2  0  0  0  0
 19  3  2  0  0  0  0
 20 19  1  0  0  0  0
 20 15  2  0  0  0  0
 22 21  2  0  0  0  0
 22 23  1  0  0  0  0
 24 27  1  0  0  0  0
 24 31  1  0  0  0  0
 25 28  1  0  0  0  0
 25 30  1  0  0  0  0
 28 24  2  0  0  0  0
 29 31  1  0  0  0  0
 29 26  2  0  0  0  0
 30 22  1  1  0  0  0
 30 29  1  0  0  0  0
M  END
>  <MODEL>
5

>  <REMARK>
 VINA RESULT:      -7.2      5.697      9.025
  Name = 
  2 active torsions:
  status: ('A' for Active; 'I' for Inactive)
    1  A    between atoms: C_5  and  C_30
    2  A    between atoms: C_10  and  N_16
                            x       y       z     vdW  Elec       q    Type
                         _______ _______ _______ _____ _____    ______ ____

>  <TORSDO>
F 2

$$$$
=
 OpenBabel11122411203D

 31 35  0  0  1  0  0  0  0  0999 V2000
  189.6860  176.0030  142.6770 C   0  0  0  0  0  0  0  0  0  0  0  0
  186.4310  177.1140  144.3090 C   0  0  2  0  0  3  0  0  0  0  0  0
  186.7640  177.8060  145.6230 C   0  0  0  0  0  0  0  0  0  0  0  0
  188.3210  178.2810  147.4330 C   0  0  0  0  0  0  0  0  0  0  0  0
  187.6070  177.0480  143.3640 C   0  0  0  0  0  0  0  0  0  0  0  0
  189.8200  176.9390  141.6480 C   0  0  0  0  0  3  0  0  0  0  0  0
  188.0340  177.6710  146.2080 C   0  0  0  0  0  3  0  0  0  0  0  0
  185.5750  179.1040  142.9880 C   0  0  2  0  0  3  0  0  0  0  0  0
  190.6270  175.0450  142.8470 F   0  0  0  0  0  0  0  0  0  0  0  0
  184.4540  178.6500  145.7650 N   0  0  0  0  0  2  0  0  0  0  0  0
  189.6160  178.1470  148.0050 N   0  0  0  0  0  1  0  0  0  0  0  0
  186.7200  178.9590  142.0930 N   0  0  0  0  0  2  0  0  0  0  0  0
  185.2060  177.7470  143.6080 C   0  0  2  0  0  3  0  0  0  0  0  0
  188.5810  176.0560  143.5320 C   0  0  0  0  0  3  0  0  0  0  0  0
  187.3370  179.0190  148.0940 C   0  0  0  0  0  3  0  0  0  0  0  0
  187.7450  177.9880  142.3250 C   0  0  0  0  0  0  0  0  0  0  0  0
  188.8480  177.9270  141.4690 C   0  0  0  0  0  3  0  0  0  0  0  0
  184.0460  177.8780  144.5960 C   0  0  0  0  0  2  0  0  0  0  0  0
  185.7670  178.5230  146.3180 C   0  0  0  0  0  0  0  0  0  0  0  0
  186.0620  179.1390  147.5360 C   0  0  0  0  0  3  0  0  0  0  0  0
  184.0200  177.6710  141.0750 O   0  0  0  0  0  0  0  0  0  0  0  0
  183.7000  178.8690  141.3090 C   0  0  0  0  0  0  0  0  0  0  0  0
  184.4430  179.6460  142.2480 N   0  0  0  0  0  2  0  0  0  0  0  0
  180.6710  177.3510  140.2170 C   0  0  0  0  0  0  0  0  0  0  0  0
  181.2520  179.3780  141.4250 C   0  0  0  0  0  2  0  0  0  0  0  0
  182.9900  179.3180  138.2570 O   0  0  0  0  0  0  0  0  0  0  0  0
  179.9610  176.0470  140.1540 C   0  0  0  0  0  1  0  0  0  0  0  0
  180.6390  178.0490  141.3130 N   0  0  0  0  0  0  0  0  0  0  0  0
  182.3380  178.8920  139.2470 C   0  0  0  0  0  0  0  0  0  0  0  0
  182.5400  179.4970  140.6020 C   0  0  2  0  0  3  0  0  0  0  0  0
  181.4370  177.7960  139.0950 N   0  0  0  0  0  2  0  0  0  0  0  0
  1  9  1  0  0  0  0
  1 14  1  0  0  0  0
  2  5  1  6  0  0  0
  2  3  1  0  0  0  0
  3  7  2  0  0  0  0
  3 19  1  0  0  0  0
  4 11  1  0  0  0  0
  4 15  2  0  0  0  0
  5 14  2  0  0  0  0
  6  1  2  0  0  0  0
  7  4  1  0  0  0  0
  8 23  1  6  0  0  0
  8 13  1  0  0  0  0
 10 19  1  0  0  0  0
 12 16  1  0  0  0  0
 12  8  1  0  0  0  0
 13  2  1  0  0  0  0
 13 18  1  1  0  0  0
 16  5  1  0  0  0  0
 17  6  1  0  0  0  0
 17 16  2  0  0  0  0
 18 10  1  0  0  0  0
 19 20  2  0  0  0  0
 20 15  1  0  0  0  0
 21 22  2  0  0  0  0
 22 23  1  0  0  0  0
 24 28  2  0  0  0  0
 26 29  2  0  0  0  0
 27 24  1  0  0  0  0
 28 25  1  0  0  0  0
 29 30  1  0  0  0  0
 30 22  1  1  0  0  0
 30 25  1  0  0  0  0
 31 29  1  0  0  0  0
 31 24  1  0  0  0  0
M  END
>  <MODEL>
6

>  <REMARK>
 VINA RESULT:      -6.9      5.268      9.234
  Name = 
  2 active torsions:
  status: ('A' for Active; 'I' for Inactive)
    1  A    between atoms: C_5  and  C_30
    2  A    between atoms: C_10  and  N_16
                            x       y       z     vdW  Elec       q    Type
                         _______ _______ _______ _____ _____    ______ ____

>  <TORSDO>
F 2

$$$$
=
 OpenBabel11122411203D

 31 35  0  0  1  0  0  0  0  0999 V2000
  183.6730  179.1270  143.9560 C   0  0  0  0  0  0  0  0  0  0  0  0
  182.1190  177.6870  140.7930 C   0  0  2  0  0  3  0  0  0  0  0  0
  181.0920  178.6790  140.2680 C   0  0  0  0  0  0  0  0  0  0  0  0
  179.6460  180.6080  140.6020 C   0  0  0  0  0  0  0  0  0  0  0  0
  183.1150  178.3150  141.7400 C   0  0  0  0  0  0  0  0  0  0  0  0
  184.9320  179.5230  143.4980 C   0  0  0  0  0  3  0  0  0  0  0  0
  180.6150  179.7230  141.0790 C   0  0  0  0  0  3  0  0  0  0  0  0
  183.8610  177.8690  138.9570 C   0  0  2  0  0  3  0  0  0  0  0  0
  183.3300  179.3290  145.2510 F   0  0  0  0  0  0  0  0  0  0  0  0
  180.9750  177.4350  138.1450 N   0  0  0  0  0  2  0  0  0  0  0  0
  179.1840  181.6680  141.4300 N   0  0  0  0  0  1  0  0  0  0  0  0
  184.7830  178.4410  139.9340 N   0  0  0  0  0  2  0  0  0  0  0  0
  182.8510  176.9420  139.6520 C   0  0  2  0  0  3  0  0  0  0  0  0
  182.7670  178.5230  143.0800 C   0  0  0  0  0  3  0  0  0  0  0  0
  179.1290  180.4520  139.3140 C   0  0  0  0  0  3  0  0  0  0  0  0
  184.3850  178.7150  141.2810 C   0  0  0  0  0  0  0  0  0  0  0  0
  185.2900  179.3120  142.1630 C   0  0  0  0  0  3  0  0  0  0  0  0
  181.8350  176.3740  138.6600 C   0  0  0  0  0  2  0  0  0  0  0  0
  180.5360  178.5080  138.9820 C   0  0  0  0  0  0  0  0  0  0  0  0
  179.5740  179.4020  138.5070 C   0  0  0  0  0  3  0  0  0  0  0  0
  186.2070  178.8120  137.6400 O   0  0  0  0  0  0  0  0  0  0  0  0
  185.7880  177.6620  137.3340 C   0  0  0  0  0  0  0  0  0  0  0  0
  184.6120  177.1330  137.9490 N   0  0  0  0  0  2  0  0  0  0  0  0
  189.2480  176.8390  137.1900 C   0  0  0  0  0  0  0  0  0  0  0  0
  187.1670  175.6060  136.9620 C   0  0  0  0  0  2  0  0  0  0  0  0
  187.2210  178.3360  134.5940 O   0  0  0  0  0  0  0  0  0  0  0  0
  190.5440  177.0640  137.8820 C   0  0  0  0  0  1  0  0  0  0  0  0
  188.4280  175.9350  137.6360 N   0  0  0  0  0  0  0  0  0  0  0  0
  187.5430  177.6440  135.5950 C   0  0  0  0  0  0  0  0  0  0  0  0
  186.5120  176.8350  136.3190 C   0  0  2  0  0  3  0  0  0  0  0  0
  188.8860  177.6630  136.0780 N   0  0  0  0  0  2  0  0  0  0  0  0
  1  9  1  0  0  0  0
  2  3  1  6  0  0  0
  2  5  1  0  0  0  0
  3  7  1  0  0  0  0
  4  7  2  0  0  0  0
  4 11  1  0  0  0  0
  5 14  1  0  0  0  0
  6  1  1  0  0  0  0
  8 23  1  6  0  0  0
  8 13  1  0  0  0  0
  8 12  1  0  0  0  0
 10 18  1  0  0  0  0
 10 19  1  0  0  0  0
 12 16  1  0  0  0  0
 13 18  1  6  0  0  0
 13  2  1  0  0  0  0
 14  1  2  0  0  0  0
 15  4  1  0  0  0  0
 16  5  2  0  0  0  0
 16 17  1  0  0  0  0
 17  6  2  0  0  0  0
 19  3  2  0  0  0  0
 20 19  1  0  0  0  0
 20 15  2  0  0  0  0
 22 21  2  0  0  0  0
 22 23  1  0  0  0  0
 24 28  2  0  0  0  0
 24 27  1  0  0  0  0
 25 28  1  0  0  0  0
 26 29  2  0  0  0  0
 29 31  1  0  0  0  0
 29 30  1  0  0  0  0
 30 25  1  0  0  0  0
 30 22  1  1  0  0  0
 31 24  1  0  0  0  0
M  END
>  <MODEL>
7

>  <REMARK>
 VINA RESULT:      -6.9      6.474      9.586
  Name = 
  2 active torsions:
  status: ('A' for Active; 'I' for Inactive)
    1  A    between atoms: C_5  and  C_30
    2  A    between atoms: C_10  and  N_16
                            x       y       z     vdW  Elec       q    Type
                         _______ _______ _______ _____ _____    ______ ____

>  <TORSDO>
F 2

$$$$
=
 OpenBabel11122411203D

 31 35  0  0  1  0  0  0  0  0999 V2000
  187.4360  177.8010  135.2250 C   0  0  0  0  0  0  0  0  0  0  0  0
  190.1430  177.6550  137.8970 C   0  0  2  0  0  3  0  0  0  0  0  0
  189.4800  177.7870  139.2600 C   0  0  0  0  0  0  0  0  0  0  0  0
  187.5680  178.3990  140.6370 C   0  0  0  0  0  0  0  0  0  0  0  0
  189.1810  177.2350  136.8120 C   0  0  0  0  0  0  0  0  0  0  0  0
  187.3560  176.4620  134.8300 C   0  0  0  0  0  3  0  0  0  0  0  0
  188.1580  178.2480  139.3790 C   0  0  0  0  0  3  0  0  0  0  0  0
  190.9260  175.2460  138.0370 C   0  0  2  0  0  3  0  0  0  0  0  0
  186.6290  178.7250  134.6510 F   0  0  0  0  0  0  0  0  0  0  0  0
  191.5780  177.0910  140.3490 N   0  0  0  0  0  2  0  0  0  0  0  0
  186.2250  178.8530  140.7400 N   0  0  0  0  0  1  0  0  0  0  0  0
  189.9960  174.9170  136.9600 N   0  0  0  0  0  2  0  0  0  0  0  0
  191.3700  176.7130  137.9300 C   0  0  2  0  0  3  0  0  0  0  0  0
  188.3470  178.1870  136.2120 C   0  0  0  0  0  3  0  0  0  0  0  0
  188.2970  178.1060  141.7910 C   0  0  0  0  0  3  0  0  0  0  0  0
  189.0990  175.8880  136.4110 C   0  0  0  0  0  0  0  0  0  0  0  0
  188.1900  175.5080  135.4190 C   0  0  0  0  0  3  0  0  0  0  0  0
  192.3000  177.1030  139.0800 C   0  0  0  0  0  2  0  0  0  0  0  0
  190.2200  177.5290  140.4350 C   0  0  0  0  0  0  0  0  0  0  0  0
  189.6210  177.6720  141.6890 C   0  0  0  0  0  3  0  0  0  0  0  0
  192.6720  174.9880  135.7980 O   0  0  0  0  0  0  0  0  0  0  0  0
  192.9220  174.2880  136.8180 C   0  0  0  0  0  0  0  0  0  0  0  0
  192.0820  174.3620  137.9700 N   0  0  0  0  0  2  0  0  0  0  0  0
  196.2820  174.9470  135.8440 C   0  0  0  0  0  0  0  0  0  0  0  0
  195.2110  173.8920  137.7530 C   0  0  0  0  0  2  0  0  0  0  0  0
  194.1370  172.2620  134.7110 O   0  0  0  0  0  0  0  0  0  0  0  0
  197.1620  176.0040  135.2810 C   0  0  0  0  0  1  0  0  0  0  0  0
  196.0080  174.9450  137.1150 N   0  0  0  0  0  0  0  0  0  0  0  0
  194.6380  173.1450  135.4560 C   0  0  0  0  0  0  0  0  0  0  0  0
  194.1010  173.3650  136.8360 C   0  0  2  0  0  3  0  0  0  0  0  0
  195.6930  173.9770  134.9730 N   0  0  0  0  0  2  0  0  0  0  0  0
  1 14  1  0  0  0  0
  2  5  1  6  0  0  0
  2 13  1  0  0  0  0
  2  3  1  0  0  0  0
  3  7  2  0  0  0  0
  3 19  1  0  0  0  0
  4 11  1  0  0  0  0
  4 15  2  0  0  0  0
  6  1  2  0  0  0  0
  6 17  1  0  0  0  0
  7  4  1  0  0  0  0
  8 23  1  6  0  0  0
  9  1  1  0  0  0  0
 10 19  1  0  0  0  0
 12  8  1  0  0  0  0
 13  8  1  0  0  0  0
 13 18  1  1  0  0  0
 14  5  2  0  0  0  0
 16  5  1  0  0  0  0
 16 12  1  0  0  0  0
 17 16  2  0  0  0  0
 18 10  1  0  0  0  0
 19 20  2  0  0  0  0
 20 15  1  0  0  0  0
 21 22  2  0  0  0  0
 22 23  1  0  0  0  0
 24 28  2  0  0  0  0
 26 29  2  0  0  0  0
 27 24  1  0  0  0  0
 28 25  1  0  0  0  0
 29 30  1  0  0  0  0
 30 22  1  6  0  0  0
 30 25  1  0  0  0  0
 31 29  1  0  0  0  0
 31 24  1  0  0  0  0
M  END
>  <MODEL>
8

>  <REMARK>
 VINA RESULT:      -6.7      3.543      7.261
  Name = 
  2 active torsions:
  status: ('A' for Active; 'I' for Inactive)
    1  A    between atoms: C_5  and  C_30
    2  A    between atoms: C_10  and  N_16
                            x       y       z     vdW  Elec       q    Type
                         _______ _______ _______ _____ _____    ______ ____

>  <TORSDO>
F 2

$$$$
=
 OpenBabel11122411203D

 31 35  0  0  1  0  0  0  0  0999 V2000
  184.9970  179.0400  144.6400 C   0  0  0  0  0  0  0  0  0  0  0  0
  188.7530  178.6670  144.1370 C   0  0  2  0  0  3  0  0  0  0  0  0
  189.3030  177.7950  145.2570 C   0  0  0  0  0  0  0  0  0  0  0  0
  189.0710  176.7680  147.4510 C   0  0  0  0  0  0  0  0  0  0  0  0
  187.2620  178.5130  143.9490 C   0  0  0  0  0  0  0  0  0  0  0  0
  184.4940  178.2000  143.6420 C   0  0  0  0  0  3  0  0  0  0  0  0
  188.5460  177.5410  146.4120 C   0  0  0  0  0  3  0  0  0  0  0  0
  189.0900  177.0980  142.1720 C   0  0  2  0  0  3  0  0  0  0  0  0
  184.1470  179.7020  145.4600 F   0  0  0  0  0  0  0  0  0  0  0  0
  191.4310  177.5700  144.0360 N   0  0  0  0  0  2  0  0  0  0  0  0
  188.2880  176.5080  148.6090 N   0  0  0  0  0  1  0  0  0  0  0  0
  187.6390  177.0220  142.0270 N   0  0  0  0  0  2  0  0  0  0  0  0
  189.4950  178.4410  142.7990 C   0  0  2  0  0  3  0  0  0  0  0  0
  186.3780  179.1970  144.7920 C   0  0  0  0  0  3  0  0  0  0  0  0
  190.3660  176.2530  147.3530 C   0  0  0  0  0  3  0  0  0  0  0  0
  186.7510  177.6680  142.9440 C   0  0  0  0  0  0  0  0  0  0  0  0
  185.3700  177.5190  142.7920 C   0  0  0  0  0  3  0  0  0  0  0  0
  191.0070  178.5250  143.0180 C   0  0  0  0  0  2  0  0  0  0  0  0
  190.6220  177.3010  145.1840 C   0  0  0  0  0  0  0  0  0  0  0  0
  191.1390  176.5200  146.2210 C   0  0  0  0  0  3  0  0  0  0  0  0
  188.4280  178.5850  139.8320 O   0  0  0  0  0  0  0  0  0  0  0  0
  189.3460  177.7240  139.7370 C   0  0  0  0  0  0  0  0  0  0  0  0
  189.7200  176.9380  140.8690 N   0  0  0  0  0  2  0  0  0  0  0  0
  188.0930  176.2870  136.7310 C   0  0  0  0  0  0  0  0  0  0  0  0
  189.3720  178.2750  137.2950 C   0  0  0  0  0  2  0  0  0  0  0  0
  191.0700  175.3450  138.5590 O   0  0  0  0  0  0  0  0  0  0  0  0
  186.8850  175.6570  136.1390 C   0  0  0  0  0  1  0  0  0  0  0  0
  188.1790  177.5820  136.7940 N   0  0  0  0  0  0  0  0  0  0  0  0
  190.1370  176.0530  138.0970 C   0  0  0  0  0  0  0  0  0  0  0  0
  190.0540  177.5090  138.4360 C   0  0  2  0  0  3  0  0  0  0  0  0
  189.1230  175.4630  137.2850 N   0  0  0  0  0  2  0  0  0  0  0  0
  1 14  1  0  0  0  0
  1  9  1  0  0  0  0
  2  5  1  6  0  0  0
  2  3  1  0  0  0  0
  3  7  1  0  0  0  0
  4 11  1  0  0  0  0
  5 14  2  0  0  0  0
  6  1  2  0  0  0  0
  7  4  2  0  0  0  0
  8 23  1  6  0  0  0
  8 13  1  0  0  0  0
 10 19  1  0  0  0  0
 12  8  1  0  0  0  0
 12 16  1  0  0  0  0
 13 18  1  1  0  0  0
 13  2  1  0  0  0  0
 15  4  1  0  0  0  0
 16  5  1  0  0  0  0
 17 16  2  0  0  0  0
 17  6  1  0  0  0  0
 18 10  1  0  0  0  0
 19  3  2  0  0  0  0
 19 20  1  0  0  0  0
 20 15  2  0  0  0  0
 22 21  2  0  0  0  0
 22 23  1  0  0  0  0
 24 28  2  0  0  0  0
 24 31  1  0  0  0  0
 25 30  1  0  0  0  0
 27 24  1  0  0  0  0
 28 25  1  0  0  0  0
 29 30  1  0  0  0  0
 29 26  2  0  0  0  0
 30 22  1  1  0  0  0
 31 29  1  0  0  0  0
M  END
>  <MODEL>
9

>  <REMARK>
 VINA RESULT:      -6.6      3.588      8.935
  Name = 
  2 active torsions:
  status: ('A' for Active; 'I' for Inactive)
    1  A    between atoms: C_5  and  C_30
    2  A    between atoms: C_10  and  N_16
                            x       y       z     vdW  Elec       q    Type
                         _______ _______ _______ _____ _____    ______ ____

>  <TORSDO>
F 2

$$$$
